#------------------------------------------------------------------------------
#$Date: 2019-11-26 07:04:28 +0200 (Tue, 26 Nov 2019) $
#$Revision: 242903 $
#$URL: file:///home/coder/svn-repositories/cod/cif/4/13/30/4133056.cif $
#------------------------------------------------------------------------------
#
# This file is available in the Crystallography Open Database (COD),
# http://www.crystallography.net/
#
# All data on this site have been placed in the public domain by the
# contributors.
#
data_4133056
loop_
_publ_author_name
'Hua, Xiu-Ni'
'Liao, Wei-Qiang'
'Tang, Yuan-Yuan'
'Li, Peng-Fei'
'Shi, Ping-Ping'
'Zhao, Dewei'
'Xiong, Ren-Gen'
_publ_section_title
;
 A Room-Temperature Hybrid Lead Iodide Perovskite Ferroelectric.
;
_journal_issue                   38
_journal_name_full               'Journal of the American Chemical Society'
_journal_page_first              12296
_journal_page_last               12302
_journal_paper_doi               10.1021/jacs.8b08286
_journal_volume                  140
_journal_year                    2018
_chemical_formula_moiety         '[(FCH2)(CH3)3N)], PbI3'
_chemical_formula_sum            'C4 H11 F I3 N Pb'
_chemical_formula_weight         680.03
_space_group_crystal_system      hexagonal
_space_group_IT_number           176
_space_group_name_Hall           '-P 6c'
_space_group_name_H-M_alt        'P 63/m'
_atom_sites_solution_hydrogens   difmap
_audit_creation_method           SHELXL-2014/7
_cell_angle_alpha                90
_cell_angle_beta                 90
_cell_angle_gamma                120
_cell_formula_units_Z            2
_cell_length_a                   9.8401(3)
_cell_length_b                   9.8401(3)
_cell_length_c                   7.9506(3)
_cell_measurement_reflns_used    5449
_cell_measurement_temperature    298(2)
_cell_measurement_theta_max      30.3140
_cell_measurement_theta_min      3.4820
_cell_volume                     666.70(4)
_computing_structure_refinement  'SHELXL-2014/7 (Sheldrick, 2014)'
_diffrn_ambient_temperature      298(2)
_diffrn_measured_fraction_theta_full 1.000
_diffrn_measured_fraction_theta_max 1.000
_diffrn_measurement_device_type  'XtaLAB Synergy R, DW system, HyPix'
_diffrn_radiation_type           MoK\a
_diffrn_radiation_wavelength     0.71073
_diffrn_reflns_av_R_equivalents  0.0288
_diffrn_reflns_av_unetI/netI     0.0105
_diffrn_reflns_Laue_measured_fraction_full 1.000
_diffrn_reflns_Laue_measured_fraction_max 1.000
_diffrn_reflns_limit_h_max       11
_diffrn_reflns_limit_h_min       -11
_diffrn_reflns_limit_k_max       10
_diffrn_reflns_limit_k_min       -11
_diffrn_reflns_limit_l_max       9
_diffrn_reflns_limit_l_min       -9
_diffrn_reflns_number            7477
_diffrn_reflns_point_group_measured_fraction_full 1.000
_diffrn_reflns_point_group_measured_fraction_max 1.000
_diffrn_reflns_theta_full        24.957
_diffrn_reflns_theta_max         24.957
_diffrn_reflns_theta_min         2.390
_exptl_absorpt_coefficient_mu    19.563
_exptl_absorpt_correction_T_max  0.014
_exptl_absorpt_correction_T_min  0.013
_exptl_absorpt_correction_type   multi-scan
_exptl_crystal_colour            'light yellow'
_exptl_crystal_density_diffrn    3.387
_exptl_crystal_description       block
_exptl_crystal_F_000             584
_exptl_crystal_size_max          0.24
_exptl_crystal_size_mid          0.22
_exptl_crystal_size_min          0.22
_refine_diff_density_max         1.324
_refine_diff_density_min         -1.041
_refine_diff_density_rms         0.153
_refine_ls_extinction_coef       0.0039(6)
_refine_ls_extinction_expression Fc^*^=kFc[1+0.001xFc^2^\l^3^/sin(2\q)]^-1/4^
_refine_ls_extinction_method     'SHELXL-2014/7 (Sheldrick 2014'
_refine_ls_goodness_of_fit_ref   1.063
_refine_ls_hydrogen_treatment    constr
_refine_ls_matrix_type           full
_refine_ls_number_parameters     36
_refine_ls_number_reflns         426
_refine_ls_number_restraints     51
_refine_ls_restrained_S_all      1.067
_refine_ls_R_factor_all          0.0292
_refine_ls_R_factor_gt           0.0276
_refine_ls_shift/su_max          0.000
_refine_ls_shift/su_mean         0.000
_refine_ls_structure_factor_coef Fsqd
_refine_ls_weighting_details
'w=1/[\s^2^(Fo^2^)+(0.0412P)^2^+3.7783P] where P=(Fo^2^+2Fc^2^)/3'
_refine_ls_weighting_scheme      calc
_refine_ls_wR_factor_gt          0.0748
_refine_ls_wR_factor_ref         0.0759
_reflns_Friedel_coverage         0.000
_reflns_number_gt                401
_reflns_number_total             426
_reflns_threshold_expression     'I > 2\s(I)'
_cod_data_source_file            ja8b08286_si_003.cif
_cod_data_source_block           P63M
_cod_depositor_comments
;
The following automatic conversions were performed:

data item '_exptl_absorpt_correction_type' value 'Multi-scan' was
changed to 'multi-scan' in accordance with the
/home/saulius/struct/COD-crude-data/automatic-downloads/DataCite-retrospective/ACS/depositions/lib/dictionaries/cif_core.dic
dictionary named 'cif_core.dic' version 2.4.2 last updated on
2011-04-26.

Automatic conversion script
Id: cif_fix_values 6909 2019-04-08 15:41:33Z antanas 
;
_cod_original_cell_volume        666.70(5)
_cod_database_code               4133056
_shelx_shelxl_version_number     2014/7
_shelx_space_group_comment
;
The symmetry employed for this shelxl refinement is uniquely defined
by the following loop, which should always be used as a source of
symmetry information in preference to the above space-group names.
They are only intended as comments.
;
_shelx_res_file
;

    P63M.res created by SHELXL-2014/7


TITL P63M in P6(3)/m
CELL 0.71073   9.8401   9.8401   7.9506  90.000  90.000 120.000
ZERR    2.00   0.0003   0.0003   0.0003   0.000   0.000   0.000
LATT 1
SYMM -Y, X-Y, Z
SYMM -X+Y, -X, Z
SYMM -X, -Y, 0.5+Z
SYMM Y, -X+Y, 0.5+Z
SYMM X-Y, X, 0.5+Z
SFAC C  H  N  F  I  Pb
UNIT 8 22 2 2 6 2
omit 0 50
L.S. 4
ACTA
BOND
FMAP 2
PLAN 20
ISOR 0.02 F1 c1
DELU 0.02 F1 C1 C2 n1
SIMU 0.02 F1 C1 C2 n1
DFIX 1.4 0.02 F1 C1
DFIX 1.5 0.02 N1 C2
DFIX 1.5 0.02 N1 C1
TEMP 25
WGHT    0.041200    3.778300
EXTI    0.003907
FVAR       0.14732
F1    4    0.425381    0.564712    0.095641    10.16667    0.10100    0.11194 =
         0.11611   -0.00874    0.00797    0.04835
C1    1    0.476980    0.649591    0.250000    10.50000    0.09749    0.12177 =
         0.12836    0.00000    0.00000    0.04782
AFIX   3
H1A   2    0.572030    0.748111    0.235270    10.66667   -1.20000
H1B   2    0.484750    0.593871    0.345220    10.66667   -1.20000
AFIX   0
N1    3    0.333333    0.666667    0.250000    10.16667    0.05584    0.05584 =
         0.07365    0.00000    0.00000    0.02792
PB1   6    1.000000    1.000000    0.000000    10.16667    0.06002    0.06002 =
         0.02959    0.00000    0.00000    0.03001
I1    5    0.871589    0.702381    0.250000    10.50000    0.08387    0.05563 =
         0.05773    0.00000    0.00000    0.03002
C2    1    0.405853    0.671584    0.081409    10.16667    0.07634    0.09507 =
         0.09742   -0.01217    0.01598    0.04574
AFIX   3
H2A   2    0.351323    0.683055   -0.012751    10.16667   -1.50000
H2B   2    0.511373    0.758415    0.084289    10.16667   -1.50000
H2C   2    0.407843    0.575434    0.070479    10.16667   -1.50000

AFIX   0
HKLF 4

REM  P63M in P6(3)/m
REM R1 =  0.0276 for     401 Fo > 4sig(Fo)  and  0.0292 for all     426 data
REM     36 parameters refined using     51 restraints

END

WGHT      0.0382      3.6139

REM Highest difference peak  1.324,  deepest hole -1.041,  1-sigma level  0.153
Q1    1   0.7814  0.6912  0.2500  10.50000  0.05    1.32
Q2    1   0.8665  0.6604  0.1773  11.00000  0.05    0.51
Q3    1   1.0000  1.0000  0.1073  10.33333  0.05    0.39
Q4    1   0.8167  0.8757  0.2500  10.50000  0.05    0.30
Q5    1   1.0164  0.6784  0.2500  10.50000  0.05    0.27
Q6    1   0.6609  0.5398  0.2500  10.50000  0.05    0.26
Q7    1   0.9254  0.5892  0.2500  10.50000  0.05    0.25
Q8    1   0.4208  0.5243  0.2500  10.50000  0.05    0.25
Q9    1   0.3650  0.5211  0.2500  10.50000  0.05    0.24
Q10   1   0.4068  0.7021 -0.2500  10.50000  0.05    0.22
Q11   1   0.8833  0.7578  0.1115  11.00000  0.05    0.22
Q12   1   1.0000  1.0000  0.2500  10.16667  0.05    0.21
Q13   1   0.4966  0.5679  0.0659  11.00000  0.05    0.20
Q14   1   0.3598  0.4154  0.2500  10.50000  0.05    0.20
Q15   1   0.9388  1.0623 -0.0070  11.00000  0.05    0.20
Q16   1   1.0427  0.7407  0.2500  10.50000  0.05    0.19
Q17   1   0.5208  0.8146  0.1149  11.00000  0.05    0.16
Q18   1   0.4546  0.5086  0.3205  11.00000  0.05    0.16
Q19   1   0.4087  0.8391 -0.2500  10.50000  0.05    0.16
Q20   1   0.4433  0.5390  0.0260  11.00000  0.05    0.15
;
_shelx_res_checksum              4394
_shelx_hkl_file
;
   0   0   1    0.02    0.05
   0   0  -1    0.07    0.05
   0   0  -2  403.65   11.76
   0   0  -2  382.62   11.97
   0   0   2  404.13   11.77
   0   0  -2  388.91   11.80
   0   0   2  391.39   12.01
   0   0  -3   -0.07    0.16
   0   0  -3    0.08    0.18
   0   0   3    0.21    0.22
   0   0   4 1509.98   46.52
   0   0   4 1593.04   45.80
   0   0  -4 1526.75   45.98
   0   0  -4 1598.13   46.08
   0   0  -5    0.06    0.29
   0   0   5    0.12    0.19
   0   0  -5   -0.07    0.25
   0   0   5   -0.12    0.46
   0   0   6   31.29    1.63
   0   0   6   28.63    1.96
   0   0  -6   30.60    1.55
   0   0   6   28.31    1.30
   0   0  -6   26.49    1.46
   0   0  -7   -0.09    0.38
   0   0   7    0.34    0.56
   0   0   7    0.16    0.32
   0   0   7   -0.19    0.50
   0   0  -7   -0.16    0.41
   0   0   8  238.74    9.09
   0   0   8  240.09    7.75
   0   0   8  248.48    8.23
   0   0  -8  245.34    8.14
   0   0   9    0.11    0.60
   0   0   9    0.22    0.77
   0   0   9   -0.19    0.42
   0   0  -9    1.30    0.54
   0   0  10    1.82    0.60
   0   0 -10    2.83    0.74
   0   0  10    1.48    1.03
   0   0 -11   -0.22    0.68
  -1   1   0  708.33   21.06
   1  -1   0  721.00   21.10
  -1   1   0  740.21   21.10
   1   0   1   11.01    0.54
   0  -1   1    9.21    0.45
   0   1   1   10.48    0.57
   1  -1   1   10.06    0.45
  -1   0   1    9.29    0.45
  -1   1   1    9.56    0.50
  -1   0   1    9.75    0.47
  -1   1   1    9.73    0.53
  -1   1  -1   12.78    0.48
  -1   0  -1   11.47    0.56
   0  -1  -1   10.42    0.57
   1  -1  -1    8.47    0.48
   1   0  -1    9.87    0.47
   1  -1  -1    9.30    0.41
   0  -1  -1    9.38    0.43
   1  -1   1   11.24    0.52
  -1   0  -1   10.51    0.54
   0  -1  -2  102.34    3.22
   0  -1   2  100.25    3.12
   0  -1  -2  103.20    3.49
   1   0   2   97.80    3.33
  -1   0   2   99.15    3.39
   1  -1   2  101.21    3.20
   1  -1   2  100.23    3.27
  -1   1   2  101.98    3.47
   0   1   2  100.11    3.18
   0  -1  -2   97.96    3.16
   0   1   2   99.02    3.48
   0  -1   2  101.89    3.23
  -1   0  -2   99.45    3.09
   1   0   2  100.50    3.10
   1  -1  -2  100.89    3.18
   0   1  -2  100.61    3.13
  -1   0  -2   97.20    3.43
   1   0  -2   97.71    3.22
   1  -1   3   43.20    1.65
  -1   0  -3   43.48    1.63
   1  -1   3   43.03    1.58
  -1   0   3   40.90    1.88
   1   0  -3   42.30    1.64
   0   1   3   43.03    1.96
   1  -1  -3   43.37    1.62
   1   0  -3   44.85    1.53
  -1   1   3   40.42    1.91
   1  -1   3   44.27    1.71
  -1   0  -3   43.38    1.93
  -1   0  -3   45.32    1.82
   1  -1   3   40.06    1.87
   0  -1  -3   42.02    1.60
   0  -1   3   43.58    1.67
   0   1   3   42.46    1.39
   0  -1  -3   42.90    1.94
   0  -1   3   44.87    1.57
   0   1   3   42.07    1.63
  -1   1   3   41.30    1.74
   0   1  -3   40.29    1.62
  -1   1  -3   43.96    1.72
   1   0   3   41.43    1.49
   0   1  -3   42.95    1.56
   1  -1   4  510.72   14.58
   0   1   4  452.83   15.18
   0   1   4  505.40   14.34
   0  -1  -4  491.67   14.91
   0  -1   4  479.74   15.15
   0  -1   4  478.55   14.73
  -1   0   4  488.82   15.20
   0  -1  -4  463.70   14.61
   0   1  -4  505.94   14.58
   1   0  -4  473.73   14.66
   0  -1  -4  476.69   15.16
  -1   0  -4  476.91   14.65
  -1   1  -4  486.34   14.78
  -1   0  -4  494.92   14.94
   0   1   4  479.94   14.67
  -1   1   4  482.18   14.84
   1  -1   4  474.70   15.16
   1  -1  -4  467.07   14.61
   1   0  -4  497.01   14.54
   1  -1   4  486.25   14.72
  -1   1  -4  470.76   14.65
   1  -1   4  493.99   14.71
  -1   1   4  491.89   15.25
   0   1  -4  465.06   14.66
   1   0   4  492.15   14.45
  -1   0  -5    8.97    0.74
   0   1  -5   12.11    0.75
  -1   1  -5   11.26    0.84
  -1   1   5   11.24    0.81
   0  -1  -5   10.77    0.78
  -1   0   5    8.40    0.98
   0  -1   5    8.32    0.75
   1  -1  -5   11.86    0.85
   1  -1   5   11.92    1.09
   1  -1  -5   12.12    0.82
   0   1  -5   10.52    0.79
   1  -1   5   10.13    0.70
   0   1   5   10.51    0.58
  -1   1   5   11.38    0.89
  -1   0  -5   12.43    0.97
   1   0   5   11.53    0.78
   1   0  -5   13.92    0.77
   1   0   5   10.00    0.63
   0   1   5   11.46    0.81
   1   0   5   12.04    1.11
   0  -1  -5   13.96    1.00
  -1   1   5   11.31    1.11
   0  -1   5   12.25    1.11
   0  -1  -5   10.72    1.05
  -1   1  -5   11.28    0.81
   0   1   5   11.05    1.08
   1   0  -5   11.73    0.82
  -1   0  -6   60.30    2.58
  -1   1   6   56.87    2.47
   1   0   6   47.85    2.74
   0   1  -6   51.33    2.16
   1   0  -6   53.24    2.28
   0  -1   6   51.20    2.79
  -1   0  -6   50.79    2.25
  -1   1   6   52.70    2.86
  -1   0   6   55.88    2.88
   0  -1  -6   49.87    2.22
   0  -1  -6   63.28    2.61
   0  -1   6   51.40    2.36
   1   0   6   54.81    2.25
   0   1  -6   54.38    2.29
   1  -1   6   55.65    2.17
   1  -1  -6   51.08    2.23
  -1   1   6   52.91    2.33
   1  -1  -6   57.48    2.38
   0   1   6   54.83    1.95
  -1   1  -6   55.45    2.37
   0   1   6   52.43    2.85
   0  -1   6   52.23    2.18
   1   0   6   52.27    2.03
   0   1   6   54.21    2.30
  -1   1  -6   52.59    2.27
   1   0  -6   51.61    2.15
  -1   1   6   55.67    2.01
   1  -1   6   54.32    2.85
  -1   0   7    3.95    0.79
   1  -1   7    1.97    0.47
  -1   0  -7    2.97    0.57
   0  -1  -7    2.96    0.66
  -1   1   7    3.06    0.42
  -1   0   7    1.53    0.68
   1  -1   7    2.87    0.78
   0   1  -7    2.03    0.45
   1   0   7    1.77    0.52
   1   0  -7    2.60    0.46
   0  -1   7    3.24    0.53
   0   1   7    3.38    0.59
  -1   0  -7    2.27    0.60
   1  -1  -7    2.59    0.58
   1  -1  -7    2.35    0.58
  -1   0   7    2.45    0.46
   1   0   7    4.24    0.48
  -1   1   7    3.53    0.94
  -1   1   7    3.12    0.66
   0   1  -7    2.63    0.57
  -1   1  -7    3.12    0.61
  -1   1  -7    3.54    0.60
   0  -1   7    2.36    0.63
   1   0  -7    2.11    0.56
   0  -1  -7    2.04    0.54
   0   1   7    3.36    0.85
   0  -1   7    2.87    0.78
   1   0   7    2.05    0.80
   0   1   7    2.20    0.35
  -1   0  -8   92.16    3.84
   0  -1   8   88.32    4.38
  -1   0   8   96.38    3.90
  -1   1   8   96.72    4.57
   0   1   8   95.17    3.66
   0   1  -8   90.45    3.46
   1   0   8   86.00    4.38
   1   0   8   93.25    3.56
  -1   0   8   86.29    4.39
   0  -1  -8   94.33    3.84
   0   1   8   84.89    4.41
   1  -1  -8   97.17    3.67
   0   1   8   87.71    3.13
   1  -1   8   84.27    4.33
  -1   1   8   89.14    3.77
   1   0   8   87.70    3.26
  -1   1  -8   92.38    3.70
  -1   0   8   94.23    3.40
  -1   1   8   91.00    3.21
  -1   0   8   88.79    3.80
   0  -1   8   94.06    3.48
   1   0  -8   90.15    3.39
   1  -1   8   91.90    3.67
   1  -1   8   91.34    3.42
   1  -1   9    1.46    0.60
   1   0   9   -0.22    0.81
   1   0   9    0.38    0.50
   0   1  -9    0.74    0.45
  -1   1   9    0.23    0.89
   0   1   9    1.14    0.98
   1   0  -9    1.06    0.48
  -1   0  -9    0.99    0.63
   0  -1   9    1.31    0.92
   0   1  -9    1.00    0.52
   1  -1   9    0.99    0.51
  -1   0   9    1.78    0.91
  -1   0   9    1.08    0.47
   1  -1  -9    1.27    0.55
   1  -1   9    2.18    1.04
   0  -1  -9    2.06    0.71
   0   1   9    0.62    0.58
  -1   1   9    1.13    0.42
  -1   1  -9    0.75    0.56
   1   0  -9    0.57    0.54
   0  -1   9    1.55    0.55
   1   0  10   10.37    1.70
  -1   1  10   12.90    0.88
   0   1 -10   13.71    1.11
  -1   1  10    8.78    1.63
   1  -1  10   14.84    1.94
  -1   1 -10   13.96    1.28
  -1   0  10   16.24    1.99
  -1   0 -10   13.37    1.37
  -1   0  10   13.69    1.05
   1   0 -10   10.91    1.15
   1  -1 -10   12.07    1.15
   0   1 -10   12.64    1.09
   0  -1 -10   12.43    1.28
   1  -1  10   12.36    1.06
   0   1  10   11.81    1.80
   0  -1  10   11.46    1.08
   1   0 -10   11.70    1.02
   0  -1  10   10.72    1.71
   1  -1 -11   -0.24    0.74
   1   0 -11    0.97    0.70
  -1   1 -11   -0.10    0.62
  -2   1   0  182.24    5.60
  -1  -1   0  184.04    5.61
  -1   2   0  185.51    5.63
  -1  -1   0  185.51    5.56
   1  -2   0  185.67    5.64
  -2   1   0  181.40    5.66
   1  -2   0  184.19    5.53
   2  -1  -1   24.47    1.13
  -2   1   1   27.16    1.09
  -1  -1  -1   26.48    0.95
   1  -2   1   29.21    0.99
   2  -1   1   27.98    1.02
  -1  -1   1   26.61    1.08
  -2   1  -1   28.15    1.18
   1  -2  -1   27.42    0.91
   2  -1  -1   28.88    1.04
  -2   1   1   27.59    1.06
   1  -2   1   28.88    1.06
  -1   2   1   28.39    1.22
   1  -2  -1   28.16    1.11
  -1  -1  -1   29.34    1.19
  -2   1   1   27.11    1.16
   2  -1   1   27.32    0.95
   2  -1  -1   27.50    1.09
   2  -1   1   27.55    1.14
   1  -2  -1   28.10    0.91
  -2   1  -1   28.46    0.95
  -1   2   1   28.69    0.91
  -2   1   2  762.86   22.61
   2  -1   2  738.41   22.52
   1  -2  -2  768.77   22.25
   1   1  -2  754.54   22.41
  -1  -1   2  748.71   22.30
   1  -2   2  759.41   22.33
   2  -1  -2  774.45   22.48
  -1   2   2  738.64   22.72
   1  -2   2  763.02   22.40
   1  -2  -2  753.19   22.46
  -2   1   2  734.70   22.56
   1   1   2  763.39   22.17
  -1  -1  -2  750.08   22.67
  -1  -1   2  759.43   22.44
  -2   1  -2  768.26   22.33
   2  -1  -2  758.93   22.36
  -1  -1  -2  755.20   22.21
  -2   1  -2  765.45   22.26
  -2   1  -3   18.66    0.85
  -1  -1  -3   21.96    1.25
  -2   1  -3   18.51    1.05
   2  -1  -3   17.91    1.03
  -1   2   3   18.31    1.19
  -1  -1  -3   17.07    0.70
   1   1   3   17.72    0.77
  -1  -1   3   16.83    0.94
   2  -1  -3   18.21    0.90
   1  -2   3   17.63    0.90
   1   1  -3   17.62    0.82
   1   1  -3   17.46    0.91
  -1   2   3   18.99    0.96
   1  -2  -3   16.94    0.83
   1  -2   3   18.54    0.91
  -1   2  -3   18.64    0.94
   1  -2  -3   18.68    1.01
   2  -1   3   17.96    1.01
   2  -1   3   20.39    0.88
  -2   1   3   18.19    1.12
   2  -1  -4   70.91    2.58
   1  -2   4   71.74    2.57
   2  -1  -4   68.69    2.80
   1  -2   4   70.43    2.56
  -1  -1  -4   65.31    2.53
  -2   1   4   68.82    2.60
   2  -1   4   64.16    2.69
  -1  -1  -4   64.24    2.97
  -1   2   4   65.63    2.61
  -1  -1   4   71.80    2.95
  -2   1   4   72.87    2.88
   1   1  -4   71.33    2.47
  -2   1  -4   71.23    2.82
  -2   1   4   67.64    2.97
   1  -2   4   70.25    2.60
   2  -1   4   75.81    2.51
   1   1  -4   70.43    2.28
  -1  -1   4   66.78    2.65
   1   1  -4   72.07    2.62
  -1  -1  -4   75.32    2.91
   1  -2  -4   65.65    2.49
  -1   2   4   70.93    2.18
   1   1   4   68.12    2.40
  -1   2   4   65.81    3.03
  -1   2  -4   72.15    2.60
   1  -2   5    8.27    0.72
   2  -1   5    7.03    0.72
  -1  -1   5    6.76    0.69
  -1   2   5    7.30    0.95
   1   1  -5    7.62    0.68
   1  -2  -5    7.25    0.63
  -2   1   5    6.59    0.77
   1  -2   5    7.87    0.65
  -1  -1  -5    8.30    0.67
   1  -2   5    6.48    0.62
   1   1  -5    8.04    0.50
   2  -1  -5    8.04    0.62
   1  -2   5    9.23    0.96
  -1  -1  -5    6.53    0.88
  -2   1   5    8.03    0.94
  -1   2  -5    8.40    0.69
  -1  -1   5    7.19    0.86
   1   1  -5    8.74    0.62
  -1   2   5    6.73    0.40
  -2   1  -5    7.66    0.79
  -2   1   5    8.03    0.70
   2  -1  -5    7.02    0.65
  -1   2   5    7.00    0.69
   1   1   5    6.98    0.56
  -1  -1  -5    8.28    0.86
  -2   1   6  199.66    6.69
   1  -2   6  205.71    7.33
  -2   1   6  197.15    7.37
  -1  -1  -6  204.35    7.02
  -2   1  -6  191.77    6.57
  -1  -1   6  196.72    6.74
   1  -2   6  206.92    6.56
   1   1  -6  188.02    6.56
  -1   2   6  188.24    7.39
   1   1   6  199.48    6.42
  -2   1  -6  206.02    6.92
   2  -1  -6  206.34    6.49
  -1   2   6  201.91    6.69
   1   1  -6  196.51    6.43
  -1  -1  -6  196.06    7.24
   2  -1  -6  189.59    6.54
  -1   2  -6  199.06    6.57
   1  -2  -6  203.14    6.84
   1  -2  -6  190.49    6.49
   2  -1   6  198.19    6.40
   1  -2   6  187.87    6.66
  -1   2   6  201.59    6.06
  -2   1   6  213.00    6.99
  -1  -1   6  192.64    7.25
  -1  -1  -6  195.20    6.56
   1   1  -6  201.28    6.24
  -1  -1  -7    1.98    0.60
  -2   1  -7    1.33    0.52
  -1   2  -7    2.23    0.52
  -1  -1  -7    1.29    0.52
  -1   2   7    2.02    0.81
   1  -2  -7    2.43    0.59
   2  -1  -7    2.55    0.51
  -2   1   7    1.93    0.75
   1   1   7    1.88    0.47
   1  -2  -7    1.85    0.49
   1  -2   7    2.01    0.73
   1   1  -7    1.83    0.43
   1  -2   7    2.42    0.54
  -2   1   7    2.10    0.57
   1   1  -7    2.87    0.61
  -2   1  -7    2.60    0.69
  -1   2   7    2.14    0.59
  -1  -1   7    2.88    0.80
   1   1  -7    2.44    0.39
  -1   2   7    2.00    0.29
   2  -1  -7    2.17    0.55
   2  -1   7    2.12    0.52
   2  -1   7    2.88    0.49
  -2   1   7    2.65    0.71
   1   1   8   25.37    1.43
   1  -2   8   28.62    1.59
  -1   2  -8   28.28    1.58
  -1   2   8   26.11    1.64
  -2   1   8   26.91    2.23
  -1  -1   8   26.27    1.52
   1  -2   8   25.99    2.14
  -1   2   8   25.69    2.19
   2  -1  -8   28.16    1.46
   1  -2  -8   34.22    1.91
   2  -1   8   29.87    1.54
  -1  -1   8   27.07    2.16
   2  -1   8   25.13    1.40
  -1  -1  -8   23.67    1.74
   1   1  -8   26.65    1.30
  -2   1  -8   28.44    1.82
   2  -1  -8   28.08    1.63
   1   1  -8   26.10    1.48
   1   1   8   23.28    2.07
  -1   2   8   26.61    1.12
  -2   1   8   23.74    1.64
  -2   1   8   29.50    1.87
  -2   1   8   24.43    1.33
  -1   2   9   -0.47    1.01
  -1  -1  -9    0.57    0.66
   1  -2   9    0.64    0.55
   1   1  -9    0.79    0.40
  -1   2  -9    1.02    0.50
  -1  -1   9    1.09    0.83
  -1   2  -9    0.74    0.52
   1  -2   9    0.88    0.98
   2  -1  -9    0.44    0.48
   1  -2  -9    1.20    0.66
  -1   2   9    0.56    0.60
   1   1  -9   -0.08    0.51
   1   1   9    0.45    0.91
  -1  -1   9    0.79    0.52
  -2   1   9    1.35    1.04
  -2   1   9    0.13    0.43
   1   1   9    0.08    0.49
   2  -1  -9    1.57    0.67
   2  -1   9   -0.09    0.50
  -2   1  -9    0.13    0.64
  -2   1 -10   26.54    1.95
  -1  -1  10   32.26    1.78
   1   1 -10   28.10    1.67
  -1  -1 -10   29.05    2.07
  -1  -1  10   30.76    2.62
  -2   1  10   27.87    2.62
   2  -1 -10   30.05    1.87
   1  -2  10   29.60    1.73
   1   1  10   31.55    2.72
   1  -2 -10   31.69    1.99
  -2   1  10   31.07    1.52
  -1   2  10   26.62    2.57
  -1   2 -10   31.41    1.63
   1  -2  10   26.66    2.48
   2  -1 -11    0.35    0.71
  -1  -1 -11    0.75    0.81
  -2   0   0    6.25    0.41
   0  -2   0    5.81    0.45
   2  -2   0    6.08    0.36
   2   0   0    5.09    0.38
   0  -2   1  945.33   27.24
   0  -2  -1  887.37   27.62
  -2   0  -1  945.42   27.61
  -2   2   1  943.88   27.53
  -2   0  -1  898.75   27.46
  -2   2   1  932.42   27.25
   2   0   1  956.30   27.42
   2   0  -1  936.14   27.30
   2  -2  -1  949.48   27.53
   0  -2   1  919.65   27.40
   2   0   1  885.57   27.57
   2  -2   1  954.18   27.42
  -2   2  -1  924.17   27.41
  -2   2   1  905.94   27.55
   2  -2   1  929.01   27.55
   0  -2  -1  954.04   27.42
  -2   0   1  950.52   27.30
   2  -2  -1  937.94   27.27
   2   0   1  933.17   27.43
   0   2   2  994.86   30.99
   2   0   2 1013.77   30.80
  -2   2  -2 1092.87   30.42
   2  -2  -2 1079.61   30.87
  -2   2   2 1030.67   30.92
   0  -2   2 1067.65   30.66
   0  -2  -2 1044.81   30.61
  -2   0   2 1056.01   30.75
   2  -2   2 1021.55   30.75
   2  -2  -2 1049.64   30.52
  -2   0  -2 1023.35   30.86
   0  -2   2 1035.37   30.40
   0   2   2 1046.32   30.57
  -2   0   2 1035.58   30.66
  -2   2   2 1074.35   30.53
  -2   2  -2 1038.38   30.61
   2   0  -2 1040.01   30.68
   2   0   2 1017.87   30.87
  -2   0  -2  961.45   30.87
   2  -2  -2 1021.41   30.79
   0  -2  -2 1043.04   30.97
  -2   2  -2 1013.32   30.55
   0   2   3  485.93   15.34
   2   0  -3  502.41   14.86
   2  -2   3  481.91   14.99
   2  -2  -3  484.01   14.78
   0   2  -3  496.41   14.61
   0  -2  -3  506.55   15.36
   0  -2   3  497.80   14.70
  -2   0  -3  487.65   14.71
   2   0   3  496.23   15.14
   2   0  -3  490.52   14.91
   0  -2  -3  478.99   14.86
  -2   2   3  481.25   15.31
   0  -2  -3  490.48   14.78
   0  -2   3  511.88   14.94
  -2   0   3  499.81   15.17
   2  -2  -3  508.16   15.20
  -2   2  -3  495.26   15.06
   2   0   3  498.85   14.53
  -2   2   3  503.81   14.81
  -2   0  -3  496.51   15.26
   0   2   3  498.19   14.80
   2  -2   3  502.56   14.85
   2   0  -4   13.12    0.57
  -2   2   4   12.03    0.92
   0  -2  -4   14.45    1.14
  -2   0   4   12.69    1.02
   0   2   4   12.82    1.08
   2  -2  -4   11.49    0.75
  -2   0  -4   10.17    0.91
   0  -2   4   12.16    0.84
  -2   2   4   12.34    1.09
  -2   0  -4   16.63    0.89
   2  -2   4   14.35    0.91
  -2   0  -4   12.16    0.67
   2  -2  -4   15.27    1.07
  -2   2  -4   12.66    0.90
  -2   2   4   13.76    0.81
   0   2  -4   12.37    0.64
   2  -2   4   13.13    0.80
   2   0   4   12.88    0.63
   0  -2  -4   12.26    0.77
   0  -2   4   12.57    0.69
   2   0  -4   16.33    0.87
   2   0  -4   13.77    0.85
   0   2   4   12.60    0.76
  -2   0   5  229.96    7.70
   2  -2   5  217.79    7.16
   2   0  -5  223.56    7.01
   0  -2   5  209.23    6.79
  -2   2  -5  227.61    7.26
   2  -2   5  224.33    6.99
   2   0  -5  213.17    6.65
   2   0   5  214.20    6.76
  -2   2   5  215.59    7.02
  -2   0  -5  226.37    7.49
  -2   0  -5  220.61    7.02
  -2   2   5  205.88    7.69
   0  -2  -5  221.26    6.98
   0  -2   5  218.85    7.58
   0  -2  -5  217.68    7.40
   2   0  -5  211.70    7.04
   2  -2  -5  229.07    7.55
   0   2  -5  214.94    6.77
  -2   2   5  222.71    7.29
   0   2   5  221.60    6.96
   0   2   5  206.74    7.71
   0  -2  -5  215.77    7.67
   0  -2   5  220.12    7.16
   2  -2  -5  213.03    6.96
   0  -2  -6  282.89    8.93
   0   2   6  283.31    8.91
  -2   2   6  281.26    9.26
   2  -2  -6  302.07    9.12
  -2   2   6  283.32    9.91
   2  -2   6  278.74    8.90
   0   2  -6  277.79    8.75
   2   0   6  276.66    8.72
   2  -2  -6  286.67    9.55
   2  -2  -6  277.76    8.92
   0  -2   6  277.43    9.71
   2   0  -6  262.97    8.95
  -2   2   6  281.19    9.02
   2  -2   6  274.48    9.06
   2   0  -6  285.58    8.57
  -2   0  -6  278.60    8.97
   0  -2  -6  295.56    9.79
   0  -2  -6  291.34    9.41
   0   2   6  256.38    9.76
  -2   0   6  273.13    9.70
   0   2  -6  279.99    8.70
  -2   2  -6  272.16    9.15
   2   0  -6  282.89    8.95
   0  -2   6  281.02    9.15
  -2   0  -6  295.54    9.51
   2   0   7   74.23    2.68
  -2   0  -7   68.70    2.88
   0  -2   7   70.63    2.88
   2   0  -7   66.48    2.86
   2   0  -7   64.05    2.80
   0  -2  -7   66.85    3.44
   0  -2  -7   71.97    3.25
  -2   2   7   72.90    2.47
  -2   2  -7   71.03    3.03
   2  -2  -7   65.33    2.78
  -2   0   7   63.21    2.98
   2  -2  -7   74.99    3.00
   0   2  -7   68.01    2.62
   0   2   7   75.54    2.86
  -2   0   7   67.53    3.53
   0  -2   7   68.32    3.02
   0   2   7   64.35    3.54
  -2   2   7   70.95    2.97
  -2   2   7   68.44    3.63
   2   0  -7   69.43    2.48
   2  -2   7   68.44    2.78
   0   2  -7   69.68    2.65
  -2   0  -7   73.00    3.30
   0  -2   7   70.49    3.56
   0  -2  -7   67.28    2.82
  -2   0   7   69.24    3.21
  -2   2   7   70.23    3.10
  -2   2  -8   13.51    1.20
  -2   0   8   13.52    1.25
   2   0  -8   14.24    1.10
   2   0  -8   12.87    0.81
   0  -2   8   14.89    1.63
   2  -2  -8   14.27    1.14
   0  -2   8   14.82    1.15
   2  -2   8   13.28    1.08
   2   0   8   13.68    0.97
   0  -2   8   13.90    1.28
   0   2  -8   13.76    0.94
   0  -2  -8   14.33    1.31
  -2   2   8   13.33    1.62
  -2   2   8   10.99    1.23
   0   2   8   15.28    1.11
  -2   0   8   14.13    1.64
   0   2   8   14.75    1.70
  -2   2   8   13.65    0.80
  -2   0  -8   14.88    1.38
   0   2   9   14.03    1.17
  -2   0  -9   17.10    1.53
  -2   2   9   13.95    0.83
   0  -2   9   12.97    1.80
   2   0   9   13.78    1.05
  -2   0   9   14.25    1.73
   0   2   9   12.57    1.71
  -2   0   9   15.46    1.13
   2  -2   9   13.08    1.66
   2  -2   9   14.03    1.23
  -2   0   9   13.88    1.36
   2  -2  -9   13.65    1.19
   2  -2   9   13.43    1.12
   2   0  -9   13.87    0.85
   0  -2  -9   13.24    1.35
   0   2  -9   14.05    1.04
   0  -2   9   14.58    1.21
   2   0  -9   16.06    1.23
  -2   2  -9   15.66    1.33
  -2   2   9   11.59    1.71
   2   0 -10   30.95    1.89
   2  -2  10   38.18    2.93
   0  -2  10   33.95    1.96
  -2   0 -10   32.97    2.32
   2  -2  10   35.54    1.93
   0  -2  10   39.66    2.97
   0   2 -10   36.24    1.81
  -2   0  10   30.75    2.75
   2  -2 -10   42.87    2.08
   0  -2 -10   33.43    2.25
  -2   2  10   34.89    2.86
  -2   0  10   35.53    1.84
  -2   2 -10   30.68    2.04
   0   2  10   30.18    2.73
   2  -2 -10   38.94    2.15
   2   0 -11    3.52    0.84
   0  -2 -11    3.63    1.00
  -2   0 -11    3.50    1.06
   2  -2 -11    2.31    0.86
  -2  -1   0   89.75    2.97
  -2  -1   0   89.84    3.05
  -3   2   0   91.87    3.04
  -2  -1   0   90.58    2.98
   1  -3   0   93.06    2.81
   1  -3   0   89.86    3.08
   1  -3   0   89.37    3.16
  -2  -1  -1  317.65    9.71
   1  -3  -1  325.73    9.90
   2   1   1  325.10    9.68
  -3   2   1  321.03    9.51
  -2  -1  -1  319.55    9.82
  -1   3   1  328.97    9.93
  -3   2   1  323.26    9.60
  -2  -1  -1  310.74    9.60
   3  -2  -1  316.03    9.58
   3  -2   1  310.34    9.77
  -3   2  -1  319.49    9.84
  -3   2   1  317.49    9.77
  -3   2  -1  316.62    9.54
   1  -3  -1  319.53    9.42
  -2  -1   1  315.29    9.50
   1  -3  -1  323.60    9.70
  -3   2  -1  320.73    9.63
   3  -2  -1  303.02    9.66
   3  -2   1  319.36    9.54
  -1   3  -1  315.63    9.48
   1  -3   1  316.87    9.48
  -1   3   2  493.77   15.38
   3  -2  -2  522.31   15.43
  -2  -1   2  506.29   15.32
   3  -2   2  503.24   15.53
  -2  -1  -2  527.91   15.68
  -2  -1  -2  511.87   15.63
  -3   2   2  525.98   15.27
  -2  -1   2  532.00   15.46
  -1   3   2  515.78   15.78
   3  -2   2  487.30   15.17
   3  -2  -2  518.00   15.58
   2   1   2  518.56   15.57
  -3   2  -2  510.67   15.34
   3  -2   2  500.81   15.19
   2   1  -2  516.61   15.42
   3  -2  -2  519.41   15.44
  -3   2   2  517.64   15.59
  -2  -1  -2  513.55   15.03
  -3   2   2  513.71   15.51
   3  -2  -2  496.25   15.27
   1  -3  -2  515.24   15.43
  -1   3  -2  509.27   15.26
   1  -3   2  521.88   15.28
   1  -3  -2  525.12   14.98
   1  -3  -2  504.65   15.14
   1  -3  -2  509.63   15.71
  -2  -1   3  163.11    5.39
  -2  -1   3  171.05    5.55
   1  -3   3  175.75    5.43
  -1   3   3  171.69    5.47
  -1   3  -3  165.32    5.37
   1  -3   3  167.64    5.41
   3  -2   3  168.45    5.62
  -3   2  -3  166.53    5.38
   1  -3  -3  168.09    5.52
   3  -2  -3  165.34    5.37
   2   1  -3  164.18    5.48
   3  -2   3  176.92    5.42
  -2  -1  -3  176.78    5.88
  -3   2   3  174.52    5.39
   2   1   3  165.48    5.73
   1  -3  -3  164.52    5.25
  -1   3   3  166.80    5.95
   2   1   3  168.68    5.04
   3  -2  -3  169.23    5.61
  -2  -1  -3  161.16    5.19
  -3   2  -3  171.42    5.39
  -3   2   3  168.38    5.77
  -3   2  -3  172.02    5.24
   3  -2  -4   78.57    2.88
  -3   2   4   87.40    2.96
   1  -3   4   79.11    2.95
  -2  -1  -4   81.08    2.66
  -3   2  -4   79.37    2.85
   2   1   4   78.04    2.57
  -1   3  -4   80.75    2.91
   1  -3  -4   78.36    3.04
  -2  -1  -4   80.97    3.40
  -2  -1   4   82.04    3.26
   3  -2   4   82.70    2.91
   2   1  -4   78.79    2.99
  -2  -1   4   83.61    3.07
  -2  -1  -4   82.68    3.35
  -3   2  -4   81.61    3.23
   3  -2   4   82.20    3.31
   3  -2  -4   83.73    3.19
  -3   2   4   75.85    3.34
   1  -3  -4   76.00    2.78
  -1   3   4   76.83    3.46
  -3   2  -4   80.65    2.90
  -3   2  -4   79.39    2.72
   2   1  -4   80.53    2.84
   3  -2   4   76.31    3.09
  -1   3   4   73.79    2.91
  -1   3  -4   81.76    2.53
   1  -3   4   84.19    2.90
   2   1   4   75.79    3.28
   1  -3   5   69.16    2.68
  -3   2   5   71.45    3.33
  -1   3  -5   72.07    2.40
   1  -3   5   74.37    2.88
  -1   3   5   76.36    3.48
  -2  -1   5   70.09    2.91
  -3   2   5   76.65    3.15
  -2  -1  -5   75.22    3.37
  -2  -1  -5   69.17    2.43
  -3   2   5   75.97    2.83
  -3   2  -5   74.59    3.11
   3  -2   5   66.45    3.18
   2   1   5   70.23    2.43
   2   1   5   65.99    3.21
  -2  -1  -5   70.36    2.76
  -1   3  -5   74.19    2.79
   3  -2  -5   71.93    3.06
   3  -2  -5   68.79    2.73
   2   1  -5   70.90    2.83
   2   1  -5   71.72    2.68
  -1   3   5   77.01    2.84
   3  -2   5   73.01    2.99
  -2  -1   5   71.05    3.20
   3  -2   5   78.29    2.79
  -2  -1  -5   73.25    3.20
   1  -3  -5   68.37    2.66
   1  -3   5   76.49    2.87
   3  -2  -5   74.20    2.89
  -1   3  -6  158.43    4.94
   3  -2  -6  162.69    5.50
  -3   2   6  163.46    5.78
   2   1   6  146.45    5.99
  -1   3   6  163.38    5.41
  -3   2   6  155.07    5.41
   1  -3   6  143.09    5.17
  -2  -1  -6  165.72    5.94
   2   1  -6  152.29    5.38
  -3   2  -6  164.24    5.79
   1  -3  -6  153.48    5.24
   3  -2  -6  155.85    5.31
  -2  -1  -6  148.25    5.99
   1  -3   6  154.69    5.48
   3  -2   6  155.96    5.57
   1  -3   6  157.10    6.05
  -1   3   6  139.21    6.05
   2   1   6  149.32    4.95
   2   1  -6  151.58    5.21
  -3   2   6  144.42    6.03
  -1   3  -6  155.52    5.35
  -2  -1   6  156.40    6.00
   3  -2   6  163.58    5.30
   1  -3   6  163.13    5.44
  -2  -1  -6  159.58    5.36
   3  -2   6  152.37    5.99
   3  -2   7   20.71    1.81
   2   1  -7   23.29    1.32
  -1   3   7   23.11    1.40
   3  -2  -7   25.12    1.36
  -3   2   7   21.23    1.86
  -1   3  -7   20.17    1.36
   1  -3   7   23.71    1.47
   1  -3  -7   23.22    1.64
  -2  -1  -7   22.89    1.42
   3  -2  -7   22.99    1.39
  -2  -1  -7   25.66    1.80
   1  -3   7   25.38    1.97
  -3   2  -7   26.64    1.72
  -1   3  -7   23.30    1.12
  -1   3   7   20.87    1.91
  -3   2   7   20.23    1.58
   2   1   7   23.90    1.15
   3  -2   7   23.68    1.37
  -2  -1   7   22.22    1.85
   3  -2  -7   21.17    1.43
  -3   2   7   23.26    1.47
   1  -3  -7   22.23    1.32
   1  -3   7   23.63    1.55
   2   1  -7   22.92    1.44
   3  -2  -8   30.59    1.76
   1  -3   8   27.16    1.65
  -3   2   8   23.78    1.65
   3  -2  -8   27.42    1.48
  -2  -1   8   24.97    2.09
  -1   3   8   27.51    2.30
   1  -3  -8   27.57    1.88
  -1   3   8   29.11    1.67
  -3   2  -8   25.04    1.80
  -2  -1  -8   27.35    1.94
   3  -2   8   25.46    2.13
   3  -2   8   24.74    1.47
  -3   2   8   30.44    2.33
   3  -2   8   27.44    1.51
   1  -3   8   24.32    2.09
   2   1  -8   25.16    1.48
   2   1   8   28.62    1.36
  -1   3  -8   25.55    1.29
  -1   3  -9    5.23    0.62
  -3   2  -9    4.97    0.94
   1  -3  -9    6.33    1.02
   3  -2   9    5.09    0.74
  -3   2   9    5.26    1.29
   3  -2  -9    4.96    0.73
   2   1  -9    5.47    0.79
  -3   2   9    5.32    0.62
   1  -3   9    5.83    1.22
  -1   3   9    6.72    0.91
   2   1   9    4.90    0.63
  -2  -1   9    6.40    0.85
   1  -3   9    7.45    0.95
   3  -2  -9    5.81    0.91
  -1   3   9    3.85    1.16
  -2  -1  -9    5.70    1.06
  -2  -1   9    6.04    1.34
  -1   3  10   23.96    2.45
   3  -2 -10   22.40    1.69
   1  -3 -10   24.96    1.88
  -3   2 -10   24.10    1.88
  -2  -1  10   19.89    2.21
  -2  -1 -10   20.89    1.88
  -3   2  10   22.08    2.33
   2   1 -10   22.83    1.50
  -2  -1  10   22.37    1.87
  -2  -1  10   24.90    1.60
   1  -3  10   22.20    2.34
   1  -3  10   26.90    1.73
  -2  -1 -11    1.55    0.96
   3  -2 -11    0.77    0.83
   1  -3  11    1.15    0.80
  -2   3   0  314.48    9.61
   2  -3   0  306.86    9.62
  -1  -2   0  312.39    9.46
  -3   1   0  314.09    9.56
   2  -3   0  322.71    9.47
  -1  -2   0  322.91    9.65
  -3   1   0  316.82    9.64
   3  -1  -1   63.29    2.04
  -2   3   1   67.14    2.47
  -3   1  -1   64.42    2.42
   1   2  -1   64.30    2.16
   3  -1  -1   62.73    2.20
   2  -3   1   64.24    2.05
   2  -3   1   64.80    2.04
  -2   3   1   65.93    2.10
  -1  -2  -1   64.59    2.17
  -2   3  -1   64.66    2.06
   3  -1   1   63.48    2.17
   2  -3   1   63.10    2.23
  -3   1   1   66.66    2.08
  -2   3   1   60.96    2.32
  -1  -2  -1   68.78    2.45
   2  -3  -1   68.69    2.37
  -3   1   1   64.87    2.41
   3  -1   1   65.66    2.10
   2  -3  -1   65.36    1.97
  -1  -2   1   64.61    2.28
  -3   1   1   62.84    2.30
   3  -1   1   63.49    2.24
  -3   1  -1   63.85    2.09
   3  -1   2  268.29    8.52
  -1  -2  -2  274.94    8.17
   2  -3   2  273.70    8.33
   3  -1  -2  269.32    8.32
   2  -3   2  280.27    8.18
  -3   1   2  273.62    8.39
   2  -3  -2  269.12    8.08
  -3   1  -2  271.11    8.59
  -3   1   2  264.04    8.31
  -1  -2   2  268.66    8.37
   2  -3  -2  273.79    8.45
   3  -1  -2  259.06    8.23
   2  -3   2  265.86    8.43
   3  -1   2  269.63    8.41
  -2   3   2  271.13    8.02
  -1  -2  -2  270.75    8.63
  -3   1  -2  261.41    8.26
  -3   1   2  263.97    8.36
   3  -1   2  275.52    7.98
  -2   3  -2  269.37    8.18
  -3   1  -2  267.33    8.24
  -1  -2   2  270.94    8.16
  -3   1   2  280.42    8.65
  -2   3   2  268.16    8.66
   2  -3  -3   32.32    1.60
  -3   1   3   36.56    1.55
  -3   1  -3   35.75    1.46
  -1  -2  -3   36.92    1.42
   3  -1   3   35.74    1.70
  -2   3   3   39.55    1.92
   2  -3   3   35.80    1.46
   1   2   3   35.15    1.34
  -3   1  -3   35.14    1.43
  -3   1   3   34.47    1.68
  -2   3  -3   35.51    1.16
  -1  -2   3   37.07    1.23
  -1  -2   3   37.10    1.61
   3  -1  -3   36.10    1.54
   2  -3  -3   36.27    1.38
   3  -1   3   36.17    1.72
   3  -1   3   35.71    1.18
  -1  -2  -3   36.70    1.86
  -2   3   3   36.35    1.63
   2  -3   3   35.37    1.58
  -2   3  -3   37.34    1.47
  -3   1   3   37.78    1.84
  -2   3   3   36.82    1.39
  -1  -2  -3   35.87    1.22
   2  -3  -4  166.82    5.78
  -2   3   4  163.31    6.15
   2  -3  -4  171.69    5.41
  -3   1   4  180.10    5.64
  -2   3   4  171.01    5.69
  -3   1  -4  178.28    5.98
   2  -3  -4  179.67    6.05
  -1  -2   4  164.66    5.11
  -3   1  -4  163.53    5.38
  -1  -2  -4  172.21    6.11
  -3   1  -4  169.03    5.41
   3  -1  -4  169.50    5.56
   2  -3   4  164.97    5.59
   2  -3   4  174.88    5.57
   2  -3   4  172.62    5.53
  -1  -2  -4  165.32    5.91
   3  -1   4  164.84    5.79
  -1  -2   4  167.66    5.66
  -3   1   4  171.04    5.95
  -2   3  -4  173.62    5.51
  -1  -2  -4  166.69    5.08
   3  -1  -4  165.97    5.58
   3  -1   4  163.90    5.92
   1   2   4  169.97    5.31
   3  -1   5   15.79    1.16
   3  -1  -5   14.86    1.00
  -3   1   5   16.41    1.33
  -1  -2  -5   13.88    1.30
  -1  -2  -5   14.02    1.18
   3  -1  -5   16.75    0.82
  -3   1  -5   18.38    1.33
   3  -1  -5   16.20    1.03
   3  -1   5   15.11    1.28
  -1  -2   5   16.05    1.11
   2  -3  -5   17.38    1.38
   1   2   5   16.87    0.88
  -1  -2  -5   16.20    0.99
   1   2  -5   16.44    0.86
  -2   3  -5   16.34    1.08
   2  -3   5   14.14    0.97
  -3   1  -5   13.27    0.85
  -3   1   5   18.17    1.33
  -2   3   5   13.54    1.05
   2  -3   5   14.98    1.01
  -2   3   5   12.80    1.33
   2  -3   5   15.79    1.05
  -2   3  -5   15.68    0.99
   2  -3  -5   15.77    0.94
  -3   1   5   17.99    1.11
  -2   3   6   99.67    3.07
   1   2  -6   94.74    3.43
   2  -3   6   97.46    3.71
   2  -3  -6   93.13    3.57
  -1  -2  -6  103.07    3.68
   3  -1   6  101.56    3.41
  -1  -2  -6   99.67    4.36
  -1  -2  -6   97.96    4.14
  -2   3  -6   95.61    3.77
  -3   1   6  107.46    4.19
  -2   3  -6   97.31    3.68
   1   2   6   98.05    3.45
   2  -3   6   96.53    4.29
   2  -3  -6  100.69    4.23
   2  -3   6  104.82    3.75
   3  -1   6   97.98    4.30
  -3   1   6   95.40    3.79
  -1  -2   6  104.37    3.92
  -2   3   6   98.95    3.85
  -3   1  -6  100.69    4.14
  -3   1   6   94.64    4.29
  -1  -2   6   97.13    4.28
   3  -1  -6  107.45    3.39
   3  -1  -6   96.97    3.69
  -2   3   6   92.21    4.41
   3  -1  -6  100.00    3.75
  -1  -2   7    2.69    0.84
  -1  -2   7    6.55    0.86
   2  -3  -7    4.54    0.65
   3  -1  -7    5.15    0.70
  -3   1   7    4.97    0.75
  -1  -2  -7    4.31    0.68
  -2   3  -7    5.20    0.72
   1   2  -7    4.89    0.56
   1   2   7    3.69    0.53
   3  -1   7    3.03    0.83
  -1  -2  -7    3.69    0.97
  -1  -2  -7    4.36    0.81
  -2   3   7    5.06    0.80
   3  -1  -7    4.74    0.49
   2  -3  -7    5.97    0.81
  -2   3  -7    4.74    0.71
  -3   1  -7    4.04    0.80
  -2   3   7    3.46    0.96
   2  -3   7    3.42    0.64
   2  -3   7    7.29    1.11
  -3   1   7    4.94    0.88
  -3   1   7    4.15    0.94
   3  -1  -7    2.80    0.61
   3  -1   7    4.58    0.53
   2  -3   7    5.48    0.70
   2  -3  -7    4.40    0.88
  -2   3   7    4.47    0.31
  -2   3   8   41.05    2.25
   2  -3   8   37.91    2.05
  -1  -2   8   44.87    2.37
   1   2   8   41.73    1.89
  -1  -2   8   41.01    2.11
  -1  -2  -8   47.01    2.56
  -3   1   8   44.34    2.31
   3  -1   8   41.19    1.81
   3  -1  -8   38.65    2.08
  -3   1   8   44.56    2.83
   3  -1   8   36.23    2.62
  -1  -2   8   41.19    2.74
   2  -3  -8   45.59    2.34
  -3   1  -8   45.56    2.54
   2  -3   8   39.45    2.67
   1   2  -8   40.16    1.87
  -2   3   8   41.45    2.90
   3  -1  -8   43.72    1.70
  -1  -2   9    1.10    0.93
  -2   3  -9    0.67    0.44
  -3   1   9    0.94    0.50
   2  -3   9    1.01    0.59
   3  -1  -9    0.98    0.35
   3  -1   9    1.54    1.01
  -3   1  -9    2.20    0.81
  -3   1   9    2.67    1.03
  -1  -2  -9    1.11    0.76
  -1  -2   9    0.52    0.64
   1   2   9    2.01    0.58
  -1  -2   9    1.53    0.80
   1   2  -9    0.87    0.44
   3  -1   9    0.91    0.46
   3  -1  -9    2.02    0.69
   2  -3  -9    1.08    0.69
   2  -3   9    3.34    1.12
  -2   3   9    0.96    0.92
  -3   1   9    1.30    0.76
   1   2 -10   18.36    1.31
   2  -3 -10   17.13    1.49
   2  -3  10   19.53    1.49
  -3   1  10   21.04    1.29
  -1  -2  10   20.70    1.55
  -1  -2  10   21.75    1.81
  -3   1 -10   16.93    1.73
   3  -1  10   17.47    2.13
  -1  -2 -10   16.80    1.70
   3  -1 -10   17.17    1.46
  -2   3  10   17.35    2.10
  -1  -2  10   16.95    2.02
   2  -3  10   14.94    2.00
  -3   1  10   17.36    2.11
   2  -3  11    0.11    0.69
  -3   1 -11    0.50    0.83
  -1  -2 -11    0.33    0.89
   3  -1 -11    0.59    0.79
   0  -3   0   65.28    2.50
  -3   0   0   67.15    2.11
  -3   0   0   70.97    2.43
  -3   3   0   62.62    2.38
   3  -3   0   67.68    2.31
   3   0   0   68.72    2.43
   3   0   0   67.74    2.38
  -3   0   1  143.94    4.44
  -3   3   1  132.46    4.63
   0  -3   1  140.85    4.48
  -3   3  -1  139.98    4.51
  -3   3   1  141.57    4.26
   3  -3  -1  129.54    4.60
   3  -3   1  133.61    4.69
   0  -3   1  139.98    4.31
   3   0   1  141.80    4.55
  -3   3   1  145.85    4.66
   0  -3  -1  142.73    4.53
   3  -3  -1  144.23    4.61
  -3   3  -1  141.41    4.38
  -3   0  -1  142.17    4.50
   3  -3   1  146.78    4.54
   0  -3  -1  144.43    4.79
   3   0   1  143.58    4.44
   3   0  -1  141.66    4.44
   3  -3  -1  137.87    4.56
   3  -3   1  139.43    4.52
  -3   0  -1  141.71    4.73
   3  -3   2  549.48   17.21
   3  -3   2  572.97   16.75
  -3   3   2  553.62   17.26
   3  -3   2  579.70   16.98
   3   0  -2  577.48   16.74
   3  -3  -2  562.04   16.83
   3  -3  -2  570.41   17.21
   0   3  -2  582.00   16.71
  -3   3  -2  548.17   17.00
  -3   0   2  563.80   17.01
  -3   3  -2  586.02   16.87
   3   0   2  552.47   17.29
   3  -3  -2  586.11   17.24
  -3   0   2  579.98   17.08
  -3   0  -2  562.63   17.20
   0  -3   2  572.51   17.03
   0  -3  -2  567.57   17.01
   0  -3  -2  564.59   17.41
   3   0   2  561.79   17.10
   0   3  -2  548.08   16.98
  -3   3   2  574.79   16.81
  -3   3   2  551.79   17.21
  -3   0  -2  568.59   17.35
   0   3   2  569.94   16.97
   0   3   3  103.10    3.53
   3   0   3  105.90    3.85
   3  -3  -3  104.53    3.47
   3  -3   3  105.15    3.78
  -3   3  -3  103.15    3.59
   0   3  -3  102.58    3.60
  -3   3  -3  106.30    3.53
   3   0  -3  107.47    3.70
   3  -3  -3  106.64    3.86
  -3   0   3  108.81    3.69
  -3   0   3  112.76    3.83
  -3   3  -3  104.74    3.86
   3  -3  -3  109.07    3.89
   3   0   3  104.19    3.92
   0  -3   3  104.19    3.48
   0  -3   3  108.50    3.67
   0  -3  -3  105.50    3.61
  -3   0  -3  101.78    3.91
  -3   3   3  105.99    3.47
  -3   0  -3  103.32    3.49
  -3   3   3  107.20    4.02
  -3   0  -3  107.10    3.59
   0  -3  -3  108.70    4.09
   3   0  -4   51.23    2.23
   0  -3  -4   56.20    2.12
   3  -3  -4   59.28    2.55
  -3   3  -4   58.30    2.47
   0  -3   4   55.28    2.02
   0  -3  -4   53.76    2.22
  -3   3   4   53.92    2.67
   3  -3   4   53.22    2.33
  -3   0  -4   56.20    2.06
  -3   3   4   55.13    2.12
   0  -3   4   58.51    2.33
  -3   3   4   58.41    2.46
  -3   0   4   58.36    2.54
  -3   3  -4   56.65    1.92
   0  -3  -4   56.95    2.69
   3   0   4   55.76    2.53
   3  -3   4   58.99    2.27
   0   3  -4   56.00    2.22
   0   3   4   52.24    2.68
   0   3   4   55.40    2.13
   3  -3  -4   53.09    2.09
  -3   3  -4   55.32    2.17
   3   0  -4   54.10    2.20
   3   0  -5   38.57    1.81
   3  -3   5   40.58    1.97
   3  -3  -5   41.66    1.78
   3   0   5   42.22    1.40
   0   3  -5   39.13    1.85
  -3   0  -5   38.87    2.20
  -3   0  -5   39.94    1.64
   3  -3  -5   45.55    2.25
   0  -3  -5   43.43    2.36
  -3   3   5   40.83    1.80
   0  -3   5   41.72    1.97
  -3   3  -5   40.78    2.05
   0   3   5   43.00    1.77
  -3   3   5   37.64    2.30
  -3   3  -5   41.52    1.83
  -3   0   5   43.75    2.27
   0  -3  -5   42.68    1.79
   3  -3   5   39.20    1.83
   3   0   5   41.22    2.25
  -3   3   5   38.83    2.03
  -3   0  -5   40.43    1.85
   0   3   5   45.16    2.45
   0  -3   5   38.86    1.61
  -3   3  -5   42.09    1.55
   3   0  -5   40.83    1.89
   3  -3   6  156.64    5.58
   3   0  -6  151.37    5.37
   3  -3  -6  153.25    5.30
  -3   0   6  156.04    5.62
  -3   3   6  169.57    5.81
   0  -3   6  154.17    5.05
   0   3   6  158.70    5.29
   0  -3  -6  171.38    6.27
   0  -3  -6  155.28    5.33
   0   3  -6  155.22    5.43
   3   0  -6  156.10    5.46
   3  -3  -6  169.63    5.99
   0  -3   6  160.64    5.62
  -3   3  -6  147.11    5.64
  -3   0  -6  160.34    5.44
  -3   3   6  152.90    5.38
   0  -3  -6  162.32    5.93
   3   0   6  153.88    6.06
   0   3  -6  156.21    5.01
  -3   3  -6  161.89    5.43
  -3   3   6  154.79    6.26
   3  -3   6  161.10    5.43
  -3   0   6  161.58    6.08
   3   0   6  154.85    4.89
  -3   3  -6  160.02    5.03
   0   3   6  145.29    6.15
  -3   0  -6  162.16    6.04
   0   3   7   14.60    1.01
  -3   3  -7   14.23    0.84
   3  -3   7   15.11    1.10
   0   3  -7   13.72    0.82
   3  -3  -7   14.13    1.38
   3  -3  -7   16.55    1.17
  -3   0   7   13.86    1.20
  -3   0  -7   14.61    1.42
  -3   3  -7   12.50    1.05
  -3   3  -7   15.93    1.28
  -3   0   7   15.65    1.44
   3   0  -7   11.78    1.00
   0  -3   7   13.39    1.45
  -3   3   7   14.52    1.61
   3   0   7   13.93    0.75
   3  -3  -7   12.94    1.01
   0  -3   7   14.08    1.20
   3   0   7   11.68    1.38
  -3   3   7   15.97    1.34
   0  -3  -7   13.21    1.05
  -3   0   7   14.12    1.47
   3  -3   7   13.72    1.14
   0  -3  -7   12.48    1.29
   0   3   7   15.73    1.59
  -3   3   7   14.22    1.10
   0  -3   7   13.36    1.12
  -3   3   8   20.24    2.03
   0   3   8   18.70    1.92
  -3   0   8   22.56    1.98
  -3   0   8   22.13    1.63
   3   0   8   20.46    1.05
   0   3   8   23.76    1.39
   3  -3   8   20.57    1.42
  -3   3  -8   21.43    1.55
   3  -3  -8   22.88    1.48
   3   0   8   21.49    2.01
   0  -3   8   23.17    1.64
  -3   3   8   21.60    0.96
   3   0  -8   22.30    1.40
   0   3  -8   20.68    1.13
   0  -3   8   21.29    2.00
  -3   3  -8   18.95    1.09
   0  -3   8   23.83    1.54
   0  -3  -8   23.75    1.77
  -3   0  -8   21.36    1.77
   3  -3   9    4.49    0.79
   0   3   9    4.01    0.71
   3  -3  -9    4.15    0.76
   0  -3   9    3.16    0.80
  -3   3  -9    3.75    0.85
  -3   3   9    3.80    0.41
   0  -3  -9    2.79    0.85
   0  -3   9    2.95    0.83
  -3   3   9    2.15    1.12
   0   3  -9    3.86    0.57
   3   0   9    3.11    1.03
  -3   0  -9    2.54    0.80
  -3   0   9    4.23    0.92
  -3   0   9    4.12    1.23
  -3   3  -9    3.20    0.54
   0   3   9    1.20    0.92
   0  -3   9    2.25    1.00
   3  -3  -9    3.62    0.85
   3   0  -9    3.89    0.74
   3  -3 -10   25.04    1.58
   0  -3 -10   25.13    1.99
  -3   0  10   20.92    1.45
  -3   0 -10   23.41    2.06
  -3   3  10   20.78    2.31
   0  -3  10   21.52    2.30
   3  -3 -10   19.47    1.63
  -3   0  10   25.39    1.91
   3   0 -10   17.91    1.44
   3   0  10   16.66    2.13
   3  -3  10   21.44    1.55
   0  -3  10   26.79    1.78
  -3   0  10   24.89    2.41
   3   0 -11    0.75    0.67
  -3   0 -11    0.74    0.91
   0  -3 -11    0.65    0.93
   0  -3  11    0.61    0.79
   1  -4   0  265.39    8.37
  -4   3   0  268.74    8.11
   4  -3   0  263.77    8.02
   1  -4   0  271.67    8.23
   4  -3   0  273.01    8.18
  -3  -1   0  254.55    8.17
   1  -4   0  247.51    7.89
  -3  -1   0  270.67    8.01
  -4   3   0  256.60    8.16
   1  -4  -1   25.34    1.38
  -4   3  -1   24.58    1.16
   4  -3   1   24.61    1.11
  -3  -1  -1   23.72    1.28
  -3  -1   1   28.39    1.12
  -1   4   1   24.68    1.38
   1  -4   1   24.64    1.03
   3   1   1   25.40    1.13
   1  -4  -1   23.78    1.20
  -4   3   1   26.60    1.02
  -4   3  -1   26.35    1.10
   4  -3  -1   23.11    1.17
  -4   3  -1   23.99    1.11
   4  -3   1   24.09    1.27
  -3  -1  -1   23.32    1.11
   4  -3  -1   27.04    1.14
  -4   3   1   22.21    1.22
  -3  -1  -1   23.67    1.16
  -1   4  -2  209.36    6.66
  -3  -1   2  207.58    6.88
  -3  -1  -2  209.40    6.37
   4  -3   2  212.09    6.99
   1  -4  -2  214.45    6.41
  -3  -1  -2  208.83    7.09
  -3  -1   2  217.71    6.79
   1  -4  -2  218.21    6.88
   4  -3  -2  218.95    6.83
  -4   3   2  218.68    6.62
  -3  -1  -2  217.48    7.00
   4  -3   2  222.92    6.66
  -4   3   2  205.53    6.87
   3   1   2  212.87    6.89
  -1   4   2  215.66    6.81
  -1   4   2  224.14    7.29
   1  -4  -2  228.26    7.25
   1  -4   2  215.77    6.69
   4  -3   2  212.64    6.60
  -4   3  -2  208.33    6.77
  -3  -1   2  216.25    6.47
  -4   3   2  220.73    7.05
   4  -3  -2  210.87    6.87
  -3  -1   3   15.21    1.01
   1  -4  -3   18.17    1.28
   3   1   3   16.47    1.10
   1  -4  -3   15.89    0.99
   4  -3  -3   16.31    1.03
  -4   3   3   18.56    0.91
  -4   3   3   17.15    1.13
   4  -3   3   16.75    1.08
   4  -3  -3   15.40    1.00
   4  -3  -3   14.46    1.09
  -1   4   3   16.76    1.28
  -4   3   3   14.16    1.08
   4  -3   3   15.14    0.80
  -4   3  -3   15.96    0.89
  -4   3  -3   17.55    0.97
   1  -4  -3   15.86    0.79
  -3  -1  -3   16.06    1.15
   1  -4   3   17.99    0.96
  -3  -1   3   17.63    0.98
  -3  -1  -3   14.95    1.15
   4  -3  -3   17.47    0.90
  -1   4  -3   16.48    0.91
  -1   4   3   15.62    0.94
  -4   3   4  118.07    4.62
   4  -3   4  121.73    3.96
  -4   3  -4  119.05    4.54
   4  -3  -4  122.72    4.11
  -3  -1  -4  120.77    4.68
   1  -4   4  118.96    4.12
  -4   3   4  123.28    4.11
  -4   3  -4  118.75    4.10
  -3  -1  -4  117.61    3.92
  -4   3  -4  123.72    4.15
   3   1  -4  122.43    4.26
   4  -3  -4  120.61    4.40
   1  -4   4  128.35    4.25
  -3  -1   4  119.23    4.44
  -1   4  -4  121.46    4.14
   4  -3   4  120.20    4.19
  -1   4   4  121.73    4.85
  -1   4   4  119.11    4.17
   1  -4  -4  116.15    3.97
   4  -3   4  118.19    4.40
   1  -4  -4  112.33    4.25
  -4   3  -4  120.93    3.92
   1  -4  -4  117.14    4.70
   3   1   4  115.45    4.51
   3   1  -5    6.72    0.73
  -1   4  -5    7.25    0.70
  -1   4   5    6.88    1.02
   4  -3   5    6.57    0.70
  -3  -1  -5    6.19    0.52
  -4   3   5    6.17    0.89
   4  -3   5    8.25    0.96
  -1   4   5    7.39    0.70
   1  -4  -5    7.63    0.64
   4  -3  -5    6.74    0.82
  -4   3   5    7.41    0.69
   1  -4   5    7.22    0.63
  -4   3  -5    7.16    0.89
   1  -4   5    6.67    0.73
   4  -3  -5    6.52    0.77
   4  -3  -5    6.55    0.65
  -3  -1  -5    4.93    0.87
   3   1   5    6.02    0.83
   4  -3   5    6.31    0.77
  -4   3  -5    6.52    0.68
  -4   3   5    6.82    0.87
  -4   3  -5    6.71    0.55
  -3  -1   5    8.21    0.93
   1  -4  -5    6.89    0.76
  -3  -1  -5    7.13    0.93
   1  -4   5    6.94    0.77
  -1   4  -6   77.71    3.04
   3   1   6   73.88    2.42
   3   1   6   72.51    3.54
   4  -3  -6   75.46    3.18
   4  -3   6   77.93    3.29
  -4   3  -6   74.89    3.43
  -4   3  -6   76.71    2.74
  -1   4   6   75.77    3.81
   1  -4   6   74.62    2.86
  -3  -1  -6   73.36    2.64
   4  -3   6   76.89    3.04
  -4   3   6   69.88    3.61
   3   1  -6   80.08    3.13
   4  -3  -6   72.64    2.94
   4  -3  -6   81.86    3.42
  -3  -1  -6   72.71    3.57
  -3  -1   6   75.70    3.52
  -3  -1  -6   77.12    3.58
  -4   3  -6   81.05    3.06
  -3  -1  -6   79.94    3.09
   1  -4   6   70.50    3.11
  -4   3   6   78.76    3.06
   1  -4  -6   73.35    2.88
  -4   3   6   78.50    3.44
  -1   4   6   79.90    3.03
   1  -4   6   82.09    3.24
   4  -3   6   72.64    3.54
   4  -3   7    1.60    0.64
   1  -4   7    2.15    0.48
   1  -4   7    2.08    0.65
  -3  -1   7    1.66    0.80
  -4   3  -7    1.89    0.42
   4  -3   7    1.88    0.54
   4  -3   7    1.36    0.72
   1  -4  -7    2.49    0.71
   1  -4   7    1.84    0.58
  -4   3   7    1.48    0.67
  -3  -1  -7    1.58    0.66
   1  -4   7    1.40    0.77
   4  -3  -7    1.26    0.58
   3   1   7    1.73    0.86
  -1   4   7    2.00    0.84
   4  -3  -7    1.64    0.53
  -4   3   7    1.76    0.56
  -4   3   7    3.18    0.92
   3   1  -7    2.57    0.57
  -4   3  -7    1.50    0.70
  -1   4   7    1.87    0.54
   3   1   7    1.42    0.26
   1  -4  -7    1.44    0.48
  -3  -1   8   35.07    2.48
   4  -3  -8   31.40    1.95
   3   1  -8   31.23    1.71
  -4   3  -8   34.90    2.21
   1  -4   8   33.10    2.02
   1  -4   8   32.89    2.47
   1  -4  -8   32.52    2.19
  -3  -1  -8   37.66    2.44
   4  -3  -8   35.66    1.79
  -4   3  -8   33.28    1.58
   1  -4   8   34.49    2.02
  -1   4   8   29.90    1.76
  -4   3   8   35.00    1.95
   4  -3   8   37.17    2.55
  -4   3   8   39.81    2.69
   3   1   8   34.47    1.33
  -1   4   8   32.41    2.55
   3   1   8   29.19    2.37
  -4   3   9    0.56    0.37
  -3  -1   9    0.85    0.93
  -4   3   9    0.70    0.87
   4  -3   9   -0.22    0.91
   1  -4   9    0.24    0.67
  -1   4   9    1.24    0.97
   4  -3  -9    0.99    0.70
  -3  -1  -9    0.91    0.81
   3   1   9   -0.67    0.98
   4  -3  -9   -0.24    0.48
   1  -4   9    0.45    0.94
   1  -4  -9    0.62    0.75
  -4   3  -9    0.77    0.73
  -1   4   9    0.90    0.63
  -3  -1  10   13.50    1.29
  -3  -1 -10   16.51    1.76
   1  -4  10   14.80    1.50
  -4   3  10   15.95    2.03
   1  -4 -10   14.59    1.58
  -3  -1  10   12.91    1.80
  -4   3 -10   14.58    1.60
   4  -3 -10   16.36    1.48
   1  -4 -11    0.16    0.82
   1  -4  11   -0.40    0.87
   4  -2   0 1459.09   41.93
   4  -2   0 1431.13   41.63
  -2  -2   0 1413.83   41.98
  -2  -2   0 1440.19   41.87
   4  -2   0 1371.48   42.02
   2  -4   0 1445.81   41.82
  -4   2   0 1419.57   41.97
   2  -4   0 1421.65   41.52
   2  -4   0 1465.16   42.05
   2   2   1    0.21    0.22
  -2  -2  -1    0.60    0.20
  -2   4   1    0.59    0.29
  -4   2  -1    0.07    0.20
   2   2  -1    0.38    0.16
   4  -2   1    0.72    0.21
   4  -2   1    0.87    0.20
  -4   2  -1    0.16    0.16
   4  -2  -1    0.27    0.19
   2  -4   1    0.74    0.22
  -2   4  -1    0.60    0.14
  -4   2   1    0.96    0.16
   2  -4  -1    0.61    0.16
   2  -4   1    0.68    0.15
   2  -4  -1    0.65    0.08
  -2  -2  -1    0.34    0.26
  -4   2   1    0.89    0.28
   2  -4  -1    0.66    0.22
  -4   2   2   36.41    1.64
   4  -2   2   39.00    1.52
  -2  -2  -2   35.62    1.36
  -2   4  -2   37.11    1.42
   2  -4  -2   36.57    1.67
  -2  -2   2   40.14    1.68
   4  -2   2   36.38    1.37
  -4   2  -2   47.33    1.97
   2   2   2   37.55    1.76
  -4   2  -2   35.36    1.56
  -4   2   2   38.26    1.56
   4  -2  -2   35.32    1.47
  -2  -2  -2   39.48    1.85
   2  -4   2   39.70    1.44
   2  -4  -2   36.56    1.30
   4  -2  -2   39.80    1.66
   2  -4   2   41.60    1.64
  -2   4   2   38.55    1.90
   4  -2   2   39.15    1.77
  -4   2   2   38.18    1.55
  -2  -2  -2   39.59    1.81
  -4   2   2   36.67    1.77
   2  -4  -3    0.28    0.29
  -2   4   3    0.56    0.28
  -2  -2  -3    0.05    0.13
  -2   4  -3   -0.04    0.21
  -4   2   3    0.22    0.29
   2  -4  -3    0.06    0.17
  -2  -2  -3    0.47    0.39
   4  -2  -3    0.26    0.22
  -2   4   3   -0.11    0.33
   2  -4   3    0.04    0.21
  -4   2  -3    1.07    0.25
   2  -4   3    0.06    0.24
  -4   2  -3   -0.15    0.24
   4  -2  -3    0.22    0.23
   2   2   3    0.09    0.26
   4  -2   3    0.54    0.33
  -2  -2   3   -0.04    0.22
  -2  -2  -3   -0.19    0.33
   4  -2   3   -0.07    0.25
  -4   2   3    0.16    0.22
  -2  -2   3   -0.07    0.26
   4  -2   3    0.13    0.12
  -4   2   3    0.18    0.33
   4  -2  -4  689.34   20.59
   2  -4   4  689.16   20.58
   2  -4  -4  672.48   20.84
   4  -2  -4  664.19   20.70
  -4   2  -4  693.90   20.43
   2   2   4  675.89   21.13
   4  -2   4  697.18   20.17
   4  -2   4  673.12   20.90
   2   2   4  689.72   20.17
  -2   4  -4  687.15   20.52
  -4   2  -4  679.69   20.53
  -2   4   4  682.77   21.40
  -2  -2  -4  699.70   21.25
  -4   2   4  688.94   21.07
   4  -2  -4  681.01   20.72
  -2  -2   4  704.68   20.81
  -2   4   4  685.19   20.72
  -4   2  -4  689.56   21.12
  -4   2   4  700.54   20.66
   2  -4   4  670.59   20.63
   2  -4  -4  680.06   20.37
  -2  -2  -4  669.53   20.20
   4  -2   4  698.42   21.03
  -4   2   5   -0.12    0.51
  -2  -2  -5    0.05    0.18
  -2   4  -5    0.06    0.33
  -4   2  -5    0.07    0.35
   2  -4   5    0.29    0.35
  -4   2  -5    0.35    0.33
   2   2   5   -0.65    0.47
   2  -4  -5   -0.13    0.51
   2  -4  -5   -0.10    0.30
   2   2   5   -0.03    0.18
  -2   4   5   -0.31    0.47
  -4   2  -5    0.10    0.28
   2  -4  -5   -0.10    0.36
   4  -2  -5   -0.16    0.35
   4  -2   5   -0.10    0.46
  -2  -2  -5    0.12    0.41
   4  -2  -5    0.07    0.35
  -4   2   5    0.25    0.41
  -2  -2   5   -0.09    0.39
  -4   2   5    0.07    0.35
  -2  -2  -5   -0.14    0.51
  -2   4  -5    0.20    0.11
   2  -4   5    0.63    0.41
   4  -2   5    0.36    0.37
   2  -4   5    0.07    0.36
  -2   4   5   -0.08    0.34
  -2   4  -5    0.03    0.09
  -4   2  -5    0.12    0.39
   2  -4  -6    1.76    0.71
   4  -2   6    1.21    0.54
  -2  -2   6    1.24    0.57
   2  -4  -6    2.49    0.51
   2  -4   6    1.32    0.51
   2   2  -6    1.85    0.55
   4  -2  -6    2.06    0.48
  -2  -2  -6    1.36    0.51
  -2   4  -6    1.88    0.23
  -2  -2  -6    2.02    0.71
  -4   2  -6    2.00    0.43
   4  -2   6    1.89    0.65
   4  -2  -6    1.89    0.56
   2   2   6    1.99    0.69
  -2   4   6    2.31    0.78
  -2   4   6    2.05    0.54
  -4   2   6    2.74    0.77
   2  -4   6    1.68    0.47
  -2   4  -6    2.06    0.25
  -4   2  -6    1.47    0.59
  -4   2   6    1.84    0.56
  -2  -2   6    2.27    0.72
  -4   2   6    1.54    0.68
  -2   4  -6    1.29    0.44
  -4   2  -6    1.72    0.52
  -2  -2  -6    2.22    0.65
   2  -4   6    3.50    0.62
   2   2   6    1.56    0.30
   2   2   7    0.30    0.28
  -4   2  -7   -0.06    0.38
   2  -4  -7   -0.07    0.44
   4  -2   7    0.15    0.32
  -2   4  -7    0.09    0.22
   2  -4   7    0.10    0.48
   4  -2  -7    0.16    0.33
  -2  -2  -7   -0.15    0.58
  -2  -2   7    0.12    0.51
  -4   2   7   -0.14    0.63
   2  -4   7    0.35    0.74
   4  -2   7    0.84    0.75
   4  -2  -7   -0.30    0.47
  -2  -2   7   -0.17    0.64
   4  -2  -7    0.43    0.46
  -4   2   7    0.88    0.76
  -4   2  -7    0.15    0.58
  -4   2   7   -0.20    0.48
   2   2   7    1.07    0.67
  -2   4   7   -0.20    0.72
   2  -4   7    0.08    0.39
  -2   4   7   -0.10    0.47
  -4   2  -8  115.32    4.85
   2  -4  -8  117.65    4.66
  -4   2   8  123.57    4.55
  -2  -2   8  115.16    4.60
  -2  -2  -8  120.59    5.01
  -4   2  -8  111.17    4.04
   4  -2   8  112.64    3.86
   2   2   8  102.39    3.77
  -4   2   8  111.40    5.16
  -2   4   8  105.17    5.28
  -2  -2   8  116.41    5.21
   4  -2   8   98.97    4.94
   4  -2  -8  113.20    4.43
   4  -2  -8  114.76    3.86
   2  -4   8  113.60    5.16
  -2   4  -8  110.95    3.68
   2   2   8  110.03    5.18
  -2   4   8  118.34    4.46
   2  -4   8  117.80    4.43
   2  -4   9   -0.35    0.61
   4  -2  -9   -0.47    0.68
  -4   2  -9    0.39    0.51
  -2  -2  -9   -0.35    0.77
  -2   4   9    0.25    0.98
  -2  -2   9    0.72    0.75
  -4   2   9   -0.22    0.94
   2  -4   9   -0.68    0.94
  -2   4  -9   -0.04    0.33
  -4   2   9   -0.38    0.77
  -4   2  -9    0.34    0.70
   4  -2  -9    0.05    0.32
   4  -2   9    1.08    0.84
   2  -4  -9   -0.14    0.71
   2   2   9   -0.92    0.98
  -2  -2   9    0.22    0.85
   2  -4  10    2.69    0.85
  -2  -2  10    4.30    1.31
  -2  -2 -10    3.49    1.05
   2  -4 -10    3.69    0.94
  -4   2  10    3.66    1.23
  -4   2 -10    1.75    0.95
   4  -2 -10    2.21    0.82
  -2  -2  10    1.88    0.82
  -4   2 -11   -0.18    0.89
  -2  -2 -11    0.19    0.87
   2  -4  11   -0.13    0.81
  -3   4   0  838.76   24.34
  -3   4   0  809.97   24.52
  -4   1   0  841.73   24.59
  -1  -3   0  834.53   24.31
  -1  -3   0  800.53   24.59
   4  -1   0  806.47   24.50
   3  -4   0  826.16   24.33
   3  -4   0  835.54   24.35
  -4   1   0  799.33   24.47
   3  -4   0  836.35   24.60
  -1  -3   1    4.14    0.41
  -1  -3  -1    2.60    0.33
   3  -4  -1    2.47    0.40
   3  -4   1    2.14    0.31
   3  -4   1    2.81    0.26
  -3   4   1    2.42    0.36
  -4   1   1    3.15    0.40
  -4   1   1    2.68    0.35
  -1  -3  -1    3.11    0.48
   4  -1   1    2.81    0.36
  -1  -3   1    2.15    0.27
   4  -1  -1    2.77    0.33
  -4   1  -1    2.97    0.45
   4  -1   1    2.12    0.24
   3  -4  -1    2.04    0.36
  -3   4  -1    2.97    0.23
  -4   1   1    2.54    0.44
   1   3   1    3.02    0.44
  -4   1  -1    2.36    0.27
   1   3   2    6.66    0.71
   3  -4  -2    7.73    0.43
   3  -4   2   10.30    0.41
  -1  -3   2    8.26    0.64
  -3   4   2    8.15    0.76
  -3   4   2    9.81    0.50
  -3   4   2    8.25    0.41
  -4   1  -2    7.13    0.57
  -3   4  -2    7.47    0.59
   4  -1  -2    9.43    0.54
  -4   1  -2    7.52    0.73
   3  -4   2    9.32    0.75
   4  -1   2    8.15    0.60
  -4   1   2    7.74    0.65
  -1  -3  -2    9.11    0.58
   3  -4  -2    8.38    0.69
  -4   1   2    8.16    0.55
  -4   1  -2    7.81    0.37
   4  -1   2    8.80    0.75
   1   3  -2    8.26    0.50
   3  -4   2    7.46    0.60
  -3   4  -2    7.42    0.48
   4  -1   2    7.77    0.59
  -4   1   2    8.93    0.80
  -4   1   2    8.20    0.63
  -1  -3  -2    8.87    0.79
   3  -4   2    9.13    0.65
   3  -4  -2    8.26    0.74
  -4   1   3    2.52    0.57
  -4   1  -3    0.29    0.23
   1   3   3    0.95    0.23
  -4   1   3    1.23    0.36
  -1  -3  -3    1.29    0.45
  -4   1   3    0.81    0.32
  -3   4   3    1.31    0.18
   4  -1   3    0.83    0.38
  -3   4  -3    1.15    0.28
  -1  -3   3    0.64    0.31
  -1  -3   3    0.98    0.23
  -3   4   3    0.91    0.21
   1   3  -3    0.33    0.18
  -3   4  -3    1.18    0.13
   3  -4   3    0.92    0.34
   4  -1  -3    1.23    0.19
  -4   1   3    1.95    0.38
  -1  -3  -3    0.99    0.24
  -4   1  -3    0.84    0.30
   3  -4  -3    0.52    0.40
   3  -4  -3    1.15    0.23
   4  -1   3    0.85    0.33
  -3   4   3    1.43    0.44
   3  -4  -3    2.76    0.47
   4  -1  -4  403.83   11.81
  -3   4   4  396.24   11.77
   1   3  -4  391.05   12.32
   3  -4  -4  379.89   12.55
  -1  -3  -4  400.81   12.93
  -4   1  -4  397.82   12.17
  -1  -3  -4  392.99   11.72
   3  -4   4  391.81   12.42
   3  -4  -4  433.95   12.86
   4  -1  -4  406.74   12.34
  -1  -3  -4  397.40   12.16
   3  -4  -4  392.62   12.05
  -4   1  -4  418.56   12.22
   3  -4   4  396.29   12.34
   4  -1   4  391.63   12.65
   4  -1   4  394.42   12.63
   4  -1  -4  389.53   12.34
   1   3   4  399.21   12.03
  -4   1   4  422.22   12.91
  -1  -3   4  387.82   11.84
  -3   4   4  409.30   12.08
  -4   1   4  393.78   12.63
  -1  -3   4  417.48   12.48
  -3   4  -4  401.38   12.19
  -3   4   4  389.99   12.99
  -4   1   4  407.85   12.41
  -3   4   4  398.75   12.51
   3  -4  -5   -0.05    0.29
   3  -4  -5    0.48    0.50
   4  -1  -5    1.39    0.43
   3  -4   5    0.77    0.40
  -4   1  -5    0.47    0.33
  -3   4  -5    0.50    0.17
  -4   1  -5    0.44    0.32
  -1  -3  -5   -0.14    0.54
   4  -1   5    0.12    0.43
  -4   1  -5    0.13    0.45
   4  -1  -5    0.08    0.36
  -4   1   5    0.24    0.45
  -1  -3   5    0.22    0.15
   4  -1  -5    0.38    0.16
   4  -1   5    0.32    0.40
  -1  -3  -5    0.62    0.47
   3  -4   5    0.82    0.42
   1   3  -5    0.15    0.37
  -1  -3  -5    0.44    0.39
  -3   4   5    0.28    0.38
  -3   4   5   -0.15    0.48
  -4   1   5    0.17    0.39
  -3   4  -5    0.51    0.37
   1   3   5    0.91    0.31
  -1  -3   5    0.44    0.37
   3  -4  -6   12.15    1.28
  -1  -3  -6   11.81    0.94
  -4   1  -6   10.05    0.77
  -3   4  -6   12.78    0.61
   4  -1  -6   12.80    1.01
  -4   1   6   14.21    1.33
  -4   1  -6   11.87    0.88
   1   3   6   13.04    0.82
   3  -4   6   10.08    0.96
  -3   4   6   11.73    1.40
  -1  -3  -6   11.31    1.22
   4  -1  -6   11.79    0.53
  -4   1  -6   11.33    1.22
  -3   4   6   13.36    1.13
  -3   4   6   10.71    0.45
   4  -1   6   11.73    1.25
  -4   1   6   11.87    1.05
  -4   1   6   15.00    1.34
  -3   4  -6   11.56    0.93
   4  -1  -6   10.61    0.94
  -1  -3  -6   14.87    1.44
   3  -4  -6   11.76    0.89
   4  -1   6   11.54    0.54
   3  -4   6   14.33    1.07
  -1  -3   6   10.04    1.01
  -1  -3   7   -0.12    0.53
   1   3   7    0.58    0.35
   4  -1  -7   -0.09    0.45
   3  -4   7    0.59    0.49
   3  -4  -7    0.53    0.44
  -1  -3  -7   -0.08    0.42
  -1  -3  -7    0.15    0.59
   4  -1   7    0.27    0.21
  -4   1   7    0.11    0.53
  -3   4   7    1.25    0.67
  -1  -3   7    0.17    0.69
  -3   4  -7   -0.07    0.23
   4  -1  -7   -0.03    0.13
  -4   1  -7   -0.14    0.45
   3  -4   7   -0.19    0.52
  -4   1   7    0.67    0.63
  -4   1  -7   -0.16    0.57
  -3   4   7    0.61    0.86
   4  -1   7    0.17    0.61
  -3   4   8   75.57    4.16
  -1  -3  -8   75.69    3.70
  -4   1  -8   78.16    3.80
  -1  -3   8   79.93    4.02
   1   3   8   72.19    2.84
  -4   1   8   79.91    3.44
  -4   1   8   70.02    3.82
   3  -4   8   80.04    3.29
  -4   1  -8   74.74    3.00
   3  -4  -8   77.01    3.37
  -1  -3   8   74.90    3.43
  -3   4  -8   76.66    2.63
   4  -1   8   70.29    3.84
   3  -4   8   73.12    3.18
   4  -1   8   74.27    2.54
   4  -1  -8   73.51    3.18
  -3   4  -9    0.46    0.39
  -1  -3   9   -0.73    0.78
  -4   1   9    0.27    0.70
  -4   1   9    0.22    0.90
  -1  -3   9   -0.22    0.90
   3  -4   9   -0.90    0.70
  -4   1  -9   -0.36    0.83
  -1  -3  -9    0.52    0.75
  -1  -3   9    1.45    0.83
   3  -4  -9    0.50    0.62
  -3   4   9   -0.25    0.97
   4  -1   9   -0.44    0.91
   4  -1  -9    0.76    0.63
  -4   1  10    6.63    1.48
  -4   1 -10    6.63    1.32
   3  -4  10    7.75    1.11
  -1  -3  10    6.15    1.10
   4  -1 -10    4.94    0.90
  -1  -3 -10    6.62    1.31
   3  -4 -10    6.17    1.03
  -4   1  10    5.35    0.81
  -1  -3  11   -0.26    0.79
  -4   1 -11    0.58    1.00
  -1  -3 -11    0.36    0.87
   4  -1 -11   -0.95    0.77
   3  -4  11   -0.61    0.80
  -4   4   0   28.44    1.36
   4  -4   0   29.82    1.35
   4   0   0   26.82    1.32
   4  -4   0   27.19    1.24
   4   0   0   30.19    1.40
  -4   0   0   28.29    1.02
   0  -4   0   29.31    1.49
  -4   4   0   27.91    1.26
   4   0   1  269.10    7.97
  -4   4   1  264.96    7.79
  -4   0  -1  265.34    8.43
   4   0   1  258.48    8.21
   4  -4   1  254.27    8.40
  -4   0   1  266.24    8.14
   0  -4   1  253.05    7.91
   4  -4  -1  263.73    8.22
   4   0   1  254.29    8.37
  -4   4  -1  270.44    8.02
  -4   4   1  254.75    8.32
   0  -4  -1  259.60    8.20
   4  -4   1  259.82    8.19
  -4   0  -1  258.13    8.03
  -4   0  -1  266.31    8.06
   0  -4   1  264.17    8.10
  -4   4   1  258.94    8.06
   0  -4  -1  273.50    8.53
   4   0  -1  265.41    8.13
  -4   4  -1  251.37    8.17
   4  -4  -1  262.73    8.26
  -4   4  -2  430.76   13.13
   4  -4   2  420.76   13.07
   0   4  -2  433.47   13.31
  -4   0  -2  434.36   12.90
   4  -4   2  437.73   13.63
  -4   4   2  437.20   13.63
   4   0   2  438.61   13.36
   4  -4  -2  448.79   13.55
  -4   0  -2  452.12   13.77
   0  -4  -2  440.30   13.37
  -4   4  -2  449.29   13.11
  -4   4   2  432.90   13.61
   4  -4  -2  433.14   13.62
  -4   0   2  433.43   13.22
  -4   0   2  450.81   13.48
  -4   4  -2  438.00   13.37
   0  -4  -2  445.41   13.83
  -4   4   2  446.10   13.04
   4   0  -2  444.84   13.14
  -4   0  -2  437.52   13.48
   4  -4   2  454.36   13.36
   0  -4   2  450.67   13.37
   4  -4   2  449.50   13.41
   4  -4  -2  442.77   13.48
   0  -4  -3  186.55    6.55
   4  -4  -3  185.67    5.79
   4  -4   3  181.84    6.23
  -4   4   3  181.29    6.38
   0  -4   3  188.24    6.07
   0  -4   3  179.93    5.60
   4  -4  -3  189.31    6.29
   4   0   3  178.67    6.35
  -4   0  -3  183.51    5.99
   0   4  -3  181.69    5.97
  -4   0  -3  179.56    6.28
  -4   4  -3  175.97    5.98
   4  -4  -3  188.96    6.17
   0   4   3  184.31    5.93
  -4   0  -3  184.60    6.46
  -4   0   3  192.31    6.10
   4   0   3  181.51    6.17
  -4   4  -3  187.40    5.86
  -4   4   3  186.78    5.76
   4  -4   3  186.50    5.96
   4  -4  -3  183.38    6.30
  -4   0   3  190.61    6.12
   0  -4  -3  186.80    6.03
  -4   4   4   31.95    1.87
  -4   0  -4   26.10    1.34
   0   4   4   26.71    1.30
   4   0  -4   32.93    1.54
  -4   0  -4   27.33    1.28
   0   4  -4   24.67    1.00
   0  -4  -4   25.55    1.37
   0  -4   4   27.48    1.24
   4   0   4   24.46    1.55
   0   4  -4   24.29    1.33
   4  -4   4   29.20    1.58
   0  -4  -4   26.48    1.75
  -4   0   4   27.91    1.57
   4  -4  -4   26.03    1.24
  -4   4  -4   27.27    1.32
   4  -4  -4   25.37    1.58
  -4   4   4   28.38    1.26
   4  -4  -4   27.57    1.61
   0  -4   4   27.74    1.46
  -4   4   4   27.08    1.59
   4  -4   4   28.24    1.33
   4  -4   4   30.28    1.47
   0   4   5   79.49    2.90
   0  -4  -5   76.85    2.88
  -4   0  -5   75.44    3.53
   4  -4  -5   83.91    3.44
  -4   0  -5   79.67    2.83
  -4   0  -5   77.93    2.97
   0  -4   5   75.34    2.73
   4  -4  -5   74.92    2.87
   4  -4   5   77.32    3.08
  -4   0   5   82.43    3.23
  -4   4   5   78.03    3.65
   4   0   5   71.47    3.34
  -4   0   5   78.45    3.39
  -4   4   5   78.70    2.91
   0  -4  -5   84.77    3.69
  -4   4  -5   76.37    2.94
   0  -4   5   75.76    3.14
   0   4  -5   74.64    3.00
   0  -4  -5   79.26    3.08
   4  -4   5   80.05    3.23
   4   0  -5   72.70    3.04
  -4   4   5   78.58    3.32
  -4   0  -6  125.76    4.55
  -4   0  -6  132.90    4.71
   4  -4   6  129.05    4.70
  -4   0  -6  129.81    4.37
  -4   4   6  132.72    5.03
   4   0   6  121.42    5.15
   0  -4   6  126.76    4.24
  -4   4  -6  133.18    4.19
  -4   4   6  140.96    5.62
  -4   0  -6  132.07    5.33
  -4   0   6  131.03    4.89
   4  -4   6  130.96    4.88
   4  -4   6  133.69    5.32
   4  -4  -6  133.66    5.12
  -4   0   6  133.41    5.22
  -4   4   6  125.61    4.55
   0  -4  -6  135.25    5.44
   0  -4  -6  131.49    4.55
   0  -4   6  130.83    4.86
   4   0  -6  128.14    4.71
  -4   4  -6  130.44    4.62
   0   4  -6  130.31    4.69
   0   4   6  130.84    4.49
   4   0  -6  118.61    4.59
   4  -4  -6  125.27    4.51
   0  -4   7   23.23    1.92
  -4   4  -7   24.32    1.12
  -4   0  -7   21.90    1.36
   0  -4  -7   28.13    1.91
   4  -4   7   23.53    1.60
  -4   0   7   22.22    1.83
   4  -4  -7   23.07    1.38
  -4   0  -7   23.70    1.89
   4  -4  -7   24.80    1.86
   4  -4   7   23.89    1.95
   4  -4   7   26.98    1.58
  -4   4   7   23.78    1.74
   0  -4   7   24.76    1.65
  -4   0   7   26.51    1.72
   0  -4  -7   25.94    1.47
   0   4   7   25.38    1.37
   0   4   7   23.87    2.07
   4   0  -7   22.27    1.41
  -4   4   7   21.80    1.41
   4   0   7   23.95    1.92
  -4   4   7   24.88    2.10
  -4   4   8   14.21    0.69
   0  -4   8   14.65    1.38
   4  -4  -8   14.34    1.22
   4  -4  -8   11.82    1.25
   0   4   8   13.01    1.02
   0   4   8   17.09    1.83
   4   0  -8   16.03    1.22
   4  -4   8   14.26    1.22
  -4   4  -8   13.50    0.84
   0  -4   8   12.73    1.64
   0  -4  -8   16.30    1.58
  -4   0   8   12.96    1.57
  -4   0  -8   15.24    1.61
   4  -4   8   11.92    1.19
   0  -4   8   12.91    1.32
   4   0   8   12.10    1.55
  -4   0   8   13.71    1.34
   4  -4   8   13.87    1.66
  -4   4   9    6.10    1.39
   4  -4   9    4.04    1.20
  -4   0   9    5.28    1.01
   0  -4   9    6.06    1.00
   0   4   9    4.68    1.33
   0  -4   9    3.18    1.09
   4  -4   9    5.12    0.92
   4  -4  -9    6.51    1.07
   4   0  -9    5.33    0.84
  -4   0  -9    4.94    1.15
   0  -4   9    6.70    1.09
   0  -4  -9    5.99    1.23
   4  -4  -9    3.97    0.80
  -4   0   9    3.35    1.08
   4   0   9    5.05    1.25
  -4   0 -10   20.46    2.03
   0  -4  10   18.50    1.64
   0  -4 -10   15.40    1.73
  -4   0  10   16.61    1.98
   4  -4 -10   16.51    1.58
   0  -4 -11    0.72    1.05
  -4  -1   0   23.21    1.24
  -5   4   0   22.12    1.17
   5  -4   0   21.58    1.20
  -4  -1   0   24.47    1.06
   1  -5   0   24.65    1.41
   1  -5   0   23.82    1.01
   5  -4   0   23.37    1.12
   1  -5   0   21.96    1.24
  -5   4   0   25.31    1.21
  -5   4   0   24.10    1.26
   1  -5  -1  210.44    7.18
  -4  -1   1  211.36    6.74
  -5   4   1  205.96    7.01
   5  -4   1  216.66    6.83
  -4  -1   1  203.03    6.56
  -4  -1  -1  208.36    6.80
   4   1   1  203.23    6.86
  -5   4  -1  211.33    6.73
  -5   4   1  219.10    6.55
  -4  -1  -1  222.99    7.09
   5  -4  -1  211.15    6.87
   4   1   1  222.11    6.69
   1  -5  -1  218.13    6.95
  -4  -1  -1  209.14    6.78
   1  -5   1  215.13    6.63
   5  -4  -1  218.72    6.79
  -5   4  -1  215.54    6.83
   4   1   2  376.69   11.15
   1  -5   2  353.79   10.99
  -1   5   2  350.03   11.65
  -5   4  -2  359.37   11.13
  -4  -1   2  350.89   11.24
   5  -4   2  373.96   11.03
  -5   4  -2  372.95   10.95
   5  -4   2  347.19   10.89
  -4  -1   2  361.58   10.83
   5  -4   2  352.99   11.36
  -4  -1  -2  361.58   11.28
  -4  -1  -2  344.57   11.45
   1  -5  -2  351.10   10.72
   5  -4  -2  368.76   11.14
  -5   4   2  354.52   11.21
  -5   4   2  353.67   11.40
  -5   4   2  363.44   10.84
  -1   5  -2  360.12   10.94
   1  -5  -2  365.03   11.22
   1  -5  -2  366.88   11.63
  -1   5   2  352.61   11.11
   5  -4  -2  360.10   11.24
  -1   5   3  128.18    4.54
  -1   5   3  129.89    5.14
  -5   4  -3  134.25    4.57
  -1   5  -3  133.03    4.46
   1  -5  -3  131.87    4.00
   5  -4  -3  140.17    4.73
  -5   4  -3  135.60    4.41
   1  -5  -3  131.09    4.65
  -4  -1   3  132.97    4.58
   5  -4   3  136.91    4.84
   5  -4   3  124.95    4.27
  -4  -1  -3  134.66    5.02
   4   1   3  128.47    4.69
   5  -4   3  136.81    4.41
   1  -5  -3  142.45    5.14
   1  -5   3  134.51    4.52
   5  -4  -3  130.42    4.85
  -4  -1  -3  126.81    4.85
   5  -4  -3  132.94    4.65
  -5   4   3  136.23    4.36
  -5   4   3  128.53    4.78
  -5   4   3  133.88    4.90
  -5   4  -4   20.83    1.25
   5  -4  -4   22.82    1.40
   1  -5  -4   24.00    1.68
  -5   4  -4   20.79    1.53
  -4  -1   4   22.69    1.30
   5  -4   4   25.20    1.50
  -4  -1  -4   24.89    1.31
  -4  -1  -4   21.84    1.58
   5  -4  -4   22.61    1.18
  -1   5   4   17.73    1.54
  -4  -1   4   25.36    1.45
  -1   5  -4   21.98    1.22
  -4  -1  -4   21.95    1.55
   1  -5  -4   20.68    1.07
  -5   4  -4   23.28    1.22
   5  -4  -4   23.05    1.37
   1  -5   4   21.86    1.28
  -5   4   4   21.57    1.15
  -5   4   4   22.20    1.53
  -1   5   4   26.84    1.34
   4   1   4   22.08    1.45
   5  -4   4   23.55    1.15
   1  -5  -4   25.15    1.41
   1  -5   4   22.17    1.22
  -1   5   5   60.15    2.50
  -1   5   5   62.03    3.24
  -5   4   5   59.97    2.90
   1  -5  -5   65.07    2.73
   4   1  -5   61.77    2.64
  -4  -1  -5   61.59    2.30
   1  -5   5   60.29    2.61
  -4  -1  -5   55.67    2.45
   5  -4   5   60.31    2.79
  -5   4  -5   57.71    2.49
  -1   5  -5   61.90    2.52
   5  -4   5   65.33    2.35
  -4  -1  -5   60.75    3.03
  -5   4   5   60.21    3.02
  -4  -1   5   55.40    2.76
   4   1   5   56.59    2.84
  -5   4  -5   62.13    2.99
   1  -5  -5   58.21    2.33
  -5   4  -5   60.92    2.48
  -5   4   5   59.15    2.43
   1  -5  -5   70.80    3.26
   5  -4  -5   62.64    2.77
   1  -5   5   58.27    2.39
   5  -4  -5   59.82    2.43
   5  -4  -6  115.08    4.34
  -4  -1  -6  104.34    4.69
  -1   5   6  101.00    4.87
  -4  -1  -6  103.82    3.72
  -1   5   6  114.83    4.08
   1  -5  -6  103.66    4.23
  -5   4   6  115.53    4.62
  -5   4  -6  108.96    4.62
  -1   5  -6  104.85    4.05
  -5   4   6  102.66    4.74
   1  -5   6  107.53    3.88
  -4  -1  -6  107.05    4.02
   5  -4   6  106.80    4.34
   5  -4   6  114.14    4.73
   5  -4  -6  115.80    4.46
   1  -5   6  118.41    4.40
   5  -4  -6  107.16    3.98
  -4  -1   6  112.78    4.59
  -5   4   6  112.93    4.06
   1  -5   6  111.99    4.26
   1  -5  -6  116.52    4.87
  -5   4  -6  108.34    4.03
   1  -5  -6  107.48    3.91
   4   1   6  113.10    4.65
   5  -4   6  114.06    3.85
   4   1  -6  115.07    4.22
  -1   5   7   24.74    2.09
  -4  -1  -7   18.81    1.76
   5  -4   7   20.19    1.16
   1  -5   7   19.18    1.53
  -5   4  -7   20.24    1.67
   1  -5   7   18.39    1.13
  -5   4   7   20.24    1.36
   5  -4  -7   22.89    1.57
   5  -4  -7   20.47    1.61
   5  -4   7   18.75    1.74
  -4  -1   7   18.10    1.65
   1  -5   7   19.57    1.48
   1  -5  -7   19.98    1.25
  -5   4   7   19.75    1.87
  -5   4  -7   20.40    1.08
  -1   5   7   20.87    1.35
   4   1   7   18.53    1.71
   5  -4  -7   19.90    1.31
   5  -4   7   20.89    1.60
  -4  -1   8   10.03    1.38
   1  -5   8   10.45    1.51
   1  -5   8   14.62    1.37
  -1   5   8    8.39    1.48
   5  -4  -8    9.06    1.13
   5  -4   8   10.46    1.47
  -5   4  -8   10.16    1.34
  -5   4   8    9.94    1.06
   5  -4   8    9.58    0.83
  -4  -1  -8   10.54    1.44
  -1   5   8   14.23    1.13
   1  -5  -8   10.60    1.39
  -5   4   8   10.94    1.59
   4   1   8   11.52    1.51
   1  -5   8   10.25    1.17
  -5   4  -8   10.88    0.82
  -1   5   9    3.59    1.26
   5  -4   9    4.38    0.67
   1  -5   9    4.26    0.96
  -4  -1   9    6.32    1.25
   1  -5   9    5.12    1.06
  -4  -1   9    5.24    1.06
   1  -5  -9    7.63    1.24
   5  -4  -9    4.41    0.75
   5  -4   9    3.32    1.05
   5  -4  -9    6.09    1.06
  -4  -1  -9    5.19    1.25
  -5   4   9    5.41    1.27
   4   1   9    4.84    1.28
   1  -5   9    4.43    1.27
   1  -5 -10   18.09    1.85
  -4  -1 -10   13.51    1.83
  -4  -1  10   14.62    1.88
   1  -5  10   14.17    1.56
  -5   4  10   15.71    2.06
  -3  -2   0  421.36   12.88
  -3  -2   0  423.51   12.83
   5  -3   0  420.27   13.04
   2  -5   0  430.26   13.03
   5  -3   0  419.22   12.61
  -5   3   0  410.72   12.93
  -5   3   0  440.43   12.92
   2  -5   0  430.32   12.77
  -3  -2   0  426.70   12.98
   5  -3   0  427.97   12.91
   2  -5   0  415.68   12.46
  -3  -2  -1    4.57    0.51
  -5   3   1    3.73    0.52
   2  -5  -1    3.60    0.49
   5  -3  -1    5.22    0.40
   5  -3  -1    3.59    0.49
   2  -5  -1    3.73    0.35
   5  -3   1    3.61    0.40
  -5   3  -1    3.13    0.40
   5  -3  -1    3.23    0.45
  -3  -2   1    3.66    0.41
   3   2  -1    4.18    0.45
  -3  -2  -1    3.82    0.44
  -3  -2  -1    3.61    0.51
   2  -5   1    4.62    0.46
   2  -5   1    3.94    0.31
   3   2   1    4.60    0.48
   2  -5   1    3.21    0.48
  -5   3  -2   25.78    1.57
   2  -5  -2   28.16    1.44
  -3  -2   2   27.36    1.42
  -5   3   2   24.29    1.23
  -2   5   2   25.93    1.62
  -2   5  -2   28.01    1.17
   5  -3   2   27.82    1.26
  -3  -2  -2   26.61    1.48
   2  -5   2   29.14    1.38
  -3  -2  -2   24.79    1.06
   5  -3  -2   28.84    1.25
   2  -5  -2   26.43    1.01
  -3  -2  -2   27.52    1.32
  -3  -2   2   25.96    1.10
  -3  -2  -2   25.94    1.54
   5  -3   2   30.26    1.54
   2  -5  -2   27.26    1.05
  -5   3  -2   25.48    1.32
  -5   3  -2   27.77    1.17
   2  -5   2   27.97    1.17
   5  -3  -2   25.96    1.38
  -2   5   2   27.02    1.39
  -5   3   2   27.38    1.54
   2  -5   2   27.76    0.91
   5  -3   2   28.63    1.19
   3   2  -2   27.24    1.28
  -5   3   2   26.39    1.23
   2  -5   2   28.86    0.89
   3   2   2   24.73    1.38
  -5   3   3    2.13    0.37
   5  -3   3    3.18    0.34
   3   2   3    4.01    0.60
  -3  -2   3    2.20    0.40
  -5   3   3    3.66    0.50
  -3  -2   3    2.93    0.19
  -3  -2   3    2.64    0.51
   2  -5  -3    2.71    0.30
   2  -5  -3    3.59    0.55
  -5   3  -3    3.00    0.46
   2  -5   3    2.45    0.42
   2  -5   3    3.10    0.41
  -3  -2  -3    2.76    0.26
  -3  -2  -3    3.63    0.62
  -3  -2  -3    2.05    0.51
   5  -3   3    2.96    0.57
  -2   5   3    2.60    0.59
  -5   3   3    3.17    0.65
   5  -3  -3    3.06    0.44
  -2   5  -3    3.20    0.41
  -2   5   3    3.32    0.50
  -5   3  -4  242.14    8.35
  -2   5   4  246.48    8.61
  -5   3   4  233.28    8.12
  -5   3  -4  236.28    7.75
   2  -5   4  245.74    7.74
  -2   5  -4  243.14    7.67
   5  -3   4  248.88    8.14
   3   2  -4  241.02    7.89
   5  -3   4  243.21    8.11
  -3  -2   4  239.86    7.98
  -5   3   4  244.71    8.29
   2  -5  -4  244.97    8.02
   5  -3  -4  241.14    7.73
   5  -3  -4  245.21    7.87
   5  -3   4  238.46    7.39
  -3  -2  -4  234.61    8.30
   2  -5  -4  240.76    7.49
   2  -5   4  238.51    7.84
  -5   3   4  247.08    7.75
  -3  -2   4  236.79    7.71
  -2   5   4  241.51    7.87
   3   2   4  240.43    8.20
  -2   5   5    2.05    0.51
  -3  -2   5    1.08    0.52
   2  -5  -5    1.51    0.38
   2  -5  -5    0.99    0.54
  -2   5  -5    1.02    0.41
  -5   3  -5    1.31    0.43
   5  -3   5    1.73    0.28
  -5   3  -5    0.95    0.33
   5  -3  -5    1.80    0.46
  -3  -2  -5    2.17    0.35
  -3  -2  -5    1.54    0.71
   3   2  -5    1.65    0.51
   5  -3   5    1.09    0.55
   5  -3  -5    1.98    0.51
  -2   5   5    0.99    0.61
  -5   3  -5    1.34    0.56
   2  -5   5    1.76    0.46
   2  -5   5    1.26    0.50
  -5   3   5    1.34    0.45
   3   2   5    2.44    0.66
   5  -3   5    1.49    0.54
  -5   3   5    1.95    0.61
   2  -5   5    1.84    0.49
   5  -3  -5    0.64    0.48
  -3  -2  -6   17.29    0.85
  -5   3  -6   18.35    1.06
   2  -5   6   17.89    1.17
   3   2   6   16.96    1.53
   5  -3   6   17.24    0.89
   5  -3  -6   18.56    1.32
   3   2  -6   17.23    1.24
  -5   3  -6   18.09    1.54
   5  -3   6   15.62    1.45
   2  -5   6   19.54    1.37
  -3  -2  -6   16.70    1.56
   5  -3   6   14.56    1.32
   2  -5  -6   17.83    1.08
  -5   3   6   20.06    1.57
  -2   5   6   22.56    1.93
  -3  -2  -6   15.96    1.57
   2  -5  -6   20.59    1.44
  -3  -2   6   17.48    1.48
  -3  -2  -6   18.50    1.25
   2  -5   6   18.32    1.29
  -5   3  -6   17.68    1.20
   2  -5  -6   20.66    1.70
  -5   3   6   16.74    1.20
   5  -3  -6   16.23    1.15
  -3  -2   6   15.62    1.29
  -2   5   6   19.01    1.27
  -5   3   6   18.18    1.56
  -2   5  -6   18.83    1.21
  -2   5   7    1.06    0.85
   5  -3   7    0.39    0.31
  -5   3  -7    0.96    0.70
   2  -5   7    0.16    0.42
   2  -5  -7    1.93    0.53
  -5   3   7    0.10    0.51
   2  -5   7    1.12    0.61
  -5   3   7    0.36    0.69
  -3  -2   7    0.16    0.72
   5  -3   7    0.68    0.72
  -5   3  -7    0.75    0.38
  -3  -2  -7    0.17    0.66
   5  -3   7   -0.13    0.59
   5  -3  -7    0.88    0.63
   3   2   7    0.88    0.69
   5  -3  -7    0.09    0.48
  -3  -2   7    0.50    0.63
  -2   5   7    0.88    0.54
   2  -5   7    0.65    0.57
   2  -5   8   52.46    2.64
  -2   5   8   43.17    3.17
   5  -3   8   48.39    2.00
  -5   3  -8   51.06    2.18
   5  -3  -8   55.33    2.18
   2  -5  -8   52.67    2.85
  -3  -2  -8   47.37    2.96
   2  -5   8   50.59    3.19
  -3  -2   8   49.86    3.06
  -5   3   8   53.78    2.58
   5  -3   8   53.98    3.17
  -3  -2   8   48.92    2.71
  -5   3  -8   50.94    2.97
   5  -3  -8   52.47    2.61
   5  -3   8   50.92    1.99
  -2   5   8   51.94    2.51
  -5   3   8   43.05    2.99
   3   2   8   44.52    2.99
  -2   5   9   -0.26    0.92
   2  -5   9    0.23    0.97
  -3  -2   9   -0.21    0.91
  -5   3  -9   -0.36    0.83
   5  -3   9    0.86    1.01
  -5   3   9   -0.45    0.91
   2  -5  -9   -0.16    0.73
  -3  -2  -9   -0.19    0.77
   2  -5   9    0.66    0.73
   3   2   9    0.91    1.06
   5  -3  -9    0.13    0.68
  -5   3   9   -0.63    0.73
  -5   3  10    6.78    1.52
   2  -5  10    5.56    1.08
  -3  -2  10    7.41    1.47
  -3  -2 -10    5.43    1.28
  -5   3 -10    6.36    1.29
   2  -5 -10    5.82    1.19
   5  -3 -10    5.96    1.03
  -5   2   0  899.03   27.18
   3  -5   0  929.12   27.02
  -2  -3   0  918.28   27.03
   3  -5   0  878.83   27.36
  -5   2   0  923.55   27.35
   5  -2   0  929.66   27.25
   3  -5   0  903.46   27.27
  -2  -3   0  915.70   27.27
  -3   5   0  913.72   27.23
  -2  -3  -1    1.48    0.37
  -3   5   1    0.39    0.25
   3  -5  -1    0.82    0.22
   5  -2  -1    0.64    0.24
  -5   2  -1    0.50    0.29
   2   3   1    0.49    0.24
  -3   5   1    0.57    0.20
   3  -5   1    0.89    0.18
   3  -5  -1    0.08    0.37
   5  -2   1    0.77    0.18
   5  -2   1    0.64    0.25
   3  -5  -1    0.83    0.30
  -2  -3  -1    0.24    0.22
  -2  -3   1    1.09    0.32
   2   3  -1    0.62    0.22
  -3   5  -1    1.17    0.17
   3  -5   1    1.07    0.30
  -5   2  -1    0.58    0.22
   5  -2   1    0.64    0.22
   3  -5  -2   17.96    1.20
   3  -5   2   14.87    0.95
   3  -5  -2   16.57    1.08
   2   3   2   16.29    1.13
  -3   5   2   15.78    0.74
  -5   2  -2   15.38    0.74
  -3   5   2   16.73    1.22
  -5   2   2   17.40    1.18
   5  -2  -2   17.31    0.92
   2   3  -2   17.93    0.90
   5  -2   2   17.31    0.96
   5  -2   2   15.61    0.75
  -5   2   2   17.19    0.83
  -3   5  -2   16.70    0.79
   3  -5   2   16.90    1.04
  -2  -3  -2   15.82    0.83
   5  -2  -2   18.76    0.80
   5  -2   2   17.42    0.94
   3  -5   2   17.87    0.79
  -5   2  -2   16.89    1.22
   3  -5  -2   16.36    0.65
  -2  -3  -2   15.79    1.14
  -2  -3   2   19.51    1.09
  -5   2   2   18.09    0.99
  -5   2   2   17.01    1.07
   2   3  -3    0.09    0.21
  -2  -3   3    0.30    0.32
   2   3   3    0.10    0.37
  -3   5  -3    0.17    0.23
  -5   2  -3    0.06    0.30
  -5   2   3    2.01    0.38
  -3   5   3    0.24    0.35
  -3   5   3   -0.08    0.30
   5  -2   3    0.65    0.36
  -5   2   3   -0.07    0.23
   3  -5   3    0.24    0.35
   5  -2  -3   -0.08    0.20
  -5   2  -3    0.33    0.37
  -2  -3  -3    0.24    0.21
   3  -5  -3    0.03    0.16
   3  -5   3    0.07    0.29
   3  -5  -3    0.42    0.35
   5  -2   3    0.09    0.34
   3  -5   3    0.92    0.28
  -2  -3  -3    1.26    0.48
   3  -5  -3    0.20    0.39
  -2  -3   3    0.23    0.26
  -5   2   3   -0.21    0.40
   5  -2   3    0.18    0.13
   2   3   4  446.52   14.46
  -2  -3   4  438.07   13.69
  -5   2   4  466.17   14.53
  -2  -3   4  468.99   14.13
  -5   2  -4  443.34   13.84
   5  -2   4  451.97   13.26
  -3   5   4  440.95   14.07
  -5   2  -4  475.42   13.80
   3  -5   4  449.19   14.05
  -3   5   4  441.82   14.68
   3  -5  -4  449.38   13.58
   3  -5   4  439.47   13.77
   5  -2   4  448.10   14.23
  -3   5  -4  454.01   13.76
   5  -2  -4  457.16   14.04
  -2  -3  -4  445.98   14.50
  -5   2   4  471.58   14.00
   3  -5  -4  482.82   14.55
  -2  -3  -4  440.86   13.61
   5  -2   4  450.64   14.27
   5  -2  -4  453.90   13.57
  -5   2   4  444.64   14.18
   3  -5  -4  446.12   14.19
  -3   5  -5   -0.13    0.39
   5  -2   5    0.13    0.11
  -3   5   5    0.09    0.44
   3  -5  -5   -0.11    0.48
  -5   2  -5   -0.15    0.42
  -2  -3  -5    0.40    0.19
  -3   5   5   -0.49    0.60
   5  -2  -5    0.23    0.40
  -2  -3   5    0.10    0.41
  -5   2  -5    0.06    0.33
   5  -2   5    0.36    0.48
   3  -5   5   -0.26    0.42
  -2  -3  -5   -0.14    0.57
  -5   2  -5    0.14    0.52
   3  -5   5    0.17    0.39
   3  -5  -5   -0.13    0.55
   5  -2   5   -0.22    0.47
  -2  -3  -5    0.69    0.59
  -5   2   5    0.08    0.39
  -5   2   5    0.24    0.49
   3  -5  -5   -0.05    0.31
   5  -2  -5    1.30    0.43
   2   3   5    1.52    0.58
   5  -2   6    0.95    0.18
   2   3   6    0.96    0.69
  -5   2  -6    0.89    0.43
   5  -2   6    1.15    0.17
   5  -2  -6    1.57    0.51
  -2  -3  -6    0.86    0.45
  -5   2  -6    0.46    0.58
  -3   5  -6    1.93    0.51
  -2  -3  -6    1.46    0.66
  -5   2   6    0.95    0.51
  -5   2  -6    0.86    0.38
   3  -5  -6    2.65    0.80
   5  -2   6    1.85    0.70
   3  -5   6    1.17    0.48
  -2  -3   6    2.20    0.64
   5  -2  -6    1.62    0.52
  -3   5   6    1.63    0.56
  -5   2  -6    2.00    0.58
  -2  -3  -6    1.08    0.68
   5  -2   6    1.71    0.64
  -5   2   6   -0.14    0.71
   2   3   6    1.53    0.32
   3  -5  -6    2.12    0.48
  -3   5   6    1.71    0.86
   3  -5   6    1.27    0.56
  -5   2   6    1.72    0.76
   2   3   7    0.37    0.65
   5  -2   7   -0.04    0.18
  -3   5   7    1.00    0.60
   3  -5  -7    0.15    0.44
   3  -5   7    0.10    0.47
  -5   2  -7    0.51    0.67
  -2  -3   7   -0.17    0.67
  -2  -3   7   -0.37    0.57
   5  -2  -7   -0.10    0.52
  -5   2  -7   -0.36    0.44
   5  -2   7    0.17    0.17
   5  -2   7   -0.17    0.76
  -5   2   7   -0.11    0.54
   5  -2  -7    0.42    0.25
  -2  -3  -7    0.17    0.67
   2   3   7    0.34    0.27
  -5   2   7    1.35    0.73
   3  -5   7    0.32    0.60
  -3   5   7    0.43    0.74
  -5   2   8   80.45    4.03
   3  -5   8   90.22    3.58
   5  -2   8   74.10    2.46
   5  -2   8   72.88    2.46
  -5   2  -8   83.07    4.03
  -5   2  -8   84.08    3.14
  -2  -3  -8   77.76    3.86
   3  -5   8   78.53    3.25
   2   3   8   81.19    4.17
   5  -2  -8   85.97    3.45
   5  -2  -8   71.53    2.45
  -2  -3   8   90.48    4.20
  -5   2   8   87.48    3.56
  -2  -3   8   83.61    3.67
   5  -2   8   78.57    3.98
  -3   5   8   75.31    4.23
   2   3   8   81.44    2.76
  -3   5   9   -0.52    0.97
   3  -5   9    0.25    0.74
  -2  -3   9    0.88    1.00
   5  -2  -9   -0.24    0.66
  -5   2  -9   -0.19    0.83
  -2  -3  -9    0.19    0.81
   5  -2   9   -0.21    0.86
   3  -5  -9   -0.14    0.77
  -2  -3   9   -0.30    0.76
  -5   2   9   -0.21    0.90
   2   3   9    0.23    0.95
  -5   2   9    0.53    0.72
   5  -2 -10    2.01    0.82
   3  -5  10    3.33    0.97
  -2  -3  10    3.09    0.98
  -5   2 -10    3.20    1.12
  -5   2  10    2.56    1.26
  -2  -3 -10    1.37    0.92
   3  -5 -10    3.35    0.98
  -4   5   0  176.24    5.84
  -1  -4   0  172.31    5.94
   4  -5   0  184.34    5.91
   5  -1   0  168.10    5.74
  -5   1   0  179.46    5.91
  -4   5   0  181.82    5.65
  -1  -4   0  176.95    5.59
   5  -1   0  171.60    5.80
   4  -5   0  175.26    5.64
  -5   1   0  170.98    5.78
   5  -1   1    7.23    0.43
   4  -5   1    7.63    0.63
  -1  -4  -1    6.58    0.73
  -5   1   1    6.64    0.60
   4  -5  -1    9.35    0.77
   5  -1   1    8.07    0.74
  -5   1  -1    6.88    0.53
   5  -1   1    8.30    0.67
  -5   1  -1    6.70    0.72
  -4   5   1    9.18    0.76
  -4   5   1    8.73    0.58
  -5   1   1    6.64    0.70
  -1  -4   1    8.02    0.54
  -4   5  -1    7.07    0.39
   4  -5  -1    7.10    0.62
   4  -5   1    6.61    0.64
   5  -1  -1    7.22    0.59
  -1  -4  -1    8.02    0.63
  -1  -4   1    8.15    0.65
  -4   5  -1    6.83    0.59
  -1  -4  -2  128.60    4.38
   4  -5   2  141.57    4.58
   4  -5   2  131.39    4.48
   1   4   2  136.33    4.87
  -4   5   2  130.75    4.82
  -4   5   2  126.30    4.62
   4  -5  -2  132.47    4.70
   5  -1   2  128.21    4.33
   5  -1  -2  133.44    4.29
  -5   1   2  128.42    4.15
   4  -5   2  120.35    4.66
  -5   1  -2  124.24    4.04
  -5   1   2  135.36    4.58
   5  -1   2  130.41    4.47
  -4   5   2  136.18    4.22
  -5   1   2  136.72    4.89
  -4   5  -2  129.06    4.15
  -1  -4   2  127.82    4.49
   4  -5  -2  142.49    4.78
  -1  -4  -2  133.51    4.87
  -5   1  -2  134.65    4.85
  -5   1   2  138.48    4.55
   1   4   3    6.18    0.79
  -5   1   3    4.92    0.60
   4  -5   3    6.14    0.72
   1   4  -3    5.65    0.45
   4  -5   3    5.23    0.59
  -5   1  -3    6.10    0.61
  -5   1   3    5.85    0.81
   5  -1   3    6.74    0.64
   5  -1  -3    6.46    0.45
  -4   5   3    6.51    0.82
  -5   1  -3    5.47    0.77
  -1  -4  -3    6.41    0.57
   4  -5  -3    5.38    0.73
   5  -1   3    6.46    0.78
  -4   5   3    5.64    0.41
  -1  -4   3    5.13    0.43
  -4   5  -3    5.51    0.48
  -1  -4  -3    7.07    0.87
  -5   1   3    5.20    0.55
  -1  -4   3    5.91    0.64
   4  -5  -3    5.32    0.67
   4  -5  -3    6.28    0.45
   4  -5   3    6.90    0.67
  -5   1   3    7.19    0.75
  -4   5   3    5.41    0.42
  -1  -4   4  114.98    4.03
  -4   5   4  101.24    4.36
   5  -1  -4  108.16    3.31
   4  -5   4   99.46    3.96
  -5   1  -4   97.83    3.70
  -4   5   4  106.82    3.35
   5  -1   4   98.64    3.98
  -5   1   4  115.09    4.45
  -5   1  -4   99.96    3.72
   1   4  -4  108.35    3.46
   4  -5  -4  109.72    4.22
   1   4   4  107.95    4.40
   5  -1   4  102.24    4.14
   1   4  -4  102.55    3.81
   4  -5  -4  104.48    3.53
  -5   1   4  106.84    3.94
  -1  -4  -4  112.07    4.45
   4  -5  -4  100.60    4.07
  -4   5   4  103.85    4.04
  -4   5  -4  101.57    3.64
  -5   1   4  107.99    4.00
  -1  -4   4  106.06    3.48
  -4   5  -4  103.87    3.19
  -1  -4  -4  106.48    3.73
   4  -5   4  106.48    3.84
   4  -5  -5    2.35    0.66
  -4   5   5    2.92    0.65
  -4   5  -5    3.74    0.56
   1   4   5    3.59    0.46
  -1  -4   5    2.51    0.56
   1   4   5    2.11    0.73
  -4   5  -5    2.24    0.19
   4  -5   5    2.38    0.57
  -4   5   5    3.37    0.83
  -4   5   5    2.97    0.27
   4  -5  -5    2.63    0.45
   1   4  -5    1.58    0.46
  -5   1  -5    2.97    0.52
   5  -1  -5    2.21    0.55
  -5   1   5    2.31    0.74
   4  -5   5    3.20    0.59
   1   4  -5    2.51    0.34
  -5   1  -5    5.09    0.62
  -5   1  -5    2.16    0.65
  -1  -4  -5    3.79    0.81
   4  -5  -5    3.19    0.75
  -1  -4   5    2.84    0.31
   5  -1   5    2.22    0.61
  -5   1   5    3.49    0.70
   5  -1   5    1.65    0.56
  -5   1   5    3.20    0.61
  -1  -4  -5    1.77    0.44
  -4   5   6   44.74    1.52
  -5   1  -6   48.73    2.07
   4  -5  -6   50.60    2.07
  -4   5   6   45.25    2.84
  -1  -4  -6   48.59    2.75
  -5   1  -6   47.93    2.75
  -5   1  -6   51.05    2.18
  -4   5   6   48.97    2.47
   4  -5   6   52.69    2.42
   1   4  -6   45.11    2.20
   1   4   6   43.52    2.70
   5  -1  -6   51.44    2.33
  -1  -4  -6   50.76    2.18
   4  -5  -6   53.36    2.71
  -1  -4  -6   52.67    2.88
  -1  -4   6   47.27    2.43
   5  -1   6   49.79    2.66
  -5   1   6   48.60    2.38
  -5   1   6   47.22    2.58
  -4   5  -6   49.96    2.19
   4  -5   6   51.14    2.36
   1   4   6   45.93    1.94
   5  -1  -6   48.95    2.26
   1   4   7    1.49    0.46
  -4   5   7    0.63    0.86
   4  -5   7    1.62    0.78
   4  -5  -7    0.75    0.50
  -5   1  -7    1.47    0.53
   4  -5   7    0.84    0.60
  -5   1  -7    0.70    0.76
   4  -5   7    0.44    0.49
  -1  -4  -7    1.67    0.77
   5  -1   7    0.83    0.76
  -5   1   7    0.96    0.66
   5  -1  -7    0.10    0.49
  -1  -4   7    1.36    0.69
  -5   1   7    0.93    0.61
   5  -1  -8   28.19    1.75
  -5   1   8   27.19    2.12
  -4   5  -8   25.73    1.03
  -5   1  -8   28.46    2.23
  -1  -4  -8   26.78    2.13
   4  -5   8   26.04    1.74
  -4   5   8   27.63    2.43
  -1  -4   8   29.15    2.32
   4  -5   8   27.39    2.27
  -1  -4   8   27.57    1.92
  -5   1   8   28.76    1.87
   5  -1   8   23.76    2.13
   4  -5   8   25.70    1.73
   1   4   8   27.55    1.39
  -5   1   9    0.42    0.72
   5  -1  -9    0.90    0.67
  -4   5   9    1.02    1.10
   4  -5   9    0.25    0.70
  -1  -4   9    0.27    0.69
   4  -5  -9    0.13    0.66
   4  -5   9    1.14    1.04
  -1  -4   9    1.37    0.81
  -5   1  -9    1.22    0.94
  -1  -4  -9   -0.93    0.87
   5  -1   9    1.29    1.07
  -5   1   9   -0.21    0.90
  -1  -4   9    0.68    0.94
   4  -5  10    9.51    1.24
  -1  -4  10    9.23    1.30
  -5   1 -10   10.62    1.68
  -1  -4 -10    8.12    1.44
  -5   1  10    9.21    1.67
   0  -5   0   14.61    1.10
   5  -5   0   16.27    1.00
  -5   5   0   18.68    0.98
   5   0   0   14.84    0.97
  -5   0   0   16.40    1.04
   5   0   0   14.95    1.00
  -5   5   0   13.61    0.98
   5  -5   0   13.99    0.88
   5  -5   0   17.88    1.07
  -5   5   1   87.91    3.20
  -5   0  -1   94.97    3.59
   0  -5  -1   91.97    3.66
   5   0   1   89.09    3.01
  -5   0  -1   88.96    3.20
   5  -5   1   92.84    3.38
   5  -5   1   94.52    3.63
   5  -5  -1   91.82    3.35
   0  -5   1   92.62    3.08
   5   0   1   88.15    3.36
   0  -5   1   93.69    3.25
   5   0  -1   95.69    3.31
   5   0   1   92.48    3.53
  -5   0  -1   92.27    3.10
   5  -5  -1   97.73    3.44
  -5   5   1   92.69    2.87
  -5   5   1   92.07    3.51
   0  -5  -1   93.78    3.40
  -5   5  -1   87.35    3.33
  -5   0   1   92.88    3.33
   5  -5  -2  309.42    9.95
   5   0   2  320.05    9.72
  -5   5   2  298.27   10.08
  -5   5  -2  319.65    9.52
  -5   0   2  311.30    9.64
   5  -5   2  309.67   10.14
  -5   0  -2  314.27   10.25
   5   0  -2  322.23    9.65
   5   0   2  308.95   10.15
   5  -5   2  319.04    9.84
   0  -5  -2  326.23   10.38
  -5   5   2  302.04   10.08
   0  -5   2  317.22    9.82
  -5   0  -2  302.85    9.82
  -5   0   2  314.76    9.52
  -5   5   2  318.11    9.38
  -5   0   2  323.44    9.95
  -5   0  -2  304.37    9.38
   0  -5  -2  309.71    9.87
  -5   5   2  310.83    9.65
   5  -5  -2  318.78   10.00
  -5   5  -2  317.91    9.57
   0  -5   3   54.12    2.28
   5  -5   3   59.92    2.56
  -5   0  -3   56.16    2.26
  -5   5   3   52.81    2.53
  -5   5  -3   54.88    2.27
   5  -5   3   53.32    1.90
  -5   0   3   55.36    2.35
  -5   0  -3   51.83    2.60
   5   0   3   55.50    2.30
  -5   5   3   50.59    2.45
   5  -5  -3   55.41    2.43
   0  -5  -3   53.40    2.26
  -5   0   3   55.33    2.20
  -5   5  -3   56.36    2.07
  -5   5   3   54.31    1.93
   0  -5   3   48.49    1.81
   5  -5  -3   50.17    2.45
   0   5  -3   52.02    2.19
   5  -5   3   52.34    2.20
   5  -5  -3   53.67    2.37
   0  -5  -3   56.88    2.73
  -5   5  -3   54.91    1.93
  -5   0   4   13.64    1.05
   5  -5  -4   15.03    1.12
   0  -5  -4   14.45    1.02
  -5   0  -4   14.48    0.96
  -5   5  -4   11.88    0.96
   0  -5   4   12.58    0.87
  -5   0  -4   16.35    1.04
  -5   0  -4   14.51    1.29
   5  -5   4   15.29    1.17
   0  -5  -4   14.76    1.33
  -5   0   4   12.80    1.03
   0   5  -4   17.65    1.06
  -5   5   4   12.47    0.79
   0   5   4   13.84    0.92
  -5   5  -4   14.15    0.91
   5  -5  -4   13.96    1.14
   0  -5   4   16.83    1.12
   5  -5  -4   12.39    1.15
  -5   5  -4   14.09    0.71
  -5   5   4   12.33    1.21
  -5   0   4   14.82    1.13
   5   0   4   16.44    1.16
   5  -5   4   16.01    1.00
   5  -5  -4   15.39    0.87
   5  -5   5   32.35    1.70
  -5   5   5   25.51    1.90
   0  -5   5   28.69    1.34
  -5   0  -5   30.78    1.58
   5  -5   5   30.86    1.78
  -5   0   5   25.49    1.68
  -5   0   5   29.39    1.73
   0  -5  -5   27.13    1.56
   5  -5   5   29.09    1.49
   5  -5  -5   28.60    1.41
  -5   0  -5   26.90    1.40
   0  -5  -5   30.52    1.46
  -5   5   5   28.80    1.40
  -5   5   5   33.06    1.91
   5  -5  -5   26.40    1.75
  -5   5  -5   30.29    1.51
   0  -5   5   28.48    1.68
   0  -5  -5   30.17    2.07
   0   5   5   29.57    1.46
   5  -5  -5   29.98    1.74
   5   0   5   27.62    1.76
   0   5  -5   27.91    1.54
   5  -5   6   99.43    3.93
   5  -5  -6  103.14    3.65
  -5   0  -6   97.16    3.56
   5  -5   6  102.59    3.70
   5   0   6   93.60    4.21
  -5   0  -6   98.88    3.76
   0   5  -6   96.98    3.10
  -5   0  -6  100.53    4.53
   0  -5   6   98.11    3.40
   5  -5   6   93.46    3.99
  -5   5   6   97.13    4.56
   0   5   6  106.04    3.68
   0   5  -6  101.25    3.83
   5  -5  -6  102.46    4.23
  -5   5   6  104.80    3.69
   0  -5  -6   96.95    3.63
  -5   0   6  100.04    4.20
   0  -5   6   95.59    3.98
  -5   5  -6   99.46    3.73
  -5   0   6  100.69    4.05
   0  -5  -6   97.62    3.86
  -5   5   6   99.70    4.19
  -5   0   7   10.27    1.14
  -5   5   7    9.40    1.42
   5  -5  -7   11.14    1.17
  -5   0  -7    8.97    0.77
   0   5  -7    9.89    0.51
   5  -5   7    6.43    1.18
   0  -5  -7   10.42    1.32
   0  -5   7    9.25    0.63
   0  -5   7    9.20    1.07
   5  -5   7    9.55    0.88
  -5   0  -7   11.50    1.42
   5  -5   7    9.52    1.11
  -5   5   7   10.15    0.94
   5   0   7    9.44    1.24
  -5   0   7    8.30    1.17
   5  -5   7   12.05    1.10
   0   5   7   10.90    0.90
   5  -5  -7   10.44    0.92
   5  -5  -8    8.24    1.10
   0   5   8    6.63    0.79
   5  -5   8    8.16    1.05
   0  -5   8    9.98    1.20
   0  -5   8    7.71    1.38
   5  -5   8   11.13    1.52
   5  -5   8    8.90    0.91
  -5   0   8    6.86    1.10
   0   5  -8    7.48    0.47
  -5   0  -8   10.44    1.50
   0  -5   8    6.74    1.10
  -5   5   8    7.04    1.38
  -5   0   8    6.19    1.17
   0  -5  -8    9.19    1.35
   5   0   8    7.06    1.29
  -5   5   9    2.96    1.21
   5  -5  -9    0.98    0.77
   0  -5   9    3.02    1.16
   5  -5   9    3.64    1.23
  -5   0   9    1.04    0.87
  -5   0  -9    3.13    1.11
   0  -5  -9    1.89    1.05
   5  -5  -9    3.37    0.77
  -5   0   9    2.79    0.99
   5  -5   9    2.15    0.61
   5   0   9    1.28    0.91
   0  -5   9    1.82    0.88
   0  -5   9    2.48    0.92
   0  -5  10   14.42    1.67
  -5   0  10   15.51    1.87
   0  -5 -10   15.57    1.78
  -5  -1   0  106.00    3.85
  -5  -1   0  101.17    3.45
  -6   5   0   98.82    3.68
   1  -6   0  105.56    4.08
   6  -5   0  102.38    3.66
   6  -5   0  104.84    3.83
   6  -5   0  111.57    4.04
   1  -6   0  105.27    3.49
   1  -6   0  106.25    3.92
  -6   5   0  103.38    3.73
  -6   5   0  102.90    3.84
   1  -6  -1    4.10    0.58
  -6   5  -1    3.73    0.53
   6  -5  -1    3.84    0.50
  -5  -1   1    3.98    0.38
   1  -6   1    4.60    0.47
  -6   5   1    3.75    0.51
   1  -6  -1    3.19    0.61
  -6   5  -1    2.68    0.47
  -5  -1   1    7.05    0.61
  -5  -1  -1    8.00    0.78
   1  -6   1    3.98    0.38
   5   1  -1    3.44    0.50
   6  -5  -1    2.49    0.47
   5   1   1    4.60    0.58
  -6   5   1    3.16    0.57
   5   1   1    3.39    0.38
  -5  -1  -1    5.00    0.50
  -6   5   1    3.77    0.35
   6  -5  -1    3.79    0.59
   6  -5   1    3.23    0.50
   1  -6  -2   84.65    3.42
   1  -6  -2   95.87    3.86
   6  -5   2   96.07    3.35
  -6   5   2   93.16    3.67
  -5  -1  -2   90.26    3.69
  -6   5  -2   86.96    3.37
   5   1   2   92.92    3.29
   5   1  -2   86.50    3.36
   6  -5   2   86.93    3.61
  -5  -1   2   89.09    3.14
   1  -6  -2   87.87    3.01
   6  -5  -2   89.86    3.46
   6  -5   2   83.47    3.12
  -5  -1  -2   89.26    3.41
   1  -6   2   89.22    2.91
   1  -6   2   93.51    3.26
   6  -5  -2   98.52    3.42
  -6   5   2   92.61    3.04
  -6   5  -2   91.71    3.22
   1  -6   3    3.51    0.52
  -6   5   3    5.48    0.81
  -6   5   3    2.86    0.38
   1  -6  -3    3.22    0.57
   6  -5  -3    3.28    0.62
  -6   5  -3    3.12    0.56
   1  -6  -3    3.18    0.29
  -1   6  -3    3.00    0.45
  -5  -1  -3    4.78    0.71
   1  -6   3    3.24    0.23
   1  -6  -3    4.26    0.85
   6  -5   3    3.33    0.40
  -5  -1   3    3.67    0.60
  -6   5   3    1.73    0.50
   6  -5   3    3.58    0.65
   6  -5   3    3.83    0.50
  -5  -1  -3    3.68    0.69
  -6   5  -3    3.67    0.46
   6  -5  -3    2.30    0.53
   5   1   3    2.69    0.49
  -6   5  -3    2.89    0.42
  -5  -1   4   62.10    2.61
  -6   5   4   60.49    2.84
  -6   5  -4   57.02    2.51
  -5  -1  -4   57.33    2.50
   1  -6   4   57.40    2.47
   6  -5  -4   55.63    2.65
   6  -5   4   66.09    2.85
  -5  -1  -4   58.72    2.98
   1  -6  -4   57.17    2.59
  -5  -1  -4   53.12    2.75
  -5  -1   4   64.05    2.62
   1  -6  -4   59.33    2.25
  -6   5  -4   62.01    2.40
   6  -5  -4   60.13    2.63
  -6   5   4   61.24    2.32
   1  -6   4   61.61    2.56
  -1   6  -4   60.56    2.44
   6  -5  -4   55.29    2.81
  -6   5   4   56.35    2.82
   1  -6  -4   61.99    3.07
   6  -5   4   60.32    2.36
  -1   6   4   59.55    2.49
  -1   6   4   57.49    3.11
   5   1   4   57.73    2.66
   1  -6   5    0.84    0.49
  -6   5   5    1.42    0.66
  -1   6   5    1.09    0.69
  -1   6  -5    2.15    0.53
  -6   5  -5    2.42    0.53
   6  -5  -5    1.61    0.49
  -5  -1  -5    0.82    0.63
  -5  -1   5    2.57    0.63
  -1   6   5    2.39    0.55
  -6   5   5    1.16    0.39
   6  -5  -5    1.06    0.53
  -5  -1  -5    1.00    0.51
   1  -6   5    1.28    0.46
   6  -5   5    1.28    0.58
  -5  -1  -5    0.80    0.43
   6  -5  -5    1.60    0.57
   1  -6  -5    2.55    0.86
  -6   5  -5    2.40    0.58
   6  -5   5    1.30    0.40
   5   1   5    1.20    0.55
   1  -6  -5    1.99    0.45
   1  -6  -5    2.38    0.59
  -1   6   6   40.30    2.63
  -1   6  -6   32.92    1.79
  -5  -1  -6   34.61    1.61
   1  -6   6   36.21    2.09
   6  -5  -6   34.63    1.75
   1  -6   6   33.00    1.65
  -5  -1  -6   37.04    2.43
   6  -5   6   33.66    2.07
   6  -5   6   36.30    2.29
  -6   5   6   31.09    2.23
   6  -5  -6   39.07    2.13
  -5  -1   6   32.35    2.06
  -6   5   6   37.88    1.78
   1  -6   6   34.70    1.97
   1  -6  -6   34.66    1.68
  -6   5  -6   39.67    1.88
   6  -5   6   35.23    1.67
   1  -6  -6   33.39    1.92
  -1   6   6   34.00    1.80
   5   1   6   31.13    2.10
   1  -6   7    0.13    0.68
  -1   6   7   -0.22    0.82
  -1   6   7    0.62    0.53
   6  -5  -7    0.08    0.45
  -5  -1  -7    0.51    0.40
   5   1   7    0.83    0.72
   6  -5   7   -0.18    0.72
  -5  -1   7    0.15    0.57
   6  -5  -7    0.12    0.59
  -5  -1  -7    0.19    0.71
  -6   5   7   -0.09    0.50
  -6   5   7    1.16    0.80
   6  -5   7    0.47    0.39
   1  -6  -7    0.23    0.45
   1  -6   7    1.21    0.62
  -6   5   8   16.58    1.90
   1  -6   8   15.22    1.52
  -1   6   8   16.88    1.97
   6  -5   8   16.05    1.81
   1  -6  -8   19.77    1.79
  -5  -1   8   14.86    1.61
  -5  -1  -8   16.00    1.81
   6  -5   8   15.61    1.06
  -6   5   8   15.36    1.26
   1  -6   8   18.20    1.56
  -5  -1   8   15.24    1.53
   6  -5  -8   14.82    1.41
   5   1   8   16.00    1.70
  -1   6   8   15.35    1.22
   1  -6   9    0.15    0.86
   1  -6   9    0.96    1.04
   6  -5   9   -1.35    1.07
  -5  -1  -9    0.22    0.90
  -5  -1   9   -0.97    0.91
   1  -6  -9   -0.19    0.90
   6  -5  -9    0.99    0.82
   5   1   9    0.64    0.92
   1  -6   9   -0.15    0.81
  -6   5   9    0.47    0.95
  -5  -1  10    9.79    1.59
  -4  -2   0   17.67    1.01
   6  -4   0   17.73    1.17
   2  -6   0   17.93    0.78
   6  -4   0   18.25    0.91
   2  -6   0   18.26    1.00
  -6   4   0   16.62    1.05
  -4  -2   0   16.28    1.07
   2  -6   0   20.48    1.32
   6  -4   0   17.58    1.08
  -6   4   0   19.43    1.16
   2  -6   0   17.01    1.14
  -4  -2  -1   68.59    2.67
  -4  -2  -1   66.62    2.61
   2  -6   1   71.31    2.64
   6  -4  -1   71.08    2.80
   6  -4  -1   70.04    2.79
   4   2   1   68.85    2.58
   2  -6  -1   66.56    2.94
  -4  -2   1   63.91    2.53
  -4  -2  -1   63.21    2.81
  -6   4   1   65.54    2.80
   2  -6  -1   69.50    2.44
  -6   4  -1   66.73    2.60
   2  -6   1   67.52    2.33
  -4  -2   1   67.16    2.52
   6  -4   1   68.01    2.60
   2  -6  -1   66.42    2.77
  -6   4  -1   65.12    2.58
   4   2  -1   66.47    2.64
  -6   4   1   67.79    2.71
   2  -6   1   72.07    2.84
   6  -4  -1   68.98    2.45
   4   2   2  258.24    8.33
  -2   6   2  258.89    8.87
  -6   4   2  273.16    8.08
   4   2  -2  254.66    8.22
   6  -4  -2  253.55    8.36
   6  -4   2  254.66    8.52
  -2   6  -2  261.54    7.99
  -4  -2   2  248.24    7.96
   2  -6  -2  259.87    7.87
  -6   4  -2  249.93    8.28
   6  -4   2  250.91    8.11
  -6   4  -2  251.85    8.08
  -4  -2  -2  254.28    8.64
  -6   4   2  260.27    8.61
   6  -4  -2  258.19    8.10
   2  -6   2  258.82    7.99
   2  -6   2  257.86    7.69
  -4  -2  -2  253.58    8.43
   6  -4  -2  240.32    8.46
  -4  -2  -2  261.03    8.25
   2  -6   2  275.21    8.35
   6  -4   2  268.97    8.13
   2  -6  -2  258.92    8.44
  -4  -2   2  262.69    8.44
  -2   6   2  264.52    8.35
   4   2   3   40.82    2.02
  -6   4   3   39.38    1.93
  -6   4  -3   39.34    1.89
  -2   6  -3   39.63    1.72
  -2   6   3   40.87    2.36
   2  -6  -3   43.29    2.07
  -4  -2   3   41.05    1.45
  -4  -2  -3   39.47    2.21
   6  -4   3   39.46    1.72
   2  -6   3   43.53    2.02
  -4  -2   3   42.85    2.06
  -2   6   3   42.57    1.97
   6  -4   3   41.30    2.10
   6  -4  -3   42.24    2.01
   2  -6  -3   41.76    1.55
  -4  -2  -3   45.38    2.21
   6  -4  -3   44.59    1.87
   2  -6   3   43.53    1.79
  -4  -2   3   46.07    1.94
  -6   4   3   43.43    1.78
  -6   4   3   42.24    2.24
   6  -4   3   40.74    1.70
  -4  -2  -3   39.64    1.43
   4   2   4   13.98    1.16
   2  -6   4   13.22    1.02
  -6   4  -4   12.81    1.01
   6  -4   4   15.44    1.23
  -4  -2  -4   14.23    1.02
  -4  -2  -4   14.36    1.32
   6  -4  -4   12.68    1.07
  -6   4   4   16.26    1.21
  -6   4  -4   13.42    0.96
   6  -4  -4   17.60    1.10
  -4  -2  -4   15.29    1.31
   2  -6  -4   13.28    0.79
   2  -6   4   15.40    1.01
  -4  -2   4   14.94    1.04
  -6   4   4   14.81    0.96
   2  -6  -4   15.05    1.14
  -6   4   4   13.79    1.28
   6  -4   4   13.66    0.81
  -2   6  -4   12.51    0.90
  -2   6   4   14.61    1.06
  -2   6   4   15.40    1.50
   2  -6   4   16.02    1.16
  -4  -2   4   12.67    1.08
  -4  -2   5   19.11    1.38
  -4  -2  -5   15.96    0.95
  -6   4  -5   15.59    1.48
  -2   6   5   20.41    1.78
   4   2   5   16.82    1.39
  -2   6  -5   16.82    1.14
   2  -6  -5   19.12    1.36
  -6   4   5   19.91    1.52
   2  -6   5   16.65    1.16
  -4  -2  -5   19.49    1.24
   6  -4   5   18.49    1.42
  -4  -2   5   18.92    1.41
   6  -4   5   21.69    1.51
   6  -4  -5   16.66    1.24
  -4  -2  -5   19.04    1.56
  -6   4  -5   19.81    1.20
   2  -6   5   17.52    1.20
   2  -6  -5   18.89    1.03
  -6   4   5   20.03    1.22
  -6   4  -5   18.65    1.21
  -2   6   5   16.95    1.22
   6  -4   5   19.02    0.95
   6  -4  -5   21.04    1.23
  -2   6   6   88.59    4.29
  -6   4  -6   82.59    3.99
  -4  -2  -6   80.89    2.92
  -6   4  -6   80.72    3.26
  -4  -2   6   78.42    3.55
   2  -6   6   79.01    3.22
  -4  -2  -6   87.67    4.06
  -2   6   6   82.22    3.37
   2  -6   6   85.82    3.61
   6  -4  -6   85.15    3.51
  -4  -2  -6   88.00    4.01
  -4  -2   6   89.52    3.83
   6  -4  -6   82.57    3.54
   6  -4   6   79.50    3.77
   2  -6   6   87.57    3.47
  -6   4  -6   85.24    3.32
  -6   4   6   82.30    3.31
   2  -6  -6   87.86    3.14
   2  -6  -6   85.33    3.63
   6  -4   6   76.28    3.59
  -2   6  -6   82.59    3.28
   6  -4   6   83.12    2.91
   4   2   6   82.52    3.84
   6  -4  -6   85.31    3.29
  -6   4   6   83.18    3.89
  -6   4   7    4.48    0.77
  -2   6   7    4.57    0.77
   2  -6  -7    6.16    0.75
   6  -4   7    6.27    0.56
   2  -6   7    5.19    0.85
   6  -4  -7    5.87    0.77
   2  -6   7    6.45    1.00
  -4  -2  -7    5.22    0.53
  -4  -2   7    5.26    1.07
   6  -4   7    5.33    1.05
  -2   6   7    4.46    1.13
  -6   4  -7    6.70    1.18
  -4  -2  -7    5.90    1.10
   2  -6   7    4.12    0.70
  -4  -2   7    6.33    0.99
   6  -4  -7    5.13    0.91
   4   2   7    6.37    1.13
  -6   4   7    5.40    1.06
   6  -4  -8   10.58    1.23
   2  -6   8    9.19    1.22
  -4  -2   8   11.36    1.49
   6  -4   8    8.22    1.40
  -6   4  -8    9.34    1.39
  -4  -2  -8    8.33    1.38
   6  -4   8    9.37    0.69
   4   2   8    5.51    1.22
   2  -6   8    8.55    1.11
  -2   6   8    6.87    1.42
  -6   4   8    7.27    1.32
  -6   4   8    6.69    0.99
  -6   4   9    0.66    0.96
   2  -6   9    0.88    0.83
   6  -4  -9    1.08    0.80
   2  -6   9    1.20    1.06
  -6   4   9   -0.49    0.74
  -6   4  -9    1.95    1.05
   6  -4   9    0.65    0.87
  -4  -2  -9    0.63    0.84
  -2   6   9   -0.53    1.21
   2  -6  -9    1.59    0.84
  -4  -2   9    1.01    0.92
   4   2   9    0.88    0.97
   2  -6 -10   13.94    1.68
   3  -6   0   93.23    3.49
  -6   3   0   88.15    3.35
  -3  -3   0   90.30    3.38
  -3  -3   0   88.44    3.22
   6  -3   0   88.42    3.40
  -3  -3   0   88.83    3.39
   3  -6   0   91.60    3.20
  -6   3   0   96.37    3.40
   6  -3   0   86.21    3.29
   6  -3   0   91.45    2.89
   3  -6  -1   30.56    1.62
   3  -6  -1   32.52    1.33
  -6   3  -1   30.06    1.74
  -3  -3  -1   29.77    1.66
  -3  -3   1   32.36    1.53
   6  -3  -1   30.05    1.53
   6  -3   1   27.52    1.42
  -3  -3  -1   28.81    1.44
   6  -3   1   29.82    1.39
   3   3  -1   31.58    1.46
  -3  -3   1   30.40    1.45
  -6   3   1   32.34    1.67
   6  -3   1   29.64    1.59
   3  -6   1   29.72    1.10
   6  -3  -1   31.92    1.14
  -6   3  -1   30.47    1.41
  -3  -3  -1   32.84    1.66
   3  -6   1   31.43    1.48
  -3  -3  -2  152.80    5.45
  -6   3  -2  154.84    5.25
   3   3   2  158.42    5.41
   6  -3  -2  155.37    5.14
   6  -3   2  153.51    4.93
   3  -6   2  156.19    5.22
   3   3  -2  158.69    5.09
  -3   6   2  150.44    5.68
  -6   3  -2  150.51    5.62
   6  -3   2  156.86    5.13
  -3  -3  -2  153.37    5.15
   3  -6  -2  163.14    5.45
  -3   6   2  150.14    5.28
  -3  -3   2  149.91    4.94
  -3  -3  -2  160.62    5.60
  -6   3   2  158.13    5.12
   3  -6  -2  158.60    5.59
   6  -3   2  150.88    5.05
   3  -6   2  144.21    4.62
   6  -3  -2  155.09    4.84
   3  -6   2  147.67    4.81
   3  -6  -2  156.36    4.60
  -6   3   2  156.66    5.56
  -3   6  -2  155.08    4.84
  -6   3  -2  152.11    4.92
  -3  -3   2  157.03    5.33
  -3  -3  -2  147.72    4.91
  -6   3   2  147.85    4.90
  -3   6   3   23.80    1.41
  -3  -3  -3   26.22    1.67
  -6   3   3   22.35    1.23
   3   3   3   23.94    1.52
  -3  -3  -3   24.00    1.57
  -3  -3   3   23.95    1.24
   3   3  -3   21.52    1.17
   6  -3  -3   27.47    1.27
  -3   6   3   25.50    1.74
   6  -3   3   28.47    1.60
  -3  -3  -3   24.44    1.31
   6  -3   3   21.29    1.20
  -3  -3   3   22.17    0.95
   6  -3   3   23.36    1.33
   6  -3   3   23.91    1.04
  -6   3   3   22.46    1.58
   6  -3  -3   22.43    1.13
   3  -6   3   22.55    1.12
   3  -6   3   24.41    1.38
   3  -6  -3   22.99    0.95
  -3  -3   3   23.80    1.43
  -6   3  -3   21.63    1.58
   3  -6  -3   23.85    1.46
  -6   3  -3   24.86    1.36
  -6   3   3   23.12    1.28
  -3   6  -3   24.89    1.14
  -3  -3  -3   20.51    1.02
   3  -6  -3   25.47    1.64
  -6   3   4   50.36    2.33
   6  -3  -4   55.88    2.07
  -3   6   4   47.78    2.77
   3  -6   4   50.36    2.34
  -6   3   4   56.40    2.73
   3   3   4   44.41    2.46
  -3   6  -4   49.03    2.04
   3   3  -4   50.12    2.06
   3  -6   4   50.68    2.33
   6  -3   4   51.43    2.50
  -3  -3  -4   49.94    2.65
   3  -6  -4   48.69    2.41
  -6   3   4   47.48    2.16
   6  -3   4   49.38    1.77
   6  -3  -4   51.79    2.12
   6  -3   4   48.61    2.35
   3  -6   4   49.09    2.07
  -3  -3  -4   51.61    2.64
   3  -6  -4   48.76    1.87
  -3  -3  -4   50.63    1.85
  -3  -3   4   51.25    2.11
  -3  -3   4   49.96    2.38
  -6   3  -4   51.35    2.23
   3  -6  -4   52.79    2.66
  -3   6   4   50.43    2.33
   3   3   5   11.38    1.19
  -3   6   5    9.33    1.28
  -6   3  -5   11.43    1.27
   3  -6   5   10.72    0.95
   6  -3   5   11.05    1.16
  -3   6   5    9.23    0.95
  -3  -3  -5   11.68    1.32
  -6   3  -5   10.53    0.88
  -3  -3  -5   10.71    0.65
  -6   3   5   10.73    1.07
   3  -6  -5   12.58    1.30
   6  -3   5   10.48    1.08
  -6   3  -5    9.65    0.89
   6  -3  -5   11.34    1.03
   3  -6   5    9.35    0.85
  -6   3   5    8.09    1.11
  -6   3   5    9.11    0.88
   3  -6  -5   11.64    0.76
  -3  -3   5   10.60    1.04
  -3   6  -5   12.08    0.87
   6  -3   5   10.26    0.54
   3  -6  -5    7.47    0.94
  -3   6   6   57.17    3.31
   3  -6   6   56.18    2.65
  -3  -3  -6   53.04    1.89
  -6   3  -6   49.95    2.31
  -6   3  -6   52.68    2.22
   3  -6  -6   53.29    2.69
  -6   3  -6   49.94    2.92
   3  -6   6   51.75    2.43
   6  -3  -6   52.31    2.40
  -3  -3  -6   50.83    2.94
   6  -3   6   50.90    2.69
   6  -3  -6   53.30    2.55
  -3  -3  -6   53.65    3.01
   6  -3   6   54.40    2.84
  -6   3   6   56.91    2.89
  -6   3   6   56.76    2.51
  -3  -3   6   54.59    2.68
   3  -6  -6   52.52    2.17
  -3   6  -6   55.17    2.36
   6  -3   6   53.71    1.77
  -3   6   6   51.01    2.49
   3   3   6   49.76    2.84
   6  -3   7    2.74    0.25
  -6   3   7    4.27    0.80
   6  -3   7    2.87    0.26
  -3  -3   7    2.12    0.78
  -3   6   7    1.35    0.97
   3  -6   7    3.76    0.83
   3  -6  -7    2.44    0.59
  -6   3  -7    3.11    0.61
  -6   3  -7    2.02    0.90
   6  -3   7    0.83    0.73
   3  -6   7    3.07    0.70
  -3  -3   7    2.16    0.85
  -3  -3  -7    4.16    0.98
   6  -3  -7    2.74    0.71
  -6   3   7    3.19    0.92
   3   3   7    2.34    0.86
  -3   6   8   14.35    1.84
  -6   3  -8   20.20    1.91
   3  -6   8   17.95    1.54
   3  -6   8   14.96    1.77
  -6   3  -8   16.61    1.18
   3   3   8   14.93    1.77
  -3  -3   8   13.45    1.61
  -3  -3  -8   18.07    1.80
   6  -3  -8   16.52    0.87
   6  -3   8   13.09    1.63
   6  -3  -8   16.25    1.41
  -6   3   8   16.98    1.40
  -3  -3   8   19.07    1.61
  -6   3   8   12.70    1.60
   6  -3  -9    0.78    0.80
   3  -6   9    1.13    0.84
   3  -6   9    1.67    1.13
  -3  -3   9    1.28    0.97
  -6   3  -9    1.44    1.04
   6  -3   9    0.64    0.95
  -3  -3  -9    1.43    0.94
  -3  -3   9    0.31    0.79
  -6   3   9    0.52    0.75
   3  -6  -9    0.98    0.82
  -3   6   9    0.54    1.12
  -6   3   9   -0.21    0.94
   3   3   9    0.91    1.01
  -6   3 -10    9.42    1.60
   3  -6 -10   10.07    1.45
  -6   3  10   10.22    1.73
  -6   2   0   28.21    1.47
  -4   6   0   30.42    1.54
   4  -6   0   30.87    1.39
  -4   6   0   27.35    1.31
   4  -6   0   30.40    1.64
  -6   2   0   28.87    1.60
  -2  -4   0   29.75    1.37
  -2  -4   0   28.06    1.55
   6  -2   0   29.02    1.51
   4  -6   0   30.56    1.38
  -2  -4   1   80.85    3.26
  -6   2  -1   84.85    3.46
  -2  -4  -1   83.65    3.39
   4  -6  -1   81.12    3.35
   6  -2   1   82.13    3.17
   4  -6   1   81.13    2.88
   4  -6   1   84.68    3.13
   6  -2  -1   90.54    3.18
  -2  -4  -1   86.21    3.10
   6  -2   1   83.47    3.31
   4  -6  -1   93.14    3.42
  -2  -4   1   92.39    3.28
  -6   2   1   86.12    3.39
  -4   6   1   88.14    2.97
   6  -2   1   84.25    2.74
  -4   6  -1   84.00    2.67
  -4   6   1   84.84    3.30
  -6   2  -1   87.70    3.06
  -6   2   2  219.14    6.91
  -6   2   2  215.76    7.05
   4  -6   2  218.10    6.93
  -6   2   2  205.93    6.37
  -4   6   2  208.23    6.55
   2   4   2  210.55    7.22
  -4   6   2  216.51    7.40
  -6   2  -2  214.88    7.37
   6  -2  -2  214.64    6.75
   6  -2   2  208.36    6.87
   2   4  -2  208.41    6.68
   4  -6  -2  212.49    7.22
   6  -2   2  203.67    6.64
  -6   2   2  215.07    7.30
  -4   6  -2  210.77    6.47
   4  -6  -2  212.83    7.14
  -6   2  -2  200.46    6.50
  -2  -4   2  214.82    6.99
   4  -6   2  228.88    7.09
  -2  -4  -2  208.69    6.73
  -2  -4  -2  219.54    7.31
  -6   2  -3   53.70    2.37
   6  -2  -3   54.33    2.11
   2   4   3   52.73    2.66
   4  -6   3   54.51    2.40
  -4   6   3   57.82    1.97
  -4   6   3   57.75    2.84
   4  -6   3   62.59    2.53
   4  -6   3   57.01    2.57
  -6   2  -3   58.84    2.81
  -4   6   3   53.80    2.49
   6  -2   3   51.39    2.54
  -4   6  -3   53.45    2.08
   2   4  -3   59.11    2.17
  -2  -4   3   59.44    2.51
   6  -2   3   55.94    2.33
  -6   2   3   50.70    2.15
   4  -6  -3   57.02    2.57
  -2  -4  -3   59.51    2.80
  -6   2   3   58.03    2.79
   4  -6  -3   55.30    1.92
  -6   2   3   56.56    2.50
  -2  -4  -3   57.52    2.19
  -6   2   3   55.90    2.39
   4  -6  -3   59.55    2.71
   4  -6  -4   32.41    1.80
   4  -6  -4   27.98    1.78
  -4   6   4   24.82    1.87
   6  -2  -4   27.27    1.18
   4  -6   4   28.52    1.63
   6  -2   4   27.92    1.73
   2   4   4   26.10    1.79
  -2  -4   4   25.49    1.58
   6  -2   4   24.72    1.55
  -2  -4  -4   28.54    1.88
   2   4  -4   25.50    1.23
  -2  -4   4   24.98    1.26
  -4   6  -4   26.93    1.31
  -6   2   4   29.53    1.89
  -6   2   4   27.97    1.54
  -2  -4  -4   26.59    1.30
   4  -6  -4   27.18    1.18
  -4   6   4   26.47    1.61
  -6   2  -4   26.98    1.46
  -6   2   4   26.99    1.52
   4  -6   4   25.84    1.50
  -2  -4   4   26.09    1.08
  -6   2  -5   24.39    1.42
   2   4   5   22.25    1.74
  -4   6   5   28.04    2.07
  -6   2   5   23.17    1.78
   4  -6   5   22.84    1.52
  -2  -4  -5   23.17    0.95
  -6   2  -5   24.59    1.37
  -6   2   5   23.64    1.57
   6  -2  -5   26.18    1.05
  -4   6   5   25.52    1.59
   6  -2   5   25.59    1.71
  -2  -4  -5   23.92    1.25
  -6   2   5   25.71    1.54
   4  -6  -5   26.35    1.71
   2   4  -5   25.43    1.22
  -2  -4  -5   27.19    1.92
   6  -2   5   25.75    1.66
   4  -6  -5   27.68    1.84
  -2  -4   5   25.59    1.62
  -4   6  -5   23.34    1.31
   4  -6  -5   24.46    1.20
   2   4  -5   24.73    1.47
   2   4   6   66.79    3.48
  -4   6   6   68.43    3.73
   4  -6  -6   68.99    2.65
  -6   2  -6   61.31    2.73
  -4   6  -6   65.46    2.77
  -6   2  -6   71.30    2.81
  -6   2  -6   72.77    3.63
   4  -6  -6   68.86    3.28
   4  -6   6   67.65    3.00
  -2  -4  -6   71.47    3.57
   4  -6   6   72.39    3.12
   6  -2  -6   71.65    3.03
  -4   6   6   65.07    3.07
  -2  -4  -6   68.11    2.85
   6  -2   6   69.36    3.31
  -2  -4   6   70.13    3.17
  -6   2   6   74.72    3.10
  -6   2   6   68.44    3.25
   6  -2  -6   69.14    2.22
  -2  -4   7    6.63    0.99
   2   4   7    5.70    1.07
  -6   2   7    7.54    0.97
   4  -6  -7    6.05    0.75
  -4   6   7    7.60    1.34
  -6   2  -7    6.77    0.81
  -2  -4   7    6.95    1.20
   6  -2  -7    7.85    0.97
   4  -6   7    8.68    1.07
  -6   2  -7    5.89    0.73
  -6   2  -7    8.43    1.33
   4  -6   7    6.22    0.91
   6  -2   7    8.50    1.20
  -2  -4  -7    8.80    1.32
  -6   2   7    8.50    1.21
  -6   2   8   11.89    1.24
  -2  -4   8   13.11    1.37
   2   4   8    7.88    1.39
  -4   6   8    7.14    1.42
   6  -2  -8   11.51    1.18
  -6   2  -8    9.64    1.42
  -2  -4  -8    7.55    1.30
   6  -2   8    9.43    1.39
  -6   2   8    9.68    1.33
  -2  -4   8   13.46    1.63
   4  -6   8   12.21    1.27
   2   4   9    1.89    1.08
  -4   6   9    0.53    1.17
   4  -6   9    3.14    0.91
  -2  -4   9    0.95    0.84
   6  -2  -9    1.84    0.77
  -2  -4   9    2.42    1.03
  -6   2  -9    1.73    0.97
  -6   2   9    2.09    0.79
  -2  -4  -9    1.22    1.01
   6  -2   9    0.64    0.90
   4  -6  -9    1.64    0.81
  -6   2   9    1.00    0.95
  -2  -4  10   11.08    1.49
   4  -6 -10   12.66    1.52
  -6   2  10    8.69    1.63
   5  -6   0   15.98    1.14
  -1  -5   0   16.74    1.21
   6  -1   0   16.18    1.08
   5  -6   0   18.37    1.17
  -6   1   0   18.03    1.20
  -5   6   0   18.75    1.02
  -1  -5   0   17.44    0.95
   5  -6   0   15.17    0.96
   6  -1   0   15.97    1.07
  -5   6   0   16.51    1.12
  -6   1   0   17.26    1.11
   5  -6   1   72.04    2.77
  -1  -5  -1   79.08    3.18
   5  -6  -1   68.01    2.78
  -5   6   1   74.32    2.65
   6  -1   1   73.78    2.32
  -1  -5   1   66.27    2.95
  -6   1   1   71.52    2.85
  -1  -5   1   71.15    2.59
  -6   1  -1   75.64    3.11
   6  -1   1   68.25    2.82
   5  -6   1   68.87    2.86
   6  -1  -1   75.56    2.78
   6  -1   1   68.13    2.93
  -6   1   1   67.67    2.97
  -5   6  -1   70.76    2.74
  -6   1  -1   69.59    2.65
  -5   6  -1   72.76    2.30
   5  -6  -1   72.08    2.94
  -5   6   1   67.10    2.91
  -1  -5   1   72.83    2.79
  -1  -5  -1   75.21    2.85
   5  -6  -2  229.07    7.77
   5  -6   2  238.45    7.59
  -5   6   2  236.77    7.29
   1   5   2  237.01    8.04
   5  -6   2  234.10    7.64
   5  -6   2  234.04    7.91
   6  -1   2  222.28    7.56
   6  -1   2  237.63    7.86
  -6   1  -2  225.36    7.94
  -1  -5  -2  235.46    8.02
  -6   1   2  244.33    7.72
  -6   1   2  233.48    7.64
  -5   6  -2  230.27    7.11
  -5   6   2  233.46    7.79
  -6   1   2  236.70    7.98
   5  -6  -2  237.80    7.82
   5  -6  -2  226.09    7.61
  -6   1  -2  230.70    7.10
  -1  -5   2  233.03    7.59
   6  -1   2  228.11    7.27
  -1  -5  -2  227.00    7.49
   6  -1  -2  233.22    7.36
  -1  -5  -3   46.92    2.48
   5  -6   3   42.61    2.06
  -6   1   3   48.19    2.19
  -5   6   3   46.29    1.76
   1   5   3   51.01    2.55
  -5   6   3   46.58    2.41
  -6   1   3   49.08    2.47
   5  -6   3   44.24    2.25
  -6   1  -3   41.98    2.38
   6  -1  -3   44.53    1.74
  -1  -5  -3   46.39    2.00
  -5   6  -3   47.43    1.79
   5  -6  -3   45.90    2.15
   5  -6   3   47.74    2.12
   5  -6  -3   44.31    2.26
   6  -1   3   44.50    1.98
  -1  -5   3   41.56    2.06
  -6   1   3   42.49    1.81
  -6   1   3   45.81    2.14
   5  -6  -3   47.56    2.29
   5  -6   3   43.05    1.56
   5  -6  -4   12.37    1.16
  -6   1  -4   11.94    0.95
   6  -1   4   13.02    1.04
  -5   6   4   13.09    0.71
  -5   6   4   11.18    1.22
   5  -6  -4   13.01    1.16
   5  -6  -4   12.14    0.76
  -1  -5   4   16.37    1.19
  -6   1  -4   12.71    0.99
   5  -6   4   14.38    1.04
   5  -6   4   12.16    1.11
  -6   1  -4   14.76    1.35
   6  -1  -4   13.44    0.65
   6  -1   4   12.37    1.18
   1   5   4   11.60    1.24
  -6   1   4   14.85    1.36
  -6   1   4   13.44    1.11
  -5   6  -4   13.49    0.86
  -6   1   4   11.61    0.94
  -1  -5  -4   13.12    1.33
  -1  -5  -4   12.39    0.92
  -6   1   4   13.50    1.10
  -5   6   4   12.31    1.14
  -1  -5   4   11.94    0.72
   1   5   5   23.11    1.81
   5  -6   5   21.73    1.36
   5  -6   5   22.15    1.45
  -6   1  -5   20.05    1.24
  -5   6   5   21.32    0.92
  -5   6   5   19.07    1.73
  -1  -5   5   21.00    0.99
  -6   1  -5   21.51    1.31
   5  -6   5   22.05    1.49
   1   5  -5   21.84    0.98
   5  -6  -5   17.11    1.49
  -6   1   5   20.29    1.42
   6  -1   5   20.86    1.60
  -1  -5  -5   21.75    1.28
   5  -6  -5   19.38    1.54
  -1  -5  -5   19.76    1.72
  -5   6  -5   22.74    1.25
  -1  -5   5   18.08    1.39
  -6   1   5   26.19    1.86
  -6   1   5   21.03    1.42
   6  -1   5   19.00    1.43
  -5   6   5   21.34    1.55
   5  -6  -5   22.25    1.14
   1   5  -5   18.52    1.29
  -5   6   6   75.31    3.83
   5  -6   6   69.81    3.12
  -5   6   6   70.34    2.26
  -6   1  -6   75.46    2.87
  -1  -5   6   64.47    2.29
   1   5   6   75.87    3.75
  -6   1  -6   74.94    2.98
  -6   1  -6   72.78    3.69
   5  -6   6   72.84    3.20
  -1  -5  -6   76.67    3.72
   1   5  -6   70.38    2.45
  -1  -5  -6   70.64    2.85
   5  -6  -6   70.48    3.37
  -1  -5   6   75.05    3.26
  -5   6  -6   67.78    2.83
  -6   1   6   74.18    3.21
  -1  -5  -6   69.53    2.89
  -6   1   6   64.85    3.19
   6  -1   6   67.89    3.30
   5  -6  -6   70.63    2.73
   5  -6   6   74.22    2.99
  -6   1  -7    6.14    0.75
  -6   1   7    5.69    0.96
   1   5   7    6.83    0.68
  -1  -5   7    6.59    1.03
   1   5   7    5.23    1.12
  -5   6   7    6.30    1.28
   5  -6   7    7.37    1.04
   5  -6  -7    7.84    0.81
  -6   1  -7    6.77    1.24
  -1  -5  -7    5.93    1.13
   5  -6   7    7.54    0.89
  -6   1   7    6.45    1.09
   6  -1   7    8.44    1.21
   1   5  -7    6.74    0.52
  -1  -5   8    5.07    0.97
   1   5   8    9.16    1.46
  -5   6   8    7.91    1.52
   5  -6  -8    6.35    1.01
   5  -6   8    6.20    1.00
   1   5  -8    6.19    0.53
   5  -6   8    6.12    1.27
  -6   1  -8    9.24    1.50
  -1  -5  -8    7.50    1.32
  -6   1   8    7.91    1.12
   6  -1   8    5.97    1.15
  -6   1   8    6.87    1.21
  -1  -5   8   10.33    1.51
   5  -6   8    7.19    0.96
  -6   1   9    1.62    0.92
   5  -6   9    1.93    0.72
   5  -6   9    0.67    0.75
  -1  -5   9    4.42    1.06
  -1  -5   9    0.92    1.01
   5  -6   9    1.87    1.11
  -6   1  -9   -0.22    1.05
  -1  -5   9    0.95    0.77
  -1  -5  -9    0.82    0.94
   6  -1   9    3.35    1.05
  -6   1   9    0.19    0.88
   5  -6  -9    1.03    0.83
  -5   6   9   -0.26    1.12
  -6   1  10   10.23    1.64
   0  -6   0  258.06    8.39
   0  -6   0  249.28    8.59
   6  -6   0  264.19    8.30
   6   0   0  243.62    8.28
  -6   0   0  251.99    8.38
   0  -6   0  254.17    7.99
   6   0   0  263.01    8.35
  -6   0   0  255.24    8.33
   6  -6   0  261.86    8.41
   0  -6   0  257.58    8.08
  -6   6   0  246.07    8.35
  -6   6   0  257.47    8.16
   6  -6   1    2.80    0.53
  -6   6   1    3.72    0.60
   0  -6  -1    2.80    0.51
   0  -6   1    2.80    0.45
   6  -6  -1    3.17    0.53
  -6   6   1    2.51    0.45
   0  -6  -1    3.24    0.69
   6  -6   1    2.64    0.60
   0  -6   1    3.72    0.42
  -6   0   1    3.09    0.52
   6  -6  -1    3.65    0.56
   6   0   1    2.58    0.51
  -6   0  -1    2.39    0.55
  -6   6  -1    2.67    0.52
   6   0  -1    3.28    0.51
   6   0   1    3.52    0.59
   6  -6  -1    3.70    0.61
  -6   6  -1    2.93    0.30
   0  -6   1    3.00    0.67
  -6   6  -1    2.81    0.51
  -6   6   1    3.32    0.25
  -6   0  -1    2.91    0.45
  -6   6   2    4.26    0.68
  -6   0   2    4.36    0.31
   0  -6   2    4.36    0.58
   6   0   2    4.20    0.46
  -6   6   2    4.36    0.52
  -6   0  -2    4.94    0.42
  -6   0   2    5.79    0.68
   0  -6  -2    4.19    0.62
  -6   0   2    4.03    0.51
   6  -6   2    6.01    0.80
   6  -6  -2    3.53    0.57
   0  -6  -2    5.13    0.80
  -6   0  -2    5.61    0.83
   6   0   2    5.45    0.75
   6   0  -2    4.97    0.52
  -6   6  -2    4.84    0.43
  -6   0   2    4.69    0.35
  -6   6   2    3.98    0.32
   0   6   2    3.74    0.74
   6  -6  -2    4.33    0.64
   6  -6   2    6.36    0.66
  -6   6  -3    1.50    0.34
  -6   6   3    1.42    0.28
   0  -6  -3    1.31    0.45
  -6   0   3    1.24    0.51
   6  -6  -3    1.67    0.55
  -6   6  -3    1.11    0.30
  -6   6   3    1.47    0.36
  -6   6  -3    1.17    0.47
  -6   0  -3    2.42    0.50
   6  -6   3    1.25    0.28
  -6   0   3    1.51    0.35
   6  -6  -3    1.21    0.48
   6  -6   3    1.22    0.51
  -6   0  -3    2.09    0.61
  -6   6   3    1.03    0.52
   6  -6   3    1.43    0.44
   6  -6  -3    1.79    0.51
   0  -6   3    2.23    0.51
   0  -6  -3    1.90    0.65
  -6   0   3    1.33    0.48
   6   0   3    1.99    0.46
  -6   6   3    1.11    0.50
  -6   6  -4  145.87    4.59
  -6   6   4  144.16    4.73
  -6   6   4  134.15    5.48
   6  -6  -4  139.68    5.27
  -6   6  -4  141.63    5.07
   6  -6  -4  138.15    5.43
  -6   0  -4  149.83    5.09
   6  -6   4  146.87    5.39
  -6   0  -4  144.70    5.69
   0  -6  -4  136.04    4.31
  -6   6   4  148.84    4.67
  -6   0   4  141.88    4.99
  -6   6  -4  150.74    4.86
   0  -6   4  149.74    5.20
   6  -6  -4  152.52    5.36
   0  -6  -4  149.33    5.16
   0  -6  -4  157.53    5.86
  -6   0   4  146.31    5.30
   6  -6   4  143.82    5.01
   6   0   4  137.41    5.12
  -6   0   4  151.93    5.25
  -6   6  -5    0.35    0.43
   0  -6  -5    1.49    0.51
  -6   6  -5    1.26    0.28
   6  -6   5    1.04    0.48
   6  -6  -5    0.70    0.57
  -6   0   5    0.78    0.57
   6  -6   5    1.41    0.55
  -6   6   5    1.00    0.35
   0   6  -5    0.50    0.48
   6  -6  -5    0.97    0.42
   6  -6  -5    0.56    0.52
   0  -6  -5    0.64    0.44
  -6   0  -5    1.38    0.57
   0  -6   5    0.86    0.41
  -6   0   5    0.79    0.46
   6  -6  -5    0.23    0.53
   6  -6   5    0.72    0.56
   0  -6   5    1.14    0.58
  -6   0  -5    0.73    0.45
   6   0   5    0.80    0.50
  -6   6   5    0.32    0.62
  -6   6   5    0.88    0.36
   0  -6  -6    5.84    0.74
   6  -6   6    5.89    0.76
  -6   0   6    8.00    1.03
   0   6   6    6.93    0.75
  -6   6   6    6.51    0.55
   6  -6  -6    7.26    0.72
  -6   6   6    5.68    1.09
  -6   0  -6    6.85    0.77
   6  -6  -6    5.97    0.92
  -6   6   6    6.33    0.70
   0  -6   6    7.00    0.62
   6  -6  -6    7.12    1.05
  -6   6  -6    7.25    0.48
   0  -6  -6    6.81    0.86
  -6   0   6    5.86    0.91
  -6   6  -6    9.32    0.90
   6   0   6    8.19    1.10
   0  -6   6    7.14    0.94
   0  -6   7    0.39    0.62
  -6   6  -7    0.22    0.23
  -6   0   7    0.40    0.62
   6  -6   7    0.86    0.52
  -6   6   7    1.24    0.86
  -6   6   7    0.03    0.28
   6  -6  -7    0.23    0.46
  -6   0  -7    0.49    0.45
   6  -6   7   -0.19    0.80
   0   6   7   -0.08    0.47
  -6   0  -7    0.20    0.83
  -6   0   7   -0.29    0.60
   0  -6  -7    0.38    0.81
   6   0   7   -0.16    0.67
   6  -6  -8   29.45    1.96
  -6   6   8   28.28    2.43
   0  -6   8   33.35    2.21
  -6   0  -8   26.75    2.36
   0  -6  -8   31.77    2.42
   6  -6   8   24.57    2.26
   6   0   8   26.90    2.19
   0  -6   8   23.56    1.87
  -6   0   8   32.32    2.08
  -6   0   8   24.23    2.02
   6  -6   8   24.74    1.58
  -6   6   9   -0.49    1.12
   0  -6   9    0.81    0.90
  -6   0  -9   -0.23    1.00
   0  -6  -9   -0.21    0.99
  -6   0   9   -0.19    0.93
   6   0   9   -0.83    1.00
  -7   6   0  328.19   10.47
  -7   6   0  322.17   10.26
   7  -6   0  338.86   10.23
  -6  -1   0  331.16   10.44
   7  -6   0  319.68   10.61
  -6  -1   0  312.42    9.81
   1  -7   0  330.94   10.77
   7  -6   0  318.79   10.42
   1  -7   0  318.87    9.99
   1  -7   0  334.68   10.57
  -7   6  -1    2.26    0.53
   1  -7   1    1.00    0.49
   7  -6  -1    0.92    0.40
   1  -7   1    1.38    0.41
  -7   6   1    1.43    0.46
  -7   6  -1    1.96    0.51
   7  -6   1    1.83    0.48
  -6  -1  -1    1.12    0.34
   6   1  -1    0.42    0.40
   1  -7   1    1.20    0.31
  -6  -1   1    1.19    0.39
   1  -7  -1    1.15    0.48
   6   1   1    0.88    0.42
  -6  -1  -1    1.04    0.48
   1  -7   1    0.23    0.57
   1  -7  -1    1.60    0.61
  -7   6   1    1.02    0.50
  -6  -1   1    1.31    0.26
  -7   6  -1    1.28    0.43
   7  -6  -1    1.18    0.50
  -7   6   1    1.03    0.27
  -7   6   2    7.57    0.89
   1  -7  -2    4.70    0.72
   1  -7  -2    7.37    0.96
   6   1   2    5.91    0.58
  -6  -1   2    6.24    0.49
   7  -6  -2    4.76    0.75
   1  -7   2    7.05    0.68
   7  -6   2    5.46    0.57
   1  -7   2    6.15    0.48
  -6  -1   2    6.62    0.62
  -6  -1  -2    6.45    0.68
   6   1  -2    4.86    0.67
  -7   6   2    7.15    0.69
   7  -6   2    5.48    0.86
  -7   6  -2    6.76    0.66
  -6  -1  -2    5.64    0.81
   7  -6  -2    6.49    0.76
   1  -7  -2    5.83    0.52
  -6  -1  -2    6.22    0.53
  -7   6   2    5.86    0.47
   7  -6   2    7.60    0.73
   7  -6  -2    5.96    0.68
   7  -6   3    1.26    0.45
  -7   6   3    0.37    0.51
  -7   6   3    1.48    0.34
   1  -7   3    0.98    0.43
   6   1   3    0.92    0.39
   1  -7  -3    1.10    0.27
  -7   6  -3    1.54    0.53
  -6  -1  -3    0.85    0.43
   7  -6   3    1.65    0.36
   7  -6   3    1.52    0.60
  -6  -1  -3    1.37    0.61
   7  -6  -3    0.80    0.48
   7  -6  -3    2.15    0.55
  -7   6  -3    1.52    0.39
  -6  -1   3    2.64    0.57
  -6  -1   3    1.32    0.36
   1  -7  -3    0.86    0.61
  -7   6  -3    1.48    0.41
  -6  -1   4  182.09    6.15
   6   1   4  171.19    6.09
  -7   6  -4  168.47    6.01
  -7   6   4  173.78    6.36
  -6  -1  -4  180.00    6.06
   7  -6  -4  173.19    6.22
   7  -6   4  168.22    6.34
  -6  -1  -4  181.04    6.71
  -7   6  -4  172.65    5.64
  -6  -1  -4  165.20    6.22
  -6  -1   4  169.88    5.91
   1  -7  -4  169.68    5.60
  -7   6  -4  174.30    5.76
  -7   6   4  175.79    5.63
   7  -6  -4  182.14    6.13
   1  -7   4  173.07    6.01
   7  -6  -4  170.48    6.44
   1  -7  -4  170.24    6.12
  -7   6   4  168.70    6.45
   1  -7  -4  182.05    6.76
   7  -6   4  175.46    5.85
   7  -6   5    0.07    0.38
  -1   7   5   -0.09    0.46
   1  -7   5    0.20    0.50
  -6  -1  -5    0.22    0.44
  -1   7  -5    0.41    0.47
  -7   6  -5    0.30    0.33
  -7   6   5    0.44    0.57
  -6  -1   5    0.91    0.51
   7  -6  -5    0.76    0.56
   1  -7   5    0.80    0.49
  -6  -1  -5    0.17    0.67
   1  -7  -5    0.22    0.49
  -7   6  -5    0.52    0.46
  -7   6   5    0.87    0.42
  -6  -1   5    0.91    0.56
   7  -6  -5    0.12    0.54
   1  -7  -5    0.41    0.38
   6   1   5    0.82    0.60
   1  -7  -6    0.54    0.46
   1  -7   6    0.57    0.57
   7  -6   6    1.00    0.45
  -1   7   6    0.44    0.49
  -6  -1  -6    0.84    0.49
   7  -6   6    1.12    0.77
  -7   6   6    1.53    0.80
   7  -6  -6    0.36    0.58
  -6  -1   6    0.48    0.57
   6   1   6    0.14    0.59
   1  -7   6    0.51    0.41
   7  -6  -6    0.63    0.62
   1  -7  -6    0.93    0.56
  -7   6   6   -0.07    0.45
   1  -7   7    0.51    0.68
   7  -6   7   -0.07    0.44
   7  -6   7    0.73    0.84
  -7   6   7   -0.58    0.79
   7  -6  -7   -0.08    0.52
   1  -7   7    0.30    0.73
  -6  -1   7    0.43    0.73
  -1   7   7   -0.23    0.93
   1  -7  -7    0.51    0.61
  -6  -1   7    0.14    0.61
  -6  -1  -7   -0.82    0.86
  -1   7   7   -0.09    0.52
   6   1   7    0.32    0.71
  -7   6   7   -0.09    0.52
   7  -6  -8   31.95    2.15
  -1   7   8   32.71    2.79
   1  -7   8   35.77    2.38
  -6  -1  -8   32.44    2.56
   6   1   8   34.36    2.48
   1  -7  -8   36.02    2.67
   7  -6   8   30.78    2.48
  -7   6   8   35.15    1.93
   1  -7   8   33.16    2.20
  -6  -1   8   35.03    2.35
  -6  -1   8   32.71    2.24
   7  -6   8   32.71    1.67
  -7   6   8   29.75    2.53
   6   1   9   -0.41    0.94
  -7   6   9   -0.46    1.01
  -6  -1   9    0.18    0.89
   1  -7  -9   -0.42    1.00
   2  -7   0   70.41    2.68
  -7   5   0   69.64    2.82
   7  -5   0   69.90    2.58
   2  -7   0   70.80    3.14
   7  -5   0   70.68    2.99
   5   2   0   69.17    2.83
  -5  -2   0   64.48    2.81
   7  -5   0   70.69    2.87
   2  -7   0   67.22    2.38
  -7   5   0   71.74    2.83
  -7   5   0   68.13    2.87
   2  -7   0   69.34    2.97
  -5  -2   0   70.26    2.66
  -5  -2   1   45.31    1.89
   2  -7  -1   43.68    2.37
   2  -7   1   45.98    2.03
  -7   5  -1   44.40    2.00
  -7   5  -1   42.00    2.01
   7  -5  -1   50.32    1.92
   7  -5  -1   45.12    2.18
   5   2  -1   45.14    2.08
  -5  -2   1   45.81    2.00
  -5  -2  -1   41.06    2.17
  -7   5   1   46.11    2.24
  -7   5   1   45.53    1.82
   2  -7  -1   45.00    1.85
   2  -7   1   44.91    1.75
   7  -5  -1   45.96    2.18
  -5  -2  -1   44.28    2.00
   7  -5   1   44.15    2.03
   2  -7  -1   48.36    2.25
   2  -7   1   47.11    2.27
   2  -7  -1   43.85    1.65
   2  -7   1   45.90    2.35
  -5  -2  -2   64.66    2.63
  -7   5  -2   65.73    2.68
   2  -7  -2   63.67    2.29
   5   2   2   67.61    2.61
   2  -7   2   62.15    2.67
   7  -5  -2   67.36    2.78
   7  -5   2   56.77    2.44
   5   2  -2   61.17    2.61
   2  -7   2   62.55    2.11
   2  -7  -2   64.69    3.03
  -5  -2  -2   62.77    2.94
  -7   5  -2   65.52    2.53
  -5  -2   2   60.34    2.38
  -5  -2  -2   63.54    2.71
   2  -7   2   62.65    2.38
   7  -5  -2   65.19    2.86
   7  -5   2   62.33    2.53
   7  -5  -2   64.41    2.47
  -7   5   2   65.96    2.39
   2  -7  -2   61.15    2.76
  -7   5  -2   60.05    2.50
   2  -7   2   56.83    2.74
  -5  -2   2   70.85    2.90
  -7   5   2   63.92    2.91
  -7   5  -3   34.21    1.61
   2  -7  -3   33.22    1.27
  -7   5  -3   36.53    1.81
   2  -7   3   30.63    1.76
  -7   5   3   35.49    1.78
   5   2  -3   32.69    1.68
  -5  -2   3   31.65    1.31
   7  -5   3   35.13    1.94
  -2   7   3   35.42    2.26
   7  -5   3   34.81    1.57
  -7   5   3   35.06    1.53
  -5  -2  -3   34.58    2.07
   5   2   3   32.63    1.75
   2  -7  -3   33.78    1.33
  -5  -2  -3   32.31    1.88
  -5  -2   3   33.19    1.72
   2  -7   3   30.59    1.55
   7  -5  -3   34.43    1.64
   7  -5  -3   35.66    1.89
  -2   7  -3   31.95    1.51
   7  -5   3   31.62    1.53
   2  -7  -3   35.56    1.91
  -7   5   3   37.16    2.09
  -5  -2  -3   31.04    1.19
  -5  -2   3   34.56    1.90
  -2   7   3   34.77    1.76
   2  -7  -3   32.07    2.06
   5   2   4   42.97    2.26
  -7   5  -4   44.97    2.16
  -2   7   4   49.31    2.86
  -5  -2   4   44.52    2.16
   2  -7   4   42.53    2.17
  -5  -2  -4   47.47    2.17
   7  -5   4   40.99    2.33
  -5  -2  -4   46.29    2.61
   2  -7   4   48.55    2.36
  -2   7   4   48.23    2.23
  -7   5   4   46.14    2.31
   7  -5  -4   42.58    2.26
  -5  -2  -4   44.62    2.44
  -7   5  -4   50.65    2.08
   7  -5  -4   53.29    2.21
   2  -7  -4   43.14    1.79
   2  -7   4   45.77    2.08
  -7   5   4   48.04    2.00
   2  -7  -4   44.65    2.30
  -7   5   4   48.66    2.61
   7  -5   4   47.19    1.93
  -5  -2   4   46.14    2.37
  -2   7  -4   44.77    1.98
  -7   5   5   18.08    1.43
  -5  -2  -5   14.76    1.00
   7  -5   5   17.37    0.98
   5   2   5   16.11    1.38
   2  -7   5   14.67    1.14
  -5  -2  -5   15.18    1.50
  -2   7   5   15.12    1.65
   7  -5  -5   17.20    1.35
   7  -5   5   14.25    1.34
  -5  -2   5   17.15    1.30
  -5  -2  -5   14.30    1.38
   7  -5  -5   17.91    1.26
  -7   5  -5   15.16    1.11
   2  -7   5   15.82    1.17
   2  -7  -5   15.52    0.95
  -7   5   5   16.22    1.10
  -5  -2   5   18.53    1.27
   2  -7  -5   19.40    1.40
  -5  -2   5   18.81    1.46
  -2   7  -5   14.29    1.05
  -2   7   5   15.51    1.22
  -7   5   6   24.26    1.89
  -2   7   6   27.64    2.30
  -5  -2  -6   25.10    1.31
   2  -7   6   29.10    1.90
   2  -7   6   27.37    1.53
  -2   7   6   25.02    1.60
  -5  -2  -6   22.22    1.91
   7  -5  -6   28.10    1.72
   7  -5   6   26.93    1.94
  -5  -2   6   27.00    1.83
   2  -7   6   25.39    1.62
  -7   5   6   26.65    1.52
   2  -7  -6   26.07    1.36
   2  -7  -6   24.55    1.71
   7  -5   6   28.46    1.30
  -2   7  -6   23.14    1.48
   5   2   6   26.88    1.92
  -7   5   7    3.90    1.03
   7  -5   7    5.19    0.57
   2  -7  -7    5.31    0.72
   2  -7   7    4.86    0.93
   5   2   7    4.38    1.01
   2  -7   7    5.84    1.06
  -2   7   7    4.04    1.20
   7  -5  -7    4.77    0.94
   7  -5   7    5.76    1.08
  -5  -2   7    4.45    0.95
  -5  -2  -7    4.81    1.13
  -7   5   7    5.04    0.84
   2  -7  -7    4.66    0.91
  -7   5   8    9.90    1.10
   7  -5  -8   10.95    1.27
  -2   7   8   12.59    1.80
   7  -5   8   13.73    1.68
  -5  -2   8   10.86    1.44
   2  -7   8   12.13    1.42
  -5  -2  -8   12.23    1.66
  -7   5   8   14.27    1.69
   2  -7   8   12.13    1.33
   5   2   8    8.23    1.31
  -7   5   9    1.51    0.97
   7  -5   9    0.88    1.12
  -5  -2   9    3.42    1.13
   2  -7  -9    2.15    1.15
  -7   5   9    0.59    0.78
   5   2   9    0.64    0.94
  -7   4   0    3.13    0.56
   3  -7   0    2.63    0.60
  -4  -3   0    2.86    0.54
   3  -7   0    3.40    0.48
   7  -4   0    3.62    0.36
  -7   4   0    4.07    0.60
   7  -4   0    3.57    0.59
  -4  -3   0    2.94    0.57
   3  -7   0    3.38    0.22
   7  -4   0    2.33    0.48
  -7   4   1  120.76    4.36
   3  -7  -1  120.19    4.02
   3  -7   1  117.49    4.21
  -4  -3   1  118.26    4.21
  -4  -3  -1  116.27    4.19
   7  -4  -1  124.35    4.37
   7  -4   1  117.86    4.44
   4   3  -1  119.53    4.23
  -4  -3   1  113.27    4.18
  -4  -3  -1  121.31    4.52
   3  -7   1  116.89    3.72
  -7   4  -1  127.01    4.30
   7  -4  -1  112.28    4.35
   7  -4   1  116.51    4.15
  -7   4   1  121.94    4.51
   7  -4  -1  120.85    3.83
   3  -7  -1  121.95    4.49
  -7   4  -1  113.77    4.18
  -4  -3  -1  114.27    4.35
  -7   4  -2  210.16    7.01
   3  -7  -2  206.60    6.54
   3  -7  -2  216.58    7.20
   3  -7   2  210.12    6.98
   4   3   2  212.46    7.03
   3  -7   2  207.85    6.34
   7  -4  -2  222.19    6.99
   7  -4   2  204.62    6.82
  -4  -3  -2  210.88    6.91
   4   3  -2  207.07    6.87
  -4  -3   2  202.03    6.65
  -4  -3  -2  218.57    7.40
  -7   4  -2  200.91    6.69
   3  -7   2  204.10    6.49
   7  -4  -2  210.53    6.54
   3  -7  -2  206.19    6.23
   7  -4   2  208.48    6.71
  -4  -3  -2  212.42    7.18
  -7   4   2  213.78    7.33
  -7   4   2  222.77    6.81
  -4  -3   2  214.37    7.15
  -3   7   2  208.39    7.04
   4   3   3   75.77    3.20
  -4  -3   3   78.90    2.98
  -7   4  -3   71.15    3.02
   3  -7   3   74.78    3.12
  -7   4   3   73.57    2.89
  -4  -3  -3   72.96    2.60
  -3   7   3   80.30    3.70
  -7   4  -3   80.45    3.61
   7  -4  -3   80.46    2.99
   4   3  -3   75.20    2.93
  -4  -3  -3   76.80    3.01
   7  -4   3   76.19    3.30
  -4  -3   3   71.69    2.55
   7  -4   3   74.94    2.89
  -4  -3  -3   79.66    3.52
   3  -7   3   76.49    3.21
   7  -4   3   77.72    3.03
   7  -4  -3   78.23    2.79
   3  -7   3   72.95    2.74
  -4  -3   3   78.04    3.25
   3  -7  -3   74.27    2.49
  -4  -3  -3   76.94    3.34
   7  -4   3   77.31    2.74
  -7   4   3   72.90    3.39
   3  -7  -3   79.14    3.28
  -7   4   3   79.36    2.93
  -3   7  -3   74.10    2.73
  -3   7   3   73.22    3.10
  -4  -3  -4    5.31    0.39
  -4  -3   4    5.31    0.81
  -3   7   4    5.93    0.80
  -7   4   4    5.61    0.64
  -3   7  -4    4.89    0.57
   4   3   4    5.40    0.83
   3  -7  -4    4.67    0.77
  -7   4  -4    5.66    0.74
  -7   4   4    5.77    0.73
   7  -4  -4    5.24    0.63
   7  -4   4    3.91    0.67
   4   3  -4    4.56    0.59
   7  -4  -4    6.17    0.69
   3  -7   4    6.23    0.79
  -3   7   4    5.70    1.04
  -4  -3  -4    5.51    0.88
   3  -7   4    7.04    0.87
   7  -4  -4    5.64    0.78
   7  -4   4    5.10    0.84
  -4  -3  -4    5.66    0.90
  -7   4   4    7.01    1.06
   3  -7  -4    6.80    0.51
   3  -7  -4    6.02    0.96
   7  -4   4    5.31    0.49
  -4  -3   4    5.80    0.68
   3  -7   4    5.54    0.65
   4   3   5   39.54    2.27
  -7   4   5   37.25    2.05
  -4  -3  -5   36.20    1.57
  -3   7   5   41.23    2.64
  -7   4  -5   36.89    1.88
  -3   7   5   34.13    1.93
   7  -4  -5   40.16    1.74
  -7   4  -5   33.38    2.35
   3  -7   5   35.94    1.95
  -4  -3  -5   36.92    2.38
   7  -4  -5   38.97    1.87
   3  -7  -5   33.22    2.02
   7  -4   5   36.26    2.10
  -7   4  -5   38.24    1.87
  -4  -3  -5   37.25    2.34
   3  -7   5   38.67    1.87
   3  -7  -5   34.81    1.54
  -7   4   5   33.94    1.79
  -4  -3   5   34.31    1.79
  -4  -3   5   37.96    2.11
   7  -4   5   36.49    1.44
  -3   7  -5   34.00    1.73
  -3   7   6   66.53    3.85
  -4  -3  -6   68.60    2.49
   3  -7   6   74.04    3.32
   4   3   6   69.84    3.47
  -7   4  -6   73.19    3.76
  -3   7   6   67.97    3.05
   3  -7   6   69.70    2.98
   3  -7  -6   70.55    3.28
  -4  -3   6   64.00    3.24
  -7   4   6   63.65    3.26
   7  -4   6   64.95    3.30
   3  -7   6   70.53    2.99
   7  -4  -6   70.84    3.16
  -7   4   6   73.77    3.01
   3  -7  -6   71.04    2.66
  -4  -3   6   69.14    3.25
   7  -4   6   69.46    2.33
  -3   7  -6   63.84    2.81
   4   3   7   13.57    1.53
  -4  -3   7   12.79    1.36
  -7   4   7   10.54    1.39
   7  -4   7   12.30    0.59
   7  -4  -7   10.34    1.17
  -3   7   7   12.18    1.70
  -4  -3   7   10.92    1.40
   3  -7   7   13.77    1.17
   7  -4   7   14.83    1.54
  -7   4  -7   13.83    1.64
  -4  -3  -7   14.79    1.65
  -7   4   7   12.41    1.15
   3  -7  -7   12.49    1.34
   3  -7  -7   12.34    0.97
   3  -7   7   14.66    1.39
  -7   4   8    4.45    1.19
   4   3   8    5.77    1.21
  -4  -3   8    3.38    0.95
  -3   7   8    2.08    1.11
   3  -7   8    4.71    1.00
   7  -4  -8    3.97    0.89
  -4  -3   8    3.64    1.04
  -7   4  -8    3.19    1.06
   7  -4   8    4.18    1.01
  -4  -3  -8    4.21    1.09
   7  -4  -8    4.51    0.58
  -7   4   8    4.19    0.88
  -7   4   9    3.26    1.09
   4   3   9    3.11    1.15
  -4  -3   9    4.06    1.17
  -7   4  -9    1.33    0.95
   7  -4  -9    1.94    0.81
   7  -4   9    3.81    1.19
   3  -7  -9    4.73    1.21
  -7   4   9    2.92    0.90
   3  -7   9    5.03    1.17
   3  -7 -10    8.05    1.46
  -3  -4   0   10.52    0.94
   4  -7   0   12.20    0.85
   4  -7   0   12.50    1.11
  -3  -4   0   13.76    0.92
   7  -3   0   11.69    0.95
  -7   3   0   13.59    1.01
  -7   3   0   14.75    1.04
  -7   3   1    0.10    0.41
  -3  -4  -1    0.19    0.44
  -7   3  -1   -0.19    0.30
  -4   7   1    0.09    0.40
   4  -7   1   -0.07    0.33
   4  -7  -1    0.32    0.45
   4  -7   1    0.22    0.26
   7  -3   1    0.12    0.20
   7  -3   1   -0.37    0.40
  -7   3  -1    0.23    0.46
  -3  -4  -1   -0.20    0.37
   7  -3  -1    0.07    0.37
   7  -3   1    0.37    0.42
   4  -7  -1    0.68    0.46
  -3  -4   1    0.08    0.33
   4  -7  -1    0.10    0.29
   4  -7  -2  173.16    6.25
  -7   3   2  176.74    6.29
   4  -7   2  174.23    5.93
   3   4   2  178.70    6.17
  -7   3  -2  174.67    6.42
   7  -3  -2  186.21    5.84
   7  -3   2  172.19    5.86
  -3  -4  -2  168.24    5.81
   7  -3   2  169.79    6.13
   3   4  -2  167.87    5.74
  -3  -4  -2  174.21    6.30
   7  -3   2  169.76    5.60
   4  -7  -2  181.48    6.20
  -4   7  -2  173.04    5.41
  -3  -4  -2  176.04    6.25
  -7   3  -2  167.60    5.58
   4  -7   2  174.54    6.10
  -3  -4   2  169.96    6.02
  -7   3   2  183.29    5.88
  -3  -4  -2  167.63    5.67
   4  -7  -3    0.87    0.52
   4  -7   3   -0.79    0.45
  -4   7   3   -0.10    0.44
   4  -7  -3   -0.04    0.17
  -4   7  -3    0.18    0.27
  -3  -4   3    0.39    0.49
  -7   3   3    0.08    0.38
   4  -7  -3   -0.74    0.60
   4  -7   3    0.09    0.40
  -7   3   3    0.56    0.29
   7  -3   3    0.51    0.34
   3   4   3   -0.11    0.48
   4  -7   3    0.21    0.44
  -7   3  -3   -0.29    0.52
   3   4  -3   -0.06    0.34
   7  -3  -3    0.12    0.33
  -3  -4  -3    0.07    0.37
   7  -3   3   -0.07    0.35
  -3  -4   3    0.17    0.24
  -3  -4  -3   -0.53    0.59
  -4   7   3    0.15    0.53
  -3  -4  -3    0.12    0.49
  -7   3   3   -0.58    0.56
  -7   3  -3    0.17    0.44
  -3  -4  -3    0.66    0.29
  -7   3   3    0.52    0.54
  -4   7   4    7.19    0.90
  -7   3  -4   10.99    0.97
   4  -7   4    9.88    0.99
  -7   3   4   11.36    1.23
  -3  -4   4   10.64    0.82
   3   4   4    9.84    1.08
   7  -3  -4   11.13    0.77
   3   4  -4    9.65    0.77
  -3  -4  -4    8.93    0.82
   7  -3   4   10.90    1.09
  -3  -4   4    8.96    0.47
   4  -7   4    8.48    0.98
  -7   3  -4    7.75    1.14
  -4   7   4   11.04    1.26
   4  -7  -4   10.18    1.06
  -3  -4  -4   10.13    1.18
  -3  -4  -4    8.06    1.09
   7  -3   4   10.82    0.96
   4  -7  -4    9.93    1.15
   4  -7  -4    9.81    0.60
  -7   3   4   11.85    0.94
  -3  -4   4   11.04    1.03
  -3  -4  -4    9.40    0.68
  -4   7  -4   10.50    0.78
  -7   3   4   10.05    0.85
   4  -7   4    8.93    0.95
  -7   3   5    0.21    0.46
  -4   7   5   -0.11    0.54
  -7   3   5    0.19    0.46
  -3  -4   5    0.23    0.53
   4  -7  -5    1.02    0.36
  -4   7  -5    0.34    0.39
   3   4   5   -0.29    0.64
  -3  -4  -5    0.78    0.28
  -7   3  -5    1.04    0.55
  -4   7   5   -0.19    0.68
   3   4  -5   -0.13    0.35
   7  -3   5    0.70    0.54
   7  -3  -5   -0.05    0.31
  -3  -4  -5    0.62    0.67
   4  -7   5   -0.11    0.49
   4  -7  -5   -0.13    0.57
   4  -7  -5    0.75    0.70
  -3  -4  -5    0.23    0.29
   3   4   6   51.77    3.00
  -4   7   6   56.15    3.41
   4  -7   6   58.39    2.82
  -3  -4  -6   55.11    1.92
  -7   3  -6   54.48    2.50
   4  -7  -6   54.90    2.87
   3   4  -6   52.66    2.24
  -7   3  -6   56.02    3.22
   7  -3  -6   59.00    2.07
   4  -7   6   55.57    2.64
  -7   3   6   57.68    2.84
   7  -3   6   55.98    2.88
  -7   3   6   63.12    2.72
  -3  -4   6   55.20    2.81
   4  -7  -6   52.76    2.20
  -4   7  -6   52.06    2.39
  -7   3   7   -0.12    0.65
  -3  -4   7    1.68    0.80
   3   4   7   -0.37    0.77
   4  -7  -7   -0.14    0.45
   4  -7   7    0.13    0.70
  -4   7   7   -0.24    0.80
  -3  -4   7   -0.17    0.69
   3   4  -7   -0.26    0.41
  -7   3  -7    0.41    0.81
   7  -3  -7    0.05    0.24
   7  -3   7   -0.16    0.67
   4  -7   7   -0.22    0.57
  -3  -4  -7    0.39    0.81
  -7   3   7    0.31    0.64
  -7   3   8    5.05    0.97
  -3  -4   8    6.92    1.15
   3   4   8    4.18    1.15
  -4   7   8    4.41    1.26
   4  -7   8    3.24    0.94
  -3  -4   8    5.17    1.18
  -7   3  -8    5.28    1.31
   7  -3   8    4.81    1.10
  -3  -4  -8    4.99    1.16
  -7   3   8    4.70    1.01
   4  -7   9    0.30    0.90
  -7   3   9    0.41    0.78
  -3  -4   9    0.21    1.05
  -7   3  -9    0.46    0.94
  -3  -4  -9    0.22    1.01
   7  -3   9   -0.21    0.99
  -7   3   9   -0.58    0.80
   4  -7 -10   10.24    1.47
  -2  -5   0   14.04    1.14
   5  -7   0   13.86    0.91
  -5   7   0   10.27    0.81
   5  -7   0   14.68    1.13
   7  -2   0   11.78    0.96
  -7   2   0   14.42    1.15
  -2  -5   0   13.62    0.89
   7  -2   0   13.53    1.02
  -7   2   0   14.90    1.03
  -5   7   0   11.38    0.98
   7  -2   1   95.07    2.99
  -2  -5  -1   99.25    3.98
   5  -7   1   98.44    3.84
   5  -7  -1   96.83    3.88
   5  -7   1   98.36    3.64
  -5   7   1   98.77    3.46
  -2  -5   1   92.28    3.81
  -2  -5   1  101.39    3.50
  -7   2  -1  100.08    4.05
   7  -2   1   91.88    3.68
  -2  -5  -1   99.64    3.58
   7  -2  -1  100.44    3.67
   7  -2   1   99.49    3.85
   5  -7   1   99.28    3.39
  -7   2   1  105.37    3.96
  -7   2  -1   99.30    3.54
   5  -7  -1   97.57    3.65
  -2  -5   1  104.41    3.77
  -5   7  -1  100.22    3.01
  -5   7   1   97.63    3.83
  -2  -5  -1  103.94    3.70
  -2  -5  -2  155.28    5.68
   5  -7  -2  148.71    5.49
   5  -7   2  157.00    5.27
  -5   7   2  145.90    4.87
   5  -7   2  155.00    5.39
   2   5   2  140.57    5.50
  -7   2   2  150.12    5.35
  -7   2  -2  150.14    5.69
   7  -2   2  145.81    5.22
   7  -2  -2  151.83    5.05
  -2  -5  -2  147.28    5.08
   7  -2   2  161.73    5.54
  -7   2   2  147.00    5.57
   7  -2   2  147.31    4.82
  -5   7  -2  146.84    4.68
   5  -7  -2  148.51    5.49
  -7   2  -2  142.28    4.79
  -2  -5   2  154.30    5.32
  -5   7   2  153.40    5.44
  -2  -5  -2  143.99    5.08
  -7   2   2  160.37    5.30
  -7   2   3   62.40    2.31
   5  -7   3   67.06    2.84
  -5   7   3   66.31    2.36
   2   5   3   62.63    3.08
  -7   2   3   75.75    3.01
  -5   7   3   60.78    3.13
   5  -7   3   73.72    3.11
  -7   2  -3   68.44    3.27
   7  -2  -3   69.13    2.51
   5  -7   3   62.97    2.06
  -2  -5  -3   63.84    2.58
   7  -2   3   61.85    2.57
  -7   2   3   72.69    3.26
  -5   7  -3   62.58    2.37
   5  -7  -3   72.14    3.09
  -2  -5   3   65.19    2.86
  -2  -5  -3   68.30    3.24
  -7   2   3   69.25    2.84
   5  -7   3   69.12    2.93
   5  -7  -3   70.63    3.09
  -7   2  -4   12.66    1.04
   5  -7   4   11.45    1.05
   2   5   4   13.65    1.33
  -5   7   4   11.83    0.65
  -5   7   4   15.06    1.46
  -2  -5   4   13.13    0.84
  -7   2  -4   12.48    1.39
   5  -7   4   13.01    1.08
   7  -2  -4   12.80    0.75
   2   5  -4   12.58    0.80
   7  -2   4   11.77    1.19
   5  -7   4    9.43    1.06
   5  -7  -4   10.14    1.21
   7  -2   4   11.96    0.98
  -5   7  -4   13.06    0.85
  -2  -5  -4   12.75    1.32
   5  -7  -4   11.07    1.14
  -2  -5   4   11.64    1.10
  -2  -5  -4   11.29    0.85
  -7   2   4   12.10    1.05
  -5   7   4   12.31    1.15
   5  -7  -4   12.49    0.70
  -7   2   4   11.65    1.30
  -7   2   4   10.89    0.85
  -2  -5  -5   32.05    1.21
  -7   2  -5   34.32    1.79
  -5   7   5   29.13    2.25
  -2  -5   5   32.08    1.20
   5  -7   5   31.32    1.92
   2   5  -5   32.60    1.47
   7  -2  -5   35.37    1.30
  -7   2   5   30.53    1.77
   5  -7   5   34.81    1.88
  -2  -5  -5   37.44    2.35
   7  -2   5   29.95    1.86
   5  -7  -5   33.24    2.14
  -2  -5   5   33.19    1.97
   5  -7  -5   36.21    2.13
  -5   7  -5   36.12    1.66
  -7   2   5   33.42    1.90
  -2  -5  -5   31.23    1.58
   5  -7  -5   32.82    1.46
   2   5   5   35.04    2.29
  -5   7   6   47.56    3.10
   5  -7   6   52.18    2.63
  -7   2  -6   49.90    2.34
  -7   2  -6   53.98    2.39
   2   5   6   58.78    3.15
  -7   2  -6   60.30    3.31
   2   5  -6   51.99    2.04
   5  -7   6   48.47    2.55
  -2  -5  -6   50.36    3.05
  -2  -5   6   50.31    2.67
   7  -2   6   56.37    2.80
  -7   2   6   55.53    2.63
  -2  -5  -6   49.63    2.19
   5  -7  -6   47.27    2.76
  -5   7  -6   52.55    2.30
   5  -7  -6   50.74    2.12
  -7   2   6   49.31    2.57
   5  -7   6   52.52    2.54
  -2  -5   7   11.12    1.30
  -7   2   7   11.50    1.23
   5  -7   7    9.86    1.10
   5  -7   7   16.00    1.37
   2   5   7    9.66    1.45
  -5   7   7   11.25    1.65
   2   5  -7   12.41    0.81
  -7   2  -7    9.50    1.51
  -2  -5  -7   12.61    1.57
   7  -2   7   10.99    1.36
  -7   2   7   10.20    1.22
  -2  -5   8    4.14    1.03
  -7   2   8    6.92    1.09
   5  -7   8    5.26    0.91
   2   5   8    3.49    1.23
  -5   7   8    4.34    1.28
   5  -7   8    6.14    1.39
  -2  -5   8    5.87    1.20
   2   5  -8    5.28    0.58
  -7   2  -8    7.68    1.51
   5  -7   8    5.53    1.06
  -2  -5  -8    4.23    1.16
   7  -2   8    5.30    1.23
  -7   2   8    5.26    1.08
  -7   2   9    3.50    1.03
  -7   2   9    1.65    0.99
   5  -7   9    1.24    0.75
   5  -7   9    3.25    1.05
  -2  -5   9    2.01    1.05
   7  -2   9    2.67    1.06
  -1  -6   0   53.90    2.62
  -6   7   0   54.34    2.25
   6  -7   0   55.99    2.49
   7  -1   0   49.73    2.38
  -7   1   0   52.58    2.51
  -1  -6   0   54.39    2.19
   7  -1   0   56.22    2.45
   6  -7   0   52.47    2.25
  -7   1   0   52.33    2.39
   6  -7   0   57.33    2.56
  -6   7   0   54.29    2.48
  -1  -6  -1   22.26    1.56
   6  -7  -1   18.99    1.33
  -6   7   1   21.09    1.15
  -6   7  -1   19.04    1.19
  -1  -6   1   20.94    1.46
   7  -1  -1   17.89    1.26
   6  -7  -1   19.18    1.23
  -7   1   1   20.27    1.32
  -1  -6   1   22.10    1.13
  -7   1  -1   17.47    1.38
   7  -1   1   19.83    1.30
  -1  -6  -1   17.33    1.09
   7  -1  -1   20.35    1.23
   7  -1   1   21.87    1.43
  -6   7  -1   20.04    0.79
  -7   1   1   21.38    1.44
  -7   1  -1   21.47    1.17
   6  -7   1   21.98    1.40
  -6   7   1   20.26    1.37
  -1  -6   1   21.40    1.27
  -1  -6  -1   22.44    1.36
   6  -7  -2   63.28    2.74
   7  -1   2   57.04    2.15
   6  -7  -2   55.81    2.59
  -6   7   2   59.11    2.30
  -6   7  -2   59.39    2.51
   6  -7   2   57.39    2.82
  -7   1  -2   67.44    3.04
   7  -1   2   55.24    2.55
   7  -1  -2   64.06    2.41
   7  -1   2   57.49    2.75
  -7   1   2   63.35    2.70
  -7   1   2   59.97    2.66
   6  -7   2   59.69    2.63
  -6   7  -2   57.42    2.07
  -7   1   2   63.08    2.90
  -7   1  -2   57.18    2.14
  -1  -6   2   61.08    2.59
  -6   7   2   58.29    2.74
  -1  -6  -2   58.83    2.54
  -1  -6  -2   57.50    2.90
  -7   1   3   16.16    0.77
  -7   1   3   16.80    1.26
   6  -7   3   13.65    1.14
  -6   7   3   16.19    0.92
  -7   1   3   18.54    1.31
   1   6   3   15.45    1.42
  -6   7   3   15.99    1.36
   6  -7   3   15.15    1.32
  -7   1  -3   18.22    1.49
   6  -7   3   14.79    0.76
   7  -1  -3   18.76    0.98
   6  -7  -3   15.23    1.21
   7  -1   3   14.70    1.29
  -6   7  -3   15.58    0.88
  -7   1   3   15.92    1.43
   6  -7  -3   17.09    1.37
  -1  -6   3   16.33    1.19
  -1  -6  -3   14.55    1.07
  -6   7   3   17.99    1.37
   6  -7   3   17.84    1.23
  -1  -6  -3   15.65    1.46
   6  -7  -3   17.79    1.33
   7  -1   3   14.26    0.97
  -7   1  -4   33.59    1.77
   6  -7   4   34.70    1.88
  -6   7   4   31.65    1.40
   1   6   4   34.50    2.26
  -7   1   4   36.95    2.00
  -6   7   4   34.20    2.19
  -1  -6  -4   39.27    2.38
   6  -7   4   30.52    1.94
  -7   1  -4   28.68    2.11
   7  -1  -4   34.71    1.35
  -6   7  -4   33.99    1.55
  -7   1   4   36.72    2.25
  -1  -6   4   36.99    1.94
   6  -7  -4   32.73    2.04
   6  -7  -4   33.24    1.99
  -1  -6  -4   32.53    1.70
  -1  -6   4   30.99    1.37
  -7   1   4   33.60    1.58
  -7   1   4   34.99    1.95
   7  -1   4   30.30    1.71
   6  -7  -4   34.49    1.96
   6  -7   4   34.49    1.84
  -1  -6  -5    6.83    0.81
   6  -7  -5    9.01    1.05
  -6   7  -5    5.81    0.69
  -1  -6   5    6.05    0.87
   6  -7   5    6.13    0.82
  -7   1   5    5.74    0.90
  -6   7   5    6.09    0.53
  -7   1  -5    6.37    0.79
   6  -7  -5    5.41    0.59
   1   6   5    7.45    1.19
  -7   1  -5    6.81    0.83
  -6   7   5    7.65    1.18
   6  -7  -5    4.10    0.87
  -7   1  -5    7.03    1.10
   6  -7   5    5.30    0.89
   6  -7  -5    7.29    1.07
  -7   1   5    7.20    0.80
   7  -1   5    7.64    0.93
  -1  -6   5    6.33    0.58
  -1  -6  -6   23.54    1.44
   6  -7   6   22.93    1.64
   1   6   6   28.77    2.22
  -6   7   6   21.60    1.98
  -7   1  -6   22.52    1.42
  -6   7   6   22.57    0.96
  -1  -6  -6   23.10    1.41
  -1  -6   6   26.76    1.75
  -6   7  -6   21.55    1.36
  -7   1   6   25.66    1.70
  -7   1   6   25.78    1.65
   6  -7  -6   20.59    1.61
   7  -1   6   20.07    1.61
   6  -7   6   23.20    1.52
   6  -7  -6   22.47    1.25
  -1  -6   7    4.06    0.92
   6  -7  -7    3.19    0.87
   6  -7   7    2.09    0.70
   6  -7   7    1.79    0.73
   1   6   7    3.60    1.07
  -6   7   7    1.80    1.01
  -7   1  -7    1.69    0.85
  -1  -6  -7    1.62    0.88
  -7   1   7    3.28    0.83
   7  -1   7    2.33    0.87
  -7   1   7    3.61    0.88
  -1  -6   8    9.45    1.32
  -7   1   8    9.68    1.29
   6  -7   8    9.74    1.08
   6  -7   8   11.93    1.32
   1   6   8    8.56    1.52
  -6   7   8    7.82    1.54
   6  -7   8    9.38    1.55
  -7   1  -8   10.76    1.62
  -1  -6  -8   11.54    1.64
  -7   1   8    7.51    1.23
   7  -1   8    6.61    1.28
   6  -7   9    0.89    0.70
   7  -1   9    0.40    0.93
   0  -7   0  189.84    6.81
  -7   7   0  193.27    6.36
   7  -7   0  186.84    6.43
  -7   0   0  186.27    6.47
  -7   0   0  196.88    6.62
   7   0   0  173.01    6.45
   0  -7   0  191.98    6.16
   7   0   0  195.31    6.53
  -7   7   0  187.33    5.67
   7  -7   0  191.02    6.60
  -7   7   0  192.37    6.61
   0  -7   0  189.67    6.61
  -7   7   0  191.11    5.71
   0  -7   0  177.18    6.21
   7  -7  -1    2.89    0.63
   7  -7  -1    2.56    0.54
  -7   7   1    3.57    0.70
  -7   7   1    2.16    0.20
  -7   7  -1    3.22    0.64
   0  -7   1    4.22    0.57
   7  -7  -1    2.27    0.61
   0  -7  -1    2.18    0.70
  -7   7   1    2.75    0.50
   7  -7   1    3.40    0.64
  -7   7  -1    1.74    0.51
   7  -7   1    1.83    0.68
   0  -7   1    2.35    0.43
  -7   0   1    2.44    0.50
   7   0   1    1.59    0.51
  -7   0  -1    3.06    0.65
   0  -7   1    0.97    0.58
   7   0   1    3.44    0.66
   0  -7  -1    4.23    0.67
  -7   0   1    3.55    0.73
  -7   0  -1    2.34    0.48
  -7   7  -1    2.11    0.29
  -7   7  -2    0.78    0.29
  -7   7   2    1.03    0.19
   7  -7   2    0.73    0.41
  -7   7   2    1.99    0.65
  -7   0   2    0.61    0.60
   0  -7   2    0.16    0.44
  -7   0   2    1.16    0.50
   7  -7  -2    1.22    0.49
  -7   7   2    0.40    0.38
  -7   0   2    0.53    0.53
  -7   7  -2    0.50    0.46
   7   0  -2    0.84    0.44
   7   0   2    0.86    0.29
  -7   0   2    0.66    0.40
   7  -7   2    1.48    0.61
   7  -7  -2    0.57    0.42
   0  -7  -2    1.14    0.51
   0  -7  -2    2.20    0.72
  -7   0  -2    0.82    0.27
   7  -7  -3    1.77    0.57
  -7   7  -3    1.69    0.37
   0  -7  -3    0.57    0.49
   7  -7   3    1.68    0.52
  -7   7   3    3.13    0.72
   0  -7   3    1.51    0.56
   7   0   3    3.49    0.51
  -7   0   3    3.35    0.67
  -7   0   3    2.08    0.68
  -7   7   3    2.60    0.50
   7  -7   3    1.61    0.34
   7  -7   3    1.01    0.61
  -7   0  -3    1.45    0.63
  -7   0   3    1.42    0.32
   0   7   3    1.93    0.73
   7  -7  -3    1.84    0.59
   0  -7  -3    0.90    0.67
  -7   0   3    2.57    0.72
  -7   7   3    2.25    0.28
  -7   0   4  110.12    4.19
  -7   7   4  110.17    3.68
   0  -7  -4   99.21    3.24
   7  -7  -4  104.86    4.20
   0   7   4   97.86    4.64
  -7   7   4  100.42    4.38
  -7   0  -4  102.43    3.97
  -7   0  -4  103.76    4.58
  -7   7   4  105.46    3.46
  -7   7  -4  110.03    3.70
  -7   0   4  106.54    3.72
   0  -7   4  106.87    4.09
   7  -7  -4  102.41    4.37
   7  -7  -4  110.41    4.22
   0  -7  -4   95.91    3.96
  -7   0   4  117.25    4.34
   7  -7   4   95.93    3.87
   0  -7   4   98.36    3.29
   7   0   4  107.21    3.97
  -7   7  -5    0.85    0.49
   7  -7   5    0.45    0.46
   0  -7   5    0.67    0.58
  -7   0   5    1.35    0.69
  -7   0  -5    0.69    0.51
  -7   7   5    0.48    0.39
   0   7   5    0.58    0.70
   0  -7   5    0.86    0.44
  -7   7   5    1.63    0.79
  -7   0  -5    0.90    0.69
   7  -7  -5    0.73    0.66
   7  -7  -5    0.37    0.58
  -7   0   5    1.33    0.49
   7   0   5    0.88    0.53
   7  -7  -5    0.76    0.70
   0  -7  -5    0.47    0.43
  -7   7   5    0.56    0.36
   0  -7  -5    0.61    0.54
   0  -7  -6    2.06    0.57
   0  -7   6    1.25    0.75
   7  -7   6    1.37    0.56
   0  -7  -6    1.52    0.58
  -7   0   6    1.58    0.71
  -7   7   6    1.43    0.38
  -7   0  -6    1.57    0.52
   0   7   6    2.31    0.94
  -7   7   6    2.79    0.92
   7  -7  -6    0.66    0.59
  -7   0   6    1.89    0.63
   7   0   6    1.06    0.60
   7  -7   7   -0.46    0.58
  -7   0   7    0.28    0.75
   0  -7   7   -0.16    0.77
   7  -7   7   -0.77    0.86
   0   7   7    0.46    0.93
  -7   7   7    0.63    0.86
  -7   0  -7   -0.21    0.84
   7  -7  -7    0.14    0.81
   0  -7   7    0.41    0.71
  -7   0   7    0.53    0.73
   7   0   7    0.31    0.72
   0  -7  -7    0.23    0.57
   0   7   8   21.47    2.29
  -7   7   8   18.47    2.09
   7  -7   8   16.31    1.94
  -7   0  -8   21.87    2.19
   0  -7   8   22.03    1.98
   0  -7  -8   21.80    2.15
   0  -7   8   21.95    1.83
  -7   0   8   18.54    1.71
   7  -7   8   24.04    1.48
   7   0   8   19.10    1.88
   8  -7   0   91.40    3.29
  -8   7   0   80.94    3.27
   1  -8   0   82.50    3.73
   8  -7   0   83.87    3.62
  -7  -1   0   74.51    3.34
  -7  -1   0   81.20    2.66
   8  -7   0   79.42    3.42
   1  -8   0   85.00    3.06
  -8   7   0   81.93    3.48
   1  -8   0   80.65    3.52
  -8   7  -1    0.39    0.47
   8  -7   1    0.97    0.50
  -8   7   1    0.12    0.57
   1  -8  -1    0.33    0.46
   1  -8   1    0.12    0.47
   8  -7  -1    0.24    0.40
   1  -8   1   -0.07    0.33
  -8   7   1    0.03    0.24
   1  -8  -1    0.42    0.59
  -8   7   1   -0.16    0.43
  -8   7  -1    0.27    0.48
   1  -8  -1    0.06    0.33
  -7  -1  -1    0.36    0.26
   8  -7  -1    0.12    0.56
   7   1  -1   -0.10    0.45
   1  -8   1    0.10    0.31
  -7  -1   1   -0.09    0.40
  -7  -1  -1    0.35    0.49
   7   1   1    0.10    0.48
   1  -8   1    0.40    0.65
   8  -7  -1   -0.11    0.50
   8  -7   1    0.25    0.42
  -7  -1  -1    0.85    0.46
  -7  -1   2    5.35    0.41
   8  -7   2    6.04    0.77
   1  -8  -2    6.62    0.85
  -8   7   2    5.49    0.85
   1  -8  -2    6.93    1.09
   1  -8   2    5.38    0.65
  -8   7   2    5.95    0.75
   7   1   2    5.52    0.56
   8  -7   2    6.06    0.64
   1  -8  -2    4.46    0.54
  -7  -1  -2    5.37    0.63
   1  -8   2    4.70    0.47
   7   1  -2    5.32    0.78
  -7  -1   2    5.08    0.65
   8  -7   2    4.67    0.85
  -7  -1  -2    6.12    0.93
  -7  -1   2    5.60    0.40
   8  -7  -2    4.70    0.74
  -8   7   2    5.40    0.44
   8  -7  -2    5.68    0.75
  -7  -1  -2    5.40    0.54
   8  -7  -2    5.99    0.90
  -8   7  -2    5.74    0.53
   8  -7   3    0.26    0.44
   1  -8  -3   -0.11    0.52
  -8   7   3    0.04    0.29
  -8   7  -3    0.58    0.39
   1  -8   3    0.25    0.46
  -8   7   3   -0.08    0.46
   1  -8  -3    0.04    0.27
  -7  -1  -3   -0.09    0.40
   7   1   3    0.22    0.40
  -7  -1   3    0.29    0.30
   7   1  -3    0.40    0.50
   8  -7   3    0.06    0.36
   8  -7  -3    0.22    0.54
  -7  -1  -3    0.15    0.59
  -7  -1   3   -0.08    0.26
   8  -7  -3    0.09    0.51
  -7  -1   3    0.31    0.49
  -8   7  -3    0.05    0.35
   7   1   4   50.47    2.35
   1  -8  -4   47.12    1.66
  -8   7   4   53.84    2.23
  -7  -1  -4   49.08    2.87
   8  -7  -4   50.24    2.57
  -7  -1   4   48.64    2.13
  -8   7  -4   53.52    2.16
  -8   7   4   49.40    1.96
   8  -7  -4   49.79    2.41
   1  -8   4   53.86    2.41
   1  -8  -4   48.79    2.48
   8  -7   4   53.28    2.33
  -8   7  -4   48.20    2.04
  -8   7  -5   -0.08    0.50
   8  -7   5    0.25    0.50
   1  -8   5   -0.11    0.59
   7   1   5   -1.25    0.58
  -7  -1   5   -0.27    0.68
  -8   7   5    0.12    0.38
  -7  -1  -5   -0.09    0.48
  -8   7   5    0.07    0.44
   1  -8   5   -0.94    0.73
   8  -7  -5   -0.13    0.64
  -8   7  -5   -0.05    0.35
   1  -8   5    0.18    0.48
   1  -8  -5    0.06    0.38
  -7  -1   5    0.09    0.45
   8  -7  -5    0.33    0.60
  -7  -1  -5    1.30    0.82
  -8   7   5   -0.15    0.60
   1  -8  -5    1.29    0.69
   7   1   6    2.42    0.73
   8  -7   6    3.87    0.66
  -7  -1   6    5.25    1.00
  -8   7   6    4.93    0.66
  -7  -1  -6    3.10    0.65
   1  -8   6    2.18    0.72
   8  -7  -6    5.30    0.96
  -8   7   6    3.75    0.92
  -7  -1   6    3.71    0.74
  -7  -1  -6    3.46    1.06
  -8   7  -6    4.45    0.51
   1  -8  -6    4.09    0.84
  -8   7   6    4.23    0.64
   1  -8   7   -0.13    0.75
   8  -7   7   -0.08    0.49
  -7  -1   7    0.15    0.80
   7   1   7    0.15    0.68
   1  -8   7    0.33    0.81
   8  -7   7    0.19    0.83
  -8   7   7   -0.19    0.86
  -7  -1   7    0.13    0.66
   1  -8  -7   -0.26    0.70
  -8   7   7   -0.33    0.58
   7   1   8   11.25    1.47
  -8   7   8   12.88    1.72
   8  -7   8   13.66    1.81
   1  -8   8   11.74    1.38
  -8   6   0   50.88    2.37
   8  -6   0   57.25    2.23
   2  -8   0   57.31    2.81
   2  -8   0   54.20    2.29
   8  -6   0   52.51    2.58
  -6  -2   0   51.75    2.45
   6   2   0   52.49    2.44
  -8   6   0   57.98    2.45
   8  -6   0   50.74    2.45
   2  -8   0   52.69    2.00
  -6  -2   0   49.53    2.13
  -8   6   0   52.44    2.51
   2  -8   0   54.19    2.61
   8  -6  -1   14.38    1.15
  -8   6   1    9.48    1.06
   2  -8  -1    9.67    1.03
  -8   6   1    9.65    0.95
  -8   6  -1   10.83    0.97
   2  -8  -1   10.18    0.81
   2  -8   1   10.95    0.94
  -6  -2   1   11.90    0.81
   2  -8  -1   10.90    1.18
   8  -6   1   13.95    0.92
   8  -6  -1   10.63    1.05
   8  -6   1   11.73    1.14
   6   2  -1   10.69    0.98
  -6  -2   1    9.20    0.84
  -6  -2  -1   10.48    1.03
   2  -8   1    9.78    1.13
  -6  -2  -1   12.30    0.90
   2  -8   1   12.05    0.76
   8  -6   1   11.10    0.97
  -8   6  -1   11.33    1.00
   2  -8  -1   11.50    0.69
   2  -8   1   10.28    1.05
  -8   6   1   11.55    0.75
  -8   6  -1   13.66    1.02
   8  -6  -1   11.81    0.85
   2  -8  -2   26.47    1.88
  -6  -2   2   23.49    1.24
   2  -8  -2   22.12    1.19
  -8   6  -2   26.86    1.44
   2  -8   2   24.53    1.53
   6   2   2   28.52    1.42
   8  -6   2   28.27    1.43
   8  -6  -2   25.50    1.63
   2  -8   2   25.91    1.08
   6   2  -2   22.29    1.46
  -6  -2   2   23.30    1.29
  -6  -2  -2   25.18    1.75
  -6  -2  -2   25.37    1.49
   2  -8   2   26.99    1.32
   8  -6  -2   25.25    1.68
   8  -6   2   26.09    1.45
  -8   6   2   25.08    1.21
   8  -6  -2   27.10    1.39
  -8   6   2   25.60    1.74
   2  -8  -2   26.30    1.67
   2  -8   2   24.99    1.67
  -8   6  -2   25.52    1.44
  -6  -2   2   25.62    1.68
   2  -8  -3    7.86    0.96
   2  -8  -3    9.80    0.61
   6   2   3   11.79    0.96
   2  -8   3    9.30    0.99
  -8   6  -3    8.01    0.93
   8  -6  -3    8.15    0.96
  -6  -2   3    9.16    0.66
   6   2  -3    9.70    0.91
   8  -6   3    9.64    0.77
  -8   6  -3   10.09    0.85
  -6  -2  -3    9.33    0.99
   8  -6   3    8.41    1.07
  -6  -2  -3   10.73    1.19
   2  -8  -3    9.47    0.61
  -6  -2   3   10.14    0.97
   2  -8   3    9.60    0.82
   8  -6  -3   10.91    0.90
  -6  -2  -3    8.04    0.52
  -8   6   3    8.73    0.71
   8  -6   3   10.19    0.86
  -8   6   3   12.29    1.23
  -6  -2  -3    7.96    0.47
  -6  -2   3   11.07    1.13
   8  -6  -3    9.41    1.09
   2  -8  -3    7.43    1.13
   2  -8   4   37.38    2.10
  -2   8   4   34.66    2.47
  -6  -2   4   37.51    1.98
  -8   6   4   37.45    2.05
   6   2   4   37.77    2.01
   6   2  -4   33.42    1.87
  -6  -2  -4   37.20    2.37
  -6  -2   4   36.85    1.84
  -8   6  -4   36.52    1.72
  -6  -2  -4   33.83    2.10
  -8   6  -4   37.25    1.76
   2  -8  -4   35.39    1.50
   8  -6  -4   39.09    1.89
   2  -8   4   36.85    1.84
   8  -6  -4   34.18    2.04
  -8   6   4   35.53    1.66
   2  -8  -4   34.94    2.05
   8  -6   4   34.79    1.71
  -6  -2   4   39.10    2.19
   2  -8   5    3.23    0.66
   2  -8  -5    3.50    0.48
   8  -6   5    3.20    0.55
  -8   6   5    3.27    0.60
  -2   8   5    2.68    0.67
  -6  -2   5    3.79    0.72
   6   2   5    2.58    0.67
  -2   8  -5    2.64    0.60
   8  -6  -5    3.45    0.79
   2  -8   5    2.20    0.77
   8  -6   5    3.65    0.82
  -6  -2  -5    2.59    0.75
  -6  -2   5    3.38    0.69
   8  -6  -5    3.03    0.67
   2  -8   5    3.73    0.70
  -8   6   5    3.84    0.78
  -2   8   5    3.38    1.02
  -6  -2  -5    2.53    0.88
  -8   6  -5    3.97    0.64
   2  -8  -5    4.32    0.80
  -8   6  -5    3.92    0.64
   6   2   6    8.30    1.13
  -8   6   6   13.80    1.42
   8  -6   6   10.32    1.28
   8  -6  -6   10.02    1.12
  -2   8   6   11.72    1.67
  -6  -2  -6   11.69    1.51
  -6  -2   6   12.28    1.23
   2  -8   6   12.07    1.14
  -8   6   6   12.04    1.01
   2  -8  -6   12.01    0.91
   2  -8  -6   12.60    1.28
   8  -6   6   12.14    0.87
   8  -6   7    0.74    0.45
   2  -8   7    0.79    0.85
  -8   6   7    1.06    0.84
   8  -6   7    0.89    0.86
  -2   8   7    2.00    1.12
  -6  -2   7    2.28    0.80
   6   2   7    0.16    0.73
   2  -8  -7    0.42    0.67
   2  -8   7    0.12    0.69
  -8   6   7    1.01    0.58
   2  -8   8    8.64    1.37
  -8   6   8   10.31    1.48
   8  -6   8   12.66    1.60
  -6  -2   8    7.98    1.32
   6   2   8   10.49    1.47
   2  -8   8    9.24    1.25
  -8   6   8    8.29    1.04
  -8   6   9    0.57    0.73
   8  -5   0   24.68    1.14
  -8   5   0   27.25    1.52
   3  -8   0   24.29    1.34
   8  -5   0   22.54    1.51
  -5  -3   0   23.32    1.48
   8  -5   0   22.98    1.43
   3  -8   0   24.25    0.92
  -8   5   0   24.12    1.50
   3  -8   0   24.91    1.63
  -5  -3   0   25.57    1.44
   3  -8   1    0.32    0.22
  -8   5   1    0.22    0.50
   3  -8  -1   -0.22    0.43
  -8   5  -1   -0.25    0.41
   3  -8   1    0.56    0.42
  -8   5   1   -0.28    0.49
   3  -8  -1    0.03    0.14
  -8   5  -1    0.41    0.50
   3  -8  -1   -0.23    0.30
   3  -8   1    0.31    0.42
  -8   5   1   -0.06    0.35
  -5  -3   1   -0.07    0.37
   8  -5  -1   -0.10    0.50
   8  -5   1    0.11    0.47
   5   3  -1    0.17    0.38
  -5  -3   1    0.08    0.32
  -5  -3  -1    0.33    0.46
   8  -5   1   -0.10    0.28
  -5  -3  -1   -0.18    0.44
   8  -5  -1    0.09    0.25
   8  -5  -1   -0.30    0.50
   8  -5   1   -0.32    0.39
  -8   5  -2   77.61    3.13
   3  -8  -2   68.28    2.63
   3  -8   2   80.77    3.14
  -5  -3   2   70.47    2.86
   5   3   2   73.17    2.99
  -5  -3  -2   71.73    2.99
   8  -5  -2   75.56    3.09
   8  -5   2   66.33    2.85
   5   3  -2   68.72    2.94
   3  -8   2   76.01    2.42
  -5  -3   2   71.31    2.77
  -5  -3  -2   73.06    3.35
  -8   5  -2   76.29    2.98
   3  -8  -2   70.42    2.31
   3  -8   2   75.76    2.61
   8  -5  -2   77.99    2.68
  -5  -3  -2   74.38    3.13
   8  -5   2   74.81    2.89
  -8   5   2   76.36    3.38
   3  -8  -2   72.99    3.23
  -8   5   2   76.18    2.84
  -8   5  -2   69.79    2.84
  -5  -3   2   73.02    3.21
  -8   5   3    0.14    0.56
   3  -8  -3    0.35    0.54
   3  -8  -3   -0.08    0.20
  -5  -3  -3   -0.07    0.24
   3  -8   3    0.23    0.54
  -3   8   3   -0.10    0.44
  -8   5   3    0.74    0.40
  -5  -3   3    0.23    0.54
  -8   5  -3   -0.10    0.60
   3  -8   3    0.40    0.48
   8  -5  -3    0.06    0.32
  -5  -3  -3   -0.26    0.46
   5   3  -3   -0.08    0.36
   5   3   3    0.10    0.43
   8  -5  -3   -0.09    0.44
   8  -5   3    0.07    0.36
  -5  -3   3    0.57    0.25
   8  -5   3   -0.12    0.50
  -5  -3  -3   -0.12    0.49
  -5  -3   3    1.60    0.55
   3  -8   3    0.28    0.32
  -5  -3  -3   -0.29    0.55
   8  -5   3    0.19    0.31
  -5  -3  -4   12.71    0.55
   5   3   4   13.84    1.24
   3  -8   4   13.33    1.24
  -8   5   4   13.32    1.07
   8  -5   4   13.14    0.87
   3  -8   4   15.02    1.27
   8  -5  -4   14.42    1.10
   5   3  -4   14.78    1.08
  -5  -3   4   14.05    1.11
  -5  -3  -4   15.71    1.53
   8  -5   4   13.76    1.16
   8  -5  -4   14.93    1.01
  -3   8   4   12.06    1.51
  -5  -3  -4   12.18    1.27
   3  -8   4   12.46    0.94
   3  -8  -4   14.29    0.77
  -8   5   4   14.38    1.03
   3  -8  -4   15.11    1.31
  -5  -3   4   15.48    1.32
  -3   8   4   12.81    1.16
  -3   8  -4   15.39    0.98
  -8   5  -5   -0.42    0.51
   3  -8  -5    0.19    0.33
  -8   5   5    0.25    0.46
   8  -5  -5    0.12    0.61
  -5  -3   5    0.26    0.59
  -5  -3   5   -0.18    0.59
   5   3   5   -0.13    0.63
  -3   8  -5    0.37    0.43
   3  -8   5    0.25    0.60
   8  -5  -5    0.42    0.44
   8  -5   5    0.50    0.59
  -8   5   5    0.23    0.50
  -5  -3  -5    0.15    0.69
   5   3  -5   -0.09    0.45
   8  -5  -5   -0.16    0.52
   3  -8   5   -0.11    0.53
  -3   8   5    0.42    0.77
  -5  -3  -5    0.36    0.68
   3  -8   5   -0.17    0.44
   3  -8  -5   -0.13    0.56
   8  -5   5    0.14    0.33
   5   3   6   26.29    1.91
  -8   5   6   24.38    1.81
  -3   8   6   28.25    2.44
   5   3  -6   27.34    1.54
   8  -5  -6   25.24    1.43
   3  -8   6   22.38    1.55
  -5  -3   6   19.85    1.64
   8  -5   6   24.46    1.84
   3  -8   6   25.84    1.61
  -8   5   6   26.76    1.61
   3  -8  -6   25.70    1.30
  -5  -3   6   25.35    1.83
   3  -8  -6   25.39    1.82
   8  -5   6   24.57    1.13
  -8   5   7   -0.51    0.61
   8  -5  -7   -0.54    0.72
  -5  -3   7   -0.15    0.79
  -8   5   7   -0.32    0.77
   3  -8   7    0.45    0.74
  -5  -3   7    0.15    0.73
  -3   8   7    0.25    0.88
   8  -5   7    0.17    0.80
  -5  -3  -7    0.21    0.79
   5   3   7   -0.17    0.78
   3  -8  -7    0.15    0.71
   3  -8   7   -0.23    0.66
   8  -5   7    0.11    0.26
  -8   5   8    6.79    0.99
   5   3   8    4.26    1.16
   8  -5  -8    6.52    1.09
  -8   5   8    4.30    1.08
   3  -8   8    4.23    1.15
  -3   8   8    3.83    1.40
  -5  -3   8    7.81    1.27
   8  -5   8    4.79    1.12
  -5  -3  -8    5.89    1.38
  -5  -3   9    0.94    0.94
  -8   5   9    0.12    0.72
  -4  -4   0   96.67    3.93
   4  -8   0  111.25    3.81
   4  -8   0  113.86    4.35
   8  -4   0  104.71    4.01
  -8   4   0  111.40    4.03
  -4  -4   0  107.32    4.04
  -8   4   0  100.68    3.97
   4  -8   0  104.06    4.13
   8  -4   0   99.30    3.20
   4  -8  -1    3.19    0.67
  -8   4  -1    3.20    0.54
   4  -8  -1    3.01    0.48
   4  -8   1    3.24    0.58
   4  -8  -1    2.96    0.76
   8  -4   1    3.33    0.36
   8  -4   1    2.23    0.50
  -4  -4   1    3.35    0.58
  -4  -4  -1    4.13    0.61
   8  -4   1    3.50    0.56
   8  -4  -1    3.49    0.61
   8  -4   1    3.40    0.65
  -8   4   1    2.84    0.64
  -4  -4   1    2.82    0.54
  -4  -4  -1    3.66    0.71
  -8   4   1    3.25    0.66
   8  -4   1    3.50    0.37
   4  -8   1    2.80    0.72
   4  -8   1    3.32    0.46
  -4  -4  -1    2.68    0.63
  -8   4  -1    5.11    0.71
   4  -8  -2   12.01    1.22
  -8   4  -2   13.63    1.15
   4  -8   2   13.42    1.09
  -4  -4   2   12.73    1.01
  -4  -4  -2   12.53    1.00
   8  -4   2   11.32    0.96
   8  -4  -2   16.08    1.08
   8  -4   2   12.40    1.16
   4   4  -2   14.59    1.02
  -4  -4   2   13.13    0.90
  -4  -4  -2   13.69    1.23
   8  -4  -2   14.76    0.64
   4  -8   2   13.01    0.66
   8  -4   2   11.26    0.81
   8  -4   2   13.77    0.90
  -8   4   2   13.47    1.28
   4  -8  -2   12.10    1.16
  -4  -4  -2   13.63    1.19
   4  -8   2   13.36    1.17
  -8   4  -2   12.57    0.88
  -8   4   2   15.03    1.02
  -4  -4   2   12.54    1.12
  -4  -4  -2   14.34    0.91
  -4   8   2   11.75    1.06
  -8   4   3    2.83    0.75
   4  -8  -3    5.27    0.81
  -4  -4  -3    2.21    0.39
   4  -8   3    4.77    0.77
  -8   4   3    3.34    0.58
  -4  -4   3    3.12    0.67
  -8   4  -3    3.74    0.68
  -4   8  -3    3.73    0.47
   4  -8   3    3.08    0.68
   8  -4   3    3.19    0.55
  -4   8   3    2.30    0.67
  -8   4  -3    3.40    0.86
  -4  -4  -3    2.43    0.58
   8  -4  -3    4.18    0.61
   4   4  -3    3.32    0.56
   8  -4   3    3.63    0.58
   4   4   3    3.49    0.70
  -4  -4   3    3.22    0.43
  -4  -4  -3    3.31    0.80
  -4  -4  -3    4.24    0.82
   4  -8  -3    3.49    0.25
   8  -4   3    3.26    0.44
   4  -8  -3    2.48    0.75
   4   4   4   62.34    2.97
  -8   4  -4   60.35    2.71
   4  -8   4   61.20    2.84
  -8   4   4   59.93    2.51
  -4   8   4   66.23    3.46
  -8   4  -4   61.79    3.30
   4  -8   4   59.78    2.87
   8  -4  -4   66.96    2.53
   4   4  -4   62.74    2.55
  -4  -4   4   56.48    1.95
  -4  -4   4   62.51    2.56
  -4  -4  -4   55.96    3.10
   8  -4   4   61.25    2.70
  -4  -4  -4   63.08    3.10
   8  -4   4   60.31    2.18
   4  -8  -4   60.84    2.10
  -8   4   4   67.28    2.68
   4  -8  -4   64.56    3.01
  -4  -4  -4   58.71    2.23
  -4  -4   4   59.84    2.89
  -4   8  -4   60.99    2.39
  -4   8   4   57.66    2.77
   4  -8   4   61.15    2.86
  -8   4   5    0.56    0.50
   4  -8   5    1.77    0.69
   4  -8  -5    1.50    0.38
  -4  -4   5    2.30    0.73
  -4  -4   5    0.32    0.51
  -4   8  -5    1.64    0.51
   4  -8   5    0.85    0.68
  -8   4   5    0.91    0.60
   4   4   5    1.62    0.73
   8  -4   5    1.18    0.58
   4   4  -5    2.56    0.55
  -4  -4  -5    1.60    0.85
   8  -4  -5    1.40    0.44
   4  -8   5    1.26    0.63
  -4   8   5    0.21    0.81
  -4  -4  -5    1.44    0.72
  -4  -4  -5    1.03    0.27
   4  -8  -5    1.76    0.67
  -8   4   6    9.07    1.01
  -4  -4   6    6.91    1.07
  -8   4   6    8.00    1.02
  -4   8  -6    7.41    0.88
   4   4   6   10.28    1.33
   4   4  -6    9.50    0.86
   8  -4  -6    8.08    0.71
  -4   8   6    8.74    1.45
  -8   4  -6    7.72    1.36
   8  -4   6    7.95    1.10
   4  -8   6    8.05    0.98
   4  -8  -6    7.95    1.13
  -8   4   7   -0.46    0.65
  -4  -4   7    0.90    0.76
  -8   4   7    0.15    0.66
   4   4   7   -0.36    0.80
   4  -8   7    0.58    0.76
  -4  -4   7    0.16    0.76
  -4   8   7    0.25    0.90
   4   4  -7    0.84    0.45
  -8   4  -7    0.22    0.84
   8  -4   7    0.65    0.75
  -4  -4  -7   -0.21    0.86
   4  -8  -7    0.48    0.80
  -4  -4   8   11.15    1.43
  -8   4   8   12.58    1.49
   4   4   8   14.95    1.70
   4  -8   8   16.09    1.60
   4   4  -8   12.16    1.03
  -4   8   8    7.97    1.61
  -4  -4   8   13.17    1.65
  -8   4  -8   12.58    1.80
   8  -4   8   12.48    1.57
  -4  -4  -8   12.56    1.67
  -8   4   8   14.57    1.39
  -8   4   9    0.40    0.80
  -4  -4   9    1.41    1.02
   5  -8   0  125.19    4.50
  -3  -5   0  124.96    4.84
   5  -8   0  126.07    4.54
   5  -8   0  136.25    5.04
  -3  -5   0  131.51    4.54
   8  -3   0  131.48    4.77
  -8   3   0  129.70    4.77
  -8   3   0  132.40    4.75
  -8   3   1    0.33    0.45
   5  -8  -1    1.12    0.56
  -8   3  -1    1.45    0.47
  -3  -5  -1    1.71    0.54
   5  -8   1    2.90    0.65
  -5   8   1    1.91    0.54
   5  -8   1    1.59    0.48
   5  -8   1    1.08    0.33
  -3  -5   1    1.54    0.50
   5  -8  -1    0.59    0.53
   8  -3   1    2.03    0.52
  -8   3  -1    0.93    0.54
  -3  -5  -1    1.19    0.48
  -3  -5   1    0.29    0.47
   8  -3  -1    3.11    0.59
   8  -3   1    2.05    0.60
   5  -8   1    2.47    0.70
   5  -8  -2    7.41    0.91
  -8   3  -2    4.83    0.52
   5  -8  -2    5.22    0.86
   5  -8   2    6.53    0.87
  -3  -5   2    7.07    0.86
   5  -8   2    5.76    0.76
  -8   3   2    6.64    0.77
  -3  -5  -2    6.87    0.77
  -8   3  -2    7.44    1.01
   8  -3   2    6.46    0.76
   8  -3  -2    6.39    0.69
   8  -3   2    8.75    0.96
  -3  -5   2    6.42    0.79
   8  -3   2    5.89    0.50
  -3  -5  -2    6.29    0.90
  -3  -5  -2    6.97    0.69
  -5   8  -2    5.26    0.42
  -8   3   2    4.33    0.84
   5  -8  -3    0.37    0.52
  -3  -5  -3    1.10    0.37
   5  -8   3    1.23    0.51
  -8   3   3    1.43    0.58
  -3  -5   3    1.96    0.59
  -5   8  -3    1.14    0.34
  -8   3   3    1.08    0.49
  -8   3  -3    1.57    0.58
   5  -8   3    0.59    0.47
   5  -8   3    2.62    0.71
  -8   3  -3    2.08    0.77
  -3  -5  -3    1.69    0.53
  -5   8   3    1.11    0.55
   8  -3  -3    1.06    0.42
   8  -3   3    2.08    0.53
   8  -3   3    1.04    0.38
   3   5   3    1.40    0.61
  -3  -5  -3    1.44    0.67
  -3  -5  -3    1.80    0.66
   5  -8  -3    1.31    0.64
  -8   3   3    1.43    0.69
  -8   3   4   73.08    2.71
  -8   3  -4   67.71    3.02
   5  -8   4   75.65    3.20
   3   5   4   68.03    3.35
  -5   8   4   69.06    3.66
  -8   3  -4   72.25    3.66
   5  -8   4   78.52    3.35
   8  -3  -4   71.67    2.68
   3   5  -4   71.05    2.75
  -3  -5   4   70.74    2.76
  -3  -5   4   69.81    2.47
  -3  -5  -4   74.18    3.61
   8  -3   4   66.59    2.90
  -3  -5  -4   76.96    3.59
   5  -8  -4   71.95    3.34
  -3  -5   4   74.23    3.26
  -8   3   4   68.41    3.02
  -5   8  -4   70.39    2.67
  -3  -5  -4   68.15    2.69
   5  -8  -4   73.32    3.44
   5  -8   4   67.86    3.15
   5  -8  -4   71.75    2.38
  -3  -5   5    1.29    0.49
   5  -8   5    1.40    0.67
  -3  -5   5    0.25    0.63
  -8   3   5    0.62    0.54
  -8   3   5    0.27    0.46
  -5   8  -5    0.95    0.48
   3   5   5    0.16    0.68
   5  -8   5    0.98    0.63
   3   5  -5    1.03    0.41
   8  -3  -5    0.76    0.34
  -5   8   5    0.20    0.75
   8  -3   5    0.33    0.60
  -3  -5  -5    1.98    0.88
   5  -8  -5    0.42    0.31
   5  -8  -5   -0.28    0.69
  -3  -5  -5    0.30    0.36
  -8   3   6    5.67    0.89
  -3  -5   6    3.98    0.89
   5  -8   6    3.73    0.81
  -8   3   6    4.45    0.82
  -5   8  -6    4.93    0.72
   3   5   6    6.03    1.14
  -5   8   6    3.15    1.09
  -8   3  -6    5.46    1.18
   3   5  -6    5.99    0.63
   8  -3  -6    4.29    0.44
   8  -3   6    3.86    0.86
   5  -8  -6    3.66    0.95
  -8   3   7   -0.14    0.61
  -3  -5   7    0.15    0.73
   5  -8   7    0.63    0.62
   3   5   7    0.39    0.82
   5  -8   7   -0.56    0.80
  -5   8   7    0.25    0.89
   3   5  -7    0.81    0.41
  -8   3  -7    1.13    1.00
  -3  -5  -7    0.43    0.80
   8  -3   7   -0.31    0.69
  -8   3   7    0.25    0.63
  -3  -5   8   16.64    1.63
   5  -8   8   14.00    1.39
   3   5   8   14.70    1.79
   5  -8   8   15.27    1.58
  -3  -5   8   15.41    1.77
  -5   8   8   16.52    2.11
  -8   3  -8   15.68    1.95
   8  -3   8   12.01    1.61
  -8   3   8   14.75    1.47
   5  -8   9    0.84    0.85
   8  -3   9    0.40    0.96
  -2  -6   0   25.73    1.71
   6  -8   0   30.39    1.77
  -6   8   0   27.04    1.41
  -8   2   0   26.96    1.73
   8  -2   0   28.40    1.64
  -2  -6   0   29.15    1.45
   8  -2   0   26.48    1.58
   6  -8   0   25.63    1.42
  -8   2   0   23.57    1.52
   6  -8   0   23.85    1.63
  -6   8   0   25.57    1.60
  -8   2  -1    5.47    0.66
   6  -8   1    5.16    0.78
  -6   8   1    6.12    0.86
  -2  -6  -1    7.07    0.79
  -2  -6  -1    4.31    0.80
  -2  -6   1    5.43    0.74
   6  -8  -1    3.41    0.73
  -6   8   1    4.61    0.59
   8  -2   1    4.14    0.68
  -8   2  -1    4.41    0.85
  -2  -6  -1    5.32    0.66
   6  -8  -1    5.47    0.69
  -2  -6   1    3.86    0.71
   8  -2  -1    5.08    0.67
  -8   2   1    4.58    0.78
   8  -2   1    5.24    0.77
   6  -8  -2   55.49    2.63
   6  -8   2   50.40    2.41
  -6   8   2   52.88    2.13
  -2  -6   2   51.22    2.54
   6  -8   2   51.82    2.72
  -8   2  -2   52.61    2.80
  -8   2   2   58.55    2.62
   8  -2   2   50.36    2.41
  -2  -6  -2   52.97    2.30
   8  -2  -2   55.41    2.29
   8  -2   2   52.00    2.58
  -8   2   2   57.03    2.76
   6  -8  -2   53.41    2.68
  -6   8  -2   53.32    1.85
  -8   2  -2   51.00    2.03
   6  -8   2   49.34    2.50
  -2  -6   2   52.04    2.46
  -2  -6  -2   52.37    2.36
  -6   8   2   46.03    2.51
   6  -8  -2   50.91    2.44
  -8   2   2   54.76    2.52
  -2  -6  -2   60.66    2.87
   8  -2   2   51.24    1.89
   6  -8  -3    5.59    0.83
  -2  -6  -3    4.65    0.63
   6  -8   3    4.23    0.77
  -6   8  -3    3.95    0.46
  -2  -6   3    2.20    0.62
  -8   2   3    4.45    0.72
   6  -8   3    3.61    0.71
  -6   8   3    5.50    0.56
   6  -8   3    4.42    0.33
  -8   2   3    5.68    0.81
   6  -8   3    2.98    0.79
  -8   2  -3    3.34    0.86
  -2  -6  -3    4.34    0.63
   8  -2  -3    4.83    0.58
   8  -2   3    4.97    0.86
   2   6   3    5.03    0.89
   8  -2   3    3.36    0.52
  -2  -6  -3    3.86    0.87
   6  -8  -3    4.60    0.83
  -8   2   3    5.16    0.93
   6  -8  -3    5.56    0.88
  -8   2   4   20.12    0.99
  -2  -6  -4   16.30    1.15
  -8   2  -4   17.05    1.31
   6  -8   4   17.65    1.39
   2   6   4   17.56    1.60
  -6   8   4   17.23    0.91
  -6   8   4   18.78    1.70
   6  -8   4   16.37    1.44
  -8   2  -4   18.98    1.76
   8  -2  -4   16.78    0.95
  -2  -6   4   15.39    0.99
   6  -8  -4   17.68    1.40
   6  -8  -4   18.08    1.54
  -6   8  -4   20.19    1.06
  -2  -6  -4   19.83    1.71
  -2  -6   4   16.91    1.36
   8  -2   4   18.38    1.24
   6  -8  -4   21.05    1.61
  -8   2   4   19.34    1.40
   6  -8   4   18.29    1.40
   6  -8   5    1.48    0.65
  -2  -6   5    0.99    0.69
  -6   8  -5    0.81    0.43
  -8   2   5    1.83    0.67
   6  -8  -5    1.25    0.35
   2   6   5    1.57    0.86
  -2  -6   5    1.05    0.33
  -8   2  -5    0.77    0.77
  -8   2   5    1.51    0.49
  -6   8   5    1.92    0.89
   8  -2  -5    1.81    0.31
  -2  -6  -5    1.63    0.79
   8  -2   5    1.06    0.58
   6  -8  -5    2.01    0.71
   6  -8  -5    2.65    0.81
  -2  -6  -5    1.52    0.49
   6  -8   6   19.17    1.56
  -6   8   6   17.21    1.86
   2   6   6   15.70    1.77
  -2  -6   6   19.73    1.59
   6  -8  -6   19.51    1.60
   6  -8  -6   19.31    1.73
  -8   2   6   19.34    1.54
  -2  -6  -6   18.61    1.22
  -6   8  -6   17.33    1.21
   8  -2   6   18.82    1.53
   6  -8   6   21.50    1.50
  -8   2   6   16.72    1.33
  -8   2   7    0.40    0.81
   6  -8   7   -0.24    0.66
   6  -8   7    1.26    0.76
  -2  -6   7   -0.60    0.85
   2   6   7    0.83    0.96
  -6   8   7    0.24    0.96
  -8   2  -7    1.83    1.02
  -2  -6  -7   -0.22    0.81
   8  -2   7    0.30    0.67
  -8   2   7   -0.13    0.63
   6  -8  -7    0.88    0.75
  -2  -6   8    7.23    1.26
  -8   2   8    6.33    1.09
   6  -8   8    4.88    1.02
   6  -8   8    6.31    1.15
   2   6   8    5.20    1.36
  -6   8   8    4.69    1.34
  -8   2  -8    6.59    1.53
  -2  -6  -8    3.88    1.35
   8  -2   8    4.18    1.10
   6  -8   9    0.39    0.84
   7  -8   0   17.34    1.28
  -7   8   0   16.67    1.11
  -8   1   0   14.44    1.25
   8  -1   0   15.03    1.19
  -1  -7   0   11.23    1.22
  -1  -7   0   16.40    1.04
   8  -1   0   13.52    1.13
  -8   1   0   15.15    1.16
   7  -8   0   14.45    1.24
  -7   8   0   13.32    1.17
  -1  -7   0   14.08    1.17
  -1  -7   0   15.61    1.09
  -1  -7  -1   27.24    1.92
   7  -8  -1   30.68    1.79
  -7   8   1   28.89    1.55
  -7   8  -1   26.76    1.57
  -1  -7   1   31.09    1.93
   7  -8   1   30.94    1.83
   7  -8   1   31.54    2.00
  -8   1   1   30.75    1.77
   8  -1  -1   24.23    1.64
  -1  -7   1   32.17    1.51
  -8   1  -1   28.63    1.88
   8  -1   1   29.66    1.76
  -1  -7  -1   30.53    1.56
   8  -1  -1   30.96    1.65
   8  -1   1   29.50    1.79
   7  -8  -1   28.20    1.66
  -8   1   1   36.18    1.97
  -7   8  -1   31.01    1.04
  -8   1  -1   29.84    1.56
   7  -8  -1   29.65    1.86
   7  -8   1   31.79    1.84
  -1  -7   1   32.01    1.69
  -7   8   1   33.66    1.91
  -1  -7  -1   31.53    1.79
   7  -8  -2   54.91    2.57
   8  -1   2   50.11    1.82
  -7   8   2   51.04    2.15
  -7   8  -2   51.23    2.35
  -1  -7   2   52.62    2.64
   7  -8  -2   48.22    2.40
   7  -8   2   53.43    2.74
  -8   1  -2   52.04    2.75
   8  -1   2   49.65    2.44
   8  -1  -2   52.29    2.21
   8  -1   2   50.03    2.58
  -8   1   2   57.98    2.59
  -7   8  -2   48.19    1.81
  -8   1   2   47.51    2.61
  -8   1  -2   51.49    1.98
  -1  -7   2   51.79    2.40
   7  -8   2   52.76    2.50
  -1  -7  -2   48.87    2.37
  -7   8   2   50.27    2.60
  -8   1   2   54.80    2.58
  -1  -7  -2   48.03    2.71
   8  -1   3   18.88    1.10
   7  -8  -3   22.76    1.54
  -7   8   3   20.10    1.13
   1   7   3   22.50    1.78
   7  -8   3   19.02    0.97
  -8   1  -3   20.43    1.71
   8  -1  -3   22.70    1.17
  -7   8  -3   22.81    1.07
  -8   1   3   18.59    1.64
   7  -8  -3   16.96    1.51
  -1  -7   3   20.08    1.43
  -1  -7  -3   20.17    1.38
   7  -8   3   23.57    1.52
  -8   1   3   21.26    1.53
   7  -8  -3   23.64    1.62
  -1  -7  -3   20.68    1.78
   7  -8  -4   12.32    1.20
  -7   8   4   11.13    0.79
  -8   1  -4   10.08    1.06
  -1  -7   4    9.45    0.70
  -8   1  -4   12.72    1.47
   1   7   4    9.97    1.33
   7  -8  -4   12.20    1.25
  -7   8  -4   11.23    0.82
  -1  -7   4   13.01    1.17
  -1  -7  -4   11.12    1.01
  -8   1   4   15.32    1.31
   7  -8   4   13.38    1.14
   8  -1   4   10.99    0.95
   7  -8  -4   10.28    1.23
  -8   1   4   11.41    0.71
  -1  -7  -5    9.48    0.95
  -1  -7   5    7.24    1.04
  -8   1   5    7.98    1.03
  -7   8   5    9.09    0.69
   7  -8  -5   11.52    1.23
   1   7   5    8.75    1.25
  -8   1  -5    9.60    1.36
  -7   8   5   10.69    1.40
  -7   8  -5    9.31    0.82
   8  -1   5    8.85    0.98
   7  -8   5   11.22    1.09
  -8   1   5    8.39    0.81
   7  -8  -5   11.03    1.32
   7  -8  -6   21.84    1.71
   1   7   6   18.54    1.85
  -7   8   6   18.82    0.92
  -7   8   6   20.25    1.96
  -1  -7   6   22.18    1.68
   7  -8  -6   19.29    1.78
  -8   1   6   21.70    1.67
  -1  -7  -6   17.84    1.35
  -8   1   6   20.40    1.41
   7  -8   6   18.25    1.43
   8  -1   6   18.43    1.55
  -1  -7   7    2.95    0.99
   7  -8   7    3.01    0.80
  -8   1   7    3.43    0.94
   7  -8  -7    2.67    0.97
   1   7   7    3.79    1.26
  -7   8   7    2.47    1.18
  -8   1  -7    2.98    1.12
  -1  -7  -7    1.95    1.04
   8  -1   7    1.93    0.82
  -1  -7   8    3.50    1.02
   7  -8   8    4.43    0.89
  -7   8   8    5.15    1.42
   8  -1   8    4.93    1.17
   8  -8   0    7.94    0.97
  -8   8   0    7.13    0.94
   0  -8   0    9.20    1.06
   8  -8   0    9.98    1.00
  -8   8   0    9.16    0.89
   8   0   0    8.82    0.98
   0  -8   0    8.97    1.14
   0  -8   0   10.45    0.82
   8  -8   0    9.14    1.14
  -8   0   0    7.40    0.92
  -8   8   0    8.61    0.38
  -8   8   0    8.71    0.40
   0  -8   0   11.17    0.87
  -8   0   0    7.75    0.89
   8  -8   1   -0.44    0.50
  -8   8  -1    0.02    0.20
   0  -8  -1    0.23    0.51
  -8   8   1   -0.12    0.53
   0  -8   1   -0.24    0.50
  -8   8  -1    0.21    0.53
   8  -8  -1    0.10    0.48
   0  -8   1   -0.16    0.41
   0  -8  -1   -0.29    0.56
  -8   8   1    0.16    0.45
  -8   0  -1    0.23    0.41
  -8   8  -1    0.36    0.49
   0  -8   1   -0.30    0.38
  -8   0   1    0.40    0.47
  -8   0  -1   -0.13    0.55
   8   0   1   -0.11    0.46
   0  -8   1    0.55    0.63
   0  -8  -1   -0.07    0.44
   8  -8   1    0.10    0.49
  -8   0   1   -0.12    0.51
   8  -8  -1    0.12    0.56
  -8   8   2   42.84    1.99
   8   0  -2   43.89    2.25
  -8   0  -2   42.64    2.45
   8  -8  -2   43.34    2.23
  -8   8  -2   41.47    1.62
  -8   0   2   43.26    2.42
   8  -8  -2   45.76    2.45
  -8   0  -2   40.52    1.73
   0  -8   2   41.50    2.07
   8  -8   2   41.12    2.18
   0  -8  -2   41.51    2.23
  -8   0   2   48.12    2.44
   8  -8  -2   42.95    2.19
  -8   0   3   -0.14    0.61
  -8   8  -3    0.29    0.33
   0  -8  -3   -0.22    0.50
   0  -8   3    0.68    0.47
  -8   0   3    0.50    0.64
  -8   8   3   -0.07    0.46
   0  -8  -3   -0.22    0.32
   8   0   3    0.49    0.38
   8   0  -3   -0.11    0.56
   8  -8   3    0.51    0.54
   8  -8   3   -0.05    0.29
  -8   0  -3    1.58    0.78
   8  -8  -3   -0.92    0.59
   8  -8  -3   -0.11    0.58
   0  -8  -4    7.99    0.93
   8  -8   4    8.65    0.97
   0  -8   4    6.24    0.47
   0  -8   4    8.01    1.01
   8   0   4    6.23    0.78
   0  -8  -4    6.64    0.48
  -8   0   4    7.32    1.05
   8  -8  -4    7.19    1.01
  -8   8   4    6.90    0.73
   8  -8  -4    6.03    1.05
  -8   0  -4    7.89    1.21
   8  -8  -4    9.22    1.05
   0   8   4    7.49    1.25
  -8   8  -4    8.46    0.72
  -8   0   4    6.79    0.57
   0  -8  -5   -0.11    0.51
   8  -8   5    1.20    0.62
   8  -8  -5    0.40    0.67
  -8   8  -5   -0.14    0.43
   0  -8   5    0.24    0.58
   8   0   5    0.11    0.52
  -8   0   5    0.54    0.67
  -8   8   5    0.37    0.43
  -8   0  -5    0.19    0.77
   8  -8  -5    0.13    0.59
   0   8   5   -0.62    0.83
  -8   0   5   -0.07    0.41
  -8   8   5    0.84    0.67
   0  -8  -5   -0.07    0.44
   8  -8  -5   -0.16    0.79
   8  -8   6   16.77    1.30
   8  -8  -6   13.75    1.45
   0   8   6   14.45    1.82
  -8   0  -6   16.73    1.84
  -8   8   6   14.53    1.62
   0  -8   6   16.34    1.48
   0  -8  -6   14.91    1.34
  -8   0   6   15.32    1.51
   8   0   6   13.11    1.33
   0  -8   7   -0.29    0.78
   8  -8   7   -0.30    0.59
  -8   0   7    0.76    0.86
   0  -8   7   -0.51    0.97
   0   8   7    0.71    0.93
  -8   8   7    0.62    1.03
   8  -8  -7   -0.60    0.75
   8   0   7   -0.29    0.72
  -8   8   8    3.16    1.21
   8   0   8    3.36    1.01
   1  -9   0    0.79    0.58
  -9   8   0    1.60    0.65
   1  -9   0    1.21    0.45
  -9   8   0    0.85    0.27
   9  -8   0    0.99    0.43
  -8  -1   0    1.02    0.59
   1  -9   0    1.66    0.49
  -8  -1   0    1.25    0.59
   9  -8   0    1.07    0.55
   9  -8  -1   13.21    1.09
  -9   8   1   13.87    1.16
   1  -9  -1   13.17    0.97
   9  -8   1   15.47    1.17
  -8  -1   1   12.75    1.10
   1  -9   1   14.51    0.93
  -8  -1  -1   12.66    1.28
   8   1  -1   15.29    1.28
  -9   8  -1   12.80    0.74
  -8  -1  -1   14.16    1.08
   9  -8  -1   14.47    1.30
  -9   8   1   13.96    0.69
   9  -8   1   12.02    1.17
   1  -9   1   15.04    1.03
   1  -9  -1   16.89    1.39
   1  -9   1   13.49    1.29
   1  -9  -1   14.13    0.97
  -9   8  -1   15.25    1.29
  -9   8   2   48.69    2.25
   1  -9  -2   45.93    1.98
   9  -8   2   44.42    2.05
  -8  -1   2   46.48    2.19
   8   1  -2   47.73    2.41
  -8  -1  -2   43.56    2.57
  -9   8  -2   50.98    1.88
  -9   8   2   47.74    1.67
   1  -9   2   46.40    2.16
   9  -8  -2   45.40    2.55
  -8  -1  -2   43.65    1.92
   9  -8   2   45.15    2.34
   1  -9  -2   47.70    2.50
   9  -8  -2   50.10    2.29
   1  -9   2   47.31    2.55
   1  -9  -3    8.43    1.06
   1  -9  -3   10.52    0.72
   8   1   3    9.14    0.81
  -9   8   3   10.03    0.96
   8   1  -3   12.28    1.14
   9  -8   3   10.18    0.82
  -8  -1  -3   10.45    1.29
   9  -8  -3    9.98    1.12
  -9   8  -3   10.65    0.78
  -9   8   3   10.65    0.62
   9  -8  -3    9.27    1.01
   1  -9   3   11.11    1.00
   9  -8   3   10.36    1.03
   9  -8  -3   10.55    1.25
  -8  -1   3    7.72    0.43
  -9   8   4    0.75    0.35
   9  -8   4    1.83    0.63
   1  -9  -4    0.87    0.58
  -9   8  -4    1.06    0.46
   1  -9   4    2.04    0.65
  -8  -1   4    0.71    0.73
  -9   8   4    1.45    0.55
   1  -9   4    0.39    0.66
   8   1   4    1.93    0.60
   8   1  -4    1.14    0.60
  -8  -1  -4    0.91    0.77
   9  -8  -4    1.39    0.63
   9  -8  -4    0.52    0.60
   1  -9  -5    4.99    0.90
   9  -8   5    4.67    0.76
  -9   8  -5    3.92    0.72
   1  -9   5    5.40    0.91
  -8  -1   5    5.30    1.05
   8   1   5    5.52    0.84
  -9   8   5    4.68    0.71
   9  -8  -5    6.63    1.05
   1  -9   5    4.73    1.01
   8   1  -5    4.35    0.86
   9  -8  -5    4.60    0.90
  -8  -1  -5    4.19    1.14
  -9   8   5    4.06    0.57
   8   1   6   16.85    1.45
  -9   8   6   16.26    1.68
   1  -9   6   15.22    1.64
  -8  -1  -6   14.79    1.84
   9  -8  -6   16.34    1.59
  -9   8   6   16.04    1.06
   1  -9   6   16.30    1.47
  -8  -1   6   19.23    1.74
   1  -9  -6   14.01    1.41
   9  -8   6   16.75    1.26
   1  -9   7    1.55    0.88
   8   1   7    2.36    0.89
   9  -8   7    3.52    1.14
  -9   8   7    0.57    0.91
   1  -9  -7    1.09    0.81
   8   1   8    1.50    0.98
   2  -9   0    2.45    0.69
  -9   7   0    2.33    0.64
   2  -9   0    3.40    0.45
  -9   7   0    3.13    0.69
   9  -7   0    5.06    0.62
   2  -9   0    2.99    0.62
   9  -7   0    1.65    0.66
  -7  -2   0    3.31    0.65
   7   2   0    2.22    0.62
  -7  -2   0    2.88    0.44
   9  -7   0    3.94    0.73
   9  -7  -1    2.75    0.54
   2  -9  -1    4.03    0.80
  -9   7   1    3.34    0.80
   2  -9   1    1.95    0.65
  -9   7  -1    2.10    0.61
   2  -9   1    2.52    0.44
   2  -9  -1    3.29    0.44
  -9   7   1    2.37    0.42
  -9   7   1    3.15    0.70
   2  -9  -1    2.26    0.50
   2  -9   1    2.32    0.59
   9  -7  -1    2.08    0.72
  -7  -2  -1    1.32    0.41
   7   2  -1    2.60    0.62
   2  -9   1    3.06    0.47
  -7  -2   1    2.07    0.59
  -7  -2  -1    3.09    0.71
   9  -7   1    3.12    0.60
  -7  -2   1    2.70    0.42
   9  -7  -1    2.38    0.68
   9  -7   1    1.52    0.55
  -7  -2   2   53.38    2.13
  -9   7   2   55.82    2.53
   2  -9  -2   55.68    2.21
   2  -9   2   52.86    2.56
   9  -7   2   51.81    2.34
   9  -7  -2   61.10    2.81
   2  -9   2   57.77    2.05
  -7  -2   2   51.46    2.32
   7   2  -2   54.15    2.59
  -7  -2  -2   52.31    2.82
  -7  -2   2   61.60    2.90
  -7  -2  -2   54.43    2.43
   2  -9   2   55.21    2.27
   9  -7  -2   57.95    2.84
   9  -7   2   55.40    2.51
  -9   7   2   52.96    2.09
   9  -7  -2   57.68    2.38
   2  -9  -2   47.23    2.65
  -9   7  -2   60.67    2.53
   2  -9   2   57.27    2.83
   9  -7   3    1.93    0.57
   2  -9  -3    2.89    0.74
   2  -9   3    2.18    0.52
  -7  -2  -3    1.75    0.25
  -9   7   3    1.54    0.40
  -9   7   3    1.63    0.61
  -7  -2   3    1.47    0.78
   2  -9  -3    1.70    0.38
   2  -9   3    1.25    0.60
  -7  -2   3    1.78    0.42
  -7  -2  -3    1.62    0.56
  -9   7  -3    2.47    0.57
   7   2  -3    2.40    0.66
   9  -7  -3    1.27    0.66
  -7  -2   3    1.43    0.41
   9  -7   3    2.15    0.51
  -7  -2   3    1.73    0.41
  -7  -2  -3    1.74    0.79
   7   2   3    2.63    0.54
   9  -7  -3    2.04    0.51
   9  -7  -3    1.13    0.68
   2  -9  -3    2.03    0.37
  -9   7  -3    2.92    0.54
  -7  -2  -3    1.67    0.29
   9  -7   4    2.05    0.56
   2  -9  -4    2.95    0.79
   2  -9   4    4.30    0.68
  -9   7   4    2.33    0.50
  -9   7   4    3.17    0.69
   2  -9   4    2.43    0.74
  -7  -2  -4    2.65    0.72
  -7  -2   4    2.90    0.54
   7   2   4    3.12    0.68
   7   2  -4    3.49    0.74
   9  -7  -4    2.42    0.65
  -7  -2  -4    3.17    0.89
  -9   7  -4    2.10    0.54
  -9   7  -4    2.53    0.57
   2  -9  -4    2.73    0.43
   9  -7   5   -0.08    0.44
   2  -9   5    0.71    0.57
  -9   7   5    1.14    0.50
   7   2   5    1.44    0.69
   2  -9   5    1.85    0.78
  -7  -2  -5    0.97    0.68
  -7  -2   5    0.56    0.52
   7   2  -5    1.17    0.60
   9  -7  -5    0.71    0.63
   2  -9   5    0.65    0.56
   9  -7  -5    0.54    0.66
  -7  -2  -5    0.78    0.79
  -2   9   5    2.05    1.02
  -9   7   5    1.09    0.71
  -9   7  -5    0.77    0.46
   2  -9  -5    1.46    0.69
   7   2   6   17.27    1.57
   2  -9   6   18.13    1.72
  -9   7   6   18.59    1.67
   7   2  -6   17.66    1.41
  -7  -2  -6   18.04    1.95
  -2   9   6   14.94    2.00
   9  -7   6   19.69    1.77
   9  -7  -6   17.03    1.46
  -7  -2   6   18.97    1.47
   2  -9   6   17.85    1.47
  -9   7   6   17.70    1.24
   9  -7  -6   15.83    1.55
   2  -9  -6   22.49    1.74
   9  -7   6   19.55    1.21
   7   2   7    0.78    0.78
   9  -7   7    0.73    0.96
   7   2  -7   -0.11    0.63
  -9   7   7   -0.17    0.82
   2  -9  -7    0.58    0.78
   2  -9   7    1.03    0.78
  -9   7   7    0.52    0.55
   7   2   8    3.69    1.11
   9  -7   8    1.02    1.04
  -9   7   8    0.49    0.67
   2  -9   8    2.46    0.95
  -9   6   0    3.09    0.72
   3  -9   0    3.90    0.77
  -9   6   0    3.27    0.70
   9  -6   0    4.14    0.51
  -9   6   0    5.23    0.78
   3  -9   0    3.35    0.61
   3  -9   0    3.33    0.91
   9  -6   0    3.82    0.75
  -6  -3   0    3.65    0.73
   3  -9   0    4.09    0.33
  -6  -3   0    4.29    0.65
   9  -6   0    3.25    0.67
  -6  -3   1   43.31    1.96
  -9   6  -1   41.58    2.09
  -9   6  -1   44.08    2.21
   3  -9  -1   41.67    1.89
   3  -9   1   42.40    2.07
   9  -6   1   40.58    1.79
   9  -6  -1   39.43    2.18
   9  -6   1   42.47    2.29
  -6  -3   1   41.41    2.03
  -6  -3  -1   43.09    2.32
   6   3  -1   47.35    2.22
   3  -9   1   41.83    1.59
   9  -6  -1   39.42    2.18
   3  -9  -1   39.02    1.42
   9  -6   1   41.48    2.07
  -6  -3  -1   43.68    2.07
  -9   6   1   41.51    2.31
   3  -9  -1   43.91    2.35
   9  -6  -1   41.80    1.73
   3  -9   1   43.72    2.38
  -9   6  -1   39.67    2.09
  -9   6   1   47.36    1.91
  -6  -3   2   58.29    2.43
   3  -9  -2   55.48    2.25
   3  -9   2   57.05    2.65
  -9   6  -2   66.67    2.67
   9  -6   2   53.14    2.46
   9  -6  -2   65.00    2.82
   3  -9   2   60.35    2.04
  -6  -3   2   57.50    2.39
   6   3  -2   53.39    2.57
  -6  -3  -2   58.13    2.94
   3  -9  -2   55.22    1.87
   3  -9   2   56.98    2.18
  -6  -3  -2   59.84    2.69
   9  -6  -2   57.10    2.25
   9  -6  -2   61.18    2.92
   9  -6   2   57.29    2.53
  -9   6   2   56.70    2.94
   3  -9  -2   58.09    2.86
  -9   6   2   64.00    2.41
   3  -9  -2   58.00    1.95
  -9   6  -2   59.22    2.54
  -6  -3   2   61.30    2.91
   3  -9   3   30.76    1.81
   6   3   3   27.43    1.63
  -6  -3   3   23.52    1.39
   9  -6  -3   25.84    1.65
  -6  -3   3   27.69    1.29
   6   3  -3   26.05    1.62
   9  -6   3   24.26    1.45
  -6  -3  -3   25.00    1.89
  -9   6  -3   28.83    1.61
   9  -6  -3   27.66    1.38
  -6  -3  -3   25.51    1.73
   3  -9   3   27.24    1.35
   3  -9  -3   26.25    1.05
   9  -6   3   27.29    1.47
  -6  -3   3   26.99    1.63
  -9   6   3   27.82    1.43
   3  -9  -3   26.44    1.80
  -6  -3   3   31.41    1.95
  -6  -3  -3   26.26    1.16
   3  -9   4    4.18    0.63
   3  -9  -4    5.03    0.93
   3  -9  -4    4.33    0.43
  -9   6   4    4.64    0.67
   3  -9   4    4.44    0.86
  -6  -3   4    3.91    0.75
  -6  -3   4    2.46    0.80
   3  -9   4    5.30    0.92
   9  -6   4    5.28    0.83
   9  -6  -4    5.68    0.69
  -9   6  -4    5.10    0.74
  -6  -3  -4    4.27    0.91
   6   3   4    3.06    0.74
   6   3  -4    4.35    0.75
   9  -6  -4    2.83    0.69
  -6  -3  -4    2.94    0.91
  -3   9   4    5.21    1.16
  -9   6  -4    4.15    0.69
   9  -6   4    3.93    0.57
   3  -9   5   13.88    1.41
  -9   6   5   14.03    1.26
   9  -6  -5   14.90    1.17
   3  -9   5   12.68    1.27
   6   3  -5   14.84    1.21
   6   3   5   12.57    1.31
  -6  -3  -5   10.87    1.33
  -6  -3   5   14.66    1.24
  -6  -3  -5   14.32    1.61
   9  -6  -5   13.56    1.10
   9  -6   5   16.48    1.42
  -3   9   5   14.60    1.81
   3  -9   5   14.04    1.13
  -9   6   5   17.15    1.17
   9  -6   5   15.17    0.95
  -6  -3   5   13.98    1.44
  -9   6  -5   15.72    1.15
  -3   9  -5   13.97    1.09
   3  -9  -5   10.53    1.26
   6   3   6   18.47    1.65
  -9   6   6   19.44    1.59
  -3   9   6   24.19    2.34
   9  -6  -6   22.60    1.41
   6   3  -6   17.03    1.34
  -6  -3  -6   20.97    2.00
  -6  -3   6   17.19    1.49
   9  -6   6   18.35    1.67
   3  -9   6   21.87    1.48
  -9   6   6   21.68    1.41
  -6  -3   6   19.02    1.71
   3  -9  -6   21.87    1.73
   9  -6   6   20.45    1.10
   3  -9   7    5.26    0.94
  -9   6   7    5.62    0.93
  -6  -3   7    3.21    0.99
   6   3   7    4.85    1.14
   3  -9   7    4.45    1.14
  -9   6   7    5.03    1.02
  -6  -3   7    5.01    0.96
   6   3  -7    4.83    0.83
   9  -6   7    5.73    1.24
  -3   9   7    6.34    1.49
   3  -9  -7    3.84    1.01
   6   3   8    2.23    1.02
   6   3  -8    1.56    0.66
   9  -6   8    2.32    1.05
  -9   6   8    2.50    0.80
  -9   6   9    0.70    0.76
  -5  -4   0   53.56    2.41
   4  -9   0   49.33    2.23
   4  -9   0   51.78    2.73
  -9   5   0   51.10    2.44
   9  -5   0   52.06    2.48
  -5  -4   0   43.54    2.37
  -9   5   0   46.94    2.40
   4  -9   0   48.79    2.57
   9  -5   0   48.51    1.74
  -5  -4   1   10.35    0.97
   4  -9  -1   14.02    1.38
   4  -9  -1   12.06    0.89
   4  -9   1   11.28    1.00
   9  -5   1   12.86    0.74
  -5  -4  -1   12.71    1.03
   9  -5   1   12.77    1.05
   9  -5  -1   12.51    1.12
   9  -5   1   13.20    1.18
  -9   5  -1   13.25    1.13
  -5  -4   1   13.75    1.09
  -5  -4  -1   13.64    1.24
   9  -5  -1   12.33    0.59
   9  -5   1   11.35    0.98
  -9   5   1   11.57    1.21
   4  -9  -1   13.07    1.22
  -9   5  -1    9.71    0.97
  -5  -4  -1   12.66    1.14
  -9   5   1   12.28    1.12
  -9   5   1   13.08    0.98
  -9   5   2   11.03    1.25
   4  -9  -2   10.64    0.79
   4  -9   2   11.23    1.05
  -5  -4   2   10.19    0.93
   4  -9   2   10.93    0.63
   9  -5   2   10.22    0.96
   9  -5  -2   12.42    1.06
  -5  -4   2   11.50    0.88
   5   4  -2   12.81    1.05
  -5  -4  -2   12.98    1.32
   9  -5   2   11.04    0.80
   9  -5  -2   11.84    0.61
  -9   5  -2   10.39    1.05
  -5  -4  -2    9.03    1.09
   9  -5   2   10.41    0.87
   4  -9  -2   11.44    1.14
  -9   5   2   12.03    0.95
  -9   5  -2   11.57    0.92
  -5  -4   2   13.97    1.23
  -5  -4  -2   10.28    0.83
   4  -9  -3   10.38    1.15
   4  -9   3   10.61    1.06
   5   4   3   11.12    1.11
   9  -5  -3   11.70    1.02
  -5  -4   3    7.92    0.66
   9  -5   3   10.48    0.94
   5   4  -3   10.33    0.95
   9  -5  -3    9.45    0.66
  -5  -4  -3    9.77    1.22
  -5  -4  -3    9.27    1.12
   9  -5   3   11.76    0.96
   4  -9   3    9.22    0.69
   9  -5   3   10.03    0.79
  -9   5   3   11.27    0.93
  -5  -4   3   12.86    1.23
  -5  -4  -3   10.69    0.75
   4  -9   3   10.02    1.16
   4  -9   4   35.82    2.04
   5   4   4   32.09    1.98
  -4   9   4   31.47    2.43
   4  -9   4   29.36    1.93
  -5  -4   4   26.99    1.08
   9  -5  -4   35.00    1.72
   5   4  -4   31.58    1.71
  -5  -4  -4   34.50    2.32
  -5  -4   4   27.76    1.68
   9  -5   4   31.48    1.77
  -5  -4  -4   33.28    2.14
   9  -5   4   30.76    1.41
  -9   5   4   31.53    1.69
   4  -9  -4   31.87    1.17
   4  -9  -4   29.41    1.98
  -5  -4  -4   31.11    1.29
  -5  -4   4   32.44    2.05
   4  -9   4   33.45    2.03
  -4   9  -4   32.29    1.52
  -9   5   5    3.72    0.76
   4  -9   5    3.43    0.85
  -5  -4   5    3.92    0.94
  -4   9  -5    5.08    0.70
   4  -9   5    3.47    0.87
  -5  -4   5    2.69    0.67
   5   4   5    5.33    1.03
   9  -5   5    5.29    0.86
   5   4  -5    3.61    0.67
   4  -9   5    4.05    0.83
   9  -5  -5    3.95    0.66
  -9   5   5    5.01    0.79
  -5  -4  -5    4.36    1.09
  -4   9   5    3.83    1.09
   9  -5   5    3.89    0.43
   4  -9  -5    4.05    0.88
  -9   5   6    6.38    0.90
   4  -9   6    6.15    1.00
  -5  -4   6    4.48    1.04
   5   4   6    5.65    1.07
  -9   5   6    5.94    0.94
   5   4  -6    7.37    0.86
   9  -5   6    6.34    1.02
   9  -5  -6    8.31    0.80
  -4   9   6    4.19    1.24
  -5  -4  -6    4.38    1.13
   4  -9  -6    4.75    1.05
  -9   5   7    1.11    0.71
  -5  -4   7    1.44    0.92
   4  -9   7    1.58    0.80
   5   4   7   -0.36    0.83
   4  -9   7    0.64    0.85
  -5  -4   7    0.31    0.78
   5   4  -7    1.74    0.61
  -4   9   7   -0.27    1.04
   9  -5   7    1.78    0.87
   4  -9  -7    1.30    0.76
  -9   5   8    6.94    1.07
   5   4   8    7.09    1.41
  -5  -4   8    5.69    1.21
   9  -5   8    7.10    1.32
  -4  -5   0  167.68    6.04
   5  -9   0  158.75    5.71
   5  -9   0  170.37    6.32
   9  -4   0  173.79    6.03
  -9   4   0  170.73    6.05
  -4  -5   0  165.42    6.00
   5  -9   0  171.07    5.72
  -9   4   0  164.40    5.96
  -9   4   1    0.24    0.61
   5  -9  -1   -0.25    0.54
  -9   4  -1    0.08    0.42
   9  -4   1   -0.07    0.11
   5  -9  -1    0.41    0.38
   5  -9   1    0.09    0.45
  -4  -5   1    0.45    0.54
   5  -9  -1   -0.27    0.73
  -4  -5   1   -0.21    0.44
  -4  -5  -1    0.08    0.48
   9  -4   1    0.58    0.46
   9  -4  -1   -0.29    0.46
   9  -4   1   -0.23    0.54
  -4  -5   1    0.18    0.42
  -4  -5  -1   -0.24    0.54
   5  -9   1    0.27    0.62
   9  -4   1   -0.01    0.12
  -9   4   1    1.20    0.57
   5  -9   1   -0.06    0.30
  -9   4  -1    0.10    0.51
  -4  -5  -1   -0.24    0.60
  -9   4   2    2.63    0.77
   5  -9  -2    5.71    0.90
   5  -9   2    4.37    0.78
  -9   4  -2    3.93    0.55
  -4  -5  -2    3.18    0.56
   5  -9  -2    4.68    0.90
  -4  -5   2    4.17    0.77
  -9   4   2    3.60    0.65
   5  -9   2    4.32    0.72
  -4  -5  -2    4.23    0.73
   9  -4   2    1.89    0.56
   9  -4   2    3.93    0.45
   9  -4  -2    3.22    0.62
   9  -4   2    3.90    0.77
  -4  -5   2    3.60    0.68
  -4  -5   2    2.91    0.54
  -4  -5  -2    3.40    0.75
  -4  -5  -2    4.47    0.89
   5  -9  -3    0.54    0.59
  -4  -5  -3   -0.07    0.40
   5  -9   3    0.13    0.54
  -9   4   3   -0.09    0.47
  -4  -5   3    0.25    0.66
   5  -9   3    0.33    0.54
  -5   9  -3    0.04    0.29
  -9   4  -3   -1.26    0.75
   9  -4   3   -0.07    0.33
   9  -4   3   -0.37    0.45
   9  -4  -3    0.40    0.44
  -4  -5   3   -0.18    0.32
  -4  -5  -3    0.31    0.66
  -4  -5  -3    0.14    0.59
   4   5   3    0.13    0.52
   5  -9   4   91.09    3.79
   4   5   4   87.91    3.91
  -9   4  -4   89.62    4.35
   9  -4  -4   90.42    3.30
  -4  -5   4   82.46    2.88
   4   5  -4   87.02    3.36
  -4  -5  -4   92.08    4.21
  -4  -5   4   81.25    3.31
   9  -4   4   82.99    3.41
  -4  -5  -4   92.05    4.12
   5  -9  -4   82.44    3.85
  -9   4   4   89.75    3.57
  -4  -5   4   89.02    3.84
  -4  -5  -4   85.93    3.15
  -5   9  -4   88.62    3.16
   5  -9   4   93.53    3.89
   5  -9   5    0.13    0.68
  -9   4   5    0.10    0.60
  -4  -5   5   -0.14    0.69
  -5   9  -5   -0.14    0.43
   5  -9   5    0.66    0.62
  -4  -5   5   -0.08    0.51
   4   5   5    0.31    0.69
  -9   4   5    0.08    0.43
   4   5  -5   -0.08    0.44
   9  -4  -5    0.37    0.39
   9  -4   5    0.22    0.51
  -4  -5  -5    0.19    0.70
  -5   9   5   -0.22    0.78
  -4  -5  -5    0.05    0.32
   5  -9  -5    0.15    0.65
  -9   4   6    0.11    0.56
   5  -9   6    0.68    0.61
  -4  -5   6   -0.15    0.66
  -9   4   6    0.85    0.58
   4   5   6    1.05    0.85
   4   5  -6    0.15    0.46
   9  -4   6    0.79    0.70
  -5   9   6    0.73    1.03
  -4  -5  -6    0.21    0.76
   5  -9  -6    0.48    0.71
  -9   4   7   -0.25    0.75
  -4  -5   7   -0.64    0.87
   5  -9   7   -0.28    0.70
   5  -9   7    0.62    0.78
  -4  -5   7    0.17    0.87
   4   5   7   -0.19    0.85
  -9   4  -7   -0.98    1.06
   4   5  -7   -0.15    0.47
  -5   9   7   -0.79    1.11
   9  -4   7   -0.15    0.77
   5  -9  -7   -0.34    0.84
  -4  -5   8   17.42    1.88
   9  -4   8   14.26    1.66
  -9   4   8   18.29    1.63
   5  -9   8   16.61    1.60
  -3  -6   0   79.12    3.54
   6  -9   0   89.05    3.72
   6  -9   0   76.25    3.14
  -3  -6   0   83.92    3.23
   9  -3   0   74.00    3.34
   9  -3   0   80.97    3.41
  -9   3   0   89.36    3.53
  -9   3   0   84.08    3.42
  -9   3   1    4.09    0.77
  -9   3  -1    5.56    0.71
   6  -9   1    4.66    0.84
  -3  -6  -1    5.18    0.88
  -3  -6  -1    4.57    0.73
   6  -9   1    5.28    0.57
   6  -9   1    4.70    0.72
  -3  -6   1    3.83    0.72
   6  -9  -1    3.82    0.81
   6  -9  -1    6.44    0.82
  -3  -6   1    4.80    0.85
  -3  -6  -1    3.99    0.64
  -9   3  -1    3.99    0.88
   9  -3   1    5.50    0.78
   9  -3  -1    3.63    0.67
   9  -3   1    4.75    0.78
   6  -9   1    5.06    0.94
   6  -9  -2    2.53    0.72
   6  -9  -2    2.66    0.63
   6  -9   2    1.72    0.67
  -9   3  -2    2.62    0.44
   6  -9  -2    2.76    0.77
  -3  -6  -2    2.36    0.56
  -3  -6   2    2.34    0.71
   6  -9   2    0.90    0.53
  -9   3   2    1.10    0.57
  -9   3  -2    0.97    0.66
  -3  -6  -2    4.56    0.67
   9  -3   2    1.61    0.60
   9  -3  -2    1.66    0.49
   9  -3   2    2.09    0.69
  -3  -6   2    2.16    0.63
  -3  -6  -2    1.70    0.68
   9  -3   2    1.69    0.28
  -9   3   2    2.22    0.79
   6  -9  -3    3.22    0.81
  -3  -6  -3    2.46    0.55
   6  -9   3    3.25    0.77
  -3  -6   3    2.85    0.73
  -9   3   3    3.95    0.82
  -6   9  -3    3.50    0.44
   6  -9   3    3.40    0.75
   6  -9   3    3.17    0.22
  -9   3  -3    4.59    1.01
   9  -3   3    4.71    0.73
   9  -3  -3    3.72    0.62
  -3  -6  -3    4.86    0.92
   9  -3   3    3.19    0.48
  -3  -6  -3    3.85    0.86
   6  -9  -3    3.61    0.80
   6  -9   4   45.24    2.46
   3   6   4   47.96    2.73
  -9   3  -4   51.62    3.05
   9  -3  -4   49.04    2.02
  -3  -6   4   43.17    1.87
  -3  -6  -4   48.67    2.86
  -3  -6   4   45.48    2.05
   9  -3   4   47.30    2.17
   6  -9  -4   46.26    2.64
  -3  -6   4   52.33    2.61
  -9   3   4   52.77    2.49
  -3  -6  -4   43.61    2.07
  -6   9  -4   47.98    1.96
   6  -9   4   47.20    2.52
   6  -9   5    1.94    0.76
  -3  -6   5    2.30    0.72
  -9   3   5    0.81    0.65
  -6   9  -5    1.22    0.47
   6  -9   5    1.56    0.70
  -9   3   5    1.28    0.45
  -9   3  -5    1.47    0.71
   3   6   5    0.68    0.77
   9  -3  -5    1.30    0.38
  -3  -6  -5    3.79    1.04
   9  -3   5    1.96    0.60
  -6   9   5    2.95    1.03
   6  -9  -5    2.51    0.89
  -3  -6  -5    1.88    0.50
   6  -9   6    2.12    0.73
  -3  -6   6    2.78    0.87
  -9   3   6    2.11    0.79
  -6   9  -6    1.82    0.59
   3   6   6    1.68    0.96
  -6   9   6    2.57    1.13
   9  -3   6    2.38    0.68
   6  -9  -6    2.16    0.84
  -3  -6   7   -0.31    0.80
  -9   3   7    0.66    0.80
   6  -9   7    0.54    0.73
   6  -9   7    1.67    0.88
   3   6   7   -1.84    1.01
  -9   3  -7    0.49    1.07
  -6   9   7   -0.25    1.02
  -3  -6  -7    0.68    1.03
   9  -3   7    0.30    0.76
   6  -9  -7   -0.54    0.89
  -9   3   8   12.68    1.40
   6  -9   8   11.13    1.34
  -3  -6   8    8.37    1.56
   9  -3   8    9.31    1.36
  -9   2   0    3.54    0.70
   7  -9   0    3.89    0.80
  -2  -7   0    1.96    0.71
  -2  -7   0    2.57    0.62
  -7   9   0    3.03    0.57
   7  -9   0    2.54    0.75
  -2  -7   0    3.58    0.63
   9  -2   0    3.48    0.72
  -9   2   0    3.15    0.78
   9  -2   0    2.93    0.68
   7  -9   0    4.18    0.64
  -2  -7  -1   24.53    1.77
   7  -9  -1   21.17    1.59
  -2  -7   1   24.04    1.72
  -7   9   1   21.81    1.31
   7  -9   1   26.03    1.76
   9  -2  -1   22.08    1.52
  -9   2  -1   20.34    1.66
  -2  -7  -1   23.27    1.42
   9  -2   1   20.56    1.49
   7  -9  -1   25.39    1.52
   9  -2  -1   23.99    1.49
   9  -2   1   23.38    1.62
  -9   2   1   24.75    1.68
  -9   2  -1   21.38    1.33
   7  -9   1   21.58    1.58
  -2  -7   1   22.48    1.51
  -2  -7  -1   23.07    1.52
   7  -9  -2   52.29    2.64
   7  -9  -2   51.96    2.48
  -7   9   2   50.26    2.15
  -2  -7   2   50.37    2.61
  -9   2  -2   48.67    2.80
  -2  -7  -2   49.28    2.28
   9  -2   2   43.01    2.37
   9  -2  -2   55.02    2.31
  -9   2   2   47.19    2.64
   7  -9   2   48.78    2.55
  -9   2  -2   50.98    2.03
  -2  -7   2   56.34    2.56
  -7   9  -2   48.51    1.70
  -2  -7  -2   49.03    2.39
  -9   2   2   54.56    2.56
  -2  -7  -2   50.33    2.80
   9  -2   3   15.25    0.88
   7  -9  -3   15.15    1.30
  -7   9   3   14.91    0.95
   7  -9   3   13.45    0.71
   9  -2  -3   15.46    1.04
  -9   2  -3   13.91    1.52
   7  -9  -3   13.91    1.40
  -7   9  -3   15.02    0.82
  -2  -7   3   16.99    1.36
  -2  -7  -3   14.17    1.12
   7  -9   3   18.55    1.44
  -9   2   3   14.11    1.30
   7  -9  -3   14.94    1.40
  -2  -7  -4    4.11    0.67
   7  -9   4    4.94    0.92
  -2  -7   4    3.55    0.87
  -7   9  -4    4.62    0.56
  -9   2   4    3.39    0.82
   7  -9   4    3.50    0.81
   7  -9  -4    4.57    0.91
  -9   2  -4    4.57    1.01
   9  -2  -4    3.05    0.49
   2   7   4    1.21    0.82
  -2  -7   4    3.48    0.53
   9  -2   4    3.46    0.60
   7  -9  -4    3.38    0.83
  -2  -7  -5    8.45    0.89
   7  -9   5   10.27    1.12
  -2  -7   5    7.86    1.12
  -9   2   5    7.71    1.10
   7  -9   5    9.31    1.16
   7  -9  -5    7.95    1.13
  -9   2  -5    6.46    1.26
   2   7   5    6.55    1.24
  -2  -7  -5    6.49    1.14
  -7   9   5    5.58    1.16
  -7   9  -5    8.14    0.80
   9  -2   5    8.27    0.92
   7  -9  -5    9.41    1.27
  -2  -7   6   13.56    1.43
   2   7   6   16.50    1.80
  -9   2  -6   13.36    1.82
  -7   9   6   19.69    2.03
   7  -9  -6   18.35    1.74
  -9   2   6   18.25    1.54
   9  -2   6   16.76    1.44
   7  -9   6   18.16    1.50
   7  -9  -6   16.92    1.59
  -2  -7   7    3.13    1.06
   7  -9   7    2.59    0.87
  -9   2   7    3.86    1.00
   7  -9   7    3.16    1.00
   7  -9  -7    1.25    0.86
   2   7   7    1.95    1.08
  -7   9   7    2.66    1.24
  -2  -7  -7    2.51    1.12
   9  -2   7    2.56    0.86
   7  -9   8    0.79    0.81
   9  -2   8    1.47    0.89
   8  -9   0    1.78    0.64
  -1  -8   0    3.13    0.69
  -1  -8   0    1.98    0.57
  -8   9   0    1.73    0.57
   8  -9   0    0.91    0.60
  -1  -8   0    2.44    0.55
  -9   1   0    1.40    0.63
   9  -1   0    1.25    0.57
   9  -1   0    0.85    0.57
  -9   1   0    0.93    0.53
   8  -9  -1    8.28    1.05
  -9   1  -1    6.63    0.77
   8  -9   1    5.87    0.91
  -1  -8  -1    8.86    1.03
   8  -9  -1    7.80    1.01
  -1  -8   1    8.33    0.89
  -8   9   1    6.96    0.86
  -1  -8   1    9.09    0.80
  -1  -8  -1    9.60    0.92
   8  -9  -1    7.46    0.87
  -9   1   1    5.49    0.84
  -9   1  -1    6.38    0.99
   9  -1   1    7.38    0.94
   8  -9   1    8.02    1.01
   9  -1  -1    8.47    0.92
   9  -1   1    7.38    1.00
  -9   1   1    7.95    1.03
  -8   9   2   41.18    1.99
  -9   1  -2   42.19    2.56
   9  -1   2   40.83    2.28
   9  -1  -2   45.86    2.11
   8  -9  -2   42.42    2.27
  -9   1   2   43.47    2.49
  -8   9  -2   43.43    1.57
  -1  -8   2   43.49    2.22
   8  -9   2   45.83    2.37
  -9   1  -2   43.80    1.81
  -1  -8  -2   44.17    2.32
  -9   1   2   49.07    2.49
   8  -9  -2   44.24    2.35
   8  -9   3    6.04    0.90
  -1  -8  -3    5.97    0.86
  -8   9  -3    5.44    0.53
  -1  -8   3    5.03    0.83
   8  -9  -3    5.30    0.90
  -9   1   3    6.37    0.98
  -8   9   3    5.25    0.67
   9  -1   3    5.16    0.54
   8  -9   3    4.50    0.50
  -9   1  -3    6.24    1.10
   8  -9  -3    3.88    0.84
  -1  -8  -4    1.50    0.59
   8  -9   4    1.06    0.66
  -8   9  -4    1.84    0.44
  -1  -8   4    1.43    0.62
   9  -1   4    0.87    0.46
  -9   1   4    3.06    0.74
  -8   9   4    1.56    0.46
  -9   1  -4    1.89    0.85
   8  -9  -4    1.82    0.74
   8  -9  -4    1.75    0.79
  -1  -8  -5    1.83    0.66
   9  -1   5    1.93    0.61
   8  -9   5    4.02    0.82
  -1  -8   5    1.58    0.79
  -8   9  -5    1.57    0.50
  -9   1   5    3.99    0.92
  -8   9   5    2.57    0.52
  -9   1  -5    1.45    0.93
   1   8   5    4.08    1.14
   8  -9  -5    2.09    0.80
   8  -9  -5    2.72    0.91
   8  -9  -6   14.45    1.53
  -9   1  -6   12.95    1.75
   1   8   6   18.10    1.93
  -8   9   6   10.96    1.56
  -1  -8   6   16.03    1.53
  -9   1   6   18.34    1.59
  -1  -8  -6   14.18    1.28
   8  -9   6   14.64    1.35
   8  -9  -6   15.10    1.67
   9  -1   6   12.67    1.27
  -1  -8   7    1.24    0.89
   8  -9   7    0.71    0.66
  -9   1   7    1.37    0.86
  -8   9   7    1.80    1.07
   9  -1   7   -0.42    0.71
   9  -1   8    0.96    0.82
   9  -9   0    5.56    0.90
   0  -9   0    5.46    0.91
   0  -9   0    5.19    0.71
   9  -9   0    4.50    0.81
   0  -9   0    5.79    0.73
  -9   0   0    7.44    1.01
  -9   0   0    6.59    0.87
   9  -9   1    6.41    0.96
   0  -9  -1    5.64    0.95
   0  -9   1    6.40    0.95
   9  -9  -1    7.02    0.92
   0  -9   1    6.29    0.80
   0  -9   1    7.45    0.77
  -9   0   1    5.56    0.87
  -9   0  -1    5.24    0.99
   9  -9   1    6.82    0.92
   0  -9  -1    6.15    0.78
   9   0   1    7.80    0.98
  -9   9  -1    6.05    0.39
   0  -9  -1    7.80    0.81
  -9   0   1    5.43    0.94
  -9   0  -1    6.91    0.82
   9  -9  -1    5.34    0.96
  -9   9   2   21.53    1.43
   9  -9   2   22.73    1.62
   9   0  -2   21.12    1.60
  -9   0  -2   22.91    1.81
  -9   9  -2   23.28    1.01
   9  -9  -2   20.19    1.69
   0  -9   2   20.78    1.42
   9  -9   2   20.92    1.56
   0  -9  -2   21.99    1.65
   0  -9   2   19.73    1.60
  -9   0   2   24.56    1.77
   9  -9  -2   20.96    1.54
   9  -9   3    5.53    0.89
   0  -9  -3    4.07    0.84
  -9   9  -3    4.02    0.52
   0  -9   3    4.08    0.82
  -9   0   3    3.64    0.89
  -9   9   3    3.48    0.72
   0  -9  -3    5.15    0.57
   9   0  -3    4.00    0.87
   9  -9   3    3.63    0.53
  -9   0  -3    4.32    1.02
   9   0   3    4.43    0.53
   9  -9  -3    5.30    0.95
   9  -9  -3    3.73    0.79
   9  -9  -4    3.50    0.91
   0  -9  -4    3.05    0.79
   9  -9   4    3.73    0.81
  -9   9  -4    3.99    0.57
   0  -9   4    3.12    0.76
  -9   0   4    4.65    0.96
  -9   9   4    3.61    0.65
   9   0   4    3.93    0.63
   9   0  -4    3.04    0.81
  -9   0  -4    3.60    0.98
   0  -9  -5    1.72    0.75
   9  -9   5    2.56    0.72
   0  -9   5    1.14    0.73
  -9   9  -5    2.01    0.58
  -9   0   5    1.79    0.85
   9   0   5    3.37    0.72
  -9   0  -5    1.66    0.88
   9  -9  -5    1.43    0.76
   0   9   5    3.75    1.24
   9  -9  -5    1.96    0.96
   9  -9   6    8.41    1.06
   0  -9   6    8.49    1.19
  -9   0   6    5.74    1.17
   9   0   6    5.63    0.92
   9  -9  -6    8.02    1.23
  -9   0  -6    7.68    1.44
   0   9   6    8.47    1.53
   0  -9  -6    5.87    1.02
   0  -9   7    0.90    0.83
   9   0   7    1.66    0.84
  -9   9   7   -0.42    0.97
   1 -10   0    6.34    1.04
   1 -10   0    5.12    0.65
  10  -9   0    4.59    0.78
   1 -10   0    4.13    0.73
  -9  -1   0    4.19    0.87
   1 -10   0    4.32    0.67
 -10   9   0    4.79    0.37
 -10   9   0    4.73    0.38
  -9  -1   0    4.41    0.82
  10  -9   0    4.78    0.87
  10  -9  -1    6.19    0.87
   1 -10  -1    7.97    1.12
   1 -10   1    5.59    1.00
   1 -10   1    5.97    0.75
   1 -10  -1    5.45    0.68
   1 -10  -1    6.07    0.75
   1 -10   1    4.85    0.83
  10  -9   1    6.90    0.88
   1 -10   1    6.89    0.73
  -9  -1   1    7.71    0.94
   9   1  -1    6.11    0.95
  -9  -1  -1    6.83    1.05
   1 -10  -1    6.15    0.77
 -10   9   1    5.50    0.31
 -10   9  -1    5.99    0.49
 -10   9   1    6.02    0.32
  -9  -1   1    6.88    1.01
  10  -9  -1    6.76    1.08
  10  -9   1    7.78    1.04
   1 -10  -2   12.13    1.29
   1 -10   2   11.00    1.33
   1 -10  -2   10.66    0.89
  -9  -1   2   13.73    1.44
  10  -9   2   13.25    1.20
   1 -10   2    9.19    1.09
  10  -9   2   10.83    0.93
  -9  -1   2   11.14    1.04
   9   1  -2   11.94    1.18
  -9  -1  -2   11.08    1.39
 -10   9   2    8.86    0.40
 -10   9  -2   10.19    0.71
   1 -10   2   13.53    1.04
  10  -9   2   13.92    1.27
  10  -9  -2   11.03    1.08
   1 -10  -2   11.65    0.90
  10  -9  -2    9.33    1.20
  10  -9   3    5.92    0.90
 -10   9  -3    3.62    0.56
   1 -10  -3    4.44    0.95
   1 -10   3    4.37    0.77
   1 -10   3    2.93    0.84
  -9  -1   3    4.72    1.01
   1 -10  -3    3.45    0.53
   1 -10   3    4.31    0.87
   9   1  -3    3.75    0.84
  10  -9   3    2.90    0.58
  -9  -1  -3    2.63    0.94
 -10   9   3    4.84    0.35
  10  -9  -3    5.08    0.85
  10  -9  -3    3.52    0.94
  10  -9   4    3.16    0.79
   1 -10  -4    3.44    0.95
   1 -10   4    3.02    0.77
  -9  -1   4    2.99    0.92
   1 -10   4    1.86    0.87
   9   1  -4    2.27    0.80
  -9  -1  -4    2.13    0.97
  10  -9  -4    4.44    0.81
   9   1   4    3.40    0.67
  10  -9  -4    4.85    1.10
   1 -10  -5    1.94    0.88
  10  -9   5    2.71    0.77
   1 -10   5    3.48    0.90
  -9  -1   5    0.97    0.87
   1 -10   5    3.06    0.95
   9   1   5    2.95    0.72
   9   1  -5    3.80    0.86
  -9  -1  -5    3.60    1.14
  10  -9  -5    2.66    0.92
  10  -9   6    5.15    0.85
   1 -10   6    6.19    1.03
   9   1   6    4.91    0.96
   9   1  -6    4.69    0.98
   1 -10  -6    5.89    1.11
   1 -10   7    1.88    0.92
   2 -10   0    8.54    1.13
  10  -8   0    7.63    0.84
   2 -10   0    8.75    0.93
  -8  -2   0    6.46    0.97
   2 -10   0    6.73    0.73
   2 -10   0    8.09    0.67
 -10   8   0    9.13    0.69
  10  -8   0    7.40    1.02
   2 -10  -1    3.42    0.85
   2 -10   1    4.08    0.93
   2 -10   1    2.38    0.53
   2 -10  -1    3.77    0.50
 -10   8   1    4.46    0.49
   2 -10  -1    3.35    0.61
   2 -10   1    3.61    0.72
  10  -8   1    3.03    0.65
   2 -10   1    2.73    0.50
  -8  -2   1    2.82    0.68
   8   2  -1    3.28    0.78
  -8  -2  -1    4.46    0.90
  -8  -2  -1    4.55    0.72
  10  -8  -1    5.05    0.71
  10  -8  -1    2.89    0.82
  10  -8   1    4.37    0.84
   2 -10   2    9.77    1.21
   2 -10  -2   12.70    0.93
   2 -10   2   14.51    1.26
  10  -8   2   14.30    1.16
  10  -8   2   10.60    0.98
  -8  -2   2   11.60    1.01
   8   2  -2   14.38    1.26
  -8  -2  -2   14.04    1.43
 -10   8  -2   15.07    0.92
   2 -10   2   13.37    0.99
  10  -8  -2   14.39    1.42
 -10   8   2   14.62    0.81
  10  -8   2   12.47    1.18
  10  -8  -2   11.55    1.02
   2 -10  -2   14.43    1.39
   2 -10  -2   12.17    0.81
   2 -10  -3    1.95    0.70
   2 -10   3    2.08    0.57
 -10   8   3    2.96    0.46
   2 -10   3    3.20    0.81
   2 -10  -3    2.95    0.48
   2 -10   3    1.84    0.71
   8   2  -3    3.04    0.77
  10  -8   3    2.49    0.55
  -8  -2  -3    1.87    0.79
  10  -8  -3    3.64    0.71
  10  -8  -3    3.73    0.94
 -10   8  -3    2.48    0.54
  10  -8   3    4.23    0.74
  10  -8   4    6.21    0.84
 -10   8  -4    6.09    0.77
   2 -10  -4    4.91    0.99
 -10   8  -4    6.19    0.78
   2 -10   4    4.89    0.79
 -10   8   4    5.92    0.64
   2 -10   4    4.00    0.90
   8   2  -4    4.94    0.85
  10  -8  -4    5.94    0.81
  -8  -2  -4    5.09    1.16
   8   2   4    5.89    0.82
   2 -10  -5    0.29    0.65
  10  -8   5    1.67    0.62
 -10   8   5    1.21    0.50
   2 -10   5    0.53    0.59
   2 -10   5    2.00    0.88
   8   2   5    0.79    0.64
   8   2  -5    0.71    0.66
  -8  -2  -5    1.24    0.89
   2 -10   6    4.53    0.95
  10  -8   6    4.71    1.13
   8   2   6    6.37    1.03
   8   2  -6    5.32    0.96
   2 -10  -6    5.14    0.97
   8   2   7    0.45    0.80
  10  -8   7    0.75    0.97
   8   2  -7    0.12    0.71
   2 -10  -7    0.60    0.81
   2 -10   7    0.40    0.76
   3 -10   0    5.98    1.03
 -10   7   0    8.07    1.07
  10  -7   0    7.13    0.68
   3 -10   0    5.41    0.77
  -7  -3   0    9.40    1.03
  -7  -3   0    6.75    0.76
   3 -10   0    7.33    0.47
  10  -7   0    7.49    0.97
   3 -10   1    1.22    0.33
 -10   7  -1    2.19    0.68
   3 -10  -1    3.76    0.85
   3 -10   1    4.33    0.91
   3 -10  -1    1.87    0.26
 -10   7  -1    2.22    0.70
 -10   7   1    2.62    0.51
   3 -10  -1    2.03    0.53
   3 -10   1    2.12    0.58
  10  -7   1    1.20    0.47
  -7  -3   1    1.83    0.60
   3 -10   1    1.95    0.45
   7   3  -1    1.88    0.62
  -7  -3  -1    1.45    0.70
  -7  -3  -1    1.97    0.54
  10  -7  -1    2.05    0.44
  -7  -3   1    2.12    0.50
  10  -7  -1    1.52    0.71
  10  -7   1    2.01    0.63
 -10   7  -2   21.36    1.45
  -7  -3   2   17.49    1.15
   3 -10  -2   19.77    1.15
   3 -10   2   21.87    1.48
  10  -7   2   18.14    1.22
  10  -7   2   18.44    1.30
   3 -10   2   19.67    0.94
  -7  -3   2   18.06    1.18
  -7  -3  -2   20.04    1.69
   7   3  -2   17.88    1.39
  -7  -3  -2   19.76    1.37
   3 -10   2   19.73    1.04
  10  -7  -2   20.62    1.15
  10  -7  -2   18.78    1.58
  10  -7   2   18.44    1.35
   3 -10  -2   18.36    0.80
 -10   7   2   22.34    1.21
   3 -10  -2   20.96    1.63
   3 -10   2   20.17    1.63
  -7  -3   2   19.76    1.63
 -10   7  -2   20.72    1.39
   3 -10   3    1.31    0.46
   3 -10  -3    1.97    0.74
  -7  -3  -3    1.04    0.30
 -10   7   3    2.18    0.53
   3 -10  -3    1.67    0.43
  -7  -3   3    1.60    0.76
   3 -10  -3    1.81    0.34
   3 -10   3    3.00    0.73
  -7  -3  -3    2.22    0.75
  -7  -3   3    2.18    0.47
  10  -7   3    1.87    0.56
   7   3  -3    1.53    0.63
  10  -7  -3    1.92    0.48
 -10   7  -3    1.61    0.62
  -7  -3  -3    1.84    0.82
  10  -7   3    2.92    0.61
   3 -10   4    3.96    0.69
   3 -10  -4    5.04    0.98
 -10   7   4    4.73    0.70
   3 -10   4    4.07    0.94
  -7  -3   4    6.51    1.16
   3 -10   4    4.55    0.94
  -7  -3   4    4.90    0.70
  10  -7   4    3.91    0.81
  10  -7  -4    4.82    0.67
   7   3  -4    4.92    0.86
  -7  -3  -4    4.26    1.02
   7   3   4    5.85    0.91
 -10   7  -4    5.53    0.82
 -10   7  -4    6.60    0.80
  10  -7   4    4.96    0.74
 -10   7   5    1.15    0.59
   3 -10   5    0.45    0.70
 -10   7  -5    0.95    0.55
  -7  -3   5    0.31    0.83
   3 -10   5    0.59    0.76
  10  -7   5    0.80    0.73
   7   3   5    1.26    0.71
   7   3  -5    0.55    0.68
  -7  -3  -5    1.02    0.95
  10  -7   5    0.35    0.52
   3 -10   5    1.45    0.61
   3 -10  -5    0.74    0.73
 -10   7   6    6.96    0.87
   3 -10   6    6.82    1.13
  -7  -3   6    8.14    1.32
   3 -10   6    8.82    1.35
   7   3   6    7.38    1.15
  10  -7   6    7.69    1.26
   7   3  -6   10.38    1.13
  -7  -3  -6    7.99    1.46
  -3  10   6    4.97    1.37
   3 -10   6    9.75    1.07
   3 -10  -6    8.28    1.22
 -10   7   7    0.47    0.66
   7   3   7   -0.16    0.85
  10  -7   7    0.87    0.90
   7   3  -7    0.43    0.65
   3 -10  -7    0.16    0.81
   3 -10   7    0.37    0.71
   4 -10   0    4.75    0.92
 -10   6   0    5.21    0.88
   4 -10   0    5.67    0.76
  -6  -4   0    5.71    0.84
  10  -6   0    4.09    0.43
  -6  -4   0    3.68    0.69
  10  -6   0    5.09    0.88
   4 -10  -1    1.26    0.68
 -10   6   1    0.54    0.66
   4 -10   1    0.85    0.62
  -6  -4   1    1.10    0.52
 -10   6  -1    1.45    0.60
   4 -10  -1    1.12    0.50
   4 -10   1    1.74    0.62
 -10   6   1    1.14    0.50
  -6  -4   1    1.50    0.77
  10  -6   1    1.50    0.37
  10  -6   1    0.80    0.50
  10  -6  -1    0.80    0.58
  -6  -4   1    1.35    0.49
  10  -6  -1    1.17    0.28
  -6  -4  -1    2.63    0.74
 -10   6  -1    1.29    0.65
  -6  -4  -1    0.65    0.55
  10  -6   1    1.47    0.57
  -6  -4   2   26.73    1.62
   4 -10  -2   29.48    1.48
   4 -10   2   26.45    1.76
   4 -10   2   28.26    1.25
 -10   6  -2   29.40    1.78
  10  -6   2   31.09    1.75
  10  -6  -2   30.55    1.84
   4 -10   2   29.54    1.21
  -6  -4   2   30.47    1.59
  -6  -4  -2   28.69    2.00
   6   4  -2   29.57    1.76
  10  -6   2   31.70    1.51
  10  -6  -2   28.52    1.21
  -6  -4  -2   32.88    1.95
  10  -6   2   33.38    1.73
   4 -10  -2   31.14    2.03
 -10   6   2   33.46    1.66
  -6  -4   2   34.35    2.11
 -10   6  -2   30.99    1.70
  -6  -4  -2   31.75    1.54
   4 -10  -3    0.72    0.64
  -6  -4  -3    1.09    0.34
   4 -10   3    2.00    0.75
 -10   6   3    2.08    0.61
  -6  -4   3    0.43    0.69
   4 -10   3    1.67    0.71
  10  -6  -3    0.81    0.34
  10  -6   3    0.65    0.48
  10  -6  -3    1.24    0.63
  10  -6   3    0.46    0.49
  -6  -4   3    0.99    0.39
   6   4  -3    0.71    0.57
  -6  -4  -3    0.53    0.58
  -6  -4   3    1.14    0.46
  -6  -4  -3    1.65    0.76
 -10   6  -3    0.80    0.63
  10  -6   3    1.59    0.48
   4 -10   3    0.77    0.37
   4 -10  -4    4.30    0.92
   4 -10   4    2.31    0.78
 -10   6   4    4.22    0.72
  -6  -4   4    5.02    1.06
   4 -10   4    4.47    0.96
  10  -6   4    3.12    0.71
 -10   6  -4    4.23    0.80
  -6  -4  -4    4.47    0.97
  10  -6  -4    3.51    0.74
   6   4  -4    2.82    0.70
  -6  -4  -4    4.57    1.07
   6   4   4    4.31    0.87
  10  -6   4    2.62    0.51
   4 -10   4    3.32    0.54
 -10   6   5    0.18    0.57
   4 -10   5   -0.15    0.68
  -6  -4   5    1.38    0.84
   4 -10   5    0.58    0.72
  10  -6   5    0.73    0.63
   6   4   5    0.14    0.65
   6   4  -5    0.50    0.59
  10  -6  -5    1.54    0.63
  -6  -4  -5    1.21    0.96
 -10   6  -5    0.96    0.61
  10  -6   5    0.81    0.37
   4 -10  -5    1.54    0.81
 -10   6   6   11.57    1.14
   4 -10   6    8.15    1.23
  -6  -4   6   11.29    1.43
   4 -10   6   10.18    1.39
  -6  -4   6   10.29    1.20
   6   4   6    9.41    1.32
  10  -6   6   10.11    1.28
   6   4  -6   10.21    1.07
  -6  -4  -6    9.42    1.60
  -4  10   6    8.66    1.64
   4 -10  -6    9.61    1.31
 -10   6   7    0.11    0.69
   4 -10   7   -0.16    0.78
   6   4   7    1.40    0.92
   6   4  -7   -0.29    0.65
  10  -6   7    0.49    0.82
   4 -10  -7    0.83    0.91
 -10   6   8    2.30    0.86
  10  -6   8    2.72    1.12
  -5  -5   0   20.45    1.50
   5 -10   0   19.55    1.33
  10  -5   0   20.15    1.50
  -5  -5   0   21.80    1.54
   5 -10   0   21.62    1.33
 -10   5   0   18.73    1.46
   5 -10   0   20.71    1.63
 -10   5   1    0.79    0.60
   5 -10  -1    1.82    0.75
 -10   5  -1    0.19    0.48
   5 -10  -1    0.53    0.47
  -5  -5   1    0.53    0.58
   5 -10   1    0.39    0.52
  -5  -5   1    0.26    0.66
 -10   5   1    1.87    0.59
  10  -5   1    0.74    0.56
   5 -10   1    0.50    0.39
  10  -5  -1    0.75    0.58
  10  -5   1    0.83    0.16
  -5  -5   1    0.30    0.49
  -5  -5  -1    0.39    0.56
  -5  -5  -1    0.50    0.62
  10  -5   1    0.86    0.18
   5 -10   2   11.56    1.29
  -5  -5   2   10.99    1.07
  -5  -5   2   11.09    1.19
   5 -10   2    8.27    1.00
  10  -5   2    9.07    0.67
  10  -5   2   11.08    1.05
  10  -5  -2   10.95    1.05
  -5  -5   2   10.41    0.92
  -5  -5  -2   11.47    1.23
  10  -5   2   11.42    0.72
  -5  -5  -2   13.14    1.29
   5 -10  -2   13.57    1.35
 -10   5   2   10.41    0.98
 -10   5  -2   10.77    0.93
  -5  -5  -2   12.45    0.96
   5 -10  -3    0.88    0.72
  -5  -5  -3    0.93    0.44
   5 -10   3    1.14    0.68
 -10   5   3    0.76    0.60
  -5  -5   3    1.10    0.70
   5 -10   3    0.48    0.67
  10  -5   3    0.33    0.38
  10  -5   3    0.39    0.53
  10  -5  -3    0.92    0.51
  -5  -5   3    0.66    0.39
  -5  -5  -3    1.31    0.71
  -5  -5   3    0.31    0.50
  -5  -5  -3    0.15    0.68
   5 -10  -4   13.13    1.39
   5 -10   4   12.33    1.37
   5 -10   4   13.03    1.35
  -5  -5   4   13.21    1.40
   5   5   4   14.21    1.39
  10  -5  -4   11.86    1.04
   5   5  -4   13.66    1.13
  -5  -5   4   13.37    1.15
  -5  -5  -4    9.99    1.45
  10  -5   4   12.62    1.06
 -10   5   4   13.62    1.17
  -5  -5  -4   12.42    0.84
   5 -10   5   -0.29    0.74
 -10   5   5    0.42    0.63
  -5  -5   5    0.75    0.76
   5 -10   5   -0.57    0.72
  -5  10  -5    0.21    0.44
  10  -5   5    0.43    0.58
  10  -5  -5    0.08    0.46
   5   5  -5    0.09    0.48
   5   5   5   -0.15    0.81
  -5  -5  -5    0.20    0.75
   5 -10  -5    0.96    0.71
 -10   5   6    5.27    0.94
   5 -10   6    4.32    1.00
  -5  -5   6    7.63    1.18
   5 -10   6    4.19    1.05
   5   5   6    4.57    1.09
   5   5  -6    4.40    0.78
  10  -5   6    5.20    0.96
  -5  -5  -6    3.70    1.10
  -5  10   6    3.37    1.24
   5 -10  -6    4.86    1.06
 -10   5   7   -0.12    0.71
   5 -10   7    0.31    0.84
  -5  -5   7    1.59    0.91
   5   5   7   -0.19    0.91
   5   5  -7   -0.17    0.55
  10  -5   7    0.15    0.77
   5 -10  -7   -0.35    0.85
 -10   5   8    4.34    1.02
  10  -5   8    2.59    1.02
  -4  -6   0   26.10    1.76
   6 -10   0   25.65    1.47
  10  -4   0   22.69    1.60
  10  -4   0   25.88    1.69
  -4  -6   0   19.82    1.49
 -10   4   0   23.44    1.60
 -10   4   1    0.65    0.65
   6 -10  -1    0.57    0.62
   6 -10   1    0.14    0.62
 -10   4  -1    0.18    0.43
  -4  -6  -1    0.10    0.47
   6 -10   1    0.12    0.35
   6 -10   1    0.10    0.52
   6 -10  -1    0.49    0.53
  -4  -6   1   -0.25    0.58
  -4  -6   1   -0.12    0.53
  10  -4   1    0.55    0.55
  10  -4  -1   -0.10    0.57
  -4  -6   1    0.40    0.47
  -4  -6  -1    0.51    0.57
  -4  -6  -1    0.54    0.62
   6 -10  -2   10.92    1.27
   6 -10   2    9.29    1.15
 -10   4  -2    7.24    0.77
  10  -4   2    7.33    0.40
  -4  -6   2    9.79    1.14
   6 -10   2    7.95    1.01
 -10   4   2    7.03    0.91
  -4  -6   2    8.28    0.98
  10  -4   2    8.50    0.95
  10  -4  -2    9.29    0.96
  -4  -6   2    7.77    0.81
  -4  -6  -2    7.83    1.06
  -4  -6  -2    6.32    1.07
  -4  -6  -2    8.96    0.90
  10  -4   2    6.88    0.41
   6 -10  -2    7.93    1.01
   6 -10  -3    1.82    0.76
  -4  -6  -3   -0.08    0.42
   6 -10   3    0.42    0.68
  -4  -6   3   -0.27    0.65
 -10   4   3    2.23    0.65
   6 -10   3    0.36    0.64
 -10   4  -3    0.59    0.75
  10  -4   3    0.53    0.54
  10  -4  -3    0.25    0.49
  -4  -6   3    0.35    0.39
  -4  -6  -3    0.48    0.69
  -4  -6   3    0.36    0.53
  10  -4   3    0.32    0.36
   6 -10   4   16.72    1.51
  10  -4  -4   15.48    1.09
  -4  -6  -4   17.01    1.70
 -10   4  -4   14.82    1.76
  -4  -6   4   17.14    1.21
   4   6   4   12.38    1.42
  10  -4   4   14.55    1.10
   6 -10  -4   14.56    1.49
  -4  -6   4   16.04    1.50
 -10   4   4   16.72    1.37
  -4  -6  -4   16.27    1.08
   6 -10   4   16.06    1.46
  -6  10  -4   15.05    0.96
   6 -10   5   -0.58    0.81
 -10   4   5   -0.12    0.61
  -4  -6   5   -0.29    0.74
  -6  10  -5    0.27    0.44
   6 -10   5    0.14    0.70
 -10   4  -5    0.23    0.90
   4   6   5    0.50    0.82
  -4  -6  -5    1.20    0.89
  10  -4   5    1.50    0.63
   6 -10  -5   -0.17    0.71
   6 -10   6    3.66    1.01
 -10   4   6    4.08    0.95
  -4  -6   6    3.76    1.03
   6 -10   6    2.89    0.95
   4   6   6    4.37    1.10
  -4  -6  -6    3.72    1.23
  10  -4   6    4.03    0.85
  -6  10   6    1.00    0.96
   6 -10  -6    2.77    0.95
 -10   4   7    0.79    0.83
   6 -10   7   -0.15    0.80
   4   6   7    0.20    0.98
  10  -4   7   -0.14    0.76
  10  -4   8    4.43    1.09
 -10   3   0    4.77    0.84
   7 -10   0    3.36    0.86
   7 -10   0    5.49    0.74
  -3  -7   0    5.12    0.98
  -3  -7   0    6.53    0.94
  -3  -7   0    4.55    0.76
  10  -3   0    4.92    0.82
  10  -3   0    6.60    0.89
 -10   3   1    1.17    0.63
  -3  -7  -1    1.44    0.72
   7 -10   1    1.65    0.74
 -10   3  -1    1.13    0.53
  -3  -7  -1    1.42    0.62
  -3  -7   1    1.86    0.67
  -3  -7   1    1.70    0.75
  10  -3  -1    0.47    0.57
  10  -3   1    1.04    0.60
  10  -3  -1    0.91    0.53
   7 -10  -1    1.80    0.58
   7 -10  -2   21.56    1.55
  -3  -7   2   19.91    1.61
 -10   3  -2   23.82    1.95
  10  -3   2   20.60    1.54
  10  -3  -2   22.62    1.43
   7 -10  -2   25.32    1.84
   7 -10   2   25.02    1.81
  -3  -7   2   22.16    1.62
 -10   3  -2   22.93    1.26
  -3  -7  -2   22.90    1.53
 -10   3   2   26.13    1.68
  10  -3   3    1.44    0.36
   7 -10   3    2.61    0.81
  -3  -7  -3    1.13    0.49
  -3  -7   3    1.53    0.80
 -10   3   3    1.30    0.68
   7 -10   3    1.45    0.64
  -7  10  -3    1.47    0.34
   7 -10  -3    0.99    0.67
 -10   3  -3    0.77    0.81
  10  -3  -3    0.71    0.48
  -3  -7  -3    0.16    0.62
   7 -10  -3    0.78    0.73
  -3  -7  -4    5.03    0.73
   7 -10   4    4.90    1.04
  -3  -7   4    4.85    0.97
 -10   3   4    2.58    0.77
  -7  10  -4    5.26    0.58
   7 -10  -4    3.10    0.84
   7 -10   4    5.23    0.94
 -10   3  -4    4.57    1.09
  10  -3  -4    4.44    0.63
  -3  -7  -4    5.11    1.05
  -3  -7   4    3.10    0.54
  10  -3   4    3.55    0.60
   7 -10  -4    5.73    1.10
   7 -10   5    1.13    0.79
  -3  -7   5    0.86    0.77
 -10   3   5    0.13    0.66
   7 -10  -5    0.58    0.76
   7 -10   5    1.14    0.80
 -10   3  -5   -0.22    0.86
  -3  -7  -5    0.98    0.89
   3   7   5    1.47    0.94
  10  -3   5    0.46    0.52
   7 -10  -5    0.52    0.76
   7 -10   6    8.85    1.19
  -3  -7   6   11.75    1.45
 -10   3   6    8.34    1.23
   7 -10  -6   10.09    1.35
 -10   3  -6    7.52    1.53
   3   7   6    6.72    1.36
  -3  -7  -6    7.83    1.45
  -7  10   6    9.77    1.67
  10  -3   6    8.26    1.05
   7 -10  -6    8.84    1.45
   7 -10   7    0.15    0.85
 -10   3   7   -0.14    0.82
  10  -3   7   -0.41    0.74
   7 -10   8    1.18    0.94
 -10   2   0   10.07    1.07
   8 -10   0   10.14    1.26
  -2  -8   0    8.06    1.04
  -2  -8   0    7.88    0.97
  -2  -8   0    8.11    0.90
  10  -2   0    8.53    1.07
  10  -2   0    9.08    1.07
   8 -10  -1    0.15    0.63
 -10   2  -1   -0.26    0.49
   8 -10   1    0.14    0.61
  -2  -8  -1    0.24    0.59
  -2  -8   1    0.44    0.59
   8 -10  -1    0.10    0.56
  10  -2  -1    0.25    0.57
 -10   2  -1    0.16    0.68
  10  -2   1    0.49    0.66
  10  -2  -1   -0.20    0.55
 -10   2   1   -0.13    0.61
   8 -10   2   11.96    1.30
  -8  10   2   10.63    0.96
   8 -10  -2    9.97    1.11
  10  -2   2   13.24    1.24
  10  -2  -2   11.49    1.06
 -10   2  -2   11.36    1.40
  -2  -8   2   13.10    1.25
  -2  -8  -2   14.78    1.31
 -10   2   2   14.19    1.32
   8 -10   3    0.14    0.62
  -2  -8  -3   -0.11    0.55
  -2  -8   3    0.86    0.60
  -8  10  -3    0.35    0.29
 -10   2   3    0.26    0.65
  10  -2   3    0.35    0.25
 -10   2  -3   -0.19    0.83
  10  -2  -3    0.23    0.42
   8 -10  -3    0.25    0.58
   8 -10  -3    0.96    0.80
  -2  -8  -4    4.79    0.84
   8 -10   4    5.56    0.98
  10  -2   4    6.06    0.66
  -2  -8   4    4.31    0.91
  -8  10  -4    4.96    0.60
 -10   2   4    5.13    0.99
 -10   2  -4    5.31    1.20
   8 -10  -4    5.89    1.03
   8 -10  -4    5.91    1.14
  10  -2   5   -0.09    0.51
  -2  -8  -5   -0.30    0.54
   8 -10   5    0.14    0.76
  -2  -8   5   -0.85    0.76
 -10   2   5    0.14    0.80
 -10   2  -5   -0.22    0.89
   8 -10  -5    0.15    0.79
  -2  -8  -5   -0.20    0.79
   2   8   5    0.20    0.83
   8 -10  -5   -0.71    0.83
   8 -10   6    5.74    1.12
  -2  -8   6    4.69    1.12
 -10   2   6    5.23    1.07
   8 -10  -6    6.72    1.28
   2   8   6    4.27    1.20
  10  -2   6    4.62    0.87
   8 -10   7    0.68    0.73
  -8  10   7    0.73    1.01
 -10   1   0   22.40    1.79
  -1  -9   0   27.33    1.57
  10  -1   0   25.65    1.77
 -10   1   0   24.68    1.66
   9 -10   0   29.33    1.97
  -1  -9   0   23.92    1.56
  -1  -9   0   24.85    1.81
   9 -10   1    0.14    0.63
  -1  -9  -1    0.54    0.68
  -1  -9   1    0.13    0.60
  -1  -9   1    0.31    0.56
  -1  -9  -1    0.39    0.53
 -10   1  -1    0.31    0.67
  10  -1   1    0.38    0.60
 -10   1   1   -0.65    0.73
   9 -10  -1   -0.15    0.68
   9 -10   2    0.40    0.60
  -1  -9  -2    0.78    0.63
  -1  -9   2    0.11    0.55
  -9  10  -2    0.81    0.18
 -10   1   2    0.98    0.81
   9 -10  -2    0.60    0.64
 -10   1  -2    0.34    0.69
   9 -10  -2    1.09    0.77
   9 -10   3    0.53    0.68
  -1  -9  -3   -0.12    0.65
   9 -10  -3   -0.39    0.69
  -1  -9   3    0.12    0.62
 -10   1   3   -0.28    0.79
  -9  10   3    0.08    0.53
  10  -1  -3    0.39    0.61
 -10   1  -3   -0.37    0.80
  10  -1   4   13.23    0.96
  10  -1  -4   14.59    1.40
   9 -10  -4   14.43    1.50
 -10   1  -4   15.26    1.78
  -1  -9   4   15.44    1.43
   9 -10  -4   19.70    1.80
  -1  -9  -4   16.29    1.35
   9 -10   4   17.37    1.50
 -10   1   4   16.95    1.60
  -1  -9  -5    0.35    0.64
   9 -10   5   -0.52    0.75
  -1  -9   5   -0.55    0.83
 -10   1   5    0.60    0.83
  10  -1   5   -0.17    0.52
   9 -10  -5    0.30    0.79
 -10   1  -5   -0.22    0.89
   9 -10  -5    1.11    1.00
   9 -10   6    0.90    0.78
  -1  -9   6    1.34    0.96
  10 -10   0   13.27    1.28
   0 -10   0   15.85    1.19
 -10   0   0   10.84    1.29
  10 -10   0   16.42    1.50
   0 -10   0   13.04    1.11
   0 -10   0   14.41    1.47
  10 -10   1    1.24    0.75
  10 -10  -1   -0.23    0.63
   0 -10  -1   -0.44    0.74
   0 -10   1   -0.59    0.76
   0 -10   1   -0.57    0.53
   0 -10  -1   -0.26    0.48
 -10   0   1    0.37    0.62
 -10   0  -1   -0.15    0.69
  10   0   1    0.53    0.71
  10 -10  -1    0.15    0.73
  10 -10   2    0.26    0.70
   0 -10  -2    2.70    0.80
   0 -10   2    1.76    0.83
   0 -10   2    1.73    0.67
 -10   0   2    1.22    0.82
   0 -10  -2    1.03    0.56
   0 -10  -2    0.90    0.45
  10 -10   2    1.20    0.52
  10   0  -2    1.46    0.74
 -10   0  -2    1.70    0.89
  10 -10  -2    2.12    0.71
  10 -10  -2    1.92    0.86
  10 -10   3    0.26    0.69
   0 -10  -3   -0.42    0.67
   0 -10   3    0.11    0.60
   0 -10   3   -0.30    0.70
 -10   0   3   -0.77    0.89
  10   0  -3   -0.53    0.67
 -10   0  -3    0.19    0.80
  10 -10  -3    0.67    0.88
  10 -10   4    7.62    1.07
   0 -10  -4    9.47    1.23
   0 -10   4    7.78    1.07
 -10   0   4    7.67    1.26
  10   0  -4   10.45    1.27
 -10   0  -4    7.36    1.38
  10 -10  -4   10.72    1.34
   0 -10  -5    0.13    0.72
  10 -10   5   -0.12    0.69
   0 -10   5    0.13    0.76
  10   0  -5    0.54    0.70
  10 -10   6    0.71    0.78
   0 -10   6    1.43    0.88
   1 -11   0    2.59    0.94
   1 -11   0    2.30    0.69
 -10  -1   0    2.33    0.85
  11 -10   0    3.07    0.85
   1 -11  -1    1.45    0.80
   1 -11   1    2.41    0.93
 -10  -1   1    2.98    0.99
   1 -11  -1    2.27    0.63
   1 -11   1    1.41    0.72
 -10  -1   1    3.58    0.85
 -10  -1  -1    2.17    0.86
  10   1  -1    2.32    0.80
  11 -10  -1    2.48    0.89
  11 -10   1    2.64    0.85
   1 -11  -2    3.77    1.01
   1 -11   2    3.84    1.00
 -10  -1   2    4.79    1.09
   1 -11   2    4.63    0.94
  11 -10   2    3.93    0.69
  10   1  -2    6.56    1.07
 -10  -1  -2    2.24    0.97
  11 -10  -2    5.87    1.17
  11 -10   2    7.01    1.09
   1 -11  -3    1.08    0.79
   1 -11   3    0.96    0.74
 -10  -1   3    1.68    0.91
   1 -11   3    1.51    0.79
  10   1  -3    0.41    0.71
 -10  -1  -3    0.95    0.89
  11 -10  -3    1.04    0.95
  11 -10   3    1.51    0.73
  11 -10   4    1.69    0.76
   1 -11  -4    0.75    0.78
  10   1  -4    1.23    0.88
   1 -11  -5    0.30    0.78
  11 -10   5    0.69    0.69
  11  -9   0   12.01    1.05
   2 -11   0   12.51    1.45
   2 -11   0    9.70    1.04
  -9  -2   0   10.14    1.19
 -11   9   0   10.96    0.73
  11  -9   0    9.32    1.21
   2 -11  -1    0.32    0.72
   2 -11   1    0.16    0.75
 -11   9   1    0.07    0.29
   2 -11  -1    0.25    0.50
   2 -11   1   -0.11    0.58
  11  -9   1    0.09    0.57
  -9  -2   1    0.67    0.65
  -9  -2  -1    0.44    0.68
   9   2  -1    1.42    0.67
  11  -9  -1    0.17    0.51
  11  -9  -1    0.14    0.71
  11  -9   1   -0.51    0.72
   2 -11  -2    2.50    0.92
 -11   9   2    2.33    0.37
   2 -11   2    1.59    0.81
   2 -11  -2    1.92    0.56
   2 -11   2    1.52    0.74
  11  -9   2    2.50    0.62
  -9  -2   2    2.03    0.63
   9   2  -2    2.45    0.77
  -9  -2  -2    2.78    0.91
  11  -9   2    1.47    0.61
  11  -9  -2    1.25    0.77
  11  -9   2    1.93    0.77
   2 -11  -3   -0.46    0.88
   2 -11   3    0.48    0.70
   2 -11   3    0.13    0.67
  11  -9   3   -0.17    0.46
   9   2  -3    0.52    0.70
  -9  -2  -3    0.55    0.81
  11  -9  -3    0.17    0.78
  11  -9   3   -0.11    0.63
   2 -11  -4    5.66    1.14
   2 -11   4    8.25    1.21
   9   2  -4    5.94    1.01
  -9  -2  -4    8.01    1.40
  11  -9   4    6.03    0.89
   2 -11  -5    0.46    0.71
   9   2  -5   -0.77    0.77
  11  -9   5    0.10    0.62
  11  -9   6    1.38    0.91
   2 -11  -6    1.55    0.90
   3 -11   0   28.49    1.73
  -8  -3   0   34.10    2.00
  11  -8   0   33.04    2.04
   3 -11   0   31.56    2.23
 -11   8   0   34.26    1.59
  11  -8   0   27.82    1.54
   3 -11  -1    0.63    0.74
   3 -11   1    0.64    0.72
 -11   8   1   -0.06    0.41
   3 -11  -1    0.66    0.53
   3 -11   1   -0.10    0.56
  11  -8   1    0.51    0.46
  -8  -3   1    0.16    0.82
  11  -8   1   -0.21    0.54
  -8  -3   1    0.83    0.56
  -8  -3  -1    0.29    0.71
  11  -8  -1   -0.06    0.45
  11  -8  -1    0.42    0.75
  11  -8   1    0.47    0.63
   3 -11  -2    0.31    0.74
   3 -11   2    0.16    0.67
 -11   8   2    0.57    0.43
   3 -11  -2    0.41    0.44
  -8  -3   2   -0.16    0.77
   3 -11   2   -0.12    0.60
  11  -8   2    0.59    0.53
  -8  -3   2    0.26    0.48
   8   3  -2   -0.24    0.60
  11  -8   2    0.33    0.46
  -8  -3  -2    0.80    0.84
  11  -8  -2    0.19    0.39
  11  -8  -2   -0.61    0.83
  11  -8   2    0.66    0.62
   3 -11  -3    1.24    0.78
 -11   8   3    0.30    0.41
  -8  -3   3   -0.32    0.79
   3 -11   3    0.38    0.68
  11  -8   3    0.36    0.52
   8   3  -3    0.24    0.65
  -8  -3  -3    0.71    0.78
 -11   8  -3    0.89    0.55
  11  -8   3   -0.10    0.59
   3 -11   4   14.70    1.53
   8   3  -4   17.08    1.47
  -8  -3  -4   15.30    1.84
  11  -8   4   19.67    1.53
 -11   8   4   19.76    1.18
  11  -8   4   18.22    1.34
   3 -11  -4   16.53    1.63
  -8  -3   4   21.15    1.84
  11  -8   5    2.07    0.86
   8   3  -5   -0.12    0.75
   8   3   5    0.59    0.70
   3 -11  -5    0.79    0.82
  11  -8   6    0.31    0.85
   8   3  -6    0.36    0.67
   8   3   6    0.54    0.77
   3 -11  -6    0.48    0.83
  11  -8   7   -0.18    0.92
   8   3  -7   -0.35    0.72
   4 -11   0   11.64    1.43
   4 -11   0   15.24    1.22
  -7  -4   0   15.03    1.32
  11  -7   0   15.94    1.39
  11  -7   0   14.18    0.82
   4 -11  -1    0.62    0.73
   4 -11   1    2.05    0.81
 -11   7  -1    3.59    0.78
  11  -7   1    1.94    0.45
 -11   7   1    1.98    0.56
   4 -11  -1    1.80    0.54
   4 -11   1    2.72    0.73
  -7  -4   1    1.53    0.84
  11  -7   1    2.52    0.70
  -7  -4   1    1.66    0.60
  -7  -4  -1    2.83    0.86
  11  -7  -1    2.35    0.38
  11  -7   1    2.01    0.72
  -7  -4  -2    2.98    0.59
 -11   7   2    1.92    0.58
   4 -11  -2    2.07    0.54
  -7  -4   2    2.15    0.91
   4 -11   2    3.12    0.78
  11  -7   2    2.85    0.59
  11  -7  -2    2.49    0.41
  11  -7   2    2.89    0.75
  11  -7   2    2.77    0.55
  -7  -4   2    3.16    0.64
  -7  -4  -2    3.48    0.97
  11  -7   2    3.59    0.73
   4 -11  -3    0.63    0.73
 -11   7   3    1.78    0.53
  -7  -4   3    1.89    0.84
   4 -11   3    2.42    0.85
  11  -7   3    1.61    0.55
  11  -7   3    2.05    0.64
   7   4  -3    2.15    0.69
  -7  -4  -3    0.18    0.86
  11  -7   3    0.71    0.52
   4 -11  -4   11.60    1.40
   4 -11   4    6.15    1.18
 -11   7   4    9.16    0.94
  -7  -4   4   11.55    1.43
   4 -11   4    8.44    1.20
  11  -7   4   10.93    1.09
   7   4  -4    8.30    1.06
  -7  -4  -4   10.21    1.46
  11  -7   4   10.06    0.94
 -11   7   5    0.95    0.56
   4 -11   5   -0.48    0.75
  -7  -4   5    0.84    0.89
   4 -11   5    1.71    0.87
  11  -7   5    1.35    0.73
   7   4  -5    1.23    0.75
  -7  -4  -5    0.84    0.90
   7   4   5    0.53    0.73
   4 -11  -5    0.49    0.79
 -11   7   6    1.50    0.68
  11  -7   6    1.57    0.80
   7   4  -6    1.75    0.71
   7   4   6    1.79    0.87
   4 -11  -6    2.18    0.90
   7   4   7    0.66    0.85
  11  -7   7   -0.16    0.83
   7   4  -7    0.21    0.67
   5 -11   0    0.16    0.68
 -11   6   0    0.75    0.61
   5 -11   0    0.66    0.55
  -6  -5   0    1.60    0.71
  -6  -5   0    1.15    0.65
   5 -11   0    0.98    0.56
   5 -11  -1    8.85    1.23
  -6  -5   1    7.79    1.01
 -11   6  -1    7.19    0.94
   5 -11  -1    6.43    0.82
   5 -11   1    8.18    0.99
 -11   6   1    7.70    0.90
  -6  -5   1    9.77    1.23
   5 -11   1    7.39    0.77
  11  -6   1    7.05    0.96
  -6  -5   1    7.95    0.94
  -6  -5  -1    7.50    1.03
  -6  -5  -1    8.11    1.06
   5 -11   2   28.32    1.75
  11  -6   2   20.56    1.05
  11  -6   2   19.94    1.49
  -6  -5   2   23.25    1.42
  -6  -5  -2   18.73    1.73
  11  -6   2   22.82    1.10
  -6  -5  -2   23.85    1.75
   5 -11  -2   20.81    1.79
 -11   6   2   25.50    1.52
  -6  -5   2   23.50    1.85
  -6  -5  -2   20.72    1.34
   5 -11  -3    7.65    1.20
   5 -11   3    5.49    1.09
 -11   6   3    7.21    0.91
  -6  -5   3    5.51    1.05
   5 -11   3    5.86    1.00
  11  -6   3    5.81    0.67
  11  -6   3    8.01    0.95
  -6  -5  -3    3.94    1.06
   5 -11  -4    0.82    0.79
   5 -11   4    0.31    0.70
 -11   6   4    0.87    0.62
  -6  -5   4   -0.16    0.81
   5 -11   4    2.09    0.88
  11  -6   4    0.35    0.52
  11  -6  -4    0.77    0.57
  -6  -5  -4    0.19    0.78
   5 -11   5    1.90    0.83
 -11   6   5    3.77    0.83
  -6  -5   5    2.78    0.99
   5 -11   5    3.05    1.01
  11  -6   5    1.94    0.65
   6   5  -5    2.64    0.72
  -6  -5  -5    3.12    1.15
   6   5   5    2.66    0.87
   5 -11  -5    1.68    0.84
 -11   6   6    6.47    0.99
   6   5  -6    7.88    1.00
  11  -6   6    6.39    1.04
   6   5   6    8.51    1.31
   5 -11  -6    5.22    1.17
 -11   6   7    1.27    0.78
   6   5   7    1.07    0.96
  -5  -6   0    0.51    0.68
 -11   5   0    0.24    0.57
   6 -11   0    0.38    0.62
  11  -5   0    0.98    0.59
   6 -11   0    0.62    0.52
  -5  -6   0    0.62    0.59
   6 -11  -1    2.96    0.94
 -11   5  -1    1.73    0.64
   6 -11  -1    1.48    0.68
  -5  -6   1    1.91    0.66
   6 -11   1    2.67    0.73
  -5  -6   1    3.10    0.92
 -11   5   1    2.46    0.72
  11  -5   1    1.54    0.68
  -5  -6   1    2.83    0.72
  -5  -6  -1    2.76    0.81
   6 -11   1    1.43    0.47
  -5  -6  -1    1.25    0.68
  -5  -6   2   22.76    1.68
   6 -11   2   26.53    1.76
  11  -5   2   22.14    1.63
  -5  -6   2   25.64    1.54
  -5  -6  -2   20.92    1.77
   6 -11  -2   25.72    1.72
   6 -11  -2   27.06    2.01
  -5  -6  -2   24.46    1.91
   6 -11   2   23.00    1.87
  -5  -6   2   25.04    1.83
 -11   5   2   25.00    1.62
  -5  -6  -2   26.14    1.57
   6 -11  -3    0.98    0.76
  -5  -6  -3    1.44    0.57
   6 -11   3    1.56    0.82
 -11   5   3    1.73    0.65
  -5  -6   3    2.23    0.82
   6 -11   3    1.79    0.72
  11  -5   3    0.56    0.59
  11  -5  -3    1.54    0.65
  -5  -6   3    0.98    0.45
  -5  -6  -3    1.52    0.77
  11  -5   3    1.58    0.41
   6 -11   4   -0.47    0.78
 -11   5   4    0.44    0.65
  -5  -6   4    0.46    0.77
   6 -11   4    0.28    0.72
  -5  -6  -4    1.12    0.78
  11  -5   4    0.66    0.47
   6 -11  -4    0.67    0.80
   6 -11   5    0.95    0.84
 -11   5   5    1.16    0.73
  -5  -6   5   -0.16    0.79
   6 -11   5    0.15    0.78
  -5  -6  -5    1.44    0.93
  11  -5   5    0.68    0.57
   5   6   5   -0.33    0.79
   6 -11  -5    0.52    0.84
   6 -11   6    7.51    1.29
 -11   5   6    7.92    1.16
   5   6   6   10.13    1.48
  11  -5   6    7.20    1.07
 -11   5   7    0.26    0.82
 -11   4   0    1.75    0.69
  -4  -7   0    0.68    0.77
  11  -4   0    0.76    0.59
  -4  -7   0    1.19    0.56
   7 -11   0    0.71    0.48
   7 -11   1    5.53    1.05
  -4  -7  -1    5.58    0.89
  -4  -7   1    4.95    0.96
 -11   4   1    8.78    1.06
  11  -4  -1    7.83    1.04
  11  -4   1    6.42    0.99
  -4  -7   1    5.24    0.81
  -4  -7  -1    5.15    0.89
   7 -11  -1    7.46    0.96
   7 -11  -2   18.64    1.51
   7 -11   2   16.78    1.45
  11  -4   2   15.61    1.39
  11  -4  -2   19.50    1.41
  -4  -7   2   18.60    1.33
  -4  -7  -2   18.33    1.58
   7 -11  -2   16.48    1.65
   7 -11   2   17.20    1.62
  -4  -7   2   17.24    1.53
  -4  -7  -2   22.17    1.49
 -11   4   2   23.45    1.58
   7 -11  -3    3.50    0.96
   7 -11   3    5.20    1.12
  -4  -7  -3    4.99    0.77
  11  -4   3    4.08    0.37
  -4  -7   3    3.71    0.93
 -11   4   3    3.58    0.85
   7 -11   3    2.85    0.83
   7 -11  -3    5.27    0.98
  11  -4   3    3.68    0.85
  11  -4  -3    4.84    0.75
  -4  -7   3    3.91    0.70
  -4  -7  -3    5.90    1.08
   7 -11   4    0.78    0.77
   7 -11  -4    1.85    0.73
  -4  -7   4    1.63    0.81
 -11   4   4    1.24    0.78
   7 -11   4    1.98    0.91
 -11   4  -4    1.58    0.90
  -4  -7  -4    0.73    0.76
  11  -4   4    1.08    0.45
   7 -11  -4    0.69    0.75
   7 -11  -5    2.58    1.02
   7 -11   5    4.37    1.09
  -4  -7   5    2.33    0.98
 -11   4   5    4.60    0.98
   7 -11   5    2.13    0.92
 -11   4  -5    2.67    1.26
  -4  -7  -5    3.65    1.10
   4   7   5    3.38    1.06
   7 -11  -5    2.70    0.99
   7 -11   6    5.49    1.13
 -11   4   6    7.36    1.18
   4   7   6    6.54    1.35
   8 -11   0    4.65    0.98
  -3  -8   0    2.11    0.76
  -3  -8   0    3.98    0.88
  11  -3   0    2.35    0.79
   8 -11   1    5.36    1.00
  -3  -8  -1    9.65    1.12
  -3  -8   1    9.44    1.18
 -11   3   1   12.35    1.31
  11  -3  -1    5.83    1.06
  11  -3   1    5.92    1.03
   8 -11  -1    7.92    1.00
   8 -11   2    9.44    1.28
  -3  -8  -2   11.11    1.17
   8 -11  -2   10.14    1.16
  -3  -8   2   10.44    1.20
 -11   3   2   11.68    1.27
  11  -3  -2   12.43    1.31
 -11   3  -2    8.90    1.37
  11  -3   2    8.86    1.10
  11  -3  -2    8.33    1.00
   8 -11   3    4.10    1.06
  -3  -8  -3    3.37    0.81
  -3  -8   3    5.43    1.04
 -11   3   3    6.06    1.04
 -11   3  -3    3.90    1.12
  11  -3  -3    5.70    0.79
  -3  -8  -3    4.20    0.94
   8 -11  -3    4.68    0.95
   8 -11  -3    6.84    1.16
   8 -11   4    3.19    0.95
  -3  -8   4    1.71    0.86
 -11   3   4    1.63    0.90
 -11   3  -4    1.99    1.06
   8 -11  -4    2.02    0.83
  -3  -8  -4    3.06    0.94
   8 -11  -4    3.03    1.01
   8 -11   5    2.73    1.05
  -3  -8   5    4.39    1.03
 -11   3   5    4.05    1.02
   8 -11  -5    2.46    0.98
   8 -11   6    3.36    1.00
 -11   3   6    4.94    1.11
  11  -2   0   19.56    1.66
   9 -11   0   24.35    1.90
  -2  -9   0   20.86    1.59
  -2  -9   0   21.28    1.68
   9 -11  -1   -0.16    0.74
   9 -11   1    0.15    0.79
  -2  -9  -1    0.27    0.66
  -2  -9   1    0.95    0.70
  -2  -9   1    0.12    0.62
  -2  -9  -1    0.11    0.66
 -11   2   1    0.71    0.80
 -11   2  -1    1.02    0.80
  11  -2  -1    0.82    0.69
  11  -2   1   -0.40    0.64
   9 -11   2    0.15    0.72
  -2  -9  -2    0.53    0.64
  -2  -9   2   -0.49    0.68
 -11   2   2    0.14    0.76
 -11   2  -2   -0.74    0.83
   9 -11  -2    0.50    0.63
  11  -2   2   -0.27    0.64
  11  -2  -2    0.10    0.56
   9 -11  -2    0.34    0.80
   9 -11   3    0.30    0.70
  -2  -9  -3    0.25    0.65
  -2  -9   3   -1.03    0.79
 -11   2   3   -0.29    0.75
 -11   2  -3   -0.80    0.97
   9 -11  -3    0.41    0.76
  -2  -9  -4    9.95    1.15
   9 -11   4   10.96    1.35
  -2  -9   4   12.11    1.35
 -11   2   4   11.27    1.39
   9 -11  -4   10.67    1.37
  11  -2  -4    9.46    1.26
 -11   2  -4   11.93    1.65
   9 -11  -4    9.55    1.42
   9 -11   5   -0.29    0.80
  -2  -9   5    0.15    0.86
 -11   2   5   -0.30    0.81
   9 -11   6    0.44    0.85
 -11   1   0   21.04    1.75
  11  -1   0   17.41    1.58
  10 -11   0   22.06    1.82
  -1 -10   0   16.56    1.33
  -1 -10   0   18.65    1.65
  10 -11   1    0.91    0.84
  -1 -10  -1   -0.45    0.84
  -1 -10   1   -0.45    0.74
  -1 -10   1   -0.44    0.62
  -1 -10  -1    0.20    0.63
 -11   1   1   -0.16    0.81
 -11   1  -1    0.50    0.78
  11  -1   1    0.28    0.67
  10 -11  -1    0.49    0.78
  10 -11   2    0.15    0.77
  -1 -10  -2    0.86    0.75
  -1 -10   2   -0.15    0.69
  -1 -10   2    0.11    0.58
 -11   1   2    0.46    0.84
  -1 -10  -2    0.10    0.58
 -11   1  -2    0.18    0.80
  10 -11  -2   -1.36    0.91
  10 -11   3    0.14    0.77
  -1 -10  -3    0.55    0.73
  10 -11  -3    0.56    0.82
  -1 -10   3   -0.25    0.72
 -11   1   3    1.10    0.88
  11  -1  -3    0.14    0.68
 -11   1  -3   -0.20    0.83
  10 -11  -3    0.36    0.86
  10 -11   4   11.66    1.41
  -1 -10  -4   11.69    1.33
  -1 -10   4    9.50    1.20
  10 -11  -4   11.55    1.46
  10 -11   5    0.98    0.74
  -1 -10   5   -0.57    0.84
  10 -11   6   -0.55    0.84
   0 -11   0    2.28    0.97
   0 -11   0    1.38    0.63
 -11   0   0    2.65    0.85
  11 -11   0    2.05    0.97
   0 -11  -1    1.13    0.88
   0 -11   1    0.64    0.79
 -11   0   1    0.67    0.87
   0 -11  -1    0.26    0.56
 -11   0  -1    0.16    0.70
  11 -11  -1    1.15    0.88
  11 -11   1    0.61    0.85
  11 -11   2    2.77    0.92
   0 -11  -2    2.68    0.95
   0 -11   2    2.25    0.89
 -11   0   2    3.18    1.02
 -11   0  -2    2.18    1.02
  11 -11  -2    3.82    1.09
  11 -11   3    0.56    0.77
   0 -11  -3    0.15    0.84
 -11   0  -3    0.80    0.96
  11 -11   4    2.86    0.93
   0 -11  -4    1.78    0.92
  11 -11   5    0.92    0.80
   1 -12   0    0.10    0.60
 -11  -1   0   -0.15    0.78
  12 -11   0    0.48    0.93
   1 -12   1    1.26    0.71
 -11  -1  -1    0.99    0.91
  12 -11   1    0.76    0.83
   1 -12   2    3.34    0.90
 -11  -1  -2    3.49    1.11
  12 -11   2    4.19    1.07
  12 -11   3    0.55    0.77
  12 -11   4    0.39    0.79
   2 -12   0    0.17    0.83
   2 -12   0    1.10    0.72
 -10  -2   0    0.55    0.71
  12 -10   0    1.92    0.88
   2 -12  -1    1.73    0.92
   2 -12  -1    1.77    0.64
   2 -12   1    0.56    0.61
  12 -10   1    0.76    0.58
 -10  -2  -1    1.89    0.87
  12 -10  -1    0.63    0.78
  12 -10   1    1.55    0.92
   2 -12  -2    3.77    1.10
   2 -12   2    4.85    0.98
 -10  -2  -2    2.62    0.95
  12 -10  -2    4.89    1.11
  12 -10   2    1.59    0.78
   2 -12  -3    0.17    0.89
 -10  -2  -3    0.19    0.87
  12 -10   3    0.75    0.72
  12 -10   4   -0.23    0.74
   3 -12   0    6.92    1.22
   3 -12   0    9.15    1.00
  -9  -3   0    8.72    1.15
  12  -9   0    7.75    1.21
   3 -12  -1    0.35    0.86
   3 -12   1    0.35    0.79
   3 -12  -1    0.44    0.54
   3 -12   1    0.11    0.62
  -9  -3   1    0.87    0.92
  12  -9   1    1.02    0.60
  -9  -3   1    1.36    0.67
  -9  -3  -1   -0.30    0.72
  12  -9  -1    0.15    0.79
  12  -9   1    0.13    0.73
   3 -12  -2   -0.17    0.89
   3 -12   2    0.35    0.83
  -9  -3   2   -0.52    0.96
   3 -12   2    0.12    0.70
  12  -9   2   -0.10    0.60
  -9  -3  -2   -0.34    0.83
   9   3  -2    0.53    0.72
  12  -9   2    1.45    0.73
   3 -12  -3    1.01    0.92
   3 -12   3    0.27    0.77
   9   3  -3   -0.53    0.76
  -9  -3  -3    0.19    0.96
  12  -9   3    0.67    0.65
   3 -12  -4    5.56    1.20
   9   3  -4    5.65    1.08
   4 -12   0   13.51    1.58
   4 -12   0   16.40    1.31
  -8  -4   0   11.64    1.33
 -12   8   0   15.41    1.14
   4 -12  -1   -0.69    0.75
   4 -12   1    1.21    0.96
 -12   8   1   -0.37    0.56
   4 -12  -1    0.70    0.60
   4 -12   1    0.22    0.63
  -8  -4   1   -0.17    0.86
  12  -8   1   -0.12    0.62
  -8  -4   1   -0.22    0.57
  -8  -4  -1    0.45    0.79
  12  -8   1   -0.12    0.63
   4 -12  -2   -0.17    0.85
   4 -12   2    0.34    0.83
 -12   8   2   -0.21    0.49
  -8  -4   2    0.68    0.86
   4 -12   2   -0.37    0.68
  12  -8   2    0.11    0.60
  -8  -4  -2   -0.17    0.75
  12  -8   2    0.22    0.65
   4 -12  -3    0.17    0.81
 -12   8   3    0.07    0.52
  -8  -4   3   -0.17    0.87
   4 -12   3   -0.54    0.85
  12  -8   3   -0.21    0.54
  -8  -4  -3    0.74    0.85
  12  -8   3    0.10    0.60
   4 -12  -4    8.02    1.35
   8   4  -4   10.47    1.23
   8   4  -5    0.12    0.72
   8   4  -6    0.12    0.72
   5 -12   0    2.56    0.88
   5 -12   0    4.03    0.82
  12  -7   0    4.84    0.92
  -7  -5   0    3.80    0.91
   5 -12   0    2.87    0.67
   5 -12  -1   -0.34    0.93
   5 -12   1    0.68    0.88
   5 -12  -1    0.71    0.57
 -12   7   1    0.71    0.64
   5 -12   1    0.89    0.66
  -7  -5   1    0.50    0.81
  12  -7   1    0.73    0.68
  -7  -5   1    0.11    0.59
  -7  -5  -1    0.30    0.70
   5 -12  -2    3.93    1.04
 -12   7   2    3.69    0.73
  -7  -5   2    5.33    1.19
   5 -12   2    2.94    0.84
  12  -7   2    3.94    0.83
  -7  -5  -2    3.11    0.98
   5 -12  -3    1.03    0.76
   5 -12   3    1.53    0.84
 -12   7   3   -0.09    0.57
  -7  -5   3    1.01    0.96
   5 -12   3    0.94    0.75
  12  -7   3    0.55    0.56
  -7  -5  -3   -0.18    0.78
   5 -12  -4    2.62    0.94
 -12   7   4    2.97    0.78
  -7  -5  -4    1.57    0.94
 -12   7   5   -0.49    0.68
   7   5   6    0.78    0.85
   6 -12   0    2.38    0.91
   6 -12   0    2.25    0.69
  12  -6   0    3.29    0.86
   6 -12   0    2.15    0.69
  -6  -6   0    2.46    0.77
   6 -12  -1    0.51    0.80
  -6  -6  -1    1.75    0.60
   6 -12  -1    2.03    0.77
   6 -12   1    1.37    0.67
 -12   6   1    2.35    0.72
  -6  -6   1    1.75    0.87
  12  -6   1    1.27    0.69
  -6  -6   1    1.14    0.65
  -6  -6  -1    1.01    0.77
   6 -12  -2    7.04    1.21
   6 -12   2    6.74    1.20
 -12   6   2    7.48    1.01
  -6  -6   2    5.95    1.15
   6 -12   2    6.99    1.07
  12  -6   2    6.33    0.98
  -6  -6  -2    6.68    1.10
   6 -12  -2    7.27    1.07
   6 -12  -3    3.14    1.02
   6 -12   3    0.51    0.87
 -12   6   3    1.28    0.71
  -6  -6   3    0.82    0.80
   6 -12   3    0.81    0.72
  12  -6   3    1.40    0.67
  -6  -6  -3    2.44    0.92
   6 -12   4    2.03    0.93
 -12   6   4    0.98    0.73
  -6  -6   4    1.01    0.91
  -6  -6  -4    0.57    0.80
 -12   6   5    1.46    0.77
 -12   6   6    3.76    0.99
   6   6   6    2.89    1.09
  -5  -7   0    4.15    1.04
  12  -5   0    3.78    0.90
   7 -12   0    3.14    0.68
  -5  -7   0    2.19    0.74
   7 -12  -1    1.20    0.85
   7 -12   1    0.17    0.78
  -5  -7  -1   -0.11    0.54
  -5  -7   1   -0.45    0.80
 -12   5   1    0.58    0.72
  12  -5  -1   -0.28    0.69
  12  -5   1   -0.26    0.68
  -5  -7   1    0.58    0.59
  -5  -7  -1   -0.28    0.65
   7 -12  -1    0.11    0.61
   7 -12  -2    3.49    1.05
   7 -12   2    4.39    1.04
  -5  -7  -2    4.16    0.82
  -5  -7   2    4.77    1.12
   7 -12   2    4.70    1.01
 -12   5   2    4.33    0.89
   7 -12  -2    3.82    0.90
  12  -5   2    4.47    0.92
  -5  -7   2    4.78    0.80
  -5  -7  -2    3.89    0.97
   7 -12  -3   -0.18    0.85
   7 -12   3    0.17    0.83
  -5  -7   3   -0.16    0.80
 -12   5   3    0.72    0.70
   7 -12   3    0.14    0.78
   7 -12  -3   -0.42    0.81
  12  -5   3   -0.25    0.67
  -5  -7  -3   -0.17    0.71
   7 -12   4    1.17    0.84
   7 -12  -4    3.42    1.01
 -12   5   4    2.70    0.87
  -5  -7   4    2.43    0.92
 -12   5   5    0.13    0.77
 -12   5   6    2.10    0.94
   8 -12   0    4.25    1.05
  -4  -8   0    3.66    0.83
  -4  -8   0    3.57    0.95
  12  -4   0    3.06    0.84
  -4  -8   0    3.96    0.82
   8 -12   0    3.45    0.71
   8 -12   1   -0.17    0.79
  -4  -8  -1    0.75    0.68
  -4  -8   1   -0.14    0.72
 -12   4   1    0.38    0.78
  12  -4  -1    0.28    0.70
  12  -4   1    0.27    0.68
  -4  -8   1    0.45    0.60
  -4  -8  -1    0.14    0.57
   8 -12  -1   -0.11    0.64
   8 -12  -2    4.07    1.16
   8 -12  -2    3.08    0.86
   8 -12   2    4.87    1.03
  -4  -8  -2    2.98    0.81
  -4  -8   2    2.18    0.93
 -12   4   2    3.73    0.91
  12  -4  -2    3.01    0.87
  12  -4   2    4.92    0.96
  -4  -8   2    3.25    0.74
  -4  -8  -2    2.84    0.88
   8 -12   3   -0.50    0.84
  -4  -8   3   -0.45    0.78
 -12   4   3    0.92    0.78
  -4  -8  -3    0.66    0.86
   8 -12  -3    2.39    0.89
   8 -12  -3    0.36    0.81
   8 -12   4    4.01    1.06
  -4  -8   4    1.09    0.80
 -12   4   4    1.49    0.86
   8 -12  -4    2.41    0.90
 -12   4   5   -0.42    0.82
   9 -12   0    2.21    0.88
  -3  -9   0    1.80    0.78
  -3  -9   0    2.10    0.80
  12  -3   0    3.15    0.88
   9 -12  -1    0.52    0.89
   9 -12   1   -0.33    0.82
  -3  -9  -1    0.96    0.78
  -3  -9   1    0.27    0.67
  -3  -9   1    0.53    0.72
 -12   3   1    0.42    0.77
  -3  -9  -1    0.13    0.66
  12  -3  -1   -0.29    0.77
  12  -3   1    0.28    0.70
   9 -12   2    2.82    0.98
  -3  -9  -2    3.44    0.88
  -3  -9   2    4.13    0.94
 -12   3   2    2.98    0.93
   9 -12  -2    4.70    0.97
  12  -3  -2    3.08    0.93
  12  -3   2    4.17    0.95
   9 -12   3    0.50    0.91
  -3  -9   3    0.28    0.81
 -12   3   3   -0.29    0.85
   9 -12  -3   -0.14    0.71
 -12   3  -3   -0.43    1.09
  -3  -9  -3    1.16    0.77
   9 -12   4    1.64    0.98
  -3  -9   4    2.53    0.98
   9 -12  -4    1.98    0.90
 -12   3   4    2.22    0.97
  10 -12   0    1.36    0.90
  -2 -10   0    2.84    0.99
  -2 -10   0    2.52    0.82
  10 -12   1    1.17    0.84
  -2 -10  -1    0.15    0.68
  -2 -10   1    0.45    0.72
  -2 -10   1    0.12    0.68
  -2 -10  -1   -0.36    0.69
 -12   2   1    0.78    0.93
  10 -12  -1    0.18    0.80
  10 -12   2    1.64    0.92
  -2 -10  -2    0.44    0.82
  -2 -10   2    1.20    0.69
  -2 -10   2    2.69    0.83
 -12   2   2    2.02    0.95
  -2 -10  -2    2.20    0.80
 -12   2  -2    1.37    0.96
  10 -12   3   -0.16    0.87
  -2 -10  -3    1.24    0.89
  -2 -10   3    0.13    0.73
  10 -12  -3    0.44    0.81
  10 -12   4    1.91    1.01
  -2 -10   4    2.13    0.93
  -1 -11   0    0.65    0.87
  -1 -11  -1   -0.48    0.87
 -12   1  -1    0.53    0.81
  11 -12   1    1.15    0.92
  11 -12   2    3.54    1.05
  -1 -11  -2    2.51    0.92
 -12   1  -2    1.15    0.97
  11 -12   3   -0.47    0.88
  -1 -11  -3    0.61    0.80
   0 -12   0    0.42    0.66
 -12   0  -1    0.35    0.90
 -11  -2  -1    0.17    0.85
  13 -11   2    1.14    0.89
   3 -13   0    0.31    0.68
  13 -10   0    0.46    0.82
   3 -13   1   -0.12    0.69
  13 -10   1   -0.24    0.70
 -10  -3  -1    0.32    0.79
  13 -10   1    0.28    0.79
  13 -10   2    3.29    0.89
   4 -13   0    0.10    0.63
  -9  -4   0    0.82    0.76
   4 -13   1   -0.12    0.67
  13  -9   1    0.25    0.68
  -9  -4  -1   -0.63    0.85
   4 -13   2    1.92    0.84
  13  -9   2    3.26    0.84
  -9  -4  -2    4.19    1.24
  13  -9   2    2.73    0.88
   5 -13   0    0.85    0.70
 -13   8   0    1.92    0.67
  13  -8   0    0.82    0.74
  -8  -5   0    0.68    0.81
   5 -13   1    1.17    0.74
  13  -8   1    2.20    0.82
  -8  -5  -1    1.55    0.83
   5 -13   2    2.30    0.80
  13  -8   2    2.20    0.77
  -8  -5  -2    3.43    1.10
  13  -8   3    0.11    0.65
   6 -13   0    1.72    0.74
 -13   7   0    2.02    0.69
  -7  -6   0    1.61    1.02
  13  -7   0    1.26    0.80
  -7  -6   0    2.04    0.83
   6 -13   1    0.48    0.70
 -13   7   1    1.42    0.72
  13  -7  -1    0.87    0.73
  13  -7   1    0.67    0.75
  -7  -6  -1    1.36    0.80
 -13   7   2    0.51    0.66
   6 -13   2    3.39    0.98
  13  -7   2    2.30    0.78
  -7  -6  -2    2.00    0.93
   6 -13  -2    2.89    0.85
 -13   7   3    1.54    0.76
  13  -7   3    0.85    0.73
  13  -6   0    6.18    1.18
  -6  -7   0    5.62    1.03
  -6  -7   1    0.34    0.89
 -13   6   1    0.11    0.74
  13  -6   1    0.14    0.68
  -6  -7  -1   -0.29    0.68
 -13   6   2   -0.12    0.69
   7 -13   2   -0.13    0.74
   7 -13  -2   -0.27    0.77
  13  -6   2    0.40    0.74
  -6  -7  -2   -0.16    0.72
 -13   6   3    0.12    0.77
   7 -13  -3   -0.29    0.80
  13  -6   3    0.39    0.73
 -13   6   4    5.49    1.04
  -5  -8   0    8.61    1.14
  -5  -8   0   10.17    1.38
  -5  -8   0    7.26    1.07
  -5  -8  -1    0.25    0.69
  -5  -8   1   -0.48    0.95
 -13   5   1    0.51    0.81
  -5  -8  -1   -0.14    0.68
  -5  -8   2   -0.32    0.88
 -13   5   2    0.13    0.77
  -5  -8  -2    0.16    0.70
   8 -13  -2    0.40    0.77
 -13   5   3   -0.66    0.87
   8 -13  -3   -0.15    0.89
 -13   5   4    7.99    1.25
  -4  -9   0    0.14    0.71
  -4  -9   0    1.34    0.83
  -4  -9   0    1.41    0.73
  -4  -9  -1    1.24    0.78
  -4  -9   1    0.84    0.82
  -4  -9   1    1.20    0.87
 -13   4   1    0.70    0.81
  -4  -9  -1    0.15    0.86
  -4  -9   1   -0.12    0.65
  -4  -9  -1    1.40    0.79
   9 -13  -2    2.43    0.90
  -4  -9   2    1.69    0.98
 -13   4   2    1.13    0.88
 -13   4   3    1.01    0.81
   9 -13  -3   -0.29    0.86
  -3 -10   0   -0.60    0.85
  -3 -10   0   -0.55    0.84
  -3 -10  -1    0.89    0.83
  -3 -10   1    1.67    0.80
  -3 -10  -1    1.78    0.88
  -3 -10  -1    1.13    0.76
  -3 -10   2    5.81    1.12
  -8  -6  -1    0.31    0.83
 -14   7   0    1.66    0.78
  -7  -7  -1    0.61    0.81
 -14   6   0    3.34    0.97
 -14   6   1   -0.37    0.78
 -14   6   2   -0.63    0.83
   0   0   0    0.00    0.00
;
_shelx_hkl_checksum              89309
loop_
_space_group_symop_operation_xyz
'x, y, z'
'-y, x-y, z'
'-x+y, -x, z'
'-x, -y, z+1/2'
'y, -x+y, z+1/2'
'x-y, x, z+1/2'
'-x, -y, -z'
'y, -x+y, -z'
'x-y, x, -z'
'x, y, -z-1/2'
'-y, x-y, -z-1/2'
'-x+y, -x, -z-1/2'
loop_
_atom_site_label
_atom_site_type_symbol
_atom_site_fract_x
_atom_site_fract_y
_atom_site_fract_z
_atom_site_U_iso_or_equiv
_atom_site_adp_type
_atom_site_occupancy
_atom_site_site_symmetry_order
_atom_site_calc_flag
_atom_site_refinement_flags_posn
_atom_site_refinement_flags_adp
_atom_site_refinement_flags_occupancy
F1 F 0.425(5) 0.565(5) 0.096(4) 0.112(8) Uani 0.1667 1 d D U P
C1 C 0.477(2) 0.650(3) 0.2500 0.119(5) Uani 1 2 d DS TU P
H1A H 0.5720 0.7481 0.2353 0.143 Uiso 0.6667 1 d R U P
H1B H 0.4848 0.5939 0.3452 0.143 Uiso 0.6667 1 d R U P
N1 N 0.3333 0.6667 0.2500 0.062(4) Uani 1 6 d DS TU P
Pb1 Pb 1.0000 1.0000 0.0000 0.0499(3) Uani 1 6 d S T P
I1 I 0.87159(11) 0.70238(10) 0.2500 0.0679(4) Uani 1 2 d S T P
C2 C 0.406(7) 0.672(9) 0.081(4) 0.088(7) Uani 0.1667 1 d D U P
H2A H 0.3513 0.6831 -0.0128 0.132 Uiso 0.1667 1 d R U P
H2B H 0.5114 0.7584 0.0843 0.132 Uiso 0.1667 1 d R U P
H2C H 0.4078 0.5754 0.0705 0.132 Uiso 0.1667 1 d R U P
loop_
_atom_site_aniso_label
_atom_site_aniso_U_11
_atom_site_aniso_U_22
_atom_site_aniso_U_33
_atom_site_aniso_U_23
_atom_site_aniso_U_13
_atom_site_aniso_U_12
F1 0.101(12) 0.112(13) 0.116(12) -0.009(10) 0.008(11) 0.048(10)
C1 0.097(8) 0.122(10) 0.128(10) 0.000 0.000 0.048(7)
N1 0.056(5) 0.056(5) 0.074(9) 0.000 0.000 0.028(2)
Pb1 0.0600(4) 0.0600(4) 0.0296(4) 0.000 0.000 0.0300(2)
I1 0.0839(6) 0.0556(5) 0.0577(5) 0.000 0.000 0.0300(4)
C2 0.076(12) 0.095(12) 0.097(12) -0.012(11) 0.016(10) 0.046(11)
loop_
_atom_type_symbol
_atom_type_description
_atom_type_scat_dispersion_real
_atom_type_scat_dispersion_imag
_atom_type_scat_source
C C 0.0033 0.0016 'International Tables Vol C Tables 4.2.6.8 and 6.1.1.4'
H H 0.0000 0.0000 'International Tables Vol C Tables 4.2.6.8 and 6.1.1.4'
N N 0.0061 0.0033 'International Tables Vol C Tables 4.2.6.8 and 6.1.1.4'
F F 0.0171 0.0103 'International Tables Vol C Tables 4.2.6.8 and 6.1.1.4'
I I -0.4742 1.8119 'International Tables Vol C Tables 4.2.6.8 and 6.1.1.4'
Pb Pb -3.3944 10.1111 'International Tables Vol C Tables 4.2.6.8 and 6.1.1.4'
loop_
_geom_angle_atom_site_label_1
_geom_angle_atom_site_label_2
_geom_angle_atom_site_label_3
_geom_angle
_geom_angle_site_symmetry_1
_geom_angle_site_symmetry_3
C2 F1 C1 74(3) . .
C2 F1 C2 43(5) . 3_565
C1 F1 C2 93(2) . 3_565
F1 C1 F1 119(4) 10_556 .
F1 C1 N1 89.2(19) 10_556 .
F1 C1 N1 89.2(19) . .
F1 C1 C2 139(3) 10_556 .
F1 C1 C2 45(3) . .
N1 C1 C2 58.6(14) . .
F1 C1 C2 45(3) 10_556 10_556
F1 C1 C2 139(3) . 10_556
N1 C1 C2 58.6(14) . 10_556
C2 C1 C2 116(3) . 10_556
C1 N1 C1 120.000(3) . 2_665
C1 N1 C1 120.000(3) . 3_565
C1 N1 C1 120.000(4) 2_665 3_565
C1 N1 C2 63(2) . .
C1 N1 C2 99(3) 2_665 .
C1 N1 C2 107(3) 3_565 .
C1 N1 C2 107(3) . 11_666
C1 N1 C2 63(2) 2_665 11_666
C1 N1 C2 99(3) 3_565 11_666
C2 N1 C2 154(2) . 11_666
C1 N1 C2 107(3) . 2_665
C1 N1 C2 63(2) 2_665 2_665
C1 N1 C2 99(3) 3_565 2_665
C2 N1 C2 47(4) . 2_665
C2 N1 C2 125(5) 11_666 2_665
C1 N1 C2 99(3) . 3_565
C1 N1 C2 107(3) 2_665 3_565
C1 N1 C2 63(2) 3_565 3_565
C2 N1 C2 47(4) . 3_565
C2 N1 C2 154(2) 11_666 3_565
C2 N1 C2 47(4) 2_665 3_565
C1 N1 C2 99(3) . 12_566
C1 N1 C2 107(3) 2_665 12_566
C1 N1 C2 63(2) 3_565 12_566
C2 N1 C2 154(2) . 12_566
C2 N1 C2 47(4) 11_666 12_566
C2 N1 C2 154(2) 2_665 12_566
C2 N1 C2 125(5) 3_565 12_566
C1 N1 C2 63(2) . 10_556
C1 N1 C2 99(3) 2_665 10_556
C1 N1 C2 107(3) 3_565 10_556
C2 N1 C2 125(5) . 10_556
C2 N1 C2 47(4) 11_666 10_556
C2 N1 C2 154(2) 2_665 10_556
C2 N1 C2 154(2) 3_565 10_556
C2 N1 C2 47(4) 12_566 10_556
I1 Pb1 I1 180.0 9_655 3_675
I1 Pb1 I1 93.930(13) 9_655 .
I1 Pb1 I1 86.070(13) 3_675 .
I1 Pb1 I1 93.929(13) 9_655 2_765
I1 Pb1 I1 86.071(13) 3_675 2_765
I1 Pb1 I1 86.070(13) . 2_765
I1 Pb1 I1 86.071(13) 9_655 8_565
I1 Pb1 I1 93.929(13) 3_675 8_565
I1 Pb1 I1 93.930(13) . 8_565
I1 Pb1 I1 180.00(4) 2_765 8_565
I1 Pb1 I1 86.071(13) 9_655 7_775
I1 Pb1 I1 93.929(13) 3_675 7_775
I1 Pb1 I1 180.0 . 7_775
I1 Pb1 I1 93.930(13) 2_765 7_775
I1 Pb1 I1 86.070(13) 8_565 7_775
Pb1 I1 Pb1 75.998(18) 4_775 .
F1 C2 C2 95(9) . 3_565
F1 C2 C2 154(9) . 2_665
C2 C2 C2 60.000(16) 3_565 2_665
F1 C2 N1 100(4) . .
C2 C2 N1 67(2) 3_565 .
C2 C2 N1 67(2) 2_665 .
F1 C2 C1 61(3) . .
C2 C2 C1 111(5) 3_565 .
C2 C2 C1 121(3) 2_665 .
N1 C2 C1 58.3(15) . .
F1 C2 F1 161(6) . 2_665
C2 C2 F1 102(6) 3_565 2_665
C2 C2 F1 42(6) 2_665 2_665
N1 C2 F1 78(3) . 2_665
C1 C2 F1 104(4) . 2_665
loop_
_geom_bond_atom_site_label_1
_geom_bond_atom_site_label_2
_geom_bond_distance
_geom_bond_site_symmetry_2
F1 C2 1.17(8) .
F1 C1 1.427(19) .
F1 C2 1.74(10) 3_565
C1 F1 1.427(19) 10_556
C1 N1 1.505(15) .
C1 C2 1.58(6) .
C1 C2 1.58(6) 10_556
N1 C1 1.505(15) 2_665
N1 C1 1.505(15) 3_565
N1 C2 1.51(2) .
N1 C2 1.51(2) 11_666
N1 C2 1.51(2) 2_665
N1 C2 1.51(2) 3_565
N1 C2 1.51(2) 12_566
N1 C2 1.51(2) 10_556
Pb1 I1 3.2285(7) 9_655
Pb1 I1 3.2285(7) 3_675
Pb1 I1 3.2286(7) .
Pb1 I1 3.2286(7) 2_765
Pb1 I1 3.2286(7) 8_565
Pb1 I1 3.2286(7) 7_775
I1 Pb1 3.2286(7) 4_775
C2 C2 1.20(9) 3_565
C2 C2 1.20(9) 2_665
C2 F1 1.74(10) 2_665
