#------------------------------------------------------------------------------
#$Date: 2020-02-04 05:13:16 +0200 (Tue, 04 Feb 2020) $
#$Revision: 247531 $
#$URL: file:///home/coder/svn-repositories/cod/cif/4/13/39/4133967.cif $
#------------------------------------------------------------------------------
#
# This file is available in the Crystallography Open Database (COD),
# http://www.crystallography.net/
#
# All data on this site have been placed in the public domain by the
# contributors.
#
data_4133967
loop_
_publ_author_name
'Bear, Joseph C.'
'Cockcroft, Jeremy K.'
'Williams, Jeffrey H.'
_publ_section_title
;
 Influence of Solvent in Crystal Engineering: A Significant Change to the
 Order-Disorder Transition in Ferrocene.
;
_journal_issue                   4
_journal_name_full               'Journal of the American Chemical Society'
_journal_page_first              1731
_journal_page_last               1734
_journal_paper_doi               10.1021/jacs.9b11895
_journal_volume                  142
_journal_year                    2020
_chemical_formula_moiety         'C10 H10 Fe, 2(C3 F3)'
_chemical_formula_sum            'C16 H10 F6 Fe'
_chemical_formula_weight         372.09
_chemical_name_systematic        Ferrocene:hexafluorobenzene
_space_group_crystal_system      triclinic
_space_group_IT_number           2
_space_group_name_Hall           '-P 1'
_space_group_name_H-M_alt        'P -1'
_atom_sites_solution_hydrogens   difmap
_atom_sites_solution_primary     direct
_audit_creation_date             2019-04-26
_audit_creation_method
;
Olex2 1.2
(compiled 2018.05.29 svn.r3508 for OlexSys, GUI svn.r5506)
;
_cell_angle_alpha                78.169(4)
_cell_angle_beta                 76.779(5)
_cell_angle_gamma                84.426(4)
_cell_formula_units_Z            2
_cell_length_a                   7.1737(4)
_cell_length_b                   9.0077(5)
_cell_length_c                   11.2753(6)
_cell_measurement_reflns_used    7167
_cell_measurement_temperature    100
_cell_measurement_theta_max      29.2780
_cell_measurement_theta_min      4.4650
_cell_volume                     693.25(7)
_computing_cell_refinement       'CrysAlisPro 1.171.39.46 (Rigaku OD, 2018)'
_computing_data_collection       'CrysAlisPro 1.171.39.46 (Rigaku OD, 2018)'
_computing_data_reduction        'CrysAlisPro 1.171.39.46 (Rigaku OD, 2018)'
_computing_molecular_graphics    'Olex2 (Dolomanov et al., 2009)'
_computing_publication_material  'Olex2 (Dolomanov et al., 2009)'
_computing_structure_refinement  'ShelXL (Sheldrick, 2015)'
_computing_structure_solution    'ShelXT (Sheldrick, 2015)'
_diffrn_ambient_environment      C6F6
_diffrn_ambient_temperature      100
_diffrn_detector                 'CCD plate'
_diffrn_detector_area_resol_mean 5.2031
_diffrn_detector_type            Atlas
_diffrn_measured_fraction_theta_full 0.993
_diffrn_measured_fraction_theta_max 0.962
_diffrn_measurement_details
;
List of Runs (angles in degrees, time in seconds):

  # Type    Start    End  Width  t~exp~   \w     \q     \k     \f   Frames
--------------------------------------------------------------------------
  1  \w    -11.00  64.00   1.00    1.00    --  -10.23  38.00  60.00   75
  2  \w      0.00  83.00   1.00    1.00    --   11.09  57.00  60.00   83
  3  \w    -16.00  84.00   1.00    1.00    --   11.09  77.00 -60.00  100
  4  \w    -17.00  84.00   1.00    1.00    --   11.09  57.00-180.00  101
  5  \w     -6.00  62.00   1.00    1.00    --   11.09-116.00  13.32   68
  6  \w    -20.00  52.00   1.00    1.00    --   11.09 -99.00 150.00   72
  7  \w    -48.00  44.00   1.00    1.00    --   11.09 -77.00-120.00   92
  8  \w    -68.00 -43.00   1.00    1.00    --  -10.23 127.00 -21.71   25
;
_diffrn_measurement_device       'four-circle diffractometer'
_diffrn_measurement_device_type  'SuperNova, Dual, Cu at home/near, Atlas'
_diffrn_measurement_method       '\w scans'
_diffrn_orient_matrix_type
'CrysAlisPro convention (1999,Acta A55,543-557)'
_diffrn_orient_matrix_UB_11      -0.0718161000
_diffrn_orient_matrix_UB_12      -0.0346640000
_diffrn_orient_matrix_UB_13      -0.0172940000
_diffrn_orient_matrix_UB_21      -0.0658002000
_diffrn_orient_matrix_UB_22      0.0125184000
_diffrn_orient_matrix_UB_23      0.0548811000
_diffrn_orient_matrix_UB_31      -0.0292825000
_diffrn_orient_matrix_UB_32      0.0716410000
_diffrn_orient_matrix_UB_33      -0.0319201000
_diffrn_radiation_monochromator  mirror
_diffrn_radiation_probe          x-ray
_diffrn_radiation_type           MoK\a
_diffrn_radiation_wavelength     0.71073
_diffrn_reflns_av_R_equivalents  0.0316
_diffrn_reflns_av_unetI/netI     0.0322
_diffrn_reflns_Laue_measured_fraction_full 0.993
_diffrn_reflns_Laue_measured_fraction_max 0.962
_diffrn_reflns_limit_h_max       9
_diffrn_reflns_limit_h_min       -9
_diffrn_reflns_limit_k_max       11
_diffrn_reflns_limit_k_min       -11
_diffrn_reflns_limit_l_max       14
_diffrn_reflns_limit_l_min       -15
_diffrn_reflns_number            11766
_diffrn_reflns_point_group_measured_fraction_full 0.993
_diffrn_reflns_point_group_measured_fraction_max 0.962
_diffrn_reflns_theta_full        25.242
_diffrn_reflns_theta_max         28.273
_diffrn_reflns_theta_min         3.252
_diffrn_source                   'micro-focus sealed X-ray tube'
_diffrn_source_type              'SuperNova (Mo) X-ray Source'
_exptl_absorpt_coefficient_mu    1.151
_exptl_absorpt_correction_T_max  1.000
_exptl_absorpt_correction_T_min  0.170
_exptl_absorpt_correction_type   gaussian
_exptl_absorpt_process_details
;
CrysAlisPro 1.171.39.46 (Rigaku Oxford Diffraction, 2018)
Numerical absorption correction based on gaussian integration over
			a multifaceted crystal model
Empirical absorption correction using spherical harmonics,
 implemented in SCALE3 ABSPACK scaling algorithm.
;
_exptl_crystal_colour            'clear dark orange'
_exptl_crystal_colour_lustre     clear
_exptl_crystal_colour_modifier   dark
_exptl_crystal_colour_primary    orange
_exptl_crystal_density_diffrn    1.783
_exptl_crystal_description       block
_exptl_crystal_F_000             372
_exptl_crystal_preparation       'Ferrocene disssolved in hot C6F6'
_exptl_crystal_recrystallization_method
'Crystals grown using C6F6 as solvent in an NMR tube stood in hot water'
_exptl_crystal_size_max          0.778
_exptl_crystal_size_mid          0.47
_exptl_crystal_size_min          0.322
_refine_diff_density_max         0.514
_refine_diff_density_min         -0.339
_refine_diff_density_rms         0.067
_refine_ls_extinction_method     none
_refine_ls_goodness_of_fit_ref   1.097
_refine_ls_hydrogen_treatment    refall
_refine_ls_matrix_type           full
_refine_ls_number_parameters     248
_refine_ls_number_reflns         3304
_refine_ls_number_restraints     0
_refine_ls_restrained_S_all      1.097
_refine_ls_R_factor_all          0.0335
_refine_ls_R_factor_gt           0.0290
_refine_ls_shift/su_max          0.000
_refine_ls_shift/su_mean         0.000
_refine_ls_structure_factor_coef Fsqd
_refine_ls_weighting_details
'w=1/[\s^2^(Fo^2^)+(0.0289P)^2^+0.2676P] where P=(Fo^2^+2Fc^2^)/3'
_refine_ls_weighting_scheme      calc
_refine_ls_wR_factor_gt          0.0684
_refine_ls_wR_factor_ref         0.0718
_reflns_Friedel_coverage         0.000
_reflns_number_gt                2941
_reflns_number_total             3304
_reflns_threshold_expression     'I > 2\s(I)'
_cod_data_source_file            ja9b11895_si_002.cif
_cod_data_source_block           exp_1219
_cod_depositor_comments
'Adding full bibliography for 4133967--4133980.cif.'
_cod_database_code               4133967
_shelx_shelxl_version_number     2014/7
_chemical_oxdiff_formula         'Fe1 C16 F6 H10'
_chemical_oxdiff_usercomment     'In sealed capillary'
_shelx_space_group_comment
;
The symmetry employed for this shelxl refinement is uniquely defined
by the following loop, which should always be used as a source of
symmetry information in preference to the above space-group names.
They are only intended as comments.
;
_shelx_estimated_absorpt_t_max   0.802
_shelx_estimated_absorpt_t_min   0.490
_reflns_odcompleteness_completeness 99.72
_reflns_odcompleteness_iscentric 1
_reflns_odcompleteness_theta     26.32
_olex2_refinement_description
;
;
_shelx_res_file
;
    exp_1219.res created by SHELXL-2014/7

TITL exp_1219 in P-1
REM P-1 (#2 in standard setting)
CELL 0.71073 7.173689 9.00769 11.275324 78.1687 76.7788 84.4256
ZERR 2 0.000402 0.000454 0.000607 0.0044 0.0047 0.0044
LATT 1
SFAC C H F Fe
UNIT 32 20 12 2

L.S. 10 0 0
PLAN  1
SIZE 0.2 0.389 0.722
BOND $H
CONF
list 4
fmap 2 53
acta
SHEL 50 0.75
OMIT 2 3 13
OMIT 4 1 5
OMIT 3 -5 2
OMIT -1 8 4
OMIT -1 9 4
OMIT 0 7 7
OMIT 0 5 7
OMIT 3 3 3
OMIT 1 2 10
OMIT -3 0 3
REM <olex2.extras>
REM <HklSrc "%.\\exp_1219.hkl">
REM </olex2.extras>

WGHT    0.028900    0.267600
FVAR       7.41207
FE1   4    0.239376    0.496253    0.252517    11.00000    0.01333    0.01158 =
         0.01215   -0.00161   -0.00395    0.00049
C7    1    0.320750    0.681428    0.118423    11.00000    0.02204    0.01627 =
         0.02245    0.00439   -0.00513   -0.00232
H7    2    0.444093    0.721251    0.092548    11.00000    0.02609
C8    1    0.246993    0.572853    0.068160    11.00000    0.02576    0.01907 =
         0.01156   -0.00180   -0.00423    0.00479
H8    2    0.313194    0.523775    0.004649    11.00000    0.02783
C9    1    0.055112    0.548855    0.134132    11.00000    0.02116    0.01773 =
         0.01724   -0.00158   -0.01019    0.00032
H9    2   -0.027214    0.482782    0.122341    11.00000    0.02365
C10   1    0.009915    0.642749    0.225097    11.00000    0.01801    0.01988 =
         0.01730   -0.00247   -0.00504    0.00546
H10   2   -0.104753    0.650491    0.285760    11.00000    0.02420
C11   1    0.174248    0.724766    0.215584    11.00000    0.02705    0.01105 =
         0.02295   -0.00282   -0.01040    0.00213
H11   2    0.191195    0.795819    0.263453    11.00000    0.02081
C12   1    0.475791    0.407385    0.320542    11.00000    0.01550    0.02292 =
         0.02418    0.00244   -0.00882    0.00034
H12   2    0.602336    0.450607    0.293913    11.00000    0.02019
C13   1    0.407245    0.299571    0.266706    11.00000    0.02136    0.01694 =
         0.01892   -0.00176   -0.00403    0.00784
H13   2    0.478054    0.258134    0.196940    11.00000    0.01753
C14   1    0.215412    0.271471    0.330494    11.00000    0.02378    0.01193 =
         0.01719    0.00005   -0.00600   -0.00113
H14   2    0.133640    0.206495    0.313537    11.00000    0.02070
C15   1    0.164851    0.361749    0.424369    11.00000    0.01937    0.01571 =
         0.01462    0.00014   -0.00346   -0.00025
H15   2    0.050206    0.368350    0.481886    11.00000    0.01861
C16   1    0.325714    0.446714    0.417781    11.00000    0.02548    0.01633 =
         0.01689   -0.00079   -0.01132   -0.00007
H16   2    0.333507    0.517137    0.466556    11.00000    0.02265
F1    3    0.376645    1.002656   -0.115881    11.00000    0.01616    0.03009 =
         0.03037   -0.00796    0.00370   -0.00205
F2    3    0.143690    0.809820   -0.161710    11.00000    0.02909    0.01809 =
         0.01951   -0.00898   -0.00085    0.00329
F3    3   -0.231765    0.806798   -0.045379    11.00000    0.02535    0.02623 =
         0.03380   -0.01163   -0.00463   -0.00837
C1    1    0.190785    1.001651   -0.059065    11.00000    0.01642    0.01728 =
         0.01715    0.00053   -0.00062   -0.00001
C2    1    0.072734    0.903573   -0.082080    11.00000    0.02327    0.01208 =
         0.01253   -0.00228   -0.00321    0.00352
C3    1   -0.117603    0.902172   -0.023184    11.00000    0.02101    0.01354 =
         0.01905   -0.00039   -0.00595   -0.00343
F4    3    0.807429    0.151793    0.501725    11.00000    0.02192    0.03106 =
         0.03720   -0.00956   -0.00550   -0.01043
F5    3    0.460447    0.213519    0.644131    11.00000    0.03464    0.01943 =
         0.02359   -0.01108   -0.00675    0.00033
F6    3    0.151691    0.062094    0.641602    11.00000    0.01830    0.02616 =
         0.02275   -0.00336    0.00307    0.00353
C4    1    0.655634    0.077097    0.500701    11.00000    0.01801    0.01424 =
         0.01967    0.00058   -0.00616   -0.00355
C5    1    0.479339    0.108262    0.573476    11.00000    0.02439    0.01256 =
         0.01422   -0.00198   -0.00511    0.00221
C6    1    0.323672    0.030792    0.572268    11.00000    0.01450    0.01646 =
         0.01525    0.00102   -0.00077    0.00271
HKLF 4

REM  exp_1219 in P-1
REM R1 =  0.0290 for    2941 Fo > 4sig(Fo)  and  0.0335 for all    3304 data
REM    248 parameters refined using      0 restraints

END

WGHT      0.0289      0.2679

REM Highest difference peak  0.514,  deepest hole -0.339,  1-sigma level  0.067
Q1    1   0.1093  0.5085  0.2985  11.00000  0.05    0.51
;
_shelx_res_checksum              41285
_shelx_hkl_file
;
   0   0   2 6429.40 353.109   3
   0   0   2 6832.41 353.414   7
   0   0   2 7730.01 300.138   8
   0   0  -2 6461.50 344.846   7
   0   0  -3 47.1072 25.4662   4
   0   0   3 52.2076 44.3902   8
   0   0   3 117.871 73.0708   7
   0   0   3 36.6065 56.6023   3
   0   0  -3 233.340 80.2404   7
   0   0   4 12752.2 550.645   8
   0   0  -4 16406.7 810.235   5
   0   0  -4 14257.0 439.584   4
   0   0   4 15867.2 784.278   3
   0   0  -4 14490.6 800.935   3
   0   0  -4 12942.5 693.377   7
   0   0   4 14023.5 715.878   7
   0   0  -5 22583.5 1093.98   5
   0   0  -5 22867.0 1040.29   7
   0   0   5 21664.0 803.116   8
   0   0  -5 22087.1 617.566   4
   0   0   5 23276.3 1037.38   7
   0   0   5 23062.0 1058.31   3
   0   0  -6 44480.4 1015.61   4
   0   0   6 44480.3 1651.55   3
   0   0  -6 43915.4 1640.86   7
   0   0   6 46299.4 1340.01   8
   0   0  -7 7520.02 818.221   3
   0   0   7 9423.07 824.334   3
   0   0  -7 6516.72 724.709   5
   0   0  -7 9364.00 806.439   7
   0   0   7 8465.80 583.226   8
   0   0  -7 9204.59 409.108   4
   0   0   7 11253.1 854.573   7
   0   0   8 41647.4 1409.94   8
   0   0  -8 41883.3 1824.82   7
   0   0  -8 45511.8 2049.95   5
   0   0  -8 43719.7 2134.91   3
   0   0   8 42817.0 1823.90   3
   0   0   8 45338.2 1874.79   7
   0   0  -8 44724.1 1000.08   4
   0   0  -9 188.392 145.747   7
   0   0  -9-116.008 180.558   5
   0   0  -9 77.2269 32.0324   4
   0   0   9-7.41395 110.625   7
   0   0   9 20.6876 94.7547   3
   0   0 -10 39181.4 2151.06   5
   0   0  10 42321.6 1997.86   3
   0   0 -10 41780.7 2041.59   7
   0   0 -11 7586.25 894.606   7
   0   0  11 6234.95 785.513   3
   0   0 -11 5210.06 811.640   5
   0   0  12 35348.1 1993.21   3
   0   0 -12 30379.3 2111.89   5
   0   0 -12 35266.8 2055.04   7
   0   0  13 13915.8 1284.39   3
   0   0 -13 14000.8 1344.32   7
   0   0 -14 126.627 220.792   5
   0   0 -14 459.128 269.757   7
   0   1 -14 9657.47 1288.55   5
   0  -1  13 2413.49 585.694   3
   0   1 -13 2866.56 646.289   5
   0   1 -13 3464.65 681.100   7
   0  -1  12 10501.8 1098.29   3
   0   1 -12 8369.85 1084.22   5
   0   1 -12 10928.9 1176.63   7
   0   1 -11 392.231 217.851   5
   0   1 -11 857.464 344.049   7
   0   1 -10 13289.6 1208.86   5
   0   1 -10 13288.4 1180.99   7
   0  -1  10 13113.8 1115.68   3
   0   1  -9 3272.85 549.920   5
   0   1  -9 3014.78 539.073   7
   0  -1   9 2861.74 408.569   8
   0  -1   9 3246.87 531.915   3
   0  -1   8 1604.29 301.771   8
   0  -1   8 2216.47 450.729   3
   0  -1   8 1707.61 365.164   7
   0   1  -8 1539.85 387.807   5
   0   1  -8 2088.55 428.844   7
   0   1  -7-10.6574 116.143   5
   0   1  -7 136.782 142.250   7
   0  -1   7 277.750 134.601   8
   0   1  -7 314.733 259.242   3
   0  -1   7 252.808 215.345   3
   0   1  -6 70254.2 2211.65   5
   0   1  -6 68036.1 2247.11   7
   0  -1   6 68538.3 2210.00   7
   0  -1   6 67741.7 1933.14   8
   0  -1   6 69951.7 2218.80   3
   0  -1   5 3494.95 433.021   3
   0  -1   5 3745.17 374.867   8
   0   1  -5 3283.07 393.653   5
   0   1  -5 3138.59 412.233   7
   0   1  -4 54673.4 1580.37   5
   0  -1   4 51722.3 1628.14   3
   0   1  -4 53958.8 1675.92   7
   0  -1   4 50983.6 1514.43   5
   0  -1   4 52165.1 1467.51   8
   0   1  -3 230.352 112.803   7
   0  -1   3 42.9826 50.7849   8
   0   1  -3 57.9072 58.6385   5
   0  -1   3 56.9739 67.9379   5
   0  -1   3-11.1866 76.6655   3
   0  -1   2 522571. 7872.31   3
   0  -1   1 83.8372 40.4408   5
   0   1   2 383315. 5805.17   4
   0  -1  -2 402718. 5821.59   4
   0   1   2 393620. 5636.49   7
   0   1   2 401634. 5872.23   3
   0  -1  -2 389462. 5887.59   3
   0   1   3 1998.72 220.259   3
   0  -1  -3 1986.13 236.025   3
   0  -1  -3 2088.36 193.246   7
   0  -1  -3 2162.02 204.008   4
   0   1   3 1793.66 183.058   7
   0   1   4 194112. 2976.74   8
   0  -1  -4 203566. 3510.88   7
   0   1   4 203852. 3675.62   3
   0  -1  -4 195823. 3814.09   3
   0   1   4 198190. 3515.54   7
   0  -1  -4 202797. 3367.19   4
   0  -1  -5 17524.7 689.850   4
   0  -1  -5 17620.6 819.584   7
   0   1   5 16764.4 810.642   7
   0   1   5 17796.2 869.624   3
   0   1   5 17545.9 546.267   8
   0   1   6 148508. 3324.86   3
   0   1   6 146908. 3229.57   7
   0  -1  -6 147423. 2798.74   4
   0  -1  -6 151241. 3251.82   7
   0   1   7 90655.9 2553.49   3
   0  -1  -7 90103.8 2504.80   7
   0  -1  -7 90692.6 2897.75   3
   0  -1  -7 92271.6 2028.63   4
   0   1   8 103231. 2874.16   7
   0  -1  -8 99972.6 2866.18   7
   0  -1  -8 102289. 3350.19   3
   0  -1  -8 105333. 2253.26   4
   0   1   8 101938. 2911.35   3
   0  -1  -9 24.1323 35.6159   4
   0  -1  -9 110.250 124.730   7
   0   1   9-26.5984 103.867   7
   0   1   9 160.947 151.442   3
   0  -1  -9-72.8085 138.248   5
   0   1  10 23984.6 1428.17   3
   0  -1 -10 25355.0 1485.81   7
   0  -1 -10 24986.5 925.543   4
   0   1  11 4915.62 685.091   3
   0  -1 -11 5093.68 386.885   4
   0  -1 -11 5423.16 708.174   7
   0  -1 -11 4415.47 770.728   5
   0   1  12 10357.9 1024.86   3
   0  -1 -12 8758.62 951.363   7
   0  -1 -12 8244.32 1109.62   5
   0   1  13 15561.1 1331.06   3
   0  -1 -13 15697.4 1359.83   7
   0  -1 -14 10910.4 1373.84   5
   0   2 -13 1216.31 429.273   7
   0   2 -13 1883.67 557.399   5
   0   2 -12 3061.65 671.227   5
   0  -2  12 2738.37 591.780   3
   0   2 -12 3428.90 709.727   7
   0  -2  11 2974.29 588.568   3
   0   2 -11 3108.11 632.650   7
   0   2 -11 2717.39 594.554   5
   0   2 -10 17519.7 1445.61   7
   0  -2  10 19404.0 1431.64   3
   0   2 -10 16372.5 1379.72   5
   0   2  -9 870.020 306.168   7
   0  -2   9 1224.64 340.530   3
   0   2  -9 800.859 275.286   5
   0  -2   9 1193.97 288.774   8
   0   2  -8 26708.7 1563.81   5
   0  -2   8 31878.6 1497.45   8
   0   2  -8 29814.3 1706.66   7
   0  -2   8 30366.0 1642.60   3
   0  -2   7 11545.9 846.555   8
   0   2  -7 12354.2 1090.29   3
   0  -2   7 12780.6 998.681   7
   0   2  -7 10452.1 893.974   5
   0   2  -7 12093.8 1011.47   7
   0  -2   7 12213.3 960.857   3
   0   2  -6 82041.4 2527.93   5
   0   2  -6 78721.1 2606.25   7
   0  -2   6 81046.8 2375.46   5
   0  -2   6 76973.5 2301.46   8
   0  -2   6 80543.7 2526.65   3
   0   2  -5 727.006 198.438   5
   0  -2   5 1038.45 229.692   8
   0  -2   5 817.456 199.929   5
   0   2  -5 696.520 216.066   7
   0  -2   5 687.897 209.085   3
   0  -2   4 58041.8 1678.17   5
   0  -2   4 49072.6 1719.12   3
   0   2  -4 52210.3 1003.17   4
   0   2  -4 51820.0 1784.14   7
   0  -2   4 54728.2 994.439   4
   0   2  -4 56010.5 1754.84   5
   0  -2   4 54808.1 1684.57   8
   0   2  -3 276.627 65.0574   4
   0  -2   3 376.539 129.594   3
   0   2  -3 357.291 127.932   5
   0  -2   3 387.506 120.672   5
   0   2  -3 236.747 101.839   7
   0  -2   3 359.320 115.853   8
   0  -2   3 360.969 67.9035   4
   0  -2   2 392591. 6218.32   8
   0   2  -2 392576. 6279.84   7
   0   2  -2 385423. 6208.04   5
   0   2  -2 380065. 5696.27   4
   0  -2   2 380803. 6186.10   5
   0  -2   2 383216. 6207.83   7
   0   2  -1-1.87162 40.7224   6
   0  -2   1 63.8108 77.5487   8
   0  -2   1 63.7158 56.5780   5
   0   2  -1 205.350 73.2570   4
   0   2  -1 273.217 92.0174   7
   0  -2   1 87.9082 54.1648   7
   0  -2   1 68.0325 45.3754   4
   0   2  -1 5.21974 39.0427   5
   0   2   0 171635. 2756.47   7
   0  -2   0 166396. 2915.22   8
   0   2   0 171047. 3064.60   6
   0  -2   0 166773. 2746.07   7
   0   2   0 166375. 2912.63   4
   0  -2   0 169092. 2881.67   4
   0  -2  -1 1617.30 157.300   8
   0  -2  -1 1570.46 189.521   4
   0  -2  -1 1668.66 115.943   2
   0   2   1 1768.94 210.310   6
   0   2   1 1711.01 121.803   2
   0  -2  -2 457821. 7193.08   4
   0   2   2 457622. 7186.45   4
   0  -2  -2 463454. 7056.15   3
   0   2   2 482033. 7273.56   6
   0   2   3 464.342 126.107   3
   0   2   3 489.986 77.2668   7
   0   2   3 622.618 136.503   4
   0  -2  -3 846.429 166.903   4
   0  -2  -3 472.487 116.454   3
   0  -2  -4 851.532 167.050   4
   0  -2  -4 587.353 155.093   3
   0  -2  -4 582.991 107.734   7
   0   2   4 699.789 168.905   3
   0   2   4 742.108 123.775   7
   0   2   5 27473.2 1102.20   3
   0   2   5 27253.1 964.862   7
   0  -2  -5 28777.1 952.876   7
   0  -2  -5 26777.5 1197.41   3
   0  -2  -5 28841.7 1057.59   4
   0   2   6 224276. 4368.09   3
   0  -2  -6 217025. 4674.19   3
   0  -2  -6 219798. 4071.92   7
   0  -2  -6 223112. 4134.98   4
   0   2   6 224072. 4129.78   7
   0  -2  -7 2620.11 349.251   7
   0   2   7 2795.18 362.993   7
   0   2   7 3334.95 432.872   3
   0  -2  -7 3307.09 493.476   3
   0  -2  -7 2726.48 339.490   4
   0  -2  -8 29388.0 1298.71   7
   0  -2  -8 29259.2 1643.20   3
   0  -2  -8 29776.2 1198.65   4
   0   2   8 28945.6 1379.02   3
   0   2   9 572.629 184.103   7
   0  -2  -9 644.180 166.320   4
   0   2   9 312.579 165.331   3
   0  -2  -9 270.749 153.394   7
   0   2  10 7293.13 753.145   3
   0  -2 -10 7194.14 579.343   4
   0  -2 -10 6480.57 690.236   7
   0   2  10 4938.26 607.358   7
   0  -2 -11 3563.19 399.414   4
   0   2  11 2638.10 478.450   3
   0  -2 -11 3758.06 562.986   7
   0  -2 -12 30872.9 2225.21   5
   0   2  12 40045.0 2012.62   3
   0  -2 -13 746.585 370.557   5
   0   2  13 741.642 293.827   3
   0   2  14 10928.4 1142.24   3
   0  -2 -14 9358.67 1290.63   5
   0  -2 -15 680.029 379.007   5
   0   3 -13 766.789 380.681   5
   0   3 -12 11753.6 1331.82   5
   0   3 -12 13003.2 1410.19   7
   0  -3  12 13535.2 1354.48   3
   0   3 -11 112.744 166.136   5
   0   3 -11 230.107 245.724   7
   0  -3  11 455.321 258.678   3
   0  -3  10 33596.2 1980.29   3
   0   3 -10 29240.0 1938.47   5
   0   3 -10 33241.9 2106.02   7
   0   3  -9 9093.44 1037.98   7
   0   3  -9 8862.42 992.561   5
   0  -3   9 9300.97 973.077   3
   0  -3   8 35790.8 1744.92   8
   0   3  -8 34257.4 1934.43   7
   0   3  -8 34680.1 1880.71   5
   0  -3   8 33371.3 1805.77   3
   0  -3   7 1459.80 357.054   5
   0   3  -7 1665.42 401.464   7
   0  -3   7 1777.30 365.799   8
   0   3  -7 1764.63 430.533   5
   0  -3   7 1443.69 320.954   3
   0  -3   6 2418.40 457.564   3
   0  -3   6 2580.86 417.451   8
   0  -3   6 3943.08 495.847   5
   0   3  -6 2005.22 425.430   7
   0   3  -6 3268.36 503.479   5
   0  -3   6 2631.51 457.405   7
   0  -3   5 772.440 220.468   8
   0   3  -5 827.736 231.363   5
   0  -3   5 710.198 99.1323   4
   0   3  -5 569.293 206.153   7
   0  -3   5 709.588 204.422   5
   0  -3   5 504.427 208.933   3
   0   3  -4 84645.0 1744.23   4
   0  -3   4 87222.7 1669.33   4
   0   3  -4 84319.9 2457.21   5
   0   3  -4 84424.2 2549.48   7
   0  -3   4 83140.3 2320.48   5
   0  -3   4 86177.4 2439.52   8
   0  -3   4 82477.9 2483.72   3
   0  -3   3 1697.37 183.970   4
   0   3  -3 1600.76 281.664   5
   0   3  -3 1716.75 310.994   7
   0   3  -3 1383.32 186.975   4
   0  -3   3 1450.29 258.852   5
   0  -3   3 1373.60 287.041   3
   0  -3   3 1105.17 232.767   8
   0  -3   2 8790.82 459.589   4
   0   3  -2 7929.54 576.369   5
   0  -3   2 9122.80 639.860   5
   0  -3   2 8770.13 596.119   7
   0   3  -2 7932.98 474.909   4
   0  -3   2 8623.89 608.512   8
   0   3  -2 8179.67 593.757   7
   0  -3   1 335.052 100.834   4
   0  -3   1 362.950 114.053   5
   0  -3   1 295.881 111.234   8
   0   3  -1 502.927 148.139   6
   0  -3   1 529.190 140.421   7
   0   3  -1 403.076 120.221   7
   0   3  -1 454.183 114.896   4
   0  -3   0 97253.0 1583.25   2
   0   3   0 98936.1 1953.26   7
   0  -3   0 93098.7 2138.24   8
   0  -3   0 94376.6 2091.87   4
   0   3   0 96573.0 2314.31   6
   0   3   0 92026.8 2126.33   4
   0  -3   0 95134.1 1932.12   7
   0  -3  -1 8911.65 542.926   4
   0   3   1 8348.81 560.611   6
   0  -3  -1 8259.71 472.070   8
   0   3   1 8449.15 311.224   2
   0   3   1 8133.99 345.596   7
   0  -3  -1 8284.02 282.989   2
   0  -3  -1 8279.58 344.045   7
   0   3   2 25524.5 1034.33   6
   0  -3  -2 23742.5 854.797   3
   0  -3  -2 25227.3 989.902   4
   0  -3  -2 23361.2 753.720   8
   0   3   2 22979.9 699.482   2
   0  -3  -3 4558.39 260.166   8
   0   3   3 4474.97 444.670   6
   0  -3  -3 5337.10 456.814   4
   0   3   3 4714.44 342.969   2
   0  -3  -3 4567.00 390.455   3
   0   3   4 130457. 2147.55   7
   0   3   4 126226. 2860.45   4
   0  -3  -4 124672. 2762.18   3
   0   3   4 131744. 2889.62   3
   0   3   5 3150.45 384.852   3
   0  -3  -5 2829.43 370.050   3
   0   3   5 3091.90 258.249   7
   0  -3  -5 3355.79 386.826   4
   0   3   6 884.425 243.474   3
   0   3   6 801.985 165.611   7
   0  -3  -6 574.106 181.384   3
   0  -3  -7 3316.17 506.552   3
   0   3   7 4077.09 492.973   3
   0  -3  -7 3652.57 443.645   4
   0   3   7 4138.17 407.557   7
   0   3   8 19031.6 1105.04   3
   0  -3  -8 19355.2 1307.09   3
   0  -3  -8 17524.0 1004.72   4
   0   3   8 16076.8 899.558   7
   0   3   9 43775.2 1822.56   3
   0  -3  -9 44210.4 1681.54   4
   0   3  10 25148.6 1411.47   3
   0  -3 -10 26066.0 1273.21   4
   0   3  10 24653.2 1311.53   7
   0  -3 -11 5825.16 592.177   4
   0   3  11 6002.92 714.314   3
   0   3  11 6163.18 680.211   7
   0   3  12 30529.6 1741.25   3
   0  -3 -12 33729.0 1474.59   4
   0   3  13 2386.35 513.439   3
   0  -3 -13 2000.37 599.634   5
   0  -3 -14 3982.46 841.822   5
   0   3  14 3146.45 611.641   3
   0  -3 -15 595.508 305.904   5
   0   4 -12 2785.76 676.100   5
   0   4 -11 1372.10 457.870   7
   0  -4  11 1730.40 483.185   3
   0   4 -11 1950.37 516.043   5
   0   4 -10 50156.1 2727.53   7
   0  -4  10 54874.4 2679.04   3
   0   4 -10 49764.2 2635.76   5
   0   4  -9 63.1909 133.064   7
   0   4  -9 55.1255 166.275   5
   0  -4   9 170.139 157.267   3
   0  -4   8 15328.7 1272.16   3
   0   4  -8 17254.9 1425.72   7
   0   4  -8 16664.6 1343.92   5
   0  -4   8 15514.6 1177.16   5
   0   4  -7-20.7097 97.7646   5
   0  -4   7-86.2067 128.010   3
   0   4  -7 211.935 210.680   7
   0  -4   7 270.687 186.678   5
   0  -4   6 48854.5 2046.95   8
   0  -4   6 43173.5 2013.88   3
   0  -4   6 46331.0 1073.94   4
   0   4  -6 44445.2 2114.23   7
   0   4  -6 44761.5 2036.64   5
   0  -4   6 41028.4 1803.03   5
   0  -4   5 142.207 60.7398   4
   0  -4   5 147.019 119.378   7
   0   4  -5 283.725 157.195   7
   0   4  -5 336.468 148.562   5
   0  -4   5 70.3326 71.8785   8
   0  -4   5 69.2170 104.108   3
   0  -4   5 219.778 142.396   6
   0  -4   5 80.8132 59.6569   5
   0   4  -4 31966.3 1100.74   4
   0  -4   4 37639.1 1584.68   5
   0   4  -4 33042.6 1524.45   5
   0  -4   4 31834.4 1024.89   4
   0   4  -4 32310.2 1566.72   7
   0  -4   4 34929.4 1581.06   8
   0  -4   4 32790.7 1574.75   3
   0  -4   4 34768.0 1552.56   7
   0  -4   3 540.603 166.429   7
   0  -4   3 561.252 191.766   5
   0   4  -3 362.619 165.542   5
   0  -4   3 421.259 165.759   8
   0   4  -3 385.338 123.625   4
   0   4  -3 673.294 213.029   7
   0  -4   3 380.098 111.731   4
   0   4  -2 140954. 3254.70   7
   0  -4   2 144150. 2893.67   4
   0  -4   2 139292. 3427.72   5
   0   4  -2 145090. 3510.24   6
   0  -4   2 140482. 3190.46   7
   0   4  -2 142334. 3008.05   4
   0  -4   2 141494. 3352.31   8
   0  -4   1 985.018 204.775   7
   0   4  -1 669.296 169.268   4
   0  -4   1 599.365 152.913   4
   0  -4   1 850.480 208.510   5
   0  -4   1 534.845 166.554   8
   0   4  -1 429.410 145.641   7
   0   4  -1 270.380 120.898   6
   0   4   0 115040. 2389.45   7
   0  -4   0 109661. 2355.32   7
   0  -4   0 111983. 2634.88   8
   0   4   0 112786. 2881.52   6
   0  -4   0 116573. 2606.72   4
   0   4   0 113033. 2670.17   4
   0  -4   0 114217. 1877.81   2
   0  -4  -1 97710.1 2351.35   4
   0   4   1 91337.5 2490.47   6
   0   4   1 92451.8 1849.78   7
   0  -4  -1 94220.1 1547.56   2
   0  -4  -1 90866.1 1827.54   7
   0  -4  -1 92344.9 2222.69   8
   0   4   1 93910.6 1614.79   2
   0   4   2 162369. 2791.25   2
   0  -4  -2 162388. 3123.08   8
   0  -4  -2 167103. 3498.84   4
   0   4   2 163804. 2533.54   7
   0   4   2 171331. 3702.53   6
   0   4   3 22129.7 1151.18   6
   0  -4  -3 20737.5 770.754   8
   0  -4  -3 18928.6 874.110   3
   0   4   3 20219.5 772.875   2
   0  -4  -4 6976.06 546.142   3
   0   4   4 6871.17 482.581   2
   0   4   4 7988.06 705.815   6
   0  -4  -4 7326.68 616.925   4
   0  -4  -5 1054.59 240.003   3
   0   4   5 1077.11 248.297   3
   0   4   5 1354.60 271.449   4
   0  -4  -5 1461.33 283.510   4
   0   4   5 987.551 204.028   2
   0   4   5 1204.30 114.699   7
   0   4   6 30978.1 1414.10   3
   0  -4  -6 31353.5 1413.85   4
   0  -4  -6 31949.8 1428.54   3
   0   4   6 30900.0 887.647   7
   0   4   7 9711.23 844.452   3
   0   4   7 7789.92 690.539   2
   0  -4  -7 6968.78 695.994   4
   0   4   7 8966.46 530.557   7
   0  -4  -7 6664.49 703.828   3
   0   4   8 67864.9 1817.35   7
   0  -4  -8 66705.5 2268.15   4
   0   4   8 63492.8 2207.55   2
   0   4   8 69568.4 2337.91   3
   0  -4  -8 62862.0 2470.12   3
   0  -4  -9 96.5867 81.3388   4
   0   4   9 285.861 131.006   7
   0   4   9 386.868 215.422   3
   0  -4 -10 20917.2 1249.48   4
   0   4  10 21468.6 1336.22   3
   0   4  11 796.729 232.944   7
   0  -4 -11 978.613 278.733   4
   0   4  11 615.243 248.145   3
   0  -4 -12 2313.80 417.186   4
   0   4  12 2611.08 508.888   3
   0   4  13 1611.18 434.759   3
   0  -4 -14 6975.96 1141.05   5
   0   4  14 10004.2 1093.82   3
   0  -4 -15 1384.25 508.690   5
   0   5 -12 10775.6 1315.04   5
   0   5 -11 1415.04 478.551   5
   0  -5  10 6930.36 975.037   3
   0   5 -10 6759.10 965.409   5
   0   5 -10 6879.96 1012.88   7
   0   5  -9 913.160 347.036   7
   0  -5   9 1308.33 402.049   3
   0   5  -9 550.857 236.296   5
   0   5  -8 47567.8 2536.65   7
   0   5  -8 46111.7 2380.85   5
   0  -5   8 46917.1 2402.31   3
   0  -5   7 2703.37 543.369   3
   0   5  -7 2692.55 565.094   7
   0   5  -7 2510.22 516.522   5
   0  -5   6 23164.3 1412.52   5
   0  -5   6 23511.8 859.638   4
   0   5  -6 21046.5 1508.39   7
   0   5  -6 24396.2 1531.44   5
   0  -5   6 23809.8 1558.90   3
   0   5  -5 5286.00 667.995   5
   0  -5   5 4764.66 400.077   4
   0   5  -5 4205.51 636.027   7
   0  -5   5 4168.69 573.834   5
   0  -5   5 5308.36 658.789   7
   0  -5   5 4158.42 625.783   3
   0  -5   4 80473.2 2736.14   5
   0   5  -4 85029.3 2838.14   7
   0  -5   4 87118.4 2112.78   4
   0  -5   4 91727.1 3056.87   6
   0  -5   4 82167.1 2862.72   3
   0  -5   4 85779.8 2741.34   7
   0  -5   4 86849.3 2838.05   8
   0   5  -3 13656.8 985.511   7
   0  -5   3 13133.8 927.889   7
   0  -5   3 13400.1 749.499   4
   0  -5   3 12671.9 968.822   8
   0   5  -3 12843.2 804.034   4
   0  -5   3 12624.8 986.645   5
   0  -5   2 55198.0 2037.28   8
   0  -5   2 59146.0 1171.96   1
   0   5  -2 57069.0 2186.31   6
   0   5  -2 54413.0 1930.72   7
   0  -5   2 54083.5 1869.85   7
   0  -5   2 60345.5 2229.19   5
   0   5  -2 48917.8 1742.01   4
   0  -5   2 55302.5 1717.84   4
   0  -5   1 2249.62 326.183   4
   0   5  -1 2207.23 397.543   6
   0  -5   1 3008.96 373.929   7
   0   5  -1 2593.39 352.147   7
   0  -5   1 2878.06 241.474   2
   0  -5   1 2353.25 380.358   8
   0  -5   1 2769.87 434.692   5
   0  -5   0 15800.4 906.119   4
   0  -5   0 16320.0 961.214   8
   0   5   0 14263.2 1007.45   6
   0   5   0 15689.9 788.644   7
   0  -5   0 16161.8 797.621   7
   0  -5   0 16625.5 483.787   2
   0  -5  -1 20903.6 1072.90   4
   0   5   1 20518.5 1196.29   6
   0  -5  -1 21194.9 516.804   2
   0  -5  -1 20773.4 789.921   7
   0  -5  -1 20849.8 1037.91   8
   0   5   1 21767.9 812.439   7
   0  -5  -2 61775.5 2018.20   4
   0   5   2 58102.4 2124.96   6
   0   5   2 60165.9 1260.88   7
   0  -5  -2 59740.6 1760.13   8
   0   5   2 60688.1 1310.36   2
   0  -5  -3 26306.4 1127.55   3
   0  -5  -3 24884.1 1254.26   4
   0   5   3 26648.9 926.146   2
   0  -5  -3 26245.0 1016.61   8
   0   5   3 26955.3 1416.79   6
   0  -5  -4 132671. 3115.36   3
   0   5   4 136536. 2875.77   2
   0  -5  -4 142177. 3462.16   4
   0   5   4 138994. 3715.18   6
   0  -5  -5 5076.10 580.357   4
   0   5   5 4574.57 548.285   4
   0   5   5 4144.88 422.634   2
   0   5   5 3864.61 554.466   6
   0  -5  -5 3625.37 439.082   3
   0   5   6 82962.6 2853.34   6
   0  -5  -6 79296.8 2446.02   3
   0  -5  -6 85754.5 2673.44   4
   0  -5  -7 1381.03 350.053   4
   0  -5  -7 859.362 294.929   3
   0   5   7 1543.93 172.091   7
   0   5   7 1476.52 319.931   2
   0  -5  -8 53698.3 2142.18   4
   0   5   8 47337.0 1880.83   2
   0   5   8 49073.7 2049.76   3
   0   5   8 52860.3 1336.34   7
   0  -5  -8 49970.7 2145.03   3
   0  -5  -9-83.7929 84.2629   4
   0   5   9 51.5754 106.162   3
   0   5   9-9.53139 67.8746   7
   0  -5 -10 389.792 180.846   4
   0   5  10 173.900 94.7171   7
   0   5  10 288.396 174.709   3
   0  -5 -11 5576.73 688.584   4
   0   5  11 4800.58 693.599   3
   0  -5 -12 11428.8 1003.01   4
   0   5  12 9652.32 996.842   3
   0   5  13 1094.53 370.067   3
   0  -5 -13 1224.76 333.009   4
   0   6 -11 656.743 327.970   5
   0   6 -10 8815.02 1218.65   7
   0  -6  10 8992.80 1162.21   3
   0   6 -10 7198.69 1014.15   5
   0   6  -9 4361.38 770.745   5
   0  -6   9 4480.38 804.944   3
   0   6  -9 6752.11 1020.81   7
   0   6  -8 41450.2 2482.27   7
   0  -6   8 43296.5 2437.88   3
   0  -6   7 14736.5 1349.71   3
   0   6  -7 15804.3 1438.48   7
   0  -6   7 14893.3 672.394   4
   0  -6   6 52700.0 1560.91   4
   0  -6   6 53124.7 2524.32   3
   0   6  -6 48889.1 2470.50   7
   0   6  -5 1500.61 398.538   7
   0  -6   5 1296.56 240.620   4
   0  -6   5 1191.44 376.429   3
   0   6  -4 12807.5 1082.34   7
   0  -6   4 12800.5 1097.80   5
   0  -6   4 12653.2 1123.69   3
   0  -6   4 11856.6 998.392   7
   0  -6   4 12346.8 775.950   4
   0  -6   3 4013.84 606.505   5
   0  -6   3 4011.89 534.862   7
   0  -6   3 4954.22 322.426   1
   0  -6   3 3812.19 440.460   4
   0   6  -3 4216.81 575.988   7
   0  -6   2 134.964 89.5386   5
   0   6  -2 185.119 124.782   7
   0  -6   2 276.973 160.116   8
   0  -6   2 336.749 166.647   6
   0   6  -2 389.375 170.739   6
   0  -6   2 185.119 115.123   4
   0  -6   2 51.8530 82.4727   7
   0  -6   1 38.3781 67.5111   4
   0  -6   1 135.638 67.3674   7
   0   6  -1 203.075 179.965   6
   0   6  -1 135.068 88.0952   7
   0  -6   1 153.936 72.3666   2
   0  -6   1 229.503 126.573   6
   0  -6   1 40.8071 75.5774   5
   0  -6   1 172.580 115.398   8
   0   6  -1 25.8485 72.9647   4
   0  -6   0 53051.7 1999.37   8
   0   6   0 49247.8 2165.39   6
   0   6   0 56254.3 2074.39   4
   0   6   0 52680.8 1664.36   7
   0  -6   0 51206.4 1908.01   4
   0  -6   0 53222.1 1683.91   7
   0  -6   0 55717.9 1025.50   2
   0  -6   0 55316.5 2260.45   5
   0  -6  -1 26503.3 999.207   7
   0   6   1 25205.8 1490.59   6
   0   6   1 27966.3 1426.43   4
   0  -6  -1 25302.3 1308.43   4
   0   6   1 26367.4 986.206   7
   0  -6  -1 26491.9 1303.13   8
   0  -6  -2 148607. 3483.67   8
   0   6   2 159219. 2471.13   1
   0  -6  -2 156974. 3824.32   4
   0   6   2 155363. 2414.24   1
   0  -6  -2 155101. 2769.79   7
   0   6   2 154073. 4155.43   6
   0   6   2 153744. 2754.16   7
   0   6   2 160274. 3956.60   4
   0  -6  -3 49329.4 1656.20   8
   0  -6  -3 49549.3 1759.77   3
   0  -6  -3 52722.7 1913.89   6
   0   6   3 51923.7 1351.34   2
   0  -6  -3 50688.5 1982.22   4
   0   6   3 48341.0 2170.18   6
   0   6   3 56025.6 2125.37   4
   0  -6  -4 80608.9 2385.15   3
   0  -6  -4 79929.3 2079.64   8
   0   6   4 80320.1 2089.22   2
   0  -6  -4 84182.5 2724.86   4
   0   6   4 85253.3 3018.29   6
   0  -6  -5 4275.54 510.830   3
   0   6   5 5582.73 512.437   2
   0  -6  -5 5419.58 645.985   4
   0  -6  -6 21769.4 1217.32   3
   0  -6  -6 24543.8 1449.64   4
   0   6   6 21027.1 1491.22   6
   0   6   7 820.326 321.554   6
   0  -6  -7 796.969 281.765   4
   0  -6  -7 343.944 207.807   3
   0   6   7 987.766 259.334   2
   0   6   8 14006.0 1262.65   6
   0   6   8 13191.7 963.964   2
   0  -6  -8 15406.4 1180.10   4
   0   6   9-75.8134 184.623   6
   0   6   9 311.015 179.456   3
   0  -6  -9-24.9506 74.3405   4
   0  -6 -10 29297.8 1708.81   4
   0   6  10 27036.8 1684.32   3
   0  -6 -11 1028.17 314.419   4
   0   6  11 1461.49 390.285   3
   0  -6 -12 17542.1 1328.91   4
   0   6  12 17003.9 1393.51   3
   0  -6 -13 33.1432 101.245   4
   0   6  13 368.451 269.349   3
   0   7  -9 142.819 162.845   7
   0  -7   9 248.347 211.597   3
   0   7  -8 8602.44 1148.38   7
   0  -7   8 7096.15 1028.36   3
   0   7  -7 190.584 213.031   7
   0  -7   7 205.786 237.947   3
   0  -7   6 13238.5 800.297   4
   0   7  -6 12296.2 1258.23   7
   0  -7   6 13114.6 1308.57   3
   0   7  -5-55.3249 121.191   7
   0  -7   5-52.6646 59.6256   1
   0  -7   5-256.145 124.053   4
   0  -7   5-64.3909 115.398   3
   0  -7   4 45292.7 1732.42   4
   0  -7   4 47387.6 1255.18   1
   0  -7   4 44977.6 2328.85   3
   0   7  -4 41733.0 2121.34   7
   0   7  -3 16916.9 1219.03   7
   0  -7   3 15864.2 1154.10   7
   0  -7   3 16117.0 1011.23   4
   0   7  -2 29231.1 1828.08   6
   0   7  -2 31243.8 1568.09   7
   0  -7   2 31543.6 1488.50   4
   0  -7   2 30131.8 1520.10   7
   0  -7   2 32315.4 1024.59   2
   0  -7   1 4759.36 545.309   7
   0   7  -1 5290.17 742.366   6
   0   7  -1 3964.94 501.809   7
   0  -7   1 4708.63 568.440   4
   0   7  -1 4135.54 573.945   4
   0  -7   1 4415.68 263.031   2
   0   7   0 33099.2 1866.08   6
   0  -7   0 33063.8 1597.49   4
   0  -7   0 31427.8 1322.75   7
   0   7   0 31784.1 1320.69   7
   0  -7   0 30483.6 1606.18   8
   0   7   0 32322.1 1658.05   4
   0  -7  -1 2205.24 293.591   7
   0  -7  -1 2418.74 435.562   4
   0  -7  -1 2011.74 383.300   8
   0   7   1 1928.25 279.066   7
   0   7   1 1890.16 427.786   6
   0   7   1 2709.47 475.024   4
   0  -7  -2 29004.9 1550.42   4
   0   7   2 28064.1 1735.90   6
   0   7   2 30149.8 1625.29   4
   0  -7  -2 26775.5 1374.20   8
   0   7   2 29738.4 955.393   7
   0  -7  -3 157.030 123.451   3
   0   7   3 139.204 61.7975   1
   0   7   3 24.5662 99.3077   6
   0   7   3 89.3891 41.9414   2
   0  -7  -3 175.708 93.3100   8
   0  -7  -3 74.2792 136.776   4
   0  -7  -4 4912.19 569.434   3
   0  -7  -4 4980.87 660.286   4
   0   7   4 5515.46 772.063   6
   0   7   4 4906.95 429.154   2
   0  -7  -5 29340.2 1452.89   3
   0  -7  -5 32793.7 1737.91   4
   0   7   5 28981.7 1282.99   2
   0   7   5 28444.5 1863.74   6
   0   7   6 2978.02 597.938   6
   0  -7  -6 2885.56 525.174   4
   0   7   7 6169.56 687.092   2
   0   7   7 6139.27 921.714   6
   0  -7  -7 5990.65 797.869   4
   0  -7  -8 59725.8 2538.63   4
   0   7   8 55769.2 2817.22   6
   0   7   9 238.464 242.141   6
   0  -7  -9 304.882 168.815   4
   0  -7 -10 49871.7 2395.64   4
   0   7  10 40935.7 2458.18   6
   0   7  11 549.051 285.934   6
   0  -7 -11 233.147 198.557   4
   0   7  12 8263.75 1098.71   6
   0  -7 -12 9323.69 1034.46   4
   0  -7 -13 3.02440 118.467   4
   0   7  13 120.665 173.530   3
   0   8  -8 572.497 329.231   7
   0   8  -7 1739.51 530.226   7
   0  -8   7 788.556 353.172   3
   0  -8   6 33227.8 2260.60   3
   0   8  -6 36666.4 2281.42   7
   0  -8   5 11080.4 1252.26   3
   0  -8   5 9931.30 802.919   4
   0   8  -5 11361.1 1188.09   7
   0   8  -4 38035.2 2097.59   7
   0  -8   4 42396.8 1550.40   2
   0  -8   4 40016.1 1760.26   4
   0  -8   4 41648.7 2399.78   3
   0  -8   3 775.577 169.075   2
   0   8  -3 588.612 255.584   7
   0  -8   3 1023.95 290.307   4
   0  -8   2 38235.5 1826.50   7
   0  -8   2 41988.9 1885.55   4
   0  -8   2 41284.0 1072.08   2
   0   8  -2 42420.4 2374.16   6
   0   8  -2 41774.9 1929.84   7
   0  -8   1 160.506 63.2010   4
   0  -8   1-19.8854 61.8498   7
   0   8  -1 18.7581 64.9327   7
   0   8  -1 202.830 203.235   6
   0   8   0 6059.55 591.904   7
   0  -8   0 6258.48 595.748   7
   0  -8   0 6337.98 737.212   4
   0   8   0 6067.61 855.326   6
   0   8   1 975.409 207.425   7
   0   8   1 907.808 326.560   6
   0  -8  -1 484.550 209.433   4
   0  -8  -1 779.313 193.067   7
   0   8   2 4977.14 392.247   7
   0   8   2 3726.11 682.710   6
   0  -8  -2 3743.30 539.154   8
   0  -8  -2 4099.48 622.157   4
   0   8   3 999.133 376.848   6
   0  -8  -3 1242.84 339.417   4
   0  -8  -3 850.038 239.693   8
   0   8   4 27198.4 940.477   2
   0   8   4 28210.5 1018.47   1
   0   8   4 24345.3 1809.81   6
   0  -8  -4 26909.9 1649.11   4
   0  -8  -5 15916.6 1280.02   4
   0   8   5 17382.7 919.103   2
   0   8   5 14609.9 1434.42   6
   0  -8  -6 30611.3 1815.88   4
   0   8   6 27937.0 1387.87   2
   0   8   6 27020.7 2011.02   6
   0   8   7-47.5886 67.6132   2
   0  -8  -7-80.0082 193.049   4
   0   8   8 19759.4 1767.91   6
   0  -8  -8 20120.8 1533.10   4
   0  -8  -9 825.961 316.573   4
   0   8   9 1018.53 419.842   6
   0  -8 -10 4244.07 709.757   4
   0   8  10 3040.06 709.152   6
   0   8  11 170.497 207.071   6
   0  -8 -11-71.5606 131.658   4
   0  -8 -12 8827.24 1049.11   4
   0  -8 -13 34.0033 113.907   4
   0   9  -7 166.105 187.069   7
   0   9  -6 777.901 344.260   7
   0  -9   6 451.172 217.947   3
   0  -9   5 200.649 129.952   3
   0   9  -5-15.6194 187.413   7
   0  -9   4 30902.2 2196.53   3
   0   9  -4 30627.1 1927.42   7
   0  -9   4 31917.0 1673.45   4
   0  -9   3 79.7453 122.317   4
   0   9  -3 123.302 129.462   7
   0  -9   2 20176.1 1374.62   4
   0   9  -2 16734.3 1579.82   6
   0   9  -2 18006.8 1282.21   7
   0   9  -1 3049.51 480.798   7
   0  -9   1 3657.60 585.879   4
   0   9  -1 3437.55 713.595   6
   0   9   0 6258.69 624.745   7
   0  -9   0 6118.40 770.912   4
   0  -9   0 5726.26 611.649   7
   0   9   0 5279.97 868.764   6
   0   9   1 11926.1 1323.36   6
   0  -9  -1 11647.3 1085.64   4
   0   9   1 12635.7 793.662   7
   0   9   2 76081.5 3449.94   6
   0  -9  -2 72450.2 2906.84   4
   0  -9  -3 87.8342 151.180   4
   0   9   3 87.0293 193.144   6
   0  -9  -4 46426.6 2336.04   4
   0   9   4 43385.7 2653.02   6
   0   9   5 809.617 380.598   6
   0   9   5 494.304 145.373   1
   0  -9  -5 434.415 242.797   4
   0   9   6 1791.13 550.697   6
   0  -9  -6 2178.44 517.549   4
   0   9   7 8412.09 1215.32   6
   0  -9  -7 8889.67 1041.60   4
   0  -9  -8 5172.06 826.202   4
   0   9   8 4763.13 934.252   6
   0   9   9 349.080 240.148   6
   0  -9  -9 708.739 324.564   4
   0  -9 -10 9516.68 1122.42   4
   0   9  10 6090.42 1077.14   6
   0  -9 -11 122.771 158.538   4
   0  10  -5 4187.10 765.285   7
   0  10  -4 6374.67 903.263   7
   0 -10   4 6395.62 1056.11   3
   0 -10   3-12.0399 124.064   4
   0  10  -3 69.3324 154.936   7
   0  10  -2 8959.78 926.826   7
   0 -10   2 8733.30 963.194   4
   0  10  -1 1228.30 316.401   7
   0  10  -1 1051.36 382.298   6
   0 -10   1 1105.59 348.597   4
   0  10   0 35600.7 2469.95   6
   0 -10   0 37658.9 2088.86   4
   0  10   0 35308.0 1616.76   7
   0 -10  -1 26711.2 1768.09   4
   0  10   1 26639.0 2121.32   6
   0  10   2 10118.2 1311.34   6
   0 -10  -2 10481.7 1109.81   4
   0 -10  -3 12208.1 1230.42   4
   0  10   3 14560.5 1603.31   6
   0 -10  -4 13538.8 1307.40   4
   0  10   4 14013.1 1593.05   6
   0  10   5 419.489 290.652   6
   0 -10  -5 97.7254 163.752   4
   0 -10  -6 18479.8 1562.59   4
   0  10   6 18380.1 1896.23   6
   0 -10  -7 247.437 218.824   4
   0  10   7 460.437 340.560   6
   0 -10  -8 10565.2 1216.94   4
   0  10   8 10669.1 1491.12   6
   0  11  -4 1248.55 421.820   7
   0 -11   2 27850.4 1851.32   4
   0 -11   1 8809.87 1036.88   4
   0 -11   0 188.855 177.136   4
   0  11   0 211.389 212.052   6
   0 -11  -1-80.4731 151.785   4
   0  11   1 90.3288 210.681   6
   0  11   2 5328.96 1007.15   6
   0 -11  -2 4029.31 729.657   4
   0  11   3-21.1824 321.070   6
   0 -11  -3 115.717 163.364   4
   0 -11  -4 21397.1 1749.05   4
   0  11   4 19423.1 2013.06   6
   0  11   5-267.896 245.628   6
   0 -11  -5-209.206 182.724   4
   1 -11  -4 1741.38 529.319   4
   1 -11  -3 4223.35 763.193   4
  -1  11   3 2653.46 759.841   6
  -1  11   2 2037.04 645.122   6
   1 -11  -2 2221.97 537.256   4
   1 -11  -1 7364.36 999.141   4
  -1  11   1 6192.16 1105.27   6
   1 -11   0 19324.6 1611.03   4
   1 -11   1 19743.6 1581.67   4
   1 -11   2 2439.31 544.055   4
   1 -10  -7 3837.94 741.267   4
  -1  10   7 4268.54 962.488   6
  -1  10   6 474.085 344.076   6
   1 -10  -6 1028.38 408.002   4
  -1  10   5 32625.1 2584.01   6
   1 -10  -5 34906.4 2204.06   4
   1 -10  -4 7942.60 1028.04   4
  -1  10   4 7981.24 1227.71   6
  -1  10   3 48442.0 3043.48   6
   1 -10  -3 44188.2 2446.29   4
   1 -10  -2 2673.88 584.222   4
  -1  10   2 2510.43 676.201   6
  -1  10   1 9644.67 1302.97   6
   1 -10  -1 9846.55 1087.18   4
   1 -10   0 6722.20 881.363   4
  -1  10   0 6276.96 1035.15   6
  -1  10  -1 1673.50 525.339   6
   1 -10   1 1620.96 423.249   4
   1 -10   2 4673.75 705.035   4
  -1  10  -2 4321.13 864.201   6
   1 -10   3 10244.7 1032.94   4
   1 -10   3 10604.7 1304.27   3
   1 -10   4 298.975 206.660   3
   1 -10   5 3965.51 838.751   3
   1  -9 -10-308.413 277.047   4
   1  -9  -9 8333.53 1088.75   4
  -1   9   9 6823.58 1178.10   6
   1  -9  -8 760.738 361.687   4
  -1   9   8 370.034 323.632   6
  -1   9   7 27401.9 2297.71   6
   1  -9  -7 25601.2 1853.74   4
  -1   9   6-116.686 239.548   6
   1  -9  -6-11.3341 173.427   4
  -1   9   5 34965.7 1476.25   1
  -1   9   5 36132.3 2534.51   6
   1  -9  -5 34993.5 2113.06   4
  -1   9   4 4049.56 854.618   6
   1  -9  -4 4714.25 766.477   4
  -1   9   3 12280.3 1409.19   6
   1  -9  -3 13110.3 1224.33   4
   1  -9  -2 1225.36 355.671   4
  -1   9   2 891.777 384.558   6
  -1   9   1 6424.72 974.630   6
   1  -9  -1 7319.32 874.184   4
   1  -9   0 570.671 250.682   4
  -1   9   0 85.6858 122.198   6
   1  -9   1 28617.8 1714.84   4
  -1   9  -1 30713.3 2159.64   6
   1  -9   2 1474.24 379.031   4
  -1   9  -2 2400.17 606.037   6
   1  -9   3 46242.7 2596.29   3
   1  -9   3 49770.9 2194.80   4
   1  -9   4 1956.63 401.569   4
  -1   9  -4 2602.49 537.945   7
   1  -9   4 1849.98 484.922   3
   1  -9   5 7756.21 1100.02   3
  -1   9  -5 7999.10 1002.43   7
   1  -9   6 3969.90 811.710   3
  -1   9  -6 4427.06 785.943   7
   1  -8 -12 8434.11 1052.95   4
   1  -8 -11 19327.9 1608.55   4
   1  -8 -10 241.012 205.564   4
  -1   8  10 207.544 203.664   6
  -1   8   9 17063.5 1725.39   6
   1  -8  -9 19668.6 1567.02   4
  -1   8   8 1240.49 453.808   6
   1  -8  -8 1494.41 432.224   4
  -1   8   7 6261.99 1017.56   6
   1  -8  -7 5082.51 776.416   4
  -1   8   7 4751.22 678.940   2
  -1   8   6-4.07624 122.362   6
   1  -8  -6 190.436 156.229   4
  -1   8   6 264.038 151.427   2
   1  -8  -5 754.686 273.149   4
  -1   8   5 93.7314 162.970   6
  -1   8   4 1434.16 448.394   6
  -1   8   4 1510.78 315.723   2
  -1   8   4 1713.30 342.468   1
   1  -8  -4 1229.88 439.361   4
  -1   8   3 23123.6 811.649   1
   1  -8  -3 20978.9 1223.59   3
   1  -8  -3 20168.0 1448.00   4
  -1   8   3 19973.1 1676.78   6
  -1   8   3 22746.1 1025.58   2
   1  -8  -2 21625.7 790.723   7
  -1   8   2 19989.0 1632.68   6
   1  -8  -2 21759.8 1457.13   4
  -1   8   1 28404.9 1926.39   6
   1  -8  -1 29482.4 895.920   2
   1  -8  -1 28284.4 1136.63   7
   1  -8  -1 27914.3 1647.83   4
  -1   8   0 991.961 313.620   6
   1  -8   0 1293.10 177.735   2
   1  -8   0 1319.58 268.030   7
   1  -8   0 1044.61 300.580   4
   1  -8   1 50211.7 1941.29   7
   1  -8   1 52447.0 1409.61   2
  -1   8  -1 51879.8 2642.59   6
   1  -8   1 51395.8 2210.48   4
  -1   8  -2 11307.9 923.215   7
  -1   8  -2 11762.3 1234.36   6
   1  -8   2 11538.3 660.589   2
   1  -8   2 10752.1 919.142   7
   1  -8   2 11175.2 966.446   4
  -1   8  -3 41660.6 2000.38   7
   1  -8   3 42959.6 1922.58   4
   1  -8   4-35.7479 76.7338   4
  -1   8  -4 256.765 151.513   7
   1  -8   4 54.9361 121.227   3
   1  -8   4 108.061 85.1893   2
  -1   8  -5 11007.2 1132.22   7
   1  -8   5 10765.0 1194.15   3
   1  -8   5 10674.9 874.607   2
   1  -8   5 11558.1 886.015   4
  -1   8  -6 632.242 266.385   7
   1  -8   6 879.023 352.229   3
  -1   8  -7 3350.64 701.032   7
   1  -8   7 2458.31 619.336   3
  -1   8  -8 131.050 161.034   7
   1  -8   8 403.187 269.362   3
   1  -7 -13 14066.2 1318.02   4
   1  -7 -12 172.858 137.263   4
   1  -7 -11 4774.26 752.298   4
  -1   7  11 4947.34 863.441   6
  -1   7  10 1464.44 489.805   6
   1  -7 -10 1424.36 391.699   4
   1  -7  -9 22888.4 1610.60   4
  -1   7   9 23731.1 1879.74   6
  -1   7   8 2858.11 649.274   6
   1  -7  -8 3096.84 579.997   4
  -1   7   7 340.156 117.785   2
  -1   7   7 555.524 300.858   6
   1  -7  -6 179.939 81.9733   3
   1  -7  -6 80.6069 119.935   4
  -1   7   6-194.323 126.277   2
  -1   7   6 75.9184 225.871   6
   1  -7  -5 24458.6 1542.58   4
   1  -7  -5 23017.4 1240.84   3
  -1   7   5 25204.1 1812.38   6
  -1   7   4 2585.91 365.743   1
   1  -7  -4 2182.67 359.562   3
   1  -7  -4 1963.88 422.131   4
  -1   7   4 2919.19 412.524   2
  -1   7   4 2149.94 523.419   6
  -1   7   3 52142.1 1684.35   2
  -1   7   3 52099.4 2544.84   6
   1  -7  -3 52765.4 2248.63   4
  -1   7   3 58850.4 1619.56   1
   1  -7  -3 49901.1 1848.07   3
   1  -7  -2 683.712 144.226   2
   1  -7  -2 394.739 99.6330   7
   1  -7  -2 479.465 226.587   4
  -1   7   2 473.130 96.1821   1
  -1   7   2 431.391 195.410   6
   1  -7  -1 27779.9 1535.29   4
   1  -7  -1 26958.9 1050.24   7
   1  -7  -1 29071.1 933.677   2
  -1   7   1 28178.5 1757.44   6
  -1   7   0 1907.21 448.755   6
   1  -7   0 1351.47 315.488   4
   1  -7   0 1792.29 218.214   2
   1  -7   0 1758.30 295.826   7
   1  -7   1 1000.93 270.857   4
   1  -7   1 1340.56 280.706   7
  -1   7  -1 1355.69 268.419   7
   1  -7   1 1450.78 213.370   2
  -1   7  -1 1434.00 420.940   6
   1  -7   2 9428.26 822.676   4
   1  -7   2 9794.47 628.948   2
   1  -7   2 10310.7 843.828   7
  -1   7  -2 9589.90 1037.35   6
  -1   7  -2 10074.8 831.886   7
  -1   7  -3 18778.6 1231.95   7
   1  -7   3 19053.2 1148.53   4
   1  -7   3 20580.2 1026.78   2
   1  -7   3 19676.4 496.059   1
   1  -7   3 20253.2 1281.99   7
  -1   7  -4 1475.40 373.768   7
   1  -7   4 2145.65 487.241   3
   1  -7   4 2100.47 236.389   1
   1  -7   4 1697.79 329.994   4
   1  -7   4 1353.75 275.794   2
   1  -7   5 32021.2 1381.19   4
  -1   7  -5 31333.6 1848.09   7
   1  -7   5 28847.7 1858.49   3
   1  -7   6 4348.39 725.830   3
   1  -7   6 5157.64 500.188   4
  -1   7  -6 3832.44 668.950   7
   1  -7   7 28912.5 1995.08   3
  -1   7  -7 28103.7 1958.29   7
  -1   7  -8 1147.21 405.937   7
   1  -7   8 1585.10 490.189   3
  -1   7  -9 4146.85 822.655   7
   1  -7   9 2715.88 642.540   3
  -1   6  13 6548.34 889.691   3
   1  -6 -13 7764.10 917.841   4
   1  -6 -12 723.501 301.890   4
  -1   6  12 284.589 157.104   3
   1  -6 -11 16610.1 1330.25   4
  -1   6  11 14356.0 1222.44   3
   1  -6 -10 188.094 180.361   4
  -1   6  10 669.933 251.103   3
  -1   6   9 10637.4 1149.24   6
  -1   6   9 11759.1 1046.15   3
   1  -6  -9 11792.9 1083.13   4
  -1   6   8 6079.00 704.370   2
   1  -6  -8 7026.43 809.718   4
  -1   6   8 6268.79 869.300   6
   1  -6  -7 70940.2 2662.17   4
   1  -6  -7 61521.7 2302.31   3
  -1   6   7 64082.7 2376.54   2
  -1   6   7 66357.4 2928.74   6
  -1   6   6 966.294 247.576   2
   1  -6  -6 963.455 265.931   3
   1  -6  -6 873.303 279.134   4
  -1   6   6 922.789 353.752   6
   1  -6  -5 67377.4 2520.95   4
   1  -6  -5 62340.8 2049.87   3
  -1   6   5 72115.0 2922.58   6
   1  -6  -4 7349.02 781.097   4
  -1   6   4 7125.97 638.845   2
   1  -6  -4 6963.06 603.246   3
  -1   6   4 6700.03 835.387   6
  -1   6   3 61028.4 1829.38   2
  -1   6   3 58107.4 1687.22   1
  -1   6   3 60686.6 2523.39   6
   1  -6  -3 58058.9 1846.07   3
   1  -6  -3 59986.0 2273.60   4
   1  -6  -2 367.645 159.691   4
  -1   6   2 393.220 117.332   2
   1  -6  -2 400.701 87.1110   7
   1  -6  -2 293.956 148.178   6
   1  -6  -2 441.645 109.273   2
  -1   6   2 101.447 128.461   6
  -1   6   2 302.590 97.8488   1
   1  -6  -1 439.252 118.297   2
   1  -6  -1 351.256 195.196   4
  -1   6   1 532.866 223.697   6
   1  -6  -1 892.114 252.691   6
   1  -6  -1 499.164 137.499   7
  -1   6   1 425.863 74.5431   1
   1  -6  -1 804.352 268.796   5
   1  -6   0 12193.7 905.206   4
   1  -6   0 13494.3 1129.10   5
   1  -6   0 14243.2 1022.51   6
  -1   6   0 12629.9 1059.94   6
   1  -6   0 13397.9 630.150   2
   1  -6   0 13184.0 754.376   7
  -1   6  -1 35768.3 1852.24   6
   1  -6   1 36435.8 1439.33   7
   1  -6   1 36567.4 1574.01   4
   1  -6   1 37877.9 1716.80   8
  -1   6  -1 37278.1 1425.08   7
   1  -6   1 41516.9 1866.82   6
   1  -6   1 36949.1 1202.00   2
   1  -6   1 42525.2 2058.44   5
   1  -6   2 19761.3 1270.65   8
  -1   6  -2 19382.6 1361.72   6
   1  -6   2 20655.5 1442.21   5
   1  -6   2 19357.4 1104.08   7
   1  -6   2 21027.8 1142.99   4
   1  -6   2 20337.2 938.517   2
   1  -6   2 21510.8 1377.21   6
   1  -6   2 20775.7 550.411   1
  -1   6  -2 19375.4 1101.20   7
   1  -6   3 42160.8 1796.83   7
   1  -6   3 43188.3 1636.29   4
  -1   6  -3 39997.4 1760.61   7
   1  -6   3 43121.1 1547.44   2
   1  -6   3 42855.4 1145.88   1
   1  -6   3 38929.5 2025.25   5
   1  -6   4 263.747 164.824   7
   1  -6   4 217.043 114.903   4
  -1   6  -4 488.494 222.782   7
   1  -6   4 36.6141 124.116   3
   1  -6   4 367.527 118.762   1
   1  -6   5 29808.0 1220.35   1
   1  -6   5 27189.2 1686.32   3
   1  -6   5 29800.4 1204.15   4
  -1   6  -5 28332.8 1681.95   7
  -1   6  -6 116.200 101.579   5
  -1   6  -6 173.775 179.718   7
   1  -6   6-11.4550 159.139   3
   1  -6   6 22.8912 75.9123   1
   1  -6   6-17.1302 62.5266   4
   1  -6   7 12245.7 905.620   1
  -1   6  -7 13323.7 1276.44   7
   1  -6   7 12547.8 601.786   4
   1  -6   7 13602.1 1268.69   3
  -1   6  -7 12309.5 1251.23   5
   1  -6   8 192.529 242.618   3
  -1   6  -8 290.106 244.218   7
  -1   6  -8 424.473 246.431   5
  -1   6  -9 13830.8 1443.81   5
   1  -6   9 15368.7 1453.92   3
  -1   6  -9 14793.4 1484.96   7
  -1   6 -10 309.997 191.256   7
   1  -6  10 157.743 175.012   3
  -1   6 -10 265.649 192.463   5
  -1   6 -11 417.331 274.482   5
  -1   5  13 23038.7 1613.68   3
   1  -5 -12 731.908 277.906   4
  -1   5  12 634.925 235.598   3
  -1   5  11 7842.71 890.913   3
   1  -5 -11 7150.65 816.996   4
  -1   5  10 578.089 200.755   3
   1  -5 -10 1013.51 309.613   4
  -1   5   9 59507.8 2324.84   3
   1  -5  -9 61258.5 2415.96   4
  -1   5   8 1326.95 337.708   3
  -1   5   8 1323.45 326.753   2
   1  -5  -8 1098.18 301.146   4
   1  -5  -8 1318.67 327.588   3
   1  -5  -7 69094.0 2396.41   3
   1  -5  -7 71720.5 2553.64   4
  -1   5   7 69343.9 2425.10   3
  -1   5   7 67769.6 2356.08   2
  -1   5   6 7058.21 679.724   2
  -1   5   6 7206.39 822.272   6
   1  -5  -6 7008.50 735.121   4
   1  -5  -6 7123.27 658.155   3
   1  -5  -5 17149.9 957.010   3
   1  -5  -5 18041.7 1163.42   4
  -1   5   5 17234.8 1248.24   6
  -1   5   4 6542.40 582.231   2
  -1   5   4 6486.25 735.335   6
   1  -5  -4 5760.48 510.130   3
   1  -5  -4 5862.65 638.426   4
   1  -5  -3 32096.6 1489.83   4
  -1   5   3 29003.7 1550.88   6
   1  -5  -3 30716.2 1158.67   3
  -1   5   3 30229.5 1206.20   2
  -1   5   2 3459.91 321.080   1
   1  -5  -2 4031.45 339.998   2
   1  -5  -2 4754.21 545.181   4
  -1   5   2 3811.44 534.309   6
  -1   5   2 3763.16 372.753   2
   1  -5  -2 4009.01 237.502   7
   1  -5  -1 220529. 4637.72   4
   1  -5  -1 226963. 3815.21   2
  -1   5   1 223049. 3627.73   1
   1  -5  -1 222059. 3784.31   7
  -1   5   1 223553. 4960.81   6
  -1   5   1 220525. 3957.12   2
  -1   5   0 3014.57 459.904   6
   1  -5   0 3345.83 300.350   2
   1  -5   0 3592.09 441.136   4
   1  -5   0 3494.74 346.060   7
   1  -5   1 23376.8 889.810   2
   1  -5   1 23056.4 1131.07   4
  -1   5  -1 22933.8 1018.94   7
  -1   5  -1 23595.1 1342.61   6
   1  -5   1 23014.3 1043.36   7
   1  -5   1 21935.8 1188.97   8
   1  -5   2 2939.96 378.713   4
   1  -5   2 3043.29 343.181   2
   1  -5   2 3136.41 505.678   5
   1  -5   2 3540.61 486.661   8
  -1   5  -2 3073.17 477.689   6
   1  -5   2 3565.81 262.909   1
   1  -5   2 3871.08 522.020   6
  -1   5  -2 3722.92 443.849   7
   1  -5   2 3365.46 421.736   7
   1  -5   3 159982. 4200.41   5
   1  -5   3 168402. 4223.82   6
   1  -5   3 162260. 3036.15   1
   1  -5   3 166100. 3853.36   7
   1  -5   3 158731. 4001.61   3
   1  -5   3 160951. 3450.62   4
  -1   5  -3 156771. 3788.76   7
   1  -5   3 164379. 4063.17   8
   1  -5   4 619.476 153.982   1
   1  -5   4 335.836 159.817   3
   1  -5   4 479.140 183.364   7
  -1   5  -4 622.698 232.209   7
   1  -5   4 294.379 178.662   6
   1  -5   4 512.937 148.541   4
  -1   5  -4 576.099 222.684   5
   1  -5   4 508.654 217.239   5
   1  -5   4 467.833 198.983   8
  -1   5  -5 30484.8 1661.31   7
   1  -5   5 30534.9 1092.69   4
   1  -5   5 31061.8 1677.46   3
   1  -5   5 33140.6 1730.34   5
   1  -5   5 30219.4 1256.43   1
   1  -5   5 31649.0 1640.01   7
  -1   5  -5 29767.4 1712.55   5
  -1   5  -6 1039.94 321.321   7
   1  -5   6 710.226 143.309   4
  -1   5  -6 793.139 302.428   5
   1  -5   6 735.072 261.797   3
  -1   5  -7 9089.34 1007.27   7
   1  -5   7 9090.64 395.613   4
  -1   5  -7 9052.36 1027.08   5
   1  -5   7 9364.76 995.541   3
   1  -5   8 253.985 193.251   3
  -1   5  -8-58.4182 192.348   7
  -1   5  -8 286.020 222.860   5
   1  -5   9 11928.9 1215.10   3
  -1   5  -9 12907.6 1320.72   7
  -1   5  -9 11173.0 1257.82   5
   1  -5  10 499.732 225.724   3
  -1   5 -10 1207.40 432.624   5
  -1   5 -10 1545.07 490.728   7
  -1   5 -11 8242.05 1174.30   7
   1  -5  11 8598.20 1126.85   3
  -1   5 -11 9251.21 1236.45   5
  -1   5 -12 3994.26 846.679   5
   1  -4 -14 640.803 338.865   5
  -1   4  13 15463.9 1302.05   3
   1  -4 -12 5406.11 656.532   4
  -1   4  12 4106.60 631.478   3
   1  -4 -11 17076.9 1182.05   4
  -1   4  11 15329.6 1175.96   3
  -1   4  10 27762.1 1511.63   3
   1  -4 -10 28392.5 1512.47   4
   1  -4 -10 27470.8 1277.34   7
   1  -4  -9 32710.4 1294.26   7
  -1   4   9 31388.5 1552.61   3
   1  -4  -9 30891.8 1571.16   4
  -1   4   9 30977.6 1278.22   7
   1  -4  -8 8789.87 870.418   3
   1  -4  -8 9824.17 845.915   4
  -1   4   8 8957.78 599.526   7
  -1   4   8 8215.86 785.649   2
  -1   4   8 9012.50 775.571   3
   1  -4  -8 8756.17 584.002   7
   1  -4  -7 6312.23 657.886   4
   1  -4  -7 6485.34 685.026   3
  -1   4   7 5483.17 612.258   2
  -1   4   7 6641.80 461.817   7
  -1   4   7 6058.03 611.499   3
   1  -4  -7 6257.51 430.425   7
   1  -4  -6 49765.4 1181.26   7
   1  -4  -6 49459.8 1899.39   4
  -1   4   6 44203.9 1742.08   2
   1  -4  -6 45450.4 1754.67   3
  -1   4   6 48046.4 1759.07   3
   1  -4  -5 11022.0 843.261   4
  -1   4   5 11982.3 805.374   3
   1  -4  -5 11546.9 761.467   3
   1  -4  -5 11993.5 394.099   7
  -1   4   4 2524.37 382.691   2
  -1   4   4 3429.09 504.215   6
   1  -4  -4 1412.96 329.464   4
   1  -4  -4 2581.13 346.172   3
   1  -4  -3 271345. 5308.95   4
  -1   4   3 266992. 4888.88   2
   1  -4  -3 268581. 4708.02   3
  -1   4   3 275894. 4603.95   8
  -1   4   3 284561. 5557.89   6
   1  -4  -3 276163. 4689.65   2
  -1   4   2 41365.3 1304.67   8
   1  -4  -2 40860.8 823.006   7
   1  -4  -2 40643.0 1536.32   4
   1  -4  -2 43471.4 1192.03   2
  -1   4   2 40829.5 1629.90   6
   1  -4  -2 39137.7 1200.37   3
  -1   4   2 40595.5 1282.76   2
  -1   4   1 48877.9 1192.32   1
  -1   4   1 48052.7 1508.28   8
   1  -4  -1 49207.4 1260.68   2
  -1   4   1 47429.6 1317.53   2
  -1   4   1 47898.7 1726.35   6
   1  -4  -1 45833.1 1122.77   7
   1  -4  -1 51420.5 1691.82   4
  -1   4   0 2256.70 184.150   1
   1  -4   0 2584.90 270.440   7
   1  -4   0 1782.13 285.821   4
   1  -4   0 2109.52 226.553   2
  -1   4   0 2268.70 319.028   8
  -1   4   0 2438.59 374.607   6
   1  -4   1 183777. 3653.67   4
   1  -4   1 172648. 3489.27   7
   1  -4   1 181209. 3351.28   2
   1  -4   1 186562. 3839.81   8
   1  -4   1 181435. 2952.68   1
  -1   4  -1 183443. 3491.23   7
  -1   4  -1 191688. 4110.48   6
  -1   4  -2 1207.20 273.607   6
   1  -4   2 1663.95 257.115   4
   1  -4   2 1253.83 166.084   1
  -1   4  -2 1735.15 281.979   7
   1  -4   2 1290.70 271.698   8
   1  -4   2 1154.37 233.023   7
   1  -4   3 269787. 4600.54   4
   1  -4   3 252916. 4407.39   1
   1  -4   3 258547. 5216.77   3
   1  -4   3 263123. 5112.32   7
   1  -4   3 259184. 5266.14   8
   1  -4   3 266411. 5462.43   5
  -1   4  -3 266950. 5424.88   5
  -1   4  -3 250189. 5046.21   7
   1  -4   4 3363.52 495.298   6
   1  -4   4 3730.66 494.832   8
  -1   4  -4 3483.68 485.984   7
   1  -4   4 3362.59 485.627   3
  -1   4  -4 4019.80 545.577   5
   1  -4   4 4379.39 550.306   5
   1  -4   4 3133.40 450.526   7
   1  -4   4 2998.02 305.710   4
   1  -4   5 12696.7 964.969   8
   1  -4   5 11033.7 921.926   3
  -1   4  -5 12301.1 975.554   7
   1  -4   5 11624.5 546.901   4
   1  -4   5 11666.6 992.678   6
   1  -4   5 11040.3 912.472   7
   1  -4   5 12308.7 957.785   5
  -1   4  -5 11507.5 986.444   5
   1  -4   6 19.3069 25.8030   4
  -1   4  -6-28.8865 95.4585   7
   1  -4   6 46.4472 162.463   6
   1  -4   6 233.430 137.380   5
   1  -4   6 45.3922 114.107   8
  -1   4  -6-48.5763 142.538   5
   1  -4   6 106.612 130.083   3
   1  -4   6-138.349 162.628   7
   1  -4   7 38563.3 1941.52   3
   1  -4   7 41485.2 1956.87   5
  -1   4  -7 40298.1 2052.06   7
  -1   4  -7 38816.1 2093.08   5
  -1   4  -8 108.928 122.549   5
   1  -4   8 35.6804 155.667   3
  -1   4  -8 245.475 191.382   7
   1  -4   9 59104.0 2649.13   3
  -1   4  -9 59008.7 2900.19   5
  -1   4  -9 63189.1 2899.23   7
  -1   4 -10 2577.91 598.615   7
   1  -4  10 1863.81 474.399   3
  -1   4 -10 1538.48 476.571   5
  -1   4 -11 17719.6 1635.56   7
   1  -4  11 16224.8 1472.60   3
  -1   4 -11 16091.5 1627.27   5
  -1   4 -12 90.4973 196.673   5
  -1   4 -13 3885.36 871.903   5
   1  -3 -14 2794.19 697.882   5
  -1   3  14 5196.72 772.662   3
   1  -3 -13 9592.02 955.343   7
   1  -3 -13 7478.05 1081.22   5
  -1   3  13 9277.59 984.384   3
   1  -3 -12 2746.87 478.758   7
  -1   3  12 3406.22 564.303   3
   1  -3 -12 3304.19 469.820   4
  -1   3  11 13924.6 1095.67   3
   1  -3 -11 15639.5 1097.65   7
  -1   3  11 15075.4 1088.92   7
   1  -3 -11 15292.8 1027.59   4
   1  -3 -10 330.226 164.523   7
  -1   3  10 317.457 148.018   7
  -1   3  10 236.341 150.663   3
   1  -3 -10 597.861 206.992   4
   1  -3  -9 303.383 157.405   4
   1  -3  -9 113.284 98.9418   7
  -1   3   9 233.812 147.248   3
   1  -3  -8 14430.6 960.384   4
  -1   3   8 13079.2 816.794   7
   1  -3  -8 14840.8 868.918   7
  -1   3   8 14765.2 946.558   3
  -1   3   8 12975.5 981.510   2
   1  -3  -8 14769.8 1130.54   3
  -1   3   7 42913.2 1606.87   3
   1  -3  -7 42740.7 1682.82   4
  -1   3   7 41269.0 1411.10   7
   1  -3  -7 42189.1 1816.00   3
  -1   3   7 39734.5 1680.02   2
   1  -3  -7 42175.1 1406.56   7
   1  -3  -6 5329.63 552.218   4
  -1   3   6 5568.39 564.417   2
   1  -3  -6 5470.77 420.304   7
  -1   3   6 6105.67 556.986   3
  -1   3   6 5696.69 435.749   7
   1  -3  -6 5770.76 582.201   3
  -1   3   5 63691.2 1868.42   3
   1  -3  -5 62322.9 1494.07   7
   1  -3  -5 65001.2 2025.20   4
  -1   3   5 63230.6 1522.52   7
   1  -3  -5 61650.7 1897.09   3
  -1   3   5 67207.1 1189.06   8
   1  -3  -4 16563.8 556.314   7
   1  -3  -4 17982.5 959.409   4
  -1   3   4 17507.9 556.009   8
  -1   3   4 16165.2 847.182   2
   1  -3  -4 16898.4 815.404   3
  -1   3   4 18008.3 854.609   3
  -1   3   3 55227.7 1264.59   8
  -1   3   3 56919.3 1818.76   6
   1  -3  -3 51061.0 1384.53   3
  -1   3   3 51138.8 1521.54   2
   1  -3  -3 54343.7 1009.66   7
   1  -3  -3 53426.8 1710.41   4
  -1   3   3 58661.4 1576.89   3
   1  -3  -3 53020.2 1467.62   2
  -1   3   2 57351.9 1394.46   8
   1  -3  -2 58284.1 1723.94   4
  -1   3   2 54407.5 1481.66   2
   1  -3  -2 57945.2 1419.98   2
  -1   3   2 57667.1 1753.39   6
   1  -3  -2 54199.7 1331.03   3
  -1   3   1 152600. 2943.43   8
   1  -3  -1 150039. 2480.44   7
  -1   3   1 159177. 3238.43   6
   1  -3  -1 153812. 2750.90   2
   1  -3  -1 154747. 3166.45   4
   1  -3  -1 152126. 3047.46   6
  -1   3   1 152319. 2694.53   1
  -1   3   1 152227. 2829.43   2
   1  -3   0 3997.66 382.485   4
   1  -3   0 4012.75 254.037   1
   1  -3   0 4506.44 322.214   2
   1  -3   0 4286.71 301.179   7
  -1   3   0 4729.16 438.138   6
  -1   3   0 4665.69 277.360   1
  -1   3   0 4138.88 383.552   8
   1  -3   0 4328.06 394.323   6
  -1   3   0 4183.04 321.025   2
  -1   3  -1 11737.5 731.999   6
   1  -3   1 11920.7 473.434   1
   1  -3   1 14016.3 655.325   7
  -1   3  -1 12674.1 614.362   7
   1  -3   1 11628.8 634.699   4
   1  -3   1 12761.7 589.049   2
   1  -3   1 11461.5 700.153   6
  -1   3  -2-28.3302 74.3944   5
   1  -3   2 10.0109 74.6205   8
   1  -3   2 16.1031 38.9378   7
  -1   3  -2 131.777 102.323   7
   1  -3   2 4.17926 23.3116   1
  -1   3  -2-56.9956 71.0313   6
   1  -3   2 80.4305 68.2940   4
   1  -3   3 2862.90 364.621   7
   1  -3   3 3115.50 391.155   8
  -1   3  -3 2709.91 405.411   5
   1  -3   3 3317.41 407.589   3
   1  -3   3 2266.61 237.985   4
  -1   3  -3 2924.08 371.236   7
  -1   3  -4 437.266 201.377   5
   1  -3   4 655.987 200.980   5
   1  -3   4 445.778 183.393   3
  -1   3  -4 815.732 248.467   7
   1  -3   4 582.698 185.665   8
   1  -3   4 564.346 114.211   4
   1  -3   5 734417. 11729.6   8
   1  -3   5 741322. 12071.7   6
  -1   3  -5 725056. 11862.3   7
  -1   3  -5 703873. 12044.6   5
   1  -3   5 715332. 11768.3   5
   1  -3   5 715051. 11794.8   3
   1  -3   6 2006.19 382.691   5
  -1   3  -6 1878.17 403.839   5
   1  -3   6 1856.79 389.375   6
  -1   3  -6 2003.99 405.067   7
   1  -3   6 2205.88 408.557   7
   1  -3   6 1657.35 376.124   3
  -1   3  -7 33406.9 1837.58   5
   1  -3   7 36111.4 1740.43   5
  -1   3  -7 39429.5 1923.33   7
   1  -3   7 39240.3 1844.66   3
   1  -3   8 831.688 285.472   5
  -1   3  -8 1090.62 338.589   5
  -1   3  -8 962.916 312.936   7
   1  -3   8 782.879 276.984   3
   1  -3   9 36344.9 1957.40   3
  -1   3  -9 37218.0 2073.45   7
  -1   3  -9 31808.4 1998.76   5
  -1   3 -10 834.145 341.274   5
  -1   3 -10 2100.17 526.763   7
   1  -3  10 1640.32 437.687   3
   1  -3  11 10920.3 1155.13   3
  -1   3 -11 11827.0 1277.59   7
  -1   3 -11 11998.0 1346.29   5
  -1   3 -12 83.9436 134.724   5
  -1   3 -12 782.788 349.705   7
   1  -3  12 896.922 335.922   3
  -1   3 -13 5618.59 1016.12   5
  -1   3 -14 510.016 356.546   5
   1  -2 -14-15.5159 110.364   7
  -1   2  13 13969.4 1228.42   3
   1  -2 -13 11209.5 1278.55   5
   1  -2 -13 14260.2 1231.15   7
  -1   2  12 8945.24 936.692   3
   1  -2 -12 11229.0 1034.75   7
   1  -2 -11 1043.87 297.013   4
  -1   2  11 2170.66 458.147   3
   1  -2 -11 1222.94 330.015   7
   1  -2 -11 1067.18 376.370   5
   1  -2 -10 60912.2 2299.72   7
   1  -2 -10 61162.2 1976.67   4
  -1   2  10 56600.3 2228.86   7
  -1   2  10 60977.4 2298.40   3
  -1   2   9 38189.4 1694.26   3
   1  -2  -9 39068.2 1706.47   7
  -1   2   9 38403.9 1684.47   7
   1  -2  -9 39692.6 1530.19   4
   1  -2  -8 11990.1 795.920   4
   1  -2  -8 13037.4 888.897   7
  -1   2   8 11333.8 843.480   3
   1  -2  -8 12531.6 1066.21   3
  -1   2   8 11400.3 912.762   2
  -1   2   8 12224.3 476.360   8
   1  -2  -7 107429. 3140.29   3
   1  -2  -7 109858. 2726.37   4
  -1   2   7 109709. 1936.01   8
  -1   2   7 112378. 2816.58   3
  -1   2   7 103030. 2921.53   2
   1  -2  -7 104428. 2710.14   7
  -1   2   7 106070. 2698.26   7
   1  -2  -6 11638.1 843.515   3
  -1   2   6 11164.2 694.345   7
  -1   2   6 10200.2 761.491   2
   1  -2  -6 11686.2 745.032   4
   1  -2  -6 11340.3 699.777   7
  -1   2   6 10887.4 721.231   3
   1  -2  -5 41656.8 1299.20   7
  -1   2   5 38540.4 1256.46   7
   1  -2  -5 42412.5 1437.67   4
   1  -2  -5 41185.8 1492.72   3
  -1   2   5 42287.1 1374.56   3
   1  -2  -4 101802. 2111.52   7
  -1   2   4 105227. 2157.49   7
   1  -2  -4 105760. 2409.25   3
  -1   2   4 98920.4 2399.06   2
  -1   2   3 574.790 141.243   2
   1  -2  -3 593.119 105.607   7
  -1   2   3 405.620 105.738   3
   1  -2  -3 580.852 117.251   3
   1  -2  -2 13155.0 513.655   3
  -1   2   2 15822.6 583.950   3
   1  -2  -2 14757.8 456.173   7
  -1   2   2 13780.0 631.196   2
   1  -2  -2 14593.6 622.152   2
  -1   2   1 29237.9 850.978   1
  -1   2   1 29335.7 899.985   2
  -1   2   1 30774.8 997.314   6
   1  -2  -1 29547.8 729.660   3
   1  -2  -1 29716.2 909.344   6
   1  -2  -1 29759.9 871.223   2
  -1   2   0 158.603 52.5969   2
   1  -2   0 151.055 57.0918   1
   1  -2   0 128.208 54.6319   6
  -1   2   0 132.512 79.1495   6
   1  -2   0 141.773 66.9760   2
  -1   2   0 123.686 53.4117   1
   1  -2   1 276963. 4627.29   6
   1  -2   1 272016. 4444.49   7
  -1   2  -1 278714. 4758.98   5
  -1   2  -1 283315. 4675.19   6
   1  -2   1 267774. 4238.92   1
  -1   2  -1 279402. 4245.59   1
   1  -2   1 271677. 4420.90   2
  -1   2  -2 56.0513 58.6673   5
   1  -2   2-21.1628 68.6411   7
  -1   2  -2 68.6894 79.3477   7
   1  -2   2-9.85159 43.2787   6
   1  -2   2 17.7368 33.8405   1
   1  -2   2-41.2154 76.6155   3
   1  -2   3 698525. 9858.41   4
   1  -2   3 664642. 10658.7   6
  -1   2  -3 693600. 10842.9   5
   1  -2   3 685735. 10576.4   3
  -1   2  -3 707204. 10594.6   7
   1  -2   4 650.240 186.234   5
   1  -2   4 604.384 182.336   3
  -1   2  -4 654.012 175.190   8
   1  -2   4 542.277 80.6482   4
  -1   2  -4 252.371 125.699   5
  -1   2  -4 472.005 164.215   7
  -1   2  -5 6399.36 629.646   5
   1  -2   5 4967.32 532.277   3
  -1   2  -5 5081.86 548.871   7
   1  -2   5 7200.25 631.674   5
  -1   2  -6 4.67370 131.062   5
   1  -2   6-88.0064 138.276   5
  -1   2  -6 23.2984 110.406   7
   1  -2   6 119.577 81.1377   3
  -1   2  -7 12691.5 1034.96   5
  -1   2  -7 12242.7 1070.13   3
   1  -2   7 12471.2 962.017   3
   1  -2   7 11970.1 970.881   7
  -1   2  -7 13084.8 1017.35   7
   1  -2   8 353.313 224.999   3
  -1   2  -8 504.722 228.014   7
  -1   2  -8 224.810 119.773   5
   1  -2   9 20088.0 1380.48   3
  -1   2  -9 18906.3 1405.48   7
  -1   2  -9 21198.7 1573.20   5
  -1   2 -10 72.0718 131.300   5
   1  -2  10 477.110 280.242   3
  -1   2 -10 571.939 269.180   7
  -1   2 -11 34222.1 2267.90   5
  -1   2 -11 37126.9 2199.73   7
   1  -2  11 37358.6 2090.42   3
  -1   2 -12 15750.1 1480.98   7
  -1   2 -12 11009.4 1350.39   5
   1  -2  12 15118.4 1360.67   3
   1  -2  13 12587.8 1297.83   3
  -1   2 -13 9630.42 1307.84   5
  -1   2 -14 88.8307 94.2039   5
   1  -1 -14 234.866 189.505   7
   1  -1 -13 6687.38 961.900   5
   1  -1 -13 7668.22 953.311   7
  -1   1  13 7380.81 924.259   3
  -1   1  12 3392.37 606.588   3
   1  -1 -12 1610.02 445.237   5
   1  -1 -12 3363.61 602.646   7
   1  -1 -11 86045.2 2123.03   4
  -1   1  11 81800.3 2941.87   3
   1  -1 -11 84573.8 3064.48   7
   1  -1 -10 2101.96 450.080   7
  -1   1  10 1553.35 356.586   3
  -1   1  10 2104.91 280.746   8
   1  -1 -10 2111.45 297.394   4
   1  -1  -9 20873.5 1423.93   5
   1  -1  -9 20158.7 1283.22   7
   1  -1  -9 22886.3 1021.49   4
  -1   1   9 23245.1 1326.86   3
  -1   1   9 22885.6 932.040   8
  -1   1   9 22358.4 1333.50   7
   1  -1  -8 19305.5 1351.59   3
  -1   1   8 16844.3 1088.16   7
  -1   1   8 18131.3 1159.89   2
  -1   1   8 16769.6 1062.78   3
   1  -1  -8 18612.4 1160.89   7
  -1   1   8 17661.1 780.661   8
   1  -1  -8 18489.6 892.301   4
   1  -1  -7 39970.5 1833.49   3
  -1   1   7 37364.8 1533.25   3
   1  -1  -7 39076.1 1341.07   4
  -1   1   7 37401.7 1615.00   2
   1  -1  -7 39120.9 1616.63   7
  -1   1   6 3430.05 417.549   7
   1  -1  -6 4060.99 506.985   3
   1  -1  -6 4290.11 467.071   7
   1  -1  -6 3682.29 366.795   4
  -1   1   6 3967.72 450.492   3
  -1   1   5 2392.32 322.916   3
  -1   1   5 2593.18 331.346   7
   1  -1  -5 2452.40 353.983   3
   1  -1  -5 2687.74 336.968   7
   1  -1  -4 63.2870 282.026   7
  -1   1   4 310.246 125.989   3
   1  -1  -3 124387. 2477.08   3
   1  -1  -3 126911. 2433.73   7
  -1   1   3 125853. 2389.84   3
  -1   1   3 122389. 2405.97   7
  -1   1   2 4005.77 274.198   7
   1  -1  -2 3726.92 268.007   7
  -1   1   2 3874.86 249.663   3
   1  -1  -2 3638.22 253.110   3
   1  -1  -2 3779.54 301.308   2
   1  -1   0 157.290 70.6563   5
   1  -1   0 41.1339 28.9711   1
  -1   1   0-3.06162 32.3916   1
  -1   1   0 25.6039 24.4969   6
  -1   1   0 42.5767 30.0075   2
  -1   1   0 108.468 51.0988   5
   1  -1   0 69.1201 39.9722   2
   1  -1   0 98.0389 36.4956   6
  -1   1  -1 471080. 6934.87   5
   1  -1   1 444627. 6691.26   6
  -1   1  -2 44.2190 48.6336   3
   1  -1   2 61.1320 59.3465   3
   1  -1   2 110.167 53.5917   1
  -1   1  -2-21.0009 53.1609   5
  -1   1  -3 992610. 14527.3   3
  -1   1  -3 999999. 14620.5   5
   1  -1   4 68.6276 92.2893   5
   1  -1   4 382.647 147.958   3
  -1   1  -4 97.7519 111.649   7
  -1   1  -4 160.578 133.340   8
  -1   1  -4 212.333 99.9077   5
  -1   1  -5 54265.9 1632.36   8
   1  -1   5 55311.6 1823.82   3
  -1   1  -5 56729.7 1818.59   7
  -1   1  -6 533.609 215.737   5
   1  -1   6 693.024 215.466   3
  -1   1  -6 562.889 186.903   7
   1  -1   7 65732.6 2286.06   3
  -1   1  -7 65803.3 2295.78   7
   1  -1   7 66860.9 2314.68   7
  -1   1  -8 13561.3 1049.14   7
   1  -1   8 15110.3 1092.47   7
  -1   1  -8 13892.6 1206.34   3
   1  -1   8 13708.3 1030.34   3
  -1   1  -8 10940.6 1025.82   5
  -1   1  -9 11754.2 1038.53   7
  -1   1  -9 11827.4 1131.90   5
   1  -1   9 11065.0 976.597   3
   1  -1  10 7089.46 826.990   3
  -1   1 -10 6776.15 828.246   7
  -1   1 -10 5283.15 796.710   5
  -1   1 -11 32840.0 2174.31   5
  -1   1 -11 38383.1 2125.17   7
   1  -1  11 35020.7 1956.52   3
  -1   1 -12 5328.93 909.246   5
   1  -1  12 7299.34 906.150   3
   1  -1  13 3856.58 702.020   3
  -1   1 -13 3201.56 742.493   5
  -1   1 -14 4842.96 950.794   5
   1   0 -14 3453.88 696.178   7
  -1   0  13 36406.2 2131.51   3
   1   0 -13 36328.0 2221.18   7
   1   0 -12 307.252 187.488   5
  -1   0  12-41.6018 146.778   3
   1   0 -12 113.496 149.755   7
   1   0 -11 11604.6 1119.68   5
   1   0 -11 11912.4 1157.23   7
  -1   0  11 10774.0 1036.37   3
   1   0 -10 731.061 260.897   5
   1   0 -10 713.743 170.432   4
  -1   0  10 422.075 201.435   3
   1   0 -10 691.898 286.854   7
  -1   0  10 874.254 219.171   8
   1   0 -10 783.128 145.471   4
   1   0  -9 7799.82 482.242   4
  -1   0   9 7969.13 623.443   8
  -1   0   9 7888.37 804.866   3
   1   0  -9 6222.91 742.131   7
   1   0  -9 8016.18 819.165   5
  -1   0   8 3686.39 402.822   8
  -1   0   8 3858.76 544.955   7
   1   0  -8 4459.37 659.310   3
   1   0  -8 3648.99 336.128   4
   1   0  -8 3257.89 486.757   5
  -1   0   8 4021.48 547.894   3
   1   0  -8 4725.66 620.973   7
  -1   0   7 55294.1 2021.08   7
  -1   0   7 52860.6 1937.54   3
   1   0  -7 54724.5 2248.13   3
   1   0  -7 51680.5 1413.90   4
   1   0  -7 56067.5 1964.44   5
   1   0  -7 48138.9 1954.83   7
  -1   0   6 2852.89 395.042   3
   1   0  -6 1733.12 299.860   5
   1   0  -6 2676.72 407.090   7
   1   0  -6 3281.00 474.962   3
   1   0  -5 310012. 5901.50   3
   1   0  -5 310560. 5734.93   7
  -1   0   5 301100. 5645.54   7
  -1   0   5 305672. 5580.58   3
  -1   0   4 41810.1 1409.59   7
   1   0  -4 42213.3 1431.20   7
  -1   0   4 43271.0 1372.65   3
   1   0  -4 42897.5 1470.01   3
   1   0  -3 195663. 3593.21   3
  -1   0   3 190280. 3574.40   7
  -1   0   3 193660. 3481.80   3
   1   0  -3 193908. 3597.52   7
  -1   0   2 440.740 105.046   7
   1   0  -2 329.888 76.9311   3
  -1   0   2 332.113 95.6524   3
   1   0  -2 518.634 124.015   7
  -1   0  -2 32.2085 28.9849   3
  -1   0  -2-3.45042 23.9480   4
  -1   0  -2-10.9297 39.7691   5
   1   0   2 54.1504 53.4860   3
   1   0   2 66.6212 34.5859   4
   1   0   3 44739.9 1266.33   7
  -1   0  -3 46317.8 1000.23   4
   1   0   3 46019.2 950.599   4
  -1   0  -3 46579.8 1340.19   3
   1   0   3 47847.4 1290.85   3
   1   0   4 493.897 130.155   7
  -1   0  -4 319.879 137.063   5
  -1   0  -4 580.822 90.5352   4
  -1   0  -4 343.890 122.631   7
   1   0   4 448.526 69.0311   4
   1   0   4 562.920 166.726   3
  -1   0  -4 337.286 96.3285   8
   1   0   5 189297. 2989.34   4
  -1   0  -5 193863. 3510.85   8
   1   0   5 195489. 3881.90   7
   1   0   5 199446. 3939.22   3
  -1   0  -5 193399. 3076.38   4
  -1   0  -5 196829. 3870.23   7
  -1   0  -6 397.182 134.276   8
  -1   0  -6 619.283 227.393   5
  -1   0  -6 541.001 91.8853   4
   1   0   6 700.787 232.668   3
  -1   0  -6 308.723 154.128   7
   1   0   7 10773.3 816.030   7
  -1   0  -7 10902.4 819.802   7
   1   0   7 9596.05 782.614   3
  -1   0  -7 10420.7 402.661   4
  -1   0  -8 2240.89 453.116   5
  -1   0  -8 3053.37 545.815   3
  -1   0  -8 2957.87 458.461   7
   1   0   8 2976.37 464.268   7
   1   0   8 2793.63 448.017   3
   1   0   9 39324.1 1833.76   3
   1   0   9 39914.2 1857.24   7
  -1   0  -9 38965.4 1841.26   7
  -1   0  -9 36524.8 2074.00   5
   1   0  10 12212.8 1032.87   3
  -1   0 -10 10405.8 1150.58   5
  -1   0 -10 12874.7 1088.85   7
  -1   0 -11 5867.20 912.848   5
   1   0  11 7147.33 834.767   3
   1   0  12-381.162 222.906   3
  -1   0 -12-210.196 119.291   5
  -1   0 -13 2091.63 598.439   5
   1   0  13 2125.55 513.024   3
  -1   0 -14 4921.67 977.574   5
  -1   0 -15 4552.49 965.595   5
  -1  -1  13 730.051 329.306   3
   1   1 -13 1053.28 408.001   7
   1   1 -12 60.1346 104.234   5
   1   1 -12 430.874 246.020   7
  -1  -1  11 39033.9 2096.72   3
   1   1 -11 38566.1 2219.46   7
   1   1 -11 33072.9 1929.45   5
  -1  -1  10 4127.63 633.807   3
   1   1 -10 3741.73 649.428   7
  -1  -1  10 4146.24 529.623   8
   1   1 -10 2889.60 522.536   5
   1   1  -9 36016.3 1960.30   7
   1   1  -9 35882.6 1773.86   5
   1   1  -9 41326.0 904.542   4
  -1  -1   9 37145.1 1592.29   8
   1   1  -9 37130.1 812.447   4
  -1  -1   9 37279.5 1859.14   3
   1   1  -8 755.171 119.595   4
  -1  -1   8 1176.25 296.997   7
  -1  -1   8 790.044 212.743   8
   1   1  -8 526.959 201.335   5
   1   1  -8 751.039 266.935   7
  -1  -1   8 895.192 260.598   3
   1   1  -8 922.464 146.723   4
   1   1  -7 34849.3 1739.79   7
   1   1  -7 35613.1 1877.97   3
   1   1  -7 37168.2 1096.14   4
  -1  -1   7 39881.0 1768.80   7
  -1  -1   7 36091.4 1428.95   8
   1   1  -7 39150.8 1574.28   5
  -1  -1   7 36341.1 1647.60   3
   1   1  -6 40374.1 1842.43   3
  -1  -1   6 38391.9 1604.35   3
  -1  -1   6 39467.6 1668.34   7
   1   1  -6 38236.0 1446.78   5
   1   1  -6 39972.0 1139.61   4
   1   1  -6 39741.3 1742.10   7
  -1  -1   5 157991. 3594.44   3
   1   1  -5 158206. 2915.28   4
   1   1  -5 170005. 3304.60   5
   1   1  -5 156342. 3726.58   7
   1   1  -5 165809. 3861.99   3
   1   1  -4 4533.15 483.004   3
   1   1  -4 5886.73 381.138   4
   1   1  -4 4729.90 370.213   5
  -1  -1   4 4927.11 469.449   3
   1   1  -4 5922.93 731.588   7
  -1  -1   3 3493.74 372.441   7
  -1  -1   3 3705.11 364.793   3
   1   1  -3 3442.78 373.906   7
   1   1  -3 4147.76 292.978   5
   1   1  -3 3630.33 281.476   4
  -1  -1   3 4871.79 311.383   5
   1   1  -2 72.3801 58.1937   5
  -1  -1   2-6.30780 31.8715   5
   1   1  -2 20.1045 25.8432   4
   1   1  -2-22.1402 57.7472   7
  -1  -1   2 64.4896 50.7571   2
  -1  -1   2 36.3968 56.0747   3
  -1  -1   1 308255. 4626.19   4
   1   1  -1 284606. 4591.41   4
  -1  -1   1 291948. 4513.24   2
   1   1  -1 300168. 4549.60   2
   1   1  -1 308705. 4856.83   7
   1   1   0 3878.01 248.680   1
  -1  -1   0 3807.45 243.458   1
  -1  -1   0 4374.19 286.983   4
  -1  -1   0 3299.55 200.526   2
   1   1   0 4496.20 304.814   7
   1   1   0 3777.50 218.447   6
  -1  -1   0 3810.37 221.950   6
   1   1   2 715.089 131.233   3
   1   1   2 427.524 85.5653   4
  -1  -1  -3 243409. 3976.11   4
   1   1   3 245497. 3935.62   4
   1   1   4 3655.26 349.007   3
   1   1   4 3435.44 322.100   7
  -1  -1  -4 3576.34 275.870   4
   1   1   4 3263.28 256.069   4
  -1  -1  -5 57291.5 1368.31   4
  -1  -1  -5 58373.9 1302.25   8
   1   1   5 55904.2 1684.92   3
   1   1   5 56882.9 1616.14   7
   1   1   5 54612.2 1321.03   4
   1   1   6 8927.71 471.871   4
  -1  -1  -6 8968.96 483.610   4
   1   1   6 8345.42 620.807   7
  -1  -1  -6 9171.46 470.276   8
   1   1   6 9221.41 686.370   3
  -1  -1  -7 228070. 3915.41   4
   1   1   7 223971. 4674.18   3
  -1  -1  -8 110.607 182.587   5
  -1  -1  -8 208.538 82.9849   4
  -1  -1  -8 90.1164 141.400   3
   1   1   8 186.903 159.812   3
   1   1   8 125.758 112.704   7
  -1  -1  -9 211.379 158.173   5
  -1  -1  -9 122.364 75.8770   4
   1   1   9-43.6271 89.0391   7
   1   1   9 323.436 164.469   3
  -1  -1 -10 6401.23 444.131   4
   1   1  10 6494.39 771.144   3
   1   1  11 18068.7 1296.76   3
  -1  -1 -11 18140.9 1664.77   5
  -1  -1 -11 18214.6 723.800   4
  -1  -1 -12-28.1701 164.602   5
   1   1  12 261.676 184.830   3
  -1  -1 -13 15392.1 1685.65   5
   1   1  13 21638.8 1569.03   3
  -1  -1 -14 2704.57 759.345   5
   1   1  14 4356.71 730.471   3
  -1  -1 -15 5858.55 1106.95   5
   1   2 -12 2218.06 563.051   7
   1   2 -12 2093.97 513.346   5
  -1  -2  12 2276.18 536.346   3
  -1  -2  11 12144.3 1188.34   3
   1   2 -11 13801.4 1357.73   7
   1   2 -11 12272.3 1178.11   5
   1   2 -10 1971.96 432.377   5
  -1  -2  10 2525.47 514.409   3
   1   2 -10 1322.56 402.610   7
  -1  -2   9 2557.68 432.856   8
   1   2  -9 2342.90 454.270   5
  -1  -2   9 2289.23 463.603   3
   1   2  -9 1916.65 457.898   7
   1   2  -8 27957.0 1511.34   5
   1   2  -8 27393.6 1703.48   7
  -1  -2   8 28951.3 1612.91   3
  -1  -2   8 29107.7 1458.66   8
  -1  -2   7 31678.9 1467.04   8
  -1  -2   7 31726.8 1624.79   3
   1   2  -7 30140.3 1699.11   7
  -1  -2   7 34120.7 1719.70   7
   1   2  -7 32001.1 1501.95   5
   1   2  -7 32353.5 811.269   4
   1   2  -6-81.1532 149.459   7
   1   2  -6 53.0478 34.8149   4
   1   2  -6 124.322 119.732   5
  -1  -2   6 52.2165 65.1154   7
  -1  -2   6 17.9752 79.9829   3
   1   2  -5 20129.5 1004.06   5
  -1  -2   5 23173.7 1014.99   5
   1   2  -5 19677.0 703.197   4
   1   2  -5 20200.7 1208.67   7
  -1  -2   5 18947.8 1107.88   3
   1   2  -4 3507.61 369.038   5
  -1  -2   4 2901.77 307.397   5
   1   2  -4 3253.51 276.397   4
   1   2  -4 3000.74 430.960   7
  -1  -2   4 3680.02 450.741   3
  -1  -2   3 167046. 3559.73   3
  -1  -2   3 170491. 2982.24   4
   1   2  -3 162376. 2955.48   4
   1   2  -3 172642. 3679.84   7
   1   2  -3 169596. 3173.75   5
  -1  -2   3 171563. 3102.80   5
   1   2  -2 2023.67 214.932   4
  -1  -2   2 1844.25 205.263   2
  -1  -2   2 2057.51 220.925   4
   1   2  -2 1870.63 282.259   7
  -1  -2   2 1973.60 220.088   5
  -1  -2   1 10681.0 427.349   2
   1   2  -1 10626.3 613.870   7
   1   2  -1 10993.8 514.989   4
  -1  -2   1 10634.8 498.125   5
  -1  -2   1 10630.1 583.730   6
  -1  -2   1 10058.4 571.802   7
  -1  -2   0 2046.85 221.084   7
  -1  -2   0 1910.09 219.223   6
  -1  -2   0 1472.50 193.237   4
  -1  -2   0 1960.00 136.224   2
   1   2   0 1711.71 198.072   4
   1   2   0 2105.86 179.409   1
   1   2   0 1927.63 136.360   2
   1   2   0 2146.24 239.345   7
   1   2   0 2117.60 230.044   6
  -1  -2   0 1891.64 166.306   1
  -1  -2  -1 449276. 6642.05   6
   1   2   1 454891. 6692.06   6
   1   2   2 4532.90 305.571   1
   1   2   2 4399.24 321.958   6
  -1  -2  -2 4281.98 332.279   4
  -1  -2  -3 116241. 2361.60   4
   1   2   3 108473. 2305.55   4
   1   2   4 41593.2 1124.68   7
   1   2   4 39797.2 1317.40   3
  -1  -2  -4 41887.8 1242.07   4
   1   2   4 40006.0 1200.83   4
   1   2   5 105957. 2350.32   4
  -1  -2  -5 114345. 2420.42   4
   1   2   5 117213. 2662.66   3
   1   2   5 109661. 2351.99   7
   1   2   6 11888.7 685.251   7
  -1  -2  -6 11427.0 417.204   8
   1   2   6 11758.2 770.979   3
   1   2   6 11360.7 635.675   4
  -1  -2  -6 11770.4 657.178   4
   1   2   7 15693.4 952.087   3
   1   2   7 15655.9 880.711   7
   1   2   7 15841.7 789.840   4
  -1  -2  -7 17824.7 841.729   4
  -1  -2  -8 67.1020 80.2744   4
   1   2   8-75.9569 104.563   3
  -1  -2  -8 141.851 137.259   3
   1   2   9 55779.1 2036.52   7
  -1  -2  -9 58435.0 1736.55   4
   1   2   9 58468.5 2157.90   3
   1   2  10 5127.64 684.491   3
  -1  -2 -10 3697.31 423.489   4
   1   2  10 4651.61 620.932   7
   1   2  11 55506.2 2308.70   3
  -1  -2 -11 61277.9 1826.49   4
  -1  -2 -12 9466.32 663.131   4
   1   2  12 8491.57 911.440   3
  -1  -2 -13 20600.7 2004.90   5
   1   2  13 29681.4 1806.12   3
  -1  -2 -14-52.7310 148.935   5
   1   2  14 765.028 340.455   3
  -1  -2 -15 955.119 420.997   5
  -1  -3  12 794.313 335.343   3
   1   3 -12 524.639 298.233   7
   1   3 -11 7665.52 1071.51   7
  -1  -3  11 8265.09 1049.82   3
   1   3 -11 8317.43 989.690   5
   1   3 -10 380.144 244.933   5
  -1  -3  10 182.367 135.738   3
   1   3 -10 104.606 96.6737   7
   1   3  -9 50642.0 2297.75   5
  -1  -3   9 49281.9 2352.56   3
   1   3  -9 49347.1 2539.37   7
   1   3  -8 2901.33 492.280   5
  -1  -3   8 3664.73 591.716   3
   1   3  -8 2962.45 588.044   7
   1   3  -7 1356.75 372.179   7
  -1  -3   7 2291.53 416.121   8
   1   3  -7 1590.56 150.783   4
  -1  -3   7 1955.57 436.302   3
   1   3  -7 1226.53 306.246   5
  -1  -3   6 803.298 272.176   3
  -1  -3   6 814.244 244.675   8
  -1  -3   6 550.198 214.846   7
   1   3  -6 775.912 127.145   4
   1   3  -6 745.532 282.714   7
  -1  -3   6 246.353 121.052   5
   1   3  -6 1083.74 261.473   5
  -1  -3   5 28644.1 1478.53   3
  -1  -3   5 33646.1 1315.90   5
   1   3  -5 28957.0 1572.00   7
   1   3  -5 30126.5 961.669   4
   1   3  -5 32085.4 1390.41   5
  -1  -3   4 10960.9 566.373   4
  -1  -3   4 12291.8 888.700   3
   1   3  -4 10323.5 550.169   4
  -1  -3   4 10611.0 676.364   5
   1   3  -4 11308.6 740.167   5
   1   3  -4 11999.9 940.409   7
  -1  -3   3 66031.7 1847.15   5
   1   3  -3 66713.4 1650.69   4
  -1  -3   3 72817.2 1699.23   4
   1   3  -3 69840.5 2221.70   7
   1   3  -2 28466.3 988.852   4
  -1  -3   2 30297.6 991.283   4
  -1  -3   2 30514.0 1233.76   7
   1   3  -2 29601.6 1269.54   7
  -1  -3   2 27842.1 1091.65   5
  -1  -3   1 222407. 3633.50   2
  -1  -3   1 244404. 4136.26   4
   1   3  -1 232097. 4127.96   4
  -1  -3   1 233512. 4318.60   7
   1   3  -1 243841. 4470.86   6
  -1  -3   1 247213. 3781.06   1
   1   3  -1 239490. 4431.62   7
  -1  -3   1 238881. 4481.10   6
  -1  -3   1 238968. 4234.10   5
  -1  -3   0 18512.5 781.017   4
   1   3   0 16449.8 761.227   4
   1   3   0 18323.5 864.425   6
  -1  -3   0 17156.1 529.931   1
  -1  -3   0 16984.8 745.482   7
  -1  -3   0 16471.4 805.424   6
   1   3   0 17787.9 805.559   7
  -1  -3   0 17313.9 414.684   2
   1   3   1 94406.9 2195.95   6
   1   3   1 91586.2 1699.82   1
  -1  -3  -1 95180.9 2140.26   4
   1   3   1 89714.1 2132.33   4
   1   3   1 95164.6 2030.86   7
  -1  -3  -1 94456.3 2131.91   6
  -1  -3  -2 42.3135 58.9640   4
   1   3   2-78.4213 68.1973   6
   1   3   2 46.3559 33.1944   1
  -1  -3  -2 85.5136 61.0310   6
  -1  -3  -3 10014.0 619.158   4
   1   3   3 9556.30 624.114   6
   1   3   4 136755. 2980.78   4
   1   3   4 143887. 3157.08   3
  -1  -3  -4 147114. 3059.26   4
   1   3   5 7810.54 456.893   7
   1   3   5 8109.01 588.114   4
   1   3   5 7240.63 608.332   3
  -1  -3  -5 8922.97 625.655   4
   1   3   6 10551.6 691.715   4
  -1  -3  -6 10998.9 723.837   4
   1   3   6 11436.6 801.566   3
   1   3   6 10396.4 589.266   7
  -1  -3  -7 155500. 3401.11   4
   1   3   7 158382. 3670.19   3
   1   3   7 150994. 3359.71   4
   1   3   7 146987. 3168.80   7
  -1  -3  -7 149206. 3886.62   3
   1   3   8 10575.5 827.097   3
   1   3   8 10732.0 735.279   4
  -1  -3  -8 10614.2 744.741   4
  -1  -3  -8 9237.43 909.430   3
  -1  -3  -9 56603.6 1882.42   4
   1   3   9 55365.0 2112.11   3
   1   3  10 200.163 138.480   3
   1   3  10 102.202 69.8416   7
  -1  -3 -10 196.478 109.561   4
  -1  -3 -11 24954.0 1241.66   4
   1   3  11 24257.1 1378.43   7
   1   3  11 23606.8 1463.30   3
  -1  -3 -12 133.945 108.287   4
   1   3  12 382.114 217.302   3
  -1  -3 -13 3606.83 828.799   5
   1   3  13 6176.68 824.131   3
   1   3  14 767.464 318.927   3
  -1  -3 -14 373.992 328.224   5
  -1  -3 -15 8190.33 1339.15   5
   1   4 -11 19639.7 1557.69   5
  -1  -4  11 21464.7 1738.83   3
   1   4 -11 19885.7 1800.25   7
   1   4 -10 2749.12 558.288   5
  -1  -4  10 4355.91 736.250   3
   1   4 -10 3164.10 688.699   7
   1   4  -9 4964.28 713.094   5
   1   4  -9 5683.45 886.753   7
  -1  -4   9 4678.78 745.637   3
   1   4  -8 98.2018 107.338   5
   1   4  -8 90.4953 144.643   7
  -1  -4   8 176.221 118.785   3
   1   4  -7 18422.9 1253.57   5
   1   4  -7 18945.0 665.257   4
   1   4  -7 17768.2 1444.23   7
  -1  -4   7 17900.2 1136.87   5
  -1  -4   7 19455.0 1394.30   3
  -1  -4   6 19035.2 1320.07   3
  -1  -4   6 14518.6 979.612   5
   1   4  -6 19071.7 787.590   4
   1   4  -6 17823.0 1372.80   7
   1   4  -6 19039.1 1197.01   5
  -1  -4   6 18231.0 1221.36   8
  -1  -4   5 46299.6 2049.25   3
   1   4  -5 43740.3 2086.40   7
  -1  -4   5 47618.6 2035.30   7
  -1  -4   5 50167.1 2192.42   6
   1   4  -5 46746.8 1396.37   4
  -1  -4   5 47345.0 1380.71   4
   1   4  -5 47908.0 1841.60   5
  -1  -4   5 44696.6 1708.91   5
  -1  -4   5 46471.1 1941.48   8
  -1  -4   4 11694.4 955.779   6
  -1  -4   4 9355.30 583.198   4
   1   4  -4 10573.8 636.776   4
  -1  -4   4 10538.1 876.644   7
   1   4  -4 9696.43 939.389   7
  -1  -4   4 9083.15 865.075   3
  -1  -4   4 9743.54 733.546   5
  -1  -4   3 60185.7 2067.03   7
  -1  -4   3 59609.6 1932.59   5
  -1  -4   3 56928.3 1610.63   4
   1   4  -3 57495.5 1670.03   4
   1   4  -3 59244.1 2164.29   7
   1   4  -2 55.4217 48.2806   4
  -1  -4   2 122.334 87.8778   7
   1   4  -2 28.9024 90.2302   7
  -1  -4   2 36.5114 47.6321   4
  -1  -4   2 30.9951 62.0144   5
   1   4  -1 42315.7 1559.41   7
   1   4  -1 44889.6 1669.29   6
   1   4  -1 42081.7 1428.41   4
  -1  -4   1 42962.5 958.757   2
  -1  -4   1 42663.5 1486.32   7
  -1  -4   1 43233.4 1022.33   1
  -1  -4   1 43398.8 1536.05   5
   1   4   0 48100.7 1694.51   6
  -1  -4   0 48878.2 1509.58   4
   1   4   0 45552.6 1518.29   4
  -1  -4   0 46823.6 946.702   1
  -1  -4   0 45676.8 1421.60   7
  -1  -4   0 47618.0 1635.82   6
   1   4   0 46843.7 1519.82   7
  -1  -4  -1 17681.5 883.826   4
   1   4   1 16618.3 518.873   1
   1   4   1 17037.4 783.980   7
   1   4   1 17052.5 942.807   6
  -1  -4  -1 18731.8 750.694   7
  -1  -4  -1 16362.9 882.183   6
   1   4   2 227.501 71.1071   1
   1   4   2 352.169 55.6093   2
  -1  -4  -2 327.591 116.579   6
   1   4   2 403.130 119.688   7
   1   4   2 530.728 163.885   6
   1   4   3 129117. 2463.50   7
   1   4   3 126205. 3059.47   6
  -1  -4  -3 127636. 2973.77   4
   1   4   4 6046.69 580.911   6
  -1  -4  -4 6857.04 585.455   4
   1   4   5 74703.0 2314.15   3
   1   4   5 71992.8 1547.45   7
  -1  -4  -5 77242.4 2247.70   4
   1   4   5 71069.5 2247.84   6
   1   4   5 72744.3 2164.87   4
  -1  -4  -6 13.5359 73.0206   3
   1   4   6 236.876 124.316   4
  -1  -4  -6 283.542 121.659   4
   1   4   6 80.8763 48.6179   7
   1   4   6 161.601 98.8099   3
  -1  -4  -7 46239.3 1933.34   3
  -1  -4  -7 47305.5 1784.26   4
   1   4   7 45585.0 1834.81   3
   1   4   7 46482.6 1749.48   4
   1   4   7 46448.8 1375.88   7
   1   4   8 7061.81 725.058   3
  -1  -4  -8 7092.68 673.444   4
   1   4   8 7521.63 671.860   4
  -1  -4  -8 6244.43 733.903   3
   1   4   8 6757.42 532.921   7
   1   4   9 4443.86 601.569   3
  -1  -4  -9 5296.87 588.912   4
   1   4  10 2449.29 371.025   7
  -1  -4 -10 1776.16 359.700   4
   1   4  10 2581.74 486.449   3
  -1  -4 -11 335.658 160.644   4
   1   4  11 370.389 240.319   3
   1   4  11 516.929 193.745   7
  -1  -4 -12-26.3606 109.544   4
   1   4  12 61.6359 144.706   3
   1   4  13 25505.0 1706.17   3
   1   4  14 334.647 246.955   3
  -1  -4 -14 745.204 428.827   5
  -1  -4 -15 7102.84 1244.12   5
  -1  -5  10 99.1989 137.111   3
   1   5 -10 19.9739 193.202   5
   1   5  -9 45717.7 2685.09   7
  -1  -5   9 45724.6 2519.66   3
   1   5  -9 48270.9 2358.84   5
   1   5  -8 13829.4 1388.15   7
  -1  -5   8 13265.4 1281.03   3
   1   5  -8 13153.4 1158.03   5
  -1  -5   7 45202.4 2297.98   3
   1   5  -7 44062.8 2408.94   7
   1   5  -6 1051.14 205.372   4
  -1  -5   6 1188.16 296.118   5
  -1  -5   6 465.823 225.641   3
   1   5  -6 1036.34 355.668   7
  -1  -5   6 752.485 177.015   4
   1   5  -5 1558.71 266.026   4
  -1  -5   5 1427.47 246.145   4
  -1  -5   5 1553.80 399.520   3
   1   5  -5 997.238 328.983   7
  -1  -5   5 1941.85 363.492   5
  -1  -5   4 24087.2 1398.33   8
  -1  -5   4 23420.7 1473.21   3
   1   5  -4 24271.8 1123.69   4
  -1  -5   4 25462.7 1443.19   7
   1   5  -4 25603.4 1562.82   7
  -1  -5   4 21747.4 1256.10   5
  -1  -5   4 25102.5 1526.93   6
  -1  -5   4 23578.4 1047.61   4
  -1  -5   3 773.397 227.829   5
   1   5  -3 839.986 257.629   7
   1   5  -3 454.685 135.885   4
  -1  -5   3 905.776 260.005   7
  -1  -5   3 557.977 213.403   6
  -1  -5   3 1088.92 223.768   4
   1   5  -2 1179.74 243.359   4
  -1  -5   2 1034.39 152.329   1
  -1  -5   2 1059.74 270.128   5
  -1  -5   2 1175.69 161.350   2
  -1  -5   2 1562.46 309.127   7
  -1  -5   2 1131.16 226.362   4
  -1  -5   2 1351.22 320.761   6
   1   5  -2 1134.07 282.532   7
  -1  -5   1 74059.9 2350.64   5
  -1  -5   1 71600.3 2080.83   4
  -1  -5   1 70731.2 1345.12   2
   1   5  -1 74218.8 2288.03   7
   1   5  -1 74148.4 2457.88   6
  -1  -5   1 76569.4 2453.95   6
  -1  -5   1 75165.2 2185.69   7
  -1  -5   1 72484.6 1370.34   1
  -1  -5   0 45367.8 1513.43   7
   1   5   0 44100.9 1580.38   7
  -1  -5   0 47226.5 1616.11   4
   1   5   0 43885.2 1804.22   6
  -1  -5  -1 256559. 4492.79   7
  -1  -5  -1 256059. 4971.13   4
   1   5   1 259630. 5319.61   6
   1   5   1 251955. 4658.31   7
   1   5   2 13495.1 948.829   6
   1   5   2 12813.0 513.324   1
  -1  -5  -2 13545.5 867.740   4
   1   5   2 13887.8 693.723   7
   1   5   3 137920. 2611.03   7
   1   5   3 138463. 2361.61   2
  -1  -5  -3 140479. 3255.53   3
  -1  -5  -3 140990. 3371.14   4
   1   5   3 135644. 3510.85   6
   1   5   3 129863. 2630.02   1
  -1  -5  -4 1470.16 287.358   3
   1   5   4 1835.44 218.676   2
  -1  -5  -4 1934.47 343.194   4
   1   5   4 1668.28 199.429   7
   1   5   4 1508.19 316.401   6
   1   5   5 15463.7 530.219   7
   1   5   5 15032.4 1002.14   4
   1   5   5 14337.7 1048.62   6
  -1  -5  -5 15754.0 1008.81   4
  -1  -5  -5 14353.3 930.727   3
   1   5   6 53079.0 1208.14   7
  -1  -5  -6 50433.1 1185.21   8
  -1  -5  -6 52591.4 2002.54   4
   1   5   6 54732.6 2031.78   4
  -1  -5  -6 48417.3 1891.78   3
   1   5   6 47622.4 2038.19   6
   1   5   7 8312.11 834.138   6
   1   5   7 8795.43 483.734   7
   1   5   7 9272.40 805.199   4
   1   5   7 8240.15 805.096   3
  -1  -5  -7 8625.71 786.552   4
  -1  -5  -7 8565.56 793.039   3
  -1  -5  -8 1851.20 377.611   4
   1   5   8 2633.36 292.366   7
   1   5   8 2585.19 430.103   4
  -1  -5  -9 7579.51 758.301   4
   1   5   9 8261.57 585.403   7
   1   5   9 8309.11 841.567   3
   1   5  10 1459.08 368.165   3
   1   5  10 1233.06 243.544   7
  -1  -5 -10 1399.69 344.524   4
  -1  -5 -11 22096.0 1367.49   4
   1   5  11 22594.1 1511.09   3
  -1  -5 -12 258.803 153.125   4
   1   5  12 301.440 180.839   3
   1   5  13 18640.7 1486.16   3
  -1  -5 -13 19825.1 1324.38   4
  -1  -6   9 10718.9 1252.34   3
   1   6  -9 9546.38 1258.64   7
   1   6  -8 699.023 322.682   7
  -1  -6   8 809.409 380.846   3
  -1  -6   7 15997.5 1435.03   3
   1   6  -7 14447.5 1440.34   7
  -1  -6   6-48.6646 207.007   3
   1   6  -6 90.2809 122.448   7
  -1  -6   6 250.758 173.779   5
  -1  -6   6 143.160 87.4007   4
   1   6  -6 131.130 88.1975   4
  -1  -6   5 15698.0 1323.53   3
  -1  -6   5 13671.1 1087.28   5
  -1  -6   5 15161.5 877.747   4
   1   6  -5 15646.0 1343.26   7
   1   6  -4 5855.03 798.874   7
  -1  -6   4 5344.63 674.663   5
  -1  -6   4 5527.34 485.150   2
  -1  -6   4 4899.77 501.871   4
  -1  -6   3 48651.3 2092.26   5
  -1  -6   3 45436.9 1963.30   7
  -1  -6   3 44000.8 1624.79   4
  -1  -6   3 42769.9 1276.57   2
   1   6  -3 41758.4 2026.87   7
  -1  -6   3 43583.4 1239.90   1
   1   6  -2 35359.8 1745.58   7
  -1  -6   2 37979.1 930.341   1
  -1  -6   2 39012.0 1553.37   4
  -1  -6   2 41352.1 1952.20   6
   1   6  -2 36689.4 1599.12   4
  -1  -6   2 35618.4 1720.37   8
  -1  -6   2 39390.9 1701.58   7
  -1  -6   2 37152.3 1802.24   5
  -1  -6   2 36627.2 1001.85   2
   1   6  -1 9919.01 933.223   6
   1   6  -1 10977.5 847.874   4
  -1  -6   1 10796.9 793.618   4
  -1  -6   1 10107.3 328.343   2
   1   6  -1 9449.55 813.885   7
  -1  -6   1 10988.9 815.530   7
  -1  -6   1 11005.4 942.296   6
  -1  -6   1 11097.6 939.888   5
   1   6   0 4005.41 516.930   4
   1   6   0 4048.55 486.695   7
  -1  -6   0 3722.51 466.204   4
  -1  -6   0 3733.41 432.354   7
  -1  -6   0 3916.01 543.283   6
   1   6   0 3935.09 573.913   6
   1   6   1 105341. 2629.13   7
  -1  -6  -1 106692. 2928.38   4
  -1  -6  -1 113257. 3129.85   6
  -1  -6  -1 108048. 2510.01   7
   1   6   1 107577. 3288.12   6
   1   6   1 110935. 3084.94   4
   1   6   2 3149.82 495.631   6
   1   6   2 2958.71 194.562   1
  -1  -6  -2 3350.99 463.419   4
   1   6   2 3188.20 342.396   7
   1   6   2 2302.32 396.814   4
  -1  -6  -2 2773.56 429.763   6
  -1  -6  -3 29978.7 1405.64   6
   1   6   3 29615.5 1491.03   4
   1   6   3 28391.7 954.324   7
   1   6   3 27056.6 908.007   1
  -1  -6  -3 28460.0 1425.13   4
   1   6   3 26341.6 1506.72   6
  -1  -6  -4 14871.7 968.239   3
  -1  -6  -4 16817.7 1112.71   4
   1   6   4 16302.5 1106.83   4
  -1  -6  -4 14517.1 833.566   8
   1   6   4 16587.8 602.923   7
   1   6   4 14612.5 644.039   2
   1   6   4 15441.3 1172.20   6
   1   6   4 17027.9 792.967   1
  -1  -6  -5 8810.33 820.120   4
  -1  -6  -5 8116.85 742.420   3
  -1  -6  -5 8059.78 562.007   8
   1   6   5 8070.16 852.550   6
   1   6   5 8133.02 540.133   2
   1   6   5 8676.64 817.668   4
   1   6   5 8950.83 360.849   7
  -1  -6  -6 3875.60 550.822   4
   1   6   6 3789.10 200.867   7
   1   6   6 3066.10 358.598   2
   1   6   6 3588.58 210.188   7
   1   6   6 3249.26 575.125   6
   1   6   6 4228.32 587.979   4
  -1  -6  -6 3253.92 473.074   3
  -1  -6  -6 3433.69 316.594   8
   1   6   7 78660.4 1459.22   7
  -1  -6  -7 76105.4 2694.05   4
   1   6   8 2794.20 411.215   2
   1   6   8 3781.77 277.643   7
  -1  -6  -8 2811.47 490.212   4
   1   6   8 2577.18 514.461   6
   1   6   9 79724.4 1784.63   7
  -1  -6  -9 80944.3 2846.58   4
   1   6   9 69077.2 2390.84   2
   1   6   9 65391.3 2811.03   6
   1   6   9 76579.6 2932.48   3
   1   6  10 808.612 281.372   3
  -1  -6 -10 1071.79 307.171   4
  -1  -6 -11 10326.1 1000.43   4
   1   6  11 9895.12 1040.74   3
   1   6  12 725.123 294.987   3
  -1  -6 -12 925.329 303.968   4
   1   6  13 1163.13 409.923   3
  -1  -6 -13 1440.60 375.575   4
   1   7  -8 2127.71 589.705   7
  -1  -7   8 2120.58 556.374   3
  -1  -7   7 13173.6 1381.91   3
   1   7  -7 13629.0 1454.20   7
  -1  -7   6 31032.8 1339.51   4
   1   7  -6 27633.8 1986.48   7
  -1  -7   6 28885.9 2010.01   3
  -1  -7   5 71828.9 2232.98   4
  -1  -7   5 69498.1 3109.30   3
   1   7  -5 71223.6 3113.81   7
  -1  -7   5 64373.4 1992.43   2
  -1  -7   5 73658.7 2008.22   1
   1   7  -5 71563.0 2412.57   4
   1   7  -4 5026.04 755.895   7
  -1  -7   4 3125.95 336.774   1
  -1  -7   4 3727.70 387.839   2
   1   7  -4 3692.40 529.665   4
  -1  -7   4 3739.02 486.464   4
  -1  -7   3 1301.24 197.913   2
  -1  -7   3 1306.06 292.518   4
  -1  -7   3 1017.90 138.206   1
   1   7  -3 1237.63 360.029   7
   1   7  -3 1200.45 306.686   4
  -1  -7   2 472.288 91.0169   2
  -1  -7   2 622.023 272.036   5
   1   7  -2 303.944 154.817   4
  -1  -7   2 317.021 161.646   7
  -1  -7   2 139.431 98.8399   4
   1   7  -2 258.681 138.742   7
   1   7  -1 14743.4 1244.92   6
  -1  -7   1 15160.0 1046.34   4
   1   7  -1 16809.6 1168.56   4
  -1  -7   1 15511.9 1025.73   7
   1   7  -1 15983.4 1118.39   7
  -1  -7   1 15701.5 1240.43   5
  -1  -7   0 11341.1 952.436   8
   1   7   0 11771.7 986.974   4
  -1  -7   0 10220.2 862.528   4
   1   7   0 10742.1 1038.30   6
   1   7   0 11038.5 854.277   7
  -1  -7   0 11422.3 810.323   7
  -1  -7   0 12704.7 1101.57   5
  -1  -7  -1 7176.82 768.571   6
   1   7   1 6935.67 758.960   4
  -1  -7  -1 8441.96 621.990   7
   1   7   1 7603.24 632.957   7
  -1  -7  -1 5544.82 641.669   8
   1   7   1 7022.52 831.145   6
  -1  -7  -1 6336.37 693.933   4
  -1  -7  -2 5590.25 618.307   8
   1   7   2 6509.96 522.808   7
  -1  -7  -2 5947.84 684.687   4
  -1  -7  -2 7151.98 746.812   6
   1   7   2 7650.13 791.313   4
   1   7   2 6957.98 824.960   6
  -1  -7  -3 20918.5 1171.17   8
  -1  -7  -3 21183.0 1334.46   4
   1   7   3 21125.3 698.088   1
   1   7   3 21799.6 867.765   7
  -1  -7  -3 24452.7 1368.28   6
   1   7   3 21319.0 1489.45   6
   1   7   4 513.427 137.511   1
  -1  -7  -4 460.096 227.270   4
  -1  -7  -4 274.260 131.621   8
   1   7   4 514.996 93.1872   2
  -1  -7  -4 459.325 206.694   3
   1   7   4 599.918 112.056   7
   1   7   4 496.658 215.619   6
  -1  -7  -5 67382.5 1990.16   8
   1   7   5 64551.0 2784.15   6
  -1  -7  -5 66888.9 2539.99   4
   1   7   5 59397.1 1690.73   2
  -1  -7  -6 26280.0 1078.60   8
  -1  -7  -6 29636.1 1670.06   4
   1   7   6 25532.9 1157.32   2
   1   7   6 27208.4 1789.89   6
  -1  -7  -7 50029.6 2225.92   4
   1   7   7 43225.2 2340.99   6
  -1  -7  -8 11582.4 1064.83   4
   1   7   8 9184.25 1072.50   6
   1   7   8 10532.8 814.547   2
  -1  -7  -9 13744.8 1173.72   4
   1   7   9 12669.5 948.418   2
   1   7   9 13905.7 1339.88   6
   1   7  10 2119.10 520.289   6
  -1  -7 -10 2518.07 510.382   4
  -1  -7 -11 8303.78 940.446   4
   1   7  11 6212.89 913.963   6
   1   7  12 304.248 198.765   6
  -1  -7 -12 721.693 296.934   4
  -1  -7 -13 8993.64 1005.14   4
   1   7  13 7764.97 1052.50   3
   1   8  -7 18364.5 1757.54   7
  -1  -8   7 16282.8 1641.44   3
  -1  -8   6 3278.64 708.276   3
   1   8  -6 5232.00 887.512   7
  -1  -8   5 6038.81 646.497   4
  -1  -8   5 7295.11 1033.77   3
   1   8  -5 5142.86 838.479   7
   1   8  -4 1650.26 365.374   4
  -1  -8   4 1778.24 350.824   4
  -1  -8   4 1677.01 488.757   3
   1   8  -4 1648.72 466.798   7
  -1  -8   3 44739.0 1921.05   4
   1   8  -3 42125.7 2202.56   7
   1   8  -3 43356.4 2086.53   4
   1   8  -2 2680.70 508.228   7
  -1  -8   2 2564.81 460.990   4
   1   8  -1 4426.60 612.885   7
  -1  -8   1 4718.89 587.703   7
   1   8  -1 5312.44 802.034   6
  -1  -8   1 3342.94 524.758   4
   1   8   0 3031.38 602.079   6
  -1  -8   0 3798.32 560.343   4
  -1  -8   0 3109.77 444.746   7
   1   8   0 3346.72 480.456   7
   1   8   1 15508.9 1364.68   6
  -1  -8  -1 16524.9 1199.05   4
   1   8   1 15715.7 974.518   7
  -1  -8  -2 2294.72 451.220   4
  -1  -8  -2 2453.50 450.118   8
   1   8   2 3332.95 390.997   7
   1   8   2 2438.44 524.797   6
   1   8   3 98995.7 2214.02   7
  -1  -8  -3 92654.1 3154.40   4
   1   8   3 86819.1 3465.56   6
  -1  -8  -3 89650.4 2882.97   8
   1   8   4 85072.4 1842.74   1
  -1  -8  -4 84093.5 3008.32   4
  -1  -8  -4 77154.0 2548.86   8
   1   8   4 76314.2 3244.19   6
   1   8   4 81668.8 1672.72   7
   1   8   5 340.890 130.628   1
   1   8   5 303.547 85.7640   2
  -1  -8  -5 690.607 208.410   8
   1   8   5 356.392 181.815   6
   1   8   6 1110.66 218.755   2
   1   8   6 841.129 207.046   1
   1   8   6 906.067 313.438   6
  -1  -8  -6 1309.90 354.224   4
  -1  -8  -6 832.716 208.981   8
   1   8   7 2716.31 400.275   2
  -1  -8  -7 3781.77 638.299   4
   1   8   7 3266.83 659.137   6
  -1  -8  -8 714.015 290.457   4
   1   8   8 97.5848 210.281   6
  -1  -8  -9 23691.7 1654.79   4
   1   8   9 22064.5 1853.96   6
  -1  -8 -10 691.665 320.369   4
   1   8  10 1080.48 431.680   6
  -1  -8 -11 7013.58 920.094   4
   1   8  11 6533.51 1015.72   6
  -1  -8 -12 110.073 111.074   4
  -1  -8 -13 14567.6 1357.69   4
   1   9  -6 847.682 366.462   7
  -1  -9   5 14747.0 1564.87   3
   1   9  -5 13035.8 1387.05   7
  -1  -9   4 1498.83 498.645   3
  -1  -9   4 720.128 257.808   4
   1   9  -4 1044.54 394.634   7
  -1  -9   3 31251.6 1703.55   4
   1   9  -3 28980.8 1876.11   7
   1   9  -2 1369.31 383.901   7
  -1  -9   2 1414.36 364.251   4
  -1  -9   1 7032.74 819.879   4
   1   9  -1 7869.40 1048.37   6
   1   9  -1 6884.52 781.232   7
   1   9   0 11203.9 1250.66   6
  -1  -9   0 12683.1 1112.61   4
   1   9   0 11488.2 940.224   7
  -1  -9   0 12743.2 943.444   7
   1   9   1 66918.9 2203.65   7
   1   9   1 63773.1 3072.61   6
  -1  -9  -1 63369.2 2636.34   4
  -1  -9  -2 14616.7 1228.65   4
   1   9   2 15845.1 904.041   7
   1   9   2 13282.9 1374.37   6
   1   9   3 9532.82 591.461   7
   1   9   3 7964.87 1075.84   6
  -1  -9  -3 9361.30 995.480   4
  -1  -9  -4 11789.5 986.027   8
   1   9   4 10572.4 462.141   7
   1   9   4 11341.3 1302.28   6
  -1  -9  -4 13250.7 1200.12   4
  -1  -9  -5 9863.85 1040.30   4
  -1  -9  -5 10178.9 867.946   8
   1   9   5 10565.8 1268.54   6
  -1  -9  -6 5970.48 836.883   4
   1   9   6 5801.76 945.521   6
  -1  -9  -7 18889.6 1505.87   4
   1   9   7 16055.5 1634.65   6
  -1  -9  -8 2841.47 587.766   4
   1   9   8 2952.93 716.712   6
  -1  -9  -9 6832.42 924.704   4
   1   9   9 5903.12 1018.80   6
  -1  -9 -10 310.484 246.695   4
   1   9  10 560.658 334.751   6
  -1  -9 -11 12299.3 1283.27   4
   1  10  -5 6377.45 1000.12   7
   1  10  -4 615.438 302.462   7
   1  10  -3 3608.05 656.700   7
  -1 -10   3 4813.00 709.741   4
   1  10  -2 745.931 287.575   7
  -1 -10   2 685.709 270.203   4
   1  10  -1 38084.9 2509.45   6
  -1 -10   1 34487.7 2005.00   4
   1  10  -1 36154.7 1886.87   7
  -1 -10   0 432.828 221.202   4
   1  10   0 451.642 285.470   6
   1  10   0 263.799 126.337   7
   1  10   1 1563.77 338.046   7
   1  10   1 1460.74 484.721   6
  -1 -10  -1 1730.71 445.758   4
  -1 -10  -2 3227.79 612.158   4
   1  10   2 3155.42 399.095   7
   1  10   2 2377.64 614.249   6
  -1 -10  -3 51799.6 2559.32   4
   1  10   3 51655.6 3000.88   6
   1  10   4 101.912 160.066   6
  -1 -10  -4-18.7517 172.875   4
  -1 -10  -5 18933.3 1532.15   4
   1  10   5 17054.1 1731.41   6
   1  10   6 8297.32 1218.74   6
  -1 -10  -6 8059.92 1023.26   4
  -1 -10  -7 13693.7 1342.88   4
   1  10   7 11730.4 1484.48   6
  -1 -10  -8 347.998 250.722   4
   1  10   8 409.296 232.705   6
  -1 -10  -9 41728.3 2452.21   4
   1  10   9 38100.2 2801.13   6
   1  11  -4 11224.6 1284.43   7
   1  11  -3 18503.1 1570.00   7
  -1 -11   2 11702.8 1205.71   4
   1  11  -2 12055.8 1171.75   7
  -1 -11   1 231.001 93.6635   4
  -1 -11   0-100.579 171.424   4
   1  11   0-31.5394 219.814   6
   1  11   1 7116.10 1146.70   6
  -1 -11  -1 6490.19 915.443   4
  -1 -11  -2 2617.92 582.346   4
   1  11   2 2432.58 675.759   6
  -1 -11  -3 19708.4 1618.19   4
   1  11   3 18652.7 1887.81   6
   1  11   4 2297.38 647.445   6
  -1 -11  -4 2605.53 601.110   4
  -1 -11  -5 17123.6 1541.41   4
   1  11   5 16996.3 1864.26   6
   1  11   6-13.6964 216.493   6
   2 -11  -2 5410.73 900.061   4
   2 -11  -1 6836.72 997.070   4
   2 -11   0 286.740 211.434   4
   2 -11   1 88.1211 96.1264   4
   2 -11   2 4241.19 821.125   3
   2 -11   2 4783.10 783.366   4
   2 -11   3 1852.46 563.215   3
  -2  10   6 22725.7 2280.23   6
   2 -10  -6 22135.2 1846.63   4
   2 -10  -5 1947.12 543.104   4
  -2  10   5 1551.79 583.101   6
   2 -10  -4 18877.5 1641.47   4
  -2  10   4 18962.3 1975.08   6
  -2  10   3-66.9494 221.435   6
   2 -10  -3 234.071 180.232   4
   2 -10  -2 307.301 208.493   4
  -2  10   2 168.997 197.269   6
   2 -10  -1 5470.64 855.165   4
  -2  10   1 3977.93 879.410   6
  -2  10   0 12570.0 1497.09   6
   2 -10   0 12402.9 1244.82   4
   2 -10   1 2457.55 527.531   4
  -2  10  -1 1706.83 573.600   6
   2 -10   2 16636.7 1562.97   3
  -2  10  -2 17314.1 1743.38   6
   2 -10   2 16585.2 1396.23   4
   2 -10   3-21.5172 169.006   3
   2 -10   3 417.637 195.740   4
   2 -10   4 8201.12 1127.97   3
   2 -10   5 823.337 367.741   3
  -2   9   8 3959.41 656.198   1
  -2   9   8 3146.97 806.007   6
   2  -9  -8 3981.23 753.906   4
  -2   9   7 498.180 264.275   1
  -2   9   7 222.573 233.282   6
   2  -9  -7 220.429 232.270   4
  -2   9   6 15189.2 1200.54   1
   2  -9  -6 17063.7 1517.43   4
  -2   9   6 19207.7 1953.26   6
   2  -9  -5 952.178 338.156   4
  -2   9   5 728.464 374.931   6
   2  -9  -4 13396.6 1310.58   4
  -2   9   4 12267.1 1474.40   6
  -2   9   3-433.386 281.818   6
   2  -9  -3 218.308 215.231   4
  -2   9   2 35391.0 2436.68   6
   2  -9  -2 38072.6 1339.09   2
   2  -9  -2 37327.7 2146.43   4
  -2   9   1 2083.55 590.024   6
   2  -9  -1 1286.14 246.964   2
   2  -9   0 33176.1 1967.02   4
  -2   9   0 34709.9 2359.78   6
   2  -9   0 35526.2 1276.19   2
  -2   9  -1 8892.32 1149.31   6
   2  -9   1 9033.23 986.437   4
   2  -9   2 37427.2 2003.28   4
  -2   9  -2 35756.8 2387.92   6
   2  -9   2 34863.3 2126.49   3
   2  -9   3 203.580 188.763   3
   2  -9   3 647.100 243.829   4
   2  -9   4 2545.64 587.947   3
   2  -9   4 1926.77 422.706   4
   2  -9   5 1546.37 495.348   3
   2  -9   6 4969.67 861.637   3
   2  -9   7 1749.33 533.698   3
   2  -8 -11 100.370 202.650   4
  -2   8  10 3477.81 811.353   6
   2  -8 -10 2546.95 597.568   4
   2  -8  -9 427.066 264.267   4
  -2   8   9 275.996 159.747   6
  -2   8   8 19655.2 1908.80   6
   2  -8  -8 19432.1 1597.51   4
  -2   8   7 3244.86 554.779   1
  -2   8   7 3950.87 826.408   6
   2  -8  -7 4085.59 720.822   4
   2  -8  -6 1190.69 390.666   4
  -2   8   6 1371.71 373.620   2
  -2   8   6 1279.13 334.774   1
  -2   8   6 1334.55 470.968   6
  -2   8   5 2739.24 457.833   1
   2  -8  -5 2441.89 399.854   3
  -2   8   5 3100.76 556.850   2
   2  -8  -5 2970.20 598.550   4
  -2   8   5 2839.55 683.298   6
   2  -8  -4 52244.9 2515.97   4
  -2   8   4 51149.8 2854.72   6
   2  -8  -4 46914.1 1837.83   3
  -2   8   4 51581.4 2133.75   2
   2  -8  -3 834.723 234.417   3
  -2   8   3 641.411 301.245   6
   2  -8  -3 1159.06 356.245   4
  -2   8   3 1763.63 292.320   1
   2  -8  -2 33240.7 1290.05   2
   2  -8  -2 34499.1 1951.55   4
  -2   8   2 33029.5 2184.84   6
   2  -8  -2 30743.3 1454.60   3
  -2   8   2 34714.5 1130.82   1
   2  -8  -2 34667.7 1034.30   7
   2  -8  -1 5171.80 581.184   2
   2  -8  -1 4958.20 487.854   7
  -2   8   1 6362.15 994.261   6
   2  -8   0 23162.4 1036.23   2
   2  -8   0 22875.5 1515.45   4
   2  -8   0 21364.7 1116.18   7
  -2   8   0 22343.5 1725.08   6
   2  -8   1 955.952 254.866   7
   2  -8   1 950.879 300.825   4
  -2   8  -1 1163.79 404.837   6
   2  -8   1 1390.96 263.226   2
   2  -8   2 13230.8 837.790   2
  -2   8  -2 14029.6 1360.01   6
   2  -8   2 12911.1 1081.13   4
   2  -8   2 12716.7 1003.49   7
   2  -8   3 76.5952 75.3747   4
   2  -8   3 64.9389 95.3790   3
   2  -8   3 290.465 162.694   2
   2  -8   4 37777.9 2174.39   3
   2  -8   4 38311.8 1832.13   4
   2  -8   4 41320.5 1759.29   2
   2  -8   5 5293.32 632.644   4
   2  -8   5 5345.29 661.245   2
   2  -8   5 5210.78 812.754   3
   2  -8   6 15900.1 1480.10   3
   2  -8   6 17144.6 1275.12   2
   2  -8   7 516.154 311.405   3
   2  -8   7-51.0826 137.843   2
   2  -8   8 18594.2 1697.06   3
   2  -7 -12-62.0245 205.402   4
   2  -7 -11 6061.40 872.493   4
   2  -7 -10 11267.1 1183.18   4
  -2   7  10 9904.10 1260.89   6
  -2   7   9 657.700 297.905   6
   2  -7  -9 903.212 344.414   4
   2  -7  -8 6686.10 894.343   4
  -2   7   8 9421.59 1225.74   6
   2  -7  -7 2269.78 527.795   4
   2  -7  -7 2025.67 394.027   3
  -2   7   7 1653.84 504.291   6
   2  -7  -6 23929.2 1632.20   4
  -2   7   6 18862.0 1392.88   2
   2  -7  -6 21297.8 1221.72   3
  -2   7   6 22841.4 1840.82   6
   2  -7  -5 15161.3 1264.73   4
  -2   7   5 13855.3 1406.26   6
  -2   7   5 12505.5 1081.49   2
   2  -7  -5 12890.8 882.355   3
  -2   7   5 13000.4 998.911   1
  -2   7   4 29327.5 1581.15   2
   2  -7  -4 29880.3 1785.29   4
   2  -7  -4 27300.4 1277.82   3
  -2   7   4 32957.2 2121.20   6
  -2   7   3 2164.42 358.770   1
   2  -7  -3 2441.62 491.331   4
   2  -7  -3 2320.87 332.374   2
   2  -7  -3 2032.51 343.718   3
  -2   7   3 2155.24 496.844   6
   2  -7  -2 2494.73 369.378   3
   2  -7  -2 2813.04 269.045   7
   2  -7  -2 2894.70 358.881   2
  -2   7   2 2886.14 592.013   6
   2  -7  -2 2674.23 508.870   4
  -2   7   2 2689.77 339.423   1
   2  -7  -1 5464.60 706.628   4
  -2   7   1 5550.78 410.480   1
   2  -7  -1 6348.99 520.342   2
  -2   7   1 6233.13 853.202   6
   2  -7  -1 6103.46 486.765   7
   2  -7   0 932.538 219.363   7
   2  -7   0 779.620 193.032   2
   2  -7   0 1063.24 304.456   4
  -2   7   0 1367.93 390.534   6
   2  -7   1 720.798 184.261   2
   2  -7   1 731.257 213.881   7
   2  -7   1 836.718 277.051   4
  -2   7  -1 522.907 202.018   6
  -2   7  -2 82895.6 3244.56   6
   2  -7   2 85392.7 2815.93   4
   2  -7   2 86495.8 2392.29   2
   2  -7   2 83429.9 2663.76   7
  -2   7  -3 1249.77 399.527   6
   2  -7   3 1810.14 326.337   2
   2  -7   3 1685.65 409.112   3
   2  -7   3 2019.46 228.799   1
   2  -7   3 1447.56 340.366   7
   2  -7   3 1809.56 362.098   4
   2  -7   4 9805.45 990.552   3
   2  -7   4 10123.3 844.578   4
   2  -7   4 9488.89 592.169   1
   2  -7   4 9169.64 809.900   2
   2  -7   5 541.250 257.044   3
   2  -7   5 646.540 229.967   2
   2  -7   5 631.960 216.806   4
   2  -7   6 27267.5 1820.30   3
   2  -7   6 29456.6 1315.87   4
   2  -7   6 29828.5 1695.49   2
   2  -7   7-47.5328 151.202   3
   2  -7   8 30868.5 2106.49   3
   2  -7   9 1113.83 395.151   3
  -2   7  -9 663.960 346.510   5
  -2   6  13-68.2950 174.326   3
   2  -6 -12 6164.40 850.246   4
  -2   6  12 5329.27 771.535   3
   2  -6 -11 22.4120 155.078   4
  -2   6  11-148.478 166.754   3
  -2   6  10 8101.86 893.778   3
   2  -6 -10 11581.0 1134.98   4
  -2   6  10 11777.4 1264.29   6
  -2   6   9 688.051 303.884   6
   2  -6  -9 2237.68 477.934   4
   2  -6  -8 35369.0 1964.33   4
  -2   6   8 29572.6 2009.05   6
   2  -6  -8 30425.4 1655.28   3
   2  -6  -7 14715.6 1222.68   4
   2  -6  -7 13805.7 1022.93   3
  -2   6   7 14841.2 1404.18   6
  -2   6   6 20583.5 1376.72   2
   2  -6  -6 21022.4 1450.28   4
   2  -6  -6 21491.1 1196.36   3
  -2   6   6 19430.9 1574.36   6
  -2   6   5 2357.79 446.266   2
   2  -6  -5 2867.67 518.718   4
  -2   6   5 2517.20 567.687   6
  -2   6   5 2506.84 328.690   8
   2  -6  -5 1879.56 326.716   3
   2  -6  -4 2940.43 528.601   4
   2  -6  -4 3928.89 455.920   2
  -2   6   4 3442.33 509.345   2
   2  -6  -4 3335.39 386.533   3
   2  -6  -3 1644.94 282.809   3
   2  -6  -3 2570.63 161.115   7
   2  -6  -3 3121.95 539.445   4
   2  -6  -3 2413.38 154.555   7
  -2   6   3 2487.85 374.388   1
   2  -6  -3 2896.13 364.235   2
  -2   6   3 2572.40 508.372   6
   2  -6  -2 20264.7 1311.54   4
   2  -6  -2 18559.8 702.244   7
   2  -6  -2 18057.7 913.494   2
  -2   6   2 19073.7 1072.58   2
  -2   6   2 19501.1 962.083   1
  -2   6   2 17971.3 1331.71   6
  -2   6   2 18467.2 1082.46   8
   2  -6  -2 16636.6 872.828   3
   2  -6  -2 18064.1 1325.00   5
   2  -6  -1 655.586 158.172   7
   2  -6  -1 199.867 164.318   2
   2  -6  -1 454.814 223.997   5
  -2   6   1 1121.76 255.705   2
  -2   6   1 958.018 271.906   8
   2  -6  -1 417.169 257.864   4
   2  -6  -1 1532.34 332.048   6
  -2   6   1 1168.10 343.848   6
  -2   6   1 656.443 173.876   1
  -2   6   0 46319.9 2156.27   6
  -2   6   0 46306.6 1929.16   8
   2  -6   0 45783.3 1960.75   4
   2  -6   0 45547.1 1534.37   2
  -2   6   0 47647.9 1321.91   1
   2  -6   0 50304.1 1981.90   6
   2  -6   0 43724.9 1521.89   7
   2  -6   0 49008.1 2288.34   5
  -2   6  -1 11510.5 958.557   8
   2  -6   1 12018.4 928.330   4
   2  -6   1 9902.28 737.416   7
  -2   6  -1 11446.1 1026.22   6
   2  -6   1 10928.5 1072.05   5
   2  -6   1 10993.8 715.946   2
   2  -6   1 10570.4 912.095   6
   2  -6   2 13474.8 634.874   1
  -2   6  -2 13278.1 1074.59   8
  -2   6  -2 13637.3 1140.12   6
   2  -6   2 13055.6 919.948   7
   2  -6   2 16800.5 1075.62   4
   2  -6   2 15573.2 1161.03   6
   2  -6   2 13529.8 849.476   2
  -2   6  -3 1206.40 352.837   6
   2  -6   3 1246.02 333.024   3
   2  -6   3 1360.58 286.130   2
   2  -6   3 1360.62 317.981   7
   2  -6   3 1198.09 277.352   4
   2  -6   3 1352.34 215.891   1
   2  -6   4 29872.5 1648.72   3
   2  -6   4 29096.6 1184.54   1
   2  -6   4 26704.1 1302.89   4
   2  -6   4 30171.1 1610.95   7
   2  -6   4 29658.5 1449.50   2
   2  -6   5 15.8267 51.3009   4
   2  -6   5 256.435 168.681   3
  -2   6  -5 65.8475 141.883   5
   2  -6   5 24.1018 52.0238   1
   2  -6   6 1022.35 343.528   3
   2  -6   6 1676.31 281.161   4
  -2   6  -6 1864.74 467.260   5
   2  -6   7 483.875 180.152   1
  -2   6  -7 203.756 117.294   5
   2  -6   7 552.875 265.314   3
   2  -6   7 313.348 104.888   4
  -2   6  -8 1720.30 529.502   5
   2  -6   8 1435.17 419.707   3
  -2   6  -9 342.203 249.986   5
   2  -6   9 1070.55 405.713   3
  -2   6 -10 23549.3 2045.34   5
   2  -6  10 22454.0 1808.25   3
  -2   6 -11 879.552 432.003   5
  -2   5  13 74.5596 124.450   3
   2  -5 -12 25021.3 1626.24   4
  -2   5  12 22879.4 1554.74   3
   2  -5 -11 8365.26 922.687   4
  -2   5  11 7872.48 864.505   3
   2  -5 -10 11524.7 1079.17   4
  -2   5  10 10947.5 970.652   3
   2  -5  -9 1690.45 413.380   4
  -2   5   9 1520.21 357.464   3
   2  -5  -9 2173.57 286.341   7
   2  -5  -8 52783.1 1406.06   7
   2  -5  -8 47182.6 2097.49   3
   2  -5  -8 47792.8 2212.22   4
  -2   5   8 48253.5 1986.94   3
   2  -5  -7 51487.0 2052.60   3
   2  -5  -7 59418.7 1357.81   7
  -2   5   7 53878.4 2083.32   3
   2  -5  -7 56969.6 2384.07   4
  -2   5   6 2229.20 475.779   6
  -2   5   6 2110.31 410.661   2
   2  -5  -6 2341.16 372.301   3
   2  -5  -6 1886.80 168.416   7
   2  -5  -6 1362.97 338.638   4
  -2   5   6 1833.50 229.752   8
   2  -5  -5 32555.4 1710.77   4
   2  -5  -5 31899.3 1326.35   3
  -2   5   5 30731.5 1582.38   2
  -2   5   5 29578.3 1762.96   6
  -2   5   5 33917.3 1157.45   8
   2  -5  -5 33990.2 713.399   7
   2  -5  -4 85086.1 1422.00   7
   2  -5  -4 84626.3 1434.12   7
  -2   5   4 85493.0 2154.40   8
  -2   5   4 85732.2 3031.12   6
   2  -5  -4 82803.2 2323.56   2
   2  -5  -4 86541.5 2857.03   4
   2  -5  -4 78346.1 2087.96   3
  -2   5   3 21072.5 1367.98   6
   2  -5  -3 21980.1 631.075   7
  -2   5   3 20711.4 1009.83   8
   2  -5  -3 22691.8 1340.41   4
   2  -5  -3 22433.3 1046.55   2
  -2   5   3 21317.5 1086.76   1
   2  -5  -3 21879.3 921.250   3
   2  -5  -3 22304.2 631.067   7
   2  -5  -2 151814. 3870.19   4
   2  -5  -2 148422. 2658.10   7
   2  -5  -2 153649. 3202.71   2
   2  -5  -2 146058. 2931.04   3
  -2   5   2 147537. 3251.77   1
  -2   5   2 149270. 3970.40   6
   2  -5  -2 158742. 4005.66   5
   2  -5  -1 23198.7 879.170   7
   2  -5  -1 24172.0 1031.33   2
   2  -5  -1 25568.1 1457.35   5
  -2   5   1 23043.8 996.186   1
  -2   5   1 23374.2 1355.35   6
   2  -5  -1 23029.3 1308.26   4
  -2   5   1 23416.8 1115.41   2
   2  -5  -1 26105.6 1243.83   6
  -2   5   0 26120.0 971.593   1
   2  -5   0 25734.2 1338.46   4
   2  -5   0 23961.0 1010.65   7
   2  -5   0 26325.3 1089.52   2
  -2   5   0 24799.8 1393.48   6
   2  -5   0 26983.1 1299.31   6
  -2   5   0 24685.1 1270.29   8
  -2   5  -1 29926.3 1470.24   8
   2  -5   1 30553.8 1014.11   1
   2  -5   1 31604.2 1473.52   6
  -2   5  -1 31576.5 1592.09   6
   2  -5   1 30419.4 1251.26   7
   2  -5   1 32107.6 1245.62   2
  -2   5  -1 32211.4 1065.52   1
   2  -5   1 29895.3 1419.00   4
   2  -5   2 86554.7 2509.58   4
  -2   5  -2 87665.7 2863.78   6
   2  -5   2 89576.3 2577.58   3
   2  -5   2 88320.6 2726.02   6
  -2   5  -2 86691.2 2750.85   8
   2  -5   2 81412.4 2427.20   7
   2  -5   2 85967.8 2014.17   1
   2  -5   2 89101.8 2360.83   2
   2  -5   3 550.330 222.106   5
  -2   5  -3 321.514 153.750   5
   2  -5   3 419.037 190.774   3
   2  -5   3 248.886 128.027   2
   2  -5   3 412.318 182.673   7
  -2   5  -3 276.373 136.546   8
   2  -5   3 643.908 196.885   4
  -2   5  -3 575.202 229.153   6
   2  -5   3 433.756 197.145   6
   2  -5   3 600.481 149.706   1
   2  -5   4 15430.1 1193.79   5
   2  -5   4 13859.4 1023.10   3
   2  -5   4 13697.3 834.383   4
   2  -5   4 14734.0 1142.67   6
   2  -5   4 13313.9 792.180   1
   2  -5   4 12861.9 989.794   7
  -2   5  -4 14352.8 1117.54   8
  -2   5  -4 14447.7 1170.79   5
  -2   5  -5-122.462 164.531   5
   2  -5   5 83.3434 98.8444   7
   2  -5   5-24.8795 139.146   3
   2  -5   5 123.230 87.6165   4
   2  -5   5-206.565 109.884   1
   2  -5   6 35311.6 1854.78   3
  -2   5  -6 36253.1 2088.35   5
   2  -5   6 39973.6 1306.29   4
   2  -5   6 37916.9 1610.37   1
  -2   5  -7 113.903 186.387   5
   2  -5   7 98.3790 74.2994   1
   2  -5   7-3.93914 152.974   3
   2  -5   7-17.0289 33.8259   4
   2  -5   8 82162.0 2814.18   1
  -2   5  -8 82566.7 3555.34   5
   2  -5   8 82163.4 3164.67   3
   2  -5   9 526.504 268.880   3
  -2   5  -9 833.499 371.056   5
   2  -5  10 6161.05 891.343   3
  -2   5 -10 7460.67 1110.19   5
   2  -5  11 24.2246 119.297   3
  -2   5 -11 2.40618 172.697   5
  -2   5 -12 939.231 471.611   5
  -2   4  13-77.8867 124.753   3
   2  -4 -12 17860.1 1277.79   4
  -2   4  12 15826.7 1246.94   3
   2  -4 -11 100.867 71.9666   7
   2  -4 -11-18.8367 80.2933   4
  -2   4  11 56.6661 128.992   3
   2  -4 -10 14453.3 1149.20   4
   2  -4 -10 15940.5 990.799   7
  -2   4  10 15559.6 1114.70   3
   2  -4  -9 13708.3 1102.28   4
   2  -4  -9 14587.7 885.385   7
  -2   4   9 13694.3 998.136   3
   2  -4  -8 10920.9 963.693   4
   2  -4  -8 11348.4 725.765   7
   2  -4  -8 11279.4 979.088   3
  -2   4   8 12190.0 926.381   3
   2  -4  -7 9232.00 875.498   4
   2  -4  -7 8369.60 773.051   3
  -2   4   7 9503.00 873.356   2
   2  -4  -7 9524.89 608.657   7
  -2   4   7 8282.95 707.035   3
   2  -4  -6 103418. 2212.17   7
   2  -4  -6 96984.4 3041.77   4
  -2   4   6 93789.8 2920.72   2
  -2   4   6 93933.5 2614.82   3
   2  -4  -6 97508.0 2713.25   3
   2  -4  -5 4626.16 578.443   4
  -2   4   5 5349.81 518.705   3
   2  -4  -5 5932.83 390.833   7
   2  -4  -5 5319.15 503.428   3
  -2   4   5 5608.42 623.124   2
   2  -4  -4 115851. 2595.93   3
  -2   4   4 121838. 3420.41   6
   2  -4  -4 117543. 3225.46   4
   2  -4  -4 118306. 2877.38   2
   2  -4  -4 118249. 2214.96   7
   2  -4  -3 39285.4 1004.99   7
  -2   4   3 37686.4 1460.74   1
   2  -4  -3 40173.4 1685.04   4
   2  -4  -3 37979.8 1389.20   2
   2  -4  -3 38836.2 1172.18   3
  -2   4   3 38175.8 1705.69   6
   2  -4  -2 120209. 2377.82   3
  -2   4   2 123977. 2780.18   8
   2  -4  -2 125438. 2778.08   2
  -2   4   2 122244. 2802.10   1
  -2   4   2 123060. 2961.22   2
  -2   4   2 126564. 3263.05   6
   2  -4  -1 18271.2 939.250   6
   2  -4  -1 13339.9 634.903   7
  -2   4   1 14369.5 878.631   8
  -2   4   1 15741.2 926.544   2
  -2   4   1 18197.9 1099.43   6
  -2   4   1 16337.9 826.777   1
   2  -4  -1 17340.0 883.293   2
  -2   4   0 10887.6 613.434   1
  -2   4   0 11551.0 830.404   6
   2  -4   0 9674.64 576.846   7
   2  -4   0 10454.3 651.186   2
   2  -4   0 10948.1 730.961   6
  -2   4   0 10300.2 676.562   2
   2  -4   1 12098.2 717.614   2
   2  -4   1 11545.3 786.665   6
  -2   4  -1 13290.1 907.482   6
   2  -4   1 11387.9 610.915   1
  -2   4  -1 11703.0 621.875   1
   2  -4   1 11768.6 697.483   7
   2  -4   2 88309.0 2370.72   7
   2  -4   2 87383.2 2373.15   4
   2  -4   2 92659.3 2412.91   3
   2  -4   2 89695.2 2554.55   6
   2  -4   2 89070.0 2331.01   2
  -2   4  -2 87269.5 2681.84   5
  -2   4  -2 91152.8 2656.96   6
   2  -4   2 89427.7 2112.96   1
  -2   4  -3 191.211 133.045   5
   2  -4   3 209.389 111.064   7
   2  -4   3 347.432 154.997   6
   2  -4   3 237.760 95.0059   1
   2  -4   3 110.544 108.998   3
   2  -4   3 102.618 88.7622   2
   2  -4   3 264.688 128.429   4
   2  -4   4 158159. 4001.77   5
  -2   4  -4 145939. 3819.39   8
   2  -4   4 146133. 3675.71   7
   2  -4   4 148609. 3260.66   1
   2  -4   4 145212. 3146.81   4
  -2   4  -4 145569. 4008.27   5
   2  -4   4 144918. 3613.36   3
   2  -4   5 333.744 155.429   6
  -2   4  -5 237.769 216.060   5
   2  -4   5 212.406 99.3571   4
   2  -4   5 277.408 144.067   5
   2  -4   5 202.451 119.865   3
   2  -4   5 290.141 133.299   1
  -2   4  -5 411.721 202.287   8
   2  -4   5 196.347 140.190   7
   2  -4   6 234024. 3978.34   4
   2  -4   6 221139. 4772.09   1
   2  -4   6 224087. 5186.46   3
  -2   4  -6 217245. 5673.72   5
   2  -4   6 233918. 5565.82   6
   2  -4   7-31.4131 119.708   3
  -2   4  -7 252.800 200.327   5
   2  -4   7 60.4367 45.6073   4
   2  -4   7 100.763 96.7084   1
  -2   4  -8 7938.61 1026.12   5
   2  -4   8 8566.84 917.563   3
   2  -4   8 8667.12 848.577   1
  -2   4  -9 244.801 250.464   5
   2  -4   9 424.983 240.962   3
  -2   4 -10 12477.0 1416.25   5
   2  -4  10 11823.7 1192.17   3
   2  -4  11 35.8184 162.514   3
  -2   4 -11 41.5216 184.666   5
  -2   4 -12 3652.10 827.674   5
   2  -4  12 3224.46 671.086   3
  -2   3  13 64.3974 144.989   3
   2  -3 -12 8495.57 866.158   7
  -2   3  12 8300.49 884.828   3
  -2   3  11 2473.00 461.131   3
   2  -3 -11 2733.65 470.964   4
   2  -3 -11 2836.34 484.944   7
  -2   3  10 1950.05 386.906   3
   2  -3 -10 2092.87 394.165   7
   2  -3 -10 1710.77 366.202   4
  -2   3  10 1491.24 318.681   7
   2  -3  -9 38828.5 1779.71   4
  -2   3   9 36774.9 1628.40   3
  -2   3   9 38165.9 864.932   8
  -2   3   9 36315.5 1579.38   7
   2  -3  -9 38544.7 1647.04   7
  -2   3   8 104780. 2834.84   3
   2  -3  -8 111216. 2874.42   7
   2  -3  -8 106841. 3124.76   4
   2  -3  -8 101944. 3270.88   3
  -2   3   7 22520.6 1336.71   2
   2  -3  -7 24055.2 1132.21   7
   2  -3  -7 25073.6 1350.20   4
  -2   3   7 19935.5 1013.99   7
  -2   3   7 24036.4 1153.28   3
   2  -3  -7 24222.2 1343.53   3
   2  -3  -6 37653.6 1646.43   4
  -2   3   6 40370.9 1449.75   3
  -2   3   6 36961.3 1676.07   2
   2  -3  -6 39626.2 1374.42   7
   2  -3  -6 37604.6 1555.41   3
   2  -3  -5 2289.89 327.652   3
  -2   3   5 2007.41 361.475   2
  -2   3   5 2415.09 326.089   3
   2  -3  -5 2333.81 281.259   7
   2  -3  -4 2995.28 380.959   2
   2  -3  -4 2609.91 285.932   7
   2  -3  -4 2716.08 313.886   3
  -2   3   4 3393.51 347.524   3
   2  -3  -3 148.013 116.648   2
   2  -3  -3 25.2933 49.3291   3
   2  -3  -3-33.7997 66.5371   7
  -2   3   3 59.0057 58.5923   2
  -2   3   3 20.6036 92.8110   6
  -2   3   2 18648.4 944.961   2
   2  -3  -2 20003.4 913.781   2
  -2   3   2 19950.0 939.467   1
  -2   3   2 19831.5 1031.42   6
   2  -3  -2 19207.8 643.830   3
  -2   3   1 5145.80 466.175   2
  -2   3   1 5778.60 471.161   1
   2  -3  -1 5391.04 322.231   3
   2  -3  -1 4239.33 460.755   5
   2  -3  -1 6194.98 495.558   2
  -2   3   1 6495.80 548.736   6
   2  -3   0 159879. 3189.61   6
   2  -3   0 151846. 3031.37   1
   2  -3   0 161210. 3202.52   2
   2  -3   0 163234. 3589.49   5
  -2   3   0 156772. 3098.29   1
  -2   3   0 160597. 3360.98   6
  -2   3   0 153951. 3246.75   2
  -2   3  -1 1564.17 281.280   5
   2  -3   1 1712.42 256.823   2
   2  -3   1 1299.25 195.044   3
   2  -3   1 1467.22 240.787   6
  -2   3  -1 1732.89 233.896   1
   2  -3   1 1787.69 247.705   7
   2  -3   1 1641.98 223.098   1
  -2   3  -1 1733.21 281.506   6
   2  -3   2 171584. 3366.04   3
   2  -3   2 170198. 3483.68   7
   2  -3   2 164385. 3283.01   1
  -2   3  -2 170695. 3285.94   1
   2  -3   2 171724. 3603.14   6
   2  -3   2 173089. 3523.35   2
  -2   3  -2 170624. 3651.60   6
  -2   3  -2 171712. 3869.87   5
   2  -3   3 11.8024 65.0488   6
   2  -3   3-10.4636 66.1270   3
   2  -3   3 168.881 110.750   7
   2  -3   3-26.1572 66.0864   1
   2  -3   4 761306. 11997.3   3
   2  -3   4 777425. 12161.9   7
   2  -3   4 750014. 12249.5   6
   2  -3   4 762450. 11711.4   1
  -2   3  -4 757219. 12642.9   5
  -2   3  -5-29.0347 169.093   5
   2  -3   5 109.228 82.9201   5
   2  -3   5 29.0115 95.2137   7
  -2   3  -5 40.5341 84.0070   8
   2  -3   5-23.3186 73.6069   3
   2  -3   5 75.6260 82.9776   1
   2  -3   5-11.0911 81.6045   6
   2  -3   5 3.58200 53.2798   4
   2  -3   6 925.314 274.010   5
  -2   3  -6 942.561 295.660   5
   2  -3   6 2177.20 404.909   3
   2  -3   6 2381.71 229.956   4
  -2   3  -6 1908.44 376.509   8
   2  -3   6 2416.03 427.989   7
   2  -3   6 2237.34 425.842   6
   2  -3   6 2701.27 402.129   1
  -2   3  -7-119.726 142.810   5
   2  -3   7 25.4256 22.8495   4
   2  -3   7-121.745 166.396   5
   2  -3   7 72.6197 128.208   3
  -2   3  -7 212.883 187.106   8
   2  -3   7 11.4782 17.3366   4
   2  -3   7 31.6713 89.2739   6
  -2   3  -8 30691.2 1943.44   5
   2  -3   8 30080.6 1673.17   3
   2  -3   9 461.776 243.508   3
  -2   3  -9 724.654 321.889   5
  -2   3 -10 49723.2 2801.33   5
   2  -3  10 57224.6 2572.41   3
  -2   3 -11 71.3157 85.6467   5
   2  -3  11 426.831 266.969   3
  -2   3 -12 7056.72 1139.60   5
   2  -3  12 10356.2 1158.97   3
  -2   3 -13 385.561 253.428   5
  -2   2  13 1747.82 449.389   3
   2  -2 -13 950.926 334.671   7
   2  -2 -12 17630.9 1355.13   7
  -2   2  12 15645.3 1250.07   3
  -2   2  11 5472.23 689.528   3
   2  -2 -11 5587.15 724.162   7
   2  -2 -11 3639.29 625.542   5
   2  -2 -11 6019.44 639.297   4
   2  -2 -10 22534.4 1409.84   7
   2  -2 -10 25303.2 1333.58   4
  -2   2  10 23733.9 1385.96   3
  -2   2   9 7166.26 705.727   3
   2  -2  -9 6606.70 717.145   7
   2  -2  -9 6822.25 675.965   4
  -2   2   9 7586.38 753.888   7
  -2   2   8 284.740 130.229   3
   2  -2  -8 327.308 170.145   3
   2  -2  -8-14.8740 67.1761   7
   2  -2  -8 147.242 113.349   4
  -2   2   8 133.069 83.3056   7
  -2   2   7 882.559 216.613   3
  -2   2   7 321.891 147.181   2
   2  -2  -7 578.025 218.319   3
   2  -2  -7 511.980 202.746   7
   2  -2  -6 9363.57 701.207   7
  -2   2   6 10274.3 841.451   2
  -2   2   6 9379.44 686.974   7
   2  -2  -6 10130.1 791.958   3
  -2   2   6 11791.5 727.435   3
   2  -2  -5 148.998 112.523   7
  -2   2   5 48.9482 56.2368   3
   2  -2  -5 93.2353 101.010   3
  -2   2   5-37.5353 63.7373   7
   2  -2  -4 20793.9 1030.81   2
   2  -2  -4 17852.6 834.763   7
  -2   2   4 18271.1 773.078   3
   2  -2  -4 18628.6 846.137   3
   2  -2  -3 21116.0 978.485   2
  -2   2   3 20954.4 744.373   3
   2  -2  -3 21520.9 847.684   7
   2  -2  -3 20733.3 772.339   3
  -2   2   2 227405. 4344.98   2
  -2   2   2 229144. 4322.82   1
   2  -2  -2 234541. 4289.98   2
   2  -2  -2 227358. 3635.90   3
  -2   2   1 50446.6 1544.36   2
  -2   2   1 50925.6 1508.33   1
   2  -2  -1 52455.7 946.643   3
   2  -2  -1 50635.1 1486.06   2
  -2   2   1 54749.1 1503.48   6
   2  -2  -1 51379.8 1511.04   5
  -2   2   0 101472. 2180.78   6
   2  -2   0 100893. 2063.53   6
   2  -2   0 102986. 2397.13   5
   2  -2   0 95747.2 2184.59   1
   2  -2   0 99935.2 2265.24   2
  -2   2   0 98868.8 2240.90   1
  -2   2   0 99423.2 2294.25   2
  -2   2   0 100135. 2283.90   5
   2  -2   1 1920.25 283.424   5
  -2   2  -1 2276.80 276.312   1
   2  -2   1 2609.14 225.445   3
  -2   2  -1 2278.54 287.736   2
   2  -2   1 2036.18 243.171   6
   2  -2   1 2214.71 278.696   2
   2  -2   1 2336.33 271.473   1
  -2   2  -1 2425.63 275.136   6
  -2   2  -1 2718.48 335.436   5
  -2   2  -2 2647.62 302.946   6
   2  -2   2 2822.26 285.157   3
   2  -2   2 2213.81 272.288   1
   2  -2   2 2478.86 286.409   6
  -2   2  -2 2520.95 287.531   1
   2  -2   2 2497.22 311.152   2
  -2   2  -2 2683.92 368.138   5
  -2   2  -3 652.965 205.398   5
  -2   2  -3 783.474 176.332   3
   2  -2   3 653.733 154.474   3
   2  -2   3 868.703 186.579   6
   2  -2   3 685.538 160.787   1
  -2   2  -4 31692.1 1310.83   3
   2  -2   4 31930.9 1321.69   6
  -2   2  -4 34132.4 1528.97   5
   2  -2   4 31485.6 1241.96   1
   2  -2   4 31095.4 1266.97   3
  -2   2  -5 95.3327 118.389   5
   2  -2   5 229.197 126.744   1
   2  -2   5 202.162 122.865   3
  -2   2  -5 269.415 134.591   8
   2  -2   6 273019. 5571.39   5
   2  -2   6 249566. 3992.18   4
  -2   2  -6 273481. 5377.75   8
  -2   2  -6 262190. 5651.94   3
  -2   2  -6 263073. 5792.19   5
   2  -2   6 260261. 5336.27   3
   2  -2   7 48.9558 70.1810   5
  -2   2  -7 122.950 88.5397   8
   2  -2   7 22.6228 111.572   3
  -2   2  -7 121.656 170.726   3
   2  -2   7 110.284 75.4057   7
  -2   2  -7-64.0658 138.138   5
  -2   2  -8 59869.6 2655.62   5
   2  -2   8 63044.6 2404.58   3
  -2   2  -9 588.160 291.913   5
   2  -2   9 357.610 223.717   3
  -2   2 -10 23806.1 1833.93   5
   2  -2  10 22463.0 1514.17   3
   2  -2  11 6543.58 860.379   3
  -2   2 -11 5095.02 891.039   5
  -2   2 -12 35902.6 2568.55   5
   2  -2  12 38517.1 2206.49   3
  -2   2 -13 166.606 208.982   5
   2  -2  13 288.894 234.957   3
  -2   2 -14 3446.63 874.744   5
   2  -1 -14 13458.2 1353.67   7
  -2   1  13 423.899 239.229   3
   2  -1 -13 1010.75 353.555   7
   2  -1 -12 20254.6 1549.09   7
  -2   1  12 24279.7 1612.14   3
   2  -1 -11 5739.36 782.054   7
   2  -1 -11 5542.95 553.394   4
   2  -1 -11 4991.09 692.693   5
  -2   1  11 4465.92 640.914   3
  -2   1  10 843.524 192.830   8
   2  -1 -10 932.309 282.800   5
  -2   1  10 782.256 267.589   3
   2  -1 -10 1176.09 263.958   4
   2  -1 -10 506.704 226.136   7
   2  -1  -9 2121.47 446.035   7
   2  -1  -9 1099.68 308.932   5
  -2   1   9 2503.49 439.695   3
   2  -1  -9 2541.16 373.732   4
  -2   1   9 1941.82 400.980   7
   2  -1  -8 27948.8 1444.85   5
   2  -1  -8 30080.8 1744.63   3
   2  -1  -8 29591.9 1570.10   7
  -2   1   8 31579.8 1485.01   3
  -2   1   8 32608.8 1593.96   7
   2  -1  -7 8979.76 845.457   3
   2  -1  -7 9178.57 797.902   7
  -2   1   7 9398.82 783.491   7
  -2   1   7 8864.45 811.801   2
  -2   1   7 10198.4 755.433   3
   2  -1  -6 112801. 3117.88   3
  -2   1   6 116626. 2811.41   3
   2  -1  -6 114031. 3008.60   7
  -2   1   5 2918.70 345.321   3
  -2   1   5 2699.58 364.691   7
   2  -1  -5 2980.07 402.173   3
   2  -1  -5 2118.03 330.241   7
   2  -1  -4 18375.6 917.365   7
   2  -1  -4 18019.3 873.228   3
  -2   1   4 17758.8 781.878   3
  -2   1   4 16946.6 871.266   7
   2  -1  -3 140363. 3018.78   2
   2  -1  -3 140512. 2913.66   7
   2  -1  -3 133541. 2706.77   3
  -2   1   3 138321. 2564.16   3
   2  -1  -2 40672.1 1003.75   3
   2  -1  -2 43113.3 1357.29   2
   2  -1  -2 43020.2 1279.61   7
  -2   1   2 41902.3 960.563   3
   2  -1  -1 5886.10 438.077   2
  -2   1   1 6209.32 471.032   1
   2  -1  -1 5260.34 353.746   5
   2  -1   0 3776.85 362.922   5
  -2   1   0 2872.53 328.296   5
   2  -1   0 4210.91 389.302   1
   2  -1   0 5505.63 475.612   2
  -2   1   0 4607.22 436.920   1
  -2   1   0 3143.20 293.236   6
  -2   1  -1 690.771 151.660   5
   2  -1   1 581.141 130.963   5
  -2   1  -1 619.916 87.6273   3
   2  -1   1 571.035 135.610   2
  -2   1  -1 572.343 134.022   1
   2  -1   1 455.714 125.332   1
   2  -1   1 674.879 103.339   6
   2  -1   1 835.418 100.282   3
  -2   1  -1 757.845 114.720   6
   2  -1   2 310.870 87.8786   6
  -2   1  -2 230.423 119.464   5
   2  -1   2 203.433 100.308   5
  -2   1  -2 153.514 58.5579   3
   2  -1   2 218.817 91.7114   1
  -2   1  -2 166.612 84.2898   1
  -2   1  -3 521.795 150.589   5
   2  -1   3 851.316 174.385   1
   2  -1   3 706.577 145.994   3
  -2   1  -3 498.238 129.106   3
   2  -1   3 810.668 153.507   6
  -2   1  -4 37689.0 1393.17   3
  -2   1  -4 45121.5 1634.37   5
   2  -1   4 37355.5 1076.43   4
   2  -1   4 42714.2 1409.66   3
   2  -1   4 40934.5 1427.13   1
  -2   1  -5 44.2731 137.256   5
  -2   1  -5-62.3793 79.0482   8
   2  -1   5-1.05277 25.2988   4
  -2   1  -6 135916. 3668.15   5
   2  -1   6 131120. 2293.95   4
  -2   1  -6 138583. 3219.31   8
  -2   1  -6 137874. 3620.86   3
   2  -1   6 142028. 3376.62   3
   2  -1   7 1467.99 316.126   7
  -2   1  -7 872.027 285.093   5
   2  -1   7 1367.48 119.842   4
  -2   1  -7 1220.54 269.269   8
  -2   1  -7 1121.09 315.383   3
   2  -1   7 962.160 234.043   3
  -2   1  -8 5540.45 763.367   3
  -2   1  -8 6401.93 809.201   5
   2  -1   8 4981.24 626.738   3
  -2   1  -8 5143.25 569.255   8
   2  -1   8 5925.61 707.967   7
   2  -1   9 2151.45 428.994   3
  -2   1  -9 1791.25 455.090   5
  -2   1 -10 60758.4 2958.12   5
   2  -1  10 63674.4 2548.26   3
  -2   1 -11 944.736 383.786   5
   2  -1  11 1450.15 385.124   3
  -2   1 -12 5392.67 958.671   5
   2  -1  12 4928.38 750.874   3
  -2   1 -13 3725.85 843.856   5
   2  -1  13 4770.32 774.197   3
  -2   1 -14 7717.24 1276.71   5
   2   0 -13 1876.37 510.573   7
  -2   0  13 2912.16 622.215   3
   2   0 -12 8507.03 1043.57   7
  -2   0  12 9246.31 1018.92   3
   2   0 -11 2886.07 502.689   5
  -2   0  11 4732.43 689.277   3
   2   0 -11 3888.54 676.802   7
   2   0 -10 66731.7 2452.75   5
   2   0 -10 74034.8 2032.33   4
  -2   0  10 70320.9 2680.72   3
   2   0 -10 68005.7 2866.52   7
  -2   0  10 67328.4 2179.71   8
   2   0  -9 14505.2 831.866   4
   2   0  -9 11644.3 902.468   5
   2   0  -9 13571.1 1163.91   7
  -2   0   9 13469.8 1045.67   3
   2   0  -8 16509.3 1331.29   3
   2   0  -8 17816.4 1029.04   5
   2   0  -8 16688.7 1241.62   7
  -2   0   8 18191.4 1237.10   7
  -2   0   8 17040.7 1150.57   3
  -2   0   7 170.481 141.374   7
   2   0  -7-53.1357 83.0066   7
   2   0  -7 25.4842 52.2719   5
  -2   0   7-88.9218 107.002   3
   2   0  -7 1.12241 77.2101   3
  -2   0   7 99.3958 87.1203   2
   2   0  -6 27641.2 1424.98   7
   2   0  -6 31612.1 1166.01   5
   2   0  -6 29577.1 1509.86   3
  -2   0   6 30786.1 1448.83   7
  -2   0   6 26667.6 1349.42   2
  -2   0   6 27935.1 1289.01   3
   2   0  -5 23036.4 1198.01   3
   2   0  -5 24751.6 911.784   5
   2   0  -5 24381.9 1235.73   7
  -2   0   5 22788.0 1074.35   3
   2   0  -4 149427. 3255.80   3
  -2   0   4 137821. 3235.22   7
   2   0  -4 148515. 3364.06   7
  -2   0   4 147443. 3057.14   3
   2   0  -3 1689.65 262.094   2
  -2   0   3 1552.07 219.912   3
   2   0  -3 1122.25 234.546   7
  -2   0   3 1263.62 229.357   7
  -2   0   2 985.724 155.407   3
   2   0  -2 790.300 166.761   2
   2   0  -1 2194.89 143.916   5
   2   0  -1 2155.33 260.296   2
  -2   0   0 292538. 4384.02   5
   2   0   0 291956. 4395.83   5
   2   0   0 274197. 4811.57   1
   2   0   0 279235. 4739.99   2
  -2   0  -1 3030.76 267.169   5
   2   0   1 2954.88 269.983   5
   2   0   1 3056.30 194.408   3
  -2   0  -1 3163.25 207.770   3
   2   0   1 2907.57 296.335   2
   2   0   1 2989.83 303.643   1
   2   0   2 276.120 65.0072   3
  -2   0  -2 434.148 144.003   5
   2   0   2 323.447 123.423   2
   2   0   2 177.868 79.3852   4
   2   0   2 385.078 122.168   1
  -2   0  -2 178.392 67.2418   3
   2   0   3 230.926 78.1926   4
  -2   0  -3 336.686 124.111   5
   2   0   3 216.191 96.9169   3
  -2   0  -3 361.675 121.557   3
   2   0   3 120.849 72.3434   1
   2   0   4 115961. 2301.25   4
   2   0   4 116799. 2724.84   1
  -2   0  -4 120259. 2757.03   3
   2   0   4 120167. 2587.63   3
  -2   0  -5 4294.85 532.333   5
   2   0   5 4123.74 302.532   4
   2   0   5 4023.46 421.780   3
  -2   0  -5 3709.47 456.246   3
   2   0   6 67105.4 1477.05   4
  -2   0  -6 69557.5 1937.40   8
   2   0   6 73879.1 2153.45   3
  -2   0  -6 73780.9 2528.29   5
   2   0   7 5076.44 575.871   7
  -2   0  -7 5347.68 499.798   8
  -2   0  -7 6001.01 734.273   5
   2   0   7 5549.44 577.229   3
   2   0   7 5461.30 331.239   4
  -2   0  -7 5383.21 682.114   3
  -2   0  -8 11974.9 1125.19   5
   2   0   8 11470.1 472.851   4
   2   0   8 13313.7 1004.21   7
  -2   0  -8 11054.1 761.092   8
   2   0   8 11046.1 889.628   3
  -2   0  -8 12199.4 1114.67   3
  -2   0  -9 10165.6 1120.63   5
   2   0   9 10058.3 888.637   3
  -2   0 -10 298.364 140.093   5
   2   0  10 30.9567 92.4809   3
  -2   0 -11-36.4916 201.485   5
   2   0  11 52.4261 140.914   3
  -2   0 -12 26015.6 2149.23   5
   2   0  12 27527.6 1756.45   3
  -2   0 -13 2631.27 695.310   5
   2   0  13 4328.37 721.755   3
  -2   0 -14 7561.01 1269.09   5
   2   1 -13 743.802 334.745   7
  -2  -1  12 30380.1 1953.88   3
   2   1 -12 28352.8 2028.28   7
   2   1 -11 27415.4 1593.24   5
  -2  -1  11 32411.8 1919.42   3
   2   1 -11 31209.3 2038.65   7
   2   1 -10 5833.00 841.911   7
  -2  -1  10 6774.52 697.856   8
   2   1 -10 6709.40 464.259   4
   2   1 -10 6093.82 688.042   5
  -2  -1  10 6562.40 814.224   3
   2   1  -9 11663.2 892.070   5
   2   1  -9 11281.3 1122.18   7
   2   1  -9 11467.8 772.838   4
  -2  -1   9 12852.0 1079.59   3
   2   1  -8 15102.1 948.529   5
   2   1  -8 16846.3 947.899   4
   2   1  -8 17327.5 1337.49   7
  -2  -1   8 18413.8 1245.19   3
  -2  -1   7 429.465 159.430   2
   2   1  -7 120.605 98.0073   5
   2   1  -7 310.249 138.329   4
   2   1  -7 329.247 208.007   7
  -2  -1   7 131.106 87.3372   3
  -2  -1   7 225.807 150.276   7
   2   1  -6 197647. 3733.65   5
  -2  -1   6 189827. 4305.70   2
   2   1  -6 190485. 3927.96   4
   2   1  -6 185786. 4597.79   7
  -2  -1   6 204168. 4599.08   7
  -2  -1   6 192594. 4320.52   3
   2   1  -5 7144.01 456.694   5
  -2  -1   5 8160.50 669.705   2
  -2  -1   5 8427.13 737.993   7
   2   1  -5 7641.70 724.176   7
   2   1  -5 7059.98 564.070   4
  -2  -1   5 7511.83 647.674   3
  -2  -1   4 20680.1 1020.26   3
   2   1  -4 20957.9 960.815   4
   2   1  -4 19005.4 650.953   5
  -2  -1   4 20219.5 1000.40   2
   2   1  -4 22020.3 1173.88   7
  -2  -1   3 11708.9 686.839   3
  -2  -1   3 11109.6 674.141   2
   2   1  -3 12116.0 802.658   7
   2   1  -3 10661.4 344.619   5
   2   1  -3 10625.4 646.506   4
  -2  -1   2 61699.6 1640.74   2
   2   1  -2 64345.4 1698.04   2
   2   1  -2 64272.2 1885.93   7
   2   1  -1 26095.6 933.013   2
   2   1  -1 26517.5 1079.78   7
  -2  -1   1 23834.2 950.240   1
  -2  -1   1 24286.2 891.507   2
   2   1  -1 22705.4 923.712   4
   2   1   0 107524. 2175.33   2
   2   1   0 107697. 2302.19   1
  -2  -1   0 106846. 1850.48   6
  -2  -1   0 104952. 2176.68   2
  -2  -1   0 105205. 2289.58   1
  -2  -1  -1 24043.9 903.560   1
  -2  -1  -1 25345.2 955.945   4
   2   1   1 22782.6 884.847   1
  -2  -1  -1 23381.7 846.116   2
   2   1   1 23190.3 828.191   2
   2   1   2 319400. 5192.53   2
  -2  -1  -2 315309. 5278.20   4
   2   1   2 301450. 5171.98   4
   2   1   2 309223. 5268.06   1
   2   1   2 329845. 5041.65   3
  -2  -1  -2 316862. 5071.92   3
  -2  -1  -3 11115.8 608.582   4
   2   1   3 10024.4 548.491   4
   2   1   3 9912.00 546.897   3
  -2  -1  -3 9959.26 583.115   3
   2   1   3 9045.01 578.933   1
  -2  -1  -4 82875.3 1957.46   4
  -2  -1  -4 74860.2 2076.24   3
   2   1   4 79870.2 1829.23   4
   2   1   4 82741.7 1997.56   3
   2   1   4 81151.4 2123.98   1
   2   1   5 79.7268 105.472   3
   2   1   5 116.166 65.3535   4
  -2  -1  -5 61.7178 68.3790   4
   2   1   5 57.8158 56.3496   7
  -2  -1  -6 20016.7 884.062   4
   2   1   6 19330.1 764.101   4
   2   1   6 19717.8 1015.14   3
   2   1   7 16912.5 997.655   7
  -2  -1  -7 15956.7 795.624   8
  -2  -1  -7 17898.9 841.629   4
   2   1   7 16171.0 698.117   4
   2   1   7 16608.0 1003.02   3
  -2  -1  -8 19859.7 1514.31   5
   2   1   8 17765.7 1103.10   3
   2   1   8 16311.1 722.088   4
  -2  -1  -8 18362.2 870.855   4
  -2  -1  -8 16917.0 860.870   8
   2   1   8 17455.3 1106.19   7
  -2  -1  -8 17672.2 1326.07   3
  -2  -1  -9 1085.17 366.209   5
   2   1   9 1292.80 332.963   3
   2   1   9 1087.72 179.035   4
   2   1   9 1416.58 335.274   7
  -2  -1  -9 1233.48 241.573   8
  -2  -1  -9 1392.24 238.756   4
  -2  -1 -10 41501.1 1387.19   4
   2   1  10 43553.3 1966.07   3
   2   1  11 585.918 247.388   3
  -2  -1 -11 356.853 256.755   5
  -2  -1 -12 20960.7 1968.28   5
   2   1  12 25904.3 1646.16   3
   2   1  13 658.836 280.723   3
  -2  -1 -13 1026.25 454.807   5
   2   1  14 3437.13 652.540   3
  -2  -1 -14 2750.02 785.801   5
  -2  -1 -15 820.062 390.664   5
   2   2 -12 2595.46 634.929   7
  -2  -2  12 2218.94 527.021   3
  -2  -2  11 1968.41 487.368   3
   2   2 -11 1402.36 439.000   7
  -2  -2  10 28971.3 1802.15   3
   2   2 -10 29602.6 1600.23   5
   2   2 -10 30479.0 2033.61   7
   2   2  -9 8658.07 555.942   4
   2   2  -9 7735.10 964.803   7
  -2  -2   9 9106.10 943.984   3
   2   2  -9 8685.03 801.222   5
   2   2  -8 19820.9 1520.23   7
   2   2  -8 19848.8 940.189   4
  -2  -2   8 21362.2 1399.18   3
   2   2  -8 20312.6 1157.34   5
   2   2  -7 5637.80 502.051   4
  -2  -2   7 6409.73 721.551   3
  -2  -2   7 6312.07 674.378   2
   2   2  -7 6506.13 804.580   7
   2   2  -7 5591.30 552.300   5
  -2  -2   6 1369.33 288.368   2
   2   2  -6 1242.13 350.103   7
   2   2  -6 1400.64 250.129   4
   2   2  -6 1589.74 261.925   5
  -2  -2   6 1076.03 285.961   3
  -2  -2   6 2055.93 406.943   7
  -2  -2   5 4861.62 557.383   3
   2   2  -5 5636.40 488.836   4
  -2  -2   5 4631.25 504.082   2
   2   2  -5 5315.87 644.188   7
  -2  -2   5 5687.62 641.885   7
   2   2  -5 5242.12 426.589   5
   2   2  -4 183901. 4278.31   7
   2   2  -4 179862. 3596.14   4
   2   2  -4 183647. 3211.19   5
  -2  -2   4 171296. 3693.14   2
  -2  -2   4 176395. 3949.37   3
  -2  -2   3 101550. 1903.84   5
  -2  -2   3 100322. 2598.44   3
   2   2  -3 99738.7 2375.15   4
  -2  -2   3 98269.8 2347.46   2
   2   2  -3 101574. 2811.82   7
  -2  -2   2 270602. 4166.67   5
   2   2  -2 255226. 4744.81   4
  -2  -2   2 273829. 4818.91   1
   2   2  -2 285139. 5297.92   7
  -2  -2   2 267151. 4615.36   2
  -2  -2   1 16970.0 766.581   6
  -2  -2   1 17640.9 723.779   2
  -2  -2   1 20842.4 920.386   4
   2   2  -1 19925.6 872.452   4
   2   2  -1 21741.2 1048.54   7
  -2  -2   1 18331.7 822.595   1
   2   2  -1 18429.6 826.376   2
   2   2   0 53667.0 1537.30   4
  -2  -2   0 53304.0 1472.67   1
   2   2   0 54612.1 1341.66   2
  -2  -2   0 54758.5 1343.21   2
  -2  -2   0 57129.8 1395.68   6
   2   2   0 53685.3 1470.97   1
  -2  -2   0 56398.5 1602.81   4
  -2  -2  -1 3622.93 361.148   4
  -2  -2  -1 3301.49 312.420   1
  -2  -2  -1 3701.69 271.314   6
   2   2   1 3544.44 281.077   2
   2   2   1 3849.56 287.762   6
   2   2   1 3428.27 321.482   1
  -2  -2  -1 3393.93 283.556   2
  -2  -2  -2 1136.27 181.805   3
  -2  -2  -2 1096.37 185.805   1
   2   2   2 1200.89 175.543   2
   2   2   2 1490.72 221.536   1
   2   2   2 1304.77 164.252   6
  -2  -2  -2 1210.76 202.938   4
  -2  -2  -3 33291.5 1167.46   4
   2   2   3 29600.6 1076.42   4
   2   2   3 31327.2 1122.04   3
  -2  -2  -3 29455.1 1094.03   3
   2   2   3 30702.6 1114.78   1
   2   2   4 12315.1 724.129   3
  -2  -2  -4 11674.8 685.065   4
   2   2   4 10868.3 624.899   4
   2   2   4 11686.1 713.718   1
   2   2   5 11458.2 650.246   4
  -2  -2  -5 11441.0 684.697   4
   2   2   5 12278.2 761.636   3
  -2  -2  -6 288029. 5234.74   4
   2   2   6 280858. 5253.40   7
   2   2   6 298204. 5107.71   4
  -2  -2  -7 69368.3 1956.40   4
   2   2   7 64662.0 1787.07   4
   2   2   7 69844.0 2177.99   3
   2   2   8 114026. 2954.92   7
   2   2   8 107352. 2513.67   4
  -2  -2  -8 109582. 2348.77   8
  -2  -2  -8 113618. 2727.20   4
   2   2   8 110769. 3025.15   3
  -2  -2  -8 105438. 3494.08   3
  -2  -2  -9 122.475 60.5288   8
   2   2   9 164.357 87.4447   4
   2   2   9 110.142 118.250   3
  -2  -2  -9 16.4786 58.5147   4
   2   2  10 23752.0 1400.34   3
  -2  -2 -10 25972.7 1210.98   4
   2   2  10 24961.4 1063.79   4
   2   2  10 26101.6 1451.92   7
   2   2  11 9133.88 911.572   3
  -2  -2 -11 11583.8 804.543   4
  -2  -2 -12 12647.7 1584.24   5
  -2  -2 -12 14718.0 910.797   4
   2   2  12 14592.6 1212.36   3
   2   2  13 378.838 267.684   3
  -2  -2 -13 177.973 213.633   5
   2   2  14 1977.70 469.975   3
  -2  -2 -14 1970.95 674.709   5
  -2  -2 -15-6.33738 155.031   5
  -2  -3  11 2410.31 578.894   3
   2   3 -11 2664.03 640.594   7
   2   3 -10 5574.75 898.002   7
   2   3 -10 5917.77 707.426   5
  -2  -3  10 5743.90 814.008   3
   2   3  -9 13933.7 1368.92   7
  -2  -3   9 13590.0 1229.20   3
   2   3  -9 14214.1 1044.74   5
   2   3  -8 2559.89 417.535   5
  -2  -3   8 2123.82 465.922   3
   2   3  -8 3130.60 328.603   4
   2   3  -8 3205.77 692.313   7
  -2  -3   7 16457.6 1254.57   3
   2   3  -7 16546.2 1378.13   7
   2   3  -7 17731.5 864.330   4
   2   3  -7 17757.7 1032.46   5
  -2  -3   6 53238.9 1961.37   2
   2   3  -6 55866.3 1686.92   4
  -2  -3   6 53140.0 2210.67   3
   2   3  -6 53336.9 2422.92   7
   2   3  -6 53944.2 1778.08   5
  -2  -3   5 43917.0 1882.90   3
  -2  -3   5 40242.2 1570.46   2
  -2  -3   5 39334.8 1334.67   5
   2   3  -5 41424.6 1434.22   4
   2   3  -5 41908.1 2018.81   7
  -2  -3   5 44192.7 1940.01   7
  -2  -3   4 134332. 3491.55   3
   2   3  -4 129269. 2936.87   4
   2   3  -4 132862. 3698.13   7
  -2  -3   4 128899. 3005.81   2
  -2  -3   4 135405. 2741.47   5
  -2  -3   3 10910.8 596.458   5
  -2  -3   3 12053.1 723.909   4
   2   3  -3 11613.1 712.335   4
  -2  -3   3 10869.9 656.303   2
   2   3  -3 12124.3 939.075   7
   2   3  -2 20369.6 949.038   4
  -2  -3   2 21434.8 979.572   4
   2   3  -2 20689.7 1167.71   7
  -2  -3   2 19811.9 1023.34   6
  -2  -3   2 19187.4 808.526   2
  -2  -3   2 20405.1 826.016   5
  -2  -3   2 19657.2 899.946   1
  -2  -3   1 18449.1 817.799   1
   2   3  -1 17733.6 877.588   4
  -2  -3   1 18576.5 903.527   4
  -2  -3   1 18775.0 721.928   2
   2   3  -1 20254.2 1087.59   7
  -2  -3   1 17573.7 898.056   6
   2   3   0 27569.1 1232.83   7
  -2  -3   0 24820.0 797.288   2
   2   3   0 27286.0 1096.51   4
  -2  -3   0 27520.4 1104.70   4
  -2  -3   0 24808.3 924.872   1
   2   3   0 26062.6 1031.08   6
   2   3   0 26425.5 827.132   2
  -2  -3   0 25278.0 1020.61   6
   2   3   0 25094.4 930.650   1
  -2  -3  -1 122.601 50.8890   1
   2   3   1 219.899 61.5598   2
   2   3   1 226.908 102.100   7
   2   3   1 300.776 94.6078   1
  -2  -3  -1 445.131 148.649   4
  -2  -3  -1 276.390 74.6400   2
   2   3   1 289.789 99.6025   6
  -2  -3  -1 274.888 98.7325   6
   2   3   2 38549.6 1218.72   1
  -2  -3  -2 37599.7 1158.28   1
  -2  -3  -2 38399.8 1344.93   4
   2   3   2 37513.3 1212.91   6
  -2  -3  -2 37396.3 1134.71   6
   2   3   2 36937.7 1021.03   2
  -2  -3  -3 130166. 2907.77   4
   2   3   3 127964. 2706.47   6
   2   3   3 129089. 2754.04   1
   2   3   4 118996. 2911.21   3
  -2  -3  -4 120858. 2813.95   4
   2   3   4 117770. 2729.50   4
   2   3   4 117258. 2719.39   1
   2   3   4 118884. 2649.96   6
   2   3   5 1030.71 218.922   4
   2   3   5 911.596 226.664   3
  -2  -3  -5 1490.58 274.791   4
  -2  -3  -6 122647. 2983.13   4
   2   3   6 118503. 2842.73   4
  -2  -3  -7 8686.14 686.072   4
   2   3   7 9212.98 649.301   7
   2   3   7 8636.84 645.084   4
   2   3   7 9150.23 761.812   3
   2   3   8 29156.8 1257.95   4
  -2  -3  -8 30343.7 1352.50   4
   2   3   8 32219.4 1515.24   3
   2   3   9 327.411 195.336   3
   2   3   9 201.530 110.172   4
  -2  -3  -9 407.098 144.591   4
  -2  -3  -9 150.462 64.0858   8
   2   3   9 194.726 117.113   7
  -2  -3 -10 8329.16 724.261   4
   2   3  10 8005.52 665.589   4
   2   3  10 8523.00 775.842   7
   2   3  10 8659.34 843.199   3
   2   3  11 398.886 219.736   3
   2   3  11 112.374 103.907   7
  -2  -3 -11 318.564 119.063   4
   2   3  12 28910.3 1713.02   3
  -2  -3 -12 30724.2 1459.74   4
   2   3  13 2510.89 536.248   3
  -2  -3 -13 1039.67 490.568   5
  -2  -3 -14 18950.6 2095.89   5
   2   3  14 33925.3 2040.96   3
  -2  -4  11 2100.22 554.754   3
   2   4 -10 16064.7 1604.37   7
  -2  -4  10 18188.4 1556.29   3
   2   4  -9 3939.35 769.489   7
  -2  -4   9 3687.75 672.244   3
   2   4  -9 3705.05 545.618   5
  -2  -4   8 21562.1 1587.46   3
   2   4  -8 20462.5 1691.47   7
  -2  -4   7 8962.89 965.799   3
   2   4  -7 9705.76 645.168   4
   2   4  -7 8196.16 1022.19   7
  -2  -4   6 2593.54 408.952   2
  -2  -4   6 3164.08 547.422   3
   2   4  -6 3717.94 414.047   4
  -2  -4   6 2714.11 383.087   5
   2   4  -6 2852.76 586.285   7
  -2  -4   5 4658.01 475.515   5
  -2  -4   5 6342.24 750.100   3
   2   4  -5 5354.77 506.622   4
  -2  -4   5 4984.04 529.491   2
   2   4  -5 6075.75 794.152   7
  -2  -4   5 6207.88 755.157   6
  -2  -4   4 4495.12 451.488   5
  -2  -4   4 5057.56 637.495   3
  -2  -4   4 5804.90 678.498   7
  -2  -4   4 4526.37 467.900   4
   2   4  -4 4782.24 480.554   4
   2   4  -4 4346.90 635.138   7
  -2  -4   4 5182.95 646.427   6
  -2  -4   4 4892.21 472.378   2
  -2  -4   3 1213.57 229.118   1
  -2  -4   3 1083.99 202.594   2
  -2  -4   3 848.579 200.605   5
   2   4  -3 1274.21 246.447   4
  -2  -4   3 1148.39 234.869   4
  -2  -4   3 1324.31 316.352   7
  -2  -4   3 973.769 269.058   6
   2   4  -3 1136.82 302.253   7
  -2  -4   2 89745.6 2349.69   4
   2   4  -2 77624.5 2215.17   4
   2   4  -2 89959.8 2792.43   7
  -2  -4   2 82567.8 2091.01   1
  -2  -4   2 89410.4 2584.67   7
  -2  -4   2 86955.7 2255.03   5
  -2  -4   2 83197.7 1939.59   2
  -2  -4   1 68869.9 2108.09   7
  -2  -4   1 69259.2 2015.33   4
   2   4  -1 67654.7 1988.33   4
   2   4  -1 69997.5 2327.96   7
  -2  -4   1 67592.6 1532.33   2
  -2  -4   1 67500.7 1729.36   1
  -2  -4   0 345304. 5514.53   1
  -2  -4   0 335065. 5153.84   2
  -2  -4   0 333150. 6050.08   4
   2   4   0 342724. 6056.51   4
   2   4   0 352105. 6419.36   7
   2   4   0 347973. 6153.08   6
  -2  -4   0 333978. 6082.97   6
  -2  -4  -1 48059.8 1616.81   4
  -2  -4  -1 44750.7 1258.04   1
   2   4   1 46353.2 1035.72   2
   2   4   1 45370.9 1305.85   1
   2   4   1 49995.0 1744.38   7
   2   4   1 47213.3 1613.07   6
  -2  -4  -1 46772.6 1558.77   6
  -2  -4  -2 16032.7 819.802   6
   2   4   2 14214.3 706.695   1
  -2  -4  -2 16096.8 916.217   4
   2   4   2 14429.5 852.662   7
   2   4   2 15807.6 875.117   6
   2   4   2 15055.9 537.804   2
  -2  -4  -3 10203.9 736.772   4
   2   4   3 9277.87 598.779   1
   2   4   3 9688.54 690.556   6
  -2  -4  -4 32333.7 1381.35   4
   2   4   4 31998.6 1237.41   1
   2   4   4 30529.2 1308.82   6
  -2  -4  -5 3452.40 440.972   4
   2   4   5 3143.57 410.829   4
   2   4   5 3012.21 411.282   6
   2   4   5 3252.60 399.983   1
  -2  -4  -6 8391.14 715.108   4
   2   4   6 8271.43 678.754   4
   2   4   6 9342.44 820.004   3
  -2  -4  -7 8588.83 739.968   4
   2   4   7 7731.40 669.766   4
  -2  -4  -7 7134.79 747.069   3
   2   4   7 7455.70 558.540   7
   2   4   7 8342.38 762.585   3
   2   4   8 13547.8 911.570   4
  -2  -4  -8 13641.8 963.355   4
   2   4   8 13764.6 1037.52   3
  -2  -4  -9 16953.7 1099.90   4
  -2  -4  -9 15318.4 437.667   8
   2   4   9 16577.4 1177.96   3
   2   4   9 15295.7 1009.47   4
  -2  -4 -10 26005.0 1405.50   4
   2   4  10 27708.8 1357.66   7
   2   4  10 26732.7 1555.72   3
   2   4  10 26382.3 1353.14   4
   2   4  11 2233.07 474.815   3
   2   4  11 2130.80 394.328   7
  -2  -4 -11 2178.51 399.085   4
  -2  -4 -12 46689.2 1991.37   4
   2   4  12 48911.6 2322.14   3
   2   4  13 2485.65 524.877   3
  -2  -4 -14 5949.81 1173.39   5
   2   4  14 11702.3 1203.58   3
  -2  -5  10 5765.58 917.900   3
   2   5 -10 4891.65 930.356   7
  -2  -5   9 1594.07 474.422   3
   2   5  -9 1251.06 460.069   7
  -2  -5   8 6942.80 940.174   3
   2   5  -8 7140.66 1046.97   7
  -2  -5   7 143.590 106.584   5
  -2  -5   7-10.8903 129.284   3
   2   5  -7-219.006 196.021   7
  -2  -5   6 21030.2 1527.11   3
  -2  -5   6 18785.7 1132.06   5
   2   5  -6 20042.3 1060.18   4
  -2  -5   6 20383.3 1171.30   2
   2   5  -6 21708.8 1693.05   7
  -2  -5   5 1982.03 341.161   5
  -2  -5   5 2689.33 381.146   4
   2   5  -5 3031.58 597.372   7
  -2  -5   5 3154.24 560.988   3
  -2  -5   5 2400.14 359.965   2
  -2  -5   4 13337.8 900.780   5
  -2  -5   4 11678.9 743.007   2
  -2  -5   4 12713.9 836.644   4
   2   5  -4 12081.1 1139.76   7
  -2  -5   4 12271.9 814.435   1
  -2  -5   4 13584.2 1126.03   6
  -2  -5   3 15135.0 975.941   5
  -2  -5   3 16102.9 947.987   4
  -2  -5   3 15448.2 778.230   2
  -2  -5   3 14306.9 806.232   1
   2   5  -3 13566.6 1147.73   7
  -2  -5   3 17044.7 1197.16   6
  -2  -5   3 17509.7 1176.48   7
  -2  -5   2 115490. 2389.93   2
  -2  -5   2 117139. 2969.20   4
   2   5  -2 117721. 3515.95   7
  -2  -5   2 113509. 2559.78   1
  -2  -5   2 125966. 3426.58   6
  -2  -5   2 122215. 3281.47   7
  -2  -5   2 117758. 3055.23   5
  -2  -5   1 5670.99 589.784   7
  -2  -5   1 4920.43 518.869   4
  -2  -5   1 2466.35 489.769   6
   2   5  -1 4795.24 615.218   7
   2   5  -1 2366.65 414.071   6
  -2  -5   1 2290.31 348.786   1
  -2  -5   1 4454.24 530.681   5
  -2  -5   0 24894.6 870.859   1
  -2  -5   0 24100.8 1196.15   4
   2   5   0 24839.1 1327.18   7
   2   5   0 23951.1 1291.40   6
  -2  -5   0 24833.6 654.390   2
  -2  -5  -1 14941.0 634.015   1
  -2  -5  -1 14273.5 921.306   4
   2   5   1 14374.0 929.341   4
   2   5   1 15069.2 671.348   1
   2   5   1 15251.5 969.427   7
   2   5   1 14698.1 976.754   6
   2   5   2 157833. 3614.18   7
  -2  -5  -2 165488. 3755.75   4
   2   5   2 153864. 3721.46   6
   2   5   2 153924. 3014.88   1
   2   5   3 10223.0 618.784   1
  -2  -5  -3 10538.9 809.743   4
   2   5   3 8409.34 666.998   7
   2   5   3 10336.9 447.912   2
   2   5   3 10493.4 810.976   6
  -2  -5  -4 1016.16 258.153   4
   2   5   4 829.711 237.513   6
   2   5   5 521.662 164.809   1
   2   5   5 540.667 174.613   6
  -2  -5  -5 603.056 212.847   4
   2   5   5 518.999 197.803   4
   2   5   6 40754.1 1712.82   4
  -2  -5  -6 38170.1 1711.52   4
  -2  -5  -6 37448.9 1678.58   3
   2   5   6 40895.2 1795.88   6
  -2  -5  -7 23396.3 1373.20   3
  -2  -5  -7 28690.2 1478.55   4
   2   5   7 26655.3 1035.82   7
   2   5   7 28072.8 1418.09   4
   2   5   7 22309.6 1340.46   6
   2   5   8 87496.0 2968.81   3
   2   5   8 87191.2 2216.56   7
  -2  -5  -8 89897.0 2857.50   4
   2   5   8 87991.6 2739.37   4
   2   5   9 44371.9 1916.60   4
  -2  -5  -9 45253.1 1964.20   4
   2   5   9 42328.1 2014.35   3
  -2  -5 -10 10363.5 934.509   4
   2   5  10 9847.68 969.242   3
   2   5  11 181.805 174.655   3
   2   5  11 443.943 159.843   7
  -2  -5 -11 461.331 211.446   4
   2   5  12 2020.76 476.455   3
  -2  -5 -12 2604.20 475.875   4
   2   5  13 1161.71 390.684   3
  -2  -5 -13 1010.25 300.252   4
   2   6  -9 122.934 142.282   7
  -2  -6   9-288.091 295.187   3
  -2  -6   8 13283.3 1395.52   3
   2   6  -8 9770.35 1292.58   7
  -2  -6   7 8562.31 1051.70   3
   2   6  -7 7999.82 1117.31   7
  -2  -6   6 8705.45 826.328   5
  -2  -6   6 7720.41 982.261   3
  -2  -6   6 7409.00 686.918   2
   2   6  -6 9420.05 1161.01   7
  -2  -6   5 1518.32 306.737   1
  -2  -6   5 1806.02 315.726   2
  -2  -6   5 1591.45 343.043   5
  -2  -6   5 1741.95 443.593   3
  -2  -6   5 1329.60 280.712   4
   2   6  -5 1329.73 428.389   7
  -2  -6   4 35728.4 1708.99   5
  -2  -6   4 39292.8 1623.78   4
   2   6  -4 38622.4 1680.50   4
  -2  -6   4 36581.6 1376.29   2
   2   6  -4 38219.9 2169.26   7
  -2  -6   4 37865.3 1457.61   1
  -2  -6   3 501.385 182.996   4
  -2  -6   3 580.330 150.440   2
  -2  -6   3 608.563 218.750   5
  -2  -6   3 702.635 183.839   1
   2   6  -3 537.601 262.885   7
   2   6  -3 690.818 222.175   4
   2   6  -2 524.592 198.423   4
  -2  -6   2 1009.40 287.126   5
  -2  -6   2 535.975 119.900   2
  -2  -6   2 473.572 186.022   4
   2   6  -2 712.609 271.105   7
  -2  -6   2 1052.89 275.890   7
  -2  -6   2 691.795 237.505   6
  -2  -6   2 560.145 157.424   1
  -2  -6   1 3569.41 308.185   1
   2   6  -1 3643.37 555.783   7
  -2  -6   1 4411.51 531.395   4
   2   6  -1 4340.70 540.300   4
  -2  -6   1 4574.01 556.754   7
   2   6  -1 3645.13 548.329   6
  -2  -6   1 3987.91 256.635   2
  -2  -6   1 5033.51 637.007   6
  -2  -6   1 4239.08 550.621   5
   2   6   0 106132. 3181.78   7
  -2  -6   0 105534. 3027.51   4
   2   6   0 103892. 3235.96   6
   2   6   0 111013. 3116.91   4
  -2  -6   0 112100. 2130.04   1
  -2  -6   0 116044. 2947.57   7
  -2  -6   0 112253. 3224.75   6
   2   6   1 2022.36 373.733   4
   2   6   1 1561.30 316.498   7
  -2  -6  -1 1228.44 277.581   4
   2   6   1 1882.56 382.455   6
  -2  -6  -1 1516.34 322.288   6
  -2  -6  -2 45040.0 1853.43   4
   2   6   2 40831.0 1776.21   4
   2   6   2 40277.0 1631.12   7
   2   6   2 40586.5 1194.50   1
   2   6   2 42700.5 1896.95   6
  -2  -6  -2 41773.5 1719.71   6
   2   6   3 684.708 156.584   1
  -2  -6  -3 277.910 133.296   4
   2   6   3 359.945 172.589   4
   2   6   3 21.2443 87.0895   6
   2   6   3 312.310 136.398   7
  -2  -6  -3 309.916 153.818   6
   2   6   4 33182.4 1692.53   6
  -2  -6  -4 34770.9 1666.94   4
   2   6   4 34539.2 1292.56   1
   2   6   4 35339.9 1669.51   4
   2   6   4 33478.3 1362.89   7
  -2  -6  -4 34341.1 1560.38   3
  -2  -6  -5 3037.65 458.802   3
  -2  -6  -5 4167.13 569.190   4
   2   6   5 4550.47 589.587   4
   2   6   5 3130.32 389.019   7
   2   6   5 4181.43 464.153   1
   2   6   5 3721.86 556.418   6
  -2  -6  -6 152660. 4057.14   4
   2   6   6 149036. 4150.30   6
   2   6   6 147039. 3590.72   1
  -2  -6  -7 14880.3 1129.86   4
   2   6   7 14073.4 681.338   7
  -2  -6  -8 16492.8 1200.98   4
   2   6   8 16450.5 781.082   7
   2   6   8 14209.6 1192.03   6
   2   6   9 8968.48 963.008   6
  -2  -6  -9 10553.6 973.026   4
   2   6   9 10789.8 663.863   7
   2   6  10 4410.70 666.713   6
  -2  -6 -10 4784.66 669.170   4
   2   6  10 4183.88 444.547   7
   2   6  10 5029.89 743.012   3
   2   6  11 2882.75 563.122   3
  -2  -6 -11 3766.90 601.065   4
  -2  -6 -12 17616.8 1343.18   4
   2   6  12 15418.9 1366.19   3
   2   6  13 1325.65 424.440   3
  -2  -6 -13 456.014 232.507   4
  -2  -7   8 4496.39 907.978   3
   2   7  -8 3247.69 782.747   7
   2   7  -7 20122.1 1854.78   7
  -2  -7   7 21706.4 1813.58   3
  -2  -7   6 13068.9 1364.29   3
  -2  -7   6 11520.5 879.318   1
  -2  -7   6 10488.9 826.059   4
   2   7  -6 11559.7 1351.57   7
  -2  -7   5 8005.99 1031.27   3
  -2  -7   5 6236.49 651.858   4
   2   7  -5 7414.99 1035.85   7
  -2  -7   5 7485.61 651.366   1
   2   7  -5 6756.78 738.450   4
  -2  -7   4 9783.91 949.205   5
   2   7  -4 10206.0 1148.46   7
  -2  -7   4 9701.01 836.761   4
   2   7  -4 8346.53 832.693   4
  -2  -7   4 10467.4 701.399   1
  -2  -7   4 9528.70 646.287   2
  -2  -7   3 340.562 182.700   5
  -2  -7   3 546.678 137.499   2
   2   7  -3 620.514 261.475   7
  -2  -7   3 476.018 144.648   1
   2   7  -3 506.021 193.779   4
  -2  -7   3 318.997 159.217   4
   2   7  -2 16257.3 1170.55   4
  -2  -7   2 19422.6 1203.23   4
  -2  -7   2 16148.4 683.044   1
   2   7  -2 16712.5 1340.84   7
  -2  -7   2 16496.9 1239.79   5
  -2  -7   2 16612.1 628.843   2
  -2  -7   1 1276.73 336.238   5
  -2  -7   1 977.065 298.628   7
   2   7  -1 1153.35 319.501   4
  -2  -7   1 1332.81 337.567   4
   2   7  -1 1349.35 371.512   7
  -2  -7   1 910.238 136.281   1
   2   7  -1 858.939 288.040   6
  -2  -7   0 20828.5 1292.64   4
   2   7   0 19982.6 1303.47   4
   2   7   0 19523.5 1293.27   7
   2   7   0 21357.8 1459.04   6
  -2  -7  -1 439.380 169.029   4
   2   7   1 621.250 227.216   4
  -2  -7  -1 456.026 192.945   6
   2   7   1 581.757 219.954   7
   2   7   1 574.512 239.728   6
   2   7   2 26516.8 1315.02   7
  -2  -7  -2 25841.5 1486.18   4
   2   7   2 24108.6 1552.61   6
  -2  -7  -2 25681.3 1442.25   6
  -2  -7  -3 8880.03 853.311   4
   2   7   3 8479.20 682.538   7
   2   7   3 6876.83 814.356   6
   2   7   3 8942.23 533.299   1
  -2  -7  -3 8995.79 809.984   6
   2   7   4 63917.5 1835.13   1
  -2  -7  -4 64641.5 2506.52   4
   2   7   4 65649.6 1943.00   7
   2   7   4 66302.6 2681.30   6
   2   7   5 27852.9 1751.96   6
  -2  -7  -5 32529.5 1742.06   4
   2   7   5 31911.2 1326.07   1
   2   7   5 30872.5 1189.55   7
   2   7   5 31286.5 992.012   2
   2   7   6 1547.93 300.890   1
   2   7   6 1809.87 255.808   2
  -2  -7  -6 1795.71 404.042   4
   2   7   6 1930.67 277.160   7
   2   7   6 1837.26 433.105   6
   2   7   7 44216.7 1393.40   7
  -2  -7  -7 48178.0 2207.82   4
   2   7   7 46202.2 1238.98   7
   2   7   7 45837.2 1873.68   1
  -2  -7  -8 52098.9 2333.63   4
   2   7   8 48181.1 1301.52   7
  -2  -7  -8 48713.7 1370.30   8
  -2  -7  -9 1904.60 443.462   4
   2   7   9 1323.05 409.432   6
  -2  -7 -10 25133.6 1647.03   4
   2   7  10 21079.4 1656.98   6
  -2  -7 -11 2020.34 467.506   4
   2   7  11 1437.17 447.418   6
  -2  -7 -12 9191.78 1025.32   4
   2   7  12 9900.09 1137.23   6
  -2  -7 -13 729.641 299.810   4
   2   7  13 1133.29 388.141   6
   2   8  -7 2800.76 732.648   7
  -2  -8   6 5111.99 897.796   3
   2   8  -6 5645.35 985.573   7
  -2  -8   5 3724.20 540.975   4
  -2  -8   5 4072.02 780.691   3
   2   8  -5 4611.28 849.382   7
  -2  -8   4 13429.5 1049.71   4
   2   8  -4 13361.7 1386.23   7
   2   8  -3 493.242 255.961   7
  -2  -8   3 661.641 240.660   4
  -2  -8   2 23984.2 1446.58   4
   2   8  -2 21979.7 1613.15   7
   2   8  -1 38923.3 2199.10   6
  -2  -8   1 41706.2 1953.42   4
   2   8  -1 39441.3 2066.21   7
   2   8   0 544.993 202.419   7
  -2  -8   0 653.394 246.004   4
   2   8   0 444.243 220.069   6
   2   8   1 47425.2 1991.91   7
  -2  -8  -1 47863.5 2173.77   4
   2   8   1 43921.5 2318.13   6
  -2  -8  -2 79526.0 2912.76   4
   2   8   2 77103.0 2473.94   7
   2   8   2 74650.3 3107.08   6
   2   8   3 3673.60 276.509   1
   2   8   3 3460.47 434.515   7
   2   8   3 2825.03 587.321   6
  -2  -8  -4 1457.92 385.270   4
   2   8   4 1418.89 269.812   7
   2   8   4 1781.74 456.963   6
   2   8   4 1914.85 261.149   1
   2   8   5 715.444 188.017   1
  -2  -8  -5 367.540 163.749   8
  -2  -8  -5 577.351 259.523   4
   2   8   5 408.441 125.788   7
   2   8   5 240.375 195.507   6
  -2  -8  -6 16707.7 1032.78   8
  -2  -8  -6 18415.4 1392.45   4
   2   8   6 20086.5 779.855   7
   2   8   6 17221.9 1038.29   1
   2   8   6 17855.4 811.434   2
   2   8   6 16528.2 1462.25   6
  -2  -8  -7 3326.75 605.641   4
   2   8   7 2925.62 452.201   1
  -2  -8  -7 3217.44 411.293   8
   2   8   7 3182.52 235.884   7
   2   8   7 3140.82 247.428   7
   2   8   7 3478.03 391.920   2
   2   8   7 3345.45 652.760   6
  -2  -8  -8 21934.7 1566.21   4
   2   8   8 20947.0 1304.08   1
   2   8   8 18634.9 1597.99   6
  -2  -8  -9 4519.63 720.456   4
   2   8   9 3844.59 737.705   6
  -2  -8 -10 6508.75 889.151   4
   2   8  10 7970.96 1076.32   6
  -2  -8 -11-88.2671 188.445   4
   2   8  11-218.195 208.749   6
  -2  -8 -12 21559.4 1657.47   4
   2   8  12 17493.0 1655.78   6
  -2  -8 -13 541.868 295.549   4
   2   9  -6 440.572 273.577   7
  -2  -9   5 6646.05 1060.92   3
   2   9  -5 5751.66 985.613   7
   2   9  -4 11659.9 1334.40   7
  -2  -9   4 10062.5 982.442   4
  -2  -9   3 1839.97 423.003   4
   2   9  -3 2169.99 548.285   7
  -2  -9   2 6446.32 806.372   4
   2   9  -2 6112.11 876.382   7
  -2  -9   1 14693.8 1234.20   4
   2   9  -1 14960.7 1283.33   7
   2   9   0 36117.7 1926.30   7
  -2  -9   0 42536.7 2127.97   4
   2   9   0 37167.6 2289.40   6
   2   9   1 209.154 113.505   7
  -2  -9  -1 179.510 123.261   4
   2   9   1-22.6713 121.292   6
  -2  -9  -2 3857.38 636.576   4
   2   9   2 3597.84 498.871   7
   2   9   2 3646.84 690.670   6
   2   9   3 8066.39 1048.88   6
   2   9   3 7907.56 677.866   7
  -2  -9  -3 8015.94 941.022   4
  -2  -9  -4 20567.3 1518.90   4
   2   9   4 19122.4 1652.00   6
   2   9   4 20755.5 997.628   7
  -2  -9  -5 6519.10 859.049   4
  -2  -9  -5 6612.63 726.132   8
   2   9   5 6622.22 473.656   7
   2   9   5 5152.35 852.933   6
  -2  -9  -6 6801.20 891.367   4
   2   9   6 5453.70 897.282   6
  -2  -9  -7 14595.8 1320.71   4
   2   9   7 13792.0 1462.75   6
   2   9   8 19749.5 1788.76   6
  -2  -9  -8 22151.5 1676.51   4
   2   9   9 124.100 99.3897   6
  -2  -9  -9 751.861 320.448   4
   2   9  10 4856.64 892.262   6
  -2  -9 -10 3878.48 708.933   4
  -2  -9 -11 7280.64 998.403   4
   2   9  11 6453.34 1057.67   6
   2  10  -4 4450.75 830.324   7
  -2 -10   3 1200.40 353.260   4
   2  10  -3 1708.75 491.527   7
  -2 -10   2 14129.5 1260.46   4
   2  10  -2 16225.6 1450.83   7
  -2 -10   1 10703.4 1118.17   4
   2  10  -1 11502.4 1158.05   7
  -2 -10   0 2037.07 486.925   4
   2  10   0 2438.48 496.070   7
   2  10   0 1923.55 547.587   6
   2  10   1 36359.8 1825.52   7
  -2 -10  -1 36010.1 2107.15   4
   2  10   1 36275.1 2423.67   6
  -2 -10  -2 29557.3 1940.05   4
   2  10   2 32440.6 1577.01   7
   2  10   2 31175.6 2246.66   6
   2  10   3 3522.31 747.107   6
   2  10   3 2970.07 419.972   7
  -2 -10  -3 3345.92 632.832   4
  -2 -10  -4 34196.0 2114.19   4
   2  10   4 31196.8 2292.58   6
  -2 -10  -5 2646.36 586.745   4
   2  10   5 2540.44 652.174   6
  -2 -10  -6 11053.5 1202.76   4
   2  10   6 9354.82 1264.38   6
   2  10   7-78.4130 134.619   6
  -2 -10  -7-83.5591 151.843   4
  -2 -10  -8 14341.3 1415.74   4
   2  10   8 12321.0 1500.60   6
  -2 -10  -9 437.529 260.651   4
   2  10   9-466.336 311.925   6
   2  11  -3 1424.25 478.922   7
  -2 -11   2 5668.93 860.166   4
   2  11  -2 6178.66 909.995   7
  -2 -11   1 929.779 352.854   4
   2  11  -1 1252.62 379.171   7
   2  11   0 11499.6 1442.04   6
  -2 -11   0 12474.6 1273.14   4
   2  11   1 396.306 324.571   6
  -2 -11  -1 87.4318 130.179   4
   2  11   2 15401.3 1675.21   6
  -2 -11  -2 16250.4 1484.50   4
  -2 -11  -3 3225.31 675.127   4
   2  11   3 1910.90 578.665   6
  -2 -11  -4 6930.65 996.840   4
   2  11   4 6524.15 1089.58   6
   2  11   5 154.367 202.211   6
  -2 -11  -5 278.046 152.573   4
   2  11   6 7314.63 1194.80   6
   2  11   7 598.628 323.548   6
   3 -11   1 16110.2 1541.11   4
   3 -11   2 1762.30 495.129   4
  -3  10   5 22366.0 2281.17   6
   3 -10  -4 182.604 209.066   4
  -3  10   4 98.9981 181.486   6
   3 -10  -3 2758.65 658.806   4
  -3  10   3 2327.67 686.943   6
   3 -10  -2 520.948 305.843   4
  -3  10   2 335.331 333.923   6
   3 -10  -1 16314.4 1529.88   4
  -3  10   1 16047.2 1754.05   6
  -3  10   0-234.883 286.053   6
   3 -10   0-132.450 183.170   4
   3 -10   1 10369.8 1139.67   3
   3 -10   1 12774.3 1305.87   4
  -3  10  -1 12910.9 1527.76   6
   3 -10   2 487.816 276.308   3
   3 -10   2 1000.42 365.932   4
  -3  10  -2 606.050 328.652   6
   3 -10   3 2720.09 609.924   3
   3 -10   3 2445.38 549.696   4
   3 -10   4 521.908 278.627   3
   3 -10   5 12.1349 113.369   3
   3  -9  -7 16461.5 1581.73   4
  -3   9   7 10277.2 1523.56   6
   3  -9  -6 1771.08 527.319   4
  -3   9   6 2484.10 741.757   6
  -3   9   5 16698.6 1861.74   6
   3  -9  -5 14631.3 1478.73   4
   3  -9  -4 3749.27 728.166   4
  -3   9   4 2977.37 752.952   6
   3  -9  -3 35915.1 1580.11   2
   3  -9  -3 40721.0 2421.53   4
  -3   9   3 39428.4 2717.55   6
   3  -9  -2 5216.68 838.977   4
   3  -9  -2 4317.91 510.335   2
  -3   9   2 4316.86 853.301   6
  -3   9   1 19410.8 1797.44   6
   3  -9  -1 17703.6 1040.33   2
   3  -9  -1 19463.7 1599.14   4
   3  -9   0 1082.45 253.844   2
   3  -9   0 548.121 258.959   4
  -3   9   0 810.002 351.617   6
   3  -9   1 11959.6 1132.61   3
  -3   9  -1 12409.9 1403.47   6
   3  -9   1 12849.4 1247.70   4
   3  -9   1 11340.7 847.785   2
   3  -9   2 2514.40 528.500   3
   3  -9   2 3674.44 643.115   4
  -3   9  -2 2192.71 583.652   6
   3  -9   3 3968.34 684.365   3
   3  -9   3 3630.18 626.341   4
   3  -9   4 35.3752 162.968   3
   3  -9   4 56.1901 69.8533   4
   3  -9   5 16420.2 1524.82   3
   3  -9   6 321.252 283.417   3
   3  -9   7 5193.71 894.354   3
  -3   8  11 2901.92 673.145   1
  -3   8  10 1032.58 360.355   1
   3  -8  -9 29738.6 2101.89   4
  -3   8   9 23565.7 1793.18   1
  -3   8   9 24779.5 2263.43   6
  -3   8   8 437.564 283.032   1
   3  -8  -8 682.479 359.366   4
  -3   8   8 385.373 303.380   6
   3  -8  -7 16633.3 1534.25   4
  -3   8   7 14707.7 1301.56   1
   3  -8  -6 5798.59 887.379   4
  -3   8   6 6025.15 809.837   1
  -3   8   6 4428.70 921.633   6
   3  -8  -5 31403.0 2066.14   4
  -3   8   5 29305.3 1747.16   1
  -3   8   5 27800.8 2258.57   6
   3  -8  -4 429.956 181.542   2
  -3   8   4 678.458 263.546   1
   3  -8  -4 305.790 186.934   4
  -3   8   4 228.832 139.787   6
   3  -8  -3 34163.8 1528.31   2
   3  -8  -3 34373.2 2124.37   4
  -3   8   3 30738.6 2238.69   6
  -3   8   3 31814.3 1814.68   2
   3  -8  -2 15556.8 1375.72   4
  -3   8   2 15615.2 974.596   1
  -3   8   2 15106.6 1180.81   8
   3  -8  -2 12834.5 847.709   3
   3  -8  -2 15475.3 989.460   2
  -3   8   2 14772.9 1482.02   6
   3  -8  -1 3763.68 471.593   2
  -3   8   1 4524.09 457.907   1
   3  -8  -1 4037.94 693.381   4
  -3   8   1 4392.84 785.515   6
   3  -8   0-55.0601 117.613   2
  -3   8   0 256.695 233.633   6
   3  -8   0 231.324 218.015   4
   3  -8   1 39882.8 2130.88   4
   3  -8   1 40485.7 1981.64   3
   3  -8   1 41425.6 1701.65   2
  -3   8  -1 40340.5 2389.21   6
   3  -8   2 109.007 70.4405   2
   3  -8   2-160.867 147.208   3
   3  -8   2 40.1055 90.4460   4
  -3   8  -2-47.3322 215.724   6
   3  -8   3 52260.6 2421.58   3
   3  -8   3 52427.4 2352.09   4
  -3   8  -3 54145.3 2802.24   6
   3  -8   3 53188.4 2090.88   2
   3  -8   4 1535.56 367.467   4
   3  -8   4 2342.78 516.721   3
   3  -8   4 2090.45 426.492   2
   3  -8   5 7657.08 962.721   3
   3  -8   5 8260.53 870.817   2
   3  -8   5 9631.79 911.622   4
   3  -8   6 366.899 207.679   2
   3  -8   6 234.974 254.859   3
   3  -8   7 38656.7 2375.10   3
   3  -8   7 41361.7 2228.56   2
   3  -8   8 707.873 309.756   3
   3  -7 -11 1233.98 427.924   4
   3  -7 -10 5711.35 883.277   4
  -3   7  10 4444.64 892.901   6
   3  -7  -9 23408.3 1790.27   4
  -3   7   9 21704.2 1952.73   6
   3  -7  -8 9380.41 1110.60   4
  -3   7   8 6751.44 896.420   1
  -3   7   8 7878.83 1157.57   6
  -3   7   7 7051.72 881.363   1
   3  -7  -7 7871.88 1001.09   4
  -3   7   7 6375.02 1028.05   6
  -3   7   6 3035.94 557.780   1
   3  -7  -6 3443.61 660.663   4
  -3   7   6 2911.65 685.335   6
   3  -7  -5 16835.5 984.182   3
  -3   7   5 17569.0 1648.95   6
  -3   7   5 17008.8 1034.55   8
  -3   7   5 17008.4 1277.16   1
   3  -7  -5 16865.6 1441.57   4
  -3   7   4 32619.7 1528.76   8
   3  -7  -4 33472.8 2013.53   4
  -3   7   4 32411.4 2192.61   6
   3  -7  -4 31722.4 1515.07   2
  -3   7   4 30567.1 1653.21   1
   3  -7  -4 27834.1 1220.50   3
  -3   7   4 32046.4 1864.74   2
  -3   7   3 3429.90 502.233   8
   3  -7  -3 2825.31 430.976   2
   3  -7  -3 3535.94 279.375   7
   3  -7  -3 3749.30 660.695   4
   3  -7  -3 3418.93 395.694   3
  -3   7   3 3807.97 602.228   2
  -3   7   3 2538.76 571.046   6
   3  -7  -2-52.8927 68.1411   2
  -3   7   2 153.403 203.761   8
  -3   7   2 141.931 131.506   2
   3  -7  -2 127.584 174.353   4
   3  -7  -2 12.4882 55.5954   7
   3  -7  -2 10.3163 55.0042   3
  -3   7   2 338.666 211.469   6
  -3   7   1 33360.7 1411.26   1
   3  -7  -1 33302.5 1915.51   4
  -3   7   1 31947.6 1702.30   8
   3  -7  -1 33246.2 1485.53   2
   3  -7  -1 32536.0 1295.18   7
  -3   7   1 33129.0 2019.25   6
   3  -7   0-266.741 135.620   2
  -3   7   0 171.553 162.167   8
  -3   7   0 27.7756 78.4498   1
   3  -7   0 60.2653 129.517   4
   3  -7   0 65.0562 73.7296   7
  -3   7   0 22.5576 95.9409   6
   3  -7   1 61277.9 2291.51   3
   3  -7   1 62053.6 2576.05   4
  -3   7  -1 62624.4 2602.48   8
   3  -7   1 60454.3 2093.45   2
   3  -7   1 59331.7 2153.36   7
  -3   7  -1 58714.1 2692.15   6
   3  -7   2 4611.55 622.926   3
  -3   7  -2 6692.05 852.071   8
   3  -7   2 5625.95 727.652   4
   3  -7   2 5285.07 596.150   2
   3  -7   2 5615.90 658.624   7
  -3   7  -2 6554.18 866.763   6
   3  -7   3 26684.9 1562.64   3
   3  -7   3 24361.5 1486.78   4
   3  -7   3 28031.5 1137.45   1
  -3   7  -3 28213.7 1845.73   6
  -3   7  -3 24873.9 1696.65   8
   3  -7   3 26249.7 1420.45   2
   3  -7   4 5727.73 736.678   3
   3  -7   4 5553.53 678.059   4
   3  -7   4 6378.90 723.307   2
   3  -7   5 17049.8 1352.13   3
   3  -7   5 16955.8 1141.60   4
   3  -7   5 18562.9 1309.60   2
   3  -7   6 369.295 165.396   3
   3  -7   6 221.173 143.556   2
   3  -7   6 34.0496 63.9503   4
  -3   7  -7 33967.8 2350.15   5
   3  -7   7 35334.4 2119.87   3
   3  -7   7 37458.2 2116.72   2
  -3   7  -8-73.6106 248.782   5
   3  -7   8 258.559 163.845   3
   3  -7   8 348.763 217.172   2
   3  -7   9 12887.5 1357.27   3
   3  -6 -12 9924.93 1130.26   4
   3  -6 -11 553.599 245.992   4
  -3   6  10 918.499 369.153   6
   3  -6 -10 620.540 297.929   4
   3  -6  -9 4678.81 752.572   4
  -3   6   9 5461.37 894.137   6
   3  -6  -8 865.301 327.222   4
  -3   6   8 1361.31 449.178   6
   3  -6  -7 12648.9 1209.52   4
  -3   6   7 12380.5 693.927   8
  -3   6   7 11281.2 1293.03   6
   3  -6  -7 10349.2 868.618   3
  -3   6   6 2080.00 447.827   1
   3  -6  -6 2025.76 348.659   3
   3  -6  -6 1932.94 149.817   7
   3  -6  -6 2033.66 473.157   4
  -3   6   6 1362.50 429.358   6
   3  -6  -5 535.614 184.498   3
  -3   6   5 467.900 360.001   2
   3  -6  -5 1047.86 490.904   4
  -3   6   5 771.459 411.244   6
   3  -6  -4 81262.1 1635.60   7
   3  -6  -4 78776.2 2482.90   2
  -3   6   4 78348.6 2365.61   8
   3  -6  -4 77410.7 1631.14   7
  -3   6   4 77125.6 2693.64   1
   3  -6  -4 76699.0 3026.20   4
  -3   6   4 73781.7 2852.59   2
  -3   6   4 75459.0 3190.77   6
   3  -6  -4 73591.8 2055.34   3
   3  -6  -3 84963.3 1859.81   7
  -3   6   3 83878.4 2541.61   8
   3  -6  -3 82423.2 3078.69   4
  -3   6   3 81311.9 2903.82   2
   3  -6  -3 83634.9 2502.99   2
  -3   6   3 80387.1 2661.88   1
   3  -6  -3 75175.7 2004.04   3
  -3   6   3 76990.9 3177.82   6
   3  -6  -3 83338.1 3098.42   5
   3  -6  -2 16112.4 773.506   7
   3  -6  -2 13520.8 734.399   3
  -3   6   2 16080.6 1068.71   8
   3  -6  -2 15774.9 1260.34   4
   3  -6  -2 15477.5 967.211   2
  -3   6   2 15156.0 1261.31   6
  -3   6   2 15936.5 1156.15   2
   3  -6  -2 15155.3 1277.00   5
  -3   6   1 24512.0 1212.72   1
  -3   6   1 23849.8 1562.22   6
   3  -6  -1 23070.0 1179.97   2
  -3   6   1 22340.5 1318.90   8
   3  -6  -1 22283.7 1478.92   4
   3  -6  -1 23116.7 1277.55   6
   3  -6  -1 22400.4 1013.92   7
  -3   6   1 19653.6 1259.97   2
   3  -6   0 273.133 149.215   2
  -3   6   0 657.573 250.761   8
   3  -6   0 406.664 223.257   4
   3  -6   0 682.098 188.567   7
  -3   6   0 247.764 93.8910   1
  -3   6   0 450.460 210.608   6
   3  -6   0 614.325 217.896   6
   3  -6   1 10435.1 803.750   3
  -3   6  -1 9962.91 936.929   8
   3  -6   1 10021.0 937.951   4
   3  -6   1 9273.16 753.466   7
   3  -6   1 9651.35 773.908   2
  -3   6  -1 11086.7 728.634   1
  -3   6  -1 8716.37 924.263   6
   3  -6   1 10167.5 877.032   6
   3  -6   2 7693.53 721.612   3
   3  -6   2 7199.42 778.309   6
   3  -6   2 8193.37 827.462   4
  -3   6  -2 9342.56 935.131   8
   3  -6   2 6896.01 561.078   1
   3  -6   2 7587.06 730.652   7
  -3   6  -2 7939.52 896.208   6
   3  -6   2 7368.27 689.729   2
   3  -6   3 9942.90 857.863   3
  -3   6  -3 8166.98 908.173   8
   3  -6   3 9210.57 854.087   4
   3  -6   3 9398.21 863.833   7
  -3   6  -3 10442.8 1022.83   6
   3  -6   3 10051.0 701.301   1
   3  -6   3 9706.01 827.199   2
   3  -6   4 2234.66 428.831   3
   3  -6   4 2830.08 472.943   2
  -3   6  -4 3052.11 569.509   8
   3  -6   4 3509.45 501.486   4
   3  -6   4 3289.76 429.997   1
  -3   6  -5 197.819 214.048   5
   3  -6   5 407.665 220.605   3
   3  -6   5-99.0602 154.561   2
  -3   6  -5 180.267 183.872   8
   3  -6   5 175.114 126.056   4
   3  -6   5 287.851 132.292   1
  -3   6  -6 233.404 242.364   5
   3  -6   6-65.1519 79.4168   1
   3  -6   6-13.1115 145.536   3
   3  -6   6-3.78011 85.0175   4
   3  -6   6-33.4787 108.989   2
   3  -6   7 18917.6 986.981   4
  -3   6  -7 17938.0 1642.01   5
   3  -6   7 17376.4 1394.96   3
  -3   6  -8 339.713 256.118   5
   3  -6   8 195.351 122.562   3
   3  -6   9 153267. 4889.92   3
  -3   6  -9 162362. 5683.15   5
  -3   6 -10 1516.59 556.027   5
   3  -6  10 455.263 279.195   3
  -3   5  12 1631.70 406.103   3
   3  -5 -12 2838.81 571.620   4
   3  -5 -11 6860.25 893.308   4
  -3   5  11 5783.70 727.139   3
  -3   5  10 264.563 187.330   3
   3  -5 -10 333.392 252.837   4
   3  -5  -9 9658.00 1052.14   4
  -3   5   9 10432.4 894.387   3
  -3   5   8-349.767 169.810   3
   3  -5  -8 72.0939 144.000   3
   3  -5  -8-34.8441 65.0919   7
   3  -5  -8-429.663 224.398   4
  -3   5   8-21.8607 39.0603   8
  -3   5   7 16702.7 781.718   8
   3  -5  -7 17202.0 1351.92   4
   3  -5  -7 16252.2 796.475   7
  -3   5   7 13899.3 1298.96   6
   3  -5  -7 14160.8 1002.96   3
   3  -5  -6 41580.1 2099.58   4
   3  -5  -6 44932.5 1321.41   7
  -3   5   6 36174.5 2118.39   6
   3  -5  -6 39582.4 1594.44   3
   3  -5  -5 68879.1 2368.29   2
   3  -5  -5 70352.0 2742.25   4
  -3   5   5 61781.5 2439.85   1
   3  -5  -5 69623.7 1688.72   7
  -3   5   5 69900.6 2695.62   2
   3  -5  -5 63289.0 1931.66   3
   3  -5  -4 620.995 225.761   2
  -3   5   4 330.948 179.586   1
   3  -5  -4 853.039 176.984   3
  -3   5   4 487.116 210.563   2
   3  -5  -4 322.255 115.154   7
   3  -5  -4 936.734 290.293   4
  -3   5   4 871.980 329.082   6
  -3   5   3 28092.6 1448.36   1
   3  -5  -3 29448.3 1377.07   2
  -3   5   3 28671.9 1580.52   2
   3  -5  -3 29257.5 1018.15   3
  -3   5   3 30414.9 1742.95   6
   3  -5  -3 30956.2 1659.22   5
  -3   5   2 4026.53 590.816   6
  -3   5   2 4138.61 496.076   8
   3  -5  -2 3946.60 473.053   2
   3  -5  -2 3930.03 328.335   3
  -3   5   2 4416.52 587.306   2
   3  -5  -2 4177.26 608.330   5
   3  -5  -1 2680.04 487.773   5
   3  -5  -1 2565.78 264.007   3
  -3   5   1 2583.99 420.421   2
  -3   5   1 3177.80 461.009   8
   3  -5  -1 2687.45 327.406   7
   3  -5  -1 2661.93 384.845   2
  -3   5   1 2935.97 481.739   6
  -3   5   0 4057.26 524.125   2
   3  -5   0 3373.74 445.087   6
   3  -5   0 3849.85 600.441   5
  -3   5   0 3821.54 451.159   1
   3  -5   0 3699.17 418.093   7
  -3   5   0 2999.59 460.062   8
  -3   5   0 3428.61 519.245   6
   3  -5   0 3064.84 411.064   2
   3  -5   1 1591.49 388.146   5
  -3   5  -1 1465.94 270.029   1
   3  -5   1 1621.72 305.041   2
   3  -5   1 1543.74 278.399   3
  -3   5  -1 1209.79 299.933   6
   3  -5   1 1220.07 260.879   7
  -3   5  -1 1081.12 268.962   8
   3  -5   1 1771.56 330.733   6
  -3   5  -2 1723.42 464.423   8
   3  -5   2 15.1486 367.528   5
  -3   5  -2 865.090 245.245   1
   3  -5   2 2018.42 379.701   2
   3  -5   2 1106.67 312.039   3
   3  -5   2 28.0957 241.647   1
   3  -5   2 479.512 351.080   6
   3  -5   2 1321.03 332.210   7
  -3   5  -2 236.287 354.630   6
   3  -5   3 69928.0 2283.65   3
   3  -5   3 71053.7 2497.70   6
  -3   5  -3 68138.6 2602.21   8
   3  -5   3 71899.7 2384.64   4
   3  -5   3 72988.8 2430.20   7
  -3   5  -3 69528.5 2578.52   6
   3  -5   3 69608.0 2101.18   1
   3  -5   3 72513.2 2373.33   2
  -3   5  -3 69350.0 2715.22   5
  -3   5  -4-87.5663 148.940   5
   3  -5   4 29.4384 118.611   3
   3  -5   4 45.9399 119.119   2
   3  -5   4 73.7760 108.147   4
   3  -5   4 250.093 152.589   7
  -3   5  -4-98.5751 116.408   8
   3  -5   4 170.413 125.217   6
   3  -5   4 18.7046 79.2660   1
  -3   5  -5 3256.65 613.880   5
   3  -5   5 3032.19 425.976   4
   3  -5   5 2115.16 401.513   3
   3  -5   5 3263.38 526.564   2
  -3   5  -5 3709.86 617.304   8
  -3   5  -6-71.0289 188.821   5
   3  -5   6 102.288 87.7958   3
  -3   5  -6 228.403 200.992   8
   3  -5   6 85.3276 83.5350   4
   3  -5   6 11.5438 59.2183   1
  -3   5  -7 11096.7 1140.09   8
   3  -5   7 10328.5 929.066   1
   3  -5   7 11671.0 710.176   4
   3  -5   7 10953.9 1032.58   3
  -3   5  -7 9023.23 1114.66   5
  -3   5  -8-31.1956 126.824   5
   3  -5   8-115.913 145.763   3
  -3   5  -9 176.604 266.091   5
   3  -5   9 285.356 174.757   3
  -3   5 -10 68.7859 211.140   5
   3  -5  10 68.9691 113.937   3
   3  -5  11 23310.0 1808.96   3
  -3   5 -11 22792.2 2143.05   5
  -3   4  13 26283.6 1698.34   3
  -3   4  12 849.968 309.976   3
   3  -4 -12 913.977 311.016   4
  -3   4  11 3751.57 580.412   3
   3  -4 -11 4199.83 654.693   4
  -3   4  10 1439.91 356.442   3
   3  -4 -10 1222.82 291.032   7
   3  -4 -10 1141.53 357.920   4
   3  -4  -9 38209.6 2024.66   4
   3  -4  -9 39019.9 1644.31   7
  -3   4   9 41391.3 1775.10   3
  -3   4   8 22.3914 132.242   3
   3  -4  -8 259.147 157.427   3
   3  -4  -8 155.046 95.2727   7
   3  -4  -8-124.997 153.422   4
   3  -4  -7 91360.2 2414.83   7
  -3   4   7 86498.7 2520.70   3
   3  -4  -7 85556.7 2678.76   3
   3  -4  -6 518.777 191.736   3
   3  -4  -6 252.842 116.896   7
   3  -4  -5 299.628 136.664   2
  -3   4   5 391.412 218.963   2
   3  -4  -5 472.083 157.999   3
  -3   4   5 475.282 249.784   6
  -3   4   4 5464.60 683.242   6
  -3   4   4 6497.90 692.181   1
   3  -4  -4 6158.25 480.745   7
  -3   4   4 7352.76 765.870   2
   3  -4  -4 6254.40 630.192   2
   3  -4  -4 6308.75 471.502   3
  -3   4   3 31390.2 1625.14   6
   3  -4  -3 30409.4 1385.77   2
   3  -4  -3 29249.5 1072.12   7
  -3   4   3 29787.1 1543.92   2
   3  -4  -3 30575.8 962.907   3
   3  -4  -2 10568.4 775.704   2
   3  -4  -2 10721.8 473.991   3
  -3   4   2 9246.83 812.121   2
  -3   4   2 10804.6 877.283   6
   3  -4  -1 97391.1 2617.20   2
   3  -4  -1 94793.5 1817.71   3
  -3   4   1 99529.6 2841.25   6
  -3   4   0 6387.65 579.628   1
   3  -4   0 6370.79 551.401   1
   3  -4   0 6679.35 599.944   2
  -3   4   0 7801.42 694.650   6
   3  -4   0 6846.77 570.721   6
   3  -4   0 7515.54 760.510   5
   3  -4   1 97430.3 2223.23   3
   3  -4   1 96984.7 2525.14   7
  -3   4  -1 97655.7 2507.48   1
   3  -4   1 97286.9 3007.75   5
   3  -4   1 91614.7 2430.28   1
  -3   4  -1 96836.6 2781.66   6
   3  -4   1 95571.2 2608.96   2
   3  -4   1 94072.7 2522.77   6
   3  -4   2 17962.1 1216.37   5
  -3   4  -2 19203.2 1143.44   6
   3  -4   2 18819.8 922.043   3
  -3   4  -2 20020.7 1209.75   8
  -3   4  -2 19050.0 991.666   1
   3  -4   2 19157.4 988.817   1
   3  -4   2 18946.9 1076.56   2
   3  -4   2 18020.3 1034.92   6
  -3   4  -2 18737.1 1206.06   5
   3  -4   2 20037.4 1077.89   7
   3  -4   3 103729. 2666.53   3
   3  -4   3 110209. 3297.16   5
  -3   4  -3 102476. 3107.61   8
  -3   4  -3 103299. 2982.18   6
   3  -4   3 105965. 2914.00   7
   3  -4   3 103891. 2893.17   6
   3  -4   3 105684. 2925.66   2
   3  -4   3 103942. 2683.66   1
  -3   4  -3 105239. 3279.42   5
   3  -4   4 367.281 174.333   2
  -3   4  -4 105.070 99.0255   5
   3  -4   4 419.283 183.951   7
   3  -4   4 393.395 158.140   1
   3  -4   4 291.691 105.025   3
  -3   4  -4 387.976 195.826   8
   3  -4   4 154.563 146.112   5
   3  -4   4 171.695 118.461   6
   3  -4   5 6554.31 732.068   7
   3  -4   5 6613.35 654.655   1
  -3   4  -5 7241.88 804.854   8
   3  -4   5 7433.66 778.606   6
   3  -4   5 7442.22 714.100   3
  -3   4  -5 7847.23 907.632   5
  -3   4  -6 173.069 167.203   5
   3  -4   6 64.9094 94.7859   6
   3  -4   6 93.8846 129.337   3
  -3   4  -6 233.453 180.085   8
   3  -4   6 158.528 128.579   4
   3  -4   6 278.635 144.853   1
  -3   4  -7 20839.6 1480.19   8
   3  -4   7 22464.7 947.145   4
   3  -4   7 21652.4 1346.62   1
   3  -4   7 23873.7 1448.86   3
  -3   4  -7 20016.6 1638.53   5
  -3   4  -8 281.826 263.365   5
   3  -4   8 274.616 164.671   3
   3  -4   8 48.7252 35.0394   4
  -3   4  -8-50.3985 137.561   8
   3  -4   8 207.060 65.8880   4
  -3   4  -9 38359.6 2502.63   5
   3  -4   9 43014.5 2198.66   3
  -3   4 -10 115.365 211.994   5
   3  -4  10 423.354 268.885   3
   3  -4  11 12577.0 1262.74   3
  -3   4 -11 14281.0 1648.81   5
  -3   4 -12 264.731 253.146   5
   3  -4  12-256.602 237.018   3
  -3   3  13 3329.51 591.717   3
  -3   3  12 595.121 209.890   3
  -3   3  11 21511.4 1379.40   3
   3  -3 -11 24898.7 1541.05   4
   3  -3 -11 22826.1 1459.64   7
  -3   3  10 2006.56 381.412   3
   3  -3 -10 1600.42 364.108   7
   3  -3 -10 2434.63 472.820   4
   3  -3  -9 16552.0 1234.41   4
   3  -3  -9 15708.4 1109.99   7
  -3   3   9 16000.6 1045.03   3
   3  -3  -8 5488.40 681.634   3
   3  -3  -8 5541.45 696.294   4
   3  -3  -8 5603.71 621.783   7
  -3   3   8 4873.49 535.431   3
   3  -3  -7 8480.97 790.789   3
  -3   3   7 9792.39 711.543   3
   3  -3  -7 10074.7 784.791   7
   3  -3  -6 16935.0 1003.71   3
  -3   3   6 15255.3 859.001   3
   3  -3  -6 16634.6 960.837   7
   3  -3  -5 77179.9 2177.61   7
   3  -3  -5 82425.0 2617.62   2
  -3   3   5 76968.2 2667.84   2
  -3   3   5 78551.8 2063.77   3
   3  -3  -5 74885.7 2090.67   3
  -3   3   4 8392.20 773.537   1
   3  -3  -4 8704.11 734.724   2
   3  -3  -4 8045.48 598.390   7
  -3   3   4 7404.42 506.077   3
  -3   3   4 8902.46 804.789   2
   3  -3  -4 8095.61 531.428   3
   3  -3  -3 135470. 3310.16   2
   3  -3  -3 132725. 2502.84   3
   3  -3  -3 138272. 2933.15   7
  -3   3   3 131978. 3493.60   2
  -3   3   3 135317. 3439.77   6
   3  -3  -3 143165. 3300.19   5
   3  -3  -2 2015.62 332.099   5
   3  -3  -2 2431.51 363.827   2
   3  -3  -2 2212.30 172.452   3
  -3   3   2 2347.04 367.909   6
   3  -3  -1 111538. 2797.51   2
  -3   3   1 115942. 2816.22   6
   3  -3  -1 111053. 1751.34   3
   3  -3   0 60738.5 2087.04   5
  -3   3   0 65680.0 2010.32   1
   3  -3   0 65919.8 1291.26   3
  -3   3   0 62374.2 1899.36   6
   3  -3   0 63922.0 1919.94   1
   3  -3   0 63741.3 1981.57   2
   3  -3   0 58708.3 1678.07   6
  -3   3  -1 60574.0 1879.90   1
  -3   3  -1 60485.8 1879.84   6
   3  -3   1 61135.9 1428.45   3
   3  -3   1 61994.4 1871.66   1
   3  -3   1 56901.1 1686.47   6
   3  -3   1 60978.0 1937.37   2
  -3   3  -1 61279.4 2053.61   5
  -3   3  -2 5027.17 498.905   1
   3  -3   2 4521.88 476.220   1
  -3   3  -2 5230.24 517.228   6
   3  -3   2 4443.20 470.247   6
   3  -3   2 4933.76 528.941   2
  -3   3  -2 4094.67 522.046   5
   3  -3   2 3906.89 352.565   3
   3  -3   3 52677.4 1851.44   7
   3  -3   3 54127.4 1802.83   1
   3  -3   3 51981.3 1766.22   6
   3  -3   3 51740.0 1887.59   2
   3  -3   3 55240.6 1660.13   3
  -3   3  -3 54056.5 2137.96   5
  -3   3  -4 366.358 215.507   5
   3  -3   4-28.4931 78.6052   1
   3  -3   4-49.5411 103.682   3
   3  -3   4 42.8022 71.0825   2
   3  -3   4 38.3538 63.9749   7
   3  -3   4 288.961 139.899   6
  -3   3  -5 129775. 3940.79   5
   3  -3   5 145978. 3862.40   5
   3  -3   5 132415. 3410.97   1
  -3   3  -5 138168. 3733.20   8
   3  -3   5 138425. 3651.37   7
   3  -3   5 139169. 3578.96   6
   3  -3   5 137895. 3375.52   3
  -3   3  -6 147.587 122.737   5
   3  -3   6 306.785 186.642   5
   3  -3   6 157.327 140.356   3
   3  -3   6-18.2837 75.3390   1
  -3   3  -6 50.1670 136.924   8
   3  -3   6 25.6310 62.4091   7
   3  -3   6 201.992 147.771   6
  -3   3  -7 16645.0 1397.00   5
  -3   3  -7 14989.7 1225.46   3
   3  -3   7 14061.6 683.800   4
   3  -3   7 15616.1 1121.93   1
   3  -3   7 15539.5 1184.34   6
  -3   3  -7 13982.1 1135.58   8
   3  -3   7 14508.2 1073.64   3
  -3   3  -8 53.3606 123.241   5
   3  -3   8-47.1184 91.7360   3
   3  -3   8 33.4035 28.0914   4
  -3   3  -8 37.8430 93.9744   8
   3  -3   8-11.6578 44.9637   4
  -3   3  -9 27409.7 1693.79   8
  -3   3  -9 23312.7 1854.36   5
   3  -3   9 25113.9 1585.16   3
  -3   3 -10 263.081 197.753   5
   3  -3  10 16.9024 115.055   3
  -3   3 -11 11026.3 1415.73   5
   3  -3  11 9229.70 1054.66   3
  -3   3 -12 852.195 392.831   5
   3  -3  12 471.091 272.068   3
  -3   3 -13 7365.07 1277.70   5
  -3   2  13 11286.2 1114.81   3
  -3   2  12 1702.35 418.786   3
   3  -2 -12 1760.77 439.423   7
  -3   2  11 2208.54 449.431   3
   3  -2 -11 2537.70 456.074   4
   3  -2 -11 2918.79 547.074   7
  -3   2  10 3008.08 487.652   3
   3  -2 -10 2330.10 446.175   5
   3  -2 -10 2867.27 520.711   7
   3  -2 -10 2764.59 481.918   4
  -3   2   9 856.302 257.183   3
   3  -2  -9 887.693 278.615   7
   3  -2  -9 750.883 250.459   4
   3  -2  -8 14977.0 1194.77   3
   3  -2  -8 16344.4 1148.87   7
  -3   2   8 16832.6 1021.55   3
   3  -2  -7 119001. 3388.23   3
   3  -2  -7 121712. 3331.98   7
  -3   2   7 121189. 2960.22   3
  -3   2   6 45480.2 1508.96   3
   3  -2  -6 43200.6 1734.00   7
   3  -2  -6 43001.9 1711.75   3
   3  -2  -5 19803.3 1010.05   3
  -3   2   5 19114.5 1213.00   2
   3  -2  -5 18345.4 1044.02   7
  -3   2   5 20959.6 899.801   3
   3  -2  -4 8309.09 559.937   3
   3  -2  -4 9665.97 770.227   2
   3  -2  -4 8109.85 644.673   7
  -3   2   4 8887.94 778.859   2
  -3   2   4 8627.85 500.498   3
   3  -2  -3 3286.39 290.557   3
   3  -2  -3 3761.05 460.350   2
   3  -2  -3 3582.35 382.792   5
  -3   2   3 3455.28 269.795   3
   3  -2  -2 24509.8 1051.79   5
   3  -2  -2 25426.1 1183.32   2
   3  -2  -1 268504. 4947.69   5
   3  -2  -1 272914. 5118.43   2
  -3   2   1 266159. 5183.17   1
  -3   2   1 271295. 4833.71   6
   3  -2   0 25429.3 1133.75   5
  -3   2   0 28743.3 1042.69   6
   3  -2   0 27916.6 1198.80   1
   3  -2   0 29096.7 1234.37   2
  -3   2   0 28247.9 1236.13   1
  -3   2   0 28054.7 1132.50   5
   3  -2   1 23878.5 1121.32   5
  -3   2  -1 24257.9 1115.57   1
   3  -2   1 23336.7 1079.54   1
  -3   2  -1 22237.1 917.572   6
   3  -2   1 23707.8 1111.40   2
   3  -2   1 23420.0 853.514   6
   3  -2   1 23999.4 625.639   3
  -3   2  -1 23713.2 1129.08   5
   3  -2   2 2150.57 268.159   6
  -3   2  -2 1984.93 314.991   1
  -3   2  -2 2197.07 350.021   5
   3  -2   2 1562.64 283.959   5
   3  -2   2 2143.61 333.214   2
  -3   2  -2 1894.07 264.915   6
   3  -2   2 1806.92 212.830   3
   3  -2   2 2007.17 308.933   1
  -3   2  -3 154029. 3730.84   5
  -3   2  -3 143252. 3013.24   3
   3  -2   3 149189. 3402.79   1
   3  -2   3 149001. 3119.80   6
  -3   2  -3 149402. 3347.12   1
   3  -2   3 155133. 3010.02   3
   3  -2   3 151514. 3524.99   2
  -3   2  -4 2723.57 352.948   3
  -3   2  -4 3031.37 453.861   5
   3  -2   4 3423.41 432.279   1
   3  -2   4 2939.44 374.045   6
   3  -2   4 2874.91 353.195   3
  -3   2  -5 89796.4 2974.12   5
   3  -2   5 91504.4 2649.19   1
   3  -2   5 93049.9 2619.32   6
   3  -2   5 94237.2 2525.37   3
  -3   2  -6 1715.73 418.957   5
  -3   2  -6 1661.64 344.680   8
   3  -2   6 1696.81 375.714   5
   3  -2   6 1859.50 251.554   4
   3  -2   6 2521.10 394.281   3
  -3   2  -6 1621.19 347.356   3
   3  -2   6 2282.02 419.894   7
   3  -2   6 1981.39 367.777   1
   3  -2   6 1922.87 362.422   6
  -3   2  -7 68599.7 2855.51   5
  -3   2  -7 75188.9 2785.54   3
   3  -2   7 70031.0 2682.92   5
   3  -2   7 74893.8 1762.40   4
  -3   2  -7 75954.1 2617.42   8
   3  -2   7 76750.8 2631.95   6
   3  -2   7 79882.2 2650.37   1
   3  -2   7 76611.5 2524.09   3
  -3   2  -8 1066.01 376.102   5
   3  -2   8 1802.35 379.557   3
   3  -2   8 1131.96 146.789   4
  -3   2  -8 1611.15 368.991   8
  -3   2  -9 33880.3 2181.33   5
  -3   2  -9 35802.5 1834.07   8
   3  -2   9 34582.8 1814.24   3
  -3   2 -10 634.239 291.960   5
   3  -2  10 961.548 292.283   3
  -3   2 -11 33589.2 2433.26   5
   3  -2  11 34943.4 1996.54   3
  -3   2 -12 1210.18 465.513   5
   3  -2  12 2027.97 497.845   3
  -3   2 -13 1463.50 542.742   5
   3  -2  13 942.161 341.642   3
   3  -1 -13 5480.77 847.709   7
  -3   1  13 6241.07 859.791   3
  -3   1  12-103.360 184.629   3
   3  -1 -12 288.921 167.289   7
  -3   1  11 8960.64 929.125   3
   3  -1 -11 8457.43 994.387   7
   3  -1 -10 2655.80 537.446   7
   3  -1 -10 2614.46 441.777   4
   3  -1 -10 2076.47 370.818   5
  -3   1  10 3206.14 516.536   3
   3  -1  -9 18338.9 1049.73   5
   3  -1  -9 17021.3 1302.87   7
  -3   1   9 16765.7 1132.29   3
   3  -1  -8 24080.2 1545.09   3
  -3   1   8 25123.3 1453.77   7
  -3   1   8 24520.8 1284.95   3
   3  -1  -8 23717.0 1470.93   7
  -3   1   7 836.884 180.763   3
   3  -1  -7 825.960 284.095   3
   3  -1  -7 553.749 200.615   7
  -3   1   7 1448.49 336.792   7
   3  -1  -6 6146.16 659.585   3
  -3   1   6 6699.71 720.625   2
   3  -1  -6 7243.56 715.795   7
  -3   1   6 7943.08 623.311   3
   3  -1  -5 29955.5 1336.11   3
  -3   1   5 29860.6 1498.49   2
   3  -1  -5 29056.5 1415.66   7
  -3   1   5 30851.2 1174.60   3
   3  -1  -4 5896.62 581.842   7
   3  -1  -4 5190.77 566.123   2
  -3   1   4 6505.33 460.108   3
  -3   1   3 82062.9 1771.28   3
   3  -1  -3 83586.9 2392.84   2
   3  -1  -3 81313.2 2312.97   7
   3  -1  -3 83945.8 1798.84   5
   3  -1  -2 257.946 79.5731   5
  -3   1   2 257.264 69.1371   3
   3  -1  -2 332.118 145.858   7
   3  -1  -1 1565.96 210.022   5
   3  -1  -1 994.400 224.817   2
   3  -1   0 8716.92 544.411   5
   3  -1   0 8052.21 618.769   1
   3  -1   0 9027.46 643.666   2
  -3   1   0 8629.16 438.190   6
  -3   1   0 9302.64 566.236   5
  -3   1  -1 140136. 2505.56   6
   3  -1   1 145337. 3030.55   5
  -3   1  -1 140101. 3198.28   1
   3  -1   1 144336. 2226.77   3
   3  -1   1 140117. 3166.18   1
   3  -1   1 142241. 3165.21   2
  -3   1  -1 144659. 3068.23   5
  -3   1  -1 142516. 2276.33   3
   3  -1   2 48414.6 1628.58   1
  -3   1  -2 44689.1 1581.89   5
   3  -1   2 45113.1 1550.79   5
  -3   1  -2 48501.8 1197.51   3
   3  -1   2 48367.6 1130.53   3
  -3   1  -2 47305.8 1606.92   1
   3  -1   2 46272.8 1128.54   6
   3  -1   2 46830.5 1614.37   2
  -3   1  -3 72151.9 2196.85   5
   3  -1   3 69737.5 2110.18   5
   3  -1   3 72199.5 2112.55   1
   3  -1   3 69246.4 1672.12   6
  -3   1  -3 69645.0 2061.04   1
   3  -1   3 75740.8 1723.15   3
   3  -1   3 68721.5 2112.44   2
  -3   1  -3 71169.9 1803.15   3
  -3   1  -4 8521.37 739.228   5
   3  -1   4 9570.31 723.621   1
   3  -1   4 8908.34 584.844   6
   3  -1   4 8678.34 576.496   3
  -3   1  -4 8302.96 614.964   3
  -3   1  -5 159937. 4032.71   5
   3  -1   5 168111. 3516.65   3
   3  -1   5 169193. 3826.66   1
  -3   1  -6 1805.72 386.411   5
   3  -1   6 1963.67 329.306   3
   3  -1   6 2096.85 376.733   1
   3  -1   6 2143.62 265.050   4
  -3   1  -6 1925.66 368.879   3
  -3   1  -7 17364.7 1325.10   5
  -3   1  -7 15601.1 1187.66   3
   3  -1   7 15818.9 703.521   4
   3  -1   7 16999.3 1163.57   7
   3  -1   7 18549.3 1207.09   1
   3  -1   7 15305.0 1023.74   3
  -3   1  -7 16607.4 1076.27   8
  -3   1  -8 2852.20 559.832   5
   3  -1   8 2579.75 434.142   3
  -3   1  -8 2851.38 542.198   3
   3  -1   8 2479.70 239.469   4
  -3   1  -8 2931.17 463.629   8
  -3   1  -9 10309.7 1153.52   5
   3  -1   9 8659.22 842.473   3
   3  -1   9 9082.02 400.683   4
  -3   1  -9 8983.57 839.380   8
  -3   1 -10 445.665 237.771   5
   3  -1  10 945.718 313.023   3
  -3   1 -10 568.048 211.596   8
  -3   1 -11 32174.0 2354.49   5
   3  -1  11 34823.4 1937.79   3
  -3   1 -12 2666.60 714.028   5
   3  -1  12 2350.71 517.444   3
  -3   1 -13 25535.5 2338.45   5
   3  -1  13 29107.1 1930.86   3
  -3   1 -14 345.669 387.301   5
  -3   0  12 3446.12 625.791   3
   3   0 -12 2859.05 626.351   7
   3   0 -11 11132.4 1205.57   7
  -3   0  11 11179.3 1086.07   3
   3   0 -10 18001.0 1082.50   4
   3   0 -10 18267.8 1489.84   7
  -3   0  10 18391.3 1314.64   3
   3   0  -9 2688.18 362.850   5
   3   0  -9 2580.58 534.624   7
  -3   0   9 3614.45 563.336   3
   3   0  -8 5436.45 468.412   5
   3   0  -8 5960.92 772.103   7
  -3   0   8 7173.52 725.421   3
   3   0  -7 61862.9 1610.67   5
   3   0  -7 59287.3 2433.21   7
  -3   0   7 64882.3 2414.11   7
  -3   0   7 59017.8 2109.27   3
   3   0  -6 18648.0 705.248   5
   3   0  -6 22209.4 1352.52   7
  -3   0   6 20317.3 1261.52   2
  -3   0   6 20794.5 1251.15   7
  -3   0   6 20355.1 1090.41   3
   3   0  -5 52330.9 1102.50   5
  -3   0   5 52254.3 1948.13   7
   3   0  -5 48280.6 1969.31   7
  -3   0   5 46122.2 1892.96   2
  -3   0   5 47016.6 1628.33   3
   3   0  -4 19116.0 1100.06   2
   3   0  -4 17938.5 1092.98   7
  -3   0   4 18530.1 887.454   3
   3   0  -3 26858.9 1257.19   2
   3   0  -3 27024.8 1297.86   7
  -3   0   3 25537.2 972.826   3
   3   0  -2 390.139 156.667   7
  -3   0   2 564.554 122.206   3
   3   0  -1 93554.0 1749.55   5
   3   0  -1 93894.1 2384.87   2
  -3   0   1 92156.2 1718.75   5
  -3   0   0 111224. 2211.56   5
   3   0   0 110438. 2218.96   5
   3   0   0 114509. 2748.17   1
   3   0   0 116987. 2670.21   2
  -3   0  -1 297328. 4953.28   5
   3   0   1 286310. 4938.93   5
  -3   0  -1 292137. 4539.57   3
   3   0   1 293378. 5248.52   2
   3   0   1 295837. 5347.77   1
   3   0   2 19119.0 1013.72   1
  -3   0  -2 19468.9 911.443   5
   3   0   2 15863.6 875.670   4
  -3   0  -2 17778.0 727.260   3
   3   0   2 18816.1 1010.32   2
  -3   0  -3 76559.4 2135.59   5
   3   0   3 63639.1 1850.69   4
   3   0   3 67363.2 2030.17   1
   3   0   3 68774.8 1424.99   6
   3   0   3 69403.3 1643.25   3
  -3   0  -3 65247.2 1754.42   3
   3   0   3 73043.5 2082.98   2
  -3   0  -4 9395.57 754.092   5
   3   0   4 9938.22 631.803   4
   3   0   4 9334.32 713.253   1
   3   0   4 9850.29 591.709   3
  -3   0  -4 10074.3 687.717   3
  -3   0  -5 13696.2 991.415   5
   3   0   5 12492.5 703.089   4
   3   0   5 13786.3 912.434   1
   3   0   5 13077.1 765.653   3
  -3   0  -5 11993.7 855.062   3
  -3   0  -6 9263.80 885.644   5
   3   0   6 10376.8 605.146   4
   3   0   6 9385.62 706.955   3
   3   0   6 10297.3 831.166   1
  -3   0  -7 2813.09 496.545   3
   3   0   7 2529.57 283.970   4
   3   0   7 2754.20 430.868   7
   3   0   7 3779.33 482.935   3
   3   0   7 2384.81 423.421   1
  -3   0  -8-53.1474 150.509   5
   3   0   8 33.3247 97.5802   3
   3   0   8 3.32286 56.2603   1
  -3   0  -8 237.081 202.587   3
  -3   0  -8-48.9851 70.8379   8
   3   0   8 84.7776 59.0233   4
   3   0   8 27.5301 112.549   7
  -3   0  -9 42777.1 2450.45   5
  -3   0  -9 48257.2 1888.41   8
   3   0   9 47624.4 1279.51   4
   3   0   9 48742.9 2042.48   3
  -3   0 -10 3400.05 712.922   5
   3   0  10 4123.82 303.384   4
  -3   0 -10 3896.50 526.751   8
   3   0  10 4302.69 619.290   3
  -3   0 -11 44220.0 2787.79   5
   3   0  11 41204.7 2063.29   3
  -3   0 -12 1314.61 513.338   5
   3   0  12 446.037 229.365   3
  -3   0 -13 7598.92 1277.13   5
   3   0  13 9755.31 1077.58   3
  -3   0 -14-34.0978 218.383   5
  -3  -1  12 5135.01 804.513   3
   3   1 -12 4905.85 879.434   7
   3   1 -11 17785.0 1593.98   7
  -3  -1  11 16619.0 1390.47   3
  -3  -1  10 2548.86 516.997   3
   3   1 -10 2778.31 606.656   7
   3   1  -9 20210.5 1567.37   7
   3   1  -9 19193.5 969.860   5
  -3  -1   9 16950.3 1261.94   3
   3   1  -8 2830.93 578.361   7
  -3  -1   8 2647.65 458.963   3
   3   1  -8 2648.55 317.193   5
   3   1  -7 9248.79 962.180   7
  -3  -1   7 9615.37 840.747   3
   3   1  -7 10390.8 559.016   5
   3   1  -6 328.739 73.8552   5
  -3  -1   6 672.968 252.355   2
  -3  -1   6 296.756 175.491   3
   3   1  -6 410.034 178.519   7
  -3  -1   6 837.500 266.806   7
  -3  -1   5 42892.6 1790.63   2
  -3  -1   5 46817.9 1917.24   7
   3   1  -5 45253.7 2017.86   7
  -3  -1   5 43745.5 1677.61   3
  -3  -1   4 3987.08 447.214   3
  -3  -1   4 3448.77 452.084   2
   3   1  -4 3612.32 523.821   7
  -3  -1   4 3853.34 500.016   7
  -3  -1   3 133984. 2955.69   3
   3   1  -3 127376. 3200.97   4
   3   1  -3 136104. 3219.59   2
   3   1  -3 134339. 3461.63   7
  -3  -1   3 134282. 3170.71   2
   3   1  -2 61791.6 1875.93   2
   3   1  -2 61399.6 2065.19   7
  -3  -1   2 61866.3 1874.64   2
   3   1  -1 40146.9 1514.97   4
   3   1  -1 43838.4 1483.50   2
   3   1  -1 42439.4 1620.81   7
  -3  -1   1 39758.9 1432.75   2
  -3  -1   0 24571.5 763.031   5
   3   1   0 25823.3 1131.80   1
   3   1   0 25752.1 1061.83   2
  -3  -1   0 24096.4 1050.04   2
  -3  -1  -1 2101.74 242.655   5
  -3  -1  -1 2153.43 229.478   3
   3   1   1 2040.93 285.111   2
   3   1   1 2150.94 313.802   1
  -3  -1  -1 2035.23 287.282   2
   3   1   2 35343.3 1357.95   1
  -3  -1  -2 33967.0 1251.58   5
  -3  -1  -2 35885.3 1133.90   3
   3   1   2 37533.0 1329.54   2
   3   1   3 75096.1 2168.88   1
   3   1   3 75639.9 2059.38   4
   3   1   3 79102.1 1879.01   3
  -3  -1  -3 77839.1 1979.10   3
   3   1   3 74806.3 2107.69   2
   3   1   4 181.494 127.159   3
  -3  -1  -4 67.1525 85.5199   3
  -3  -1  -4 176.378 194.979   5
  -3  -1  -4 52.0990 82.4748   4
   3   1   4-6.26851 61.2504   4
   3   1   4 32.0066 52.0736   1
   3   1   5 184769. 3821.18   3
  -3  -1  -5 189730. 3994.46   4
   3   1   5 186628. 3713.04   4
   3   1   5 192624. 4189.73   1
  -3  -1  -6 47484.6 2139.59   5
  -3  -1  -6 47643.0 1671.32   4
   3   1   6 47728.0 1483.22   4
   3   1   6 48113.3 1673.69   3
   3   1   6 49658.3 1893.05   1
  -3  -1  -6 43029.8 1885.32   3
  -3  -1  -7 83651.4 3120.79   5
   3   1   7 84403.5 2706.91   1
  -3  -1  -7 80753.8 2306.73   4
   3   1   7 73809.7 1943.96   4
   3   1   7 83282.1 2494.58   7
   3   1   7 77578.1 2366.10   3
  -3  -1  -7 72256.3 2720.51   3
   3   1   8 2724.57 434.770   3
  -3  -1  -8 2568.86 558.273   5
  -3  -1  -8 3060.21 559.197   3
   3   1   8 2824.18 319.394   4
   3   1   8 3131.83 469.250   7
  -3  -1  -9 12978.8 1344.22   5
   3   1   9 13576.5 715.615   4
  -3  -1  -9 13026.9 867.754   8
   3   1   9 14125.3 1071.55   7
   3   1   9 14411.8 1047.08   3
  -3  -1 -10 12389.6 1401.27   5
   3   1  10 12261.0 669.275   4
  -3  -1 -10 12467.0 869.748   8
   3   1  10 11655.9 993.676   3
  -3  -1 -11 6765.26 1103.57   5
  -3  -1 -11 7748.70 708.110   8
   3   1  11 8815.28 900.709   3
   3   1  12 331.449 246.398   3
  -3  -1 -12-85.2343 185.537   5
   3   1  13 2949.36 589.170   3
  -3  -1 -13 2822.32 796.844   5
  -3  -1 -14 793.265 486.776   5
  -3  -2  11 2262.99 535.868   3
   3   2 -11 1592.96 486.894   7
   3   2 -10 14302.6 1442.01   7
  -3  -2  10 13790.9 1254.03   3
  -3  -2   9 12789.1 1144.63   3
   3   2  -9 12722.0 1302.84   7
   3   2  -9 13053.7 767.375   5
   3   2  -8 24008.7 1738.38   7
  -3  -2   8 23185.2 1487.73   3
   3   2  -8 24169.4 989.220   5
   3   2  -7 42304.0 2236.17   7
  -3  -2   7 43798.1 1988.75   3
  -3  -2   6 5525.27 648.624   3
  -3  -2   6 3889.37 532.671   2
   3   2  -6 4888.37 707.668   7
  -3  -2   5 82790.3 2593.40   3
  -3  -2   5 76331.9 2483.30   2
  -3  -2   5 84519.9 2803.93   7
   3   2  -5 78784.6 2883.73   7
  -3  -2   4 2514.53 405.570   1
   3   2  -4 2636.49 469.534   7
  -3  -2   4 2438.36 375.868   2
  -3  -2   4 2497.63 424.505   7
  -3  -2   3 24746.9 1200.42   3
  -3  -2   3 26062.6 1282.61   1
   3   2  -3 25377.2 1413.49   7
  -3  -2   3 25459.3 1176.85   2
   3   2  -2 6456.66 588.136   4
   3   2  -2 6868.38 580.505   2
   3   2  -2 6853.97 707.772   7
  -3  -2   2 6433.96 587.063   1
  -3  -2   2 6740.49 554.931   2
   3   2  -1 1454.60 254.154   2
  -3  -2   1 1680.21 267.851   2
  -3  -2   1 1178.62 246.650   1
   3   2  -1 1168.89 255.923   4
   3   2  -1 982.439 250.692   7
  -3  -2   1 2008.18 260.121   6
  -3  -2   0 59363.1 1915.93   4
  -3  -2   0 59444.8 1446.12   6
   3   2   0 57743.9 1793.04   1
   3   2   0 59084.1 1982.40   7
   3   2   0 58405.1 1667.52   2
  -3  -2   0 56447.5 1658.24   2
  -3  -2   0 56085.5 1789.80   1
   3   2   1 29239.0 1209.69   1
  -3  -2  -1 28969.1 1215.99   1
  -3  -2  -1 32067.3 1338.94   4
   3   2   1 30045.9 1109.30   2
  -3  -2  -1 30828.9 844.924   6
  -3  -2  -1 28405.7 1115.01   2
  -3  -2  -2 77427.0 2239.94   1
  -3  -2  -2 80810.6 2293.92   4
  -3  -2  -2 82070.4 2005.75   3
   3   2   2 82123.6 2093.87   2
   3   2   2 76761.2 1565.57   6
  -3  -2  -3 254092. 4898.87   4
   3   2   3 251033. 4819.32   1
   3   2   3 249478. 4646.99   2
  -3  -2  -3 244296. 4721.50   1
  -3  -2  -3 242621. 4575.56   3
   3   2   3 252295. 3989.65   6
  -3  -2  -4 19667.9 1037.65   4
   3   2   4 18869.2 946.075   4
   3   2   4 18171.9 1010.09   1
   3   2   4 19170.0 946.138   3
  -3  -2  -4 16055.7 916.061   3
  -3  -2  -5 91266.5 2485.87   4
   3   2   5 85964.9 2270.70   4
   3   2   5 85682.4 2510.92   1
   3   2   5 87281.7 2364.33   3
  -3  -2  -6 9729.43 744.582   4
   3   2   6 8889.83 630.449   4
   3   2   6 9107.91 710.182   3
   3   2   6 9226.89 783.361   1
  -3  -2  -6 9053.30 815.432   3
  -3  -2  -7 75579.5 2296.68   4
   3   2   7 71563.8 2005.79   4
   3   2   7 70562.3 2282.56   7
   3   2   7 70803.0 2304.07   3
  -3  -2  -7 71384.0 2656.20   3
   3   2   7 75326.0 2542.48   1
   3   2   8 433.900 188.118   3
  -3  -2  -8 238.083 155.761   3
  -3  -2  -8 337.269 156.525   4
   3   2   8 434.570 146.203   4
   3   2   8 367.469 156.968   7
  -3  -2  -9 6644.63 1007.11   5
  -3  -2  -9 5986.72 615.877   4
   3   2   9 5757.36 512.711   4
   3   2   9 7621.06 743.462   7
   3   2   9 6590.24 706.429   3
   3   2  10 4788.89 637.251   3
  -3  -2 -10 4192.65 849.636   5
  -3  -2 -10 5739.80 624.354   4
   3   2  10 5101.62 486.182   4
  -3  -2 -10 4884.91 494.521   8
  -3  -2 -11 15555.7 1734.88   5
  -3  -2 -11 19308.3 1178.18   4
  -3  -2 -11 17534.9 961.259   8
   3   2  11 15318.9 870.867   4
   3   2  11 17946.1 1292.32   3
  -3  -2 -12 3183.52 837.228   5
   3   2  12 4465.54 690.669   3
  -3  -2 -13 19823.0 2145.25   5
   3   2  13 24258.8 1669.89   3
   3   2  14 2740.85 613.257   3
  -3  -2 -14 1288.65 561.393   5
  -3  -3  11 17352.5 1540.99   3
   3   3 -10 8339.35 1150.86   7
  -3  -3  10 8968.96 1065.39   3
   3   3  -9 11450.1 1296.10   7
  -3  -3   9 10809.6 1111.62   3
   3   3  -8 37136.0 2275.14   7
  -3  -3   8 38156.5 2041.04   3
  -3  -3   7 6145.37 773.160   3
   3   3  -7 6485.91 897.167   7
  -3  -3   6 323.118 172.181   2
  -3  -3   6 12.6832 152.527   3
   3   3  -6-153.451 220.130   7
  -3  -3   5 17941.0 1215.62   3
   3   3  -5 20091.6 1458.05   7
  -3  -3   5 17058.9 1082.54   2
  -3  -3   4 4229.10 546.373   3
  -3  -3   4 4494.21 311.142   5
  -3  -3   4 4221.20 538.017   1
   3   3  -4 4138.51 632.279   7
  -3  -3   4 4228.95 578.657   7
  -3  -3   4 4134.60 489.909   2
  -3  -3   3 105555. 2007.18   5
  -3  -3   3 105112. 2854.03   1
  -3  -3   3 102061. 2643.60   2
   3   3  -3 106039. 3337.22   7
   3   3  -2 25808.1 1177.87   2
   3   3  -2 27690.3 1517.33   7
  -3  -3   2 27606.1 1139.26   2
  -3  -3   2 25773.6 1222.50   1
  -3  -3   2 25594.4 1196.82   6
  -3  -3   2 25480.0 837.093   5
  -3  -3   1 61477.9 1985.76   4
   3   3  -1 60493.2 2244.62   7
   3   3  -1 57013.8 1723.74   2
  -3  -3   1 55772.7 1651.25   2
  -3  -3   1 56801.9 1739.16   6
  -3  -3   1 56353.8 1822.06   1
  -3  -3   0 44893.3 1665.44   4
   3   3   0 43456.1 1522.18   1
   3   3   0 43137.1 1371.85   2
   3   3   0 44656.6 1835.62   7
  -3  -3   0 43504.0 1386.13   6
  -3  -3   0 42443.0 1358.31   2
  -3  -3   0 41711.0 1502.34   1
  -3  -3  -1 100903. 2536.96   1
  -3  -3  -1 110175. 2818.93   4
   3   3   1 105963. 2887.04   7
   3   3   1 102145. 2293.26   2
   3   3   1 104602. 2280.11   6
   3   3   1 101530. 2530.30   1
  -3  -3  -1 102282. 2252.78   6
  -3  -3  -1 99028.4 2306.29   2
  -3  -3  -2 4538.56 508.573   4
  -3  -3  -2 5243.92 487.739   1
   3   3   2 4135.52 387.165   6
   3   3   2 4575.68 401.324   2
   3   3   2 4170.86 478.427   1
  -3  -3  -2 4303.01 342.140   6
   3   3   3 22190.6 1094.01   1
  -3  -3  -3 21722.7 1142.82   4
   3   3   3 22224.5 879.201   6
  -3  -3  -3 21410.9 1031.26   1
   3   3   3 21474.5 965.643   2
  -3  -3  -4 738.179 196.894   4
   3   3   4 711.315 192.356   4
   3   3   4 993.601 224.156   1
   3   3   4 731.512 163.583   6
  -3  -3  -5 169812. 3848.21   4
   3   3   5 170376. 3648.71   4
   3   3   5 167740. 3819.85   1
   3   3   5 168626. 3799.87   3
   3   3   5 159654. 3291.49   6
  -3  -3  -6 10725.8 819.410   4
   3   3   6 10439.1 742.309   4
   3   3   6 11055.9 826.416   3
   3   3   6 12086.5 897.853   1
  -3  -3  -6 10949.2 894.767   3
  -3  -3  -7 20204.5 1155.60   4
   3   3   7 19806.3 1049.49   4
   3   3   7 20316.5 1186.24   3
  -3  -3  -7 18590.1 1265.97   3
   3   3   7 20041.6 1238.09   1
   3   3   8 12393.2 1023.98   1
  -3  -3  -8 13334.6 951.991   4
   3   3   8 11011.0 781.399   4
   3   3   8 12545.5 887.419   7
   3   3   8 12655.5 958.232   3
  -3  -3  -8 10675.4 1023.06   3
  -3  -3  -9 28517.5 1459.13   4
   3   3   9 27062.2 1257.86   4
   3   3   9 31261.0 1605.41   3
   3   3   9 27218.8 1402.14   7
  -3  -3 -10 12073.6 952.576   4
  -3  -3 -10 11962.4 705.345   8
   3   3  10 10816.4 792.215   4
   3   3  10 11181.9 919.456   7
   3   3  10 11414.1 998.702   3
  -3  -3 -11 72786.5 1926.23   8
   3   3  11 72092.3 2746.99   3
   3   3  11 68570.3 2200.12   4
   3   3  12 127.017 237.827   3
  -3  -3 -12-236.759 365.586   5
  -3  -3 -12-9.43693 114.899   4
  -3  -3 -13 14021.7 1838.58   5
   3   3  13 20601.8 1537.94   3
   3   3  14 1714.41 486.084   3
  -3  -3 -14 655.278 448.661   5
  -3  -4  10 162.076 165.003   3
   3   4 -10 97.6059 136.772   7
   3   4  -9 5967.24 1001.01   7
  -3  -4   9 5452.40 834.657   3
   3   4  -8 4937.58 858.769   7
  -3  -4   8 5198.17 797.872   3
  -3  -4   7 35920.6 2004.18   3
   3   4  -7 31441.8 2134.38   7
  -3  -4   6 3618.61 601.831   3
   3   4  -6 3608.53 679.866   7
  -3  -4   5 44650.3 2102.14   3
  -3  -4   5 40804.9 1346.52   5
   3   4  -5 42796.3 2301.46   7
  -3  -4   5 43475.1 1874.03   1
  -3  -4   5 42746.4 1750.02   2
  -3  -4   4 9625.12 585.174   5
  -3  -4   4 10184.2 932.550   3
  -3  -4   4 8675.13 716.020   2
  -3  -4   4 9843.79 818.198   1
   3   4  -4 10784.7 1082.00   7
  -3  -4   4 11527.3 979.873   6
  -3  -4   3 12620.8 690.130   5
   3   4  -3 12523.8 1128.61   7
  -3  -4   3 11770.8 768.322   2
  -3  -4   3 12164.8 882.100   4
  -3  -4   3 11796.6 851.052   1
  -3  -4   3 13655.8 1037.26   7
  -3  -4   3 12506.6 957.259   6
  -3  -4   2 70328.3 2278.40   4
   3   4  -2 70870.5 2698.71   7
  -3  -4   2 71651.7 2379.58   7
  -3  -4   2 66006.8 1887.92   2
  -3  -4   2 65611.2 2078.08   1
  -3  -4   2 66423.5 1813.40   5
  -3  -4   1 152668. 3608.53   4
   3   4  -1 147132. 3562.50   4
   3   4  -1 148546. 3179.49   2
   3   4  -1 153727. 4115.53   7
  -3  -4   1 147609. 3050.68   2
  -3  -4   1 145156. 3307.36   1
  -3  -4   0 2809.85 368.654   1
  -3  -4   0 3914.19 490.180   4
   3   4   0 3533.01 459.007   4
   3   4   0 3878.67 557.259   7
   3   4   0 3052.24 379.977   1
   3   4   0 3287.46 341.343   2
  -3  -4   0 3469.30 416.083   6
  -3  -4   0 3390.51 333.506   2
   3   4   1 146.150 70.4348   2
   3   4   1 242.229 110.707   1
  -3  -4  -1 116.504 60.7154   2
  -3  -4  -1 154.698 115.418   4
  -3  -4  -1 120.851 82.0854   1
   3   4   1 42.4983 90.4258   7
   3   4   1 131.307 97.9183   6
  -3  -4  -1 129.644 86.8755   6
  -3  -4  -2 18531.8 1077.15   4
   3   4   2 16775.8 884.829   6
  -3  -4  -2 16675.5 868.920   1
   3   4   2 18413.7 1126.79   7
   3   4   2 16196.8 734.944   2
  -3  -4  -2 15588.2 797.553   6
   3   4   2 15395.0 861.822   1
   3   4   3 52832.1 1754.13   1
  -3  -4  -3 53827.1 1951.06   4
   3   4   3 54074.0 1683.15   6
   3   4   3 50808.8 1483.25   2
  -3  -4  -3 51895.7 1667.94   1
   3   4   4 9196.03 627.120   2
  -3  -4  -4 8834.87 755.396   4
   3   4   4 9524.36 729.640   1
  -3  -4  -4 9001.53 727.798   3
   3   4   4 8259.84 628.465   6
  -3  -4  -5 9128.68 786.966   4
   3   4   5 10622.0 797.243   4
   3   4   5 9196.80 749.297   1
  -3  -4  -5 9645.90 777.000   3
   3   4   5 8657.07 667.973   6
   3   4   6-46.8608 82.9377   1
  -3  -4  -6 21.6747 72.8327   3
  -3  -4  -6 113.531 126.829   4
   3   4   6 23.0627 74.1290   4
   3   4   6 92.9484 77.2181   6
  -3  -4  -7 41864.6 1803.82   4
   3   4   7 41804.9 1695.09   4
   3   4   7 43593.5 1871.64   3
  -3  -4  -7 37621.3 1828.76   3
   3   4   7 43358.6 1865.91   1
  -3  -4  -8 8541.68 811.961   4
   3   4   8 9147.77 764.759   4
   3   4   8 8674.86 693.903   7
   3   4   8 7952.89 804.794   3
   3   4   8 8112.99 830.769   1
  -3  -4  -9 52119.0 2125.15   4
   3   4   9 58334.0 2072.06   4
   3   4   9 57312.5 2007.41   7
   3   4   9 60052.0 2369.05   3
  -3  -4 -10 53593.5 2166.35   4
   3   4  10 51149.8 1996.84   7
   3   4  10 51493.7 1966.50   4
   3   4  10 55232.0 2329.98   3
   3   4  11 5373.28 610.427   4
  -3  -4 -11 4818.42 640.098   4
  -3  -4 -11 4965.19 365.647   8
   3   4  11 5331.86 748.900   3
  -3  -4 -12 20247.0 1344.19   4
   3   4  12 18572.9 1436.87   3
  -3  -4 -13 15633.6 1191.51   4
   3   4  13 14269.4 1310.17   3
  -3  -4 -14 6.36672 169.771   5
   3   5  -9 10065.5 1339.21   7
  -3  -5   9 13455.0 1396.07   3
   3   5  -8-137.897 183.802   7
  -3  -5   8-352.075 237.670   3
  -3  -5   7 7699.33 975.624   3
  -3  -5   7 6597.35 782.602   1
   3   5  -7 7041.70 1052.46   7
   3   5  -6 2479.23 598.696   7
  -3  -5   6 2508.85 462.136   1
  -3  -5   6 2305.95 515.690   3
   3   5  -6 2478.74 420.042   4
  -3  -5   5 19101.3 998.039   5
  -3  -5   5 20156.1 1480.87   3
   3   5  -5 20373.2 1674.10   7
   3   5  -5 19110.1 1190.19   4
  -3  -5   5 19596.5 1151.13   2
  -3  -5   5 20214.7 1261.01   1
   3   5  -4 604.846 309.139   7
  -3  -5   4 516.737 173.136   2
  -3  -5   4 406.502 135.791   5
  -3  -5   4 155.585 111.902   1
   3   5  -4 462.925 180.571   4
  -3  -5   3 40656.6 1533.20   5
  -3  -5   3 43029.7 1804.15   4
   3   5  -3 43384.7 1804.10   4
   3   5  -3 42428.5 2256.72   7
  -3  -5   3 42098.5 1521.99   2
  -3  -5   3 41556.5 1646.89   1
  -3  -5   3 43047.8 1986.41   6
  -3  -5   2 19058.5 1158.57   4
   3   5  -2 18080.7 1121.39   4
   3   5  -2 19126.9 1428.82   7
  -3  -5   2 19105.5 1229.19   7
  -3  -5   2 18043.2 879.086   2
  -3  -5   2 18897.8 1222.64   6
  -3  -5   2 17354.8 986.156   1
  -3  -5   2 18664.0 1008.11   5
  -3  -5   1 22044.2 1263.02   4
   3   5  -1 24439.9 1293.90   4
   3   5  -1 22654.9 1503.94   7
  -3  -5   1 21931.6 904.842   2
  -3  -5   1 22411.2 1272.52   6
  -3  -5   1 21620.6 1056.79   1
  -3  -5   0 27.9173 66.8207   1
  -3  -5   0 61.0317 42.6268   2
   3   5   0 272.826 142.279   4
   3   5   0 317.221 221.328   7
  -3  -5   0 92.3882 106.685   4
   3   5   0-81.1241 114.510   6
  -3  -5  -1 99859.0 2440.33   1
  -3  -5  -1 102161. 2921.23   4
   3   5   1 100475. 2873.04   4
   3   5   1 100859. 2138.08   2
   3   5   1 99113.4 2474.32   1
   3   5   1 93867.0 3080.97   7
   3   5   1 100719. 2791.33   6
  -3  -5  -2 3732.73 494.555   4
   3   5   2 4545.90 552.166   4
   3   5   2 3391.90 307.210   2
   3   5   2 3048.49 505.904   7
   3   5   2 3156.58 447.526   6
  -3  -5  -2 2918.33 359.806   1
   3   5   2 3409.07 397.601   1
   3   5   3 21061.6 1061.03   1
  -3  -5  -3 19482.4 1135.65   3
  -3  -5  -3 22911.5 1296.87   4
   3   5   3 19882.8 1230.84   7
   3   5   3 21691.9 837.404   2
   3   5   3 19993.2 1122.84   6
   3   5   4 26812.3 1267.12   1
  -3  -5  -4 29110.7 1491.30   4
   3   5   4 30128.0 1472.36   4
   3   5   4 25448.2 1290.96   6
  -3  -5  -4 25220.3 1313.32   3
   3   5   4 27752.0 1069.14   2
  -3  -5  -5 20283.7 1257.87   4
   3   5   5 19967.5 1203.88   4
   3   5   5 19331.9 1110.67   1
  -3  -5  -5 18954.2 1151.53   3
   3   5   5 20176.4 1168.66   6
  -3  -5  -6 19426.8 1241.29   4
   3   5   6 21388.7 1259.78   4
   3   5   6 22344.8 1252.06   1
  -3  -5  -6 20373.7 1238.35   3
   3   5   6 18016.5 1140.62   6
  -3  -5  -7 102850. 3161.96   4
   3   5   7 102536. 3029.57   4
   3   5   7 102856. 3091.86   1
   3   5   7 98955.9 3003.42   6
  -3  -5  -8 25632.5 1487.63   4
   3   5   8 25093.7 1392.58   4
   3   5   8 21609.5 1320.76   6
   3   5   8 23728.3 1445.96   1
   3   5   9 1832.83 418.706   3
  -3  -5  -9 2086.29 417.177   4
   3   5   9 2170.49 366.809   7
   3   5  10 1250.63 359.859   3
  -3  -5 -10 1003.39 303.224   4
   3   5  10 851.735 236.788   7
  -3  -5 -11 14138.2 1163.68   4
   3   5  11 16460.8 1087.28   7
   3   5  11 14420.9 1247.21   3
   3   5  12 806.319 360.439   3
  -3  -5 -12 771.779 272.369   4
  -3  -5 -13 16733.0 1288.43   4
   3   5  13 15726.2 1398.11   3
  -3  -6   9 253.620 209.806   1
  -3  -6   8 14353.1 1479.80   3
  -3  -6   8 13800.9 1192.78   1
   3   6  -8 13420.1 1579.55   7
  -3  -6   7 16833.3 1537.32   3
  -3  -6   7 16778.0 1264.71   1
   3   6  -7 16261.7 1689.23   7
  -3  -6   6 2324.91 450.588   1
  -3  -6   6 2386.54 560.439   3
   3   6  -6 1870.92 550.505   7
  -3  -6   5 23508.4 1715.17   3
   3   6  -5 21305.3 1800.16   7
   3   6  -5 20625.6 1320.58   4
  -3  -6   5 19048.8 1126.56   2
  -3  -6   5 20849.6 1270.52   1
  -3  -6   4 5398.98 588.508   5
  -3  -6   4 6675.69 705.689   4
   3   6  -4 6843.38 747.560   4
  -3  -6   4 6986.20 621.304   2
   3   6  -4 7557.02 1012.35   7
  -3  -6   4 7154.31 689.169   1
  -3  -6   3 27873.4 1428.40   5
  -3  -6   3 32478.4 1617.42   4
   3   6  -3 33036.2 1669.21   4
   3   6  -3 34323.3 2127.07   7
  -3  -6   3 32672.0 1290.28   2
  -3  -6   3 33215.9 1430.66   1
  -3  -6   2 2151.19 377.493   5
  -3  -6   2 1766.89 252.248   2
   3   6  -2 1851.11 474.685   7
  -3  -6   2 1633.11 347.369   4
  -3  -6   2 1643.64 291.719   1
   3   6  -2 1607.51 357.779   4
  -3  -6   2 1792.86 397.996   6
  -3  -6   1 15692.3 857.564   1
  -3  -6   1 15169.3 1094.10   4
   3   6  -1 17051.3 1164.69   4
   3   6  -1 16219.4 1335.76   7
  -3  -6   1 16508.1 1170.06   6
  -3  -6   1 15217.2 706.091   2
  -3  -6   1 14938.0 1006.45   5
  -3  -6   0 33.3937 42.9852   2
   3   6   0 162.987 109.720   4
  -3  -6   0 37.1653 66.7449   1
   3   6   0-76.5844 126.739   7
   3   6   0-33.2029 86.6749   6
  -3  -6   0-44.8577 82.9131   6
  -3  -6  -1 95657.7 2946.75   4
   3   6   1 96898.5 2984.32   4
   3   6   1 87240.6 3076.99   7
  -3  -6  -1 94671.9 2292.09   1
   3   6   1 93587.3 2944.57   6
  -3  -6  -1 94682.4 2819.03   6
  -3  -6  -2 9454.36 774.453   6
  -3  -6  -2 8802.50 847.655   4
   3   6   2 9164.47 852.668   4
   3   6   2 7712.54 384.666   2
   3   6   2 7076.19 783.441   7
   3   6   2 9030.97 643.559   1
   3   6   2 8846.82 825.643   6
  -3  -6  -3 8799.99 843.072   4
   3   6   3 8316.95 811.348   4
   3   6   3 7514.94 791.772   7
   3   6   3 7857.50 430.877   2
   3   6   3 8195.68 798.850   6
  -3  -6  -3 8907.20 728.390   6
   3   6   3 8629.89 660.172   1
   3   6   4 32666.5 1419.80   1
  -3  -6  -4 34059.8 1756.42   4
   3   6   4 38158.5 1787.30   4
  -3  -6  -4 33109.7 1604.76   3
   3   6   4 34704.0 1690.79   6
   3   6   4 35404.8 1106.49   2
  -3  -6  -5 118456. 3534.57   4
   3   6   5 117235. 3114.21   1
   3   6   5 112018. 3381.47   6
   3   6   5 118894. 2689.11   2
  -3  -6  -6 6332.97 752.507   4
   3   6   6 6583.05 677.182   1
   3   6   6 5218.19 660.496   6
  -3  -6  -7 9379.04 934.471   4
   3   6   7 8383.48 805.621   1
   3   6   7 8441.86 867.765   6
  -3  -6  -8 5894.47 749.350   4
   3   6   8 5324.45 710.568   6
  -3  -6  -9 31623.0 1789.90   4
   3   6   9 31598.8 1807.25   6
  -3  -6 -10 14092.3 1193.22   4
   3   6  10 15004.4 945.252   7
   3   6  10 13029.0 1170.28   6
  -3  -6 -11 8276.47 918.621   4
   3   6  11 8997.27 1029.82   3
   3   6  11 8324.69 939.794   6
  -3  -6 -12 6502.43 826.015   4
   3   6  12 6281.96 893.639   3
  -3  -6 -13 12510.2 1167.62   4
   3   6  13 10520.3 1178.39   3
  -3  -7   7 1860.98 543.591   3
   3   7  -7 1896.04 635.858   7
  -3  -7   6 182.051 72.2816   1
  -3  -7   6 169.094 228.400   3
   3   7  -6 49.1118 219.392   7
  -3  -7   5 38789.9 2410.61   3
  -3  -7   5 31725.7 1649.60   4
   3   7  -5 36714.3 2495.51   7
  -3  -7   5 35387.1 1640.04   1
  -3  -7   4-30.5929 109.317   1
  -3  -7   4-34.3085 119.118   4
   3   7  -4 323.507 177.042   4
   3   7  -4 59.1676 148.860   7
  -3  -7   3 11115.3 977.393   5
  -3  -7   3 13515.4 1066.95   4
   3   7  -3 11789.4 1294.13   7
  -3  -7   3 13605.9 859.775   1
  -3  -7   2 14288.3 827.022   1
  -3  -7   2 13922.1 1096.49   4
   3   7  -2 14670.1 1376.62   7
  -3  -7   2 14605.9 708.297   2
  -3  -7   2 14368.3 1107.39   5
  -3  -7   1 30630.5 1666.79   4
  -3  -7   1 32826.2 1218.53   1
   3   7  -1 31070.4 1949.11   7
  -3  -7   1 32373.0 925.930   2
  -3  -7   1 32385.8 1678.41   5
  -3  -7   0 13462.1 1088.79   4
  -3  -7   0 13769.3 722.917   1
   3   7   0 12009.4 1079.37   6
   3   7   0 13482.2 1206.05   7
  -3  -7  -1 9369.19 918.166   4
   3   7   1 9699.71 976.011   7
  -3  -7  -1 9974.17 901.112   6
   3   7   1 9410.44 941.274   6
  -3  -7  -2 5002.00 674.154   4
   3   7   2 4631.48 445.387   1
   3   7   2 5196.94 689.756   7
   3   7   2 4813.79 675.510   6
  -3  -7  -2 5696.86 657.034   6
  -3  -7  -3 79119.2 2867.21   4
   3   7   3 77874.8 2883.53   6
   3   7   3 72445.0 2672.18   7
   3   7   3 79734.8 2177.69   1
  -3  -7  -3 80471.6 2604.40   6
  -3  -7  -4 45160.5 2107.76   4
   3   7   4 39167.7 1844.17   7
   3   7   4 44017.0 1003.57   2
   3   7   4 41732.7 1597.30   1
   3   7   4 42798.8 2084.12   6
   3   7   5 781.504 216.452   1
   3   7   5 343.445 104.046   2
  -3  -7  -5 637.146 263.729   4
   3   7   5 532.030 202.015   7
   3   7   5 291.161 192.944   6
   3   7   6 15619.6 845.907   2
  -3  -7  -6 15310.2 1246.85   4
   3   7   6 14856.9 1033.52   1
   3   7   6 14529.5 1028.40   7
   3   7   6 14203.8 1223.47   6
  -3  -7  -7 77315.4 2948.08   4
   3   7   7 72633.2 2563.61   1
   3   7   7 68735.5 2838.01   6
  -3  -7  -8 519.876 246.701   4
   3   7   8 192.195 152.238   6
  -3  -7  -9 30399.0 1858.12   4
   3   7   9 28690.2 1852.79   6
  -3  -7 -10 6105.49 826.305   4
   3   7  10 5814.58 837.176   6
  -3  -7 -11 20388.5 1533.13   4
   3   7  11 15414.9 1405.00   6
  -3  -7 -12 1197.05 374.317   4
   3   7  12 1213.76 412.072   6
  -3  -7 -13 26142.5 1783.41   4
   3   7  13 21705.6 1733.12   6
  -3  -8   6 37149.1 2517.47   3
   3   8  -6 32842.5 2562.75   7
  -3  -8   5 96.9532 180.276   3
  -3  -8   5 230.010 97.8876   4
   3   8  -5-4.76332 186.378   7
  -3  -8   4 5955.51 739.722   4
   3   8  -4 4807.39 891.805   7
   3   8  -3 26865.6 2049.27   7
  -3  -8   3 26456.4 1602.10   4
  -3  -8   2 5243.99 705.176   4
  -3  -8   2 6091.11 473.648   1
   3   8  -2 4564.82 805.523   7
  -3  -8   1 15887.4 1239.34   4
   3   8  -1 15324.8 1403.54   7
  -3  -8   1 15642.9 709.903   1
  -3  -8   0 9983.92 991.183   4
   3   8   0 9590.10 1055.07   7
   3   8   0 8865.02 1001.53   6
   3   8   1 25878.2 1714.86   6
  -3  -8  -1 25989.9 1634.35   4
   3   8   1 26267.6 1689.76   7
  -3  -8  -2 15104.9 1230.84   4
   3   8   2 14570.5 1177.32   7
   3   8   2 13608.7 1246.19   6
   3   8   3 2196.57 506.840   6
  -3  -8  -3 2994.07 547.258   4
   3   8   3 2265.02 440.153   7
   3   8   3 2063.48 300.273   1
   3   8   4 11823.0 1165.60   6
  -3  -8  -4 13503.5 1194.52   4
   3   8   4 13562.4 1015.32   7
   3   8   4 11627.3 776.080   1
   3   8   5 15453.2 968.098   1
  -3  -8  -5 14917.2 1288.93   4
   3   8   5 16282.1 1077.93   7
   3   8   5 15513.2 1364.57   6
   3   8   6 488.613 112.465   2
   3   8   6 567.151 208.364   1
   3   8   6 624.076 136.697   2
  -3  -8  -6 834.463 300.964   4
   3   8   6 596.402 203.355   7
   3   8   6 77.4754 137.489   6
   3   8   7 36736.1 1750.04   1
   3   8   7 35314.9 1502.63   7
   3   8   7 35214.2 2137.88   6
  -3  -8  -8 1134.31 372.112   4
   3   8   8 863.214 222.559   7
   3   8   8 1047.87 362.434   6
  -3  -8  -9 16205.3 1405.70   4
   3   8   9 12998.4 1327.53   6
  -3  -8 -10 61.8766 110.082   4
   3   8  10 379.431 242.900   6
  -3  -8 -11 3740.46 698.403   4
   3   8  11 4780.17 834.419   6
  -3  -8 -12-106.395 112.813   4
   3   8  12-151.959 203.583   6
  -3  -8 -13 21898.4 1724.98   4
   3   9  -5 525.972 390.606   7
   3   9  -4 2368.66 635.905   7
  -3  -9   4 1407.69 382.485   4
   3   9  -3 15488.6 1608.19   7
  -3  -9   3 14491.8 1245.25   4
  -3  -9   2 3488.64 614.696   4
   3   9  -2 3587.52 722.883   7
  -3  -9   1 5192.55 747.602   4
   3   9  -1 5099.55 836.332   7
  -3  -9   0 15259.0 1306.22   4
   3   9   0 12851.1 1253.90   7
  -3  -9  -1 12725.0 1220.76   4
   3   9   1 13616.8 1220.87   7
   3   9   1 13350.6 1334.50   6
  -3  -9  -2 34277.5 2003.65   4
   3   9   2 35525.4 1889.37   7
   3   9   2 34583.5 2161.24   6
  -3  -9  -3 24935.9 1704.15   4
   3   9   3 24624.2 1451.66   7
   3   9   3 21056.9 1688.66   6
  -3  -9  -4 351.896 215.307   4
   3   9   4 537.452 193.756   7
   3   9   4 402.015 220.002   6
   3   9   5 8382.72 733.660   7
   3   9   5 7364.45 1011.55   6
  -3  -9  -6 1227.44 389.474   4
   3   9   6 936.456 233.067   7
   3   9   6 559.375 273.283   6
  -3  -9  -7 1605.16 459.500   4
   3   9   7 2295.71 595.792   6
  -3  -9  -8 973.106 356.444   4
   3   9   8 280.954 211.323   6
  -3  -9  -9 7009.35 960.966   4
   3   9   9 6813.90 1037.76   6
  -3  -9 -10-32.5573 222.859   4
   3   9  10 23.1837 142.767   6
  -3  -9 -11 1246.31 429.725   4
   3   9  11 851.455 387.606   6
   3  10  -4 522.646 370.185   7
  -3 -10   3 262.965 187.569   4
   3  10  -3 289.563 213.595   7
  -3 -10   2-41.4871 90.9570   4
   3  10  -2 159.585 201.906   7
  -3 -10   1 19279.4 1545.23   4
   3  10  -1 19874.2 1676.66   7
  -3 -10   0 19092.4 1548.53   4
   3  10   0 19765.4 1582.08   7
  -3 -10  -1 7714.08 985.277   4
   3  10   1 6278.38 829.302   7
   3  10   1 6806.54 1023.54   6
  -3 -10  -2 12197.7 1255.85   4
   3  10   2 12542.5 1105.22   7
   3  10   2 12336.3 1383.62   6
  -3 -10  -3 10867.2 1181.16   4
   3  10   3 12412.6 1021.34   7
   3  10   3 11758.1 1347.08   6
  -3 -10  -4-45.9080 130.720   4
   3  10   4-694.794 331.945   6
   3  10   5 2094.61 579.565   6
  -3 -10  -5 2149.98 527.978   4
  -3 -10  -6 673.868 323.418   4
   3  10   6 640.789 314.541   6
  -3 -10  -7 22142.7 1771.72   4
   3  10   7 19185.9 1806.63   6
  -3 -10  -8-353.582 237.185   4
   3  10   8-230.434 215.065   6
   3  10   9 9858.56 1315.58   6
   3  10  10 9371.78 1315.26   6
  -3 -11   2 164.147 194.700   4
   3  11  -2 1086.11 428.107   7
  -3 -11   1 2957.49 640.663   4
   3  11  -1 2268.17 576.801   7
  -3 -11   0 676.255 331.561   4
   3  11   0 459.664 276.376   7
  -3 -11  -1 6071.45 916.689   4
   3  11   1 4379.77 865.165   6
  -3 -11  -2 217.799 196.772   4
   3  11   2 276.748 199.762   6
  -3 -11  -3 12479.5 1340.98   4
   3  11   3 11188.0 1397.77   6
  -3 -11  -4 2940.15 660.080   4
   3  11   4 2692.07 681.686   6
   3  11   5 19758.8 1918.85   6
   3  11   6 993.084 422.639   6
   3  11   7 2093.73 637.304   6
  -4  10   3 7101.21 1259.32   6
  -4  10   2 5823.15 1098.35   6
  -4  10   1 9882.29 1386.46   6
   4 -10   0 6306.46 984.138   4
  -4  10   0 7208.69 1166.61   6
   4 -10   1 6160.61 958.448   4
  -4  10  -1 6251.44 1068.34   6
   4 -10   2 161.758 199.721   4
   4 -10   3 188.503 198.517   4
  -4   9   6 6465.13 1217.71   6
  -4   9   5 1485.44 604.410   6
   4  -9  -4 11278.3 1346.76   4
   4  -9  -4 8895.50 872.682   2
  -4   9   4 11059.6 1504.75   6
   4  -9  -3-57.0030 150.698   2
   4  -9  -3-61.0117 172.762   4
  -4   9   3-159.575 241.519   6
   4  -9  -2 8611.92 1140.77   4
   4  -9  -2 7583.67 775.236   2
  -4   9   2 7711.58 1191.83   6
   4  -9  -1-54.6202 103.056   2
   4  -9  -1 59.7050 162.892   4
  -4   9   1-77.0082 143.856   6
   4  -9   0 1150.56 293.599   2
   4  -9   0 1347.32 429.583   4
  -4   9   0 1241.43 480.117   6
   4  -9   1 12450.8 1303.78   4
   4  -9   1 10621.3 918.766   2
  -4   9  -1 10603.6 1316.60   6
   4  -9   2 21327.0 1688.53   4
  -4   9  -2 21162.4 1857.21   6
   4  -9   3 375.015 214.118   4
   4  -9   4 6265.71 858.122   4
  -4   8   9 573.447 317.695   1
  -4   8   8 17685.3 1603.80   1
  -4   8   8 16564.5 1892.68   6
  -4   8   7-7.27438 63.5233   1
   4  -8  -7 234.197 210.545   4
  -4   8   7-244.325 337.429   6
   4  -8  -6 6954.95 1027.34   4
  -4   8   6 7075.86 966.853   1
  -4   8   6 4804.31 982.449   6
   4  -8  -5 6959.20 1021.29   4
  -4   8   5 7848.45 791.085   8
  -4   8   5 7564.28 1194.92   6
  -4   8   5 7844.61 975.940   1
   4  -8  -4 25996.0 1519.06   2
   4  -8  -4 26505.6 1999.82   4
  -4   8   4 24829.7 1515.97   8
  -4   8   4 25984.9 2171.52   6
  -4   8   4 26574.6 1750.01   1
  -4   8   3 10656.3 1029.71   1
   4  -8  -3 9243.35 873.922   2
  -4   8   3 11194.7 1036.75   8
   4  -8  -3 11040.1 1267.41   4
  -4   8   3 9623.36 1274.21   6
  -4   8   2 8581.94 882.193   1
  -4   8   2 5702.03 768.860   8
   4  -8  -2 5839.46 686.842   2
  -4   8   2 6883.28 1045.87   6
   4  -8  -2 6600.30 965.917   4
  -4   8   1 30664.3 1877.39   8
  -4   8   1 35318.5 1665.55   1
   4  -8  -1 37362.6 2297.68   4
   4  -8  -1 34814.7 1700.17   2
  -4   8   1 33885.2 2293.31   6
   4  -8   0 56882.7 2147.13   3
   4  -8   0 57651.4 2845.13   4
  -4   8   0 56387.2 2649.41   8
   4  -8   0 54095.3 2185.22   2
  -4   8   0 54892.7 2881.43   6
   4  -8   1 687.126 242.719   2
   4  -8   1 461.337 219.604   3
  -4   8  -1 818.040 323.008   8
   4  -8   1 573.327 285.266   4
  -4   8  -1 119.091 158.950   6
   4  -8   2 29094.7 1624.28   3
  -4   8  -2 25990.9 1925.42   6
   4  -8   2 27835.2 1864.55   4
  -4   8  -2 27381.2 1915.01   8
   4  -8   2 28392.0 1579.56   2
   4  -8   3 364.659 181.900   2
   4  -8   3 642.303 251.621   3
  -4   8  -3 717.580 318.896   8
   4  -8   3 484.908 274.382   4
   4  -8   4 3725.61 601.879   2
   4  -8   4 4206.50 650.570   3
   4  -8   4 4197.82 674.243   4
   4  -8   5 1347.74 388.183   3
   4  -8   5 1838.14 453.984   2
   4  -8   5 1809.49 421.585   4
   4  -8   6 13518.2 1265.39   2
   4  -8   6 13321.1 1279.94   3
   4  -8   7-25.8129 157.487   3
   4  -8   7 252.513 158.989   2
   4  -8   8 10601.6 1222.63   3
  -4   7  10 6906.79 1046.26   1
  -4   7   9 3378.50 699.168   1
   4  -7  -9 4645.30 825.979   4
  -4   7   9 4030.89 872.081   6
  -4   7   8 20903.6 1712.46   1
   4  -7  -8 23063.1 1851.85   4
  -4   7   8 23361.0 2109.37   6
  -4   7   7 831.917 348.556   1
   4  -7  -7 1414.40 435.079   4
  -4   7   7 844.708 404.782   6
  -4   7   6 8996.27 767.646   8
   4  -7  -6 9292.29 1154.56   4
  -4   7   6 8694.32 1033.98   1
  -4   7   6 5713.75 985.137   6
   4  -7  -5 169.613 120.740   2
  -4   7   5 301.396 166.374   8
  -4   7   5 306.557 145.588   1
   4  -7  -5 490.518 293.524   4
  -4   7   5 532.867 262.495   6
   4  -7  -4 26328.3 1523.14   2
  -4   7   4 28217.1 1526.87   8
   4  -7  -4 29726.7 2032.38   4
  -4   7   4 30452.9 2207.98   6
  -4   7   4 27243.8 1744.73   1
   4  -7  -3 81.5381 74.8798   2
   4  -7  -3-52.7215 142.575   4
  -4   7   3-44.6008 113.582   8
  -4   7   3 278.373 151.367   1
  -4   7   3-215.304 262.022   6
  -4   7   2 74555.1 2750.02   1
  -4   7   2 71284.5 2718.23   8
   4  -7  -2 78290.0 3324.40   4
   4  -7  -2 73676.0 2589.81   2
  -4   7   2 74689.4 3293.86   6
  -4   7   1 11614.5 960.848   1
  -4   7   1 11184.8 1046.33   8
   4  -7  -1 10582.6 1158.02   4
   4  -7  -1 11785.5 826.689   7
   4  -7  -1 12021.0 964.396   2
  -4   7   1 12115.2 1227.73   6
   4  -7   0 8646.82 711.222   3
  -4   7   0 8802.11 957.498   8
   4  -7   0 8211.49 992.184   4
  -4   7   0 8975.37 795.475   1
   4  -7   0 9075.88 839.429   2
  -4   7   0 9794.27 1095.37   6
   4  -7   0 9262.43 790.209   7
   4  -7   1 7132.65 671.682   3
  -4   7  -1 6884.40 872.810   8
   4  -7   1 6204.21 702.709   2
   4  -7   1 7270.52 922.410   4
  -4   7  -1 6876.73 902.477   6
   4  -7   1 5733.35 660.211   7
   4  -7   2 23835.9 1336.20   3
  -4   7  -2 23010.9 1661.92   8
   4  -7   2 25618.2 1711.09   4
   4  -7   2 25687.2 1517.34   7
   4  -7   2 24810.4 1453.74   2
  -4   7  -2 24390.5 1708.69   6
   4  -7   3 269.454 158.933   2
   4  -7   3 562.957 222.533   3
  -4   7  -3 252.568 203.609   8
   4  -7   3 100.837 122.909   4
  -4   7  -3 232.853 168.833   6
  -4   7  -4 18303.9 1564.18   8
   4  -7   4 16048.6 1264.92   4
   4  -7   4 15813.0 1239.32   2
   4  -7   4 17575.1 1258.57   3
   4  -7   5-46.1608 218.977   3
   4  -7   5 43.3274 108.992   2
  -4   7  -5 376.029 256.481   8
   4  -7   5 42.3631 94.2906   4
   4  -7   6 37018.7 2117.54   2
   4  -7   6 37453.2 1832.36   4
  -4   7  -6 43899.4 2602.47   8
   4  -7   6 37437.8 2059.17   3
  -4   7  -7-35.3902 200.543   5
   4  -7   7-395.308 231.175   3
   4  -7   7 56.0336 109.250   2
   4  -7   8 56963.1 2782.52   3
   4  -7   8 54947.8 2848.95   2
   4  -7   9-247.801 200.164   3
   4  -7   9 386.463 255.908   2
  -4   6  10 11444.1 1356.60   6
   4  -6 -10 10830.8 1235.00   4
  -4   6  10 9946.95 1243.82   1
  -4   6   9 4799.89 828.244   1
   4  -6  -9 4762.54 808.452   4
  -4   6   9 3556.80 759.608   6
  -4   6   8 3732.93 707.064   1
   4  -6  -8 4058.86 739.918   4
  -4   6   8 5010.29 899.132   6
  -4   6   7 3983.07 693.739   1
   4  -6  -7 3573.87 692.975   4
  -4   6   7 3555.66 737.374   6
  -4   6   6 15735.9 983.482   8
   4  -6  -6 17449.1 1514.21   4
  -4   6   6 16754.4 1402.17   1
   4  -6  -5 6841.70 775.461   2
  -4   6   5 6983.17 674.550   8
   4  -6  -5 6312.42 891.189   4
   4  -6  -5 6952.41 515.078   7
  -4   6   5 6489.27 840.262   1
  -4   6   5 6568.09 968.710   6
  -4   6   4 38442.5 1705.48   8
   4  -6  -4 36687.8 1801.40   2
   4  -6  -4 41076.9 2268.68   4
   4  -6  -4 38436.3 1334.23   7
  -4   6   4 36752.2 1993.06   1
  -4   6   4 42265.5 2417.42   6
   4  -6  -3 1577.16 353.143   2
   4  -6  -3 1506.67 205.860   3
  -4   6   3 1605.40 344.784   8
  -4   6   3 1241.42 338.233   1
   4  -6  -3 1842.15 470.603   4
  -4   6   3 1376.09 406.580   6
   4  -6  -2 1793.67 365.430   2
  -4   6   2 1978.70 400.577   8
   4  -6  -2 2017.42 323.774   7
   4  -6  -2 1751.90 214.245   3
  -4   6   2 1314.35 343.111   1
   4  -6  -1 3098.90 341.254   3
  -4   6   1 3417.17 528.048   1
   4  -6  -1 2656.44 447.688   2
  -4   6   1 2296.83 472.553   2
  -4   6   1 2562.49 471.705   8
   4  -6  -1 3139.00 419.606   7
   4  -6  -1 2411.52 262.079   3
  -4   6   1 2612.96 522.341   6
   4  -6   0 10438.5 681.135   3
  -4   6   0 9839.52 843.619   1
  -4   6   0 9584.09 943.190   8
   4  -6   0 10612.2 820.187   7
   4  -6   0 8892.27 819.671   2
  -4   6   0 9481.41 986.914   6
   4  -6   0 10808.8 867.579   6
   4  -6   1 42.7490 123.174   2
   4  -6   1 483.185 177.273   3
  -4   6  -1 461.803 188.979   1
  -4   6  -1 340.447 186.645   8
   4  -6   1 689.238 228.722   7
  -4   6  -1-7.63112 108.475   6
   4  -6   1 367.710 155.832   6
   4  -6   2 59958.2 2006.31   3
  -4   6  -2 58248.4 2568.57   8
   4  -6   2 54655.3 2440.67   4
   4  -6   2 57833.3 2266.50   7
   4  -6   2 55623.5 1976.37   1
  -4   6  -2 54154.2 2439.37   6
   4  -6   2 58721.4 2266.25   2
  -4   6  -2 60366.4 2127.29   1
   4  -6   3 419.134 168.977   1
   4  -6   3 696.733 230.152   2
   4  -6   3 683.737 222.394   3
  -4   6  -3 238.143 146.908   8
   4  -6   3 591.305 252.279   4
  -4   6  -3 565.117 258.539   6
  -4   6  -4 40043.4 2228.21   8
   4  -6   4 39343.7 1952.69   4
   4  -6   4 39395.8 1711.68   1
   4  -6   4 37999.9 1913.64   2
  -4   6  -4 35886.6 2158.88   5
   4  -6   4 38636.6 1782.96   3
  -4   6  -5 3987.14 810.121   5
   4  -6   5 3386.49 588.233   2
  -4   6  -5 3859.82 733.517   8
   4  -6   5 4200.02 576.741   1
   4  -6   5 5112.56 673.681   4
   4  -6   5 3902.31 579.653   3
  -4   6  -6 21305.8 1706.51   8
   4  -6   6 19869.4 1241.75   4
   4  -6   6 20798.0 1517.84   2
   4  -6   6 17612.6 1302.26   3
  -4   6  -6 17928.3 1634.11   5
  -4   6  -7 10.3025 130.491   5
   4  -6   7-53.2564 202.039   3
   4  -6   7 357.951 241.328   2
  -4   6  -7 158.200 221.780   8
   4  -6   7-66.9597 72.1227   4
   4  -6   8 55241.5 2602.39   3
  -4   6  -8 58503.0 3242.42   5
   4  -6   8 56212.9 2818.98   2
  -4   6  -9 41.7505 227.076   5
   4  -6   9 357.379 228.678   3
   4  -6   9 632.775 356.303   2
   4  -6  10 9578.82 1235.44   2
   4  -6  10 11259.5 1239.63   3
   4  -5 -11 2745.23 599.081   4
  -4   5  10-14.0184 188.335   1
   4  -5 -10-13.5929 105.222   4
  -4   5   9 1007.19 384.809   1
   4  -5  -9 1145.10 368.081   4
   4  -5  -8 31250.6 1995.73   4
  -4   5   8 30057.0 2006.40   1
  -4   5   8 27908.4 1932.00   6
  -4   5   7 2131.09 505.966   1
   4  -5  -7 1611.81 392.382   5
   4  -5  -7 2932.32 585.892   4
   4  -5  -7 2499.93 355.687   7
  -4   5   7 2409.74 560.434   6
   4  -5  -6 2083.96 437.958   5
  -4   5   6 2042.92 488.461   1
   4  -5  -6 1797.54 298.911   7
  -4   5   6 1653.99 465.690   6
   4  -5  -5 15234.0 1154.16   2
   4  -5  -5 16264.0 897.436   7
  -4   5   5 15308.3 1277.19   1
  -4   5   5 11619.1 1207.24   6
   4  -5  -5 14999.2 1203.32   5
   4  -5  -5 15115.7 783.108   3
   4  -5  -4 588.031 244.663   2
   4  -5  -4 263.727 156.692   5
   4  -5  -4 776.126 139.950   3
  -4   5   4 387.912 191.953   1
   4  -5  -4 559.345 175.915   7
  -4   5   4 187.044 148.336   6
   4  -5  -3 6000.17 675.998   2
  -4   5   3 5722.50 718.849   1
  -4   5   3 5730.65 772.831   6
   4  -5  -3 5686.16 346.994   3
   4  -5  -3 6531.27 792.812   5
   4  -5  -2 72272.2 2462.69   2
  -4   5   2 72894.1 2783.62   6
   4  -5  -2 69497.3 1404.75   3
  -4   5   2 72539.8 2824.42   2
  -4   5   2 67085.7 2555.19   1
   4  -5  -2 72733.3 2820.17   5
   4  -5  -1 2519.68 233.300   3
   4  -5  -1 2572.74 519.473   5
   4  -5  -1 2444.38 414.736   2
  -4   5   1 1873.24 418.036   2
   4  -5  -1 2401.67 202.600   3
  -4   5   1 2429.02 452.843   6
  -4   5   1 2392.53 430.141   1
   4  -5   0 24499.3 1594.74   5
   4  -5   0 24512.1 883.954   3
  -4   5   0 24312.7 1361.52   1
   4  -5   0 22493.6 1302.15   2
  -4   5   0 23238.2 1414.31   6
  -4   5   0 23046.6 1457.32   2
   4  -5   1 311.781 147.502   1
   4  -5   1 336.905 182.854   2
   4  -5   1 358.570 131.994   3
  -4   5  -1 165.165 118.969   8
   4  -5   1 309.450 138.446   7
  -4   5  -1 299.185 176.913   6
  -4   5  -1 342.011 164.153   1
   4  -5   1 283.025 142.233   6
  -4   5  -2 13405.6 1115.72   8
   4  -5   2 14565.8 1032.44   7
   4  -5   2 15218.4 990.581   1
  -4   5  -2 13996.7 980.281   1
  -4   5  -2 13457.5 1068.74   6
   4  -5   2 14121.9 1043.18   2
   4  -5   2 12504.6 917.730   6
   4  -5   2 14201.7 822.400   3
  -4   5  -3 16868.2 1300.72   8
   4  -5   3 16982.3 1173.69   7
  -4   5  -3 17198.4 1213.37   6
   4  -5   3 16072.9 1046.94   1
   4  -5   3 17257.1 1136.28   6
   4  -5   3 16783.8 1164.19   2
  -4   5  -3 15554.0 1291.34   5
   4  -5   3 15686.8 943.774   3
  -4   5  -4 23945.3 1614.14   8
   4  -5   4 24563.2 1443.37   6
   4  -5   4 23397.9 1450.80   2
   4  -5   4 25580.7 1367.83   1
   4  -5   4 23828.2 1268.29   3
  -4   5  -4 22199.1 1619.81   5
  -4   5  -5 2341.55 555.733   5
   4  -5   5 2130.93 398.498   3
   4  -5   5 1968.22 420.158   2
   4  -5   5 2797.02 471.279   1
  -4   5  -5 2235.00 490.907   8
   4  -5   6 345.635 183.028   1
  -4   5  -6 181.934 194.313   5
   4  -5   6 461.457 181.397   4
   4  -5   6 150.930 139.398   3
   4  -5   6 270.652 200.393   2
  -4   5  -6 185.177 138.063   8
  -4   5  -7 102.449 116.119   5
   4  -5   7-32.9625 144.496   3
   4  -5   7 62.0182 108.661   2
  -4   5  -7-52.2616 101.529   8
   4  -5   7-85.8134 105.610   4
   4  -5   8 33805.7 2108.70   2
  -4   5  -8 35549.3 2235.11   8
   4  -5   8 32324.0 1873.29   3
  -4   5  -8 32876.5 2345.25   5
  -4   5  -9-83.9227 172.556   5
   4  -5   9-142.338 227.263   3
  -4   5  -9-181.650 206.946   8
   4  -5  10 42101.4 2354.35   3
  -4   5 -10 41512.1 2887.86   5
   4  -5  11-35.5298 192.684   3
   4  -4 -11 3098.06 610.985   4
   4  -4 -10 19042.7 1511.28   4
  -4   4  10 16732.9 1150.49   3
  -4   4   9 2494.41 421.497   3
   4  -4  -9 1627.80 447.850   4
   4  -4  -9 2374.90 417.984   7
  -4   4   8 13160.2 1302.94   1
   4  -4  -8 13113.3 1212.42   4
   4  -4  -8 13413.4 977.977   7
  -4   4   8 12709.2 901.090   3
  -4   4   7 1424.51 410.967   1
  -4   4   7 1466.12 286.522   3
   4  -4  -7 1320.46 287.276   7
   4  -4  -6 7173.26 610.936   3
  -4   4   6 5675.20 782.568   1
   4  -4  -6 7598.09 673.986   7
   4  -4  -6 7164.46 738.141   5
   4  -4  -5 18732.8 874.405   3
   4  -4  -5 19256.3 1280.81   2
  -4   4   5 17078.5 1319.59   1
   4  -4  -5 17890.3 1032.92   7
  -4   4   5 15072.2 1253.92   6
   4  -4  -5 19861.3 1243.07   5
   4  -4  -4 67591.8 1577.61   3
   4  -4  -4 69048.1 2473.77   2
   4  -4  -4 67049.1 2089.29   7
  -4   4   4 63035.7 2569.58   1
  -4   4   4 62839.1 2605.39   6
   4  -4  -4 66258.9 2423.82   5
   4  -4  -3 30068.9 729.728   3
   4  -4  -3 32427.5 1581.87   2
   4  -4  -3 30924.7 1306.03   7
  -4   4   3 30774.1 1665.78   1
  -4   4   3 32115.1 1765.66   2
  -4   4   3 32223.5 1719.25   6
   4  -4  -3 30881.9 1615.65   5
   4  -4  -2 20595.8 1224.07   2
  -4   4   2 19580.3 1258.47   6
  -4   4   2 19803.7 1282.68   1
  -4   4   2 19359.6 1347.87   2
   4  -4  -2 22008.0 1354.80   5
   4  -4  -1 2742.11 473.338   5
   4  -4  -1 2845.61 439.720   2
  -4   4   1 2421.38 452.777   2
  -4   4   1 2337.94 424.929   1
  -4   4   1 2290.15 396.249   6
   4  -4   0 2431.97 391.397   1
  -4   4   0 2446.51 426.393   1
   4  -4   0 2805.35 485.149   5
   4  -4   0 2429.47 406.210   2
  -4   4   0 2081.15 427.932   2
   4  -4   0 2525.60 153.420   3
  -4   4   0 2252.41 385.189   6
   4  -4   0 2657.82 174.213   3
   4  -4   1 18898.3 1284.27   5
  -4   4  -1 17673.2 1126.31   1
   4  -4   1 19762.7 1127.69   1
   4  -4   1 18572.8 1153.53   2
  -4   4  -1 18428.6 1118.88   6
   4  -4   1 17738.6 960.733   6
   4  -4   1 18650.0 692.241   3
   4  -4   2 39998.8 1921.40   5
  -4   4  -2 37799.4 1654.82   1
   4  -4   2 40143.9 1678.09   1
  -4   4  -2 37780.8 1655.53   6
   4  -4   2 37844.6 1716.36   2
   4  -4   2 38504.9 1509.62   6
   4  -4   2 40639.2 1269.67   3
  -4   4  -2 39334.7 1888.23   5
  -4   4  -3 3706.60 599.596   5
   4  -4   3 3055.93 524.597   5
   4  -4   3 4950.95 599.887   7
   4  -4   3 3703.79 469.042   6
   4  -4   3 4258.04 528.496   1
  -4   4  -3 4126.42 535.039   1
   4  -4   3 4171.45 571.538   2
   4  -4   3 4413.78 438.983   3
   4  -4   4 9960.87 895.156   7
  -4   4  -4 10003.7 963.519   8
   4  -4   4 10667.8 851.226   6
   4  -4   4 11076.6 956.242   2
   4  -4   4 10728.6 764.117   3
   4  -4   4 10670.3 876.167   1
  -4   4  -4 9644.48 1016.91   5
   4  -4   5 254.403 140.488   1
  -4   4  -5 320.200 169.208   5
   4  -4   5 135.496 112.841   3
   4  -4   5 367.492 215.792   2
  -4   4  -5 288.534 186.672   8
   4  -4   5 649.607 235.891   6
   4  -4   6 10587.0 948.710   1
  -4   4  -6 10757.8 1076.32   8
   4  -4   6 10505.5 886.042   3
   4  -4   6 10212.1 951.354   6
  -4   4  -6 10230.7 1156.27   5
   4  -4   6 9521.12 977.263   2
  -4   4  -7 311.920 238.343   5
   4  -4   7 315.218 166.408   3
   4  -4   7 365.928 185.297   2
  -4   4  -7 479.086 234.051   8
  -4   4  -8 5826.61 957.879   5
  -4   4  -8 6957.20 931.539   8
   4  -4   8 6501.20 557.163   4
   4  -4   8 7525.76 834.159   3
  -4   4  -9 130.437 174.764   5
   4  -4   9 263.576 189.828   3
  -4   4  -9 238.629 187.225   8
  -4   4 -10 28713.9 2003.61   8
   4  -4  10 23699.2 1669.69   3
  -4   4 -10 24128.3 2138.33   5
  -4   4 -11-250.397 242.140   5
   4  -4  11 62.2145 189.728   3
   4  -4  12 4362.50 764.433   3
  -4   3  11 155.299 126.317   3
   4  -3 -11 102.184 165.577   4
   4  -3 -10 10226.8 1051.83   4
   4  -3 -10 9575.61 949.550   7
  -4   3  10 8809.93 818.644   3
  -4   3   9 126.241 118.418   3
   4  -3  -9 192.824 149.042   4
   4  -3  -9 210.932 184.204   7
  -4   3   8 30049.8 1370.14   3
   4  -3  -8 28393.0 1546.47   7
  -4   3   7-1.47717 139.733   1
  -4   3   7 109.821 82.8049   3
   4  -3  -7-31.9857 89.2450   3
   4  -3  -7 162.916 132.213   7
   4  -3  -6 66230.2 2094.50   3
  -4   3   6 62115.3 2700.67   1
   4  -3  -6 67399.4 2322.52   7
  -4   3   6 70063.5 1969.04   3
   4  -3  -6 69220.1 2209.30   5
   4  -3  -5 63498.7 1800.62   3
   4  -3  -5 65114.7 2435.51   2
  -4   3   5 58783.0 2515.20   1
   4  -3  -5 60170.7 2115.48   7
  -4   3   5 61345.0 1694.31   3
   4  -3  -5 58781.0 2038.93   5
   4  -3  -4 251.234 166.424   2
   4  -3  -4 290.012 130.666   5
  -4   3   4 364.157 194.465   1
   4  -3  -4 93.4419 109.419   7
   4  -3  -3 826.665 238.405   2
   4  -3  -3 458.159 162.660   5
  -4   3   3 863.202 279.830   2
  -4   3   3 641.426 231.425   1
   4  -3  -3 298.238 129.004   7
  -4   3   3 572.657 215.375   6
   4  -3  -2 93779.1 2808.02   2
  -4   3   2 92441.6 2935.34   1
  -4   3   2 94468.8 3044.52   2
  -4   3   2 92844.5 2715.19   6
   4  -3  -1 8231.87 737.413   2
  -4   3   1 7636.00 654.592   6
  -4   3   1 8086.78 800.616   2
  -4   3   1 7267.65 737.173   1
  -4   3   0 123166. 3366.54   1
  -4   3   0 123720. 3000.69   6
   4  -3   0 128068. 3276.90   1
   4  -3   0 126166. 3311.77   2
  -4   3   0 124183. 3509.04   2
  -4   3  -1-58.1057 102.485   5
   4  -3   1 209.180 150.051   5
   4  -3   1 113.899 42.8588   3
   4  -3   1-59.6620 109.053   1
   4  -3   1-23.1380 121.821   2
  -4   3  -1 222.766 105.697   2
  -4   3  -1 119.103 88.7687   6
   4  -3   1-5.80421 43.9527   6
  -4   3  -2 1653.68 386.091   5
   4  -3   2 1936.31 346.382   1
   4  -3   2 1199.24 290.764   5
  -4   3  -2 1886.65 310.425   6
   4  -3   2 1874.36 354.485   2
   4  -3   2 1805.44 208.687   3
   4  -3   2 1529.30 252.540   6
  -4   3  -2 1570.21 330.965   1
  -4   3  -3 265.638 196.254   5
   4  -3   3 394.315 168.240   5
   4  -3   3 139.880 102.717   3
   4  -3   3 296.737 167.054   2
   4  -3   3 397.175 169.731   1
   4  -3   3 182.160 90.9198   6
   4  -3   4 56415.2 2112.35   1
   4  -3   4 56367.0 2303.58   5
   4  -3   4 56933.1 2160.32   7
   4  -3   4 56051.1 1905.89   6
   4  -3   4 55986.9 1746.64   3
   4  -3   4 55141.8 2184.00   2
  -4   3  -4 52492.1 2359.00   5
  -4   3  -5 9718.62 1024.86   5
   4  -3   5 12010.8 983.973   7
   4  -3   5 12315.1 982.321   1
   4  -3   5 13056.0 933.171   6
   4  -3   5 11937.9 831.259   3
   4  -3   5 11813.2 1001.97   2
  -4   3  -6 24010.6 1699.88   5
   4  -3   6 26521.1 1604.24   2
   4  -3   6 26688.4 1523.28   1
  -4   3  -6 26837.9 1622.50   8
   4  -3   6 27412.7 1482.72   6
   4  -3   6 26624.3 1347.91   3
  -4   3  -7 768.922 333.487   5
   4  -3   7 724.045 253.493   3
  -4   3  -7 685.216 273.929   3
  -4   3  -7 928.790 303.175   8
   4  -3   7 613.682 242.263   6
   4  -3   7 762.888 191.868   4
  -4   3  -8 26043.7 1948.27   5
   4  -3   8 26381.4 1095.11   4
  -4   3  -8 28805.4 1790.64   8
   4  -3   8 25768.4 1521.58   3
  -4   3  -9-253.926 280.323   5
   4  -3   9-115.683 222.327   3
  -4   3  -9 39.5654 96.8496   8
  -4   3 -10 11143.6 1397.80   5
  -4   3 -10 10176.4 1116.25   8
   4  -3  10 9300.67 1000.02   3
  -4   3 -11 680.554 379.287   5
   4  -3  11 1081.30 354.148   3
  -4   3 -12 1310.86 522.184   5
   4  -3  12 1661.00 478.413   3
  -4   2  11 353.582 180.330   3
   4  -2 -11 407.588 233.316   7
   4  -2 -10 4297.66 643.016   4
   4  -2 -10 4381.32 697.925   7
  -4   2  10 5156.73 640.565   3
   4  -2  -9 6405.76 801.761   7
  -4   2   9 6438.36 667.066   3
   4  -2  -8 17938.1 1297.36   7
  -4   2   8 19004.2 1080.56   3
   4  -2  -7 44940.4 2022.09   7
  -4   2   7 44649.8 1612.05   3
  -4   2   6 20627.6 1480.25   1
   4  -2  -6 22334.3 1335.21   7
  -4   2   6 22187.3 1012.30   3
   4  -2  -6 23655.4 1041.21   5
  -4   2   5 5671.41 439.988   3
   4  -2  -5 4618.69 609.896   2
  -4   2   5 5609.94 731.180   1
   4  -2  -5 4622.96 569.305   7
   4  -2  -5 4945.95 456.008   5
   4  -2  -4 76469.7 2599.48   2
  -4   2   4 74854.0 2732.74   1
   4  -2  -4 77394.1 2470.21   7
  -4   2   4 77642.7 2750.24   2
  -4   2   4 78768.7 1756.04   3
   4  -2  -4 78141.9 2092.65   5
   4  -2  -3 15204.7 1042.54   2
   4  -2  -3 14164.2 942.320   7
  -4   2   3 15041.5 1111.06   1
  -4   2   3 14552.0 1093.69   2
  -4   2   3 14749.2 525.760   3
   4  -2  -3 13036.2 788.367   5
   4  -2  -2 71670.9 2083.53   5
   4  -2  -2 75334.8 2428.09   2
  -4   2   2 70709.2 2565.19   1
  -4   2   2 70177.0 2507.97   2
  -4   2   1 115.833 127.974   1
   4  -2  -1 119.818 63.4870   5
   4  -2  -1 4.95411 109.340   2
  -4   2   1 111.045 72.0792   6
   4  -2   0 17702.3 998.316   5
   4  -2   0 19012.1 1111.64   1
   4  -2   0 19092.0 1115.06   2
  -4   2   0 19162.0 858.754   6
  -4   2   0 16882.6 951.392   5
  -4   2   0 18613.3 1139.30   1
  -4   2  -1 90.2833 107.772   5
   4  -2   1-9.73809 113.035   2
   4  -2   1-18.6698 80.5394   1
  -4   2  -1 92.8150 74.8210   6
  -4   2  -2 108295. 2370.71   6
   4  -2   2 108311. 1958.38   3
   4  -2   2 103304. 2942.10   2
   4  -2   2 109339. 2964.31   1
   4  -2   2 102532. 2212.45   6
  -4   2  -2 104052. 2994.23   5
  -4   2  -3 36944.1 1742.99   5
   4  -2   3 36074.4 1643.55   5
  -4   2  -3 38504.3 1242.01   3
  -4   2  -3 36990.5 1625.01   1
   4  -2   3 35721.6 1209.91   6
   4  -2   3 38169.6 1145.29   3
   4  -2   3 37385.1 1660.93   2
   4  -2   3 40474.7 1692.95   1
  -4   2  -4 79712.0 2793.74   5
  -4   2  -4 77186.8 2153.47   3
   4  -2   4 82125.8 2686.00   5
   4  -2   4 81958.4 2596.90   1
   4  -2   4 79320.6 2119.44   6
   4  -2   4 81576.7 2052.04   3
  -4   2  -4 80060.7 2543.24   1
   4  -2   4 81918.4 2657.13   2
  -4   2  -5 83.1957 220.535   5
   4  -2   5 365.378 201.104   5
   4  -2   5 407.338 251.608   3
   4  -2   5 1329.88 333.444   1
   4  -2   5 1038.56 336.080   2
   4  -2   5 480.925 220.622   7
   4  -2   5 632.485 229.565   6
  -4   2  -6 20322.4 1477.81   5
  -4   2  -6 19240.3 1220.01   3
   4  -2   6 18221.6 994.063   4
   4  -2   6 20701.0 1309.66   1
   4  -2   6 21125.4 1188.77   6
   4  -2   6 20270.3 1113.10   3
  -4   2  -7 2200.06 520.621   5
   4  -2   7 1934.24 361.981   3
   4  -2   7 2485.74 335.793   4
  -4   2  -7 1997.03 425.288   3
  -4   2  -7 2159.05 429.228   8
   4  -2   7 2304.54 417.338   6
  -4   2  -8 9650.60 1135.02   5
   4  -2   8 9396.33 627.023   4
  -4   2  -8 10152.7 991.692   8
   4  -2   8 9368.90 904.151   6
   4  -2   8 9428.19 855.987   3
  -4   2  -9 497.202 319.125   5
   4  -2   9 219.199 154.334   3
  -4   2  -9 407.008 199.704   8
   4  -2   9 424.243 121.279   4
  -4   2 -10 32405.7 2371.49   5
  -4   2 -10 30932.4 1876.90   8
   4  -2  10 31817.5 1805.14   3
  -4   2 -11 2057.19 637.806   5
   4  -2  11 2812.35 549.811   3
  -4   2 -11 2052.20 478.853   8
  -4   2 -12 15864.7 1831.88   5
   4  -2  12 20308.8 1562.90   3
   4  -2  13 313.717 215.585   3
  -4   1  12 3993.16 656.037   3
   4  -1 -12 3712.23 718.193   7
   4  -1 -11 7955.03 1016.21   7
  -4   1  11 8977.75 931.761   3
   4  -1 -10 7611.30 953.822   7
  -4   1  10 6749.78 769.359   3
  -4   1   9 205.811 137.365   3
   4  -1  -9-41.6989 128.411   7
   4  -1  -8 21218.4 799.075   5
   4  -1  -8 22155.1 1523.08   7
  -4   1   8 21470.6 1224.32   3
   4  -1  -7 126.172 68.0255   5
   4  -1  -7 195.788 78.4065   5
  -4   1   7 234.468 123.158   3
   4  -1  -7-21.5747 131.335   7
   4  -1  -6 28977.1 1618.35   7
  -4   1   6 28259.4 1747.60   1
  -4   1   6 29968.8 1259.81   3
   4  -1  -6 30101.1 903.753   5
   4  -1  -5 11919.1 991.890   2
  -4   1   5 11851.7 1055.35   1
   4  -1  -5 11673.2 971.613   7
  -4   1   5 12086.0 708.990   3
   4  -1  -5 12644.9 540.579   5
   4  -1  -4 1764.55 199.130   5
   4  -1  -4 1348.04 329.066   2
  -4   1   4 1775.41 390.135   1
  -4   1   4 1962.17 402.892   2
   4  -1  -4 1171.09 305.390   7
  -4   1   4 2023.53 256.442   3
   4  -1  -3 45792.0 1239.03   5
   4  -1  -3 47223.7 1872.15   7
   4  -1  -3 48699.4 1919.60   2
  -4   1   3 49001.4 2061.09   1
  -4   1   3 51221.3 2046.38   2
  -4   1   3 47705.4 1215.80   3
   4  -1  -2 39024.3 1174.85   5
   4  -1  -2 39150.8 1657.38   2
   4  -1  -2 35645.5 1542.05   7
  -4   1   2 37060.1 860.963   3
   4  -1  -1 2953.02 317.459   5
   4  -1  -1 2996.43 436.601   2
  -4   1   1 3051.71 320.237   6
   4  -1   0 310356. 5434.17   5
   4  -1   0 317258. 6036.65   1
   4  -1   0 313031. 5945.90   2
  -4   1   0 299727. 4889.75   6
  -4   1   0 304934. 5397.13   5
   4  -1   1 60844.0 1884.30   5
   4  -1   1 64457.5 2156.48   1
   4  -1   1 62079.1 2092.28   2
  -4   1  -1 61050.1 1371.10   6
  -4   1  -1 63259.5 1149.96   3
  -4   1  -1 60837.9 1924.14   5
  -4   1  -2 97792.6 2677.71   5
   4  -1   2 98114.3 2631.96   5
   4  -1   2 93032.8 1803.54   3
   4  -1   2 90621.7 2678.83   2
   4  -1   2 96992.3 2747.80   1
  -4   1  -2 94675.0 1899.54   3
   4  -1   3 3555.88 482.172   1
  -4   1  -3 3427.84 487.322   5
  -4   1  -3 4047.56 504.515   1
   4  -1   3 3502.03 306.529   3
   4  -1   3 3631.68 284.365   6
   4  -1   3 4252.48 522.467   2
  -4   1  -3 3858.12 359.132   3
  -4   1  -4 33.2425 133.589   5
   4  -1   4 538.952 150.021   3
   4  -1   4 115.208 110.312   1
   4  -1   4 599.079 222.550   5
  -4   1  -4 136.161 57.4917   3
   4  -1   4 182.616 144.203   2
   4  -1   4-7.92060 60.3661   4
  -4   1  -4 139.946 105.700   1
   4  -1   4 49.5264 37.9851   6
   4  -1   5 9532.02 861.996   2
  -4   1  -5 9238.34 883.238   5
   4  -1   5 9550.52 719.307   4
   4  -1   5 10516.9 683.132   6
   4  -1   5 11965.3 938.784   1
   4  -1   5 11123.1 706.606   3
  -4   1  -6 9130.87 833.765   3
  -4   1  -6 10017.1 979.653   5
   4  -1   6 8580.60 659.928   4
   4  -1   6 9833.83 883.635   1
   4  -1   6 9535.99 858.873   7
   4  -1   6 9569.57 725.469   6
   4  -1   6 9367.52 712.978   3
  -4   1  -7 5059.90 669.460   3
   4  -1   7 4938.04 559.866   3
  -4   1  -7 5356.41 751.556   5
   4  -1   7 4320.96 442.170   4
   4  -1   7 5014.13 661.560   1
  -4   1  -8 60592.3 2635.51   3
  -4   1  -8 58676.9 2779.28   5
   4  -1   8 52807.5 1639.68   4
  -4   1  -8 57347.7 2315.72   8
   4  -1   8 57509.7 2155.25   3
  -4   1  -9 9338.83 1171.65   5
   4  -1   9 12491.0 674.414   4
  -4   1  -9 11709.5 1032.78   8
   4  -1   9 12499.0 1017.83   3
  -4   1 -10 55416.1 3067.16   5
  -4   1 -10 58528.3 2484.13   8
   4  -1  10 58583.5 2428.46   3
  -4   1 -11 2620.27 700.864   5
   4  -1  11 2153.69 478.285   3
  -4   1 -11 2978.13 550.709   8
  -4   1 -12 20779.0 2076.23   5
  -4   1 -12 21195.3 1516.93   8
   4  -1  12 21543.2 1580.83   3
  -4   1 -13-262.947 270.993   5
   4  -1  13 17.8684 118.740   3
  -4   0  12 4499.39 717.649   3
   4   0 -12 4040.41 782.406   7
  -4   0  11 127.239 123.067   3
   4   0 -11-87.8091 223.845   7
   4   0 -10 18628.7 1567.70   7
  -4   0  10 16018.9 1256.56   3
  -4   0   9 859.812 282.852   3
   4   0  -9 1325.33 420.578   7
  -4   0   8 2058.18 401.516   3
   4   0  -8 1556.94 417.058   7
  -4   0   7 1435.96 318.845   3
   4   0  -7 824.706 301.591   7
  -4   0   6 23496.1 1564.31   1
   4   0  -6 24887.3 1569.86   7
  -4   0   6 25272.3 1243.81   3
  -4   0   5 26375.3 1600.73   1
   4   0  -5 28495.4 1613.58   7
  -4   0   5 30091.4 1266.64   3
   4   0  -4 54714.9 2119.11   2
  -4   0   4 51226.0 2188.46   1
   4   0  -4 52251.0 2150.05   7
  -4   0   4 52425.8 2116.82   2
  -4   0   4 55135.9 1658.96   3
   4   0  -3 60675.4 2152.34   2
   4   0  -3 57415.4 2206.23   7
  -4   0   3 56292.0 2224.82   1
  -4   0   3 58608.5 2179.63   2
  -4   0   3 59168.1 1618.45   3
  -4   0   2 32923.1 1038.94   3
   4   0  -2 33156.9 1494.60   2
   4   0  -2 31067.8 1503.41   7
  -4   0   1 1543.25 188.480   3
   4   0  -1 1396.22 279.114   2
  -4   0   1 1232.05 167.688   5
   4   0   0 22528.0 1215.25   1
   4   0   0 22819.3 1174.98   2
  -4   0   0 21471.5 702.862   3
  -4   0   0 22280.5 662.416   6
  -4   0   0 22062.2 898.726   5
  -4   0  -1 642.299 175.823   5
  -4   0  -1 518.683 106.631   3
   4   0   1 338.715 152.262   2
   4   0   1 304.157 139.727   1
  -4   0  -2 60549.5 1856.15   5
   4   0   2 56274.6 1949.38   4
   4   0   2 60334.7 2014.40   2
   4   0   2 58467.9 2024.09   1
   4   0   3 737.615 159.639   3
  -4   0  -3 738.907 216.693   5
  -4   0  -3 699.612 177.146   3
   4   0   3 512.072 183.070   2
   4   0   3 698.719 214.591   4
   4   0   3 605.104 191.176   1
  -4   0  -4 104518. 2959.02   5
   4   0   4 101938. 2916.82   1
   4   0   4 92871.8 2595.91   4
   4   0   4 98609.2 1957.76   6
   4   0   4 99758.2 2320.02   3
  -4   0  -4 95882.3 2526.08   3
   4   0   4 96706.2 2852.32   2
   4   0   5 42831.5 1844.26   2
  -4   0  -5 41898.6 1898.20   5
   4   0   5 43761.4 1617.07   4
   4   0   5 44058.4 1853.90   1
   4   0   5 43774.7 1479.69   3
  -4   0  -6 61688.5 2521.32   5
   4   0   6 62385.6 1950.14   4
   4   0   6 66311.5 2416.58   1
   4   0   6 64658.5 1994.20   3
  -4   0  -6 60022.6 2289.19   3
  -4   0  -7 9383.06 1005.61   5
   4   0   7 11704.2 747.539   4
   4   0   7 10591.3 944.841   7
   4   0   7 11312.1 987.516   1
   4   0   7 12297.3 862.812   3
  -4   0  -7 10355.1 977.924   3
   4   0   8 2322.42 416.109   3
  -4   0  -8 3089.25 648.680   5
  -4   0  -8 2095.52 477.912   3
   4   0   8 1727.98 273.463   4
  -4   0  -9 2822.74 656.891   5
   4   0   9 4178.00 402.854   4
  -4   0  -9 3676.77 538.341   8
   4   0   9 4093.79 562.541   3
  -4   0 -10 29916.5 2220.97   5
  -4   0 -10 31298.6 1666.47   8
   4   0  10 29180.5 1090.18   4
   4   0  10 28761.8 1614.89   3
  -4   0 -11 6335.20 1085.16   5
  -4   0 -11 7018.40 790.110   8
   4   0  11 6539.35 802.032   3
  -4   0 -12 11475.1 1541.07   5
  -4   0 -12 11973.7 1057.71   8
   4   0  12 11859.2 1134.65   3
  -4   0 -13 5449.48 1123.57   5
   4   0  13 8908.78 1023.25   3
  -4  -1  11 183.742 206.366   3
   4   1 -11-221.984 205.230   7
  -4  -1  10 2241.49 486.364   3
   4   1 -10 2917.11 659.524   7
   4   1  -9 5604.15 869.309   7
  -4  -1   9 6962.53 810.093   3
   4   1  -8 39277.0 1982.30   4
   4   1  -8 38834.8 2234.76   7
  -4  -1   8 39602.1 1903.27   3
  -4  -1   7 2586.91 441.110   3
   4   1  -7 2472.84 471.017   4
   4   1  -7 2090.80 477.340   7
   4   1  -6 19030.6 1304.60   4
  -4  -1   6 20725.1 1456.25   1
   4   1  -6 21365.3 1509.79   7
  -4  -1   6 20747.9 1210.80   3
   4   1  -5 3438.50 527.864   4
  -4  -1   5 4415.86 635.380   1
   4   1  -5 3881.68 619.016   7
  -4  -1   5 4869.14 548.513   3
  -4  -1   4 5422.07 539.561   3
   4   1  -4 4136.09 567.700   4
   4   1  -4 4486.74 575.727   2
  -4  -1   4 3732.51 557.482   1
   4   1  -4 4088.04 610.709   7
  -4  -1   4 4729.36 593.271   2
  -4  -1   3 2381.62 333.633   3
   4   1  -3 2563.91 414.385   2
  -4  -1   3 1896.12 365.251   2
  -4  -1   3 2541.67 450.915   1
   4   1  -3 2369.90 415.270   4
   4   1  -3 1547.54 365.338   7
  -4  -1   2 9471.40 625.569   3
   4   1  -2 8932.92 821.007   4
   4   1  -2 9709.16 772.126   2
   4   1  -2 10021.9 927.995   7
  -4  -1   2 9289.38 823.951   1
  -4  -1   2 8900.12 764.470   2
   4   1  -1 1126.87 243.831   2
  -4  -1   1 987.420 241.504   2
   4   1  -1 1195.40 285.027   4
   4   1  -1 830.008 222.615   7
  -4  -1   1 1183.61 136.156   5
  -4  -1   0 96143.1 1986.93   5
   4   1   0 95780.1 2726.92   1
   4   1   0 89490.6 2526.24   2
  -4  -1   0 92072.0 1757.98   6
  -4  -1   0 91686.8 2607.34   2
  -4  -1  -1 8657.09 560.349   5
  -4  -1  -1 7715.71 498.617   3
   4   1   1 8950.24 748.601   1
   4   1   1 7837.16 657.830   2
  -4  -1  -1 8291.76 695.955   2
  -4  -1  -2 82806.6 2505.15   2
  -4  -1  -2 89957.0 2152.97   3
   4   1   2 86954.0 2482.94   2
   4   1   2 87884.7 2608.65   1
   4   1   3 81486.2 2509.81   1
  -4  -1  -3 85386.7 2424.99   5
   4   1   3 84209.7 2430.38   4
  -4  -1  -3 78342.4 2124.33   3
   4   1   3 81871.3 2428.60   2
  -4  -1  -4 234265. 4983.10   5
   4   1   4 228945. 4933.41   1
   4   1   4 219678. 4593.81   4
   4   1   4 223373. 4259.86   3
  -4  -1  -4 227538. 4583.82   3
   4   1   4 222397. 4800.57   2
   4   1   5 9089.19 807.622   2
  -4  -1  -5 4801.92 632.662   5
   4   1   5 10640.7 877.917   1
   4   1   5 13876.6 881.875   3
   4   1   6 200.238 144.544   3
  -4  -1  -6 48.8789 105.651   5
  -4  -1  -6 154.488 77.9008   3
   4   1   6 336.798 131.867   4
   4   1   7 3.90199 128.318   3
  -4  -1  -7 121.661 168.283   3
   4   1   7-36.3910 64.0014   1
   4   1   7 114.448 94.6458   4
  -4  -1  -8 29897.6 1958.31   5
   4   1   8 28022.5 1215.37   4
   4   1   8 30110.4 1475.40   3
  -4  -1  -8 26213.5 1725.15   3
   4   1   9 104.999 87.5774   3
  -4  -1  -9 451.512 255.973   5
   4   1   9 297.340 116.711   4
  -4  -1 -10 10280.0 1320.69   5
   4   1  10 8276.03 615.711   4
  -4  -1 -10 9600.81 840.024   8
   4   1  10 9912.40 917.691   3
   4   1  11 442.628 227.059   3
  -4  -1 -11 58.3840 149.626   5
  -4  -1 -11 529.499 214.579   8
  -4  -1 -12 10742.3 1503.25   5
  -4  -1 -12 12809.9 1020.49   8
   4   1  12 12972.1 1168.18   3
   4   1  13 4094.51 705.884   3
  -4  -1 -13 5316.31 1099.49   5
  -4  -2  11 4099.10 716.097   3
   4   2 -10 12180.3 1379.64   7
  -4  -2  10 10384.2 1106.19   3
   4   2  -9 6109.84 941.986   7
  -4  -2   9 6407.91 830.747   3
  -4  -2   8 1405.46 379.340   3
   4   2  -8 718.288 294.236   7
  -4  -2   7 192.765 150.915   1
  -4  -2   7 39.5399 177.586   3
   4   2  -7 67.8496 118.017   7
   4   2  -7 174.585 146.150   4
  -4  -2   6 11926.5 982.731   3
   4   2  -6 10809.7 966.015   4
  -4  -2   6 11722.7 1084.18   1
   4   2  -6 10792.1 1130.69   7
  -4  -2   5 9299.76 831.227   3
   4   2  -5 8319.03 824.390   4
  -4  -2   5 9270.92 917.117   1
   4   2  -5 8770.76 975.358   7
  -4  -2   4 60095.4 2097.62   3
   4   2  -4 55264.4 2184.72   4
   4   2  -4 57607.3 2508.19   7
  -4  -2   4 56901.1 2163.98   2
  -4  -2   4 54981.4 2267.94   1
  -4  -2   3 8164.65 696.991   3
   4   2  -3 9163.91 827.183   4
   4   2  -3 9521.43 810.735   2
   4   2  -3 8736.95 910.574   7
  -4  -2   3 8466.08 818.317   1
  -4  -2   3 8728.97 765.080   2
   4   2  -2 61398.3 2215.44   4
   4   2  -2 61108.5 2121.43   2
   4   2  -2 61316.1 2472.48   7
  -4  -2   2 61493.3 2095.87   2
  -4  -2   2 59204.2 2211.67   1
   4   2  -1 723.328 185.868   2
  -4  -2   1 714.885 101.555   5
  -4  -2   1 679.193 195.903   2
   4   2  -1 1041.30 263.448   4
  -4  -2   1 530.410 218.192   1
   4   2  -1 530.452 221.347   7
  -4  -2   1 583.690 143.700   6
   4   2   0 711.408 214.821   1
   4   2   0 628.629 191.515   2
  -4  -2   0 809.524 152.881   5
  -4  -2   0 910.582 219.406   2
   4   2   0 643.578 218.489   7
  -4  -2   0 409.889 179.149   1
  -4  -2   0 683.708 130.837   6
  -4  -2  -1 1022.76 252.202   1
   4   2   1 1159.47 239.996   2
   4   2   1 1388.20 291.865   1
  -4  -2  -1 1572.95 295.878   2
  -4  -2  -1 1406.66 148.724   6
  -4  -2  -2 109409. 2840.24   2
  -4  -2  -2 107295. 2947.31   1
  -4  -2  -2 103373. 2498.87   3
   4   2   2 108570. 2764.06   2
   4   2   2 114909. 3013.47   1
  -4  -2  -3 1260.99 232.742   3
   4   2   3 780.245 204.650   2
  -4  -2  -3 902.257 247.400   1
  -4  -2  -3 750.139 248.588   4
   4   2   3 926.795 102.414   6
   4   2   3 995.033 240.888   1
   4   2   4 26725.2 1381.08   1
  -4  -2  -4 25991.6 1377.72   4
   4   2   4 25717.2 1272.93   4
   4   2   4 26869.8 784.176   6
  -4  -2  -4 24113.1 1286.94   1
   4   2   4 25455.5 1272.56   2
   4   2   5 1409.91 281.030   3
   4   2   5 965.125 267.886   2
  -4  -2  -5 1411.18 334.896   4
   4   2   5 1171.94 263.523   4
   4   2   5 1281.91 319.255   1
  -4  -2  -6 154032. 3927.91   4
   4   2   6 162161. 3659.08   4
   4   2   6 159097. 4070.83   1
   4   2   6 158639. 3667.45   3
  -4  -2  -6 150151. 4032.37   3
   4   2   7 114.738 136.756   3
  -4  -2  -7 181.707 176.817   5
  -4  -2  -7 6.05564 104.641   3
   4   2   7 149.753 116.739   1
  -4  -2  -7 185.557 134.984   4
   4   2   7 204.931 115.686   4
  -4  -2  -8 7160.90 970.062   5
  -4  -2  -8 7064.14 740.963   4
   4   2   8 7306.17 633.022   4
   4   2   8 7812.73 754.076   3
  -4  -2  -8 7423.93 908.864   3
   4   2   9 1464.92 336.016   3
  -4  -2  -9 1225.43 324.027   4
   4   2   9 1573.35 291.880   4
  -4  -2 -10 25544.2 2121.86   5
   4   2  10 24598.7 1188.39   4
   4   2  10 26871.6 1557.73   3
   4   2  11 2262.46 476.107   3
  -4  -2 -11 972.477 426.298   5
  -4  -2 -11 2087.95 375.224   8
  -4  -2 -12 41666.4 3065.52   5
  -4  -2 -12 45429.0 1867.91   8
  -4  -2 -13 14761.1 1901.01   5
   4   2  13 18265.0 1457.50   3
  -4  -3  10 897.127 331.049   1
  -4  -3  10 1301.03 424.692   3
   4   3 -10 758.250 376.821   7
  -4  -3   9 7065.31 959.354   1
   4   3  -9 7273.17 1076.15   7
  -4  -3   9 6852.16 904.065   3
  -4  -3   8 29388.7 1903.47   1
   4   3  -8 30232.1 2145.68   7
  -4  -3   8 30443.2 1856.79   3
  -4  -3   7 7949.14 892.573   3
   4   3  -7 8168.54 845.512   4
  -4  -3   7 8700.33 979.210   1
   4   3  -7 8664.38 1106.72   7
  -4  -3   6 35990.8 1865.03   3
   4   3  -6 31398.3 1686.52   4
  -4  -3   6 33141.5 1863.66   1
   4   3  -6 29829.2 2010.67   7
  -4  -3   5 172.844 159.523   1
  -4  -3   5 279.324 195.945   3
   4   3  -5-34.1958 92.2026   4
   4   3  -5 131.506 130.929   7
  -4  -3   4 1099.71 276.574   2
  -4  -3   4 1616.67 367.413   1
  -4  -3   4 1626.50 355.611   3
   4   3  -4 1382.83 323.002   4
   4   3  -4 1723.09 461.349   7
   4   3  -3 36023.2 1699.83   4
   4   3  -3 34160.1 1947.04   7
  -4  -3   3 37294.6 1632.13   2
  -4  -3   3 34266.2 1690.20   1
  -4  -3   3 39272.4 1665.65   6
   4   3  -2 11705.1 933.944   4
   4   3  -2 14390.6 954.976   2
   4   3  -2 13928.1 1283.53   7
  -4  -3   2 14608.4 937.936   2
  -4  -3   2 12103.6 939.830   1
  -4  -3   2 12402.9 414.673   5
   4   3  -1 2773.11 390.186   2
   4   3  -1 3467.24 489.050   4
  -4  -3   1 2831.50 438.721   1
   4   3  -1 3163.51 535.314   7
  -4  -3   1 3250.98 386.378   6
  -4  -3   1 2996.14 401.931   2
  -4  -3   0 77180.4 2458.09   1
   4   3   0 76822.4 2498.18   4
   4   3   0 79707.9 2447.17   1
   4   3   0 80690.7 2276.69   2
   4   3   0 79619.2 2797.36   7
  -4  -3   0 80451.9 2020.15   6
  -4  -3   0 76908.5 2253.02   2
   4   3   1 335.754 126.898   2
   4   3   1 80.8161 101.843   1
  -4  -3  -1-56.3919 124.827   1
  -4  -3  -1 39.5136 50.3893   2
  -4  -3  -1 133.814 111.227   4
  -4  -3  -1 9.37486 44.9711   6
  -4  -3  -2 3224.61 488.725   4
  -4  -3  -2 3010.13 433.592   1
   4   3   2 3643.37 307.463   6
   4   3   2 3507.20 415.278   2
   4   3   2 3324.51 456.945   1
  -4  -3  -2 2959.87 259.873   6
   4   3   3-2.02347 83.7246   2
  -4  -3  -3 6.26811 82.0880   1
   4   3   3-25.1552 100.487   1
   4   3   3 4.40255 43.1935   6
   4   3   4 87171.1 2667.83   1
  -4  -3  -4 85541.9 2728.81   4
   4   3   4 87653.9 2575.94   4
   4   3   4 85048.1 1938.46   6
  -4  -3  -4 83294.7 2550.16   1
   4   3   4 84099.6 2440.23   2
  -4  -3  -5 13674.7 1027.01   4
   4   3   5 14912.2 1047.37   1
   4   3   5 12258.2 898.238   4
  -4  -3  -5 10440.2 857.149   3
   4   3   5 12185.3 665.314   6
   4   3   5 12609.9 899.545   2
  -4  -3  -6 69958.8 2471.05   4
   4   3   6 71076.8 2264.02   4
   4   3   6 69088.0 2494.86   1
   4   3   6 66614.5 2267.86   3
  -4  -3  -6 65383.0 2431.59   3
   4   3   6 65112.3 1831.94   6
   4   3   7 1700.62 366.863   3
  -4  -3  -7 1198.85 319.772   3
   4   3   7 1291.53 331.759   1
  -4  -3  -7 1437.93 350.312   4
   4   3   7 1267.81 285.374   4
  -4  -3  -8 15982.0 1153.00   4
   4   3   8 15124.9 985.900   4
   4   3   8 16872.2 1141.35   3
  -4  -3  -9 10746.1 964.438   4
   4   3   9 10357.9 811.338   4
   4   3   9 9757.74 918.212   3
  -4  -3 -10 79371.8 2827.58   4
   4   3  10 71930.6 2333.93   4
   4   3  10 75754.7 2796.93   3
   4   3  11 2156.88 495.040   3
  -4  -3 -11 2178.73 679.260   5
  -4  -3 -11 2121.09 442.737   4
  -4  -3 -11 1088.63 267.974   8
  -4  -3 -12 6181.76 1181.98   5
  -4  -3 -12 6434.02 789.648   4
   4   3  12 6279.86 851.725   3
  -4  -3 -13 9780.23 1538.91   5
   4   3  13 9827.47 1083.75   3
  -4  -4  10 13752.3 1407.68   1
  -4  -4   9 8475.17 1049.80   1
   4   4  -9 8332.62 1206.17   7
  -4  -4   9 9207.00 1105.51   3
  -4  -4   8 8379.69 996.942   1
   4   4  -8 8409.69 1178.92   7
  -4  -4   8 8061.02 1013.68   3
  -4  -4   7 574.608 231.698   1
  -4  -4   7 363.632 209.217   3
   4   4  -7 768.435 349.860   7
  -4  -4   6 5535.27 768.102   3
   4   4  -6 4692.31 646.010   4
  -4  -4   6 4745.01 685.742   1
   4   4  -6 4690.47 805.896   7
  -4  -4   5 36075.8 1925.34   3
   4   4  -5 37828.2 1853.91   4
   4   4  -5 34764.8 2202.72   7
  -4  -4   5 35088.6 1841.69   1
  -4  -4   4 33824.5 1801.49   3
   4   4  -4 33742.3 1720.55   4
   4   4  -4 33363.8 2098.37   7
  -4  -4   4 31577.9 1551.99   2
  -4  -4   4 33899.0 1750.79   1
  -4  -4   4 36446.0 1824.34   6
  -4  -4   3 25330.6 807.818   5
   4   4  -3 26373.7 1474.47   4
   4   4  -3 30195.1 1933.03   7
  -4  -4   3 26087.4 1334.10   2
  -4  -4   3 26617.7 1468.05   1
  -4  -4   3 24972.9 1399.11   6
   4   4  -2 11622.8 952.031   4
   4   4  -2 12767.0 925.732   2
   4   4  -2 11759.0 1169.40   7
  -4  -4   2 11562.7 825.950   2
  -4  -4   2 11482.8 875.315   6
  -4  -4   2 10784.3 887.392   1
  -4  -4   2 11699.5 600.390   5
  -4  -4   1 6478.61 709.866   4
   4   4  -1 6663.56 697.977   4
   4   4  -1 6621.23 616.579   2
   4   4  -1 7402.76 886.936   7
  -4  -4   1 6637.46 591.774   2
  -4  -4   1 6250.81 656.729   1
  -4  -4   0 45560.9 1812.05   1
  -4  -4   0 48494.3 2021.55   4
   4   4   0 51056.5 1994.25   4
   4   4   0 47401.1 1827.21   1
   4   4   0 49007.0 1697.76   2
   4   4   0 48533.4 2275.56   7
  -4  -4   0 46823.0 1641.49   6
  -4  -4   0 46084.4 1622.59   2
  -4  -4  -1 6570.24 717.828   4
  -4  -4  -1 7125.91 663.299   1
   4   4   1 5532.92 513.361   2
   4   4   1 7295.53 713.863   4
   4   4   1 6203.80 615.907   1
   4   4   1 6165.89 757.145   7
  -4  -4  -1 5532.05 492.607   6
  -4  -4  -1 5595.49 514.165   2
  -4  -4  -2 10598.0 913.932   4
   4   4   2 10411.1 853.635   4
   4   4   2 9113.10 654.552   2
  -4  -4  -2 9159.45 754.144   1
   4   4   2 10283.4 652.092   6
   4   4   2 10016.1 793.741   1
  -4  -4  -2 9713.76 596.611   6
  -4  -4  -3 29662.3 1571.52   4
   4   4   3 29291.6 1458.83   4
  -4  -4  -3 24882.2 1274.95   3
  -4  -4  -3 27516.4 1334.79   1
   4   4   3 29021.4 1143.62   6
   4   4   3 27781.7 1202.21   2
   4   4   3 28005.7 1399.39   1
   4   4   4 50798.6 1969.45   1
  -4  -4  -4 51142.1 2108.74   4
   4   4   4 49228.0 1934.94   4
  -4  -4  -4 44418.8 1801.89   3
   4   4   4 49517.3 1586.28   6
   4   4   4 48332.1 1713.13   2
  -4  -4  -4 47959.1 1851.97   1
   4   4   5 39493.4 1773.67   1
  -4  -4  -5 40328.1 1858.08   4
   4   4   5 38169.9 1686.30   4
  -4  -4  -5 35516.5 1642.31   3
   4   4   5 37081.6 1410.52   6
   4   4   5 38590.8 1591.80   2
  -4  -4  -6 12995.2 1050.07   4
   4   4   6 12797.8 951.649   4
   4   4   6 11940.2 990.869   1
  -4  -4  -6 13712.9 1032.65   3
   4   4   6 13122.2 836.444   6
   4   4   7 2847.02 490.321   1
   4   4   7 3649.45 503.986   4
  -4  -4  -7 3316.39 530.945   4
   4   4   7 2909.02 410.234   6
  -4  -4  -8 56979.1 2341.73   4
   4   4   8 56917.8 2144.38   4
   4   4   8 55925.1 2284.93   3
  -4  -4  -9 5038.94 667.694   4
   4   4   9 5034.28 606.532   4
   4   4   9 4488.40 568.723   7
   4   4   9 4175.06 621.841   3
   4   4  10 255.568 217.634   3
  -4  -4 -10 227.473 144.005   4
  -4  -4 -11 6251.96 783.375   4
   4   4  11 5462.01 755.491   3
  -4  -4 -12 48401.6 2309.50   4
   4   4  12 57497.1 2620.52   3
   4   4  13 442.713 210.106   3
  -4  -4 -13 445.003 370.074   5
  -4  -5   9 192.205 185.446   1
  -4  -5   9 151.394 214.728   3
  -4  -5   8 5426.00 866.140   3
  -4  -5   8 5008.29 774.168   1
   4   5  -8 4492.94 901.341   7
  -4  -5   7 33490.0 2124.50   3
   4   5  -7 33575.0 2425.40   7
  -4  -5   7 30708.6 1876.67   1
  -4  -5   6 70497.4 3058.40   3
   4   5  -6 76154.1 3634.06   7
  -4  -5   6 71741.2 2839.32   1
  -4  -5   5 2526.71 478.386   1
  -4  -5   5 3167.46 603.445   3
   4   5  -5 2652.16 495.315   4
   4   5  -5 3904.22 779.474   7
  -4  -5   4 1692.33 237.723   5
  -4  -5   4 1670.75 342.676   2
  -4  -5   4 2228.29 430.524   1
  -4  -5   4 2054.48 466.888   3
   4   5  -4 1677.43 383.808   4
   4   5  -4 1854.65 523.712   7
  -4  -5   3 66.8689 54.9976   5
  -4  -5   3-23.2202 61.5653   2
  -4  -5   3 8.87532 84.3642   1
   4   5  -3-263.752 153.072   4
   4   5  -3-77.7649 125.104   7
  -4  -5   3 17.2792 65.0797   6
  -4  -5   2 33741.7 1748.81   4
   4   5  -2 35875.2 1758.67   4
   4   5  -2 37483.0 2260.65   7
  -4  -5   2 32499.7 1410.57   2
  -4  -5   2 37547.4 1758.13   6
  -4  -5   2 33404.9 1599.88   1
  -4  -5   2 35102.6 1326.82   5
  -4  -5   1 23949.8 1440.70   4
   4   5  -1 25114.0 1433.44   4
   4   5  -1 22568.3 1663.01   7
  -4  -5   1 24274.0 1326.43   6
  -4  -5   1 23181.3 1118.50   2
  -4  -5   1 23527.7 1281.58   1
  -4  -5   0 3235.01 450.936   1
  -4  -5   0 3775.96 569.812   4
   4   5   0 3640.37 533.529   4
   4   5   0 3571.64 421.766   2
   4   5   0 4123.98 684.196   7
  -4  -5   0 3606.62 403.584   2
  -4  -5  -1 36663.5 1339.36   2
  -4  -5  -1 36594.3 1817.62   4
   4   5   1 36996.4 1747.60   4
  -4  -5  -1 36746.8 1558.47   1
   4   5   1 37034.4 1387.53   2
   4   5   1 38436.8 2067.93   7
   4   5   1 37632.0 1591.19   1
  -4  -5  -2 73381.1 2633.34   4
   4   5   2 72675.7 2505.45   4
  -4  -5  -2 68248.1 2193.37   1
   4   5   2 65717.9 1928.17   2
   4   5   2 72458.8 2830.93   7
   4   5   2 68497.7 2249.39   1
   4   5   2 68098.1 2148.56   6
  -4  -5  -3 63060.0 2449.74   4
   4   5   3 63090.8 2303.92   4
   4   5   3 56407.3 2384.82   7
  -4  -5  -3 57271.8 2112.61   3
   4   5   3 58510.2 1756.10   2
   4   5   3 59408.6 1967.23   6
  -4  -5  -3 58940.7 2020.01   1
   4   5   3 59608.9 2104.00   1
  -4  -5  -3 51660.5 1680.14   6
  -4  -5  -4 954.906 257.173   3
   4   5   4 1288.68 252.112   2
  -4  -5  -4 1577.97 404.670   4
   4   5   4 1594.28 351.356   4
   4   5   4 1087.99 242.680   6
   4   5   4 1381.46 322.459   1
   4   5   5 15216.8 1078.78   1
  -4  -5  -5 15289.5 1178.59   4
  -4  -5  -5 12112.9 959.506   3
   4   5   5 13345.4 907.785   6
   4   5   5 13786.2 884.881   2
   4   5   6 91302.3 2683.52   2
  -4  -5  -6 90532.2 3101.39   4
   4   5   6 92471.4 2977.00   1
   4   5   6 88179.8 2661.92   6
  -4  -5  -7 29071.7 1671.98   4
   4   5   7 29742.9 1649.19   1
   4   5   7 24169.9 1338.57   6
  -4  -5  -8 1895.84 434.218   4
   4   5   8 938.036 260.144   6
  -4  -5  -9 20012.1 1411.49   4
   4   5   9 17267.4 1179.85   6
  -4  -5 -10 16291.6 1303.32   4
   4   5  10 14841.8 1266.36   3
   4   5  10 13864.0 1086.02   6
   4   5  11 4022.99 680.910   3
  -4  -5 -11 3319.24 607.826   4
  -4  -5 -12 17134.9 1380.56   4
   4   5  12 20313.4 1578.77   3
   4   5  13 160.286 175.196   3
  -4  -5 -13 163.062 136.992   4
  -4  -6   8 10686.6 1127.91   1
   4   6  -7 2018.38 609.059   7
  -4  -6   7 1699.80 433.411   1
  -4  -6   7 2398.93 596.970   3
  -4  -6   6 2990.28 547.084   1
  -4  -6   6 3712.49 713.623   3
   4   6  -6 2433.73 667.153   7
  -4  -6   5 3557.53 683.243   3
  -4  -6   5 3136.75 536.179   1
   4   6  -5 3480.00 794.050   7
   4   6  -4 94510.3 4030.30   7
  -4  -6   4 92210.6 2976.84   1
  -4  -6   3 22237.1 1149.84   5
  -4  -6   3 26286.6 1569.78   4
   4   6  -3 24427.5 1938.60   7
  -4  -6   3 23972.1 1232.52   2
  -4  -6   3 26464.3 1435.89   1
  -4  -6   2 83.3921 82.4155   5
  -4  -6   2 79.6372 78.4407   2
  -4  -6   2 183.384 154.381   4
   4   6  -2 174.301 183.199   7
  -4  -6   2 14.2334 119.194   1
  -4  -6   2 276.514 120.077   6
  -4  -6   1 12662.3 903.534   1
  -4  -6   1 11956.5 1051.39   4
   4   6  -1 11327.2 1228.00   7
  -4  -6   1 13527.4 1056.96   6
  -4  -6   1 11998.7 757.740   2
  -4  -6   1 12423.3 873.108   5
  -4  -6   0 25547.5 1552.39   4
  -4  -6   0 25018.8 1253.88   1
   4   6   0 22339.4 1692.91   7
  -4  -6   0 25440.5 1401.91   6
  -4  -6   0 24036.8 1031.15   2
   4   6   1 1471.25 301.194   1
  -4  -6  -1 1244.06 266.861   1
   4   6   1 1568.72 260.906   2
  -4  -6  -1 1258.70 328.969   4
   4   6   1 806.931 307.124   7
   4   6   1 957.326 284.200   6
  -4  -6  -1 1142.27 277.086   6
  -4  -6  -2 22255.7 1465.43   4
   4   6   2 23047.3 998.198   2
   4   6   2 21196.9 1551.43   7
   4   6   2 21373.7 1186.45   1
  -4  -6  -2 22057.3 1157.62   1
   4   6   2 20911.5 1253.89   6
  -4  -6  -2 22929.5 1208.24   6
   4   6   3 522.507 146.452   2
   4   6   3 503.305 180.800   1
  -4  -6  -3 845.794 292.283   4
   4   6   3 477.802 219.041   7
   4   6   3 946.058 275.422   6
  -4  -6  -3 877.507 221.197   6
  -4  -6  -4 32452.2 1800.60   4
   4   6   4 32012.5 1232.59   2
   4   6   4 32422.0 1583.96   6
   4   6   4 32879.9 1559.45   1
   4   6   5 5928.12 679.002   1
  -4  -6  -5 5780.66 758.482   4
   4   6   5 5708.96 665.765   6
   4   6   5 5655.53 533.974   2
   4   6   6 13035.0 1052.91   1
  -4  -6  -6 13947.1 1185.30   4
   4   6   6 12384.0 1008.90   6
   4   6   6 13065.6 887.303   2
  -4  -6  -7 54861.9 2460.24   4
   4   6   7 51172.6 2235.76   1
   4   6   7 52142.7 2195.04   6
  -4  -6  -8 34135.4 1936.88   4
   4   6   8 30049.0 1675.91   6
  -4  -6  -9 563.652 243.644   4
   4   6   9 385.896 191.092   6
  -4  -6 -10 10348.9 1079.86   4
   4   6  10 7853.88 885.293   6
  -4  -6 -11 3819.13 658.647   4
   4   6  11 2920.48 559.371   6
  -4  -6 -12 9384.04 1051.90   4
   4   6  12 8613.85 978.126   6
  -4  -6 -13 261.620 207.687   4
   4   6  13 133.526 151.217   6
   4   6  14 871.075 325.171   6
  -4  -7   6 22136.4 1856.03   3
   4   7  -6 18055.0 1917.06   7
  -4  -7   5 16329.1 1555.50   3
   4   7  -5 16866.8 1797.83   7
  -4  -7   5 16255.7 1212.35   1
   4   7  -4 12247.3 1484.31   7
  -4  -7   4 9748.24 886.622   1
  -4  -7   3 4781.53 689.309   4
   4   7  -3 5526.77 967.213   7
  -4  -7   3 5909.39 649.779   1
  -4  -7   2 31788.7 1501.62   1
  -4  -7   2 28659.0 1713.20   4
   4   7  -2 33632.2 2306.54   7
  -4  -7   2 26443.7 1449.60   5
  -4  -7   1 1351.18 320.062   5
  -4  -7   1 1277.56 221.021   2
  -4  -7   1 1180.75 269.611   1
  -4  -7   1 872.976 310.065   4
   4   7  -1 705.901 316.186   7
  -4  -7   0 20872.3 1463.83   4
  -4  -7   0 22348.7 1143.76   1
   4   7   0 17708.2 1570.12   7
  -4  -7  -1 1584.43 391.827   4
   4   7   1 397.288 233.671   7
  -4  -7  -1 1464.87 276.886   1
   4   7   1 1436.06 360.579   6
  -4  -7  -1 1203.44 301.595   6
  -4  -7  -2 6290.41 806.170   4
   4   7   2 7053.11 662.274   1
   4   7   2 5348.70 796.402   7
   4   7   2 6174.19 735.988   6
  -4  -7  -2 7359.77 735.762   6
  -4  -7  -2 7183.58 637.302   1
   4   7   3 2394.59 262.419   2
  -4  -7  -3 2700.53 530.472   4
   4   7   3 3427.26 463.019   1
   4   7   3 3014.67 596.522   7
   4   7   3 2795.56 498.408   6
  -4  -7  -3 2802.07 437.163   6
  -4  -7  -4 27689.8 1723.10   4
   4   7   4 26372.2 1002.19   2
   4   7   4 24965.4 1537.82   6
   4   7   4 22816.0 1285.87   1
  -4  -7  -5 45117.4 2288.20   4
   4   7   5 46492.8 1490.67   2
   4   7   5 45028.6 2117.82   6
   4   7   5 47167.5 1964.18   1
   4   7   6 41581.3 1919.24   1
  -4  -7  -6 40810.2 2157.45   4
   4   7   6 37836.5 1947.57   7
   4   7   6 38012.2 1987.22   6
   4   7   6 39090.6 1510.20   2
   4   7   7 3164.29 534.119   1
  -4  -7  -7 2530.75 525.217   4
   4   7   7 3033.58 556.558   6
   4   7   7 2769.80 427.338   2
  -4  -7  -8 38423.5 2135.05   4
   4   7   8 34301.5 1948.98   6
  -4  -7  -9 739.528 300.144   4
   4   7   9 781.823 259.848   6
  -4  -7 -10 1686.40 456.614   4
   4   7  10 1938.28 466.320   6
  -4  -7 -11 620.660 299.165   4
   4   7  11 502.896 240.567   6
  -4  -7 -12 21722.0 1687.20   4
   4   7  12 20254.8 1618.81   6
  -4  -7 -13 722.771 316.400   4
   4   7  13 40.3538 115.614   6
  -4  -8   5-191.115 286.135   3
   4   8  -5 29.9730 174.858   7
  -4  -8   4 14436.0 1241.11   4
   4   8  -4 14511.3 1695.55   7
  -4  -8   3 5407.68 770.468   4
   4   8  -3 6299.03 1064.96   7
  -4  -8   2 45857.5 2286.62   4
   4   8  -2 43950.8 2786.70   7
  -4  -8   1 7138.85 878.252   4
  -4  -8   1 6178.31 571.045   1
   4   8  -1 7758.99 1108.49   7
  -4  -8   0 1225.12 365.169   4
   4   8   0 1221.30 420.263   7
  -4  -8   0 917.412 224.550   1
  -4  -8  -1 180.295 201.244   4
   4   8   1 7.05601 145.009   7
   4   8   1 66.5565 115.123   6
  -4  -8  -2 46756.8 2345.62   4
   4   8   2 40222.8 2319.62   7
   4   8   2 41899.6 2171.97   6
   4   8   3 105.569 101.295   1
  -4  -8  -3 40.6983 102.492   4
   4   8   3 46.0502 151.563   7
  -4  -8  -4 10517.2 1117.69   4
   4   8   4 8385.18 974.855   7
   4   8   4 7884.09 724.560   1
   4   8   4 8067.46 948.401   6
   4   8   5 679.841 133.077   2
  -4  -8  -5 386.632 202.992   4
   4   8   5 740.482 234.794   1
   4   8   5 777.198 303.528   7
   4   8   5 381.390 211.394   6
   4   8   6 13440.6 1057.81   1
  -4  -8  -6 15485.4 1396.76   4
   4   8   6 14639.5 1200.66   7
   4   8   6 13452.1 735.729   2
   4   8   6 13563.4 1259.12   6
   4   8   7 517.422 168.488   2
  -4  -8  -7 568.636 250.633   4
   4   8   7 577.228 242.257   7
   4   8   7 454.863 233.624   6
  -4  -8  -8 12473.5 1263.93   4
   4   8   8 10075.6 919.384   7
   4   8   8 10664.0 1153.56   6
   4   8   8 12130.5 906.779   2
  -4  -8  -9 1825.94 490.110   4
   4   8   9 627.118 293.479   6
  -4  -8 -10 25162.2 1850.60   4
   4   8  10 22819.6 1764.78   6
  -4  -8 -11 186.264 198.551   4
   4   8  11 144.391 148.660   6
  -4  -8 -12 17691.0 1576.50   4
   4   8  12 16513.2 1560.00   6
  -4  -8 -13 3109.33 667.825   4
   4   8  13 2138.93 585.471   6
   4   9  -4 10189.2 1463.97   7
  -4  -9   3 567.145 248.712   4
   4   9  -3 738.350 382.658   7
  -4  -9   2 4270.50 705.629   4
   4   9  -2 4354.50 889.097   7
  -4  -9   1 12123.6 1216.01   4
   4   9  -1 10435.4 1321.52   7
   4   9   0 24035.2 1941.79   7
  -4  -9   0 24795.4 1769.21   4
  -4  -9  -1 18014.3 1495.71   4
   4   9   1 14289.8 1444.66   7
  -4  -9  -2 2304.98 553.970   4
   4   9   2 3007.85 632.819   7
   4   9   2 3275.62 635.019   6
  -4  -9  -3 399.768 259.803   4
   4   9   3 336.308 219.641   7
   4   9   3 158.244 131.507   6
  -4  -9  -4 14635.2 1371.35   4
   4   9   4 14554.0 1263.55   7
   4   9   4 14901.0 1392.53   6
  -4  -9  -5 4148.95 747.743   4
   4   9   5 4239.29 659.493   7
   4   9   5 4225.68 757.171   6
  -4  -9  -6 13405.2 1336.89   4
   4   9   6 12661.1 1070.13   7
   4   9   6 11239.3 1230.15   6
  -4  -9  -7 3050.65 669.162   4
   4   9   7 2219.48 425.357   7
   4   9   7 2480.92 579.440   6
  -4  -9  -8 25843.9 1909.39   4
   4   9   8 23412.8 1850.96   6
  -4  -9  -9 2520.00 625.842   4
   4   9   9 1751.68 511.379   6
  -4  -9 -10 838.770 391.271   4
   4   9  10 889.877 331.604   6
   4   9  11 5652.58 950.155   6
   4   9  12 10422.2 1323.27   6
  -4 -10   2 6769.47 946.234   4
   4  10  -2 5276.75 996.244   7
  -4 -10   1 6257.04 918.358   4
   4  10  -1 5981.13 1015.25   7
  -4 -10   0 4439.76 772.101   4
   4  10   0 3932.15 786.965   7
  -4 -10  -1 3589.24 694.012   4
   4  10   1 3538.32 719.173   7
  -4 -10  -2 13055.6 1355.59   4
   4  10   2 12880.8 1292.39   7
   4  10   2 12712.3 1374.29   6
  -4 -10  -3-43.5221 116.241   4
   4  10   3 96.6324 144.963   7
   4  10   3-151.114 213.984   6
  -4 -10  -4 15155.4 1453.38   4
   4  10   4 14114.7 1213.14   7
   4  10   4 14930.6 1499.68   6
  -4 -10  -5 5613.91 913.784   4
   4  10   5 5997.14 953.239   6
  -4 -10  -6 7753.95 1061.09   4
   4  10   6 5751.99 957.355   6
  -4 -10  -7 6922.87 1045.98   4
   4  10   7 5532.47 945.695   6
   4  10   8 1501.50 497.750   6
   4  10   9 2020.47 591.930   6
   4  10  10 11663.4 1428.74   6
   4  11  -1-16.5362 126.409   7
   4  11   0 7959.57 1128.24   7
   4  11   2 667.406 317.576   6
   4  11   3 3385.39 756.512   6
   4  11   4 3495.19 775.112   6
   4  11   5 8097.43 1181.14   6
   4  11   6 4131.83 853.835   6
   4  11   7-158.393 180.148   6
   4  11   8 16943.6 1783.63   6
   5  -9  -4 581.338 235.350   2
  -5   9   4 369.522 257.396   6
   5  -9  -3 3243.37 568.500   2
  -5   9   3 4331.26 720.677   8
  -5   9   3 3332.46 806.573   6
  -5   9   2 9902.31 1108.61   8
   5  -9  -2 10360.9 1011.04   2
  -5   9   2 8911.28 1293.64   6
   5  -9  -1 2004.73 438.341   2
  -5   9   1 3316.87 680.241   8
   5  -9  -1 3076.23 707.035   4
  -5   9   1 2240.87 641.490   6
  -5   9   0 12964.7 1357.02   8
   5  -9   0 14449.4 1546.99   4
  -5   9   0 13140.8 1487.75   6
  -5   9  -1 26643.9 2020.88   8
   5  -9   1 27173.1 2095.73   4
  -5   9  -1 26520.3 2108.47   6
   5  -9   2 6040.07 955.461   4
  -5   9  -2 5717.87 963.587   8
  -5   9  -2 5606.99 957.200   6
   5  -9   3 325.621 252.448   4
   5  -9   4 448.774 261.270   4
  -5   8   7 12008.2 1394.16   1
  -5   8   6 2213.15 590.037   1
  -5   8   6 2974.12 791.811   6
   5  -8  -5 3063.44 585.997   2
  -5   8   5 3180.55 698.584   1
  -5   8   5 3502.42 824.930   6
   5  -8  -4-199.105 154.787   2
  -5   8   4-22.4997 128.710   8
   5  -8  -4-13.1470 200.373   4
  -5   8   4 54.6200 99.2163   1
  -5   8   4 181.095 204.909   6
  -5   8   3 24580.3 1784.45   1
  -5   8   3 21365.5 1537.54   8
   5  -8  -3 20852.7 1474.13   2
   5  -8  -3 25847.2 2079.93   4
  -5   8   3 21580.3 1946.64   6
   5  -8  -2 1883.61 429.590   2
  -5   8   2 2336.39 529.031   1
  -5   8   2 1918.02 474.301   8
   5  -8  -2 3009.06 697.352   4
  -5   8   2 2475.03 648.327   6
  -5   8   1 10109.0 1010.67   1
  -5   8   1 9227.16 1061.44   8
   5  -8  -1 12008.1 1370.71   4
   5  -8  -1 9103.44 942.555   2
  -5   8   1 8201.56 1113.46   6
  -5   8   0 5873.53 876.365   8
   5  -8   0 6366.52 992.141   4
   5  -8   0 6085.56 766.755   2
  -5   8   0 6055.92 937.986   6
   5  -8   1 423.660 219.273   2
  -5   8  -1 760.782 311.269   8
   5  -8   1 482.470 256.363   4
  -5   8  -1 907.987 332.313   6
   5  -8   2 598.960 292.221   2
  -5   8  -2 585.780 313.570   8
   5  -8   2 235.682 224.887   4
  -5   8  -2 327.985 206.383   6
  -5   8  -3 11685.2 1337.94   8
   5  -8   3 9684.42 1143.52   4
   5  -8   3 12126.2 1143.77   2
   5  -8   4-31.1063 184.677   2
  -5   8  -4 51.3405 131.179   8
   5  -8   4 96.6579 182.564   4
   5  -8   5 8333.92 991.641   4
   5  -8   5 8044.93 988.546   2
   5  -8   6 331.866 207.219   2
   5  -8   7 10118.9 1208.20   2
  -5   7   8 951.335 398.944   1
  -5   7   8 280.439 355.423   6
  -5   7   7 2383.81 608.501   1
  -5   7   7 1907.10 598.963   6
  -5   7   6 480.447 227.600   1
   5  -7  -6 954.421 371.236   4
  -5   7   6 685.429 309.756   6
   5  -7  -5 32902.6 1928.09   2
  -5   7   5 34579.1 1765.35   8
   5  -7  -5 35056.8 2367.32   4
  -5   7   5 30913.9 2367.43   6
  -5   7   5 35095.8 2247.08   1
   5  -7  -4 69.1632 130.717   2
  -5   7   4 106.935 124.761   8
   5  -7  -4 331.027 254.033   4
  -5   7   4 8.65442 148.760   1
  -5   7   4 200.720 192.411   6
  -5   7   3 21087.3 1633.94   1
  -5   7   3 21947.5 1484.05   8
   5  -7  -3 23650.8 1548.92   2
   5  -7  -3 22410.3 1852.10   4
  -5   7   3 23260.4 1882.28   6
   5  -7  -2 549.607 232.136   2
  -5   7   2 507.823 247.366   1
  -5   7   2 707.931 282.720   8
   5  -7  -2 361.096 216.599   4
  -5   7   2 512.221 282.104   6
   5  -7  -1 2414.84 480.514   2
  -5   7   1 1430.20 388.417   8
  -5   7   1 1122.23 351.588   1
   5  -7  -1 1876.31 510.354   4
  -5   7   1 1318.79 410.343   6
   5  -7   0 410.698 175.742   2
  -5   7   0 591.259 225.455   8
   5  -7   0 704.613 305.817   4
  -5   7   0 758.666 319.232   6
  -5   7  -1 51902.3 2620.20   8
   5  -7   1 53095.5 2770.46   4
   5  -7   1 50593.4 2300.53   2
  -5   7  -1 49349.9 2197.44   1
  -5   7  -1 50805.2 2542.06   6
  -5   7  -2 4992.07 812.860   8
   5  -7   2 4222.83 739.127   4
   5  -7   2 4240.32 644.950   2
  -5   7  -2 4340.56 719.407   6
  -5   7  -2 4501.04 625.546   1
  -5   7  -3 28901.2 2033.54   8
   5  -7   3 28311.3 1922.07   4
   5  -7   3 30030.4 1799.69   2
   5  -7   4-73.5802 137.263   2
  -5   7  -4-56.3380 214.315   8
   5  -7   4-228.564 174.590   4
   5  -7   5 4516.46 729.369   2
   5  -7   5 4698.84 746.638   4
  -5   7  -5 4981.11 881.739   8
   5  -7   5 5182.63 663.426   3
   5  -7   6 3651.98 588.941   3
   5  -7   6 4143.29 720.948   2
  -5   7  -6 4419.64 862.673   8
   5  -7   6 3737.00 617.308   4
   5  -7   7 20760.3 1718.25   2
   5  -7   8 550.697 291.354   2
  -5   6   9 686.492 337.248   1
  -5   6   9 1730.26 548.436   6
  -5   6   8 2910.91 672.382   1
   5  -6  -8 3149.57 678.743   4
  -5   6   8 2803.95 707.388   6
   5  -6  -7 19986.5 1726.07   4
  -5   6   7 19404.1 1708.03   1
  -5   6   7 17962.6 1738.42   6
  -5   6   6 1377.59 455.526   1
   5  -6  -6 1200.63 419.638   4
  -5   6   6 1602.92 503.307   6
   5  -6  -5 4872.80 713.231   2
  -5   6   5 5949.35 889.204   1
  -5   6   5 5867.50 953.245   6
   5  -6  -4 342.039 167.723   2
  -5   6   4 365.684 220.510   1
   5  -6  -4 316.420 134.394   7
  -5   6   4 330.364 216.233   6
   5  -6  -3 28595.2 1689.61   2
   5  -6  -3 28719.8 1332.43   7
  -5   6   3 26233.4 1861.85   6
  -5   6   3 27236.0 1832.20   1
  -5   6   2 9634.34 1040.42   1
   5  -6  -2 9263.66 925.898   2
  -5   6   2 8890.69 1026.50   6
  -5   6   1 62807.7 2690.04   1
   5  -6  -1 62978.9 2550.10   2
  -5   6   1 65668.3 2795.12   6
  -5   6   0 20228.3 1432.93   1
  -5   6   0 18711.3 1424.10   8
   5  -6   0 20382.5 1289.25   7
   5  -6   0 20415.2 1382.37   2
  -5   6   0 20995.9 1492.40   6
  -5   6  -1 8096.14 962.423   8
   5  -6   1 7719.46 805.876   7
  -5   6  -1 8469.21 890.154   1
   5  -6   1 6869.50 796.598   2
  -5   6  -1 6632.91 819.230   6
   5  -6   1 8438.98 498.996   3
   5  -6   2 26.8224 62.0696   1
   5  -6   2 261.989 186.129   2
   5  -6   2 121.871 75.7924   3
  -5   6  -2 236.691 167.122   1
  -5   6  -2-37.5324 194.771   8
  -5   6  -2 70.2500 108.850   6
  -5   6  -3 31284.7 2019.81   8
   5  -6   3 30833.1 1789.68   2
   5  -6   3 32781.2 1371.63   3
   5  -6   4 1446.07 312.427   3
   5  -6   4 1414.24 389.975   2
  -5   6  -4 1699.35 482.052   8
  -5   6  -5 35200.2 2265.27   8
   5  -6   5 32230.5 1870.57   4
   5  -6   5 33312.1 1980.88   2
   5  -6   5 29639.6 1544.59   3
  -5   6  -5 34456.3 2278.97   5
  -5   6  -6 957.102 361.024   5
   5  -6   6 371.496 184.034   3
   5  -6   6 1062.19 381.728   2
  -5   6  -6 973.334 381.317   8
   5  -6   6 866.685 296.152   4
  -5   6  -7 11802.7 1372.91   8
   5  -6   7 13539.5 1358.96   2
   5  -6   7 12852.8 1126.41   3
  -5   6  -7 14318.0 1568.31   5
  -5   6  -8-231.026 272.897   5
   5  -6   8 15.5588 91.2010   3
   5  -6   8-252.843 202.175   2
  -5   6  -8 289.028 242.267   8
   5  -6   9 29018.7 1891.05   3
   5  -6   9 33986.9 2340.47   2
   5  -6  10 64.7225 112.770   3
   5  -5 -10 6106.01 951.106   4
   5  -5  -9 14999.2 1471.23   4
  -5   5   9 14095.1 1505.45   1
  -5   5   9 10623.5 1245.55   6
  -5   5   8 61.5008 127.647   1
  -5   5   8 95.0221 95.9945   6
  -5   5   7 9633.13 1173.08   1
  -5   5   7 6306.50 950.064   6
   5  -5  -6 527.494 262.510   2
  -5   5   6 844.887 356.293   1
   5  -5  -6 253.294 136.810   7
  -5   5   6-137.648 158.506   6
  -5   5   5 4293.29 731.588   1
   5  -5  -5 5716.53 764.551   2
   5  -5  -5 5101.97 583.449   7
  -5   5   5 4765.74 790.131   6
   5  -5  -4 61.4057 141.433   2
   5  -5  -4 117.933 124.063   5
  -5   5   4 102.669 102.752   1
   5  -5  -4 100.648 120.256   7
  -5   5   4 89.5204 100.518   6
   5  -5  -3 37584.7 2059.43   5
   5  -5  -3 43727.0 2075.20   2
   5  -5  -3 43397.8 1729.54   7
  -5   5   3 41595.5 2209.08   6
  -5   5   3 40940.1 2199.63   1
   5  -5  -2 55604.9 2538.77   5
   5  -5  -2 59320.2 2411.72   2
  -5   5   2 58572.4 2519.12   6
  -5   5   2 57011.9 2568.93   1
  -5   5   1 1025.40 304.373   1
   5  -5  -1 1121.91 298.796   2
  -5   5   1 1923.86 413.932   6
   5  -5   0 1365.55 340.754   2
  -5   5   0 1590.32 387.646   1
  -5   5   0 2193.42 417.949   6
  -5   5  -1 26014.1 1577.42   1
   5  -5   1 27026.1 1487.11   1
   5  -5   1 22649.8 622.567   3
   5  -5   1 26729.9 1566.84   2
  -5   5  -1 26255.9 1505.53   6
   5  -5   1 27238.1 661.971   3
   5  -5   2 549.212 204.129   1
   5  -5   2 513.463 130.329   3
   5  -5   2 320.362 190.783   2
  -5   5  -2 545.826 194.752   1
  -5   5  -2 554.642 223.472   6
   5  -5   2 357.948 160.654   6
  -5   5  -3 63443.4 2814.73   8
   5  -5   3 69402.9 2543.37   1
   5  -5   3 68891.5 2684.75   2
   5  -5   3 64442.8 2265.12   6
  -5   5  -3 66278.3 2561.43   1
   5  -5   3 70281.5 1931.28   3
  -5   5  -3 68285.1 2938.09   5
  -5   5  -4 976.313 350.577   5
   5  -5   4 579.099 176.681   3
   5  -5   4 1594.87 404.967   2
  -5   5  -4 1112.60 388.955   8
   5  -5   4 921.030 269.797   6
  -5   5  -5 6343.33 893.299   8
   5  -5   5 6161.30 812.587   2
   5  -5   5 6678.24 657.940   3
  -5   5  -5 7583.68 1019.62   5
  -5   5  -6 75.2281 219.793   5
   5  -5   6 33.7576 97.0880   3
   5  -5   6 193.320 183.314   2
  -5   5  -6 16.0446 141.815   8
  -5   5  -7 28249.3 2041.72   8
   5  -5   7 28255.8 1602.85   3
   5  -5   7 28502.3 1945.48   2
  -5   5  -7 28941.4 2179.01   5
  -5   5  -8 3486.99 794.132   5
   5  -5   8 2872.32 533.951   3
   5  -5   8 3644.74 712.084   2
  -5   5  -8 2526.27 628.406   8
  -5   5  -9 32508.4 2296.34   8
   5  -5   9 28010.9 1796.51   3
   5  -5   9 31341.8 2205.60   2
  -5   5  -9 27965.8 2336.63   5
   5  -5  10 413.016 234.636   3
   5  -5  10 229.329 239.731   2
  -5   5 -10 316.887 213.716   8
   5  -5  11 11839.6 1246.20   3
   5  -4 -10 433.496 256.142   4
   5  -4  -9 13744.0 1347.56   4
  -5   4   9 14619.0 1528.69   1
  -5   4   8 1273.11 432.232   1
   5  -4  -7 6539.45 722.755   7
  -5   4   7 5952.12 907.818   1
  -5   4   7 5831.63 823.059   6
   5  -4  -6 6415.46 820.386   2
   5  -4  -6 6578.53 718.414   7
  -5   4   6 6920.54 954.585   1
  -5   4   6 5768.97 826.973   6
   5  -4  -5 5715.83 764.394   2
   5  -4  -5 5208.09 622.450   7
  -5   4   5 5035.82 775.737   1
  -5   4   5 4833.91 728.283   6
   5  -4  -5 5714.97 682.896   5
  -5   4   4 4388.92 701.199   1
   5  -4  -4 4511.30 653.457   2
   5  -4  -4 4241.06 554.607   7
  -5   4   4 3067.00 568.132   6
   5  -4  -4 4341.27 605.286   5
   5  -4  -3 8115.08 831.192   5
   5  -4  -3 7420.03 820.501   2
   5  -4  -3 6885.50 690.263   7
  -5   4   3 6436.60 830.263   1
  -5   4   3 8129.98 874.803   6
   5  -4  -2 2593.07 466.174   2
   5  -4  -2 2137.83 440.823   5
  -5   4   2 2619.31 530.128   1
  -5   4   2 2600.31 470.487   6
  -5   4   1 53173.2 2365.90   1
   5  -4  -1 50840.3 2217.42   5
   5  -4  -1 53646.0 2251.73   2
  -5   4   1 53488.0 2081.92   6
   5  -4   0 923.325 279.460   5
  -5   4   0 579.133 210.787   1
   5  -4   0 971.174 295.935   2
  -5   4   0 778.981 228.002   6
   5  -4   1 2294.92 429.063   1
   5  -4   1 2895.62 521.072   5
   5  -4   1 2857.34 489.028   2
  -5   4  -1 3996.22 633.974   1
  -5   4  -1 2504.97 407.326   6
  -5   4  -2 11025.6 976.296   1
   5  -4   2 11954.3 990.490   1
  -5   4  -2 11386.2 876.377   6
   5  -4   2 10914.4 976.677   2
   5  -4   2 10727.1 454.309   3
   5  -4   2 9353.15 698.232   6
  -5   4  -2 10736.2 1016.59   5
  -5   4  -3 3198.23 585.094   5
  -5   4  -3 2730.74 482.828   1
   5  -4   3 3059.46 523.479   2
   5  -4   3 3816.19 567.008   1
   5  -4   3 3788.87 458.207   6
   5  -4   3 3555.37 339.872   3
  -5   4  -4 234.350 154.419   5
   5  -4   4 541.631 167.444   3
  -5   4  -4 306.908 168.292   1
   5  -4   4 581.338 251.698   2
   5  -4   4 469.761 202.916   1
   5  -4   4 299.208 141.097   6
  -5   4  -5 77367.8 3126.77   8
   5  -4   5 74867.5 2514.02   6
   5  -4   5 76501.4 2280.70   3
   5  -4   5 73097.7 2897.90   2
  -5   4  -5 74661.9 3222.74   5
  -5   4  -6 11309.2 1192.35   8
   5  -4   6 12119.6 1005.14   6
   5  -4   6 11642.0 892.029   3
   5  -4   6 12611.7 1184.87   2
  -5   4  -6 12371.8 1315.16   5
  -5   4  -7 27311.9 1903.70   8
   5  -4   7 25162.5 1432.64   3
   5  -4   7 27076.2 1831.41   2
  -5   4  -7 27359.4 2065.40   5
  -5   4  -8 181.020 275.506   5
   5  -4   8 34.6285 108.984   3
   5  -4   8 210.752 246.571   2
  -5   4  -8-16.3015 170.273   8
   5  -4   9 12433.5 1353.83   2
  -5   4  -9 13849.2 1425.63   8
   5  -4   9 11946.8 1088.53   3
  -5   4  -9 13782.3 1592.85   5
  -5   4 -10 1093.82 473.869   5
   5  -4  10 316.963 238.054   3
   5  -4  10 426.049 279.795   2
  -5   4 -10 578.281 316.569   8
   5  -4  11 2059.78 508.019   3
  -5   4 -11 2169.89 614.152   8
   5  -3 -10 5127.10 790.754   4
  -5   3   9 5705.69 943.036   1
   5  -3  -9 4630.77 692.882   7
  -5   3   8 12542.8 1346.15   1
   5  -3  -8 11483.8 1046.74   7
   5  -3  -7 18219.0 1292.47   7
  -5   3   7 16827.0 1524.02   1
  -5   3   7 17155.4 917.919   3
   5  -3  -6 1166.14 391.065   2
  -5   3   6 1058.56 207.327   3
  -5   3   6 993.023 347.151   1
   5  -3  -6 1049.26 303.892   7
   5  -3  -5 24515.6 1258.23   5
   5  -3  -5 24284.2 1557.64   2
   5  -3  -5 23601.7 1403.92   7
  -5   3   5 23379.6 1677.18   1
   5  -3  -4 17534.6 1071.38   5
   5  -3  -4 16392.6 1233.86   2
   5  -3  -4 13594.9 1031.01   7
  -5   3   4 14959.3 1284.72   1
  -5   3   4 13680.5 1110.17   6
   5  -3  -3 20417.0 1356.38   2
   5  -3  -3 19965.5 1215.03   7
  -5   3   3 19115.4 1419.40   1
  -5   3   3 17525.0 1192.84   6
   5  -3  -2 8701.89 860.840   2
  -5   3   2 8806.11 778.052   6
  -5   3   2 8611.71 921.156   1
   5  -3  -1 10684.5 878.555   5
   5  -3  -1 10796.5 942.564   2
  -5   3   1 11776.3 844.831   6
  -5   3   1 10675.1 1009.70   1
   5  -3   0 22471.3 1322.81   5
  -5   3   0 26856.0 1588.44   1
   5  -3   0 27009.7 1500.66   1
   5  -3   0 25801.2 1476.42   2
  -5   3   0 24646.8 1174.31   6
   5  -3   1 9790.98 881.270   5
  -5   3  -1 9254.78 909.342   1
   5  -3   1 9584.59 877.622   1
   5  -3   1 9549.68 886.166   2
  -5   3  -1 9750.45 711.376   6
  -5   3  -1 9817.83 880.285   5
   5  -3   2 7009.36 765.115   5
  -5   3  -2 7012.76 770.621   1
   5  -3   2 6965.83 746.912   1
   5  -3   2 7472.78 299.979   3
  -5   3  -2 6829.26 579.429   6
   5  -3   2 6128.14 715.583   2
   5  -3   2 6710.05 506.484   6
  -5   3  -2 6825.62 771.055   5
   5  -3   3 51382.9 2241.63   5
  -5   3  -3 45928.0 2050.92   1
   5  -3   3 50536.9 2130.29   1
   5  -3   3 47842.2 1275.19   3
   5  -3   3 49428.6 2143.96   2
   5  -3   3 46019.2 1530.38   6
  -5   3  -3 47596.1 2210.62   5
   5  -3   4 8295.11 639.446   6
   5  -3   4 7359.13 535.749   3
  -5   3  -4 8456.86 846.698   1
   5  -3   4 8487.74 875.151   2
   5  -3   4 9102.82 886.974   1
  -5   3  -4 7756.14 927.898   5
   5  -3   5 24071.8 1224.30   6
   5  -3   5 26176.9 1172.98   3
   5  -3   5 24002.9 1561.13   2
  -5   3  -5 23532.4 1700.26   5
  -5   3  -6 356.460 268.522   5
   5  -3   6 746.952 227.766   3
   5  -3   6 877.278 326.454   2
   5  -3   6 356.042 147.217   6
  -5   3  -7 13217.3 1377.73   5
   5  -3   7 10012.8 824.872   4
  -5   3  -7 11392.9 1157.49   8
   5  -3   7 11450.9 974.409   6
   5  -3   7 11793.6 920.509   3
   5  -3   7 11344.0 1145.88   2
  -5   3  -8 708.240 337.003   5
   5  -3   8 1175.61 309.872   3
   5  -3   8 1062.77 361.114   2
  -5   3  -8 1159.36 386.044   8
  -5   3  -9 14749.4 1600.01   5
   5  -3   9 15729.2 1485.18   2
  -5   3  -9 15168.8 1423.24   8
   5  -3   9 15042.1 1180.53   3
  -5   3 -10 1841.01 597.640   5
   5  -3  10 1787.02 430.166   3
  -5   3 -10 2059.19 553.439   8
  -5   3 -11 12633.2 1632.16   5
  -5   3 -11 14591.5 1452.14   8
   5  -3  11 14611.2 1307.89   3
   5  -3  12 621.528 287.937   3
  -5   3 -12 141.453 195.696   8
   5  -2 -10 4684.31 755.373   7
  -5   2   9 7863.57 1098.85   1
   5  -2  -9 8717.45 1000.53   7
  -5   2   8 197.902 241.014   1
  -5   2   8 48.2723 104.994   3
   5  -2  -8 61.3136 145.067   7
  -5   2   7 26071.1 1880.05   1
   5  -2  -7 25426.4 1621.19   7
  -5   2   7 27371.2 1190.50   3
   5  -2  -6 7054.70 823.063   7
  -5   2   6 7757.16 979.833   1
  -5   2   6 7179.31 542.751   3
   5  -2  -5 4125.54 386.809   5
   5  -2  -5 3369.72 567.713   2
  -5   2   5 3612.71 645.340   1
   5  -2  -5 3566.09 560.368   7
  -5   2   5 3336.83 318.445   3
   5  -2  -4 2467.90 318.991   5
   5  -2  -4 3125.78 542.673   2
  -5   2   4 2595.41 533.094   1
   5  -2  -4 2844.80 483.745   7
  -5   2   4 2601.83 228.553   3
   5  -2  -3 37014.0 1366.21   5
   5  -2  -3 39028.1 1880.95   2
   5  -2  -3 34281.3 1685.82   7
  -5   2   3 37862.5 2000.47   1
   5  -2  -2-87.2906 184.965   2
   5  -2  -2 137.886 89.7177   5
  -5   2   2 229.664 169.830   1
  -5   2   2-24.7878 94.4671   6
   5  -2  -1 97095.1 3023.73   2
  -5   2   1 96916.1 2425.87   6
  -5   2   1 92926.6 3150.75   1
  -5   2   0 4551.95 627.268   1
   5  -2   0 4849.26 618.729   1
   5  -2   0 5236.94 633.691   2
  -5   2   0 4571.08 421.193   6
  -5   2   0 3998.89 598.371   2
  -5   2   0 3834.41 472.890   5
  -5   2  -1 30442.7 1665.56   1
   5  -2   1 31993.1 1691.36   1
   5  -2   1 36138.2 1764.84   2
  -5   2  -1 30767.9 1104.29   6
  -5   2  -1 30364.3 1477.07   5
  -5   2  -1 33169.9 1768.39   2
  -5   2  -2 43.4328 79.0628   5
   5  -2   2-41.1264 74.7510   5
   5  -2   2 57.7554 141.810   2
   5  -2   2-58.5067 109.795   1
  -5   2  -2 65.7761 117.435   1
  -5   2  -3-23.5782 130.828   5
   5  -2   3 184.755 72.4926   3
   5  -2   3 74.3976 90.6917   2
  -5   2  -3 53.3553 118.542   1
   5  -2   3 44.5660 79.6025   1
   5  -2   3 125.806 76.4242   6
  -5   2  -4 9033.57 939.411   5
  -5   2  -4 11070.9 703.190   3
   5  -2   4 9173.48 896.125   5
   5  -2   4 10847.9 615.672   3
  -5   2  -4 10324.6 934.678   1
   5  -2   4 9623.13 599.405   6
   5  -2   4 9129.32 892.147   2
   5  -2   4 11681.8 999.846   1
  -5   2  -5 10692.4 1076.98   5
   5  -2   5 11672.6 735.294   6
   5  -2   5 9899.05 666.619   3
   5  -2   5 11111.6 1010.75   2
  -5   2  -6 12.1500 111.514   5
   5  -2   6-49.0843 108.027   3
  -5   2  -6-79.9866 87.0512   3
   5  -2   6-43.6013 119.537   2
   5  -2   6-9.84557 76.9123   4
   5  -2   6-279.395 131.159   6
  -5   2  -7 45950.4 2530.04   5
  -5   2  -7 50866.8 2218.11   3
   5  -2   7 49285.8 1883.36   4
   5  -2   7 52044.4 2035.06   6
   5  -2   7 53615.8 1969.83   3
   5  -2   7 53480.0 2499.49   2
  -5   2  -8 6378.03 951.037   5
   5  -2   8 7940.51 986.107   2
   5  -2   8 7003.09 645.228   4
  -5   2  -8 7308.73 901.308   8
   5  -2   8 7284.11 775.587   6
   5  -2   8 7669.85 755.034   3
  -5   2  -9 69109.2 3457.75   5
  -5   2  -9 71037.4 3019.36   8
   5  -2   9 68136.7 2568.01   3
  -5   2 -10 583.910 327.255   5
   5  -2  10 678.580 266.952   3
  -5   2 -10 175.154 110.776   8
  -5   2 -11 3892.99 900.944   5
   5  -2  11 3670.20 637.982   3
  -5   2 -11 3476.37 676.384   8
  -5   2 -12 727.874 392.238   5
   5  -2  12 1903.18 495.269   3
  -5   2 -12 1123.62 378.225   8
   5  -1 -11 3444.53 703.214   7
   5  -1 -10 2054.69 521.688   7
  -5   1   9 17494.9 1652.88   1
   5  -1  -9 15952.6 1427.56   7
  -5   1   9 15603.7 1098.97   3
  -5   1   8 1305.39 440.667   1
  -5   1   8 1228.91 282.458   3
   5  -1  -8 1629.02 433.611   7
  -5   1   7 4254.81 744.897   1
   5  -1  -7 3751.06 640.579   7
  -5   1   7 4731.36 518.662   3
   5  -1  -6 32440.2 1878.49   7
  -5   1   6 31730.2 2003.11   1
  -5   1   6 34053.4 1342.83   3
   5  -1  -5 62699.6 2552.34   2
   5  -1  -5 55266.7 2411.74   7
  -5   1   5 56360.7 2630.06   1
  -5   1   5 59383.3 1696.63   3
   5  -1  -4 29557.2 1638.91   2
   5  -1  -4 26538.7 1564.00   7
  -5   1   4 28021.9 1743.54   1
  -5   1   4 28610.8 966.887   3
   5  -1  -3 22772.1 807.281   5
   5  -1  -3 20023.9 1309.73   2
   5  -1  -3 20367.5 1325.34   7
  -5   1   3 18734.9 1383.37   1
  -5   1   3 20757.6 694.492   3
   5  -1  -2 3992.14 378.973   5
   5  -1  -2 5355.55 653.685   2
   5  -1  -2 4438.08 585.883   7
  -5   1   2 4342.90 634.718   1
  -5   1   2 4664.49 208.015   3
   5  -1  -1 14773.3 819.261   5
   5  -1  -1 14811.2 1072.10   2
  -5   1   1 16129.5 1190.79   2
  -5   1   1 15485.2 772.552   6
  -5   1   1 14657.0 1155.17   1
  -5   1   0 8227.13 850.390   1
   5  -1   0 4969.02 502.013   5
   5  -1   0 7712.85 788.764   1
   5  -1   0 7323.37 748.819   2
  -5   1   0 6541.93 412.794   6
  -5   1   0 7092.31 784.125   2
  -5   1   0 7667.89 614.333   5
   5  -1   1 38836.8 1593.54   5
  -5   1  -1 41961.3 1963.02   1
   5  -1   1 44449.4 1948.80   1
   5  -1   1 46405.1 1949.47   2
  -5   1  -1 44078.8 1055.13   6
  -5   1  -1 44159.5 2011.49   2
  -5   1  -1 42947.0 1676.52   5
  -5   1  -2 3565.10 506.148   5
   5  -1   2 2545.72 447.832   2
  -5   1  -2 2987.03 500.637   2
  -5   1  -2 2123.91 422.246   1
   5  -1   2 3255.50 509.232   1
  -5   1  -2 3239.53 256.470   3
  -5   1  -3 53637.6 2157.95   5
   5  -1   3 50739.2 2030.28   5
  -5   1  -3 51673.8 2176.51   1
   5  -1   3 55306.0 1400.68   3
   5  -1   3 53986.4 2173.22   2
   5  -1   3 56843.2 2240.81   1
  -5   1  -3 54960.4 1508.83   3
   5  -1   4 469.133 135.915   3
  -5   1  -4 461.588 193.222   5
  -5   1  -4 467.240 195.919   1
  -5   1  -4 334.920 116.514   3
   5  -1   4 620.914 240.069   2
   5  -1   4 275.416 149.449   4
   5  -1   4 458.735 190.310   1
   5  -1   4 630.739 115.961   6
  -5   1  -5 9495.35 963.650   5
   5  -1   5 8754.68 893.158   1
   5  -1   5 8196.78 762.672   4
   5  -1   5 9744.34 655.108   3
   5  -1   5 8012.95 527.560   6
   5  -1   5 8514.49 869.264   2
  -5   1  -5 8854.68 883.648   1
  -5   1  -6 12878.4 989.050   3
  -5   1  -6 12030.3 1143.91   5
   5  -1   6 13286.1 943.878   4
   5  -1   6 14090.1 825.162   6
   5  -1   6 14040.5 861.981   3
   5  -1   6 14187.8 1168.92   2
   5  -1   7 43786.2 2178.20   2
  -5   1  -7 42862.2 2049.09   3
  -5   1  -7 38588.4 2216.77   5
   5  -1   7 40581.9 1666.60   4
   5  -1   7 41753.7 1651.94   6
   5  -1   7 40481.5 1637.31   3
  -5   1  -8 127.510 178.744   5
   5  -1   8 1193.97 309.333   3
  -5   1  -8 934.210 353.507   3
   5  -1   8 302.799 166.097   4
   5  -1   8 827.457 251.405   6
  -5   1  -9 14024.7 1482.00   5
   5  -1   9 11514.6 788.453   4
  -5   1  -9 10876.4 1070.36   8
   5  -1   9 12216.9 1018.98   6
   5  -1   9 12294.2 992.545   3
  -5   1 -10 29.2118 138.073   5
   5  -1  10 200.002 178.946   3
  -5   1 -10 36.6393 79.0386   8
  -5   1 -11 33250.0 2586.50   5
  -5   1 -11 34590.8 2049.71   8
   5  -1  11 36016.6 1961.24   3
  -5   1 -12 831.709 444.685   5
   5  -1  12 1843.66 489.778   3
  -5   1 -12 1739.93 462.945   8
  -5   1 -13 4365.16 736.574   8
   5  -1  13 5425.04 835.112   3
   5   0 -10 6468.50 970.905   7
  -5   0  10 7111.79 822.727   3
  -5   0   9 10887.7 1287.77   1
   5   0  -9 12906.4 1333.43   7
  -5   0   9 12220.8 1031.83   3
  -5   0   8 8986.62 1129.23   1
   5   0  -8 8185.99 1017.46   7
  -5   0   8 9127.26 841.203   3
  -5   0   7 21451.9 1683.77   1
   5   0  -7 21198.1 1605.45   7
  -5   0   7 21299.8 1225.27   3
  -5   0   6 3585.26 663.736   1
   5   0  -6 3671.99 650.997   7
  -5   0   6 3650.72 463.222   3
   5   0  -5 1732.69 427.597   2
  -5   0   5 597.848 270.159   1
  -5   0   5 1143.14 248.542   3
   5   0  -5 1138.71 356.918   7
   5   0  -4 41960.4 1968.93   2
   5   0  -4 36913.1 1949.40   7
  -5   0   4 36587.2 2015.63   1
  -5   0   4 39195.1 1380.03   3
   5   0  -3 26149.4 1498.11   2
   5   0  -3 23730.9 1502.87   7
  -5   0   3 25696.8 1616.36   1
  -5   0   3 25212.4 996.487   3
   5   0  -2-69.2763 157.208   2
  -5   0   2 46.2130 93.3370   2
  -5   0   2 130.664 81.0130   3
  -5   0   2-3.52300 138.956   1
   5   0  -2 208.960 153.655   7
  -5   0   1 93604.8 1933.54   3
   5   0  -1 90816.2 2871.36   2
  -5   0   1 95018.5 3046.92   2
  -5   0   1 91776.8 3096.53   1
  -5   0   0 21732.7 1378.14   1
   5   0   0 21556.0 1320.24   1
   5   0   0 21253.9 1254.69   2
  -5   0   0 20713.2 632.266   6
  -5   0   0 21827.2 1337.29   2
  -5   0   0 20194.5 923.884   5
  -5   0  -1 76994.6 2182.07   5
  -5   0  -1 68756.0 2614.29   1
   5   0   1 69441.9 2561.25   4
   5   0   1 76060.2 2636.68   1
   5   0   1 75925.9 2524.76   2
  -5   0  -1 74014.4 1689.78   3
  -5   0  -1 74914.2 2646.08   2
  -5   0  -2 44263.0 1963.44   2
  -5   0  -2 39431.8 1618.58   5
   5   0   2 40868.5 1847.84   4
  -5   0  -2 39410.4 1876.11   1
   5   0   2 43833.6 1915.36   1
   5   0   2 39680.6 1769.41   2
  -5   0  -2 38849.6 1240.73   3
  -5   0  -3 12577.8 933.913   5
   5   0   3 12136.4 956.611   4
  -5   0  -3 11437.5 977.254   1
   5   0   3 11312.6 939.618   2
   5   0   3 12428.9 1004.18   1
  -5   0  -3 11896.1 716.832   3
  -5   0  -4 6025.64 680.006   5
   5   0   4 5523.31 632.335   4
   5   0   4 6637.66 515.339   3
  -5   0  -4 6153.85 715.776   1
   5   0   4 6251.08 702.575   2
  -5   0  -4 6361.72 579.317   3
   5   0   4 6585.41 737.235   1
  -5   0  -5 34240.9 1790.86   5
   5   0   5 34968.0 1800.86   1
   5   0   5 33759.0 1578.96   4
   5   0   5 35479.9 1349.04   3
   5   0   5 35154.1 1000.82   6
   5   0   5 35284.2 1785.86   2
  -5   0  -5 32500.0 1723.03   1
   5   0   6 948.929 226.959   3
  -5   0  -6 743.810 254.149   5
  -5   0  -6 1003.73 290.257   3
   5   0   6 936.149 318.386   2
   5   0   6 905.630 247.538   4
   5   0   6 990.848 193.692   6
   5   0   7 262.846 157.316   3
  -5   0  -7 115.988 164.707   5
  -5   0  -7 195.569 138.470   3
   5   0   7 281.964 170.922   2
   5   0   7 235.940 118.164   4
   5   0   7 240.826 123.003   6
  -5   0  -8 2486.83 590.303   5
  -5   0  -8 3150.33 602.222   3
   5   0   8 3102.83 430.945   4
   5   0   8 3211.11 477.173   3
  -5   0  -9 57649.5 3025.85   5
   5   0   9 53838.3 1872.88   4
   5   0   9 54058.1 2165.25   3
   5   0  10 227.879 122.194   3
  -5   0 -10 148.007 120.446   5
  -5   0 -10-10.4861 86.6139   8
  -5   0 -11 12684.6 1574.65   5
  -5   0 -11 13569.2 1196.77   8
   5   0  11 13490.3 1152.68   3
   5   0  12 2328.24 507.896   3
  -5   0 -12 1154.91 480.326   5
  -5   0 -12 2307.84 501.403   8
  -5   0 -13 6184.38 832.381   8
   5   0  13 7443.76 945.402   3
   5   1 -10 6076.88 971.954   7
  -5  -1  10 6338.96 834.109   3
  -5  -1   9 4510.00 816.946   1
   5   1  -9 5097.79 873.584   7
  -5  -1   9 4766.85 693.294   3
  -5  -1   8 264.336 162.587   1
  -5  -1   8 434.696 237.555   3
   5   1  -8 255.985 113.200   7
  -5  -1   7 6149.47 909.254   1
   5   1  -7 6882.86 943.989   7
  -5  -1   7 6424.82 720.134   3
  -5  -1   6 138.687 94.0629   1
  -5  -1   6-5.57325 83.1811   3
   5   1  -6 123.835 166.368   7
   5   1  -5 45516.2 2350.70   7
  -5  -1   5 47275.6 2354.79   1
  -5  -1   5 47970.4 1846.65   3
  -5  -1   4 11826.6 828.189   3
   5   1  -4 11312.2 1006.03   2
   5   1  -4 11878.0 1129.99   7
  -5  -1   4 12723.1 1154.61   1
  -5  -1   3 65255.1 1969.52   3
   5   1  -3 62335.9 2542.83   4
   5   1  -3 60176.8 2361.24   2
   5   1  -3 62314.5 2616.63   7
  -5  -1   3 60187.3 2547.38   1
   5   1  -2 1955.40 394.893   2
  -5  -1   2 1703.14 376.695   2
  -5  -1   2 2034.07 292.892   3
   5   1  -2 2103.84 432.289   4
  -5  -1   2 1648.86 383.481   1
   5   1  -2 1951.72 430.261   7
   5   1  -1 8145.83 840.383   4
   5   1  -1 8663.87 801.499   2
   5   1  -1 8384.41 856.536   7
  -5  -1   1 8278.43 821.803   2
  -5  -1   1 8410.60 862.322   1
  -5  -1   1 8861.17 400.118   5
  -5  -1   0 23178.4 925.620   5
  -5  -1   0 21382.6 1373.98   1
   5   1   0 22725.0 1387.60   4
   5   1   0 26068.3 1465.78   1
   5   1   0 23654.0 1310.38   2
  -5  -1   0 23561.7 694.662   6
  -5  -1   0 22362.9 1340.08   2
  -5  -1  -1 24686.2 1067.44   5
  -5  -1  -1 22993.4 1431.06   1
   5   1   1 22029.2 1343.66   4
   5   1   1 27502.8 1515.70   1
   5   1   1 24052.6 1334.47   2
  -5  -1  -1 22668.5 965.714   3
  -5  -1  -1 24244.2 1403.23   2
  -5  -1  -2 47545.4 2002.30   2
  -5  -1  -2 46825.6 1685.16   5
   5   1   2 46375.7 1957.94   4
  -5  -1  -2 45371.0 2002.42   1
   5   1   2 45189.5 1858.80   2
   5   1   2 49187.5 2032.52   1
  -5  -1  -3 102904. 2869.34   5
   5   1   3 101724. 3002.10   4
  -5  -1  -3 100704. 3128.49   1
   5   1   3 103600. 3028.09   2
   5   1   3 108065. 3180.21   1
   5   1   4 7859.60 809.328   1
  -5  -1  -4 6720.58 711.707   5
   5   1   4 8362.33 774.929   4
  -5  -1  -4 7852.59 804.264   1
  -5  -1  -4 8209.46 699.410   3
   5   1   4 7436.90 754.366   2
  -5  -1  -5 16792.2 1220.08   5
   5   1   5 17810.2 1258.14   1
   5   1   5 18124.4 1138.20   4
   5   1   5 16220.2 932.562   3
   5   1   5 16948.2 553.566   6
  -5  -1  -5 18137.7 1246.09   1
   5   1   5 17758.6 1226.50   2
   5   1   6 395.639 155.644   3
  -5  -1  -6 505.474 231.937   5
  -5  -1  -6 273.985 146.790   3
   5   1   6 73.4722 116.736   2
   5   1   6 19.9303 57.8920   4
   5   1   7 15608.4 1233.58   2
  -5  -1  -7 16245.0 1374.47   5
   5   1   7 14100.5 962.182   4
   5   1   7 15115.3 992.553   3
  -5  -1  -7 13698.6 1185.98   3
  -5  -1  -8 6569.47 934.680   5
   5   1   8 6195.29 624.491   4
   5   1   8 6172.59 687.299   3
  -5  -1  -9 14386.3 1478.83   5
   5   1   9 11722.4 852.668   4
   5   1   9 13460.6 1043.58   3
   5   1  10 2528.66 471.945   3
  -5  -1 -10 2519.28 648.564   5
   5   1  10 2382.21 366.734   4
  -5  -1 -11 10711.3 1437.07   5
  -5  -1 -11 10370.1 989.101   8
   5   1  11 10141.6 995.365   3
  -5  -1 -12 13154.8 1682.57   5
  -5  -1 -12 15388.0 1233.32   8
   5   1  12 14854.8 1279.90   3
  -5  -1 -13 12113.9 1733.25   5
   5   1  13 14431.7 1308.95   3
  -5  -2  10 6.33713 119.012   3
  -5  -2   9 12714.8 1378.81   1
   5   2  -9 12182.3 1404.41   7
  -5  -2   9 13005.1 1211.80   3
  -5  -2   8 590.981 326.051   1
  -5  -2   8 755.053 297.816   3
   5   2  -8 732.899 326.602   7
   5   2  -7 26254.0 1952.17   7
  -5  -2   7 25320.3 1841.35   1
  -5  -2   7 28440.6 1656.73   3
  -5  -2   6 606.592 276.360   1
  -5  -2   6 763.779 252.204   3
   5   2  -6 857.538 346.579   7
  -5  -2   5 1871.03 453.475   1
  -5  -2   5 1706.15 355.995   3
   5   2  -5 1531.44 441.730   7
   5   2  -4 1635.02 364.628   2
  -5  -2   4 712.788 245.945   1
  -5  -2   4 1270.65 307.570   3
   5   2  -4 1089.60 371.379   7
   5   2  -3 3186.63 517.744   2
  -5  -2   3 3403.18 461.581   3
   5   2  -3 3970.72 610.274   4
  -5  -2   3 3534.01 588.895   1
   5   2  -3 2404.21 506.798   7
   5   2  -2 41481.1 1991.41   4
   5   2  -2 41443.6 1840.59   2
   5   2  -2 37473.5 2046.68   7
  -5  -2   2 41778.2 1885.55   2
  -5  -2   2 40252.0 1974.89   1
   5   2  -1 112306. 3465.20   4
   5   2  -1 117395. 3261.52   2
   5   2  -1 111570. 3633.71   7
  -5  -2   1 114392. 2560.75   6
  -5  -2   1 117785. 3345.82   2
  -5  -2   1 113825. 3491.41   1
  -5  -2   1 117702. 1955.18   5
  -5  -2   0 3937.15 579.360   1
  -5  -2   0 2711.81 288.166   5
   5   2   0 4228.61 586.561   4
   5   2   0 4192.82 575.474   1
   5   2   0 4427.35 539.444   2
   5   2   0 3869.57 584.091   7
  -5  -2   0 4596.37 344.258   6
  -5  -2   0 4778.37 591.129   2
  -5  -2  -1 29541.3 1163.51   5
  -5  -2  -1 27573.5 1541.70   1
   5   2   1 29302.7 1548.21   4
   5   2   1 29565.3 1557.49   1
   5   2   1 28498.8 1418.96   2
  -5  -2  -1 23670.3 1076.52   3
  -5  -2  -1 27323.4 596.480   6
  -5  -2  -1 26206.4 1429.13   2
  -5  -2  -2 3267.68 408.934   5
  -5  -2  -2 2034.52 307.765   3
   5   2   2 2493.03 408.261   2
   5   2   2 2418.08 435.610   1
  -5  -2  -2 2320.96 423.076   2
   5   2   2 2336.39 425.716   4
  -5  -2  -2 2116.27 414.894   1
  -5  -2  -3 48046.8 1847.32   5
   5   2   3 46301.9 1955.82   4
  -5  -2  -3 45428.0 2008.68   1
   5   2   3 47346.0 1906.57   2
   5   2   3 48259.0 2052.00   1
  -5  -2  -4 2094.83 417.420   1
  -5  -2  -4 1445.54 333.624   5
   5   2   4 2308.91 411.603   2
   5   2   4 1960.70 377.842   4
   5   2   4 1463.04 354.773   1
  -5  -2  -5 40687.9 1947.70   5
   5   2   5 38028.7 1879.36   1
   5   2   5 34441.7 1631.39   4
   5   2   5 39679.0 935.899   6
  -5  -2  -5 34930.7 1689.43   3
   5   2   5 36754.2 1761.11   2
  -5  -2  -5 36642.9 1811.11   1
  -5  -2  -6 4673.46 681.928   5
   5   2   6 5632.52 629.605   4
   5   2   6 5111.03 568.538   3
  -5  -2  -6 5389.63 683.942   3
   5   2   6 5259.70 373.698   6
   5   2   6 6449.79 734.045   2
   5   2   7 34237.6 1811.26   2
  -5  -2  -7 31637.7 1966.76   5
   5   2   7 33978.3 1583.70   4
   5   2   7 33372.4 1557.96   3
  -5  -2  -7 30957.0 1821.20   3
   5   2   8 38540.1 1672.09   4
   5   2   8 40433.4 1799.93   3
  -5  -2  -9 8653.47 1167.76   5
   5   2   9 7707.78 716.002   4
   5   2   9 6872.61 761.526   3
  -5  -2 -10 5073.68 940.834   5
   5   2  10 6579.08 652.123   4
   5   2  10 7287.64 817.848   3
  -5  -2 -11 45463.6 3073.10   5
   5   2  11 48671.4 2302.45   3
   5   2  12 2045.04 489.423   3
  -5  -2 -12 1122.74 510.623   5
  -5  -2 -12 1435.15 354.134   8
   5   2  13 531.674 281.360   3
  -5  -2 -13 841.695 489.293   5
  -5  -3  10 295.509 213.564   3
  -5  -3   9 3928.31 760.663   1
  -5  -3   9 4093.35 708.191   3
   5   3  -8 9358.66 1242.16   7
  -5  -3   8 8591.66 1090.65   1
  -5  -3   8 9594.09 1053.17   3
  -5  -3   7 1171.44 386.629   1
  -5  -3   7 963.335 289.511   3
   5   3  -7 801.226 340.180   7
  -5  -3   6 69.4293 120.863   1
  -5  -3   6 568.069 254.085   3
   5   3  -6 637.351 327.898   7
  -5  -3   5 2572.25 540.944   1
  -5  -3   5 2998.08 521.481   3
   5   3  -5 2516.90 600.560   7
  -5  -3   4 56309.1 2261.73   3
   5   3  -4 48475.3 2620.68   7
  -5  -3   4 52846.1 2418.79   1
  -5  -3   4 55247.9 2225.45   6
  -5  -3   3 47397.5 2011.55   3
   5   3  -3 50077.5 2164.28   2
   5   3  -3 47047.6 2478.43   7
  -5  -3   3 50608.3 1957.09   6
  -5  -3   3 50132.7 2286.11   1
   5   3  -2 6356.63 758.045   4
   5   3  -2 5988.17 689.764   2
   5   3  -2 5171.41 776.100   7
  -5  -3   2 6714.59 716.213   2
  -5  -3   2 5905.93 738.579   1
  -5  -3   1 5773.49 324.934   5
   5   3  -1 6219.71 722.631   4
   5   3  -1 5829.21 644.702   2
   5   3  -1 5241.08 773.805   7
  -5  -3   1 6134.36 533.970   6
  -5  -3   1 6054.92 667.755   2
  -5  -3   1 6416.10 747.360   1
  -5  -3   0 26173.3 1507.72   1
   5   3   0 28478.7 1548.89   4
   5   3   0 27134.7 1505.90   1
   5   3   0 24989.8 1317.82   2
   5   3   0 24378.1 1628.74   7
  -5  -3   0 27534.0 1044.94   6
  -5  -3   0 26096.0 1390.27   2
  -5  -3  -1 109220. 3300.88   1
   5   3   1 103828. 3207.33   4
   5   3   1 113652. 3302.18   1
   5   3   1 111086. 3024.63   2
  -5  -3  -1 107284. 2171.78   6
  -5  -3  -1 104991. 3071.02   2
  -5  -3  -2 6079.56 657.816   2
   5   3   2 5991.22 680.766   4
  -5  -3  -2 5552.49 668.298   1
   5   3   2 5382.09 584.788   2
  -5  -3  -2 4404.61 489.741   3
   5   3   2 5568.27 665.161   1
   5   3   3 5999.64 675.980   4
  -5  -3  -3 4008.81 557.102   1
  -5  -3  -3 4217.48 507.711   3
   5   3   3 4049.67 515.535   2
   5   3   3 4696.64 616.400   1
  -5  -3  -4 25502.7 1556.89   4
   5   3   4 23649.3 1361.77   4
   5   3   4 24123.8 727.748   6
  -5  -3  -4 23717.1 1408.04   1
  -5  -3  -4 20352.3 1208.26   3
   5   3   4 23329.4 1308.77   2
   5   3   4 25397.8 1483.28   1
   5   3   5 95927.9 3134.65   1
  -5  -3  -5 89494.5 3121.26   4
   5   3   5 94113.5 2912.50   4
   5   3   5 91580.4 1956.08   6
  -5  -3  -5 87461.3 2832.57   3
   5   3   5 88506.7 2837.54   2
  -5  -3  -5 90836.4 2989.60   1
  -5  -3  -6 274.183 170.816   3
   5   3   6 267.712 205.736   2
  -5  -3  -6 268.018 171.974   4
   5   3   6 440.887 161.730   4
   5   3   6 281.981 105.633   6
   5   3   7 10348.4 955.929   2
  -5  -3  -7 9333.90 957.502   4
   5   3   7 10245.9 877.112   4
  -5  -3  -7 10489.5 1023.89   3
   5   3   7 10016.1 648.589   6
   5   3   8-16.0174 161.582   3
  -5  -3  -8 410.832 295.981   5
  -5  -3  -8 120.011 109.775   4
   5   3   8 232.172 141.132   4
  -5  -3  -9 55118.8 2467.12   4
   5   3   9 52103.5 2226.49   3
   5   3  10 3471.66 600.334   3
  -5  -3 -10 1822.18 580.780   5
  -5  -3 -11 9427.23 1379.42   5
   5   3  11 7876.00 912.371   3
   5   3  12 3679.50 650.237   3
  -5  -3 -12 2731.76 766.990   5
  -5  -3 -12 5102.85 621.910   8
  -5  -3 -13 20001.6 2242.05   5
   5   3  13 21174.5 1626.81   3
  -5  -4   9 3000.27 679.252   1
  -5  -4   9 2314.23 581.122   3
  -5  -4   8 2619.59 592.020   1
  -5  -4   8 3391.56 672.843   3
   5   4  -8 3947.53 841.732   7
  -5  -4   7 16392.5 1429.44   3
   5   4  -7 19950.3 1846.10   7
  -5  -4   7 16182.9 1454.84   1
  -5  -4   6 13554.9 1244.24   3
   5   4  -6 13548.8 1485.23   7
  -5  -4   6 12917.1 1258.24   1
  -5  -4   5 20159.4 1459.22   3
   5   4  -5 17695.9 1661.58   7
  -5  -4   5 17669.0 1418.66   1
  -5  -4   4 2592.50 507.800   3
  -5  -4   4 2153.35 452.555   1
   5   4  -4 1465.72 462.049   7
  -5  -4   4 1764.11 409.954   6
   5   4  -3 5475.80 877.234   7
  -5  -4   3 6419.94 723.843   2
  -5  -4   3 6384.32 709.337   6
  -5  -4   3 5971.41 759.739   1
  -5  -4   2 7997.96 329.739   5
   5   4  -2 8476.03 827.743   2
   5   4  -2 8477.00 1064.68   7
  -5  -4   2 9023.25 782.237   6
  -5  -4   2 7647.63 759.362   2
  -5  -4   2 8646.77 885.619   1
   5   4  -1 87985.4 2764.23   2
   5   4  -1 83694.1 3415.21   7
  -5  -4   1 85571.1 2696.58   2
  -5  -4   1 81331.1 2866.55   1
  -5  -4   0 44286.6 2001.61   1
   5   4   0 45871.2 1830.75   2
   5   4   0 43418.7 2340.02   7
  -5  -4   0 43850.8 1557.56   6
  -5  -4   0 42598.9 1789.85   2
  -5  -4  -1 8801.96 934.485   4
  -5  -4  -1 8805.20 844.363   1
   5   4   1 9706.29 880.128   1
   5   4   1 9835.91 790.521   2
   5   4   1 10260.9 1074.72   7
  -5  -4  -1 9521.53 613.023   6
  -5  -4  -1 8961.40 775.952   2
  -5  -4  -2 6423.28 785.250   4
  -5  -4  -2 5674.87 667.874   1
   5   4   2 7163.18 662.887   2
  -5  -4  -2 6018.47 623.847   3
   5   4   2 6335.15 712.765   1
  -5  -4  -2 6627.68 455.576   6
  -5  -4  -3 57403.3 2453.83   4
  -5  -4  -3 55261.5 2195.70   1
  -5  -4  -3 50285.7 1941.88   3
   5   4   3 55740.9 1989.39   2
   5   4   3 58886.9 2292.85   1
  -5  -4  -4-10.0013 130.264   3
   5   4   4-103.229 73.2202   2
  -5  -4  -4 141.796 119.874   4
   5   4   4 83.7935 91.5299   1
  -5  -4  -4-69.0819 119.858   1
   5   4   4-15.9885 53.6214   6
   5   4   5 23426.7 1471.08   1
  -5  -4  -5 21797.8 1492.77   4
  -5  -4  -5 22837.7 1355.81   3
   5   4   5 22222.5 975.756   6
   5   4   5 22594.6 1297.71   2
  -5  -4  -6 17034.4 1305.26   4
   5   4   6 16429.9 887.424   6
   5   4   6 16364.8 1147.40   2
  -5  -4  -7 33166.8 1877.09   4
   5   4   7 33108.0 1366.66   6
   5   4   7 31185.1 1681.69   2
  -5  -4  -8 9677.03 999.234   4
   5   4   8 7624.68 673.218   6
  -5  -4  -9 3648.02 625.665   4
   5   4   9 4566.04 668.255   3
   5   4   9 4571.93 543.720   6
  -5  -4 -10 29659.2 1850.64   4
   5   4  10 27008.3 1695.31   3
  -5  -4 -11 54049.1 2547.98   4
   5   4  11 51897.6 2468.22   3
   5   4  12 123.577 113.205   3
  -5  -4 -12 163.060 261.252   5
  -5  -4 -13 15709.5 1943.01   5
   5   4  13 15891.5 1426.34   3
  -5  -5   8 632.354 303.565   1
  -5  -5   8 1404.10 462.601   3
  -5  -5   7 14643.4 1417.51   3
   5   5  -7 13591.0 1618.16   7
  -5  -5   7 14445.8 1373.77   1
  -5  -5   6 378.894 269.659   3
  -5  -5   6 134.506 164.671   1
   5   5  -6 160.855 221.694   7
  -5  -5   5 8042.60 980.128   3
   5   5  -5 7457.06 1124.60   7
  -5  -5   5 7597.64 921.997   1
  -5  -5   4 12236.5 1173.71   3
   5   5  -4 11567.2 1378.07   7
  -5  -5   4 11893.0 1103.43   1
   5   5  -3 17222.2 1640.20   7
  -5  -5   3 16698.1 1160.53   2
  -5  -5   3 18768.6 1313.23   6
  -5  -5   3 18398.5 1337.84   1
   5   5  -2 82392.3 3659.86   7
  -5  -5   2 86300.3 2805.76   6
  -5  -5   2 81413.7 2644.49   2
  -5  -5   2 81442.1 2900.75   1
  -5  -5   2 75779.9 1884.53   5
   5   5  -1 2530.44 438.709   2
  -5  -5   1 2008.11 368.826   2
   5   5  -1 1736.98 483.209   7
  -5  -5   1 1913.84 367.743   6
  -5  -5   1 2066.53 292.708   5
  -5  -5   1 2277.55 431.431   1
   5   5   0 2872.00 446.993   2
  -5  -5   0 2966.09 488.178   1
  -5  -5   0 2444.01 396.245   2
  -5  -5   0 2034.20 446.049   4
   5   5   0 2100.90 531.970   7
  -5  -5  -1 50613.6 2336.42   4
  -5  -5  -1 46963.7 2025.73   1
   5   5   1 48556.5 2080.07   1
   5   5   1 49010.0 1861.12   2
   5   5   1 46379.3 2493.50   7
  -5  -5  -1 44275.5 1751.27   2
  -5  -5  -2 6029.22 795.109   4
  -5  -5  -2 7008.61 729.382   1
   5   5   2 6942.06 643.021   2
   5   5   2 6456.03 860.045   7
   5   5   2 6186.28 701.275   1
  -5  -5  -2 6693.73 545.835   6
  -5  -5  -3 53241.2 2418.81   4
   5   5   3 47367.6 2354.86   7
   5   5   3 50432.6 1835.24   2
  -5  -5  -3 50182.0 2065.36   1
  -5  -5  -3 45732.3 1945.56   3
   5   5   3 48194.6 1661.33   6
   5   5   3 52406.8 2161.30   1
  -5  -5  -4 24999.1 1625.84   4
   5   5   4 24133.4 1134.19   6
   5   5   4 25935.8 1301.12   2
   5   5   4 25625.0 1506.35   1
  -5  -5  -4 25758.7 1448.68   1
   5   5   5 5948.56 737.409   1
  -5  -5  -5 6203.95 802.316   4
   5   5   5 6527.38 589.812   6
   5   5   5 7466.91 713.728   2
   5   5   6 40.4932 86.4035   2
  -5  -5  -6 119.458 139.989   4
   5   5   6 124.084 97.4121   6
  -5  -5  -7 26420.6 1719.45   4
   5   5   7 25278.1 1325.34   6
   5   5   7 27369.6 1537.83   2
   5   5   8 2203.09 446.880   2
  -5  -5  -8 3091.59 591.759   4
   5   5   8 2584.90 412.327   6
  -5  -5  -9 10442.4 1085.95   4
   5   5   9 8873.65 827.541   6
  -5  -5 -10 259.291 207.816   4
   5   5  10 163.054 127.770   6
  -5  -5 -11 15051.7 1355.16   4
   5   5  11 16376.3 1423.04   3
   5   5  11 14050.5 1122.49   6
   5   5  12-62.2965 129.392   3
  -5  -5 -12-79.1214 135.760   4
   5   5  12 250.074 196.796   6
  -5  -5 -13 4079.03 723.534   4
  -5  -6   7 6326.52 986.752   3
  -5  -6   7 6601.91 917.716   1
  -5  -6   6 3734.31 741.000   3
   5   6  -6 3775.43 866.430   7
  -5  -6   6 5289.16 798.183   1
  -5  -6   5 19420.4 1647.40   3
   5   6  -5 19997.1 1956.32   7
  -5  -6   5 18235.0 1431.85   1
  -5  -6   4 4385.73 737.151   3
  -5  -6   4 3910.81 631.636   1
   5   6  -4 3717.76 832.805   7
   5   6  -3 3346.23 772.313   7
  -5  -6   3 2473.27 494.476   1
  -5  -6   2 493.583 189.209   2
   5   6  -2 259.459 262.373   7
  -5  -6   2 360.799 188.749   1
  -5  -6   1 3387.67 539.049   1
  -5  -6   1 2259.20 379.225   2
  -5  -6   1 2854.74 559.308   4
   5   6  -1 3272.47 743.270   7
  -5  -6   1 3296.49 517.564   6
  -5  -6   1 2873.83 385.399   5
  -5  -6   0 18914.0 1438.29   4
  -5  -6   0 18773.7 1234.87   1
   5   6   0 17640.2 1119.53   2
   5   6   0 19460.5 1711.81   7
  -5  -6   0 17480.9 1149.29   6
  -5  -6   0 16336.0 998.168   2
  -5  -6  -1 34022.8 1965.57   4
  -5  -6  -1 30149.9 1573.51   1
   5   6   1 32568.6 1478.21   2
   5   6   1 32779.7 2187.95   7
  -5  -6  -1 32747.7 1502.85   6
  -5  -6  -2 4300.56 695.078   4
   5   6   2 4038.16 489.212   2
   5   6   2 5049.61 630.491   1
  -5  -6  -2 5150.52 620.199   1
   5   6   2 4460.66 786.914   7
  -5  -6  -2 4548.62 515.356   6
   5   6   3 2271.55 353.934   2
   5   6   3 2362.73 434.230   1
  -5  -6  -3 3244.83 592.486   4
   5   6   3 1957.63 500.064   7
  -5  -6  -3 2233.15 410.826   1
   5   6   3 1904.24 353.054   6
  -5  -6  -4 28493.8 1796.49   4
   5   6   4 24646.3 1735.14   7
   5   6   4 28379.2 1321.86   2
   5   6   4 27792.1 1392.28   6
   5   6   4 26637.5 1542.69   1
  -5  -6  -5 53182.8 2538.26   4
   5   6   5 50808.3 1994.35   6
   5   6   5 52378.3 1933.23   2
   5   6   5 53376.7 2302.95   1
  -5  -6  -6 28695.9 1861.23   4
   5   6   6 29171.0 1506.00   6
   5   6   6 28486.6 1453.34   2
  -5  -6  -7 8443.73 1000.01   4
   5   6   7 7941.78 785.451   6
   5   6   7 8082.95 814.972   2
   5   6   8 134.175 163.528   2
  -5  -6  -8-10.8024 112.053   4
   5   6   8-112.069 114.475   6
   5   6   9 5325.15 722.204   2
  -5  -6  -9 6470.10 890.721   4
   5   6   9 5666.96 705.171   6
  -5  -6 -10-1.63576 141.829   4
   5   6  10-207.648 152.660   6
  -5  -6 -11 4127.62 728.996   4
   5   6  11 2998.15 558.253   6
  -5  -6 -12 929.149 365.918   4
   5   6  12 527.707 191.936   6
  -5  -6 -13 15243.2 1433.06   4
   5   6  13 12584.9 1207.19   6
  -5  -7   5 9052.26 1177.21   3
   5   7  -5 10744.3 1514.21   7
  -5  -7   4 75.8972 131.818   3
   5   7  -4 319.877 357.522   7
  -5  -7   4 83.4124 131.178   1
  -5  -7   3 18973.0 1331.28   1
   5   7  -3 18938.1 1917.60   7
  -5  -7   2 9609.36 907.108   1
  -5  -7   2 10894.3 1120.55   4
   5   7  -2 8895.72 1276.89   7
  -5  -7   1 17041.4 1418.85   4
  -5  -7   1 17554.0 1189.89   1
   5   7  -1 16099.4 1682.35   7
  -5  -7   0 304.115 228.479   4
   5   7   0 256.517 153.079   7
  -5  -7   0 103.676 110.881   1
  -5  -7  -1 97.6700 128.779   1
  -5  -7  -1 43.4842 187.917   4
  -5  -7  -1 124.079 119.224   6
   5   7   2 594.576 221.757   1
   5   7   2 386.352 139.535   2
  -5  -7  -2 636.630 230.092   1
  -5  -7  -2 461.394 243.306   4
   5   7   2 283.719 244.061   7
  -5  -7  -2 298.033 148.505   6
  -5  -7  -3 37993.8 2176.59   4
   5   7   3 36591.7 1439.30   2
   5   7   3 35571.2 1751.25   1
   5   7   3 36464.9 1775.93   6
  -5  -7  -3 33942.1 1531.40   6
  -5  -7  -3 35435.2 1673.33   1
  -5  -7  -4 21172.7 1613.27   4
   5   7   4 20859.5 1079.32   2
   5   7   4 20818.6 1362.40   1
   5   7   4 20926.9 1330.38   6
  -5  -7  -5 1720.86 455.488   4
   5   7   5 2325.61 455.033   1
   5   7   5 2493.56 382.676   2
   5   7   5 2051.68 520.142   7
   5   7   5 2218.39 444.286   6
  -5  -7  -6 13892.9 1323.96   4
   5   7   6 10716.3 1120.89   7
   5   7   6 13723.7 1112.79   6
   5   7   6 13253.6 938.057   2
  -5  -7  -7 20723.5 1641.78   4
   5   7   7 20268.1 1412.39   6
   5   7   7 20384.4 1241.48   2
   5   7   8 268.363 190.271   2
  -5  -7  -8 503.067 258.082   4
   5   7   8 188.112 166.831   6
  -5  -7  -9 13922.5 1363.49   4
   5   7   9 11473.0 1110.39   6
   5   7   9 13670.1 1147.49   2
   5   7  10 2869.05 563.697   2
  -5  -7 -10 2334.07 574.520   4
   5   7  10 1806.47 439.734   6
  -5  -7 -11 15211.5 1452.14   4
   5   7  11 13838.4 1277.72   6
  -5  -7 -12 871.369 355.547   4
   5   7  12 1382.36 416.842   6
  -5  -7 -13 2856.66 653.431   4
   5   7  13 2174.61 524.387   6
  -5  -8   4 837.130 335.078   3
   5   8  -3 16204.0 1842.21   7
  -5  -8   2 594.202 236.142   4
   5   8  -2 988.462 401.776   7
  -5  -8   1 3635.13 680.829   4
   5   8  -1 3020.39 741.110   7
  -5  -8   0 8997.23 1056.22   4
  -5  -8   0 9087.93 795.147   1
  -5  -8  -1 6183.99 882.506   4
   5   8   1 7566.44 1131.17   7
  -5  -8  -1 8273.27 751.933   1
  -5  -8  -2 816.440 339.466   4
   5   8   2 596.093 268.299   7
  -5  -8  -3 10891.1 1191.36   4
   5   8   3 8116.10 1104.33   7
   5   8   3 12009.6 1096.53   6
  -5  -8  -4 169.537 148.643   4
   5   8   4 298.583 241.554   7
   5   8   4 72.5078 102.230   6
  -5  -8  -5 20692.7 1671.74   4
   5   8   5 17712.7 1548.44   7
   5   8   5 20009.8 1462.98   6
  -5  -8  -6-26.4608 125.751   4
   5   8   6-118.148 189.449   7
   5   8   6 172.991 146.958   6
   5   8   7 12377.9 1207.62   7
   5   8   7 14491.5 1281.75   6
  -5  -8  -8 9146.67 1143.71   4
   5   8   8 8211.91 941.217   7
   5   8   8 9235.02 1035.99   6
  -5  -8  -9 7769.08 1058.88   4
   5   8   9 7109.35 934.039   6
  -5  -8 -10 4443.61 815.351   4
   5   8  10 4888.99 782.442   6
  -5  -8 -11 3031.81 675.390   4
   5   8  11 1637.15 471.348   6
  -5  -8 -12 345.804 273.013   4
   5   8  12-219.116 212.679   6
  -5  -9   2 7134.02 977.290   4
   5   9  -2 6588.51 1191.23   7
  -5  -9   1 10222.7 1180.18   4
   5   9  -1 9039.82 1345.49   7
  -5  -9   0 1190.91 415.642   4
   5   9   0 2075.80 627.686   7
  -5  -9  -1 24258.4 1834.87   4
   5   9   1 17964.0 1798.92   7
  -5  -9  -2 100.709 188.165   4
   5   9   2-102.167 164.139   7
  -5  -9  -3 13979.4 1414.30   4
   5   9   3 12082.6 1378.78   7
   5   9   3 14205.9 1312.86   6
  -5  -9  -4 4726.48 824.681   4
   5   9   4 4062.09 781.745   7
   5   9   4 3593.52 653.228   6
  -5  -9  -5 9841.69 1206.07   4
   5   9   5 7506.68 1006.91   7
   5   9   5 6869.64 918.787   6
  -5  -9  -6 7195.30 1038.13   4
   5   9   6 6553.63 908.966   7
   5   9   6 6955.41 946.933   6
  -5  -9  -7 4663.65 852.699   4
   5   9   7 4033.98 680.836   7
   5   9   7 4039.84 729.610   6
  -5  -9  -8 3493.73 747.502   4
   5   9   8 4017.97 738.333   6
  -5  -9  -9 9921.44 1265.66   4
   5   9   9 8979.53 1123.39   6
   5   9  10 263.396 201.432   6
   5   9  11 16241.4 1578.21   6
  -5 -10   2 1033.02 399.891   4
  -5 -10   1 14365.6 1468.78   4
   5  10  -1 13124.2 1672.03   7
  -5 -10   0 2611.06 640.983   4
   5  10   0 2093.86 636.033   7
  -5 -10  -1 3196.27 703.000   4
   5  10   1 2219.92 634.826   7
  -5 -10  -2 5251.37 877.714   4
   5  10   2 3513.85 753.858   7
  -5 -10  -3 3882.58 781.554   4
   5  10   3 3118.51 693.283   7
   5  10   3 3047.54 641.622   6
  -5 -10  -4 13874.1 1492.33   4
   5  10   4 13536.6 1375.60   7
   5  10   4 12385.3 1316.59   6
   5  10   5 15444.5 1482.26   6
   5  10   6 6018.12 939.414   6
   5  10   7 9368.84 1203.12   6
   5  10   8 844.296 362.475   6
   5  10   9 12684.6 1437.84   6
   5  11   4 1288.15 457.277   6
   5  11   5 4549.30 859.962   6
   5  11   6 2866.81 700.963   6
   5  11   7 7613.52 1143.28   6
  -6   9   2 7890.54 1048.00   8
  -6   9   2 7340.47 1175.44   6
  -6   9   1 2647.83 634.246   8
  -6   9   1 2000.64 568.226   6
  -6   9   0 3247.71 757.378   6
  -6   9  -1 88.7608 113.644   6
   6  -8  -5 3436.88 653.659   2
  -6   8   5 2731.98 732.653   6
   6  -8  -4 14017.3 1321.26   2
  -6   8   4 14897.1 1674.92   6
   6  -8  -3 999.514 356.588   2
  -6   8   3 379.641 237.702   8
  -6   8   3 289.321 226.749   6
   6  -8  -2 859.092 349.955   2
  -6   8   2 726.685 317.276   8
  -6   8   2 1187.43 444.489   6
   6  -8  -1 784.712 286.447   2
  -6   8   1 1048.43 390.269   8
  -6   8   1 612.812 330.359   6
   6  -8   0 1852.51 471.265   2
  -6   8   0 2656.96 628.141   8
   6  -8   0 1959.93 597.759   4
  -6   8   0 1849.87 515.354   6
   6  -8   1 1443.64 396.500   2
  -6   8  -1 1075.58 421.118   8
   6  -8   1 1713.61 565.686   4
  -6   8  -1 1259.37 413.471   6
  -6   8  -2 27920.1 2153.79   8
   6  -8   2 27551.3 2155.46   4
   6  -8   2 26045.7 1802.22   2
  -6   8  -2 27714.1 1979.97   6
   6  -8   3 6233.28 997.891   4
   6  -8   3 6350.78 891.671   2
   6  -8   4 20.6704 128.011   2
   6  -8   4-39.9479 140.791   4
   6  -8   5-445.403 255.390   2
  -6   7   7 3098.25 708.102   1
  -6   7   7 1564.01 553.265   6
  -6   7   6 9500.40 1349.85   6
  -6   7   6 12379.2 1454.35   1
   6  -7  -5 446.119 244.549   2
  -6   7   5 2.19484 97.6573   1
  -6   7   5 366.277 264.015   6
  -6   7   4 13209.1 1189.92   8
   6  -7  -4 12906.1 1256.91   2
  -6   7   4 12650.4 1453.12   6
  -6   7   4 14183.0 1505.85   1
  -6   7   3 49.7052 110.367   1
   6  -7  -3 67.6102 101.351   2
  -6   7   3 212.535 202.614   8
   6  -7  -3-133.835 257.383   4
  -6   7   3 334.003 300.612   6
  -6   7   2 9330.44 1149.79   1
  -6   7   2 9376.64 1062.13   8
   6  -7  -2 8091.63 966.444   2
  -6   7   2 9313.71 1137.79   6
   6  -7  -1 243.035 156.319   2
  -6   7   1 44.8303 89.4245   8
  -6   7   1-147.338 140.621   1
  -6   7   1-51.9634 140.454   6
  -6   7   0 9947.27 1156.67   8
  -6   7   0 9011.08 1056.10   1
   6  -7   0 9036.53 1012.87   2
  -6   7   0 9803.67 1107.37   6
  -6   7  -1 12214.7 1319.74   8
   6  -7   1 10074.7 1079.49   2
  -6   7  -1 12158.1 1191.38   1
  -6   7  -1 11721.2 1180.92   6
   6  -7   2 2404.00 532.553   2
  -6   7  -2 3127.49 592.747   1
  -6   7  -2 3219.50 697.930   8
   6  -7   2 2784.85 660.632   4
  -6   7  -2 3063.69 606.103   6
   6  -7   3 185.135 137.934   2
  -6   7  -3 81.3317 201.388   8
   6  -7   3 325.249 263.920   4
  -6   7  -4 11582.5 1391.40   8
   6  -7   4 11728.1 1296.03   4
   6  -7   4 10677.0 1181.02   2
   6  -7   5 186.377 165.355   2
   6  -7   5 243.457 199.638   4
   6  -7   6 5959.54 931.184   2
   6  -7   7 48.9810 126.988   2
  -6   6   8 7306.98 1133.61   6
  -6   6   7 1016.05 417.699   1
  -6   6   7 870.098 339.249   6
   6  -6  -6 9745.51 1133.29   2
  -6   6   6 9736.25 1257.15   1
  -6   6   6 7748.56 1141.84   6
   6  -6  -5 2918.25 607.034   2
  -6   6   5 1463.86 470.764   1
  -6   6   5 2060.92 560.746   6
   6  -6  -4 10910.5 1151.07   2
  -6   6   4 10305.1 1218.33   6
  -6   6   4 11410.8 1312.65   1
  -6   6   3 12758.6 1355.32   1
   6  -6  -3 13974.8 1277.45   2
  -6   6   3 14367.0 1377.41   6
  -6   6   2 23187.6 1792.34   1
   6  -6  -2 21298.9 1560.21   2
  -6   6   2 21443.5 1619.47   6
  -6   6   1 10764.0 1185.81   1
   6  -6  -1 12990.6 1201.68   2
  -6   6   1 11471.2 1136.54   6
  -6   6   0 8616.12 1033.76   1
   6  -6   0 7781.87 928.903   2
  -6   6   0 7565.52 884.291   6
  -6   6  -1 12069.5 1262.10   8
  -6   6  -1 12120.6 1190.42   1
   6  -6   1 11671.0 1140.50   2
  -6   6  -1 11626.0 1089.79   6
  -6   6  -2 40933.9 2420.18   8
   6  -6   2 42361.9 2240.20   2
  -6   6  -2 37273.6 2100.12   1
  -6   6  -2 44156.4 2147.93   6
  -6   6  -3 2216.16 477.684   1
   6  -6   3 2555.47 554.675   2
  -6   6  -3 2178.77 573.829   8
  -6   6  -4 13924.7 1462.55   8
   6  -6   4 12739.2 1253.55   2
  -6   6  -5 2270.77 582.707   5
   6  -6   5 2025.13 513.204   2
  -6   6  -5 1840.81 551.548   8
  -6   6  -6 355.211 247.298   5
   6  -6   6 651.980 288.296   2
  -6   6  -6 749.576 308.201   8
   6  -6   7 554.120 295.373   2
   6  -6   8 21034.9 1846.43   2
  -6   5   8 5958.14 957.117   6
  -6   5   7 8708.99 1213.02   1
  -6   5   7 8320.00 1119.27   6
   6  -5  -6 3715.30 692.330   2
  -6   5   6 4018.27 795.718   1
  -6   5   6 3443.00 692.791   6
   6  -5  -5 7425.28 946.905   2
  -6   5   5 5761.75 930.733   1
  -6   5   5 6065.75 905.759   6
   6  -5  -4 13223.5 1254.18   2
   6  -5  -4 14886.8 1118.12   7
  -6   5   4 15361.8 1396.57   6
  -6   5   4 15415.2 1487.75   1
   6  -5  -3 3251.44 606.416   2
   6  -5  -3 2461.65 444.613   7
  -6   5   3 2377.34 563.905   1
  -6   5   3 2250.81 510.726   6
  -6   5   2 27591.6 1930.52   1
   6  -5  -2 33081.0 1933.16   2
  -6   5   2 31968.2 1837.95   6
   6  -5  -1 2389.93 495.375   2
  -6   5   1 2785.25 592.355   1
  -6   5   1 3623.04 579.272   6
  -6   5   0 12760.6 1243.16   1
   6  -5   0 10975.0 1084.63   2
  -6   5   0 11971.1 1032.75   6
   6  -5   1 1351.00 377.663   2
  -6   5  -1 1026.40 337.539   1
  -6   5  -1 1157.92 319.126   6
  -6   5  -2 15284.0 1306.73   1
   6  -5   2 14790.1 1271.45   2
  -6   5  -2 16056.5 1153.82   6
   6  -5   3 294.176 167.618   2
  -6   5  -3 890.046 297.250   1
  -6   5  -4 34460.6 2237.41   8
   6  -5   4 37784.2 2148.61   2
  -6   5  -4 37827.7 2304.64   5
  -6   5  -4 38044.7 2082.68   1
  -6   5  -5 564.863 285.896   5
   6  -5   5 604.834 290.214   2
  -6   5  -5 527.271 274.636   8
  -6   5  -6 31151.7 2225.27   8
   6  -5   6 30512.6 2046.62   2
  -6   5  -6 31217.8 2279.73   5
  -6   5  -7 1196.15 445.270   5
   6  -5   7 1039.07 423.579   2
  -6   5  -7 1065.43 420.876   8
  -6   5  -8 3226.92 781.050   5
   6  -5   8 3020.19 668.251   2
  -6   5  -8 3735.23 816.956   8
   6  -5   9 1108.91 440.021   2
  -6   4   9 3188.21 675.327   6
  -6   4   8 9835.21 1137.20   6
  -6   4   7 2426.87 622.746   1
  -6   4   7 2029.24 487.922   6
   6  -4  -6 9971.44 1124.61   2
   6  -4  -6 9736.84 969.749   7
  -6   4   6 9809.90 1223.29   1
  -6   4   6 7760.13 982.052   6
   6  -4  -5 1054.46 355.941   2
  -6   4   5 825.676 340.335   1
   6  -4  -5 1281.22 353.118   7
  -6   4   5 1224.23 392.525   6
   6  -4  -4 16951.7 1406.09   2
   6  -4  -4 17546.2 1259.71   7
  -6   4   4 16972.6 1369.10   6
  -6   4   4 16424.9 1502.88   1
   6  -4  -3 256.642 204.956   2
   6  -4  -3 497.881 205.300   5
  -6   4   3 97.9939 184.106   1
   6  -4  -3 344.240 191.817   7
  -6   4   3 85.4279 110.374   6
   6  -4  -2 4033.71 600.822   5
   6  -4  -2 4249.96 662.169   2
  -6   4   2 4017.59 577.061   6
  -6   4   2 3763.25 679.046   1
   6  -4  -1 29201.6 1696.68   5
  -6   4   1 33155.0 2040.62   1
   6  -4  -1 34579.6 1917.93   2
  -6   4   1 33760.6 1643.93   6
  -6   4   0 22516.7 1644.54   1
   6  -4   0 25294.9 1626.40   2
  -6   4   0 23936.3 1311.93   6
  -6   4  -1 21139.4 1559.60   1
   6  -4   1 23157.7 1552.26   2
  -6   4  -1 22499.7 1235.85   6
  -6   4  -2 27290.6 1756.31   1
   6  -4   2 31395.0 1837.60   2
  -6   4  -2 31209.7 1451.16   6
  -6   4  -2 28399.0 1763.09   5
  -6   4  -3 1854.32 454.481   5
   6  -4   3 1612.59 391.916   2
   6  -4   3 1587.32 151.813   3
  -6   4  -3 1546.26 407.922   1
   6  -4   4 38419.5 1200.64   3
   6  -4   4 38254.9 2118.96   2
  -6   4  -4 34603.9 1988.69   1
  -6   4  -4 41121.6 2329.64   5
  -6   4  -5 1255.51 430.331   5
   6  -4   5 1221.46 232.729   3
   6  -4   5 1558.07 439.448   2
  -6   4  -6 13207.6 1371.29   8
   6  -4   6 13395.0 885.641   3
   6  -4   6 11959.3 1227.46   2
  -6   4  -6 12867.5 1419.10   5
  -6   4  -7 224.819 170.237   5
   6  -4   7 58.1027 75.7716   3
   6  -4   7 14.2836 88.8348   2
  -6   4  -7-155.826 186.912   8
  -6   4  -8 10408.0 1270.85   8
   6  -4   8 8790.68 848.072   3
   6  -4   8 9136.86 1159.11   2
  -6   4  -8 9608.55 1325.08   5
  -6   4  -9 153.797 238.876   5
   6  -4   9-130.389 100.801   3
   6  -4   9 301.079 305.830   2
  -6   4  -9-108.695 162.175   8
  -6   4 -10 5622.99 991.332   8
   6  -4  10 5007.07 727.716   3
   6  -4  11 2972.20 587.026   3
  -6   3   8 2747.61 660.220   1
   6  -3  -8 1373.95 396.454   7
  -6   3   7 133.310 173.676   1
   6  -3  -7 154.478 155.299   7
   6  -3  -6 18439.6 1527.86   2
   6  -3  -6 16973.8 1343.53   7
  -6   3   6 19258.7 1700.18   1
  -6   3   6 16053.5 1303.68   6
   6  -3  -5 415.680 215.412   2
  -6   3   5 40.0469 130.873   1
   6  -3  -5 186.749 141.282   7
  -6   3   5 328.249 189.020   6
   6  -3  -4 5570.13 784.889   2
  -6   3   4 4546.72 771.905   1
   6  -3  -4 5446.97 716.868   7
  -6   3   4 5720.28 732.376   6
   6  -3  -3 239.508 149.989   2
  -6   3   3-84.2629 156.713   1
   6  -3  -3 67.3575 123.417   7
  -6   3   3 303.597 183.826   6
   6  -3  -2 45095.5 1898.85   5
   6  -3  -2 54376.4 2438.09   2
  -6   3   2 51933.8 2009.36   6
  -6   3   2 49151.9 2512.00   1
  -6   3   1 4596.12 730.389   1
   6  -3  -1 4635.56 603.257   5
   6  -3  -1 6219.79 772.351   2
  -6   3   1 6265.63 606.971   6
   6  -3   0 6809.62 760.068   5
  -6   3   0 6369.70 842.043   1
   6  -3   0 8383.80 906.639   2
  -6   3   0 6671.89 602.888   6
   6  -3   1 19568.5 1339.36   5
  -6   3  -1 21193.5 1543.26   1
   6  -3   1 21860.6 1484.31   2
  -6   3  -1 22568.2 1069.02   6
  -6   3  -2 2774.58 522.374   5
   6  -3   2 2927.40 528.959   5
   6  -3   2 3180.48 555.273   2
  -6   3  -2 2769.25 554.314   1
  -6   3  -3 553.749 236.191   5
   6  -3   3 408.283 162.888   2
  -6   3  -3 574.159 247.275   1
   6  -3   4 26646.9 948.842   3
  -6   3  -4 25415.0 1666.07   1
   6  -3   4 26917.9 1712.96   2
   6  -3   4 26264.2 1085.59   6
  -6   3  -4 25529.6 1760.66   5
  -6   3  -5 5823.49 790.603   1
   6  -3   5 5188.71 465.796   3
   6  -3   5 4885.92 488.456   6
   6  -3   5 5257.20 765.456   2
  -6   3  -5 4986.93 814.224   5
   6  -3   6 54226.0 1822.33   3
   6  -3   6 56915.8 2701.55   2
  -6   3  -6 53385.3 2847.57   5
   6  -3   7 6098.99 627.981   3
   6  -3   7 5756.63 854.393   2
  -6   3  -7 6348.17 996.568   5
  -6   3  -8 17969.9 1767.40   5
  -6   3  -8 20019.2 1705.31   8
   6  -3   8 18985.2 1209.45   3
   6  -3   8 18347.9 1613.67   2
  -6   3  -9 2813.90 720.242   5
   6  -3   9 3856.27 571.202   3
   6  -3   9 3208.05 708.658   2
  -6   3  -9 3700.12 741.055   8
  -6   3 -10 7493.10 1242.32   5
  -6   3 -10 8460.80 1149.86   8
   6  -3  10 7299.54 846.685   3
   6  -3  10 7663.18 1116.88   2
   6  -3  11-17.0784 119.235   3
  -6   3 -11 172.780 187.981   8
   6  -3  12-302.222 205.813   3
   6  -2  -9 776.078 318.824   7
   6  -2  -8 12255.0 1234.36   7
  -6   2   8 13180.5 1475.54   1
  -6   2   7 545.846 283.013   1
   6  -2  -7 187.678 154.386   7
   6  -2  -6 7254.32 939.736   2
   6  -2  -6 6537.02 863.118   7
  -6   2   6 7363.87 1039.13   1
   6  -2  -5 10684.2 1112.13   2
   6  -2  -5 10673.2 1067.15   7
  -6   2   5 12318.1 1299.64   1
   6  -2  -4 20168.2 1497.55   2
   6  -2  -4 18927.6 1400.87   7
  -6   2   4 20924.7 1668.94   1
  -6   2   4 21054.5 1300.27   6
   6  -2  -3 4529.53 458.266   5
   6  -2  -3 5056.09 712.571   2
   6  -2  -3 5153.18 709.898   7
  -6   2   3 5310.80 804.850   1
  -6   2   3 5281.60 605.525   6
   6  -2  -2 844.760 290.832   2
   6  -2  -2 1480.27 286.570   5
  -6   2   2 755.931 315.116   1
   6  -2  -2 559.739 246.957   7
  -6   2   2 1108.49 262.696   6
   6  -2  -1-110.749 207.635   2
  -6   2   1 46.4907 92.0885   1
  -6   2   1-11.5793 45.6944   6
   6  -2   0 19457.0 1197.69   5
  -6   2   0 22769.3 1599.52   1
   6  -2   0 22229.6 1463.71   2
  -6   2   0 22908.2 971.917   6
  -6   2  -1-69.3475 83.8462   5
   6  -2   1 124.002 135.693   5
   6  -2   1 91.6172 146.306   2
  -6   2  -1-146.249 210.601   1
  -6   2  -1-4.01900 35.7082   6
  -6   2  -2 49479.7 2354.26   1
   6  -2   2 47760.4 2207.83   2
  -6   2  -2 47342.6 2106.84   5
  -6   2  -3 136.236 149.988   5
  -6   2  -3 193.708 156.962   1
   6  -2   3-38.9548 138.736   5
   6  -2   3 326.284 166.377   2
   6  -2   4 17703.2 765.264   3
  -6   2  -4 17110.8 1351.24   1
   6  -2   4 17903.7 1367.04   2
  -6   2  -4 15641.9 1330.35   5
  -6   2  -5 3994.24 469.855   3
  -6   2  -5 3434.93 641.742   5
   6  -2   5 3869.34 641.683   2
  -6   2  -5 3507.86 610.700   1
   6  -2   5 3706.43 400.783   3
   6  -2   5 3468.90 349.285   6
  -6   2  -6 16839.5 1496.81   5
  -6   2  -6 15841.0 1072.94   3
   6  -2   6 16149.7 926.475   3
   6  -2   6 14526.7 832.853   6
   6  -2   6 15398.4 1333.93   2
  -6   2  -7 6837.73 1007.61   5
  -6   2  -7 8116.50 842.611   3
   6  -2   7 8074.14 707.284   3
   6  -2   7 7559.39 975.658   2
  -6   2  -8 43262.4 2698.97   5
   6  -2   8 47303.1 1938.00   3
  -6   2  -9 423.376 256.936   5
  -6   2  -9 68.3566 119.199   8
   6  -2   9 110.885 155.742   3
   6  -2   9 136.756 175.267   2
  -6   2 -10 3673.42 846.435   5
   6  -2  10 4918.87 885.199   2
  -6   2 -10 4397.33 795.257   8
   6  -2  10 4222.82 626.184   3
  -6   2 -11 732.262 339.991   5
   6  -2  11 277.879 194.787   3
   6  -2  11 1192.30 482.864   2
  -6   2 -11 763.350 352.636   8
  -6   2 -12 10159.5 1247.83   8
   6  -2  12 8087.53 976.064   3
   6  -1  -9 8950.24 1133.95   7
  -6   1   8 1884.94 569.847   1
   6  -1  -8 1848.14 499.033   7
  -6   1   7 2357.39 610.747   1
   6  -1  -7 2712.70 594.929   7
  -6   1   6 1599.26 465.987   1
   6  -1  -6 1344.66 404.038   7
   6  -1  -5 3289.37 602.091   2
  -6   1   5 3047.43 644.590   1
   6  -1  -5 2717.19 560.042   7
  -6   1   5 3688.46 349.413   3
   6  -1  -4 11407.8 1104.09   2
   6  -1  -4 10179.2 1059.01   7
  -6   1   4 10857.2 1172.33   1
  -6   1   4 11050.6 517.781   3
   6  -1  -3 391.336 265.966   2
  -6   1   3 184.260 178.560   1
   6  -1  -3 138.552 152.101   7
   6  -1  -2 51843.7 2304.25   2
  -6   1   2 52842.0 1730.09   6
  -6   1   2 54136.5 2565.69   1
   6  -1  -1 361.895 191.320   2
  -6   1   1 384.638 213.114   1
  -6   1   1 289.246 108.188   6
  -6   1   0 23824.1 1639.91   1
   6  -1   0 25756.6 1562.29   2
  -6   1   0 26978.0 867.749   6
  -6   1   0 26038.6 1226.33   5
  -6   1  -1 1568.51 325.703   5
   6  -1   1 1628.03 388.754   2
  -6   1  -1 1525.28 401.063   1
  -6   1  -2 2523.38 188.972   3
  -6   1  -2 2763.84 467.882   5
   6  -1   2 2435.10 483.380   2
  -6   1  -2 1604.43 409.362   1
  -6   1  -3 1793.31 229.908   3
  -6   1  -3 1557.59 389.352   1
  -6   1  -3 1823.47 416.651   5
   6  -1   3 1787.32 410.460   2
  -6   1  -4 18394.2 921.820   3
  -6   1  -4 17136.9 1332.17   5
  -6   1  -4 16404.0 1318.31   1
   6  -1   4 17992.2 1347.69   2
   6  -1   5 331.827 137.450   3
  -6   1  -5 218.551 160.323   5
   6  -1   5 537.222 217.819   2
  -6   1  -5 513.004 252.514   1
   6  -1   5 671.894 111.247   6
  -6   1  -6 30369.9 1524.79   3
   6  -1   6 28704.0 1277.75   3
   6  -1   6 27696.1 1000.77   6
   6  -1   6 30445.7 1846.70   2
   6  -1   7 860.193 249.768   3
  -6   1  -7 325.524 253.587   5
  -6   1  -7 396.172 168.226   3
   6  -1   7 481.280 270.590   2
   6  -1   7 532.829 166.625   6
  -6   1  -8 25119.3 1963.98   5
   6  -1   8 26339.7 1404.54   3
   6  -1   8 28503.0 1942.30   2
   6  -1   9 1938.05 405.148   3
  -6   1  -9 780.870 370.852   5
   6  -1   9 2369.88 551.651   2
   6  -1  10 33525.7 2283.09   2
  -6   1 -10 31728.6 2452.04   5
  -6   1 -10 31832.2 2066.42   8
   6  -1  10 31236.7 1728.86   3
  -6   1 -11 635.379 432.640   5
   6  -1  11 316.119 234.399   3
   6  -1  11 347.536 253.328   2
  -6   1 -11 47.9781 118.039   8
  -6   1 -12 4490.00 792.600   8
   6  -1  12 5687.90 806.044   3
  -6   1 -13 7.58679 172.963   8
   6   0  -9 12554.6 1396.68   7
  -6   0   8 6054.49 1008.73   1
   6   0  -8 7670.00 1051.49   7
  -6   0   7 329.893 256.009   1
   6   0  -7 475.514 307.949   7
   6   0  -6 22181.0 1731.74   7
  -6   0   6 27300.6 1996.23   1
  -6   0   6 26408.8 1263.41   3
   6   0  -5 6243.67 838.059   2
   6   0  -5 5582.26 825.833   7
  -6   0   5 6543.56 939.503   1
  -6   0   5 5074.42 503.145   3
   6   0  -4 35691.1 1977.44   2
   6   0  -4 32832.6 1987.82   7
  -6   0   4 34818.1 2139.61   1
  -6   0   4 36859.5 1297.80   3
   6   0  -3 21190.5 1459.82   2
   6   0  -3 19159.3 1481.66   7
  -6   0   3 23262.8 1682.02   1
  -6   0   3 22352.7 898.767   3
   6   0  -2 5743.63 731.451   2
   6   0  -2 4716.55 700.619   7
  -6   0   2 4026.55 673.871   1
  -6   0   2 5207.75 374.072   3
  -6   0   1 519.310 107.890   3
   6   0  -1 725.953 251.849   2
  -6   0   1 718.011 127.447   3
   6   0  -1 650.811 278.305   7
  -6   0   1 727.634 285.317   1
  -6   0   1 608.107 143.271   6
  -6   0   0 365.828 220.419   1
  -6   0   0 528.704 187.323   5
   6   0   0 232.098 177.091   2
  -6   0   0 752.142 133.327   3
  -6   0   0 381.691 69.6948   6
  -6   0  -1 84513.8 3162.43   1
   6   0   1 86962.2 2972.91   2
  -6   0  -1 86328.2 1834.75   3
  -6   0  -1 78479.6 2418.77   5
  -6   0  -2 64464.9 2292.36   5
  -6   0  -2 61480.3 2649.75   1
   6   0   2 64562.4 2531.60   2
  -6   0  -2 68015.4 1706.48   3
  -6   0  -3-77.4326 130.710   5
  -6   0  -3 333.162 120.594   3
   6   0   3 126.872 103.177   2
  -6   0  -3 195.767 141.726   1
  -6   0  -4 14753.4 1167.94   5
  -6   0  -4 17642.9 1356.25   1
   6   0   4 18409.3 1347.82   2
  -6   0  -4 18356.3 1007.33   3
  -6   0  -5 4301.52 658.198   5
  -6   0  -5 4572.24 692.976   1
   6   0   5 4960.97 694.175   2
  -6   0  -6 14475.0 1287.67   5
   6   0   6 16929.4 987.819   3
   6   0   6 16819.8 581.217   6
   6   0   6 14320.3 1241.87   2
  -6   0  -6 16117.4 1165.96   3
   6   0   7 230.003 145.686   3
  -6   0  -7 744.795 321.573   5
  -6   0  -7 334.948 179.108   3
   6   0   7 140.106 142.327   2
   6   0   7 257.124 100.503   6
  -6   0  -8 15622.0 1481.39   5
   6   0   8 14417.1 1034.40   3
   6   0   8 14046.6 1304.86   2
   6   0   9 604.751 237.328   3
  -6   0  -9 619.622 281.935   5
   6   0   9 631.070 262.041   2
   6   0  10 27713.4 2039.39   2
  -6   0 -10 27516.7 2239.66   5
   6   0  10 28370.8 1636.56   3
   6   0  11 562.898 296.470   3
  -6   0 -11 500.622 318.217   5
  -6   0 -11 611.006 284.391   8
   6   0  12 4475.29 707.333   3
  -6   0 -12 6434.14 1203.25   5
  -6   0 -12 4415.28 747.702   8
   6   0  13 951.485 376.879   3
  -6   0 -13 1080.83 379.253   8
   6   1  -8 21141.6 1836.31   7
  -6  -1   8 25460.7 2039.08   1
  -6  -1   7 2131.75 421.634   3
  -6  -1   7 1377.32 447.199   1
   6   1  -7 2064.05 543.624   7
   6   1  -6 6045.27 917.005   7
  -6  -1   6 6382.03 953.693   1
  -6  -1   6 5306.46 624.819   3
   6   1  -5 15451.6 1434.07   7
  -6  -1   5 15220.5 1427.46   1
  -6  -1   5 15482.5 1014.11   3
   6   1  -4 5387.23 752.153   2
   6   1  -4 5039.39 787.018   7
  -6  -1   4 5599.23 835.059   1
  -6  -1   4 5117.62 548.475   3
  -6  -1   3 3183.69 406.127   3
   6   1  -3 5189.50 708.938   2
  -6  -1   3 3602.11 660.411   1
   6   1  -3 3252.64 648.404   7
  -6  -1   2 42045.6 1480.55   3
   6   1  -2 38668.4 1949.47   2
   6   1  -2 35888.4 2081.92   7
  -6  -1   2 40621.3 2187.96   1
  -6  -1   1 58459.2 1744.06   3
   6   1  -1 58833.2 2394.93   2
   6   1  -1 52553.3 2470.71   7
  -6  -1   1 58938.2 1525.75   6
  -6  -1   1 56305.6 2564.70   1
  -6  -1   0 58078.2 2585.15   1
   6   1   0 59636.6 2380.28   2
  -6  -1   0 63500.7 1717.84   5
  -6  -1  -1-45.8362 91.6468   5
  -6  -1  -1 22.5593 43.6098   3
   6   1   1 212.430 168.347   2
  -6  -1  -1-170.128 180.248   1
  -6  -1  -2 1077.67 263.989   5
  -6  -1  -2 756.866 183.399   3
   6   1   2 1677.25 385.439   2
  -6  -1  -2 1736.86 432.475   1
  -6  -1  -3 3971.54 544.710   5
  -6  -1  -3 4382.15 686.719   1
   6   1   3 4368.81 623.402   2
  -6  -1  -3 4410.96 491.081   3
  -6  -1  -4 58997.9 2353.55   5
  -6  -1  -4 57981.5 2539.69   1
   6   1   4 63187.3 2527.90   2
  -6  -1  -5 8343.07 889.520   5
  -6  -1  -5 10494.0 1033.90   1
   6   1   5 8348.33 898.103   2
  -6  -1  -5 9011.36 843.067   3
  -6  -1  -6 3826.30 645.018   5
  -6  -1  -6 3354.68 555.236   3
   6   1   6 5076.78 710.367   2
  -6  -1  -7 31370.0 2003.14   5
   6   1   7 32756.7 1543.54   3
   6   1   7 35908.3 1100.10   6
  -6  -1  -7 29698.0 1826.52   3
   6   1   7 34227.6 1978.94   2
  -6  -1  -8 21892.5 1763.69   5
   6   1   8 22258.6 1318.11   3
   6   1   8 23182.3 1663.83   2
   6   1   9 3254.24 523.784   3
  -6  -1  -9 3599.78 745.525   5
   6   1   9 2409.12 559.605   2
   6   1  10 9787.66 1170.70   2
  -6  -1 -10 10860.5 1383.43   5
   6   1  10 9568.31 954.543   3
   6   1  11 2315.67 489.869   3
  -6  -1 -11 1027.90 457.415   5
  -6  -1 -12 9856.38 1475.52   5
  -6  -1 -12 10616.7 1104.90   8
   6   1  12 10662.9 1122.45   3
   6   1  13 1318.94 434.007   3
  -6  -2   8 4255.07 664.468   3
  -6  -2   8 3336.76 730.456   1
   6   2  -8 4019.20 806.530   7
   6   2  -7 11917.4 1374.96   7
  -6  -2   7 11307.3 1308.78   1
  -6  -2   7 12013.5 1075.77   3
  -6  -2   6 4543.47 808.943   1
   6   2  -6 3955.67 770.362   7
  -6  -2   6 4249.56 606.024   3
  -6  -2   5 1222.41 313.938   3
  -6  -2   5 988.111 412.227   1
   6   2  -5 1177.13 415.677   7
  -6  -2   4 25199.2 1394.89   3
   6   2  -4 26070.3 1696.78   2
   6   2  -4 23285.5 1798.17   7
  -6  -2   4 25590.5 1804.97   1
  -6  -2   3 18342.9 1119.90   3
   6   2  -3 17664.5 1327.69   2
  -6  -2   3 18684.8 1493.88   1
  -6  -2   2 69145.1 2243.29   3
   6   2  -2 67890.1 2634.86   2
  -6  -2   2 68706.0 2037.76   6
  -6  -2   2 64048.9 2817.70   1
   6   2  -1 20949.7 1379.98   2
   6   2  -1 19517.7 1539.25   7
  -6  -2   1 21610.1 913.574   6
  -6  -2   1 21948.6 1555.75   1
  -6  -2   0 2777.14 308.798   5
  -6  -2   0 2989.52 548.274   1
   6   2   0 3076.49 498.310   2
   6   2   0 2964.44 557.723   7
  -6  -2   0 3455.44 252.825   6
  -6  -2  -1 8263.27 623.606   5
  -6  -2  -1 7626.70 885.281   1
   6   2   1 7828.64 801.260   2
  -6  -2  -2 59733.6 2007.66   5
  -6  -2  -2 55696.4 2492.97   1
   6   2   2 56676.0 2289.77   2
  -6  -2  -3 108475. 3562.45   1
   6   2   3 109406. 3329.18   2
  -6  -2  -4 150.511 85.6457   3
  -6  -2  -4 303.531 204.224   5
   6   2   4-114.571 183.351   2
  -6  -2  -4 134.129 158.504   1
  -6  -2  -5 1239.92 336.258   5
  -6  -2  -5 603.411 226.838   1
  -6  -2  -5 437.020 210.363   3
   6   2   5 1376.29 357.057   2
  -6  -2  -6 36158.8 1990.76   5
   6   2   6 37834.7 1961.50   2
  -6  -2  -7 5923.58 853.183   5
   6   2   7 6879.68 411.197   6
  -6  -2  -7 4861.64 745.942   3
   6   2   7 7656.72 895.831   2
  -6  -2  -8 8777.28 1112.24   5
   6   2   8 9683.50 888.550   3
   6   2   8 9083.83 1020.29   2
   6   2   9 11897.0 1205.12   2
  -6  -2  -9 12360.7 1396.79   5
   6   2   9 11857.1 1025.55   3
   6   2  10 19191.1 1609.91   2
  -6  -2 -10 18266.4 1823.38   5
   6   2  10 18151.8 1352.23   3
   6   2  11 538.884 276.631   3
  -6  -2 -11 683.812 379.832   5
   6   2  12 1298.26 404.547   3
  -6  -2 -12 1745.38 640.528   5
   6   2  13 10180.6 1135.70   3
  -6  -3   8 3116.91 616.119   3
  -6  -3   7 3566.50 625.000   3
  -6  -3   7 3743.06 746.127   1
   6   3  -7 2929.30 712.676   7
   6   3  -6 9571.36 1247.60   7
  -6  -3   6 11165.3 1259.29   1
  -6  -3   6 9821.31 1013.58   3
  -6  -3   5 150.054 171.470   3
  -6  -3   5 220.105 172.632   1
   6   3  -5-24.6472 151.586   7
  -6  -3   4 6898.35 776.142   3
   6   3  -4 5696.39 919.721   7
  -6  -3   4 6382.96 901.720   1
   6   3  -3 1272.56 356.821   2
  -6  -3   3 488.203 198.252   3
  -6  -3   3 715.828 306.158   1
   6   3  -3 511.978 303.806   7
  -6  -3   3 604.399 206.893   6
   6   3  -2 17126.7 1282.74   2
   6   3  -2 15531.2 1454.79   7
  -6  -3   2 16124.0 1351.84   1
   6   3  -1 3950.24 578.418   2
   6   3  -1 2834.07 619.691   7
  -6  -3   1 3734.39 414.685   6
  -6  -3   1 2599.91 528.659   1
  -6  -3   0 107181. 2300.93   5
  -6  -3   0 104072. 3567.91   1
   6   3   0 101816. 3211.51   2
   6   3   0 96221.8 3704.83   7
  -6  -3   0 107592. 2286.07   6
  -6  -3  -1 27126.2 1166.27   5
  -6  -3  -1 26514.8 1673.35   1
   6   3   1 26944.1 1501.81   2
   6   3   1 26801.0 1793.53   7
  -6  -3  -1 23853.9 1244.95   3
  -6  -3  -1 27237.5 709.104   6
  -6  -3  -1 27755.3 1603.28   2
  -6  -3  -2 238.819 111.641   3
  -6  -3  -2 247.478 122.553   5
   6   3   2 136.298 89.2770   2
  -6  -3  -2 228.584 95.7615   2
  -6  -3  -2 144.850 127.980   1
  -6  -3  -3 4837.26 598.640   5
  -6  -3  -3 5671.26 755.776   1
   6   3   3 6942.12 769.121   2
  -6  -3  -3 6144.23 661.985   3
  -6  -3  -4 16636.3 1190.11   5
  -6  -3  -4 18958.9 1405.21   1
   6   3   4 19581.5 1307.30   2
  -6  -3  -4 18483.7 1199.83   3
  -6  -3  -5 101.376 135.567   3
  -6  -3  -5 60.9054 105.112   5
   6   3   5-22.5445 71.8681   2
  -6  -3  -5 76.4032 119.827   1
   6   3   6 32621.5 794.247   6
  -6  -3  -6 31269.5 1774.68   3
   6   3   6 32896.7 1810.84   2
  -6  -3  -7 2731.03 568.300   5
   6   3   7 3027.92 559.148   2
   6   3   7 2701.83 284.936   6
  -6  -3  -8 6361.90 947.899   5
   6   3   8 5752.88 481.711   6
   6   3   8 5499.32 773.321   2
  -6  -3  -9 18655.5 1722.43   5
   6   3   9 20773.5 1426.63   3
   6   3   9 19965.5 1011.65   6
   6   3   9 21365.0 1629.32   2
   6   3  10 28561.9 1971.94   2
  -6  -3 -10 23858.5 2084.99   5
   6   3  10 27449.2 1707.09   3
  -6  -3 -11 14192.1 1691.78   5
   6   3  11 18391.5 1435.38   3
  -6  -3 -12 13552.4 1735.99   5
   6   3  12 12801.4 1251.82   3
   6   3  13 165.595 100.502   3
  -6  -4   8 8045.83 1043.39   3
  -6  -4   7 46.3183 130.587   3
  -6  -4   7 637.294 350.515   1
  -6  -4   6 7211.29 922.826   3
   6   4  -6 6705.98 1100.13   7
  -6  -4   6 6713.80 964.412   1
  -6  -4   5 10361.6 1073.59   3
   6   4  -5 10030.5 1314.67   7
  -6  -4   5 9704.83 1133.71   1
  -6  -4   4 3596.03 607.418   3
  -6  -4   4 4047.02 716.419   1
   6   4  -4 3634.11 769.416   7
  -6  -4   3 9283.81 954.052   3
   6   4  -3 9463.64 1232.91   7
  -6  -4   3 9129.53 1033.45   1
   6   4  -2 8000.69 880.836   2
   6   4  -2 7124.19 1035.42   7
  -6  -4   2 7849.17 737.861   6
  -6  -4   2 8679.81 988.519   1
  -6  -4   1 4836.37 271.658   5
  -6  -4   1 5068.77 729.235   1
   6   4  -1 6107.44 734.536   2
   6   4  -1 5713.36 909.308   7
  -6  -4   1 5475.48 288.351   5
  -6  -4   0 22755.4 956.034   5
  -6  -4   0 22233.5 1541.30   1
   6   4   0 23513.6 1420.34   2
   6   4   0 23113.5 1790.89   7
  -6  -4   0 23781.2 1063.87   6
  -6  -4   0 22223.9 1420.50   2
  -6  -4  -1 15789.9 1267.94   1
   6   4   1 15316.3 1115.72   2
   6   4   1 14075.2 1358.08   7
  -6  -4  -1 16098.6 729.530   6
  -6  -4  -1 17223.3 1214.24   2
  -6  -4  -2 48733.6 2270.61   1
   6   4   2 51764.1 2093.20   2
   6   4   2 45477.6 2426.40   7
  -6  -4  -2 43640.0 1839.92   3
  -6  -4  -3 23516.3 1536.93   1
   6   4   3 23792.6 1388.67   2
  -6  -4  -3 20840.4 1259.60   3
  -6  -4  -4 33457.0 1849.64   1
   6   4   4 31325.5 1642.38   2
  -6  -4  -4 28375.2 1539.46   3
   6   4   5 1107.23 310.534   2
  -6  -4  -5 723.952 281.496   1
   6   4   5 1050.55 149.682   6
   6   4   6 1439.98 364.706   2
  -6  -4  -6 1443.46 398.533   4
   6   4   6 1506.64 214.524   6
   6   4   7 1593.69 405.825   2
  -6  -4  -7 2097.97 504.101   4
   6   4   7 1283.85 223.509   6
  -6  -4  -8 40468.0 2267.21   4
   6   4   8 39327.6 1468.53   6
   6   4   8 39340.9 2116.90   2
  -6  -4  -9 14351.6 1339.03   4
   6   4   9 14308.2 919.100   6
   6   4   9 15547.0 1352.35   2
   6   4  10 8516.95 1045.14   2
  -6  -4 -10 9809.40 1319.30   5
   6   4  10 8391.28 742.462   6
   6   4  11 2977.37 607.972   3
  -6  -4 -11 2942.90 767.065   5
  -6  -4 -12 13145.6 1704.71   5
   6   4  12 15290.6 1409.56   3
  -6  -5   7 9021.35 1141.00   3
  -6  -5   7 8580.43 1126.97   1
  -6  -5   6 4932.15 813.951   3
  -6  -5   6 4584.44 796.137   1
  -6  -5   5 681.236 273.935   3
  -6  -5   5 477.521 246.070   1
   6   5  -5 482.481 359.283   7
  -6  -5   4 3264.77 624.859   3
  -6  -5   4 3903.37 706.089   1
   6   5  -4 3987.97 842.864   7
   6   5  -3 6230.47 1056.85   7
  -6  -5   3 7233.84 921.492   1
  -6  -5   2 7416.18 907.283   1
   6   5  -2 7064.57 1095.91   7
   6   5  -1 3686.39 582.417   2
  -6  -5   1 2521.20 504.274   1
   6   5  -1 3584.17 766.415   7
  -6  -5   1 3865.39 512.034   6
  -6  -5   0 20476.6 1460.75   1
   6   5   0 21678.2 1385.49   2
   6   5   0 17852.0 1675.33   7
  -6  -5   0 20517.9 1324.16   2
  -6  -5  -1 11790.4 979.268   2
  -6  -5  -1 11446.5 1069.14   1
   6   5   1 10561.8 928.093   2
   6   5   1 11731.7 1309.90   7
  -6  -5  -1 11673.1 740.980   6
  -6  -5  -2 60240.9 2537.83   1
   6   5   2 64506.0 2362.22   2
   6   5   2 59844.7 2979.04   7
  -6  -5  -2 61182.9 1696.35   6
   6   5   3 2253.99 415.318   2
  -6  -5  -3 2832.02 597.486   4
  -6  -5  -3 2790.58 506.948   1
   6   5   3 2536.61 559.253   7
  -6  -5  -4 2411.64 554.954   4
  -6  -5  -4 2062.48 463.763   1
   6   5   4 3091.90 530.739   2
  -6  -5  -5 3348.48 639.384   4
   6   5   5 3441.21 369.822   6
   6   5   5 3983.44 571.903   2
  -6  -5  -6 34530.4 2115.26   4
   6   5   6 36662.5 1371.57   6
   6   5   6 34187.3 1793.69   2
   6   5   7-45.6227 113.170   2
  -6  -5  -7-152.301 166.730   4
   6   5   7 117.060 83.3577   6
   6   5   8 3631.48 623.446   2
  -6  -5  -8 3671.21 688.905   4
   6   5   8 2983.69 427.350   6
   6   5   9 61.2762 103.499   2
  -6  -5  -9-79.8354 181.313   4
   6   5   9-92.0431 143.179   6
  -6  -5 -10 16042.9 1463.60   4
   6   5  10 15326.5 1085.46   6
   6   5  10 18730.4 1536.63   2
  -6  -5 -11 202.966 277.848   5
   6   5  11 92.4135 136.794   2
  -6  -5 -11 265.610 230.786   4
  -6  -5 -12 9688.74 1445.65   5
  -6  -5 -12 15989.6 1505.54   4
  -6  -6   6 1003.87 416.392   3
  -6  -6   6 1194.01 403.956   1
  -6  -6   5 2267.95 553.204   3
  -6  -6   5 3488.73 680.953   1
  -6  -6   4 17594.1 1561.57   3
   6   6  -4 18381.4 1939.41   7
  -6  -6   4 17363.1 1473.24   1
  -6  -6   3 7319.82 911.221   1
   6   6  -3 7728.62 1240.04   7
  -6  -6   2 6355.77 822.115   1
   6   6  -2 5600.93 1031.70   7
  -6  -6   1 2370.65 497.507   1
   6   6  -1 3123.61 757.997   7
  -6  -6   0 8947.14 947.298   1
   6   6   0 9388.13 904.970   2
   6   6   0 9623.98 1281.23   7
   6   6   1 2830.10 482.591   2
  -6  -6  -1 3097.82 628.205   4
   6   6   1 2753.05 666.117   7
  -6  -6  -1 3149.37 557.612   1
  -6  -6  -2 7398.37 970.752   4
   6   6   2 7627.14 768.741   2
  -6  -6  -2 6690.21 799.617   1
   6   6   2 6909.40 1030.55   7
  -6  -6  -3 28153.8 1920.10   4
   6   6   3 25726.9 1418.63   2
   6   6   3 25445.6 1948.23   7
  -6  -6  -3 26793.9 1616.94   1
  -6  -6  -4 21191.1 1674.20   4
   6   6   4 18947.9 1630.48   7
   6   6   4 18642.3 1221.85   2
  -6  -6  -4 19805.3 1390.74   1
  -6  -6  -5 12030.8 1254.86   4
   6   6   5 11724.8 965.163   2
   6   6   5 11712.6 829.963   6
  -6  -6  -6 13596.1 1344.05   4
   6   6   6 12983.0 904.491   6
   6   6   6 13721.4 1090.31   2
   6   6   7 556.505 217.943   2
  -6  -6  -7 555.020 302.635   4
   6   6   7 375.043 167.847   6
  -6  -6  -8 24391.3 1851.49   4
   6   6   8 22018.6 1307.08   6
   6   6   8 22739.7 1534.66   2
   6   6   9 350.436 231.026   2
  -6  -6  -9 464.494 268.987   4
   6   6   9-63.6785 89.2971   6
  -6  -6 -10 11064.4 1251.64   4
   6   6  10 10018.6 1101.93   2
  -6  -6 -11 5534.35 893.204   4
   6   6  11 5860.32 881.056   2
   6   6  12 6419.18 978.110   2
  -6  -6 -12 5653.28 908.762   4
  -6  -6 -13 3396.47 722.168   4
  -6  -7   4 1236.50 442.755   3
  -6  -7   3 595.773 264.817   1
   6   7  -3 125.090 162.495   7
  -6  -7   2 5718.55 775.370   1
   6   7  -2 5609.36 1083.96   7
  -6  -7   1 13360.0 1162.62   1
   6   7  -1 14553.3 1721.85   7
   6   7   0 1494.45 556.315   7
  -6  -7   0 1092.62 317.220   1
  -6  -7  -1 6169.36 922.509   4
   6   7   1 5115.90 623.159   2
  -6  -7  -1 5574.60 716.941   1
   6   7   1 4112.11 877.776   7
  -6  -7  -2 10141.6 1190.61   4
   6   7   2 10619.2 881.229   2
   6   7   2 8273.98 1205.67   7
  -6  -7  -2 9340.48 928.702   1
   6   7   3 1245.00 295.149   2
  -6  -7  -3 758.287 262.938   1
  -6  -7  -3 640.372 317.018   4
   6   7   3 792.026 382.801   7
  -6  -7  -4 30661.9 2100.08   4
   6   7   4 31251.2 1525.67   2
   6   7   4 25219.6 2004.38   7
   6   7   4 29099.8 1492.84   6
   6   7   5 1016.63 268.195   2
  -6  -7  -5 1036.97 405.397   4
   6   7   5 1037.93 389.563   7
   6   7   5 741.406 242.723   6
  -6  -7  -6 6820.01 995.867   4
   6   7   6 6133.21 918.332   7
   6   7   6 6612.93 717.882   2
   6   7   6 6000.84 683.924   6
  -6  -7  -7 3557.47 725.324   4
   6   7   7 4244.75 598.259   6
   6   7   7 4203.13 602.020   2
  -6  -7  -8 7596.47 1063.74   4
   6   7   8 7830.51 839.881   6
   6   7   8 5552.04 731.806   2
  -6  -7  -9 8681.19 1147.77   4
   6   7   9 9986.18 1038.36   2
  -6  -7 -10 6207.04 967.033   4
   6   7  10 6246.34 853.939   2
   6   7  11 2735.86 591.159   2
  -6  -7 -11 3246.67 713.590   4
  -6  -7 -12 6191.39 995.564   4
   6   7  12 7018.01 996.215   2
   6   8  -2 5388.53 1093.29   7
   6   8  -1 1444.31 534.258   7
  -6  -8   0 11947.8 1315.56   4
   6   8   0 9026.83 1365.75   7
  -6  -8  -1 133.734 167.905   4
   6   8   1-92.4744 220.982   7
  -6  -8  -1-13.7653 72.5821   1
  -6  -8  -2 19252.7 1685.17   4
  -6  -8  -2 15842.3 1182.86   1
  -6  -8  -3 4241.24 800.286   4
   6   8   3 2945.52 726.136   7
  -6  -8  -4 2087.20 566.531   4
   6   8   4 1393.28 482.318   7
   6   8   4 1923.54 411.176   6
  -6  -8  -5 4733.75 858.972   4
   6   8   5 4126.42 800.824   7
   6   8   5 4846.07 664.025   6
  -6  -8  -6 2229.33 589.879   4
   6   8   6 2734.37 651.924   7
   6   8   6 2224.89 462.393   6
  -6  -8  -7 742.269 361.136   4
   6   8   7 1567.16 482.614   7
  -6  -8  -8 11162.2 1336.48   4
   6   8   8 9816.34 1128.77   7
  -6  -8  -9 1724.58 548.439   4
  -6  -9   1 4797.88 867.523   4
  -6  -9   0 4487.55 842.050   4
   6   9   0 3335.79 855.271   7
  -6  -9  -1 5813.08 958.981   4
   6   9   1 2224.62 646.928   7
  -6  -9  -2 1994.17 541.198   4
   6   9   2 1899.67 634.213   7
  -6  -9  -3 11395.0 1334.66   4
   6   9   3 7082.83 1151.29   7
  -6  -9  -4 8017.96 1139.81   4
   6   9   4 6726.49 1086.18   7
  -6  -9  -5 5638.73 936.842   4
   6   9   5 4678.30 880.909   7
   6   9   6 12357.4 1385.47   7
   6   9   7 1508.04 474.189   7
   6  10   1 1104.68 488.930   7
   6  10   2 4406.14 948.457   7
   6  10   3 12408.6 1542.17   7
   6  10   4 13733.5 1568.74   7
  -7   7   4 5446.34 1010.29   1
  -7   7   3 5300.64 975.887   1
  -7   7   3 4796.73 785.298   8
   7  -7  -2 854.313 339.602   2
  -7   7   2 2073.14 565.232   1
  -7   7   2 1007.22 394.079   8
   7  -7  -1 4429.16 766.277   2
  -7   7   1 4437.60 803.309   8
  -7   7   1 4720.12 871.999   1
  -7   7   0 3448.28 710.788   1
   7  -7   0 2186.65 532.655   2
  -7   7   0 1857.01 523.431   8
  -7   7  -1 7736.78 1119.67   8
   7  -7   1 8363.34 1060.30   2
  -7   7  -1 8226.73 1083.84   1
   7  -7   2 1818.42 511.604   2
   7  -7   3 7020.21 999.912   2
   7  -7   4 8180.88 1167.79   4
   7  -7   4 8253.50 1104.56   2
   7  -7   5 1087.63 419.321   4
  -7   6   5 6995.96 1132.46   1
  -7   6   4 138.004 166.951   1
  -7   6   3 8884.86 1230.67   1
   7  -6  -3 8738.79 1077.08   2
   7  -6  -2 22.5436 175.604   2
  -7   6   2-412.567 280.543   1
  -7   6   1 11332.2 1325.44   1
   7  -6  -1 10023.6 1144.93   2
   7  -6   0 3139.62 632.069   2
  -7   6   0 1114.31 387.780   1
   7  -6   1 2751.65 592.494   2
  -7   6  -1 2003.34 536.113   1
  -7   6  -2-107.312 268.654   1
   7  -6   2 198.794 201.242   2
  -7   6  -3 17905.1 1736.61   8
   7  -6   3 19559.9 1649.14   2
  -7   6  -3 17990.5 1572.44   1
   7  -6   4 1659.70 480.635   2
   7  -6   5 5851.93 931.242   2
  -7   5   5 2310.98 629.274   1
   7  -5  -4 114.765 121.403   2
  -7   5   4 838.828 375.170   1
  -7   5   3 11631.1 1379.97   1
   7  -5  -3 13520.9 1340.62   2
   7  -5  -3 13686.7 1173.23   7
  -7   5   2 8526.75 1159.13   1
   7  -5  -2 8788.49 1062.26   2
  -7   5   1 5216.50 886.895   1
   7  -5  -1 5777.69 863.316   2
  -7   5   0 6089.50 945.289   1
   7  -5   0 6436.90 895.773   2
  -7   5  -1 27090.1 1975.78   1
   7  -5   1 31639.0 2030.73   2
   7  -5   2 4171.67 735.920   2
  -7   5  -2 4780.45 807.710   1
   7  -5   3 8743.00 1061.80   2
  -7   5  -3 8469.44 1053.64   1
  -7   5  -4 7.69949 196.160   5
   7  -5   4-314.016 237.345   2
  -7   5  -4-107.010 122.051   1
  -7   5  -5 6171.43 989.093   5
   7  -5   5 5471.97 875.548   2
  -7   5  -5 4991.72 921.913   8
  -7   5  -6-406.594 279.067   5
   7  -5   6-29.5128 177.104   2
  -7   5  -6 19.0194 130.356   8
   7  -5   7 4807.06 863.344   2
   7  -4  -5 24710.7 1862.23   2
   7  -4  -5 22950.7 1616.58   7
  -7   4   5 23617.0 2016.02   1
   7  -4  -4 5198.52 842.209   2
   7  -4  -4 4485.30 694.316   7
  -7   4   4 5527.33 945.239   1
  -7   4   4 4033.19 661.056   6
   7  -4  -3 5285.94 826.110   2
   7  -4  -3 5238.81 748.491   7
  -7   4   3 7159.36 825.515   6
  -7   4   3 6374.39 999.336   1
  -7   4   2 17163.6 1618.08   1
   7  -4  -2 21950.7 1662.83   2
   7  -4  -2 17371.6 1345.41   7
  -7   4   2 19997.6 1311.64   6
  -7   4   1 13088.9 1384.69   1
   7  -4  -1 15840.2 1393.95   2
  -7   4   1 14191.1 1024.02   6
  -7   4   0 11459.9 1279.90   1
   7  -4   0 12300.7 1230.03   2
  -7   4   0 11366.6 872.734   6
   7  -4   1 1343.78 410.439   2
  -7   4  -1 2386.74 564.119   1
  -7   4  -1 1981.00 345.821   6
  -7   4  -2 216.262 136.341   1
   7  -4   2 278.393 209.614   2
  -7   4  -3 22761.2 1734.16   1
   7  -4   3 22781.8 1709.85   2
  -7   4  -3 21204.3 1647.16   5
  -7   4  -4 82.6279 187.975   1
  -7   4  -4 62.8433 113.842   5
   7  -4   4 47.6174 152.308   2
   7  -4   5 29628.9 2032.75   2
  -7   4  -5 31744.6 2219.17   5
  -7   4  -6 1888.11 569.424   5
   7  -4   6 1550.87 461.630   2
  -7   4  -7 6373.06 1104.78   5
  -7   4  -7 5509.75 979.563   8
   7  -4   7 6902.81 1031.29   2
  -7   4  -8-151.405 196.297   5
   7  -4   8 117.349 235.615   2
   7  -3  -6 12290.2 1231.28   7
  -7   3   6 18330.8 1777.47   1
   7  -3  -5 6397.01 922.920   2
  -7   3   5 5257.84 918.704   1
   7  -3  -5 7405.14 933.375   7
  -7   3   5 6816.19 836.983   6
   7  -3  -4 7744.83 1011.37   2
   7  -3  -4 7159.13 901.364   7
  -7   3   4 7717.11 842.592   6
  -7   3   4 6311.06 991.662   1
   7  -3  -3 5060.53 808.055   2
   7  -3  -3 3522.58 627.870   7
  -7   3   3 5395.14 897.863   1
  -7   3   3 4571.80 608.559   6
   7  -3  -2 177.241 120.627   2
   7  -3  -2 570.510 250.748   7
  -7   3   2 430.037 185.009   6
  -7   3   2 623.302 329.776   1
  -7   3   1 12568.8 1330.52   1
   7  -3  -1 12078.5 1196.53   2
  -7   3   1 12757.9 871.036   6
  -7   3   0 16087.8 1491.82   1
   7  -3   0 17510.3 1452.61   2
  -7   3   0 16441.3 914.451   6
  -7   3  -1 45676.3 2542.21   1
   7  -3   1 50650.1 2503.68   2
  -7   3  -1 48497.5 1551.12   6
  -7   3  -2 5463.10 854.544   1
   7  -3   2 6495.89 869.844   2
  -7   3  -2 6614.84 828.662   5
  -7   3  -3 19073.1 1580.01   1
   7  -3   3 19086.1 1532.21   2
  -7   3  -3 19039.0 1496.99   5
  -7   3  -4 2429.29 567.257   5
   7  -3   4 1553.02 446.377   2
  -7   3  -4 1902.31 494.482   1
  -7   3  -5 2517.02 590.654   5
   7  -3   5 1992.47 512.433   2
  -7   3  -5 2370.76 564.779   1
   7  -3   6 28106.1 1976.77   2
  -7   3  -6 24890.9 1994.82   5
   7  -3   7 19686.7 1708.15   2
  -7   3  -7 18364.6 1788.91   5
  -7   3  -8 308.338 318.776   5
   7  -3   8 524.228 211.115   2
  -7   3  -9 5752.84 1074.49   5
  -7   3  -9 6050.93 1013.07   8
   7  -2  -7 749.270 337.125   7
  -7   2   6 874.433 366.496   1
   7  -2  -6 222.460 163.367   7
   7  -2  -5 10354.6 1180.83   2
   7  -2  -5 8667.77 1044.60   7
  -7   2   5 8776.63 1193.05   1
  -7   2   5 9310.54 904.468   6
   7  -2  -4 348.942 149.556   2
  -7   2   4 1144.29 431.584   1
   7  -2  -4 747.724 294.491   7
  -7   2   4 1047.42 302.286   6
   7  -2  -3 37038.6 2162.15   2
   7  -2  -3 32708.1 2002.85   7
  -7   2   3 35624.7 1636.42   6
  -7   2   3 34200.7 2282.87   1
   7  -2  -2 118.560 110.704   2
   7  -2  -2-11.4454 145.784   7
  -7   2   2-33.0042 161.356   1
  -7   2   2 44.6819 53.8700   6
  -7   2   1 18235.4 1592.56   1
   7  -2  -1 19012.6 1483.11   2
  -7   2   1 19040.5 932.122   6
  -7   2   0 14367.8 1388.19   1
   7  -2   0 13627.9 1270.69   2
  -7   2   0 15726.8 711.379   6
   7  -2   1 6849.27 784.078   5
  -7   2  -1 8216.83 1026.68   1
   7  -2   1 7933.68 951.071   2
  -7   2  -1 8501.56 830.905   5
  -7   2  -2 78.6114 127.815   5
   7  -2   2-255.645 259.991   2
  -7   2  -2-18.1362 167.088   1
  -7   2  -3 9604.07 1108.03   1
   7  -2   3 10091.1 1082.20   2
  -7   2  -3 9426.57 999.343   5
  -7   2  -4 20944.9 1636.29   1
   7  -2   4 22622.7 1651.62   2
  -7   2  -4 19577.5 1553.82   5
   7  -2   5 44518.6 2404.41   2
  -7   2  -5 47499.3 2506.88   1
  -7   2  -5 39857.6 2390.20   5
  -7   2  -6 4641.24 821.004   5
   7  -2   6 4006.95 726.033   2
   7  -2   6 3557.04 412.656   3
  -7   2  -7 7466.78 1097.84   5
   7  -2   7 7465.42 673.129   3
   7  -2   7 8451.49 1090.77   2
   7  -2   8 462.938 174.937   3
  -7   2  -8 1115.72 442.945   5
   7  -2   8 400.057 281.560   2
  -7   2  -9 12753.0 1557.14   5
   7  -2   9 13264.2 1046.05   3
   7  -2   9 14338.5 1532.34   2
   7  -2  10 1010.85 309.630   3
  -7   2 -10 1894.01 544.953   8
   7  -1  -8 4253.55 797.636   7
   7  -1  -7 4945.71 844.648   7
  -7   1   6 482.674 316.396   1
   7  -1  -6 49.7832 172.342   7
   7  -1  -5 16317.3 1482.90   2
   7  -1  -5 11731.1 1264.42   7
  -7   1   5 14366.9 1516.45   1
   7  -1  -4 2167.08 538.739   2
  -7   1   4 1273.98 441.371   1
   7  -1  -4 737.065 288.902   7
  -7   1   4 1679.23 351.669   6
   7  -1  -3 2691.63 569.023   2
  -7   1   3 2691.30 626.764   1
   7  -1  -3 3879.71 698.078   7
  -7   1   3 3469.70 455.106   6
   7  -1  -2 3940.24 681.156   2
   7  -1  -2 3379.71 662.427   7
  -7   1   2 3140.72 383.143   6
  -7   1   2 3474.19 696.975   1
   7  -1  -1 253.213 160.905   2
  -7   1   1 387.251 113.811   6
  -7   1   1 312.653 131.757   1
   7  -1   0 64.7548 149.278   2
  -7   1   0-240.232 199.898   1
  -7   1  -1 25431.3 1833.06   1
   7  -1   1 24974.2 1681.43   2
  -7   1  -1 24193.5 1337.93   5
  -7   1  -2 21805.9 1663.54   1
   7  -1   2 21911.8 1567.43   2
  -7   1  -2 21047.7 1365.78   5
  -7   1  -3 83367.1 3394.06   1
   7  -1   3 86350.0 3270.59   2
  -7   1  -3 83475.3 3077.36   5
  -7   1  -4 27544.4 1856.09   1
   7  -1   4 28360.8 1819.35   2
  -7   1  -5 2563.86 565.513   5
   7  -1   5 1291.92 379.565   2
  -7   1  -5 1685.81 463.968   1
  -7   1  -6 950.689 387.009   5
   7  -1   6 482.114 278.343   2
  -7   1  -7 30273.2 2168.63   5
   7  -1   7 32011.6 1470.61   3
   7  -1   7 31810.1 2103.40   2
  -7   1  -8 8872.87 1206.97   5
   7  -1   8 7301.01 724.058   3
   7  -1   8 7951.11 1069.05   2
  -7   1  -9 9357.30 1289.45   5
   7  -1   9 8311.37 830.035   3
   7  -1   9 9155.83 1197.22   2
   7  -1  10 692.780 281.073   3
  -7   1 -10 81.3520 198.299   5
   7  -1  10 625.437 362.926   2
  -7   1 -11 9566.89 1214.76   8
   7  -1  11 8893.96 976.117   3
   7  -1  12 3533.02 651.736   3
  -7   1 -12 3906.05 786.622   8
   7   0  -7 2475.32 626.109   7
  -7   0   6 127.632 192.840   1
   7   0  -6-178.112 223.317   7
   7   0  -5 3307.50 650.833   2
  -7   0   5 4307.96 820.840   1
   7   0  -5 3507.51 707.231   7
   7   0  -4 10735.9 1161.69   2
   7   0  -4 10330.1 1189.13   7
  -7   0   4 11439.3 1305.73   1
   7   0  -3 8660.01 1009.89   2
   7   0  -3 7506.11 987.236   7
  -7   0   3 7776.66 1081.63   1
   7   0  -2 451.400 202.734   2
   7   0  -2 59.5963 138.654   7
  -7   0   2 388.052 247.920   1
  -7   0   2 487.168 143.709   6
  -7   0   1 13174.5 1325.31   1
   7   0  -1 13732.7 1219.13   2
   7   0  -1 13418.3 1262.97   7
  -7   0   1 12551.2 539.241   6
  -7   0   0 11751.6 1236.90   1
   7   0   0 10603.4 1065.57   2
  -7   0  -1 9427.64 395.109   3
  -7   0  -1 9182.55 1085.56   1
   7   0   1 9494.90 1004.04   2
  -7   0  -1 9594.15 399.176   3
  -7   0  -1 7951.19 708.339   5
  -7   0  -2 5562.60 826.631   1
   7   0   2 6620.77 833.031   2
  -7   0  -2 5926.87 393.860   3
  -7   0  -2 5711.82 670.036   5
  -7   0  -3 4772.18 663.972   5
  -7   0  -3 5429.16 815.694   1
   7   0   3 6733.91 851.025   2
  -7   0  -3 5718.94 466.991   3
  -7   0  -4-5.33402 103.797   5
  -7   0  -4 289.192 115.951   3
  -7   0  -4 211.380 150.973   1
  -7   0  -5 79417.1 3214.71   5
  -7   0  -5 87482.4 3468.49   1
   7   0   5 90444.2 3407.98   2
   7   0   6 16965.9 1442.60   2
  -7   0  -6 17484.5 1191.97   3
  -7   0  -6 19301.2 1569.18   1
   7   0   7 2087.80 374.523   3
  -7   0  -7 1827.15 524.830   5
   7   0   7 2184.30 557.164   2
   7   0   8 441.388 208.360   3
  -7   0  -8 75.6357 209.752   5
  -7   0  -9 20952.4 1908.99   5
   7   0   9 21712.9 1373.88   3
   7   0   9 24571.2 1930.54   2
  -7   0 -10 2552.73 700.904   5
   7   0  10 5087.53 903.546   2
   7   0  10 4648.20 664.429   3
  -7   0 -11 7867.84 1289.27   5
   7   0  11 7828.49 920.627   3
   7   0  12 121.522 138.080   3
  -7   0 -12 136.125 166.190   8
  -7  -1   6 1582.35 503.103   1
   7   1  -6 1922.41 560.573   7
   7   1  -5 5222.61 825.918   2
  -7  -1   5 5709.14 948.051   1
   7   1  -5 5274.87 914.639   7
   7   1  -4 4148.05 706.768   2
  -7  -1   4 2850.89 648.973   1
   7   1  -4 2661.09 631.995   7
   7   1  -3 24350.1 1710.12   2
   7   1  -3 19656.8 1663.81   7
  -7  -1   3 21969.5 1779.47   1
   7   1  -2 320.318 199.093   2
  -7  -1   2 688.275 184.029   3
   7   1  -2 421.226 244.560   7
  -7  -1   2 573.384 332.233   1
  -7  -1   1 8829.52 604.946   3
  -7  -1   1 9031.59 1082.20   1
   7   1  -1 9628.83 1019.58   2
   7   1  -1 7637.40 980.358   7
  -7  -1   1 7674.13 390.284   6
  -7  -1   0 4072.02 721.623   1
   7   1   0 4717.81 727.155   2
   7   1   0 3591.63 663.062   7
  -7  -1   0 3334.69 367.381   3
  -7  -1   0 3408.15 350.653   5
  -7  -1  -1 188.026 138.886   5
  -7  -1  -1 73.6354 52.4991   3
   7   1   1-4.07793 155.092   2
  -7  -1  -1 423.091 241.458   1
  -7  -1  -2 37370.8 1690.27   5
  -7  -1  -2 36300.3 2154.87   1
   7   1   2 38385.1 2031.82   2
  -7  -1  -2 32513.8 1329.92   3
  -7  -1  -3 31741.2 1681.18   5
  -7  -1  -3 31897.6 2011.13   1
   7   1   3 35054.5 1950.00   2
  -7  -1  -3 29847.0 1353.09   3
  -7  -1  -4 13874.3 1162.89   5
  -7  -1  -4 17002.2 1431.66   1
   7   1   4 16241.1 1330.57   2
  -7  -1  -5 8404.60 941.003   5
  -7  -1  -5 7929.33 997.203   1
   7   1   5 8026.77 937.472   2
  -7  -1  -5 7588.08 783.135   3
  -7  -1  -6 5189.30 788.824   5
   7   1   6 8352.18 995.219   2
  -7  -1  -6 6951.26 808.832   3
  -7  -1  -6 8257.03 1010.63   1
  -7  -1  -7 27515.1 1938.33   5
   7   1   7 33350.3 2092.68   2
  -7  -1  -8 6545.07 978.676   5
   7   1   8 4545.14 776.246   2
   7   1   8 6612.63 740.337   3
  -7  -1  -9 16517.9 1653.97   5
   7   1   9 17935.5 1273.65   3
   7   1   9 16624.2 1562.92   2
   7   1  10 2160.29 472.460   3
  -7  -1 -10 1833.74 570.605   5
   7   1  10 2918.41 675.789   2
  -7  -1 -11 4571.67 969.502   5
   7   1  11 4173.39 843.872   2
   7   1  11 5167.17 755.089   3
   7   1  12 782.357 306.611   3
  -7  -2   6 4555.74 868.094   1
   7   2  -6 5462.74 970.218   7
   7   2  -5 12401.3 1434.72   7
  -7  -2   5 16065.5 1583.43   1
   7   2  -4 421.750 254.310   2
  -7  -2   4 319.457 151.438   3
  -7  -2   4 121.439 205.403   1
   7   2  -4 744.851 357.329   7
  -7  -2   3 18001.8 1128.43   3
   7   2  -3 16523.7 1407.81   2
   7   2  -3 14710.6 1487.37   7
  -7  -2   3 19195.8 1658.87   1
  -7  -2   2 20081.3 1155.75   3
   7   2  -2 18469.0 1445.11   2
   7   2  -2 15685.1 1514.22   7
  -7  -2   2 17540.9 1553.58   1
  -7  -2   1 18370.6 1555.11   1
  -7  -2   1 19746.9 1117.44   3
   7   2  -1 18544.2 1411.13   2
   7   2  -1 16415.5 1513.07   7
  -7  -2   0 5142.94 807.105   1
   7   2   0 5405.33 737.280   2
   7   2   0 4623.15 785.857   7
  -7  -2   0 4850.82 372.980   5
  -7  -2  -1 3714.37 441.203   5
   7   2   1 3069.64 557.969   2
  -7  -2  -1 2598.44 557.834   1
  -7  -2  -2 23431.1 1262.99   5
  -7  -2  -2 26309.9 1812.72   1
   7   2   2 25507.1 1629.60   2
  -7  -2  -3 4.67528 115.982   1
  -7  -2  -3 41.8095 92.6381   5
  -7  -2  -3-35.4577 66.6478   3
   7   2   3 146.774 103.478   2
  -7  -2  -4 755.462 303.468   5
  -7  -2  -4 1115.63 300.823   3
   7   2   4 827.471 272.402   2
  -7  -2  -4 1489.11 424.418   1
  -7  -2  -5 29139.4 1760.90   5
   7   2   5 32989.4 1927.66   2
  -7  -2  -5 29393.6 1942.29   1
  -7  -2  -5 27215.6 1603.41   3
  -7  -2  -6 21182.8 1588.22   5
   7   2   6 26771.4 1768.25   2
  -7  -2  -6 22908.8 1565.41   3
  -7  -2  -6 25112.6 1773.24   1
  -7  -2  -7 29072.4 1970.33   5
   7   2   7 35161.1 2100.12   2
  -7  -2  -8 9554.33 1181.74   5
   7   2   8 13102.9 1303.99   2
  -7  -2  -9 1998.67 576.214   5
   7   2   9 2395.18 586.231   2
   7   2  10 407.393 244.433   3
  -7  -2 -10 687.041 358.969   5
   7   2  10 617.029 320.529   2
  -7  -2 -11 15107.8 1758.38   5
   7   2  11 17737.7 1442.60   3
   7   2  12-4.72004 146.833   3
   7   3  -5 5187.19 955.342   7
  -7  -3   5 6549.79 1012.78   1
  -7  -3   4 14875.7 1177.82   3
   7   3  -4 12160.2 1456.36   7
  -7  -3   4 15777.4 1527.38   1
   7   3  -3 4261.53 711.844   2
  -7  -3   3 4464.08 615.501   3
   7   3  -3 4425.79 847.924   7
  -7  -3   3 5570.48 886.902   1
   7   3  -2 110.138 119.432   2
  -7  -3   2 32.0007 88.8619   3
   7   3  -2 264.659 203.555   7
  -7  -3   2 540.707 276.937   1
  -7  -3   1 8635.90 1064.23   1
   7   3  -1 9716.71 1018.83   2
   7   3  -1 7913.10 1092.62   7
  -7  -3   0 1093.93 266.880   3
   7   3   0 1988.04 434.238   2
  -7  -3   0 1693.93 468.019   1
   7   3   0 2442.32 597.439   7
  -7  -3  -1 20238.2 1006.06   5
  -7  -3  -1 24056.9 1734.30   1
   7   3   1 25311.1 1597.48   2
   7   3   1 19755.2 1656.13   7
  -7  -3  -1 19373.9 1165.71   3
  -7  -3  -2 4361.98 520.303   5
  -7  -3  -2 4763.93 763.196   1
   7   3   2 5262.79 719.954   2
  -7  -3  -2 4002.00 525.703   3
  -7  -3  -3 3658.12 522.275   5
  -7  -3  -3 5019.64 773.783   1
   7   3   3 4497.07 662.936   2
  -7  -3  -3 3592.82 511.734   3
  -7  -3  -4 13063.2 1084.97   5
  -7  -3  -4 12396.2 1221.75   1
   7   3   4 13062.6 1158.65   2
  -7  -3  -4 11471.2 973.238   3
  -7  -3  -5 14176.7 1205.21   5
   7   3   5 14096.3 1233.11   2
  -7  -3  -5 13819.7 1295.61   1
  -7  -3  -5 12774.6 1090.75   3
  -7  -3  -6 7.94931 142.877   1
  -7  -3  -6-57.2865 175.433   5
   7   3   6 68.1785 114.451   2
  -7  -3  -7 2434.03 559.204   5
   7   3   7 3344.05 621.313   2
  -7  -3  -8 20249.8 1723.29   5
   7   3   8 21823.9 1673.76   2
  -7  -3  -9 21158.2 1859.66   5
   7   3   9 20386.3 1679.38   2
  -7  -3 -10 11299.3 1425.10   5
   7   3  10 13882.5 1435.54   2
  -7  -3 -11 3341.92 830.382   5
   7   3  11 3394.15 729.397   2
   7   3  12 162.818 164.301   3
  -7  -4   5 3749.70 656.437   3
  -7  -4   5 4539.74 835.734   1
  -7  -4   4 2616.47 528.865   3
   7   4  -4 1899.26 573.301   7
  -7  -4   4 1955.78 552.580   1
  -7  -4   3 5720.84 773.819   3
   7   4  -3 5399.44 823.986   2
   7   4  -3 5622.93 996.407   7
  -7  -4   3 6860.88 989.398   1
  -7  -4   2 5366.91 851.721   1
   7   4  -2 5158.22 778.446   2
   7   4  -2 5011.49 936.365   7
  -7  -4   1 24346.3 1796.21   1
   7   4  -1 27562.3 1759.95   2
   7   4  -1 24490.6 2025.76   7
   7   4   0 3324.15 589.139   2
  -7  -4   0 2606.09 573.914   1
   7   4   0 2466.48 644.722   7
  -7  -4  -1 15616.4 882.137   5
  -7  -4  -1 14505.0 1340.37   1
   7   4   1 16044.8 1263.18   2
   7   4   1 16396.4 1581.81   7
   7   4   2 301.969 170.216   2
  -7  -4  -2 282.695 142.243   5
   7   4   2-11.1002 209.413   7
  -7  -4  -2 266.181 214.844   1
  -7  -4  -3 9402.94 859.274   5
  -7  -4  -3 9416.52 1053.95   1
   7   4   3 10023.1 993.765   2
  -7  -4  -4 2279.89 528.541   1
  -7  -4  -4 2193.87 450.086   5
   7   4   4 1698.30 416.390   2
  -7  -4  -5 1083.58 354.487   5
   7   4   5 360.693 188.730   2
  -7  -4  -5 458.526 260.427   1
  -7  -4  -6 2636.46 564.457   5
   7   4   6 4232.57 675.487   2
  -7  -4  -7 15247.9 1416.82   5
   7   4   7 17418.3 1425.44   2
  -7  -4  -8 4005.06 768.908   5
   7   4   8 5428.69 816.288   2
  -7  -4  -9 7019.15 1063.01   5
   7   4   9 9036.02 1092.24   2
  -7  -4 -10 2660.72 691.231   5
   7   4  10 1578.87 469.409   2
  -7  -4 -11 9889.79 1400.78   5
   7   4  11 13635.1 1460.39   2
   7   4  12 275.236 221.502   2
  -7  -5   5 7163.44 968.235   3
  -7  -5   5 8386.80 1141.72   1
  -7  -5   4 1120.74 370.704   3
  -7  -5   4 1077.33 396.653   1
  -7  -5   3 30483.3 2086.89   1
  -7  -5   3 29984.7 1926.28   3
   7   5  -3 26941.9 2329.37   7
  -7  -5   2 5545.49 843.157   1
   7   5  -2 5156.66 786.872   2
   7   5  -2 3929.18 867.893   7
   7   5  -1 3903.27 653.661   2
  -7  -5   1 3798.36 690.893   1
   7   5  -1 4453.35 890.255   7
   7   5   0 17.6286 101.785   2
  -7  -5   0 348.611 236.712   1
   7   5   0 238.237 178.883   7
  -7  -5  -1 9235.05 1053.41   1
   7   5   1 7949.88 886.686   2
   7   5   1 8905.08 1229.45   7
  -7  -5  -2 11985.3 924.720   5
  -7  -5  -2 17251.6 1433.63   1
   7   5   2 16759.4 1269.36   2
   7   5   2 16401.4 1617.06   7
  -7  -5  -3 8237.57 818.471   5
   7   5   3 8419.14 896.635   2
  -7  -5  -3 9531.39 1053.05   1
   7   5   3 9050.41 1178.04   7
  -7  -5  -4 3347.47 576.767   5
  -7  -5  -4 4334.51 714.852   1
   7   5   4 4519.77 660.753   2
  -7  -5  -5 7742.41 913.638   5
   7   5   5 9768.13 996.155   2
  -7  -5  -5 11261.0 1146.11   1
  -7  -5  -6 360.792 205.380   5
   7   5   6 777.240 281.739   2
  -7  -5  -7 14842.9 1434.95   5
   7   5   7 28647.2 1808.25   2
  -7  -5  -8 506.259 335.668   5
   7   5   8 156.818 155.479   2
  -7  -5  -9 5668.41 995.119   5
   7   5   9 7212.54 956.601   2
  -7  -5 -10 2642.54 691.733   5
   7   5  10 4528.06 798.844   2
  -7  -5 -11 4504.15 954.566   5
   7   5  11 3591.30 733.302   2
   7   5  12 4053.44 809.497   2
  -7  -6   4 2953.48 643.705   3
  -7  -6   4 2977.98 657.798   1
  -7  -6   3 7707.48 1030.80   1
  -7  -6   3 8433.98 1081.74   3
  -7  -6   2 5166.17 811.585   1
   7   6  -2 4199.53 932.853   7
  -7  -6   1 7653.95 979.067   1
   7   6  -1 8441.10 991.016   2
   7   6  -1 8530.70 1307.29   7
  -7  -6   0 9646.49 1077.94   1
   7   6   0 9278.47 998.538   2
   7   6   0 9208.82 1327.08   7
  -7  -6  -1 9371.36 1058.23   1
   7   6   1 11073.9 1061.91   2
   7   6   1 9183.60 1303.18   7
   7   6   2 853.276 298.169   2
  -7  -6  -2 809.435 284.807   1
   7   6   2 872.460 396.504   7
   7   6   3 18456.4 1322.63   2
   7   6   3 18005.1 1746.04   7
  -7  -6  -3 20316.4 1528.54   1
   7   6   4 685.596 222.483   2
  -7  -6  -4 1054.43 369.607   1
   7   6   4 1523.97 499.491   7
  -7  -6  -5 24128.0 1944.93   4
   7   6   5 19070.8 1707.80   7
   7   6   5 20635.3 1429.22   2
  -7  -6  -6 4680.49 843.706   4
   7   6   6 4530.04 694.194   2
  -7  -6  -7 2817.40 667.908   4
   7   6   7 4126.39 687.719   2
  -7  -6  -8 11323.7 1329.41   4
   7   6   8 11477.4 1170.35   2
  -7  -6  -9 12010.3 1372.29   4
   7   6   9 8073.15 1002.20   2
   7   6  10 4050.18 748.244   2
  -7  -6 -10 4939.12 881.837   4
  -7  -6 -11 10290.4 1291.41   4
   7   6  11 10937.2 1264.51   2
   7   6  12 67.5382 192.648   2
  -7  -7   3 8362.05 1140.40   3
  -7  -7   2 1313.43 428.403   1
  -7  -7   1 20200.1 1589.09   1
   7   7   0 445.575 322.508   7
  -7  -7   0 197.078 139.141   1
  -7  -7  -1 11284.2 1133.43   1
   7   7   1 13373.5 1649.18   7
  -7  -7  -2 5608.66 789.111   1
   7   7   2 5036.52 987.816   7
   7   7   3 4981.18 964.409   7
  -7  -7  -3 4985.45 735.124   1
  -7  -7  -4 4946.20 879.807   4
   7   7   4 4281.55 620.829   2
   7   7   4 4382.71 872.740   7
  -7  -7  -4 5379.23 773.181   1
  -7  -7  -5 3081.51 689.386   4
   7   7   5 4151.69 612.913   2
   7   7   5 2002.15 573.988   7
   7   7   6 851.612 291.804   2
  -7  -7  -6 1101.52 440.828   4
   7   7   6 1785.51 506.624   7
  -7  -7  -7 9658.97 1240.91   4
   7   7   7 8345.82 917.814   2
  -7  -7  -8 10906.2 1356.45   4
   7   7   8 8802.13 980.682   2
  -7  -7  -9 25325.5 2068.99   4
   7   8   1 1841.15 636.604   7
   7   8   2 1890.52 632.916   7
   7   8   3 6219.00 1107.36   7
  -7  -8  -3 8265.23 938.985   1
   7   8   4 956.941 414.901   7
   7   8   5 3525.86 802.546   7
   7   8   6 97.3328 220.013   7
   7   8   7 7692.80 1136.48   7
   7   8   8 167.914 170.988   7
   7   9   3 1193.68 477.483   7
   7   9   4 4777.80 965.122   7
   7   9   5 7141.64 1163.47   7
   7   9   6 4528.15 900.412   7
   7   9   7 2898.13 695.318   7
  -8   6   1 1508.63 489.809   1
  -8   6   0 4329.05 886.461   1
  -8   6  -1 260.844 251.965   1
  -8   6  -2 7810.33 1141.74   1
  -8   6  -3 13.0826 147.749   1
  -8   5   2 899.437 388.251   1
  -8   5   1 2345.70 649.607   1
  -8   5   0 3878.61 820.439   1
  -8   5  -1 2562.42 656.503   1
  -8   5  -2 7656.28 1114.36   1
  -8   5  -3 925.807 394.982   1
  -8   5  -4 16633.5 1632.32   1
   8  -4  -3-253.541 185.385   7
  -8   4   2 4130.08 830.901   1
   8  -4  -2 3465.37 652.516   7
  -8   4   1 1502.31 489.411   1
  -8   4   0 21744.7 1911.14   1
   8  -4   0 22437.2 1800.53   2
   8  -4   1-29.7637 176.921   2
  -8   4  -1-117.117 200.431   1
  -8   4  -2 9009.12 1193.60   1
   8  -4   2 10884.2 1243.61   2
   8  -4   3 229.380 259.980   2
  -8   4  -3 614.600 330.812   1
  -8   4  -4 421.967 260.926   5
   8  -4   4 60.9182 116.658   2
  -8   4  -4 532.063 318.467   1
  -8   4  -5 171.937 198.674   5
  -8   4  -5 134.191 159.281   1
  -8   4  -6 3647.92 807.555   5
   8  -3  -4 14591.0 1403.47   7
   8  -3  -3 2727.89 593.551   7
  -8   3   3 3015.20 711.843   1
  -8   3   2 13726.7 1524.15   1
   8  -3  -2 12035.6 1309.38   2
   8  -3  -2 10016.7 1128.27   7
   8  -3  -1 4731.24 803.897   2
  -8   3   1 3844.55 798.368   1
   8  -3   0 4330.45 767.736   2
  -8   3   0 2568.57 634.227   1
  -8   3  -1 15413.5 1559.84   1
   8  -3   1 16553.3 1515.30   2
  -8   3  -2 3811.99 771.442   1
   8  -3   2 4432.97 769.441   2
  -8   3  -3 80.1820 82.2620   5
   8  -3   3 78.9546 123.462   2
  -8   3  -3 69.4853 120.642   1
   8  -3   4 6139.16 936.764   2
  -8   3  -4 6416.97 1001.93   1
  -8   3  -4 5531.14 878.502   5
   8  -3   5 25321.0 1965.98   2
  -8   3  -5 25740.0 1985.49   1
  -8   3  -5 25497.3 1986.82   5
   8  -3   6 14033.4 1471.98   2
  -8   3  -6 13898.7 1542.76   5
  -8   3  -7 1115.34 448.009   5
   8  -2  -5 15092.3 1485.00   7
   8  -2  -4 6225.04 933.178   7
   8  -2  -3 7334.20 1004.61   7
  -8   2   3 6494.46 1059.89   1
  -8   2   2 5927.52 1000.82   1
   8  -2  -2 6215.35 925.803   2
   8  -2  -2 6019.31 906.196   7
  -8   2   1 8528.95 1175.14   1
   8  -2  -1 9410.65 1125.50   2
   8  -2  -1 7736.33 985.480   7
  -8   2   0 11752.3 1365.74   1
   8  -2   0 12135.0 1277.00   2
   8  -2   1 3990.55 740.928   2
  -8   2  -1 2965.18 678.350   1
  -8   2  -2 36261.4 2377.17   1
   8  -2   2 35387.1 2213.23   2
  -8   2  -2 34491.6 1880.19   5
  -8   2  -3 4196.38 683.214   5
   8  -2   3 4460.43 792.594   2
  -8   2  -3 4763.69 842.757   1
  -8   2  -4 9624.31 1194.70   1
   8  -2   4 9309.60 1140.86   2
  -8   2  -4 9383.59 1107.30   5
  -8   2  -5 22.7978 146.138   5
   8  -2   5 189.502 144.278   2
  -8   2  -5-82.0110 216.886   1
  -8   2  -6 827.224 388.880   5
   8  -2   6 560.885 284.223   2
   8  -2   7 17036.3 1639.90   2
  -8   2  -7 14560.0 1596.44   5
  -8   2  -8 22292.8 2069.33   5
   8  -1  -5 5003.70 878.317   7
   8  -1  -4 10098.1 1225.80   7
   8  -1  -3 5452.98 871.877   2
   8  -1  -3 5560.45 895.234   7
  -8   1   3 5075.84 931.146   1
  -8   1   2 3253.67 716.561   1
   8  -1  -2 3616.92 698.171   2
   8  -1  -2 4082.97 754.055   7
  -8   1   1 1057.57 428.696   1
   8  -1  -1 751.090 312.378   2
   8  -1  -1 1124.45 395.303   7
  -8   1   0 17188.6 1638.34   1
   8  -1   0 16209.2 1460.45   2
   8  -1   1 572.120 299.394   2
  -8   1  -1 1037.60 407.166   1
  -8   1  -2 24886.8 1942.44   1
   8  -1   2 24023.7 1790.75   2
  -8   1  -2 23311.1 1472.88   5
  -8   1  -3-66.9332 106.254   5
  -8   1  -3 57.6741 99.0857   1
   8  -1   3-244.272 228.892   2
  -8   1  -4 16544.1 1562.38   1
   8  -1   4 16194.4 1487.75   2
  -8   1  -4 16443.7 1435.42   5
   8  -1   5 11306.7 1253.08   2
  -8   1  -5 10481.8 1243.99   1
  -8   1  -5 8953.83 1118.02   5
  -8   1  -6 10452.3 1260.78   5
   8  -1   6 11047.2 1261.51   2
  -8   1  -6 11040.6 1289.82   1
  -8   1  -7 16896.5 1665.98   5
   8  -1   7 23058.5 1878.88   2
  -8   1  -8-103.198 226.270   5
   8  -1   8 562.572 307.388   2
  -8   1  -9 1633.54 576.047   5
   8   0  -5 480.604 249.232   7
   8   0  -4 1473.77 465.117   7
   8   0  -3 7000.78 990.969   2
   8   0  -3 5182.55 904.047   7
  -8   0   3 6787.00 1068.84   1
  -8   0   2 11347.1 1354.97   1
   8   0  -2 12846.1 1313.13   2
   8   0  -2 11738.1 1319.76   7
  -8   0   1 316.930 303.694   1
   8   0  -1 480.774 277.504   2
   8   0  -1 408.209 263.360   7
  -8   0   0 6542.75 1008.90   1
   8   0   0 6291.90 892.328   2
   8   0   0 5743.46 881.551   7
  -8   0  -1 17456.7 1624.41   1
   8   0   1 15247.4 1394.62   2
  -8   0  -2 15931.1 1530.53   1
   8   0   2 14868.8 1379.21   2
  -8   0  -2 16713.5 1180.27   5
  -8   0  -3-22.1836 83.2658   5
  -8   0  -3 3.79466 160.414   1
   8   0   3-179.482 165.117   2
  -8   0  -4 33082.1 1983.34   5
  -8   0  -4 29569.2 2121.03   1
   8   0   4 29260.3 1986.69   2
  -8   0  -5 260.360 218.264   5
   8   0   5 1.76376 162.677   2
  -8   0  -5 412.371 299.517   1
  -8   0  -6 4310.78 773.763   5
   8   0   6 5345.46 869.159   2
  -8   0  -6 5811.40 932.422   1
  -8   0  -7 110.647 152.735   5
   8   0   7 615.071 353.588   2
  -8   0  -8 7659.88 1135.97   5
   8   0   8 8986.78 1173.46   2
  -8   0  -9 2290.19 641.149   5
   8   1  -4 14875.6 1577.64   7
   8   1  -3 777.960 309.318   2
   8   1  -3 489.575 275.835   7
  -8  -1   3 457.954 295.049   1
  -8  -1   2 6136.86 1010.24   1
   8   1  -2 5133.15 811.058   2
   8   1  -2 5532.86 935.340   7
  -8  -1   1 10965.5 1305.91   1
   8   1  -1 11891.1 1233.35   2
   8   1  -1 9887.31 1238.89   7
   8   1   0 2523.07 545.280   2
  -8  -1   0 1796.28 506.486   1
   8   1   0 2024.83 548.801   7
   8   1   1 1100.13 376.794   2
  -8  -1  -1 791.024 333.322   1
   8   1   2 3501.40 671.210   2
  -8  -1  -2 3934.11 749.811   1
  -8  -1  -2 3945.75 546.621   5
  -8  -1  -3 2941.98 653.569   1
  -8  -1  -3 3001.92 519.583   5
   8   1   3 2509.52 577.256   2
  -8  -1  -4 30457.7 1841.46   5
  -8  -1  -4 37239.2 2349.74   1
   8   1   4 35997.1 2182.79   2
  -8  -1  -5-43.4387 114.965   5
   8   1   5-25.8367 121.851   2
  -8  -1  -5 179.020 146.821   1
   8   1   6 31876.5 2104.88   2
  -8  -1  -6 33343.4 2220.19   1
  -8  -1  -7 6368.15 949.595   5
   8   1   7 6380.45 958.083   2
  -8  -1  -8 8618.16 1170.75   5
   8   1   8 9280.78 1180.06   2
  -8  -1  -9 1719.08 545.857   5
   8   1   9 2292.53 628.062   2
  -8  -1 -10 1301.76 491.899   5
   8   2  -4 2521.12 609.190   2
   8   2  -3 5856.23 901.846   2
   8   2  -3 5340.47 953.660   7
  -8  -2   3 5279.81 939.117   1
  -8  -2   2 2996.08 702.553   1
   8   2  -2 3493.25 680.035   2
   8   2  -2 3015.89 712.335   7
   8   2  -1 1757.17 471.002   2
  -8  -2   1 2708.19 658.802   1
   8   2  -1 1927.01 578.994   7
  -8  -2   0 10519.9 1254.01   1
   8   2   0 9378.17 1077.75   2
   8   2   0 9225.53 1201.74   7
  -8  -2  -1 8207.93 1095.22   1
   8   2   1 9715.88 1086.27   2
   8   2   1 8267.68 1114.73   7
  -8  -2  -2 20981.6 1761.96   1
   8   2   2 20771.6 1601.17   2
  -8  -2  -3 7079.94 778.221   5
  -8  -2  -3 7342.47 1023.79   1
   8   2   3 9345.87 1067.34   2
  -8  -2  -4 9319.09 964.373   5
  -8  -2  -4 9220.06 1158.43   1
   8   2   4 9229.37 1076.45   2
   8   2   5-50.6211 147.569   2
  -8  -2  -5 74.7738 151.137   1
  -8  -2  -6 21726.5 1655.41   5
   8   2   6 21774.2 1720.78   2
  -8  -2  -6 24429.9 1891.45   1
  -8  -2  -7 4423.28 783.481   5
   8   2   7 6487.26 950.100   2
  -8  -2  -8 4727.20 850.524   5
   8   2   8 3798.83 747.299   2
  -8  -2  -9 4943.87 921.092   5
   8   2   9 5107.23 892.991   2
  -8  -2 -10 13045.8 1556.44   5
  -8  -3   3 14156.1 1529.26   1
   8   3  -3 12359.0 1312.07   2
  -8  -3   2 3941.27 804.591   1
   8   3  -2 3245.31 659.554   2
   8   3  -2 2780.16 727.822   7
   8   3  -1 767.481 289.252   2
  -8  -3   1 769.869 328.429   1
   8   3  -1 1018.85 431.582   7
  -8  -3   0 17003.3 1601.76   1
   8   3   0 15264.5 1373.10   2
   8   3   0 14183.0 1544.24   7
  -8  -3  -1 3980.53 757.695   1
   8   3   1 5078.27 778.046   2
   8   3   1 3591.13 767.210   7
   8   3   2 4124.67 696.441   2
   8   3   2 3786.92 767.158   7
  -8  -3  -2 3951.33 765.803   1
  -8  -3  -3 1817.61 374.028   5
  -8  -3  -3 2383.58 584.755   1
   8   3   3 1237.62 389.934   2
  -8  -3  -4 4994.79 687.898   5
   8   3   4 3998.54 699.542   2
  -8  -3  -4 3646.01 717.528   1
   8   3   5 13678.7 1311.81   2
  -8  -3  -5 15673.8 1487.56   1
  -8  -3  -6 10602.8 1136.12   5
   8   3   6 10778.4 1193.69   2
  -8  -3  -6 9767.17 1197.32   1
  -8  -3  -7 4868.02 814.212   5
   8   3   7 6404.16 931.066   2
  -8  -3  -8 12112.6 1356.12   5
   8   3   8 16314.4 1536.27   2
  -8  -3  -9 1685.01 552.937   5
   8   3   9 498.569 269.981   2
  -8  -3 -10 8740.81 1284.85   5
   8   3  10 13047.9 1449.25   2
  -8  -4   3 332.148 207.780   1
   8   4  -2 4620.88 780.744   2
  -8  -4   2 4417.30 831.476   1
  -8  -4   1 6019.00 965.220   1
   8   4  -1 5711.49 860.417   2
   8   4  -1 4894.85 961.773   7
   8   4   0 580.927 253.789   2
  -8  -4   0 784.172 360.700   1
   8   4   0 658.112 319.985   7
  -8  -4  -1 6500.29 974.015   1
   8   4   1 6078.14 847.712   2
   8   4   1 5090.74 953.314   7
   8   4   2 4694.74 731.967   2
   8   4   2 5997.89 996.475   7
  -8  -4  -2 5040.28 846.480   1
  -8  -4  -3 10660.1 1214.42   1
   8   4   3 12375.2 1209.55   2
   8   4   3 9872.99 1256.38   7
  -8  -4  -4 7587.26 841.207   5
   8   4   4 9808.69 1081.65   2
  -8  -4  -4 8832.58 1110.20   1
  -8  -4  -5 224.517 212.506   1
  -8  -4  -5-68.4432 141.297   5
   8   4   5-124.294 147.209   2
  -8  -4  -6 13946.7 1406.38   1
  -8  -4  -6 10059.8 1114.70   5
   8   4   6 12290.3 1259.08   2
  -8  -4  -7 1044.07 365.962   5
   8   4   7 964.852 347.017   2
  -8  -4  -8 8207.51 1118.52   5
   8   4   8 12461.3 1334.74   2
  -8  -4  -9 2672.54 661.065   5
   8   4   9 4816.32 847.544   2
  -8  -4 -10 1152.16 462.873   5
   8   4  10 1338.33 465.726   2
   8   5  -2 803.885 330.726   2
  -8  -5   2 112.778 156.916   1
  -8  -5   1 7363.61 1048.29   1
   8   5  -1 6144.95 893.735   2
   8   5   0 785.210 323.362   2
  -8  -5   0 584.170 283.247   1
   8   5   0 516.078 301.590   7
   8   5   1 736.717 272.956   2
   8   5   1 515.262 383.501   7
  -8  -5  -1 973.393 371.195   1
  -8  -5  -2 9169.24 1126.85   1
   8   5   2 8148.10 972.524   2
   8   5   2 6010.68 1037.80   7
   8   5   3 1596.90 427.945   2
  -8  -5  -3 1147.53 379.346   1
   8   5   3 1871.42 571.546   7
   8   5   4 9282.32 1043.05   2
   8   5   4 8611.14 1195.06   7
  -8  -5  -4 10815.4 1229.97   1
  -8  -5  -5 3421.46 623.625   5
   8   5   5 3748.36 668.697   2
  -8  -5  -5 4837.31 812.692   1
  -8  -5  -6 3365.09 640.787   5
   8   5   6 2156.32 518.148   2
  -8  -5  -7 6150.48 913.205   5
   8   5   7 7469.79 982.972   2
  -8  -5  -8 3925.05 768.206   5
   8   5   8 4303.67 769.281   2
  -8  -5  -9 446.768 251.604   5
   8   5   9 1188.28 429.768   2
  -8  -5 -10 2896.98 744.553   5
   8   5  10 2527.26 611.793   2
  -8  -6   2 30279.3 2192.65   1
  -8  -6   1 370.576 275.933   1
   8   6   0 3202.39 628.785   2
  -8  -6   0 2557.83 600.633   1
   8   6   1 10465.6 1121.74   2
  -8  -6  -1 8946.22 1124.56   1
   8   6   2 3415.00 624.360   2
  -8  -6  -2 3844.83 730.385   1
   8   6   2 4415.10 951.337   7
   8   6   3 8429.32 974.557   2
   8   6   3 8254.46 1258.74   7
  -8  -6  -3 8497.37 1070.22   1
   8   6   4 1497.84 411.801   2
   8   6   4 1494.04 556.044   7
  -8  -6  -4 1937.12 516.409   1
   8   6   5 1351.12 388.608   2
  -8  -6  -5 1316.98 410.909   5
  -8  -6  -5 1301.48 435.920   1
   8   6   5 1543.08 510.829   7
  -8  -6  -6 6353.12 908.451   5
   8   6   6 10728.9 1134.69   2
  -8  -6  -7 4691.95 812.190   5
   8   6   7 8633.71 1042.07   2
  -8  -6  -8 4136.29 807.044   5
   8   6   8 6886.64 955.062   2
  -8  -6  -9 5067.17 929.497   5
   8   6   9 6996.71 992.629   2
   8   6  10 7842.55 1081.89   2
  -8  -7   0 10724.3 1223.89   1
  -8  -7  -1 1312.85 401.405   1
  -8  -7  -2 956.875 371.185   1
  -8  -7  -3 1155.03 395.317   1
  -8  -7  -4 11952.2 1248.33   1
   8   7   5 4510.95 929.085   7
   8   7   6 2484.17 667.213   7
   8   7   7 5620.76 974.067   7
  -8  -7  -8 7198.05 1062.58   5
   9  -3  -1 6775.53 1000.46   7
  -9   3  -4 866.470 346.301   5
  -9   3  -5 737.837 336.726   5
   9  -2  -1 1773.59 519.658   7
  -9   2  -5 864.805 391.863   5
  -9   2  -6 7631.47 1127.76   5
   9  -1   0 496.679 280.810   7
  -9   1  -5 1298.67 439.733   5
  -9   1  -6 7897.63 1131.93   5
  -9   1  -7 1159.57 453.214   5
   9   0   2 2572.58 607.047   2
  -9   0  -3 10184.1 1318.93   1
   9   0   3 11307.2 1310.21   2
  -9   0  -4 1080.85 420.982   1
  -9   0  -5 13454.3 1358.39   5
  -9   0  -6 3244.39 716.465   5
  -9   0  -7 971.135 437.591   5
  -9   0  -8 1066.45 450.932   5
   9   1   1 11645.7 1308.70   2
   9   1   2 470.114 235.161   2
  -9  -1  -2 893.651 400.454   1
  -9  -1  -3 12456.8 1447.72   1
   9   1   3 11906.6 1319.57   2
   9   1   4 884.834 373.256   2
  -9  -1  -4 701.481 333.581   1
  -9  -1  -5 2796.45 590.041   5
   9   1   5 2180.43 556.966   2
  -9  -1  -6 568.445 304.630   5
  -9  -1  -7 2827.32 657.378   5
  -9  -1  -8 4317.38 866.602   5
   9   2   0 294.126 209.585   2
   9   2   1 27269.4 2000.30   2
  -9  -2  -2 7605.76 1128.20   1
   9   2   2 6713.58 995.416   2
   9   2   3 1609.82 459.746   2
  -9  -2  -3 2226.44 595.268   1
   9   2   4 3461.24 699.543   2
  -9  -2  -4 4869.38 878.150   1
   9   2   5 7166.90 1033.94   2
  -9  -2  -6 3024.59 648.314   5
   9   2   6 5189.13 900.503   2
  -9  -2  -7 7369.61 1053.30   5
  -9  -2  -8 112.735 246.603   5
  -9  -2  -9 6306.89 1063.79   5
   9   3   0 8959.12 1145.73   2
   9   3   1 4951.28 830.047   2
   9   3   2 5910.74 912.694   2
  -9  -3  -3 25504.7 2074.29   1
   9   3   3 25253.0 1913.17   2
   9   3   4 11.3448 100.592   2
  -9  -3  -4 190.655 129.059   1
   9   3   5 10088.4 1212.22   2
   9   3   6 1068.53 387.202   2
  -9  -3  -7 8682.52 1114.50   5
   9   3   7 10409.4 1271.97   2
  -9  -3  -8 4093.56 800.505   5
  -9  -3  -9 3255.85 736.637   5
   9   4   0 2361.73 597.002   2
   9   4   1 12897.1 1352.76   2
   9   4   2 364.549 244.969   2
   9   4   3 13330.6 1366.50   2
   9   4   4 7731.98 1046.89   2
   9   4   5 7741.33 1062.24   2
   9   4   6 4369.44 808.506   2
  -9  -4  -7 1564.20 466.594   5
   9   4   7 1386.68 450.411   2
  -9  -4  -8 297.248 220.579   5
  -9  -4  -9 4857.53 914.545   5
   9   5   0 1408.55 456.888   2
   9   5   1 744.891 346.665   2
   9   5   2 12949.2 1330.26   2
   9   5   3 8576.57 1087.80   2
   9   5   4 296.215 220.015   2
   9   5   5 1642.85 469.288   2
   9   5   6-49.0644 168.036   2
   9   5   7 7789.85 1098.02   2
  -9  -5  -8 4037.79 798.213   5
   9   5   8 5263.93 898.887   2
   0   0   0    0.00    0.00   0

TITL exp_1219 in P-1
REM P-1 (#2 in standard setting)
CELL 0.71073   7.173689   9.007690  11.275324  78.1687  76.7788  84.4256
ZERR    2.00   0.000402   0.000454   0.000607   0.0044   0.0047   0.0044
LATT  1
SFAC C H F Fe
UNIT 32.00 20.00 12.00 2.00
TREF
HKLF 4
END
;
_shelx_hkl_checksum              6449
_olex2_date_sample_data_collection 2018-10-25
_olex2_exptl_crystal_mounting_method
'Crystal sealed in 1 mm X-ray glass capillary with excess solvent removed'
_olex2_submission_special_instructions 'No special instructions were received'
_oxdiff_exptl_absorpt_empirical_details
;
Empirical correction (ABSPACK) includes:
- Absorption correction using spherical harmonics
- Frame scaling
;
_oxdiff_exptl_absorpt_empirical_full_max 1.387
_oxdiff_exptl_absorpt_empirical_full_min 0.857
loop_
_space_group_symop_operation_xyz
'x, y, z'
'-x, -y, -z'
loop_
_atom_site_label
_atom_site_type_symbol
_atom_site_fract_x
_atom_site_fract_y
_atom_site_fract_z
_atom_site_U_iso_or_equiv
_atom_site_adp_type
_atom_site_occupancy
_atom_site_site_symmetry_order
_atom_site_calc_flag
Fe1 Fe 0.23938(3) 0.49625(2) 0.25252(2) 0.01232(9) Uani 1 1 d
C7 C 0.3207(3) 0.68143(19) 0.11842(17) 0.0213(4) Uani 1 1 d
H7 H 0.444(3) 0.721(2) 0.0925(19) 0.026(5) Uiso 1 1 d
C8 C 0.2470(3) 0.57285(19) 0.06816(16) 0.0193(4) Uani 1 1 d
H8 H 0.313(3) 0.524(2) 0.005(2) 0.028(5) Uiso 1 1 d
C9 C 0.0551(2) 0.54886(19) 0.13413(16) 0.0181(3) Uani 1 1 d
H9 H -0.027(3) 0.483(2) 0.1223(19) 0.024(5) Uiso 1 1 d
C10 C 0.0099(2) 0.64275(19) 0.22510(16) 0.0188(4) Uani 1 1 d
H10 H -0.105(3) 0.650(2) 0.2858(19) 0.024(5) Uiso 1 1 d
C11 C 0.1742(3) 0.72477(19) 0.21558(17) 0.0198(4) Uani 1 1 d
H11 H 0.191(3) 0.796(2) 0.2635(18) 0.021(5) Uiso 1 1 d
C12 C 0.4758(2) 0.4074(2) 0.32054(17) 0.0212(4) Uani 1 1 d
H12 H 0.602(3) 0.451(2) 0.2939(18) 0.020(5) Uiso 1 1 d
C13 C 0.4072(2) 0.29957(19) 0.26671(17) 0.0200(4) Uani 1 1 d
H13 H 0.478(3) 0.258(2) 0.1969(18) 0.018(5) Uiso 1 1 d
C14 C 0.2154(3) 0.27147(18) 0.33049(16) 0.0178(3) Uani 1 1 d
H14 H 0.134(3) 0.206(2) 0.3135(18) 0.021(5) Uiso 1 1 d
C15 C 0.1649(2) 0.36175(18) 0.42437(16) 0.0171(3) Uani 1 1 d
H15 H 0.050(3) 0.368(2) 0.4819(18) 0.019(5) Uiso 1 1 d
C16 C 0.3257(3) 0.44671(19) 0.41778(16) 0.0189(4) Uani 1 1 d
H16 H 0.334(3) 0.517(2) 0.4666(19) 0.023(5) Uiso 1 1 d
F1 F 0.37664(14) 1.00266(12) -0.11588(10) 0.0266(2) Uani 1 1 d
F2 F 0.14369(15) 0.80982(11) -0.16171(9) 0.0225(2) Uani 1 1 d
F3 F -0.23176(15) 0.80680(12) -0.04538(10) 0.0274(3) Uani 1 1 d
C1 C 0.1908(2) 1.00165(18) -0.05906(16) 0.0181(3) Uani 1 1 d
C2 C 0.0727(2) 0.90357(18) -0.08208(15) 0.0164(3) Uani 1 1 d
C3 C -0.1176(2) 0.90217(18) -0.02318(16) 0.0178(3) Uani 1 1 d
F4 F 0.80743(15) 0.15179(12) 0.50172(11) 0.0291(3) Uani 1 1 d
F5 F 0.46045(15) 0.21352(11) 0.64413(10) 0.0249(2) Uani 1 1 d
F6 F 0.15169(14) 0.06209(11) 0.64160(9) 0.0241(2) Uani 1 1 d
C4 C 0.6556(2) 0.07710(18) 0.50070(16) 0.0173(3) Uani 1 1 d
C5 C 0.4793(2) 0.10826(18) 0.57348(15) 0.0172(3) Uani 1 1 d
C6 C 0.3237(2) 0.03079(18) 0.57227(15) 0.0166(3) Uani 1 1 d
loop_
_atom_site_aniso_label
_atom_site_aniso_U_11
_atom_site_aniso_U_22
_atom_site_aniso_U_33
_atom_site_aniso_U_23
_atom_site_aniso_U_13
_atom_site_aniso_U_12
Fe1 0.01333(13) 0.01158(13) 0.01215(14) -0.00161(9) -0.00395(9) 0.00049(8)
C7 0.0220(9) 0.0163(8) 0.0225(9) 0.0044(7) -0.0051(7) -0.0023(7)
C8 0.0258(9) 0.0191(8) 0.0116(8) -0.0018(7) -0.0042(7) 0.0048(7)
C9 0.0212(9) 0.0177(8) 0.0172(8) -0.0016(7) -0.0102(7) 0.0003(7)
C10 0.0180(8) 0.0199(8) 0.0173(9) -0.0025(7) -0.0050(7) 0.0055(6)
C11 0.0271(9) 0.0111(8) 0.0229(9) -0.0028(7) -0.0104(7) 0.0021(6)
C12 0.0155(8) 0.0229(9) 0.0242(9) 0.0024(7) -0.0088(7) 0.0003(7)
C13 0.0214(9) 0.0169(8) 0.0189(9) -0.0018(7) -0.0040(7) 0.0078(6)
C14 0.0238(9) 0.0119(8) 0.0172(8) 0.0000(6) -0.0060(7) -0.0011(6)
C15 0.0194(8) 0.0157(8) 0.0146(8) 0.0001(6) -0.0035(7) -0.0002(6)
C16 0.0255(9) 0.0163(8) 0.0169(8) -0.0008(7) -0.0113(7) -0.0001(7)
F1 0.0162(5) 0.0301(6) 0.0304(6) -0.0080(5) 0.0037(4) -0.0021(4)
F2 0.0291(6) 0.0181(5) 0.0195(5) -0.0090(4) -0.0008(4) 0.0033(4)
F3 0.0253(6) 0.0262(6) 0.0338(6) -0.0116(5) -0.0046(5) -0.0084(4)
C1 0.0164(8) 0.0173(8) 0.0171(8) 0.0005(7) -0.0006(6) 0.0000(6)
C2 0.0233(9) 0.0121(7) 0.0125(8) -0.0023(6) -0.0032(6) 0.0035(6)
C3 0.0210(8) 0.0135(8) 0.0190(9) -0.0004(7) -0.0060(7) -0.0034(6)
F4 0.0219(6) 0.0311(6) 0.0372(7) -0.0096(5) -0.0055(5) -0.0104(4)
F5 0.0346(6) 0.0194(5) 0.0236(6) -0.0111(4) -0.0068(5) 0.0003(4)
F6 0.0183(5) 0.0262(5) 0.0227(5) -0.0034(4) 0.0031(4) 0.0035(4)
C4 0.0180(8) 0.0142(8) 0.0197(9) 0.0006(7) -0.0062(7) -0.0036(6)
C5 0.0244(9) 0.0126(8) 0.0142(8) -0.0020(6) -0.0051(7) 0.0022(6)
C6 0.0145(8) 0.0165(8) 0.0153(8) 0.0010(6) -0.0008(6) 0.0027(6)
loop_
_atom_type_symbol
_atom_type_description
_atom_type_scat_dispersion_real
_atom_type_scat_dispersion_imag
_atom_type_scat_source
C C 0.0033 0.0016 'International Tables Vol C Tables 4.2.6.8 and 6.1.1.4'
H H 0.0000 0.0000 'International Tables Vol C Tables 4.2.6.8 and 6.1.1.4'
F F 0.0171 0.0103 'International Tables Vol C Tables 4.2.6.8 and 6.1.1.4'
Fe Fe 0.3463 0.8444 'International Tables Vol C Tables 4.2.6.8 and 6.1.1.4'
loop_
_exptl_crystal_face_index_h
_exptl_crystal_face_index_k
_exptl_crystal_face_index_l
_exptl_crystal_face_perp_dist
7 -1 -8 0.2475
0 7 14 0.1066
2 -6 -14 0.2082
-3 11 -1 0.4054
-9 3 -4 0.3295
-9 -4 0 0.1656
6 -8 7 0.2830
9 -4 7 0.2603
-6 2 10 0.1065
9 6 3 0.2740
3 -11 3 0.3186
0 -7 -14 0.2183
5 -10 3 0.3136
9 4 0 0.2672
6 -3 12 0.2858
1 8 -10 0.4177
-6 4 -12 0.4437
0 12 0 0.3778
6 8 12 0.2410
2 -9 8 0.3067
10 -2 3 0.2746
8 8 2 0.3048
-6 -8 -12 0.1936
loop_
_geom_angle_atom_site_label_1
_geom_angle_atom_site_label_2
_geom_angle_atom_site_label_3
_geom_angle
_geom_angle_site_symmetry_1
_geom_angle_site_symmetry_3
C7 Fe1 C8 40.79(7) . .
C7 Fe1 C9 68.55(7) . .
C7 Fe1 C10 68.52(7) . .
C7 Fe1 C11 40.79(7) . .
C7 Fe1 C12 107.42(7) . .
C7 Fe1 C13 121.72(7) . .
C7 Fe1 C14 157.36(8) . .
C7 Fe1 C15 160.37(8) . .
C7 Fe1 C16 123.68(7) . .
C8 Fe1 C9 40.69(7) . .
C8 Fe1 C10 68.49(7) . .
C8 Fe1 C11 68.63(7) . .
C8 Fe1 C12 123.28(7) . .
C8 Fe1 C13 106.88(7) . .
C8 Fe1 C14 121.47(7) . .
C8 Fe1 C15 157.58(7) . .
C8 Fe1 C16 160.00(7) . .
C9 Fe1 C10 40.68(7) . .
C9 Fe1 C12 159.61(8) . .
C9 Fe1 C15 122.10(7) . .
C9 Fe1 C16 158.06(7) . .
C10 Fe1 C15 107.82(7) . .
C11 Fe1 C9 68.56(7) . .
C11 Fe1 C10 40.72(7) . .
C11 Fe1 C12 122.31(7) . .
C11 Fe1 C15 123.93(7) . .
C11 Fe1 C16 107.72(7) . .
C12 Fe1 C10 158.28(8) . .
C12 Fe1 C15 68.43(7) . .
C12 Fe1 C16 40.77(7) . .
C13 Fe1 C9 123.05(7) . .
C13 Fe1 C10 159.72(8) . .
C13 Fe1 C11 157.86(7) . .
C13 Fe1 C12 40.73(7) . .
C13 Fe1 C15 68.50(7) . .
C13 Fe1 C16 68.67(7) . .
C14 Fe1 C9 107.10(7) . .
C14 Fe1 C10 123.57(7) . .
C14 Fe1 C11 160.26(7) . .
C14 Fe1 C12 68.49(7) . .
C14 Fe1 C13 40.67(7) . .
C14 Fe1 C15 40.80(7) . .
C14 Fe1 C16 68.70(7) . .
C16 Fe1 C10 122.43(7) . .
C16 Fe1 C15 40.74(7) . .
Fe1 C7 H7 127.0(12) . .
C8 C7 Fe1 69.67(10) . .
C8 C7 H7 127.4(13) . .
C8 C7 C11 108.08(16) . .
C11 C7 Fe1 69.78(10) . .
C11 C7 H7 124.5(13) . .
Fe1 C8 H8 125.0(13) . .
C7 C8 Fe1 69.54(10) . .
C7 C8 H8 126.3(13) . .
C9 C8 Fe1 69.77(10) . .
C9 C8 C7 108.00(15) . .
C9 C8 H8 125.7(13) . .
Fe1 C9 H9 125.4(12) . .
C8 C9 Fe1 69.54(10) . .
C8 C9 H9 127.0(13) . .
C8 C9 C10 108.04(16) . .
C10 C9 Fe1 69.75(10) . .
C10 C9 H9 125.0(13) . .
Fe1 C10 H10 124.5(12) . .
C9 C10 Fe1 69.56(9) . .
C9 C10 H10 128.9(12) . .
C9 C10 C11 108.06(15) . .
C11 C10 Fe1 69.54(9) . .
C11 C10 H10 123.0(12) . .
Fe1 C11 H11 125.8(11) . .
C7 C11 Fe1 69.43(9) . .
C7 C11 H11 123.2(12) . .
C10 C11 Fe1 69.74(9) . .
C10 C11 C7 107.83(16) . .
C10 C11 H11 129.0(12) . .
Fe1 C12 H12 124.8(11) . .
C13 C12 Fe1 69.51(10) . .
C13 C12 H12 126.4(11) . .
C13 C12 C16 108.15(15) . .
C16 C12 Fe1 69.65(10) . .
C16 C12 H12 125.4(11) . .
Fe1 C13 H13 123.9(11) . .
C12 C13 Fe1 69.75(9) . .
C12 C13 H13 125.0(11) . .
C14 C13 Fe1 69.65(9) . .
C14 C13 C12 108.06(15) . .
C14 C13 H13 126.9(11) . .
Fe1 C14 H14 125.1(12) . .
C13 C14 Fe1 69.67(9) . .
C13 C14 H14 126.6(12) . .
C13 C14 C15 108.04(16) . .
C15 C14 Fe1 69.85(9) . .
C15 C14 H14 125.3(12) . .
Fe1 C15 H15 126.7(11) . .
C14 C15 Fe1 69.35(9) . .
C14 C15 H15 129.0(12) . .
C16 C15 Fe1 69.54(9) . .
C16 C15 C14 108.01(15) . .
C16 C15 H15 123.0(12) . .
Fe1 C16 H16 125.4(12) . .
C12 C16 Fe1 69.58(10) . .
C12 C16 H16 125.0(12) . .
C15 C16 Fe1 69.72(10) . .
C15 C16 C12 107.73(15) . .
C15 C16 H16 127.2(12) . .
F1 C1 C2 120.01(15) . .
F1 C1 C3 120.06(15) . 2_575
C3 C1 C2 119.92(15) 2_575 .
F2 C2 C1 120.00(15) . .
F2 C2 C3 120.09(16) . .
C3 C2 C1 119.91(16) . .
F3 C3 C1 119.99(15) . 2_575
F3 C3 C2 119.84(16) . .
C2 C3 C1 120.17(16) . 2_575
F4 C4 C5 119.79(16) . .
F4 C4 C6 119.86(15) . 2_656
C6 C4 C5 120.34(16) 2_656 .
F5 C5 C4 119.95(15) . .
F5 C5 C6 120.50(15) . .
C6 C5 C4 119.55(16) . .
F6 C6 C4 120.15(15) . 2_656
F6 C6 C5 119.73(15) . .
C4 C6 C5 120.11(15) 2_656 .
loop_
_geom_bond_atom_site_label_1
_geom_bond_atom_site_label_2
_geom_bond_distance
_geom_bond_site_symmetry_2
Fe1 C7 2.0397(17) .
Fe1 C8 2.0414(17) .
Fe1 C9 2.0444(17) .
Fe1 C10 2.0469(16) .
Fe1 C11 2.0443(16) .
Fe1 C12 2.0457(17) .
Fe1 C13 2.0425(16) .
Fe1 C14 2.0422(16) .
Fe1 C15 2.0488(17) .
Fe1 C16 2.0465(17) .
C7 H7 0.95(2) .
C7 C8 1.422(3) .
C7 C11 1.423(3) .
C8 H8 0.93(2) .
C8 C9 1.421(2) .
C9 H9 0.93(2) .
C9 C10 1.422(2) .
C10 H10 0.95(2) .
C10 C11 1.423(3) .
C11 H11 0.95(2) .
C12 H12 0.98(2) .
C12 C13 1.423(3) .
C12 C16 1.425(3) .
C13 H13 0.958(19) .
C13 C14 1.420(2) .
C14 H14 0.94(2) .
C14 C15 1.426(2) .
C15 H15 0.93(2) .
C15 C16 1.425(2) .
C16 H16 0.93(2) .
F1 C1 1.3407(19) .
F2 C2 1.3404(19) .
F3 C3 1.338(2) .
C1 C2 1.380(2) .
C1 C3 1.380(2) 2_575
C2 C3 1.375(2) .
C3 C1 1.380(2) 2_575
F4 C4 1.3379(19) .
F5 C5 1.3369(19) .
F6 C6 1.3395(18) .
C4 C5 1.379(2) .
C4 C6 1.374(2) 2_656
C5 C6 1.377(2) .
C6 C4 1.374(2) 2_656
loop_
_geom_torsion_atom_site_label_1
_geom_torsion_atom_site_label_2
_geom_torsion_atom_site_label_3
_geom_torsion_atom_site_label_4
_geom_torsion
_geom_torsion_site_symmetry_1
_geom_torsion_site_symmetry_4
Fe1 C7 C8 C9 59.38(12) . .
Fe1 C7 C11 C10 -59.39(11) . .
Fe1 C8 C9 C10 59.34(12) . .
Fe1 C9 C10 C11 59.08(11) . .
Fe1 C10 C11 C7 59.19(11) . .
Fe1 C12 C13 C14 -59.33(11) . .
Fe1 C12 C16 C15 59.51(11) . .
Fe1 C13 C14 C15 -59.53(11) . .
Fe1 C14 C15 C16 -58.99(11) . .
Fe1 C15 C16 C12 -59.43(11) . .
C7 C8 C9 Fe1 -59.24(12) . .
C7 C8 C9 C10 0.10(19) . .
C8 C7 C11 Fe1 59.35(12) . .
C8 C7 C11 C10 -0.03(19) . .
C8 C9 C10 Fe1 -59.20(11) . .
C8 C9 C10 C11 -0.12(19) . .
C9 C10 C11 Fe1 -59.10(11) . .
C9 C10 C11 C7 0.10(19) . .
C11 C7 C8 Fe1 -59.42(12) . .
C11 C7 C8 C9 -0.04(19) . .
C12 C13 C14 Fe1 59.39(12) . .
C12 C13 C14 C15 -0.14(19) . .
C13 C12 C16 Fe1 -59.04(12) . .
C13 C12 C16 C15 0.48(19) . .
C13 C14 C15 Fe1 59.42(11) . .
C13 C14 C15 C16 0.44(18) . .
C14 C15 C16 Fe1 58.87(11) . .
C14 C15 C16 C12 -0.56(18) . .
C16 C12 C13 Fe1 59.12(12) . .
C16 C12 C13 C14 -0.21(19) . .
F1 C1 C2 F2 -0.3(2) . .
F1 C1 C2 C3 179.65(14) . .
F2 C2 C3 F3 0.1(2) . .
F2 C2 C3 C1 179.84(14) . 2_575
C1 C2 C3 F3 -179.85(15) . .
C1 C2 C3 C1 -0.1(3) . 2_575
C3 C1 C2 F2 -179.84(14) 2_575 .
C3 C1 C2 C3 0.1(3) 2_575 .
F4 C4 C5 F5 0.4(2) . .
F4 C4 C5 C6 -179.86(14) . .
F5 C5 C6 F6 0.6(2) . .
F5 C5 C6 C4 179.94(14) . 2_656
C4 C5 C6 F6 -179.15(14) . .
C4 C5 C6 C4 0.2(3) . 2_656
C6 C4 C5 F5 -179.95(14) 2_656 .
C6 C4 C5 C6 -0.2(3) 2_656 .
loop_
_exptl_oxdiff_crystal_face_indexfrac_h
_exptl_oxdiff_crystal_face_indexfrac_k
_exptl_oxdiff_crystal_face_indexfrac_l
_exptl_oxdiff_crystal_face_x
_exptl_oxdiff_crystal_face_y
_exptl_oxdiff_crystal_face_z
7.1052 -0.8991 -8.4584 -0.3328 -0.9430 -0.0025
-0.3835 6.5363 14.3432 -0.4471 0.8942 0.0217
1.8868 -5.7239 -13.7992 0.3016 -0.9531 -0.0248
-3.1890 11.3469 -1.4141 -0.1399 0.2743 0.9514
-9.4691 3.1768 -3.5770 0.6318 0.4665 0.6190
-9.4032 -3.9204 0.4724 0.8030 0.5956 -0.0206
6.1453 -7.5532 7.0753 -0.3019 -0.1106 -0.9469
8.6342 -3.9234 7.1336 -0.6074 -0.2257 -0.7616
-6.4077 1.7626 9.6373 0.2324 0.9726 0.0063
9.3446 5.9028 3.4614 -0.9356 -0.3510 0.0388
3.2398 -11.0284 2.8378 0.1005 -0.1955 -0.9755
0.4542 -6.7473 -14.1983 0.4468 -0.8936 -0.0435
5.2674 -9.6564 3.3832 -0.1021 -0.2818 -0.9540
9.4623 3.7496 -0.3642 -0.8032 -0.5957 0.0032
6.4123 -3.2920 12.0466 -0.5547 0.1980 -0.8081
0.9310 7.9165 -9.7360 -0.1729 -0.4965 0.8507
-6.2668 3.8113 -11.7792 0.5217 -0.1864 0.8325
0.3020 12.4922 0.4428 -0.4624 0.1608 0.8720
6.3582 8.1237 11.8327 -0.9429 0.3327 0.0181
1.6706 -9.4214 7.9015 0.0700 0.2058 -0.9761
9.6942 -2.3948 3.1742 -0.6681 -0.4937 -0.5568
8.0738 8.2089 1.6859 -0.8935 -0.3360 0.2979
-6.3064 -8.2699 -11.7342 0.9425 -0.3326 -0.0332
