#------------------------------------------------------------------------------
#$Date: 2019-11-26 06:45:01 +0200 (Tue, 26 Nov 2019) $
#$Revision: 242854 $
#$URL: file:///home/coder/svn-repositories/cod/cif/4/13/30/4133001.cif $
#------------------------------------------------------------------------------
#
# This file is available in the Crystallography Open Database (COD),
# http://www.crystallography.net/
#
# All data on this site have been placed in the public domain by the
# contributors.
#
data_4133001
loop_
_publ_author_name
'Liu, Siyuan'
'L\'egar\'e, Marc-Andr\'e'
'Hofmann, Alexander'
'Braunschweig, Holger'
_publ_section_title
;
 A Boradiselenirane and a Boraditellurirane: Isolable Heavy Analogs of
 Dioxiranes and Dithiiranes.
;
_journal_issue                   36
_journal_name_full               'Journal of the American Chemical Society'
_journal_page_first              11223
_journal_page_last               11226
_journal_paper_doi               10.1021/jacs.8b07829
_journal_volume                  140
_journal_year                    2018
_chemical_formula_moiety         'C18 H34 B2 N4 Se2'
_chemical_formula_sum            'C18 H34 B2 N4 Se2'
_chemical_formula_weight         486.03
_space_group_crystal_system      triclinic
_space_group_IT_number           2
_space_group_name_Hall           '-P 1'
_space_group_name_H-M_alt        'P -1'
_atom_sites_solution_hydrogens   geom
_atom_sites_solution_primary     iterative
_atom_sites_solution_secondary   difmap
_audit_creation_method           SHELXL-2016/6
_cell_angle_alpha                108.77(2)
_cell_angle_beta                 100.22(2)
_cell_angle_gamma                108.10(2)
_cell_formula_units_Z            1
_cell_length_a                   8.085(2)
_cell_length_b                   8.208(3)
_cell_length_c                   9.845(3)
_cell_measurement_reflns_used    9947
_cell_measurement_temperature    100(2)
_cell_measurement_theta_max      27.46
_cell_measurement_theta_min      2.30
_cell_volume                     559.3(3)
_computing_cell_refinement       'Saint+ ver. V8.38A (Bruker AXS)'
_computing_data_collection       'APEX2 ver. 2014.9 (Bruker AXS)'
_computing_data_reduction        'Saint+ ver. V8.38A (Bruker AXS)'
_computing_molecular_graphics    'ShelXLe (Huebschle et all, 2011)'
_computing_publication_material  'SHELXL-2016/6 (Sheldrick, 2016)'
_computing_structure_refinement  'SHELXL-2016/6 (Sheldrick, 2016)'
_computing_structure_solution    'SHELXT (Sheldrick, 2014)'
_diffrn_ambient_temperature      100(2)
_diffrn_detector                 'CCD area detector (Apex2)'
_diffrn_detector_area_resol_mean 8.333
_diffrn_measured_fraction_theta_full 0.996
_diffrn_measured_fraction_theta_max 0.996
_diffrn_measurement_device_type  'Bruker X8-APEX II'
_diffrn_measurement_method       '\f and \w scans'
_diffrn_radiation_monochromator  'multi-layer mirror'
_diffrn_radiation_type           MoK\a
_diffrn_radiation_wavelength     0.71073
_diffrn_reflns_av_unetI/netI     0.0360
_diffrn_reflns_Laue_measured_fraction_full 0.996
_diffrn_reflns_Laue_measured_fraction_max 0.996
_diffrn_reflns_limit_h_max       9
_diffrn_reflns_limit_h_min       -9
_diffrn_reflns_limit_k_max       10
_diffrn_reflns_limit_k_min       -10
_diffrn_reflns_limit_l_max       12
_diffrn_reflns_limit_l_min       -8
_diffrn_reflns_number            2185
_diffrn_reflns_point_group_measured_fraction_full 0.996
_diffrn_reflns_point_group_measured_fraction_max 0.996
_diffrn_reflns_theta_full        26.000
_diffrn_reflns_theta_max         26.021
_diffrn_reflns_theta_min         2.297
_diffrn_source                   'rotating-anode (Nonius FR-591)'
_exptl_absorpt_coefficient_mu    3.315
_exptl_absorpt_correction_T_max  0.4305
_exptl_absorpt_correction_T_min  0.2081
_exptl_absorpt_correction_type   multi-scan
_exptl_absorpt_process_details   'SadAbs 2016/2 (Bruker AXS)'
_exptl_crystal_colour            colourless
_exptl_crystal_density_diffrn    1.443
_exptl_crystal_description       plate
_exptl_crystal_F_000             248
_exptl_crystal_size_max          0.48
_exptl_crystal_size_mid          0.283
_exptl_crystal_size_min          0.256
_refine_diff_density_max         2.772
_refine_diff_density_min         -1.285
_refine_diff_density_rms         0.170
_refine_ls_extinction_method     none
_refine_ls_goodness_of_fit_ref   1.483
_refine_ls_hydrogen_treatment    constr
_refine_ls_matrix_type           full
_refine_ls_number_parameters     124
_refine_ls_number_reflns         2185
_refine_ls_number_restraints     0
_refine_ls_restrained_S_all      1.483
_refine_ls_R_factor_all          0.0549
_refine_ls_R_factor_gt           0.0526
_refine_ls_shift/su_max          0.000
_refine_ls_shift/su_mean         0.000
_refine_ls_structure_factor_coef Fsqd
_refine_ls_weighting_details
'w=1/[\s^2^(Fo^2^)+(0.1000P)^2^] where P=(Fo^2^+2Fc^2^)/3'
_refine_ls_weighting_scheme      calc
_refine_ls_wR_factor_gt          0.1699
_refine_ls_wR_factor_ref         0.1708
_reflns_Friedel_coverage         0.000
_reflns_number_gt                2066
_reflns_number_total             2185
_reflns_threshold_expression     'I > 2\s(I)'
_cod_data_source_file            ja8b07829_si_008.cif
_cod_data_source_block           alho081_a_tw
_cod_database_code               4133001
_shelx_shelxl_version_number     2016/6
_shelx_space_group_comment
;
The symmetry employed for this shelxl refinement is uniquely defined
by the following loop, which should always be used as a source of
symmetry information in preference to the above space-group names.
They are only intended as comments.
;
_shelx_estimated_absorpt_t_min   0.299
_shelx_estimated_absorpt_t_max   0.484
_shelx_res_file
;
TITL AlHo081_a.res in P-1
    alho081_a_tw.res
    created by SHELXL-2016/6 at 10:12:07 on 14-Mar-2018
REM Old TITL AlHo081 in P1

REM SHELXT solution in P-1
REM R1 0.090,  Rweak 0.030,  Alpha 0.140,  Orientation as input
REM Formula found by SHELXT:  C9 B N2 Se

CELL  0.71073    8.08521    8.20776    9.84455  108.7684  100.2201  108.0994
ZERR    1.000    0.00206    0.00325    0.00255    0.0227    0.0249    0.0235
LATT  1
SFAC C H B N SE
UNIT 18 34 2 4 2
TEMP -173.15
SIZE 0.256 0.283 0.48
L.S. 10
BOND $H
LIST 4
ACTA 52
SHEL 999. 0.81
CONF
FMAP 2
PLAN 20
WGHT    0.100000
BASF   0.13439
FVAR      10.66564
SE1   5    0.359694    0.589069    0.509608    11.00000    0.01254    0.01265 =
         0.01079    0.00809    0.00580    0.00648
B1    3    0.508981    0.501619    0.647653    11.00000    0.01294    0.01220 =
         0.01046    0.00493    0.00307    0.00336
RESI 1 TBU
C1    1    0.647232    0.672935    0.807904    11.00000    0.01717    0.00847 =
         0.01095    0.00393    0.00445    0.00444
C2    1    0.789765    0.826328    0.782335    11.00000    0.01858    0.01167 =
         0.02085    0.00708    0.00149    0.00117
AFIX 137
H2A   2    0.857423    0.935187    0.878352    11.00000   -1.50000
H2B   2    0.727274    0.863682    0.710355    11.00000   -1.50000
H2C   2    0.875106    0.777518    0.742062    11.00000   -1.50000
AFIX   0
C3    1    0.755692    0.604547    0.905451    11.00000    0.02441    0.01889 =
         0.01136    0.00514   -0.00222    0.00668
AFIX 137
H3A   2    0.836213    0.710265    1.000286    11.00000   -1.50000
H3B   2    0.829469    0.550900    0.851144    11.00000   -1.50000
H3C   2    0.670582    0.508850    0.927150    11.00000   -1.50000
AFIX   0
C4    1    0.539243    0.762950    0.898841    11.00000    0.02453    0.01726 =
         0.01482    0.00418    0.00801    0.00632
AFIX 137
H4A   2    0.623669    0.862937    0.995190    11.00000   -1.50000
H4B   2    0.449558    0.667774    0.917767    11.00000   -1.50000
H4C   2    0.475645    0.815534    0.841551    11.00000   -1.50000
AFIX   0
RESI 0
RESI 2 IME
C1    1    0.372674    0.322467    0.668826    11.00000    0.01935    0.01259 =
         0.00560    0.00296    0.00269    0.00573
N1    4    0.407122    0.172909    0.674785    11.00000    0.01953    0.01524 =
         0.00973    0.00800    0.00368    0.00571
C2    1    0.254052    0.042107    0.679446    11.00000    0.02877    0.01284 =
         0.01414    0.00667    0.00639    0.00376
AFIX  43
H2    2    0.242888   -0.075367    0.682248    11.00000   -1.20000
AFIX   0
N2    4    0.199112    0.285127    0.673632    11.00000    0.01327    0.01371 =
         0.01718    0.00864    0.00496    0.00467
C3    1    0.124671    0.111424    0.679282    11.00000    0.02167    0.01268 =
         0.01882    0.01050    0.00237    0.00041
AFIX  43
H3    2    0.004740    0.052994    0.682429    11.00000   -1.20000
AFIX   0
C4    1    0.579091    0.147251    0.691755    11.00000    0.02105    0.01708 =
         0.01730    0.00705    0.00766    0.00769
AFIX 137
H4A   2    0.553803    0.013873    0.642059    11.00000   -1.50000
H4B   2    0.644378    0.193406    0.799179    11.00000   -1.50000
H4C   2    0.654630    0.217236    0.645429    11.00000   -1.50000
AFIX   0
C5    1    0.094279    0.402228    0.678891    11.00000    0.02139    0.02493 =
         0.03485    0.02208    0.01556    0.01354
AFIX 137
H5A   2    0.035496    0.403383    0.757912    11.00000   -1.50000
H5B   2    0.000504    0.351623    0.581231    11.00000   -1.50000
H5C   2    0.176520    0.530226    0.701059    11.00000   -1.50000
RESI 0
AFIX   0
HKLF 5




REM  AlHo081_a.res in P-1
REM R1 =  0.0526 for    2066 Fo > 4sig(Fo)  and  0.0549 for all    2185 data
REM    124 parameters refined using      0 restraints

END

WGHT      0.0509      4.7450

REM Highest difference peak  2.772,  deepest hole -1.285,  1-sigma level  0.170
Q1    1   0.4798  0.7016  0.5004  11.00000  0.05    2.77
Q2    1   0.2447  0.7381  0.5154  11.00000  0.05    1.40
Q3    1   0.2262  0.4593  0.5036  11.00000  0.05    1.19
Q4    1   0.4902  0.4609  0.5140  11.00000  0.05    1.11
Q5    1   0.3865  0.1725  0.4937  11.00000  0.05    1.03
Q6    1   0.1883 -0.1276  0.5080  11.00000  0.05    0.87
Q7    1   0.1679  0.2005  0.6751  11.00000  0.05    0.71
Q8    1   0.6671  0.1933  0.5322  11.00000  0.05    0.66
Q9    1  -0.0971  0.1567  0.4998  11.00000  0.05    0.66
Q10   1   0.0401 -0.1812  0.6714  11.00000  0.05    0.62
Q11   1   0.1052  0.4848  0.5389  11.00000  0.05    0.61
Q12   1   0.1264  0.3335  0.5256  11.00000  0.05    0.55
Q13   1  -0.2045 -0.0569  0.5358  11.00000  0.05    0.54
Q14   1   0.2753  0.5279  0.6571  11.00000  0.05    0.52
Q15   1   0.2802  0.3023  0.6628  11.00000  0.05    0.51
Q16   1   0.4189  0.4133  0.6577  11.00000  0.05    0.51
Q17   1   0.7198  0.7531  0.7963  11.00000  0.05    0.51
Q18   1  -0.0556 -0.0294  0.6470  11.00000  0.05    0.51
Q19   1  -0.0512  0.0041  0.5115  11.00000  0.05    0.48
Q20   1   0.2765 -0.2599  0.6406  11.00000  0.05    0.47
;
_shelx_res_checksum              75990
_shelx_hkl_file
;
   1   0   0  475221    9554   1
   2   0   0   40500     884   1
   3   0   0   81706    1700   1
  -4   0   3  202758    5468  -2
   4   0   0  202758    5468   1
   5   0   0   41449    1163   1
   6   0   0   16190     846   1
   7   0   0  133530    4548   1
  -8   0   6   52824    2451  -2
   8   0   0   52824    2451   1
   9   0   0    2182     899   1
  -9   1   0   10628    1146   1
   8  -1  -5   22619    1517  -2
  -8   1   0   22619    1517   1
  -7   1   0  103877    3253   1
  -6   1   0   88935    2040   1
  -5   1   0   21510     597   1
   4  -1  -2   29221     707  -2
  -4   1   0   29221     707   1
  -3   1   0  219803    4242   1
  -2   1   0  143586    2661   1
  -1   1   0  454125    7988   1
   0  -1   1  287872    5081  -2
   0   1   0  287872    5081   1
   1   1   0    2586     121   1
   2   1   0   77126    1583   1
   3   1   0   77012    1533   1
  -4  -1   4  279086    6298  -2
   4   1   0  279086    6298   1
   5   1   0   39736    1395   1
   6   1   0   18018     944   1
   7   1   0  104093    4358   1
  -8  -1   7   35767    1967  -2
   8   1   0   35767    1967   1
  -9   2   0   46181    2397   1
   8  -2  -4   10584    2431  -2
  -8   2   0   10584    2431   1
  -7   2   0   19166     943   1
  -6   2   0   80480    2122   1
  -5   2   0  189535    4669   1
   4  -2  -1    9789     479  -2
  -4   2   0    9789     479   1
  -3   2   0  140420    3047   1
  -2   2   0  189999    3367   1
  -1   2   0   96663    1676   1
   0  -2   2   24111     689  -2
   0   2   0   24111     689   1
   1   2   0   86792    1788   1
   2   2   0   92358    1916   1
   3   2   0   62174    5505   1
  -4  -2   5   53638    1553  -2
   4   2   0   53638    1553   1
   5   2   0   45660    1787   1
   6   2   0   14501    1067   1
   7   2   0    3674     795   1
  -8  -2   8   42938    2064  -2
   8   2   0   42938    2064   1
  -9   3   0   41307    2659   1
   8  -3  -3   68527    4383  -2
  -8   3   0   68527    4383   1
  -7   3   0   23615    1305   1
  -6   3   0   85200    2388   1
  -5   3   0  141913    3571   1
   4  -3   0    3820     298  -2
  -4   3   0    3820     298   1
  -3   3   0    3854     230   1
  -2   3   0  197328    3534   1
  -1   3   0   48447     907   1
   0  -3   3     870     153  -2
   0   3   0     870     153   1
   1   3   0  118908    2247   1
   2   3   0  377493    8502   1
   3   3   0  121131    3275   1
  -4  -3   6   23727    1922  -2
   4   3   0   23727    1922   1
   5   3   0   86507    3078   1
   6   3   0   75868    2825   1
   7   3   0      46     712   1
  -9   4   0   32836    2669   1
   8  -4  -2   93991    6084  -2
  -8   4   0   93991    6084   1
  -7   4   0   20885    1269   1
  -6   4   0   69374    1844   1
  -5   4   0  250352    5768   1
   4  -4   1  379521    8471  -2
  -4   4   0  379521    8471   1
  -3   4   0   41249     953   1
  -2   4   0  108211    1952   1
  -1   4   0  190084    3737   1
   0  -4   4  130170    2742  -2
   0   4   0  130170    2742   1
   1   4   0   40685    1092   1
   2   4   0  149855    3285   1
   3   4   0  113177    2706   1
  -4  -4   7   28298    1240  -2
   4   4   0   28298    1240   1
   5   4   0   29547    1498   1
   6   4   0   29985    1611   1
  -9   5   0    1726    1192   1
   8  -5  -1   58214    4777  -2
  -8   5   0   58214    4777   1
  -7   5   0   42611    2080   1
  -6   5   0   17327     989   1
  -5   5   0  104753    2785   1
   4  -5   2  161721    4540  -2
  -4   5   0  161721    4540   1
  -3   5   0   72639    1854   1
  -2   5   0   19910    1211   1
  -1   5   0  113311    2868   1
   0  -5   5  126778    2849  -2
   0   5   0  126778    2849   1
   1   5   0    8103     498   1
   2   5   0   46342    1407   1
   3   5   0  108453    3371   1
  -4  -5   8   21399    1324  -2
   4   5   0   21399    1324   1
   5   5   0    4956     901   1
  -9   6   0   10742    1580   1
   8  -6   0   13910    1262  -2
  -8   6   0   13910    1262   1
  -7   6   0   50398    2895   1
  -6   6   0   48387    1855   1
  -5   6   0   30113    1137   1
   4  -6   3   58484    1619  -2
  -4   6   0   58484    1619   1
  -3   6   0   98914    2678   1
  -2   6   0   23487    1344   1
  -1   6   0    2853     459   1
   0  -6   6   59502    1842  -2
   0   6   0   59502    1842   1
   1   6   0   16736     968   1
   2   6   0    1818     615   1
   3   6   0   17437    1240   1
  -4  -6   9   39348    1917  -2
   4   6   0   39348    1917   1
  -9   7   0   41184    3090   1
   8  -7   1    1015     976  -2
  -8   7   0    1015     976   1
  -7   7   0   47770    2270   1
  -6   7   0  100345    3582   1
  -5   7   0   14707    1173   1
   4  -7   4   39570    1403  -2
  -4   7   0   39570    1403   1
  -3   7   0   70310    2077   1
  -2   7   0  143625    3718   1
  -1   7   0   12829     918   1
   0  -7   7   60594    2146  -2
   0   7   0   60594    2146   1
   1   7   0   80374    2685   1
   2   7   0   33049    1960   1
   3   7   0    4309    1023   1
   8  -8   2   13521    1751  -2
  -8   8   0   13521    1751   1
  -7   8   0    7544    1026   1
  -6   8   0   37517    2014   1
  -5   8   0   39176    1746   1
   4  -8   5    1070     678  -2
  -4   8   0    1070     678   1
  -3   8   0  115861    3701   1
  -2   8   0  140712    4007   1
  -1   8   0    8149     864   1
   0  -8   8    7702     930  -2
   0   8   0    7702     930   1
   1   8   0   31756    3117   1
  -6   9   0   26028    2060   1
  -5   9   0   65937    3045   1
   4  -9   6    6154    1129  -2
  -4   9   0    6154    1129   1
  -3   9   0    4640     927   1
  -2   9   0   22996    1813   1
  -1   9   0   28987    1530   1
   0   9  -8    6219    1087  -2
   0  -9   1    6219    1087   1
   1  -9   1   55730    2099   1
   2  -9   1   75596    2564   1
   3  -9   1    3647     882   1
  -4   9  -5   36826    3018  -2
   4  -9   1   36826    3018   1
   5  -9   1   51255    2652   1
   6  -9   1   21888    1966   1
   7  -9   1    5106    1162   1
  -2  -8   1   10749    1181   1
  -1  -8   1   34994    1722   1
   0   8  -7    1915     723  -2
   0  -8   1    1915     723   1
   1  -8   1   22980    1322   1
   2  -8   1   56033    1943   1
   3  -8   1   41322    2166   1
  -4   8  -4    8363     806  -2
   4  -8   1    8363     806   1
   5  -8   1   76173    2921   1
   6  -8   1   68603    2731   1
   7  -8   1    9651    1102   1
  -8   8  -1    7881    1281  -2
   8  -8   1    7881    1281   1
  -3  -7   1   13889    1212   1
  -2  -7   1   33879    1725   1
  -1  -7   1  131025    4045   1
   0   7  -6   92812    2745  -2
   0  -7   1   92812    2745   1
   1  -7   1    7268     737   1
   2  -7   1  100649    2700   1
   3  -7   1  102208    2943   1
  -4   7  -3   25269    1104  -2
   4  -7   1   25269    1104   1
   5  -7   1    1065     677   1
   6  -7   1   41002    2559   1
   7  -7   1   46093    2644   1
  -8   7   0    3901    1090  -2
   8  -7   1    3901    1090   1
  -5  -6   1   11163    1098   1
   4   6  -8   60067    2427  -2
  -4  -6   1   60067    2427   1
  -3  -6   1   29958    1551   1
  -2  -6   1    1524     576   1
  -1  -6   1   20356    1053   1
   0   6  -5  128654    3277  -2
   0  -6   1  128654    3277   1
   1  -6   1   25002    1829   1
   2  -6   1   54719    2226   1
   3  -6   1   86336    2541   1
  -4   6  -2  170343    4282  -2
   4  -6   1  170343    4282   1
   5  -6   1   10515     724   1
   6  -6   1   52603    2329   1
   7  -6   1   97010    4023   1
  -8   6   1   28080    1780  -2
   8  -6   1   28080    1780   1
   9  -6   1   16467    3057   1
  -6  -5   1   15736    1184   1
  -5  -5   1     565     714   1
   4   5  -7   30380    2159  -2
  -4  -5   1   30380    2159   1
  -3  -5   1  213411    6239   1
  -2  -5   1  130992    3079   1
  -1  -5   1   11305     533   1
   0   5  -4  100595    2448  -2
   0  -5   1  100595    2448   1
   1  -5   1   29685    1026   1
   2  -5   1    6804     771   1
   3  -5   1   40785    1945   1
  -4   5  -1  214170    5010  -2
   4  -5   1  214170    5010   1
   5  -5   1   41825    1615   1
   6  -5   1   21481    1290   1
   7  -5   1   97695    3965   1
  -8   5   2   50657    3393  -2
   8  -5   1   50657    3393   1
   9  -5   1    2446    1277   1
  -6  -4   1   27352    1457   1
  -5  -4   1   44264    1846   1
   4   4  -6   51464    1738  -2
  -4  -4   1   51464    1738   1
  -3  -4   1  199543    5321   1
  -2  -4   1   17462     638   1
  -1  -4   1    3722     275   1
   0   4  -3   38344     859  -2
   0  -4   1   38344     859   1
   1  -4   1  295051    5050   1
   2  -4   1  258610    4657   1
   3  -4   1    5313     309   1
  -4   4   0  412028    8802  -2
   4  -4   1  412028    8802   1
   5  -4   1  111234    2717   1
   6  -4   1   12747     781   1
   7  -4   1    5888    1022   1
  -8   4   3   68939    6831  -2
   8  -4   1   68939    6831   1
   9  -4   1   41255    3619   1
  -7  -3   1     434     635   1
  -6  -3   1   73152    2680   1
  -5  -3   1  113998    5592   1
   4   3  -5   37635    3152  -2
  -4  -3   1   37635    3152   1
  -3  -3   1    6285     360   1
  -2  -3   1  123075    2530   1
  -1  -3   1  329830    6051   1
   0   3  -2   13365     365  -2
   0  -3   1   13365     365   1
   1  -3   1  214620    3675   1
   2  -3   1  309735    5481   1
   3  -3   1    1054     205   1
  -4   3   1   21763     657  -2
   4  -3   1   21763     657   1
   5  -3   1   64711    2785   1
   6  -3   1  168471    4521   1
   7  -3   1    1531     602   1
  -8   3   4   58483    2725  -2
   8  -3   1   58483    2725   1
   9  -3   1   31449    2050   1
   8   2  -7   47917    2504  -2
  -8  -2   1   47917    2504   1
  -7  -2   1     512     538   1
  -6  -2   1   31746    1301   1
  -5  -2   1   90692    2834   1
   4   2  -4  100555    3517  -2
  -4  -2   1  100555    3517   1
  -2  -2   1  290360    5551   1
  -1  -2   1  554013   10158   1
   0   2  -1  250064    4577  -2
   0  -2   1  250064    4577   1
   1  -2   1    4810     195   1
   2  -2   1  173052    3002   1
   3  -2   1  145499    2977   1
  -4   2   2   14914     613  -2
   4  -2   1   14914     613   1
   5  -2   1  108968    2767   1
   6  -2   1  120174    3038   1
   7  -2   1   15283    1050   1
  -8   2   5    4186     895  -2
   8  -2   1    4186     895   1
   9  -2   1   52115    2870   1
   8   1  -6   52705    2366  -2
  -8  -1   1   52705    2366   1
  -7  -1   1  105198    3577   1
  -6  -1   1   32425    1255   1
  -5  -1   1   15822     885   1
   4   1  -3  123259    3216  -2
  -4  -1   1  123259    3216   1
  -3  -1   1  112366    2555   1
  -2  -1   1  137878    4363   1
  -1  -1   1  446889    8953   1
   0   1   0  101193    2274  -2
   0  -1   1  101193    2274   1
   1  -1   1    3696     141   1
   2  -1   1  152020    3096   1
   3  -1   1  101800    2539   1
  -4   1   3   30546     751  -2
   4  -1   1   30546     751   1
   5  -1   1   17396     712   1
   6  -1   1  105691    2694   1
   7  -1   1  102919    4157   1
  -8   1   6    3844     936  -2
   8  -1   1    3844     936   1
   9  -1   1   44083    2427   1
  -9   0   1     195    1123   1
   8   0  -5   51906    2362  -2
  -8   0   1   51906    2362   1
  -7   0   1  147744    4108   1
  -6   0   1   37942    1710   1
  -5   0   1    6579     314   1
   4   0  -2  217319    5673  -2
  -4   0   1  217319    5673   1
  -3   0   1  274879    6595   1
  -2   0   1   11624     308   1
  -1   0   1   48617    1170   1
   0   0   1  933284   24182  -2
   0   0   1  933284   24182   1
   1   0   1  244147    4368   1
   2   0   1   32169     703   1
   3   0   1  103058    2047   1
  -4   0   4  215745    4396  -2
   4   0   1  215745    4396   1
   5   0   1   29275     871   1
   6   0   1   18990    1546   1
   7   0   1   45633    2200   1
  -8   0   7   26068    2090  -2
   8   0   1   26068    2090   1
  -9   1   1    5889     913   1
   8  -1  -4     -90     632  -2
  -8   1   1     -90     632   1
  -7   1   1   50906    1708   1
  -6   1   1   99626    2574   1
  -5   1   1    1947     226   1
   4  -1  -1  226700    4684  -2
  -4   1   1  226700    4684   1
  -3   1   1  299061    6844   1
  -2   1   1   49852    1178   1
  -1   1   1    8498     203   1
   0  -1   2  361284    6142  -2
   0   1   1  361284    6142   1
   1   1   1  264418    5375   1
   2   1   1  152130    3123   1
   3   1   1   16555     601   1
  -4  -1   5  245827    5962  -2
   4   1   1  245827    5962   1
   5   1   1   70889    1778   1
   6   1   1     540     662   1
   7   1   1   53140    2484   1
  -8  -1   8   65843    3015  -2
   8   1   1   65843    3015   1
  -9   2   1   88846    4472   1
   8  -2  -3   29860    2904  -2
  -8   2   1   29860    2904   1
  -7   2   1   78177    2527   1
  -6   2   1  118508    2671   1
  -5   2   1  136759    3022   1
   4  -2   0   50786    1100  -2
  -4   2   1   50786    1100   1
  -3   2   1   29596    1335   1
  -2   2   1  187702    3327   1
  -1   2   1  215587    3827   1
   0  -2   3   40629     877  -2
   0   2   1   40629     877   1
   1   2   1  235712    4243   1
   2   2   1  168716    4554   1
   3   2   1   50430    5740   1
  -4  -2   6   52659    2173  -2
   4   2   1   52659    2173   1
   5   2   1   61736    2752   1
   6   2   1    4401     760   1
   7   2   1    9834    1008   1
  -9   3   1   70383    3631   1
   8  -3  -2   21580    1602  -2
  -8   3   1   21580    1602   1
  -7   3   1    2532     603   1
  -6   3   1   57517    1640   1
  -5   3   1  335148    7185   1
   4  -3   1   44903    1290  -2
  -4   3   1   44903    1290   1
  -3   3   1   14273     388   1
  -2   3   1  123509    2576   1
  -1   3   1   97640    1774   1
   0  -3   4    5737     262  -2
   0   3   1    5737     262   1
   1   3   1   54735    1352   1
   2   3   1  275352    7231   1
   3   3   1   64583    1620   1
  -4  -3   7   31680    1814  -2
   4   3   1   31680    1814   1
   5   3   1   57531    2481   1
   6   3   1   62824    2532   1
  -9   4   1   20852    1675   1
   8  -4  -1   74021    4674  -2
  -8   4   1   74021    4674   1
  -7   4   1   32263    1552   1
  -6   4   1   32997    1408   1
  -5   4   1  107609    4406   1
   4  -4   2   74800    1748  -2
  -4   4   1   74800    1748   1
  -3   4   1   48402    1098   1
  -2   4   1   56610    1381   1
  -1   4   1  201563    4171   1
   0  -4   5  112797    2654  -2
   0   4   1  112797    2654   1
   1   4   1   40908    1126   1
   2   4   1  120357    3050   1
   3   4   1   12945    1110   1
  -4  -4   8   18822    1207  -2
   4   4   1   18822    1207   1
   5   4   1   12112    2203   1
   6   4   1   57837    2466   1
  -9   5   1    7027    1347   1
   8  -5   0   48060    2613  -2
  -8   5   1   48060    2613   1
  -7   5   1   51935    2189   1
  -6   5   1    1645     559   1
  -5   5   1   52511    1590   1
   4  -5   3  207883    4861  -2
  -4   5   1  207883    4861   1
  -3   5   1  123609    3065   1
  -2   5   1   23421     757   1
  -1   5   1  167425    3944   1
   0  -5   6   82643    2201  -2
   0   5   1   82643    2201   1
   1   5   1   18622     791   1
   2   5   1    1934     570   1
   3   5   1   92411    2973   1
  -4  -5   9  103272    3745  -2
   4   5   1  103272    3745   1
   5   5   1    -412     862   1
  -9   6   1    4837    1369   1
   8  -6   1    6192    1276  -2
  -8   6   1    6192    1276   1
  -7   6   1   84169    3553   1
  -6   6   1   57743    2255   1
  -5   6   1    4710     537   1
   4  -6   4   83561    2162  -2
  -4   6   1   83561    2162   1
  -3   6   1  144034    3948   1
  -2   6   1   21339    1457   1
  -1   6   1    1327     526   1
   0  -6   7   46002    1607  -2
   0   6   1   46002    1607   1
   1   6   1   53933    1960   1
   2   6   1    5476     791   1
   3   6   1   50798    2281   1
  -4  -6  10   36352    1936  -2
   4   6   1   36352    1936   1
   8  -7   2   10201    1601  -2
  -8   7   1   10201    1601   1
  -7   7   1   53847    3352   1
  -6   7   1   97461    3487   1
  -5   7   1   21893    1266   1
   4  -7   5   40890    1439  -2
  -4   7   1   40890    1439   1
  -3   7   1   56183    1786   1
  -2   7   1   71600    2087   1
  -1   7   1   25404    1260   1
   0  -7   8   49390    2052  -2
   0   7   1   49390    2052   1
   1   7   1   46110    1865   1
   2   7   1   19755    1444   1
   8  -8   3   10808    1706  -2
  -8   8   1   10808    1706   1
  -7   8   1    8650    1089   1
  -6   8   1   27143    1518   1
  -5   8   1   20367    1309   1
   4  -8   6     327     856  -2
  -4   8   1     327     856   1
  -3   8   1   35355    1613   1
  -2   8   1   85527    2688   1
  -1   8   1   11835    1047   1
   0  -8   9   19571    1300  -2
   0   8   1   19571    1300   1
   1   8   1   54252    3006   1
  -6   9   1   15631    1461   1
  -5   9   1   53536    2701   1
   4  -9   7   19629    1555  -2
  -4   9   1   19629    1555   1
  -3   9   1     581    1034   1
  -2   9   1   20128    1260   1
   0   9  -7    -126     932  -2
   0  -9   2    -126     932   1
   1  -9   2   57052    2069   1
   2  -9   2   38438    3235   1
   3  -9   2     838     832   1
  -4   9  -4   30013    1545  -2
   4  -9   2   30013    1545   1
   5  -9   2   35684    2085   1
   6  -9   2   29939    2302   1
   7  -9   2    1262    1132   1
  -2  -8   2   30024    1640   1
  -1  -8   2   45648    2122   1
   0   8  -6    5531     773  -2
   0  -8   2    5531     773   1
   1  -8   2   20592    1113   1
   2  -8   2   12524     975   1
   3  -8   2   33482    1485   1
  -4   8  -3    1491     654  -2
   4  -8   2    1491     654   1
   5  -8   2   69490    2242   1
   6  -8   2   87453    3303   1
   7  -8   2    3831    1001   1
  -8   8   0   14494    2209  -2
   8  -8   2   14494    2209   1
   4   7  -8   61332    2559  -2
  -4  -7   2   61332    2559   1
  -3  -7   2   16671    1218   1
  -2  -7   2    5734     858   1
  -1  -7   2   79752    2629   1
   0   7  -5   73014    2251  -2
   0  -7   2   73014    2251   1
   1  -7   2   27725    1045   1
   2  -7   2   58743    1869   1
   3  -7   2  219734    5934   1
  -4   7  -2   24824    1110  -2
   4  -7   2   24824    1110   1
   5  -7   2    4755     688   1
   6  -7   2   56820    2872   1
   7  -7   2   68101    3133   1
  -8   7   1   13322    1471  -2
   8  -7   2   13322    1471   1
  -5  -6   2   32870    1714   1
   4   6  -7   94154    3410  -2
  -4  -6   2   94154    3410   1
  -3  -6   2   54868    2178   1
  -2  -6   2    2760     580   1
  -1  -6   2   87870    2392   1
   0   6  -4  193905    4489  -2
   0  -6   2  193905    4489   1
   1  -6   2   93802    2307   1
   2  -6   2   53260    2103   1
   3  -6   2  129363    3309   1
  -4   6  -1  158685    4017  -2
   4  -6   2  158685    4017   1
   5  -6   2   18696     925   1
   6  -6   2  100731    3615   1
   7  -6   2  132782    4674   1
  -8   6   2   42212    2293  -2
   8  -6   2   42212    2293   1
   9  -6   2    -167    1290   1
  -6  -5   2   28727    1995   1
  -5  -5   2    1879     679   1
   4   5  -6   29277    1942  -2
  -4  -5   2   29277    1942   1
  -3  -5   2   75437    2965   1
  -2  -5   2   64052    1594   1
  -1  -5   2    8412     425   1
   0   5  -3  130150    2862  -2
   0  -5   2  130150    2862   1
   1  -5   2   86016    1850   1
   2  -5   2    2429     527   1
   3  -5   2   52718    2376   1
  -4   5   0  101979    2299  -2
   4  -5   2  101979    2299   1
   5  -5   2    3698     524   1
   6  -5   2   26011    1238   1
   7  -5   2   57953    2661   1
  -8   5   3   63381    2911  -2
   8  -5   2   63381    2911   1
   9  -5   2    4272    1196   1
  -7  -4   2   21781    1711   1
  -6  -4   2   44719    2718   1
  -5  -4   2   42926    1581   1
   4   4  -5    6786     493  -2
  -4  -4   2    6786     493   1
  -3  -4   2  102851    3036   1
  -2  -4   2   66390    1597   1
  -1  -4   2   13313     444   1
   0   4  -2   16594     484  -2
   0  -4   2   16594     484   1
   1  -4   2  199188    3550   1
   2  -4   2   48476    1007   1
   3  -4   2   10384     813   1
  -4   4   1   99227    2393  -2
   4  -4   2   99227    2393   1
   5  -4   2  150177    4530   1
   6  -4   2   27957    1299   1
   7  -4   2    3098     785   1
  -8   4   4   64631    3009  -2
   8  -4   2   64631    3009   1
   9  -4   2   32344    2059   1
  -7  -3   2      44     791   1
  -6  -3   2   20140    1563   1
  -5  -3   2  121793    3681   1
   4   3  -4   60155    2429  -2
  -4  -3   2   60155    2429   1
  -3  -3   2   16683     462   1
  -2  -3   2  183853    3722   1
  -1  -3   2  330796    5818   1
   0   3  -1   19660     445  -2
   0  -3   2   19660     445   1
   1  -3   2  130150    2339   1
   2  -3   2  239478    4426   1
   3  -3   2  124198    2413   1
  -4   3   2   71529    2091  -2
   4  -3   2   71529    2091   1
   5  -3   2  121765    3112   1
   6  -3   2  140067    3821   1
   7  -3   2   15373    1108   1
  -8   3   5   76541    3400  -2
   8  -3   2   76541    3400   1
   9  -3   2   63200    3085   1
   8   2  -6   48704    2436  -2
  -8  -2   2   48704    2436   1
  -7  -2   2   20589    1424   1
  -6  -2   2   39054    1306   1
  -5  -2   2  213562    4877   1
   4   2  -3  129662    2947  -2
  -4  -2   2  129662    2947   1
  -3  -2   2   53796    1463   1
  -2  -2   2  419537    8838   1
  -1  -2   2  416878    7336   1
   0   2   0  136193    2517  -2
   0  -2   2  136193    2517   1
   1  -2   2   16608    1317   1
   2  -2   2  551546   10509   1
   3  -2   2  379731    8042   1
  -4   2   3   59418    1423  -2
   4  -2   2   59418    1423   1
   5  -2   2   33621    1438   1
   6  -2   2  125849    3189   1
   7  -2   2    5356     693   1
  -8   2   6   23552    1727  -2
   8  -2   2   23552    1727   1
   9  -2   2   42560    2422   1
   8   1  -5   65270    2859  -2
  -8  -1   2   65270    2859   1
  -7  -1   2   33871    1643   1
  -6  -1   2     678     182   1
  -5  -1   2   56482    1350   1
   4   1  -2   76547    2075  -2
  -4  -1   2   76547    2075   1
  -3  -1   2  108048    5802   1
  -2  -1   2    2431     251   1
  -1  -1   2  344739    6317   1
   1  -1   2   46579     817   1
   2  -1   2   97805    1935   1
   3  -1   2  232177    4515   1
  -4   1   4   45575    1262  -2
   4  -1   2   45575    1262   1
   5  -1   2   19317     734   1
   6  -1   2   71560    2338   1
   7  -1   2   40558    2090   1
  -8   1   7    4631    1049  -2
   8  -1   2    4631    1049   1
  -9   0   2    2203    1031   1
   8   0  -4   15891     892  -2
  -8   0   2   15891     892   1
  -7   0   2  119135    3385   1
  -6   0   2  102551    2744   1
  -5   0   2     111     140   1
   4   0  -1  155318    4325  -2
  -4   0   2  155318    4325   1
  -3   0   2  251851    6062   1
  -2   0   2    1728     101   1
  -1   0   2  101635    3069   1
   0   0   2    3952     161  -2
   0   0   2    3952     161   1
   1   0   2  924703   18502   1
   2   0   2     252     158   1
   3   0   2  133147    3325   1
  -4   0   5   73899    1720  -2
   4   0   2   73899    1720   1
   5   0   2    6950     502   1
   6   0   2   13492    1135   1
   7   0   2   34756    1932   1
  -8   0   8   41561    2287  -2
   8   0   2   41561    2287   1
  -9   1   2   29541    2402   1
   8  -1  -3    1417     536  -2
  -8   1   2    1417     536   1
  -7   1   2   74871    2476   1
  -6   1   2  122465    2908   1
  -5   1   2    6770     303   1
   4  -1   0   48947    1111  -2
  -4   1   2   48947    1111   1
  -3   1   2  187451    3239   1
  -2   1   2  252597    4457   1
  -1   1   2    5593     183   1
   0  -1   3 1384891   24454  -2
   0   1   2 1384891   24454   1
   1   1   2  895208   15768   1
   2   1   2   29741     949   1
   3   1   2    7637     703   1
  -4  -1   6  134940    3196  -2
   4   1   2  134940    3196   1
   5   1   2  155985    4635   1
   6   1   2   38316    1986   1
   7   1   2   21139    1575   1
  -9   2   2   61893    2838   1
   8  -2  -2   13716    1141  -2
  -8   2   2   13716    1141   1
  -7   2   2   90371    2654   1
  -6   2   2  120362    2709   1
  -5   2   2   78289    1726   1
   4  -2   1   18529     473  -2
  -4   2   2   18529     473   1
  -3   2   2  266185    5143   1
  -2   2   2  502278    8500   1
  -1   2   2   54780    1225   1
   0  -2   4   68610    1216  -2
   0   2   2   68610    1216   1
   1   2   2  119686    2691   1
   2   2   2   65775    1573   1
   3   2   2    2145     473   1
  -4  -2   7  115470    2896  -2
   4   2   2  115470    2896   1
   5   2   2  124496    3806   1
   6   2   2   11536    1042   1
   7   2   2   11791    1240   1
  -9   3   2   50494    2609   1
   8  -3  -1   19499    1556  -2
  -8   3   2   19499    1556   1
  -7   3   2     644     445   1
  -6   3   2   19564     823   1
  -5   3   2  225676    4960   1
   4  -3   2   64167    1634  -2
  -4   3   2   64167    1634   1
  -3   3   2  124987    2397   1
  -2   3   2  171399    3117   1
  -1   3   2  181637    3408   1
   0  -3   5   11815     405  -2
   0   3   2   11815     405   1
   1   3   2    4638     335   1
   2   3   2   46572    1439   1
   3   3   2   42644    1311   1
  -4  -3   8   30024    3405  -2
   4   3   2   30024    3405   1
   5   3   2   30099    2377   1
   6   3   2   25706    1720   1
  -9   4   2   15841    1749   1
   8  -4   0   90976    4012  -2
  -8   4   2   90976    4012   1
  -7   4   2   92371    3363   1
  -6   4   2    1771     411   1
  -5   4   2   94809    2875   1
   4  -4   3   53039    1478  -2
  -4   4   2   53039    1478   1
  -3   4   2   37938    2055   1
  -2   4   2    7853     430   1
  -1   4   2   77155    1827   1
   0  -4   6   50515    1372  -2
   0   4   2   50515    1372   1
   1   4   2     219     323   1
   2   4   2   98971    2796   1
   3   4   2   77543    2533   1
  -4  -4   9   18999    1354  -2
   4   4   2   18999    1354   1
   5   4   2    6832    1003   1
  -9   5   2    1316    1124   1
   8  -5   1   58762    3014  -2
  -8   5   2   58762    3014   1
  -7   5   2   93910    3454   1
  -6   5   2   16402    1123   1
  -5   5   2   83099    2292   1
   4  -5   4  219170    5088  -2
  -4   5   2  219170    5088   1
  -3   5   2  125413    3032   1
  -2   5   2     316     379   1
  -1   5   2   90603    2280   1
   0  -5   7  143873    3659  -2
   0   5   2  143873    3659   1
   1   5   2   35188    1345   1
   2   5   2   10271     832   1
   3   5   2   72844    2846   1
  -4  -5  10   54502    2416  -2
   4   5   2   54502    2416   1
  -9   6   2    5057    1361   1
   8  -6   2   25388    2229  -2
  -8   6   2   25388    2229   1
  -7   6   2   87853    3396   1
  -6   6   2   10229     862   1
  -5   6   2   19182    1271   1
   4  -6   5   45347    1444  -2
  -4   6   2   45347    1444   1
  -3   6   2  108068    3023   1
  -2   6   2   20996    1473   1
  -1   6   2   41802    1509   1
   0  -6   8  141244    4339  -2
   0   6   2  141244    4339   1
   1   6   2   78285    2668   1
   2   6   2     -69     716   1
   3   6   2   27183    1728   1
   8  -7   3     624    1232  -2
  -8   7   2     624    1232   1
  -7   7   2   28725    1513   1
  -6   7   2   61386    2342   1
  -5   7   2   75466    2828   1
   4  -7   6    7972     807  -2
  -4   7   2    7972     807   1
  -3   7   2   54482    1679   1
  -2   7   2   15775    1108   1
  -1   7   2    4546     813   1
   0  -7   9   18649    1769  -2
   0   7   2   18649    1769   1
   1   7   2   18701    1246   1
   2   7   2    5346    1136   1
  -7   8   2    1096     913   1
  -6   8   2   43701    2330   1
  -5   8   2   44552    1926   1
   4  -8   7    5576    1034  -2
  -4   8   2    5576    1034   1
  -3   8   2    5467     971   1
  -2   8   2   62745    2204   1
  -1   8   2   48758    2109   1
   0  -8  10    7742    1041  -2
   0   8   2    7742    1041   1
   2 -10   3    6994    1133   1
   3 -10   3   16780    1298   1
  -4  10  -4   53274    3535  -2
   4 -10   3   53274    3535   1
  -1  -9   3   31425    1962   1
   0   9  -6     -15     994  -2
   0  -9   3     -15     994   1
   1  -9   3   34926    1994   1
   2  -9   3   56151    2244   1
   3  -9   3   28167    1526   1
  -4   9  -3   11297    1068  -2
   4  -9   3   11297    1068   1
   5  -9   3   60149    2545   1
   6  -9   3   26680    1820   1
   7  -9   3     786    1174   1
  -3  -8   3     874     986   1
  -2  -8   3   33167    1671   1
  -1  -8   3   63415    2368   1
   0   8  -5   26145    1270  -2
   0  -8   3   26145    1270   1
   1  -8   3   23273    1171   1
   2  -8   3   71679    2533   1
   3  -8   3   42383    2442   1
  -4   8  -2     147     682  -2
   4  -8   3     147     682   1
   5  -8   3   73075    2344   1
   6  -8   3   84939    2912   1
   7  -8   3   26788    1983   1
  -8   8   1    4468    1263  -2
   8  -8   3    4468    1263   1
   4   7  -7   39431    1790  -2
  -4  -7   3   39431    1790   1
  -3  -7   3    8325     910   1
  -2  -7   3    1467     715   1
  -1  -7   3   84865    2539   1
   0   7  -4   91900    2713  -2
   0  -7   3   91900    2713   1
   1  -7   3    3602     532   1
   2  -7   3   20264    1376   1
   3  -7   3  117239    3436   1
  -4   7  -1    5281     677  -2
   4  -7   3    5281     677   1
   5  -7   3   47932    2712   1
   6  -7   3   83155    3397   1
   7  -7   3   83993    3234   1
  -8   7   2    1665    1116  -2
   8  -7   3    1665    1116   1
  -5  -6   3    6455    1471   1
   4   6  -6   45242    1912  -2
  -4  -6   3   45242    1912   1
  -3  -6   3   67621    2321   1
  -2  -6   3    3866     545   1
  -1  -6   3  162501    4446   1
   0   6  -3  190091    4147  -2
   0  -6   3  190091    4147   1
   1  -6   3  109538    2640   1
   2  -6   3    7119     928   1
   3  -6   3  125017    3225   1
  -4   6   0   84721    2506  -2
   4  -6   3   84721    2506   1
   5  -6   3   39881    1529   1
   6  -6   3   15231    1136   1
   7  -6   3   88836    3356   1
  -8   6   3   44756    2415  -2
   8  -6   3   44756    2415   1
  -6  -5   3   55750    2710   1
  -5  -5   3    2276     611   1
   4   5  -5   44481    1581  -2
  -4  -5   3   44481    1581   1
  -3  -5   3   54623    2260   1
  -2  -5   3   59697    2470   1
  -1  -5   3     697     246   1
   0   5  -2  155190    3382  -2
   0  -5   3  155190    3382   1
   1  -5   3  160574    3507   1
   2  -5   3    3593     443   1
   3  -5   3   75926    3339   1
  -4   5   1  145209    3944  -2
   4  -5   3  145209    3944   1
   5  -5   3   92071    2526   1
   6  -5   3     497     639   1
   7  -5   3   76855    2640   1
  -8   5   4   83701    3198  -2
   8  -5   3   83701    3198   1
   9  -5   3    7320    1292   1
  -7  -4   3   24520    2052   1
  -6  -4   3   72858    2711   1
  -5  -4   3   38279    1553   1
   4   4  -4   15103     741  -2
  -4  -4   3   15103     741   1
  -3  -4   3  147642    3999   1
  -2  -4   3  358916    7213   1
  -1  -4   3   13329     488   1
   0   4  -1   28010     728  -2
   0  -4   3   28010     728   1
   1  -4   3   91971    1782   1
   2  -4   3  116450    2453   1
   3  -4   3   67040    1836   1
  -4   4   2   41849    1399  -2
   4  -4   3   41849    1399   1
   5  -4   3  165373    4924   1
   6  -4   3     481     555   1
   7  -4   3   50438    2083   1
  -8   4   5   66312    3105  -2
   8  -4   3   66312    3105   1
   9  -4   3   32968    2249   1
   8   3  -6   33960    1967  -2
  -8  -3   3   33960    1967   1
  -7  -3   3     -96     552   1
  -6  -3   3   34513    1576   1
  -5  -3   3  147338    3667   1
   4   3  -3   79227    1947  -2
  -4  -3   3   79227    1947   1
  -3  -3   3   91341    2255   1
  -2  -3   3   38871     824   1
  -1  -3   3   14376     386   1
   0   3   0    2836     207  -2
   0  -3   3    2836     207   1
   1  -3   3  296668    5462   1
   2  -3   3  550369   10822   1
   3  -3   3  141185    3223   1
  -4   3   3  129014    3258  -2
   4  -3   3  129014    3258   1
   5  -3   3  125502    3248   1
   6  -3   3   23993    1183   1
   7  -3   3   14767    1502   1
  -8   3   6   32167    2070  -2
   8  -3   3   32167    2070   1
   8   2  -5   49882    1951  -2
  -8  -2   3   49882    1951   1
  -7  -2   3   20701    1005   1
  -6  -2   3   39286    1447   1
  -5  -2   3  192049    5621   1
   4   2  -2  131846    4963  -2
  -4  -2   3  131846    4963   1
  -3  -2   3    8758     596   1
  -2  -2   3    9991     267   1
  -1  -2   3  241086    4247   1
   0   2   1  101114    1984  -2
   0  -2   3  101114    1984   1
   1  -2   3  101509    1782   1
   2  -2   3  309395    5490   1
   3  -2   3  121546    3203   1
  -4   2   4   16797     630  -2
   4  -2   3   16797     630   1
   5  -2   3    6484     635   1
   6  -2   3  101265    3529   1
   7  -2   3   38859    1750   1
  -8   2   7   12618    1378  -2
   8  -2   3   12618    1378   1
  -9  -1   3    1142     778   1
   8   1  -4   78718    2935  -2
  -8  -1   3   78718    2935   1
  -7  -1   3   17309    1273   1
  -5  -1   3   64373    2156   1
   4   1  -1  117529    9738  -2
  -4  -1   3  117529    9738   1
  -3  -1   3   78166    4598   1
  -2  -1   3   15430    1568   1
  -1  -1   3  799216   13574   1
   0   1   2  822168   13769  -2
   0  -1   3  822168   13769   1
   1  -1   3    5786     217   1
   2  -1   3   29565     657   1
   3  -1   3  198543    3755   1
  -4   1   5   95192    2177  -2
   4  -1   3   95192    2177   1
   5  -1   3     211     366   1
   6  -1   3   36184    1797   1
   7  -1   3   43331    2287   1
  -8   1   8   12352    1377  -2
   8  -1   3   12352    1377   1
  -9   0   3    3262     992   1
   8   0  -3   25222    1337  -2
  -8   0   3   25222    1337   1
  -7   0   3  104657    3006   1
  -6   0   3  144696    3947   1
  -5   0   3    3690     201   1
   4   0   0   97544    2297  -2
  -4   0   3   97544    2297   1
  -3   0   3  288659    6142   1
  -2   0   3   68096    1445   1
   0   0   3    5316     214  -2
   0   0   3    5316     214   1
   1   0   3  113592    7418   1
   2   0   3     108     207   1
   3   0   3  133864    3165   1
  -4   0   6  114244    3338  -2
   4   0   3  114244    3338   1
   5   0   3   25843    1498   1
   6   0   3   23489    4571   1
   7   0   3   67810    3148   1
  -9   1   3   31143    2101   1
   8  -1  -2    4371     572  -2
  -8   1   3    4371     572   1
  -7   1   3   66493    2279   1
  -6   1   3  118768    3320   1
  -5   1   3   29132     933   1
   4  -1   1   65689    1616  -2
  -4   1   3   65689    1616   1
  -3   1   3  503814    8885   1
  -2   1   3  283065    5224   1
  -1   1   3   25784     525   1
   0  -1   4  238780    4422  -2
   0   1   3  238780    4422   1
   1   1   3  240755    4496   1
   2   1   3   16744    1263   1
   3   1   3   16995     924   1
  -4  -1   7  118670    3599  -2
   4   1   3  118670    3599   1
   5   1   3  108631    3763   1
   6   1   3    5522    1009   1
   7   1   3    7577    1210   1
  -9   2   3   33598    2301   1
   8  -2  -1   50579    2484  -2
  -8   2   3   50579    2484   1
  -7   2   3    1300     516   1
  -6   2   3  121178    2592   1
  -5   2   3   22020     696   1
   4  -2   2   48434    1158  -2
  -4   2   3   48434    1158   1
  -3   2   3  182908    4244   1
  -2   2   3  173568    2933   1
  -1   2   3   29638     649   1
   0  -2   5   14535     890  -2
   0   2   3   14535     890   1
   1   2   3  113375    2394   1
   2   2   3  154704    3439   1
   3   2   3    8390     533   1
  -4  -2   8   77377    2505  -2
   4   2   3   77377    2505   1
   5   2   3   86441    2825   1
   6   2   3   27378    1635   1
  -9   3   3   62056    3000   1
   8  -3   0  102549    4395  -2
  -8   3   3  102549    4395   1
  -7   3   3    3537     520   1
  -6   3   3   49994    1460   1
  -5   3   3   91211    2267   1
   4  -3   3  152386    4149  -2
  -4   3   3  152386    4149   1
  -3   3   3    1654     238   1
  -2   3   3  115431    2326   1
  -1   3   3  234512    4596   1
   0  -3   6   31682     834  -2
   0   3   3   31682     834   1
   1   3   3   41557    1296   1
   2   3   3   50560    1477   1
   3   3   3   48197    1722   1
  -4  -3   9   23385    1826  -2
   4   3   3   23385    1826   1
   5   3   3   36288    1863   1
   6   3   3   23741    2544   1
  -9   4   3   27468    1954   1
   8  -4   1   78919    3596  -2
  -8   4   3   78919    3596   1
  -7   4   3   38944    1625   1
  -6   4   3    2366     536   1
  -5   4   3  128749    4938   1
   4  -4   4  134331    3248  -2
  -4   4   3  134331    3248   1
  -3   4   3   13302    1177   1
  -2   4   3   23663     774   1
  -1   4   3  115766    2818   1
   0  -4   7   61202    1554  -2
   0   4   3   61202    1554   1
   1   4   3    8452     595   1
   2   4   3   60156    2065   1
   3   4   3   85785    2792   1
  -4  -4  10    3814     923  -2
   4   4   3    3814     923   1
   5   4   3   14212    1268   1
  -9   5   3     355    1088   1
   8  -5   2   74382    3535  -2
  -8   5   3   74382    3535   1
  -7   5   3  113324    4073   1
  -6   5   3   38846    1780   1
  -5   5   3   11971    1046   1
   4  -5   5   90600    2279  -2
  -4   5   3   90600    2279   1
  -3   5   3   63565    2229   1
  -2   5   3    1586     500   1
  -1   5   3   91475    2335   1
   0  -5   8  154310    4260  -2
   0   5   3  154310    4260   1
   1   5   3   11088     861   1
   2   5   3   17510    1165   1
   3   5   3   11360    1326   1
  -4  -5  11   15847    1345  -2
   4   5   3   15847    1345   1
  -9   6   3    -478    1218   1
   8  -6   3   30603    2245  -2
  -8   6   3   30603    2245   1
  -7   6   3   68418    3025   1
  -6   6   3   38052    1767   1
  -5   6   3    1075     645   1
   4  -6   6   46202    1486  -2
  -4   6   3   46202    1486   1
  -3   6   3   87613    2859   1
  -2   6   3   17909    1161   1
  -1   6   3   56512    2078   1
   0  -6   9   71035    2482  -2
   0   6   3   71035    2482   1
   1   6   3   46386    1898   1
   2   6   3   21648    1549   1
   8  -7   4    1411    1404  -2
  -8   7   3    1411    1404   1
  -7   7   3   16934    2003   1
  -6   7   3   63292    2801   1
  -5   7   3   47056    1916   1
   4  -7   7    6514    1235  -2
  -4   7   3    6514    1235   1
  -3   7   3   79360    2483   1
  -2   7   3   20523    1196   1
  -1   7   3    4619     861   1
   0  -7  10   10700    1075  -2
   0   7   3   10700    1075   1
   1   7   3   45250    2546   1
  -6   8   3   68394    2775   1
  -5   8   3   54378    2631   1
   4  -8   8    4811    1044  -2
  -4   8   3    4811    1044   1
  -3   8   3    2356     975   1
  -2   8   3   26080    1622   1
   2 -10   4   32392    2043   1
   3 -10   4    4006    1004   1
  -4  10  -3   38915    2177  -2
   4 -10   4   38915    2177   1
  -1  -9   4   25665    1783   1
   0   9  -5     322     995  -2
   0  -9   4     322     995   1
   1  -9   4   37403    1817   1
   2  -9   4   70850    2592   1
   3  -9   4   17140    1264   1
  -4   9  -2   32321    2355  -2
   4  -9   4   32321    2355   1
   5  -9   4  112586    4157   1
   6  -9   4   44617    2489   1
  -3  -8   4    7024    1116   1
  -2  -8   4   71306    2958   1
  -1  -8   4  135303    4836   1
   0   8  -4   66957    2173  -2
   0  -8   4   66957    2173   1
   1  -8   4   32046    1517   1
   2  -8   4  116909    3757   1
   3  -8   4   21248    1552   1
  -4   8  -1     583     762  -2
   4  -8   4     583     762   1
   5  -8   4   24799    1898   1
   6  -8   4   75091    2702   1
   7  -8   4   33440    2207   1
   4   7  -6   37629    1727  -2
  -4  -7   4   37629    1727   1
  -3  -7   4    9242     907   1
  -2  -7   4   12392     943   1
  -1  -7   4   67562    2098   1
   0   7  -3   58559    2224  -2
   0  -7   4   58559    2224   1
   1  -7   4    8177     791   1
   2  -7   4    2255     591   1
   3  -7   4   56300    1847   1
  -4   7   0   55382    2159  -2
   4  -7   4   55382    2159   1
   5  -7   4   30758    1577   1
   6  -7   4   92579    3588   1
   7  -7   4   34926    2002   1
  -8   7   3     688    1010  -2
   8  -7   4     688    1010   1
  -5  -6   4    8648    2102   1
   4   6  -5   68325    2653  -2
  -4  -6   4   68325    2653   1
  -3  -6   4   95664    3383   1
  -2  -6   4   16941     787   1
  -1  -6   4   40524    1076   1
   0   6  -2  106044    2404  -2
   0  -6   4  106044    2404   1
   1  -6   4  110618    2684   1
   2  -6   4   19648    1204   1
   3  -6   4  146341    3753   1
  -4   6   1   83697    2495  -2
   4  -6   4   83697    2495   1
   5  -6   4   11063    1007   1
   6  -6   4    3800     922   1
   7  -6   4   76521    2703   1
  -8   6   4   45381    2015  -2
   8  -6   4   45381    2015   1
  -6  -5   4   61505    2645   1
  -5  -5   4    5666     705   1
   4   5  -4   92533    2660  -2
  -4  -5   4   92533    2660   1
  -3  -5   4   89501    2565   1
  -2  -5   4   40059    2106   1
  -1  -5   4    3182     279   1
   0   5  -1  208062    4493  -2
   0  -5   4  208062    4493   1
   1  -5   4  349179    7448   1
   2  -5   4   47434    1278   1
   3  -5   4   78653    3599   1
  -4   5   2  212100    5266  -2
   4  -5   4  212100    5266   1
   5  -5   4  115367    3330   1
   6  -5   4     -23     646   1
   7  -5   4   80039    2739   1
  -8   5   5   78816    3595  -2
   8  -5   4   78816    3595   1
  -7  -4   4   28400    1356   1
  -6  -4   4  117836    3694   1
  -5  -4   4   46509    2073   1
   4   4  -3    6045     487  -2
  -4  -4   4    6045     487   1
  -3  -4   4   48288    1325   1
  -2  -4   4  212768    4574   1
  -1  -4   4    8374     360   1
   0   4   0  108972    2561  -2
   0  -4   4  108972    2561   1
   1  -4   4  219562    4482   1
   2  -4   4  115882    2759   1
   3  -4   4   56462    3079   1
  -4   4   3   71040    2003  -2
   4  -4   4   71040    2003   1
   5  -4   4   74062    2373   1
   6  -4   4    7127     821   1
   7  -4   4   23268    1404   1
  -8   4   6   50117    2732  -2
   8  -4   4   50117    2732   1
   8   3  -5   23273    2310  -2
  -8  -3   4   23273    2310   1
  -7  -3   4    5207    1399   1
  -6  -3   4   72724    3389   1
  -5  -3   4   84956    5165   1
   4   3  -2   71947    2252  -2
  -4  -3   4   71947    2252   1
  -3  -3   4   11860     360   1
  -2  -3   4   66112    1338   1
  -1  -3   4   63369    1284   1
   0   3   1   24611     607  -2
   0  -3   4   24611     607   1
   1  -3   4  132366    2401   1
   2  -3   4   92098    1805   1
   3  -3   4   37291    1021   1
  -4   3   4   21227    1253  -2
   4  -3   4   21227    1253   1
   5  -3   4  107176    2829   1
   6  -3   4   39164    1750   1
   7  -3   4    8170     927   1
  -8   3   7   15046    1512  -2
   8  -3   4   15046    1512   1
   8   2  -4   45007    3016  -2
  -8  -2   4   45007    3016   1
  -7  -2   4   31051    1995   1
  -6  -2   4     835     905   1
  -5  -2   4   64200    3974   1
   4   2  -1  212646    8079  -2
  -4  -2   4  212646    8079   1
  -3  -2   4   73181    1823   1
  -2  -2   4   57603    1132   1
  -1  -2   4  235302    4161   1
   0   2   2   45063     814  -2
   0  -2   4   45063     814   1
   1  -2   4   10055     429   1
   2  -2   4   97506    1996   1
   3  -2   4  169682    3934   1
  -4   2   5   26430     929  -2
   4  -2   4   26430     929   1
   5  -2   4   18499    1461   1
   6  -2   4   84539    3072   1
   7  -2   4   66111    3060   1
  -8   2   8   13722    2939  -2
   8  -2   4   13722    2939   1
  -9  -1   4   -1584    2148   1
   8   1  -3   77116    4747  -2
  -8  -1   4   77116    4747   1
  -7  -1   4   87882    4312   1
  -6  -1   4    5008    1528   1
  -5  -1   4  109398    4861   1
   4   1   0  330458    9618  -2
  -4  -1   4  330458    9618   1
  -3  -1   4   28857     893   1
  -2  -1   4   44251    4313   1
  -1  -1   4  209004    4885   1
   0   1   3  596389    9770  -2
   0  -1   4  596389    9770   1
   1  -1   4   52407     976   1
   2  -1   4   98770    1951   1
   3  -1   4  273400    5936   1
  -4   1   6  182467    4293  -2
   4  -1   4  182467    4293   1
   5  -1   4    5211     695   1
   6  -1   4   38398    1750   1
   7  -1   4   42191    2353   1
  -9   0   4   10704     832   1
   8   0  -2   24748    1331  -2
  -8   0   4   24748    1331   1
  -7   0   4   61048    2213   1
  -6   0   4   25439    1156   1
  -5   0   4   22283     602   1
   4   0   1  163495    4069  -2
  -4   0   4  163495    4069   1
  -3   0   4  207565    3875   1
  -2   0   4  114518    2013   1
  -1   0   4  271728    5665   1
   0   0   4  113648    2204  -2
   0   0   4  113648    2204   1
   2   0   4     653     275   1
   3   0   4  107767    2619   1
  -4   0   7  127860    4350  -2
   4   0   4  127860    4350   1
   5   0   4    9674    1037   1
   6   0   4   26539    1754   1
   7   0   4   61959    3016   1
  -9   1   4   58527    3708   1
   8  -1  -1     646     457  -2
  -8   1   4     646     457   1
  -7   1   4   42839    1481   1
  -6   1   4  107803    2835   1
  -5   1   4   42322    1018   1
   4  -1   2   17394     514  -2
  -4   1   4   17394     514   1
  -3   1   4  149368    2829   1
  -2   1   4  106806    1908   1
  -1   1   4   56166    1109   1
   0  -1   5   69086    3538  -2
   0   1   4   69086    3538   1
   1   1   4  220422    4560   1
   2   1   4   93538    2338   1
   3   1   4   24650    1265   1
  -4  -1   8   35568    1570  -2
   4   1   4   35568    1570   1
   5   1   4   12021     985   1
   6   1   4     466     990   1
  -9   2   4   59107    2837   1
   8  -2   0   47075    2181  -2
  -8   2   4   47075    2181   1
  -7   2   4    1361     531   1
  -6   2   4  134930    3038   1
  -5   2   4   83555    1955   1
   4  -2   3    5012     314  -2
  -4   2   4    5012     314   1
  -3   2   4   35820     883   1
  -2   2   4  210881    4142   1
  -1   2   4  116483    2644   1
   0  -2   6   39287    1299  -2
   0   2   4   39287    1299   1
   1   2   4  231540    5677   1
   2   2   4  130084    2947   1
   3   2   4    9609     676   1
  -4  -2   9   26527    1940  -2
   4   2   4   26527    1940   1
   5   2   4   86788    3279   1
   6   2   4   88959    3423   1
  -9   3   4   61759    3026   1
   8  -3   1   95168    3703  -2
  -8   3   4   95168    3703   1
  -7   3   4     851     709   1
  -6   3   4   52730    1593   1
  -5   3   4   60947    1641   1
   4  -3   4  114280    2892  -2
  -4   3   4  114280    2892   1
  -3   3   4    7313     399   1
  -2   3   4  269895    5547   1
  -1   3   4  208516    4545   1
   0  -3   7   17186     751  -2
   0   3   4   17186     751   1
   1   3   4   47455    1421   1
   2   3   4   42317    1409   1
   3   3   4   26333    1229   1
  -4  -3  10    9000     841  -2
   4   3   4    9000     841   1
   5   3   4   75709    3024   1
  -9   4   4   24967    1899   1
   8  -4   2   61100    2785  -2
  -8   4   4   61100    2785   1
  -7   4   4   34679    1894   1
  -6   4   4     743     548   1
  -5   4   4   96720    2926   1
   4  -4   5  132480    3242  -2
  -4   4   4  132480    3242   1
  -3   4   4    5222     465   1
  -2   4   4   77598    1998   1
  -1   4   4  120193    3149   1
   0  -4   8   50581    1561  -2
   0   4   4   50581    1561   1
   1   4   4    5760     596   1
   2   4   4   11487     877   1
   3   4   4   60020    2178   1
  -4  -4  11    3698    1002  -2
   4   4   4    3698    1002   1
  -9   5   4     328    1104   1
   8  -5   3   61378    3121  -2
  -8   5   4   61378    3121   1
  -7   5   4  101693    3778   1
  -6   5   4   45011    2035   1
  -5   5   4    1031     588   1
   4  -5   6   56111    2050  -2
  -4   5   4   56111    2050   1
  -3   5   4   52177    1689   1
  -2   5   4    9441     706   1
  -1   5   4   11228     867   1
   0  -5   9   44648    1609  -2
   0   5   4   44648    1609   1
   1   5   4   11032     927   1
   2   5   4    6829     864   1
   3   5   4   25286    1657   1
   8  -6   4   13871    1636  -2
  -8   6   4   13871    1636   1
  -7   6   4   67478    2973   1
  -6   6   4   96448    3235   1
  -5   6   4    -171     676   1
   4  -6   7   70339    2460  -2
  -4   6   4   70339    2460   1
  -3   6   4   68573    2088   1
  -2   6   4   47104    1626   1
  -1   6   4    1902     726   1
   0  -6  10   62011    2287  -2
   0   6   4   62011    2287   1
   1   6   4   66271    2460   1
  -7   7   4   35845    2038   1
  -6   7   4   41976    2149   1
  -5   7   4    5797     915   1
   4  -7   8    1915     832  -2
  -4   7   4    1915     832   1
  -3   7   4   45254    2330   1
  -2   7   4   50903    3315   1
  -1   7   4    1120     848   1
   0  -7  11   52269    2199  -2
   0   7   4   52269    2199   1
   2 -10   5   30891    2030   1
   3 -10   5     737     995   1
  -1  -9   5   11705    1315   1
   0   9  -4     472     965  -2
   0  -9   5     472     965   1
   1  -9   5   31984    1875   1
   2  -9   5   51103    2146   1
   3  -9   5    5779    1010   1
  -4   9  -1   19349    1526  -2
   4  -9   5   19349    1526   1
   5  -9   5   82027    3289   1
   6  -9   5   40417    2274   1
  -3  -8   5     768     918   1
  -2  -8   5   42287    2129   1
  -1  -8   5   78484    3089   1
   0   8  -3   29079    1488  -2
   0  -8   5   29079    1488   1
   1  -8   5    6776     871   1
   2  -8   5  116466    3757   1
   3  -8   5   95681    3231   1
  -4   8   0    7161     972  -2
   4  -8   5    7161     972   1
   5  -8   5   18701    1526   1
   6  -8   5   49048    2742   1
   7  -8   5   12182    1824   1
   4   7  -5   60230    2537  -2
  -4  -7   5   60230    2537   1
  -3  -7   5   14642    1146   1
  -2  -7   5   17841    1257   1
  -1  -7   5   50686    1884   1
   0   7  -2  104339    3328  -2
   0  -7   5  104339    3328   1
   1  -7   5    4706     807   1
   2  -7   5   45585    1616   1
   3  -7   5   85567    2623   1
  -4   7   1   65411    2147  -2
   4  -7   5   65411    2147   1
   5  -7   5   12283    1418   1
   6  -7   5   70598    3252   1
   7  -7   5   52072    2208   1
  -5  -6   5    5216    1139   1
   4   6  -4   55914    4437  -2
  -4  -6   5   55914    4437   1
  -3  -6   5   64255    2205   1
  -2  -6   5   53847    1563   1
  -1  -6   5   24355    1335   1
   0   6  -1  187179    4093  -2
   0  -6   5  187179    4093   1
   1  -6   5   72919    1864   1
   2  -6   5    2209     551   1
   3  -6   5   68514    3179   1
  -4   6   2   57014    1886  -2
   4  -6   5   57014    1886   1
   5  -6   5      16     597   1
   6  -6   5   10880     988   1
   7  -6   5   66454    2460   1
  -8   6   5   29733    1703  -2
   8  -6   5   29733    1703   1
  -6  -5   5   28463    1342   1
  -5  -5   5   34457    1439   1
   4   5  -3   34585    1218  -2
  -4  -5   5   34585    1218   1
  -3  -5   5  134810    3411   1
  -2  -5   5   36898    1109   1
  -1  -5   5   24898     723   1
   0   5   0  143980    3607  -2
   0  -5   5  143980    3607   1
   1  -5   5  163642    3825   1
   2  -5   5   41487    1126   1
   3  -5   5   56163    1513   1
  -4   5   3  194552    4928  -2
   4  -5   5  194552    4928   1
   5  -5   5  130118    3483   1
   6  -5   5   10788    1195   1
   7  -5   5   26538    1991   1
  -8   5   6   43716    2532  -2
   8  -5   5   43716    2532   1
  -7  -4   5    3857    1259   1
  -6  -4   5   74252    3150   1
  -5  -4   5   56127    1913   1
   4   4  -2    8445     405  -2
  -4  -4   5    8445     405   1
  -3  -4   5   24861    1002   1
  -2  -4   5  111154    2447   1
  -1  -4   5   62566    1551   1
   0   4   1   58686    1617  -2
   0  -4   5   58686    1617   1
   1  -4   5  132993    3133   1
   2  -4   5   70303    1765   1
   3  -4   5   19900    1428   1
  -4   4   4   89827    2963  -2
   4  -4   5   89827    2963   1
   5  -4   5   85492    2609   1
   6  -4   5   60826    2246   1
   7  -4   5    5039     984   1
  -8   4   7   56288    2958  -2
   8  -4   5   56288    2958   1
   8   3  -4   29023    2201  -2
  -8  -3   5   29023    2201   1
  -7  -3   5    -342     969   1
  -6  -3   5   61364    2478   1
  -5  -3   5   79353    3443   1
   4   3  -1   70214    3039  -2
  -4  -3   5   70214    3039   1
  -3  -3   5   21756     841   1
  -2  -3   5  352759    7103   1
  -1  -3   5  133809    2910   1
   0   3   2   15234     528  -2
   0  -3   5   15234     528   1
   1  -3   5   18053     681   1
   2  -3   5  160029    3364   1
   3  -3   5  140329    3336   1
  -4   3   5   14351     746  -2
   4  -3   5   14351     746   1
   5  -3   5  111081    2960   1
   6  -3   5   52086    2060   1
   7  -3   5    4007     918   1
  -8   3   8   11616    1483  -2
   8  -3   5   11616    1483   1
   8   2  -3   59789    2671  -2
  -8  -2   5   59789    2671   1
  -7  -2   5   39115    1943   1
  -6  -2   5     139     735   1
  -5  -2   5  102229    3461   1
   4   2   0  192700    5729  -2
  -4  -2   5  192700    5729   1
  -3  -2   5   72411    4363   1
  -2  -2   5   35345     787   1
  -1  -2   5   64145    1579   1
   0   2   3   63852    1220  -2
   0  -2   5   63852    1220   1
   1  -2   5   30214    2799   1
   2  -2   5  255925    5222   1
   3  -2   5  183722    4768   1
  -4   2   6    5627     692  -2
   4  -2   5    5627     692   1
   5  -2   5   58204    2286   1
   6  -2   5   39838    1854   1
   7  -2   5   48138    2605   1
  -9  -1   5     377    1368   1
   8   1  -2   61393    3086  -2
  -8  -1   5   61393    3086   1
  -7  -1   5  142262    5376   1
  -6  -1   5    1019    1221   1
  -5  -1   5   95962    2810   1
   4   1   1  253874    5186  -2
  -4  -1   5  253874    5186   1
  -3  -1   5   67162    1456   1
  -2  -1   5    1913     972   1
  -1  -1   5   65584    1969   1
   0   1   4  365472    7441  -2
   0  -1   5  365472    7441   1
   1  -1   5   75887    1554   1
   2  -1   5   71991    1673   1
   3  -1   5   87593    2227   1
  -4   1   7   47728    1441  -2
   4  -1   5   47728    1441   1
   5  -1   5    1444     657   1
   6  -1   5   33750    1705   1
   7  -1   5   52769    2758   1
  -9   0   5   11513     723   1
   8   0  -1   30864    1892  -2
  -8   0   5   30864    1892   1
  -7   0   5   54451    2651   1
  -6   0   5    7352     513   1
  -5   0   5     676     236   1
   4   0   2   74533    1736  -2
  -4   0   5   74533    1736   1
  -3   0   5   93352    1746   1
  -2   0   5   55531    1423   1
  -1   0   5  210027    5500   1
   0   0   5  719219   15233  -2
   0   0   5  719219   15233   1
   1   0   5   54251    1455   1
   2   0   5    4960     583   1
   3   0   5   25913    1564   1
  -4   0   8   96665    3952  -2
   4   0   5   96665    3952   1
   5   0   5   23743    1669   1
   6   0   5     843    1024   1
  -9   1   5   45828    3188   1
   8  -1   0    4958     764  -2
  -8   1   5    4958     764   1
  -7   1   5   55679    1842   1
  -6   1   5  151249    3906   1
  -5   1   5   83131    1832   1
   4  -1   3   11951     948  -2
  -4   1   5   11951     948   1
  -3   1   5  116029    2358   1
  -2   1   5  154687    4275   1
  -1   1   5   11187     416   1
   0  -1   6   19596     822  -2
   0   1   5   19596     822   1
   1   1   5   96027    2123   1
   2   1   5   56376    1567   1
   3   1   5   13380     973   1
  -4  -1   9   42434    1758  -2
   4   1   5   42434    1758   1
   5   1   5   33283    1665   1
   6   1   5     602    1071   1
  -9   2   5   84617    5011   1
   8  -2   1   13560    1131  -2
  -8   2   5   13560    1131   1
  -7   2   5    1309     545   1
  -6   2   5   80261    2453   1
  -5   2   5  174513    3660   1
   4  -2   4    8822     402  -2
  -4   2   5    8822     402   1
  -3   2   5  134463    3038   1
  -2   2   5  272136    5922   1
  -1   2   5  105116    2436   1
   0  -2   7   20709    1191  -2
   0   2   5   20709    1191   1
   1   2   5   63817    1806   1
   2   2   5   65436    1859   1
   3   2   5   27948    1274   1
  -4  -2  10   22272    2199  -2
   4   2   5   22272    2199   1
   5   2   5   59458    2547   1
  -9   3   5   40004    2270   1
   8  -3   2   92665    3694  -2
  -8   3   5   92665    3694   1
  -7   3   5   42228    2086   1
  -6   3   5   57573    2134   1
  -5   3   5   79249    1917   1
   4  -3   5   14129     594  -2
  -4   3   5   14129     594   1
  -3   3   5    6986     415   1
  -2   3   5   78137    1853   1
  -1   3   5   48901    1380   1
   0  -3   8   21915     912  -2
   0   3   5   21915     912   1
   1   3   5   26693    1028   1
   2   3   5  127448    3935   1
   3   3   5   35237    1506   1
  -4  -3  11    6037    1003  -2
   4   3   5    6037    1003   1
  -9   4   5   11446    1337   1
   8  -4   3   72643    3145  -2
  -8   4   5   72643    3145   1
  -7   4   5   21186    1521   1
  -6   4   5    9840     857   1
  -5   4   5   53622    2117   1
   4  -4   6  141440    4078  -2
  -4   4   5  141440    4078   1
  -3   4   5   27568    1038   1
  -2   4   5   12257     719   1
  -1   4   5   87210    2424   1
   0  -4   9   57846    1761  -2
   0   4   5   57846    1761   1
   1   4   5      69     631   1
   2   4   5   10688     912   1
   3   4   5   39935    1752   1
   8  -5   4   36210    2183  -2
  -8   5   5   36210    2183   1
  -7   5   5   46564    2399   1
  -6   5   5   16457    1167   1
  -5   5   5    1681     652   1
   4  -5   7   67914    2544  -2
  -4   5   5   67914    2544   1
  -3   5   5   66311    2023   1
  -2   5   5    3682     641   1
  -1   5   5   19988    1627   1
   0  -5  10   63416    2282  -2
   0   5   5   63416    2282   1
   1   5   5   33287    1558   1
   2   5   5    2566     830   1
   8  -6   5   11972    1537  -2
  -8   6   5   11972    1537   1
  -7   6   5   66680    3110   1
  -6   6   5  102440    3921   1
  -5   6   5   19195    1171   1
   4  -6   8   34134    2108  -2
  -4   6   5   34134    2108   1
  -3   6   5   47467    1768   1
  -2   6   5   31641    1595   1
  -1   6   5     516     774   1
   0  -6  11   57794    2290  -2
   0   6   5   57794    2290   1
  -6   7   5   34696    1919   1
  -5   7   5    6772    1126   1
   4  -7   9    3668     987  -2
  -4   7   5    3668     987   1
  -3   7   5   31792    1653   1
  -2   7   5   58466    3134   1
  -1  -9   6   26622    1825   1
   0   9  -3     374    1004  -2
   0  -9   6     374    1004   1
   1  -9   6   40594    2224   1
   2  -9   6   57987    2423   1
   3  -9   6   11807    1225   1
  -4   9   0    2406    1017  -2
   4  -9   6    2406    1017   1
   5  -9   6   33599    2020   1
  -3  -8   6    7779    1090   1
  -2  -8   6   21431    1819   1
  -1  -8   6   63991    2701   1
   0   8  -2   31322    1805  -2
   0  -8   6   31322    1805   1
   1  -8   6    1425     775   1
   2  -8   6   79020    2788   1
   3  -8   6  126259    4060   1
  -4   8   1    2366     927  -2
   4  -8   6    2366     927   1
   5  -8   6   33630    1931   1
   6  -8   6   50924    3125   1
   4   7  -4   45621    3361  -2
  -4  -7   6   45621    3361   1
  -3  -7   6   20365    1383   1
  -2  -7   6   27174    1565   1
  -1  -7   6  151398    5271   1
   0   7  -1  177428    5386  -2
   0  -7   6  177428    5386   1
   1  -7   6    4988     747   1
   2  -7   6  136345    4274   1
   3  -7   6   88281    2971   1
  -4   7   2   61703    1955  -2
   4  -7   6   61703    1955   1
   5  -7   6   14562    1264   1
   6  -7   6   53838    2228   1
   7  -7   6   73304    3182   1
  -5  -6   6    5474    1290   1
   4   6  -3   48626    2546  -2
  -4  -6   6   48626    2546   1
  -3  -6   6   60463    2399   1
  -2  -6   6   19967    1228   1
  -1  -6   6   24612    1076   1
   0   6   0   80518    2056  -2
   0  -6   6   80518    2056   1
   1  -6   6   15665    2933   1
   2  -6   6    3756     724   1
   3  -6   6   51148    1694   1
  -4   6   3  138694    3910  -2
   4  -6   6  138694    3910   1
   5  -6   6    4715     790   1
   6  -6   6   29798    1616   1
   7  -6   6   32798    1867   1
  -6  -5   6   27545    1869   1
  -5  -5   6   36148    1462   1
   4   5  -2   30460    1260  -2
  -4  -5   6   30460    1260   1
  -3  -5   6  216640    5807   1
  -2  -5   6   88862    2036   1
  -1  -5   6    2873     359   1
   0   5   1   20428    1250  -2
   0  -5   6   20428    1250   1
   1  -5   6   84264    2581   1
   2  -5   6   83366    2132   1
   3  -5   6   24442    1205   1
  -4   5   4  110372    3023  -2
   4  -5   6  110372    3023   1
   5  -5   6   52920    1899   1
   6  -5   6    7946     995   1
   7  -5   6   11248    1150   1
  -7  -4   6    2234    1147   1
  -6  -4   6   51082    2520   1
  -5  -4   6   75173    2425   1
   4   4  -1   27841    1342  -2
  -4  -4   6   27841    1342   1
  -3  -4   6   49060    1364   1
  -2  -4   6   59896    1403   1
  -1  -4   6   99891    2391   1
   0   4   2   26362    1053  -2
   0  -4   6   26362    1053   1
   1  -4   6  223915    5188   1
   2  -4   6  170421    3795   1
   3  -4   6    4921     541   1
  -4   4   5  147508    4134  -2
   4  -4   6  147508    4134   1
   5  -4   6  112504    3388   1
   6  -4   6   57632    2204   1
   7  -4   6     407     922   1
   8   3  -3   27134    2021  -2
  -8  -3   6   27134    2021   1
  -7  -3   6      77     994   1
  -6  -3   6   72509    2809   1
  -5  -3   6  143898    5873   1
   4   3   0   47635    1387  -2
  -4  -3   6   47635    1387   1
  -3  -3   6    6442     388   1
  -2  -3   6  250874    5086   1
  -1  -3   6  174082    3433   1
   0   3   3    8343     636  -2
   0  -3   6    8343     636   1
   1  -3   6   58093    2492   1
   2  -3   6  194049    4580   1
   3  -3   6   35122    1291   1
  -4   3   6   11416     912  -2
   4  -3   6   11416     912   1
   5  -3   6   65942    3486   1
   6  -3   6   83080    3185   1
   7  -3   6    1635     953   1
   8   2  -2   50921    2500  -2
  -8  -2   6   50921    2500   1
  -7  -2   6    8628    1147   1
  -6  -2   6   15921    1246   1
  -5  -2   6   62155    2115   1
   4   2   1   56755    1339  -2
  -4  -2   6   56755    1339   1
  -3  -2   6   46933    5536   1
  -2  -2   6   60385    1349   1
  -1  -2   6  180054    3715   1
   0   2   4  108854    2213  -2
   0  -2   6  108854    2213   1
   1  -2   6   18339    2603   1
   2  -2   6   69353    1737   1
   3  -2   6   39988    1474   1
  -4   2   7   10536     984  -2
   4  -2   6   10536     984   1
   5  -2   6   26036    1675   1
   6  -2   6   43259    2026   1
   7  -2   6   31965    2194   1
   8   1  -1   43531    2210  -2
  -8  -1   6   43531    2210   1
  -7  -1   6  130013    5026   1
  -6  -1   6   59750    1960   1
  -5  -1   6    1270     202   1
   4   1   2  131581    3332  -2
  -4  -1   6  131581    3332   1
  -3  -1   6  170265    3725   1
  -2  -1   6   33541    2729   1
  -1  -1   6   74347    3011   1
   0   1   5   68667    1567  -2
   0  -1   6   68667    1567   1
   1  -1   6   77433    2144   1
   2  -1   6    1047     410   1
   3  -1   6   41385    1682   1
  -4   1   8   52354    1961  -2
   4  -1   6   52354    1961   1
   5  -1   6    3726     849   1
   6  -1   6   28115    1938   1
  -9   0   6    7371    4517   1
   8   0   0   17926    1863  -2
  -8   0   6   17926    1863   1
  -7   0   6  111025    3693   1
  -6   0   6   83185    2714   1
  -5   0   6    1125     260   1
   4   0   3  153738    2937  -2
  -4   0   6  153738    2937   1
  -3   0   6  128727    2755   1
  -2   0   6   39360    1162   1
  -1   0   6   14918     739   1
   0   0   6  535092   12968  -2
   0   0   6  535092   12968   1
   1   0   6  200773    5489   1
   2   0   6    2217     601   1
   3   0   6   43088    1979   1
  -4   0   9  130432    5243  -2
   4   0   6  130432    5243   1
   5   0   6   38362    1901   1
   6   0   6     475    1082   1
  -9   1   6   48958    3307   1
   8  -1   1    4219    1091  -2
  -8   1   6    4219    1091   1
  -7   1   6   55648    2079   1
  -6   1   6   95465    3944   1
  -5   1   6   15067     654   1
   4  -1   4   48041    1715  -2
  -4   1   6   48041    1715   1
  -3   1   6  112190    2599   1
  -2   1   6  122647    3802   1
  -1   1   6    1500     282   1
   0  -1   7   92949    2410  -2
   0   1   6   92949    2410   1
   1   1   6   69093    2733   1
   2   1   6   56576    1684   1
   3   1   6    1921     653   1
  -4  -1  10   76690    2594  -2
   4   1   6   76690    2594   1
   5   1   6   25775    1453   1
  -9   2   6   76858    5418   1
   8  -2   2   12104    1096  -2
  -8   2   6   12104    1096   1
  -7   2   6   16934    1301   1
  -6   2   6   49358    1962   1
  -5   2   6  136803    3337   1
   4  -2   5   23317     681  -2
  -4   2   6   23317     681   1
  -3   2   6   31376    1274   1
  -2   2   6   77909    1905   1
  -1   2   6   53619    1421   1
   0  -2   8   15646    1432  -2
   0   2   6   15646    1432   1
   1   2   6   56626    1699   1
   2   2   6   91997    2973   1
   3   2   6   12100     905   1
  -4  -2  11   14672    1828  -2
   4   2   6   14672    1828   1
  -9   3   6   28521    1939   1
   8  -3   3   48295    2377  -2
  -8   3   6   48295    2377   1
  -7   3   6   34558    1946   1
  -6   3   6   36881    1640   1
  -5   3   6  120414    3932   1
   4  -3   6   35718    1605  -2
  -4   3   6   35718    1605   1
  -3   3   6   18269     782   1
  -2   3   6   15398     757   1
  -1   3   6   65007    1890   1
   0  -3   9   18845     974  -2
   0   3   6   18845     974   1
   1   3   6   20297    1353   1
   2   3   6   86521    2879   1
   3   3   6   26949    1363   1
   8  -4   4   66675    3036  -2
  -8   4   6   66675    3036   1
  -7   4   6   30980    1960   1
  -6   4   6     989     705   1
  -5   4   6   28647    1731   1
   4  -4   7  149577    5927  -2
  -4   4   6  149577    5927   1
  -3   4   6   62535    2174   1
  -2   4   6   27834    1123   1
  -1   4   6  118166    3184   1
   0  -4  10   55269    2022  -2
   0   4   6   55269    2022   1
   1   4   6     716     703   1
   2   4   6   13765    1055   1
   8  -5   5   24323    2234  -2
  -8   5   6   24323    2234   1
  -7   5   6   41883    2382   1
  -6   5   6   11385    1065   1
  -5   5   6   19361    1417   1
   4  -5   8  104132    3545  -2
  -4   5   6  104132    3545   1
  -3   5   6   33099    1407   1
  -2   5   6    2595     722   1
  -1   5   6   27893    1574   1
   0  -5  11   34382    1740  -2
   0   5   6   34382    1740   1
   1   5   6   18461    1285   1
  -7   6   6   32061    2285   1
  -6   6   6   38136    1988   1
  -5   6   6   15208    1289   1
   4  -6   9   24957    2756  -2
  -4   6   6   24957    2756   1
  -3   6   6   45604    2259   1
  -2   6   6   22527    1689   1
  -1   6   6    6261    1250   1
  -1  -9   7   65688    2939   1
   0   9  -2   -1059    1059  -2
   0  -9   7   -1059    1059   1
   1  -9   7   35316    2105   1
   2  -9   7   54764    2296   1
   3  -9   7   28238    1688   1
  -4   9   1    2657    1066  -2
   4  -9   7    2657    1066   1
  -3  -8   7    2705     982   1
  -2  -8   7   24232    1686   1
  -1  -8   7   51654    2404   1
   0   8  -1    8394    1157  -2
   0  -8   7    8394    1157   1
   1  -8   7    1969     830   1
   2  -8   7   42461    1982   1
   3  -8   7   89619    3167   1
  -4   8   2    8365    1058  -2
   4  -8   7    8365    1058   1
   5  -8   7   34463    2454   1
   6  -8   7   49276    2912   1
   4   7  -3   46655    2686  -2
  -4  -7   7   46655    2686   1
  -3  -7   7   31893    1744   1
  -2  -7   7    1887     852   1
  -1  -7   7   99632    4486   1
   0   7   0   72260    2537  -2
   0  -7   7   72260    2537   1
   1  -7   7   14015    1188   1
   2  -7   7   68889    2486   1
   3  -7   7  142836    4193   1
  -4   7   3   47611    1928  -2
   4  -7   7   47611    1928   1
   5  -7   7    6656    1430   1
   6  -7   7   29008    2580   1
  -5  -6   7   11710    1361   1
   4   6  -2   77946    2946  -2
  -4  -6   7   77946    2946   1
  -3  -6   7   66863    2645   1
  -2  -6   7    4084     773   1
  -1  -6   7    4786     691   1
   0   6   1   76787    2600  -2
   0  -6   7   76787    2600   1
   1  -6   7   78325    2986   1
   2  -6   7    4503     727   1
   3  -6   7   63992    2062   1
  -4   6   4  125109    3775  -2
   4  -6   7  125109    3775   1
   5  -6   7   18033    1267   1
   6  -6   7   18463    1562   1
  -6  -5   7   45270    4772   1
  -5  -5   7    5580     703   1
   4   5  -1   24115    1905  -2
  -4  -5   7   24115    1905   1
  -3  -5   7  116430    3596   1
  -2  -5   7  173930    4723   1
  -1  -5   7   28234    1158   1
   0   5   2   83920    2334  -2
   0  -5   7   83920    2334   1
   1  -5   7  112830    2849   1
   2  -5   7   37553    1417   1
   3  -5   7    6197    1199   1
  -4   5   5   63188    2931  -2
   4  -5   7   63188    2931   1
   5  -5   7   37824    1742   1
   6  -5   7    5247    1000   1
   7  -5   7   13063    1272   1
  -7  -4   7   17129    1970   1
  -6  -4   7   40796    4110   1
  -5  -4   7   86942    2618   1
   4   4   0   14428     826  -2
  -4  -4   7   14428     826   1
  -3  -4   7  102434    2625   1
  -2  -4   7  101513    2356   1
  -1  -4   7   38826    1001   1
   0   4   3   17954    1034  -2
   0  -4   7   17954    1034   1
   1  -4   7  101358    2383   1
   2  -4   7   80582    2125   1
   3  -4   7    7937     766   1
  -4   4   6  143358    4095  -2
   4  -4   7  143358    4095   1
   5  -4   7  137674    4348   1
   6  -4   7   39463    1906   1
  -7  -3   7    8887    1230   1
  -6  -3   7   16415    1326   1
  -5  -3   7  110158    3625   1
   4   3   1   30241    1037  -2
  -4  -3   7   30241    1037   1
  -3  -3   7   10486     594   1
  -2  -3   7  110565    2330   1
  -1  -3   7  194048    3832   1
   0   3   4    8821     448  -2
   0  -3   7    8821     448   1
   1  -3   7   38216    1212   1
   2  -3   7   85874    2542   1
   3  -3   7   21053    1063   1
  -4   3   7   28486    1529  -2
   4  -3   7   28486    1529   1
   5  -3   7   32748    2009   1
   6  -3   7   94500    3553   1
   8   2  -1   64120    2936  -2
  -8  -2   7   64120    2936   1
  -7  -2   7   26849    1724   1
  -6  -2   7    2422     398   1
  -5  -2   7   42524    1394   1
   4   2   2   63237    1923  -2
  -4  -2   7   63237    1923   1
  -3  -2   7   24624    1812   1
  -2  -2   7   91236    1989   1
  -1  -2   7  201752    4416   1
   0   2   5   98013    2155  -2
   0  -2   7   98013    2155   1
   1  -2   7    5583     431   1
   2  -2   7   35398    1292   1
   3  -2   7  120857    3532   1
  -4   2   8   56097    2136  -2
   4  -2   7   56097    2136   1
   5  -2   7   11612    1144   1
   6  -2   7   52163    2422   1
   8   1   0   41140    4850  -2
  -8  -1   7   41140    4850   1
  -7  -1   7   92780    3399   1
  -6  -1   7   77739    2207   1
  -5  -1   7    6042     546   1
   4   1   3  125075    2859  -2
  -4  -1   7  125075    2859   1
  -3  -1   7  158680    4172   1
  -2  -1   7   35909    3074   1
  -1  -1   7   73535    2959   1
   0   1   6   79254    2757  -2
   0  -1   7   79254    2757   1
   1  -1   7   64309    1783   1
   2  -1   7    4402     642   1
   3  -1   7   96883    2909   1
  -4   1   9   25002    1603  -2
   4  -1   7   25002    1603   1
   5  -1   7    2874    1132   1
   8   0   1   13316    1035  -2
  -8   0   7   13316    1035   1
  -7   0   7  179424    6422   1
  -6   0   7   81949    2521   1
  -5   0   7     762     300   1
   4   0   4   87267    2236  -2
  -4   0   7   87267    2236   1
  -3   0   7  123731    2843   1
  -2   0   7   36359    1711   1
   0   0   7  259524    7353  -2
   0   0   7  259524    7353   1
   1   0   7  263690    7882   1
   2   0   7     -75     647   1
   3   0   7   21552    1268   1
  -4   0  10   27093    1526  -2
   4   0   7   27093    1526   1
   5   0   7   11140    1159   1
  -9   1   7   23500    2219   1
   8  -1   2    1490    1123  -2
  -8   1   7    1490    1123   1
  -7   1   7   36506    2650   1
  -6   1   7   57190    3198   1
  -5   1   7   29569    1091   1
   4  -1   5    9231     866  -2
  -4   1   7    9231     866   1
  -3   1   7   58877    1718   1
  -2   1   7   65862    1703   1
  -1   1   7    6200     441   1
   0  -1   8  197905    4719  -2
   0   1   7  197905    4719   1
   1   1   7  103493    2642   1
   2   1   7   36159    1388   1
   3   1   7    1272     712   1
  -4  -1  11   46503    1923  -2
   4   1   7   46503    1923   1
  -9   2   7   32980    2913   1
   8  -2   3   17832    1356  -2
  -8   2   7   17832    1356   1
  -7   2   7   17957    1384   1
  -6   2   7   51951    2443   1
  -5   2   7  102048    3451   1
   4  -2   6   44277    1615  -2
  -4   2   7   44277    1615   1
  -3   2   7   11370     751   1
  -2   2   7   78859    2320   1
  -1   2   7   60318    1717   1
   0  -2   9    9778    1045  -2
   0   2   7    9778    1045   1
   1   2   7   34002    1303   1
   2   2   7   48999    1906   1
   3   2   7   10751     972   1
   8  -3   4   31074    1957  -2
  -8   3   7   31074    1957   1
  -7   3   7   17360    1435   1
  -6   3   7    5018    1004   1
  -5   3   7  143176    4656   1
   4  -3   7   76575    2811  -2
  -4   3   7   76575    2811   1
  -3   3   7     251     655   1
  -2   3   7   54929    1983   1
  -1   3   7   82246    2339   1
   0  -3  10   12321     803  -2
   0   3   7   12321     803   1
   1   3   7     622     697   1
   2   3   7   32810    1628   1
   8  -4   5   63919    3019  -2
  -8   4   7   63919    3019   1
  -7   4   7   71713    3235   1
  -6   4   7     651     990   1
  -5   4   7   54754    2653   1
   4  -4   8   62135    2476  -2
  -4   4   7   62135    2476   1
  -3   4   7   26156    1438   1
  -2   4   7    1209     793   1
  -1   4   7   20941    1377   1
   0  -4  11   25940    2347  -2
   0   4   7   25940    2347   1
   1   4   7     -65     975   1
  -7   5   7   28458    2196   1
  -6   5   7    1582    1211   1
  -5   5   7   28897    1764   1
   4  -5   9   62277    2671  -2
  -4   5   7   62277    2671   1
  -3   5   7   47085    1990   1
  -2   5   7    5161    1078   1
  -1   5   7   14991    1557   1
   0   9  -1    1318    1146  -2
   0  -9   8    1318    1146   1
   1  -9   8   39011    2314   1
   2  -9   8  101076    4049   1
   3  -9   8   44402    2134   1
  -2  -8   8    4191    1051   1
  -1  -8   8   42873    2250   1
   0   8   0   14680    1383  -2
   0  -8   8   14680    1383   1
   1  -8   8   15325    1417   1
   2  -8   8   28976    1645   1
   3  -8   8   30938    1688   1
  -4   8   3    7264    1131  -2
   4  -8   8    7264    1131   1
   5  -8   8   15595    1805   1
   4   7  -2   61095    3216  -2
  -4  -7   8   61095    3216   1
  -3  -7   8   55494    2422   1
  -2  -7   8    8514    1034   1
  -1  -7   8   63387    2650   1
   0   7   1   86097    4470  -2
   0  -7   8   86097    4470   1
   1  -7   8   46717    2192   1
   2  -7   8    3192     878   1
   3  -7   8  106684    3344   1
  -4   7   4   23356    1641  -2
   4  -7   8   23356    1641   1
   5  -7   8      61    1382   1
  -5  -6   8    6908    1146   1
   4   6  -1   63876    2726  -2
  -4  -6   8   63876    2726   1
  -3  -6   8   79092    2827   1
  -2  -6   8    3445     811   1
  -1  -6   8   48003    1820   1
   0   6   2  174174    4919  -2
   0  -6   8  174174    4919   1
   1  -6   8  113049    3423   1
   2  -6   8   13103    1069   1
   3  -6   8   75372    2873   1
  -4   6   5   99181    3576  -2
   4  -6   8   99181    3576   1
   5  -6   8   75952    3698   1
   6  -6   8    1184    1385   1
  -6  -5   8   41886    3012   1
  -5  -5   8    1573     658   1
   4   5   0   20258    1159  -2
  -4  -5   8   20258    1159   1
  -3  -5   8   82582    4060   1
  -2  -5   8  139738    4465   1
  -1  -5   8    2372     755   1
   0   5   3   85445    3054  -2
   0  -5   8   85445    3054   1
   1  -5   8   42784    1683   1
   2  -5   8   11879    1229   1
  -4   5   6  102725    4883  -2
   4  -5   8  102725    4883   1
   5  -5   8   48954    2824   1
   6  -5   8    -324    1348   1
  -6  -4   8   31625    3327   1
  -5  -4   8   51376    1980   1
   4   4   1   15011     999  -2
  -4  -4   8   15011     999   1
  -3  -4   8  136134    3886   1
  -2  -4   8  117894    4079   1
  -1  -4   8   23994     896   1
   0   4   4   17772    1590  -2
   0  -4   8   17772    1590   1
   1  -4   8   34346    1347   1
   2  -4   8   83696    2449   1
   3  -4   8   38089    2229   1
  -4   4   7   33998    1540  -2
   4  -4   8   33998    1540   1
   5  -4   8   56749    2357   1
   6  -4   8    5705    1106   1
  -7  -3   8   22718    3013   1
  -6  -3   8    7322     606   1
  -5  -3   8  103096    3054   1
   4   3   2   62425    2319  -2
  -4  -3   8   62425    2319   1
  -3  -3   8     866     399   1
  -2  -3   8   17927     791   1
  -1  -3   8  137516    2955   1
   0   3   5   25078     911  -2
   0  -3   8   25078     911   1
   1  -3   8   53412    1580   1
   2  -3   8  134258    4106   1
   3  -3   8   70555    2501   1
  -4   3   8   17053    1854  -2
   4  -3   8   17053    1854   1
   5  -3   8   29228    1697   1
   8   2   0   69454    4308  -2
  -8  -2   8   69454    4308   1
  -7  -2   8   37538    3415   1
  -6  -2   8    6408     690   1
  -5  -2   8  104979    4911   1
   4   2   3  130909    4150  -2
  -4  -2   8  130909    4150   1
  -3  -2   8   16832     663   1
  -2  -2   8   48274    1378   1
  -1  -2   8  173096    4438   1
   0   2   6   99969    2372  -2
   0  -2   8   99969    2372   1
   1  -2   8    2434     590   1
   2  -2   8   82456    2434   1
   3  -2   8  107498    3254   1
  -4   2   9   23039    1357  -2
   4  -2   8   23039    1357   1
   5  -2   8    6473    1089   1
   8   1   1   57121    5840  -2
  -8  -1   8   57121    5840   1
  -7  -1   8   30161    2526   1
  -6  -1   8   13748    1744   1
  -5  -1   8   16965    1013   1
   4   1   4   45584    1475  -2
  -4  -1   8   45584    1475   1
  -3  -1   8   59060    3078   1
  -1  -1   8  161633    5292   1
   0   1   7  185245    5414  -2
   0  -1   8  185245    5414   1
   1  -1   8   16186    1392   1
   2  -1   8    7857     905   1
   3  -1   8   32462    2073   1
  -4   1  10   13079    1328  -2
   4  -1   8   13079    1328   1
   5  -1   8    -491    1119   1
   8   0   2   19487    1941  -2
  -8   0   8   19487    1941   1
  -7   0   8   88746    4400   1
  -6   0   8  119030    4533   1
  -5   0   8   27358    1436   1
   4   0   5   26239    1225  -2
  -4   0   8   26239    1225   1
  -3   0   8  126172    3708   1
  -2   0   8   29754    1637   1
   0   0   8   14850     757  -2
   0   0   8   14850     757   1
   1   0   8   80810    2203   1
   2   0   8   17101    1146   1
   3   0   8    4388     938   1
  -4   0  11   27102    1686  -2
   4   0   8   27102    1686   1
   8  -1   3    6282    1452  -2
  -8   1   8    6282    1452   1
  -7   1   8   17377    1547   1
  -6   1   8  104362    4147   1
  -5   1   8   60295    2353   1
   4  -1   6   13432    1153  -2
  -4   1   8   13432    1153   1
  -3   1   8   84695    2674   1
  -2   1   8   78116    2341   1
  -1   1   8   24974    1127   1
   0  -1   9   54081    1813  -2
   0   1   8   54081    1813   1
   1   1   8  111622    2894   1
   2   1   8   36233    1536   1
   3   1   8     895     766   1
   8  -2   4   64633    3004  -2
  -8   2   8   64633    3004   1
  -7   2   8    3588     963   1
  -6   2   8   69138    3074   1
  -5   2   8   40331    2184   1
   4  -2   7   17768    1264  -2
  -4   2   8   17768    1264   1
  -3   2   8   27363    1537   1
  -2   2   8   86233    2818   1
  -1   2   8   44229    1799   1
   0  -2  10    7492     948  -2
   0   2   8    7492     948   1
   1   2   8   47665    2450   1
   2   2   8   64201    3085   1
   8  -3   5   26895    1918  -2
  -8   3   8   26895    1918   1
  -7   3   8     301     973   1
  -6   3   8    6813    1203   1
  -5   3   8   86849    3650   1
   4  -3   8   77810    2902  -2
  -4   3   8   77810    2902   1
  -3   3   8    -207     713   1
  -2   3   8   24976    1386   1
  -1   3   8   40365    1759   1
   0  -3  11   10394    1235  -2
   0   3   8   10394    1235   1
   1   3   8    3256    1105   1
  -7   4   8   39380    2414   1
  -6   4   8     284    1156   1
  -5   4   8   42002    2504   1
   4  -4   9   31801    1817  -2
  -4   4   8   31801    1817   1
  -3   4   8   33006    1686   1
  -2   4   8    6104     987   1
  -1   4   8   16719    1480   1
  -5   5   8    -583    1277   1
   4  -5  10   41757    2119  -2
  -4   5   8   41757    2119   1
  -2  -8   9   34064    2049   1
  -1  -8   9  105597    4502   1
   0   8   1   48844    2361  -2
   0  -8   9   48844    2361   1
   1  -8   9    5868    1214   1
   2  -8   9   23423    1509   1
   3  -8   9   28865    1634   1
  -3  -7   9   29405    1693   1
  -2  -7   9    1277     913   1
  -1  -7   9   38758    1960   1
   0   7   2   68074    3306  -2
   0  -7   9   68074    3306   1
   1  -7   9   22827    1367   1
   2  -7   9     560     820   1
   3  -7   9   74132    2986   1
  -4   7   5   38132    2636  -2
   4  -7   9   38132    2636   1
   4   6   0   58437    2815  -2
  -4  -6   9   58437    2815   1
  -3  -6   9   97423    3414   1
  -2  -6   9   19801    1306   1
  -1  -6   9   36595    1788   1
   0   6   3   88022    2861  -2
   0  -6   9   88022    2861   1
   1  -6   9   80323    3394   1
   2  -6   9    3089    1003   1
   3  -6   9   63454    2671   1
  -4   6   6   57343    3189  -2
   4  -6   9   57343    3189   1
   5  -6   9   32421    2479   1
  -5  -5   9    6034    1282   1
   4   5   1   46662    3289  -2
  -4  -5   9   46662    3289   1
  -3  -5   9   36638    2789   1
  -2  -5   9   37938    1724   1
  -1  -5   9    2064     644   1
   0   5   4   40634    1610  -2
   0  -5   9   40634    1610   1
   1  -5   9  112069    3829   1
   2  -5   9   43332    2096   1
   3  -5   9    8502    1292   1
  -4   5   7   69455    3801  -2
   4  -5   9   69455    3801   1
   5  -5   9   28022    2255   1
  -6  -4   9   65723    4272   1
  -5  -4   9   54228    3208   1
   4   4   2   30643    2396  -2
  -4  -4   9   30643    2396   1
  -3  -4   9   29922    2309   1
  -2  -4   9  146251    6023   1
  -1  -4   9   53562    1883   1
   0   4   5   13733    1717  -2
   0  -4   9   13733    1717   1
   1  -4   9   76794    2869   1
   2  -4   9   76605    2919   1
   3  -4   9   29749    2401   1
  -4   4   8    7214    1413  -2
   4  -4   9    7214    1413   1
   5  -4   9   22476    2040   1
  -7  -3   9     887    2267   1
  -6  -3   9   20227    2039   1
  -5  -3   9   95967    4513   1
   4   3   3  115302    4352  -2
  -4  -3   9  115302    4352   1
  -3  -3   9    2008    1280   1
  -2  -3   9   48306    1949   1
  -1  -3   9   84821    2971   1
   0   3   6   24980    1276  -2
   0  -3   9   24980    1276   1
   1  -3   9   36049    2393   1
   2  -3   9   84426    3305   1
   3  -3   9   64626    2655   1
  -4   3   9   11341    1883  -2
   4  -3   9   11341    1883   1
  -7  -2   9   51702    2374   1
  -6  -2   9    1959     977   1
  -5  -2   9   71611    3366   1
   4   2   4  127223    5583  -2
  -4  -2   9  127223    5583   1
  -3  -2   9   15611    1145   1
  -2  -2   9   26299    1659   1
  -1  -2   9   91664    3687   1
   0   2   7   53218    1945  -2
   0  -2   9   53218    1945   1
   1  -2   9     434     741   1
   2  -2   9   44856    1885   1
   3  -2   9   50730    2904   1
  -4   2  10   16437    2075  -2
   4  -2   9   16437    2075   1
  -7  -1   9   33373    2471   1
  -6  -1   9    5719     794   1
  -5  -1   9   12534    1041   1
   4   1   5   56728    2303  -2
  -4  -1   9   56728    2303   1
  -3  -1   9   33388    2441   1
  -2  -1   9   27300    5755   1
  -1  -1   9   74761    3008   1
   0   1   8  114702    3828  -2
   0  -1   9  114702    3828   1
   1  -1   9    9854    1296   1
   2  -1   9    2029    1196   1
   3  -1   9   51302    4155   1
  -4   1  11   70391    3340  -2
   4  -1   9   70391    3340   1
  -7   0   9   30100    1772   1
  -6   0   9   92743    3818   1
  -5   0   9   12035    1068   1
   4   0   6   51314    2165  -2
  -4   0   9   51314    2165   1
  -3   0   9  112506    3444   1
  -2   0   9   55774    1895   1
  -1   0   9    8012    2117   1
   0   0   9    2832     757  -2
   0   0   9    2832     757   1
   1   0   9   61721    2822   1
   2   0   9   24806    1702   1
   3   0   9   20601    1816   1
  -7   1   9   28761    1875   1
  -6   1   9  100020    4071   1
  -5   1   9   33767    2082   1
   4  -1   7    6563     817  -2
  -4   1   9    6563     817   1
  -3   1   9   57544    2105   1
  -2   1   9   88582    2660   1
  -1   1   9   53438    1889   1
   0  -1  10   39823    1766  -2
   0   1   9   39823    1766   1
   1   1   9  131899    4936   1
   2   1   9   22066    1664   1
  -7   2   9    -972     972   1
  -6   2   9   48665    2610   1
  -5   2   9   35521    2187   1
   4  -2   8   12790    1119  -2
  -4   2   9   12790    1119   1
  -3   2   9    8402    1002   1
  -2   2   9   60964    2287   1
  -1   2   9   17401    1247   1
   0  -2  11   14049    1408  -2
   0   2   9   14049    1408   1
   1   2   9   30847    1978   1
  -6   3   9    4124    1263   1
  -5   3   9   27058    2079   1
   4  -3   9   58176    2475  -2
  -4   3   9   58176    2475   1
  -3   3   9     793     848   1
  -2   3   9   28886    1584   1
  -1   3   9   49953    3465   1
   4  -4  10   47703    2470  -2
  -4   4   9   47703    2470   1
   0   8   2   51772    2574  -2
   0  -8  10   51772    2574   1
   1  -8  10    1348    1098   1
  -2  -7  10    1962    1160   1
  -1  -7  10   22841    1904   1
   0   7   3   74175    3549  -2
   0  -7  10   74175    3549   1
   1  -7  10    5977    1138   1
   2  -7  10    2585    1141   1
   3  -7  10   19209    1637   1
   4   6   1   27834    2595  -2
  -4  -6  10   27834    2595   1
  -3  -6  10   67858    3085   1
  -2  -6  10   45765    2459   1
  -1  -6  10    8525    1337   1
   0   6   4   73223    3398  -2
   0  -6  10   73223    3398   1
   1  -6  10   77111    3365   1
   2  -6  10   33614    2015   1
   3  -6  10   14574    1543   1
  -5  -5  10   51562    3227   1
   4   5   2   20519    2207  -2
  -4  -5  10   20519    2207   1
  -3  -5  10   41620    2234   1
  -2  -5  10   38972    2223   1
  -1  -5  10    1957    1073   1
   0   5   5   63550    2564  -2
   0  -5  10   63550    2564   1
   1  -5  10  137313    4679   1
   2  -5  10   40828    2144   1
   3  -5  10    6446    1250   1
  -4   5   8   50678    3170  -2
   4  -5  10   50678    3170   1
  -5  -4  10   49019    4807   1
   4   4   3   10094    1099  -2
  -4  -4  10   10094    1099   1
  -3  -4  10   13554    1799   1
  -2  -4  10  145761    6487   1
  -1  -4  10   38709    1886   1
   0   4   6   28451    1661  -2
   0  -4  10   28451    1661   1
   1  -4  10   44819    2184   1
   2  -4  10   46261    2238   1
   3  -4  10   13860    2920   1
  -4   4   9   14275    1746  -2
   4  -4  10   14275    1746   1
  -6  -3  10   19095    1804   1
  -5  -3  10   63742    4055   1
   4   3   4   62404    3423  -2
  -4  -3  10   62404    3423   1
  -3  -3  10   12958    1802   1
  -2  -3  10   67393    3688   1
  -1  -3  10   27092    1600   1
   0   3   7   27142    1629  -2
   0  -3  10   27142    1629   1
   1  -3  10    3899     993   1
   2  -3  10   68504    2814   1
   3  -3  10   69612    4025   1
  -6  -2  10    5446    1248   1
  -5  -2  10   40224    2487   1
   4   2   5  110909   10249  -2
  -4  -2  10  110909   10249   1
  -3  -2  10   65633    3528   1
  -2  -2  10    3662     796   1
  -1  -2  10   28494    1871   1
   0   2   8   40390    1975  -2
   0  -2  10   40390    1975   1
   1  -2  10     961    1031   1
   2  -2  10   38405    3122   1
   3  -2  10   48701    5159   1
  -7  -1  10   59514    3687   1
  -6  -1  10    5234     950   1
  -5  -1  10   18442    1970   1
   4   1   6  114732    4048  -2
  -4  -1  10  114732    4048   1
  -3  -1  10   68802    2892   1
  -2  -1  10   11971    1169   1
  -1  -1  10   23350    2152   1
   0   1   9  118923    4041  -2
   0  -1  10  118923    4041   1
   1  -1  10   38335    1999   1
   2  -1  10    5537    1192   1
  -7   0  10   19210    2218   1
  -6   0  10   26894    1883   1
  -5   0  10    1560     957   1
   4   0   7   26611    1664  -2
  -4   0  10   26611    1664   1
  -3   0  10   52872    2375   1
  -2   0  10   40306    1825   1
  -1   0  10   34806    2123   1
   0   0  10  101719    3515  -2
   0   0  10  101719    3515   1
   1   0  10   20675    1534   1
  -6   1  10   52054    2735   1
  -5   1  10   42571    2447   1
   4  -1   8    4356    1150  -2
  -4   1  10    4356    1150   1
  -3   1  10   45194    1879   1
  -2   1  10   61114    2153   1
  -1   1  10   18597    1225   1
   0  -1  11    8336    1256  -2
   0   1  10    8336    1256   1
  -5   2  10   65260    3172   1
   4  -2   9    6842    1344  -2
  -4   2  10    6842    1344   1
  -3   2  10   14682    1280   1
  -2   2  10   54304    2247   1
  -1   2  10   42239    2360   1
   0   7   4   79535    3760  -2
   0  -7  11   79535    3760   1
  -2  -6  11   52821    2824   1
  -1  -6  11    1846    1200   1
   0   6   5   45701    2704  -2
   0  -6  11   45701    2704   1
   1  -6  11   52126    3386   1
   2  -6  11   26978    1890   1
   4   5   3   12919    1965  -2
  -4  -5  11   12919    1965   1
  -3  -5  11  100763    5174   1
  -2  -5  11   56178    2887   1
  -1  -5  11    4294    1273   1
   0   5   6   29315    2141  -2
   0  -5  11   29315    2141   1
   1  -5  11   66741    2856   1
   2  -5  11   47368    2492   1
   4   4   4    1524     927  -2
  -4  -4  11    1524     927   1
  -3  -4  11    6036    1754   1
  -2  -4  11   25664    2599   1
  -1  -4  11   28231    2038   1
   0   4   7   11116    1234  -2
   0  -4  11   11116    1234   1
   1  -4  11   51849    2426   1
   2  -4  11   68307    2942   1
  -5  -3  11   67551    3996   1
   4   3   5   43667    3501  -2
  -4  -3  11   43667    3501   1
  -3  -3  11    7838    1242   1
  -2  -3  11   44317    4283   1
  -1  -3  11   49453    3530   1
   0   3   8   20212    1840  -2
   0  -3  11   20212    1840   1
   1  -3  11    8356    1492   1
   2  -3  11   53714    3542   1
  -5  -2  11   19360    1461   1
   4   2   6   92363    3577  -2
  -4  -2  11   92363    3577   1
  -3  -2  11   73192    3961   1
  -2  -2  11    1691    1374   1
  -1  -2  11   53746    2712   1
   0   2   9   45506    2542  -2
   0  -2  11   45506    2542   1
   1  -2  11    2825    1591   1
  -5  -1  11    5780    1125   1
   4   1   7   94838    3606  -2
  -4  -1  11   94838    3606   1
  -3  -1  11   65542    2911   1
  -2  -1  11    5316    1194   1
  -1  -1  11   12481    1280   1
   0   1  10   47957    2042  -2
   0  -1  11   47957    2042   1
  -5   0  11     979    1082   1
   4   0   8   25600    2535  -2
  -4   0  11   25600    2535   1
  -3   0  11   34480    2065   1
  -2   0  11   29193    1774   1
  -1   0  11    5137     963   1
   4  -1   9   15441    1719  -2
  -4   1  11   15441    1719   1
  -3   1  11   37511    2441   1
  -2  -4  12   16223    2435   1
  -1  -4  12   42576    3599   1
  -3  -3  12    4343    1468   1
  -2  -3  12   63427    3881   1
  -1  -3  12   85071    3906   1
  -3  -2  12   10679    1578   1
  -2  -2  12   14743    1953   1
;
_shelx_hkl_checksum              16895
loop_
_space_group_symop_operation_xyz
'x, y, z'
'-x, -y, -z'
loop_
_atom_site_label
_atom_site_type_symbol
_atom_site_fract_x
_atom_site_fract_y
_atom_site_fract_z
_atom_site_U_iso_or_equiv
_atom_site_adp_type
_atom_site_occupancy
_atom_site_site_symmetry_order
_atom_site_calc_flag
_atom_site_refinement_flags_posn
_atom_site_refinement_flags_adp
Se1 Se 0.35969(6) 0.58907(6) 0.50961(5) 0.0104(2) Uani 1 1 d . .
B1 B 0.5090(8) 0.5016(8) 0.6477(7) 0.0123(12) Uani 1 1 d . .
C1_1 C 0.6472(7) 0.6729(7) 0.8079(6) 0.0123(11) Uani 1 1 d . .
C2_1 C 0.7898(8) 0.8263(7) 0.7823(7) 0.0188(12) Uani 1 1 d . .
H2A_1 H 0.857423 0.935187 0.878352 0.028 Uiso 1 1 calc R U
H2B_1 H 0.727274 0.863682 0.710355 0.028 Uiso 1 1 calc R U
H2C_1 H 0.875106 0.777518 0.742062 0.028 Uiso 1 1 calc R U
C3_1 C 0.7557(8) 0.6045(8) 0.9055(6) 0.0201(13) Uani 1 1 d . .
H3A_1 H 0.836213 0.710265 1.000286 0.030 Uiso 1 1 calc R U
H3B_1 H 0.829469 0.550900 0.851144 0.030 Uiso 1 1 calc R U
H3C_1 H 0.670582 0.508850 0.927150 0.030 Uiso 1 1 calc R U
C4_1 C 0.5392(8) 0.7629(8) 0.8988(7) 0.0197(13) Uani 1 1 d . .
H4A_1 H 0.623669 0.862937 0.995190 0.030 Uiso 1 1 calc R U
H4B_1 H 0.449558 0.667774 0.917767 0.030 Uiso 1 1 calc R U
H4C_1 H 0.475645 0.815534 0.841551 0.030 Uiso 1 1 calc R U
C1_2 C 0.3727(8) 0.3225(7) 0.6688(6) 0.0130(11) Uani 1 1 d . .
N1_2 N 0.4071(7) 0.1729(6) 0.6748(5) 0.0144(10) Uani 1 1 d . .
C2_2 C 0.2541(8) 0.0421(8) 0.6794(7) 0.0195(12) Uani 1 1 d . .
H2_2 H 0.242888 -0.075367 0.682248 0.023 Uiso 1 1 calc R U
N2_2 N 0.1991(6) 0.2851(6) 0.6736(5) 0.0142(10) Uani 1 1 d . .
C3_2 C 0.1247(8) 0.1114(8) 0.6793(7) 0.0188(12) Uani 1 1 d . .
H3_2 H 0.004740 0.052994 0.682429 0.023 Uiso 1 1 calc R U
C4_2 C 0.5791(8) 0.1473(8) 0.6918(7) 0.0181(12) Uani 1 1 d . .
H4A_2 H 0.553803 0.013873 0.642059 0.027 Uiso 1 1 calc R U
H4B_2 H 0.644378 0.193406 0.799179 0.027 Uiso 1 1 calc R U
H4C_2 H 0.654630 0.217236 0.645429 0.027 Uiso 1 1 calc R U
C5_2 C 0.0943(8) 0.4022(9) 0.6789(8) 0.0222(14) Uani 1 1 d . .
H5A_2 H 0.035496 0.403383 0.757912 0.033 Uiso 1 1 calc R U
H5B_2 H 0.000504 0.351623 0.581231 0.033 Uiso 1 1 calc R U
H5C_2 H 0.176520 0.530226 0.701059 0.033 Uiso 1 1 calc R U
loop_
_atom_site_aniso_label
_atom_site_aniso_U_11
_atom_site_aniso_U_22
_atom_site_aniso_U_33
_atom_site_aniso_U_23
_atom_site_aniso_U_13
_atom_site_aniso_U_12
Se1 0.0125(3) 0.0126(3) 0.0108(3) 0.0081(2) 0.0058(2) 0.0065(2)
B1 0.013(3) 0.012(3) 0.010(3) 0.005(2) 0.003(2) 0.003(2)
C1_1 0.017(3) 0.008(2) 0.011(3) 0.004(2) 0.004(2) 0.004(2)
C2_1 0.019(3) 0.012(3) 0.021(3) 0.007(2) 0.001(2) 0.001(2)
C3_1 0.024(3) 0.019(3) 0.011(3) 0.005(2) -0.002(2) 0.007(2)
C4_1 0.025(3) 0.017(3) 0.015(3) 0.004(2) 0.008(2) 0.006(2)
C1_2 0.019(3) 0.013(3) 0.006(2) 0.003(2) 0.003(2) 0.006(2)
N1_2 0.020(2) 0.015(2) 0.010(2) 0.0080(19) 0.0037(19) 0.0057(19)
C2_2 0.029(3) 0.013(3) 0.014(3) 0.007(2) 0.006(2) 0.004(2)
N2_2 0.013(2) 0.014(2) 0.017(2) 0.0086(19) 0.0050(19) 0.0047(18)
C3_2 0.022(3) 0.013(3) 0.019(3) 0.011(2) 0.002(2) 0.000(2)
C4_2 0.021(3) 0.017(3) 0.017(3) 0.007(2) 0.008(2) 0.008(2)
C5_2 0.021(3) 0.025(3) 0.035(4) 0.022(3) 0.016(3) 0.014(3)
loop_
_atom_type_symbol
_atom_type_description
_atom_type_scat_dispersion_real
_atom_type_scat_dispersion_imag
_atom_type_scat_source
C C 0.0033 0.0016 'International Tables Vol C Tables 4.2.6.8 and 6.1.1.4'
H H 0.0000 0.0000 'International Tables Vol C Tables 4.2.6.8 and 6.1.1.4'
B B 0.0013 0.0007 'International Tables Vol C Tables 4.2.6.8 and 6.1.1.4'
N N 0.0061 0.0033 'International Tables Vol C Tables 4.2.6.8 and 6.1.1.4'
Se Se -0.0929 2.2259 'International Tables Vol C Tables 4.2.6.8 and 6.1.1.4'
loop_
_exptl_crystal_face_index_h
_exptl_crystal_face_index_k
_exptl_crystal_face_index_l
_exptl_crystal_face_perp_dist
2.00 0.00 1.00 0.1260
-2.00 0.00 -1.00 0.1280
1.00 0.00 0.00 0.1340
2.00 -1.00 2.00 0.0830
-1.00 1.00 -2.00 0.1700
1.00 -1.00 2.00 0.0780
1.00 1.00 -2.00 0.2210
2.00 -1.00 1.00 0.0740
-1.00 2.00 -2.00 0.1730
1.00 -2.00 2.00 0.0420
0.00 1.00 -1.00 0.1970
0.00 -1.00 1.00 0.0920
2.00 -1.00 0.00 0.0800
-2.00 2.00 -1.00 0.1540
2.00 -2.00 1.00 0.0400
-1.00 2.00 -1.00 0.1680
-2.00 1.00 1.00 0.1820
2.00 -1.00 -1.00 0.1110
-1.00 2.00 0.00 0.1410
1.00 -2.00 0.00 0.0560
-1.00 2.00 1.00 0.1570
1.00 -2.00 -1.00 0.0660
loop_
_geom_angle_atom_site_label_1
_geom_angle_atom_site_label_2
_geom_angle_atom_site_label_3
_geom_angle
_geom_angle_site_symmetry_3
B1 Se1 B1 86.5(2) 2_666
C1_1 B1 C1_2 113.2(5) .
C1_1 B1 Se1 113.1(4) .
C1_2 B1 Se1 110.9(4) .
C1_1 B1 Se1 114.4(4) 2_666
C1_2 B1 Se1 110.2(4) 2_666
Se1 B1 Se1 93.5(2) 2_666
C3_1 C1_1 C4_1 108.0(5) .
C3_1 C1_1 C2_1 106.5(5) .
C4_1 C1_1 C2_1 108.4(5) .
C3_1 C1_1 B1 111.7(4) .
C4_1 C1_1 B1 110.6(5) .
C2_1 C1_1 B1 111.4(5) .
C1_1 C2_1 H2A_1 109.5 .
C1_1 C2_1 H2B_1 109.5 .
H2A_1 C2_1 H2B_1 109.5 .
C1_1 C2_1 H2C_1 109.5 .
H2A_1 C2_1 H2C_1 109.5 .
H2B_1 C2_1 H2C_1 109.5 .
C1_1 C3_1 H3A_1 109.5 .
C1_1 C3_1 H3B_1 109.5 .
H3A_1 C3_1 H3B_1 109.5 .
C1_1 C3_1 H3C_1 109.5 .
H3A_1 C3_1 H3C_1 109.5 .
H3B_1 C3_1 H3C_1 109.5 .
C1_1 C4_1 H4A_1 109.5 .
C1_1 C4_1 H4B_1 109.5 .
H4A_1 C4_1 H4B_1 109.5 .
C1_1 C4_1 H4C_1 109.5 .
H4A_1 C4_1 H4C_1 109.5 .
H4B_1 C4_1 H4C_1 109.5 .
N2_2 C1_2 N1_2 105.3(5) .
N2_2 C1_2 B1 127.9(5) .
N1_2 C1_2 B1 126.6(5) .
C1_2 N1_2 C2_2 110.1(5) .
C1_2 N1_2 C4_2 129.2(5) .
C2_2 N1_2 C4_2 120.3(5) .
C3_2 C2_2 N1_2 107.4(5) .
C3_2 C2_2 H2_2 126.3 .
N1_2 C2_2 H2_2 126.3 .
C1_2 N2_2 C3_2 110.3(5) .
C1_2 N2_2 C5_2 129.1(5) .
C3_2 N2_2 C5_2 120.6(5) .
C2_2 C3_2 N2_2 106.9(5) .
C2_2 C3_2 H3_2 126.6 .
N2_2 C3_2 H3_2 126.6 .
N1_2 C4_2 H4A_2 109.5 .
N1_2 C4_2 H4B_2 109.5 .
H4A_2 C4_2 H4B_2 109.5 .
N1_2 C4_2 H4C_2 109.5 .
H4A_2 C4_2 H4C_2 109.5 .
H4B_2 C4_2 H4C_2 109.5 .
N2_2 C5_2 H5A_2 109.5 .
N2_2 C5_2 H5B_2 109.5 .
H5A_2 C5_2 H5B_2 109.5 .
N2_2 C5_2 H5C_2 109.5 .
H5A_2 C5_2 H5C_2 109.5 .
H5B_2 C5_2 H5C_2 109.5 .
loop_
_geom_bond_atom_site_label_1
_geom_bond_atom_site_label_2
_geom_bond_distance
_geom_bond_site_symmetry_2
Se1 B1 2.098(6) .
Se1 B1 2.100(6) 2_666
B1 C1_1 1.639(8) .
B1 C1_2 1.641(8) .
C1_1 C3_1 1.536(8) .
C1_1 C4_1 1.537(7) .
C1_1 C2_1 1.543(7) .
C2_1 H2A_1 0.9800 .
C2_1 H2B_1 0.9800 .
C2_1 H2C_1 0.9800 .
C3_1 H3A_1 0.9800 .
C3_1 H3B_1 0.9800 .
C3_1 H3C_1 0.9800 .
C4_1 H4A_1 0.9800 .
C4_1 H4B_1 0.9800 .
C4_1 H4C_1 0.9800 .
C1_2 N2_2 1.353(8) .
C1_2 N1_2 1.357(7) .
N1_2 C2_2 1.383(7) .
N1_2 C4_2 1.459(8) .
C2_2 C3_2 1.337(9) .
C2_2 H2_2 0.9500 .
N2_2 C3_2 1.388(7) .
N2_2 C5_2 1.461(7) .
C3_2 H3_2 0.9500 .
C4_2 H4A_2 0.9800 .
C4_2 H4B_2 0.9800 .
C4_2 H4C_2 0.9800 .
C5_2 H5A_2 0.9800 .
C5_2 H5B_2 0.9800 .
C5_2 H5C_2 0.9800 .
loop_
_geom_torsion_atom_site_label_1
_geom_torsion_atom_site_label_2
_geom_torsion_atom_site_label_3
_geom_torsion_atom_site_label_4
_geom_torsion
_geom_torsion_site_symmetry_1
C1_2 B1 C1_1 C3_1 53.4(6) .
Se1 B1 C1_1 C3_1 -179.4(4) .
Se1 B1 C1_1 C3_1 -74.0(5) 2_666
C1_2 B1 C1_1 C4_1 -67.0(6) .
Se1 B1 C1_1 C4_1 60.2(5) .
Se1 B1 C1_1 C4_1 165.6(4) 2_666
C1_2 B1 C1_1 C2_1 172.3(5) .
Se1 B1 C1_1 C2_1 -60.5(5) .
Se1 B1 C1_1 C2_1 44.9(6) 2_666
C1_1 B1 C1_2 N2_2 95.4(6) .
Se1 B1 C1_2 N2_2 -32.9(7) .
Se1 B1 C1_2 N2_2 -135.1(5) 2_666
C1_1 B1 C1_2 N1_2 -89.6(6) .
Se1 B1 C1_2 N1_2 142.1(4) .
Se1 B1 C1_2 N1_2 39.9(6) 2_666
N2_2 C1_2 N1_2 C2_2 1.5(6) .
B1 C1_2 N1_2 C2_2 -174.5(5) .
N2_2 C1_2 N1_2 C4_2 -171.7(5) .
B1 C1_2 N1_2 C4_2 12.4(9) .
C1_2 N1_2 C2_2 C3_2 -1.1(6) .
C4_2 N1_2 C2_2 C3_2 172.7(5) .
N1_2 C1_2 N2_2 C3_2 -1.3(6) .
B1 C1_2 N2_2 C3_2 174.6(5) .
N1_2 C1_2 N2_2 C5_2 176.3(6) .
B1 C1_2 N2_2 C5_2 -7.8(9) .
N1_2 C2_2 C3_2 N2_2 0.3(7) .
C1_2 N2_2 C3_2 C2_2 0.6(7) .
C5_2 N2_2 C3_2 C2_2 -177.2(5) .
