#------------------------------------------------------------------------------
#$Date: 2020-02-04 05:13:16 +0200 (Tue, 04 Feb 2020) $
#$Revision: 247531 $
#$URL: file:///home/coder/svn-repositories/cod/cif/4/13/39/4133975.cif $
#------------------------------------------------------------------------------
#
# This file is available in the Crystallography Open Database (COD),
# http://www.crystallography.net/
#
# All data on this site have been placed in the public domain by the
# contributors.
#
data_4133975
loop_
_publ_author_name
'Bear, Joseph C.'
'Cockcroft, Jeremy K.'
'Williams, Jeffrey H.'
_publ_section_title
;
 Influence of Solvent in Crystal Engineering: A Significant Change to the
 Order-Disorder Transition in Ferrocene.
;
_journal_issue                   4
_journal_name_full               'Journal of the American Chemical Society'
_journal_page_first              1731
_journal_page_last               1734
_journal_paper_doi               10.1021/jacs.9b11895
_journal_volume                  142
_journal_year                    2020
_chemical_formula_moiety         'C10 H10 Fe, 2(C3 F3)'
_chemical_formula_sum            'C16 H10 F6 Fe'
_chemical_formula_weight         372.09
_chemical_name_systematic        Ferrocene:hexafluorobenzene
_space_group_crystal_system      triclinic
_space_group_IT_number           2
_space_group_name_Hall           '-P 1'
_space_group_name_H-M_alt        'P -1'
_atom_sites_solution_hydrogens   difmap
_atom_sites_solution_primary     dual
_audit_creation_date             2019-04-25
_audit_creation_method
;
Olex2 1.2
(compiled 2018.05.29 svn.r3508 for OlexSys, GUI svn.r5506)
;
_cell_angle_alpha                76.977(5)
_cell_angle_beta                 77.346(6)
_cell_angle_gamma                83.954(5)
_cell_formula_units_Z            2
_cell_length_a                   7.1990(4)
_cell_length_b                   9.2156(5)
_cell_length_c                   11.7675(8)
_cell_measurement_reflns_used    3577
_cell_measurement_temperature    295
_cell_measurement_theta_max      26.4030
_cell_measurement_theta_min      3.5530
_cell_volume                     740.85(8)
_computing_cell_refinement       'CrysAlisPro 1.171.39.46 (Rigaku OD, 2018)'
_computing_data_collection       'CrysAlisPro 1.171.39.46 (Rigaku OD, 2018)'
_computing_data_reduction        'CrysAlisPro 1.171.39.46 (Rigaku OD, 2018)'
_computing_molecular_graphics    'Olex2 (Dolomanov et al., 2009)'
_computing_publication_material  'Olex2 (Dolomanov et al., 2009)'
_computing_structure_refinement  'ShelXL (Sheldrick, 2015)'
_computing_structure_solution    'ShelXT (Sheldrick, 2015)'
_diffrn_ambient_environment      C6F6
_diffrn_ambient_temperature      295
_diffrn_detector                 'CCD plate'
_diffrn_detector_area_resol_mean 5.2031
_diffrn_detector_type            Atlas
_diffrn_measured_fraction_theta_full 0.998
_diffrn_measured_fraction_theta_max 0.998
_diffrn_measurement_details
;
List of Runs (angles in degrees, time in seconds):

  # Type    Start    End  Width  t~exp~   \w     \q     \k     \f   Frames
--------------------------------------------------------------------------
  1  \w    -14.00  43.00   1.00    1.25    --   11.17 -77.00   0.00   57
  2  \w    -16.00  81.00   1.00    1.25    --   11.17  57.00 -30.00   97
  3  \w    -17.00  87.00   1.00    1.25    --   11.17  77.00  90.00  104
  4  \w    -57.00  39.00   1.00    1.25    --   11.17 -57.00-180.00   96
  5  \w      5.00  85.00   1.00    1.25    --   11.17  38.00-120.00   80
  6  \w      7.00  72.00   1.00    1.25    --   11.17-133.00 -21.95   65
  7  \w    -19.00  52.00   1.00    1.25    --   11.17 -99.00 120.00   71
  8  \w    -63.00 -27.00   1.00    1.25    --   11.17 -77.00   0.00   36
;
_diffrn_measurement_device       'four-circle diffractometer'
_diffrn_measurement_device_type  'SuperNova, Dual, Cu at home/near, Atlas'
_diffrn_measurement_method       '\w scans'
_diffrn_orient_matrix_type
'CrysAlisPro convention (1999,Acta A55,543-557)'
_diffrn_orient_matrix_UB_11      0.0214814000
_diffrn_orient_matrix_UB_12      -0.0756251000
_diffrn_orient_matrix_UB_13      0.0255150000
_diffrn_orient_matrix_UB_21      -0.0291288000
_diffrn_orient_matrix_UB_22      0.0158492000
_diffrn_orient_matrix_UB_23      0.0577585000
_diffrn_orient_matrix_UB_31      -0.0944589000
_diffrn_orient_matrix_UB_32      -0.0170961000
_diffrn_orient_matrix_UB_33      0.0016288000
_diffrn_radiation_monochromator  mirror
_diffrn_radiation_probe          x-ray
_diffrn_radiation_type           MoK\a
_diffrn_radiation_wavelength     0.71073
_diffrn_reflns_av_R_equivalents  0.0420
_diffrn_reflns_av_unetI/netI     0.0359
_diffrn_reflns_Laue_measured_fraction_full 0.998
_diffrn_reflns_Laue_measured_fraction_max 0.998
_diffrn_reflns_limit_h_max       8
_diffrn_reflns_limit_h_min       -8
_diffrn_reflns_limit_k_max       10
_diffrn_reflns_limit_k_min       -10
_diffrn_reflns_limit_l_max       13
_diffrn_reflns_limit_l_min       -13
_diffrn_reflns_number            10414
_diffrn_reflns_point_group_measured_fraction_full 0.998
_diffrn_reflns_point_group_measured_fraction_max 0.998
_diffrn_reflns_theta_full        24.712
_diffrn_reflns_theta_max         24.712
_diffrn_reflns_theta_min         3.190
_diffrn_source                   'micro-focus sealed X-ray tube'
_diffrn_source_type              'SuperNova (Mo) X-ray Source'
_exptl_absorpt_coefficient_mu    1.077
_exptl_absorpt_correction_T_max  1.000
_exptl_absorpt_correction_T_min  0.254
_exptl_absorpt_correction_type   gaussian
_exptl_absorpt_process_details
;
CrysAlisPro 1.171.39.46 (Rigaku Oxford Diffraction, 2018)
Numerical absorption correction based on gaussian integration over
			a multifaceted crystal model
Empirical absorption correction using spherical harmonics,
 implemented in SCALE3 ABSPACK scaling algorithm.
;
_exptl_crystal_colour            'clear dark orange'
_exptl_crystal_colour_lustre     clear
_exptl_crystal_colour_modifier   dark
_exptl_crystal_colour_primary    orange
_exptl_crystal_density_diffrn    1.668
_exptl_crystal_description       block
_exptl_crystal_F_000             372
_exptl_crystal_preparation       'Ferrocene dissolved in hot C6F6'
_exptl_crystal_recrystallization_method
'Crystals grown using C6F6 as solvent in an NMR tube stood in hot water'
_exptl_crystal_size_max          0.722
_exptl_crystal_size_mid          0.389
_exptl_crystal_size_min          0.2
_refine_diff_density_max         0.299
_refine_diff_density_min         -0.200
_refine_diff_density_rms         0.059
_refine_ls_extinction_coef       0.046(3)
_refine_ls_extinction_expression Fc^*^=kFc[1+0.001xFc^2^\l^3^/sin(2\q)]^-1/4^
_refine_ls_extinction_method     'SHELXL-2014/7 (Sheldrick 2014'
_refine_ls_goodness_of_fit_ref   1.046
_refine_ls_hydrogen_treatment    refall
_refine_ls_matrix_type           full
_refine_ls_number_parameters     249
_refine_ls_number_reflns         2534
_refine_ls_number_restraints     0
_refine_ls_restrained_S_all      1.046
_refine_ls_R_factor_all          0.0557
_refine_ls_R_factor_gt           0.0404
_refine_ls_shift/su_max          0.000
_refine_ls_shift/su_mean         0.000
_refine_ls_structure_factor_coef Fsqd
_refine_ls_weighting_details
'w=1/[\s^2^(Fo^2^)+(0.0449P)^2^+0.2314P] where P=(Fo^2^+2Fc^2^)/3'
_refine_ls_weighting_scheme      calc
_refine_ls_wR_factor_gt          0.0963
_refine_ls_wR_factor_ref         0.1095
_reflns_Friedel_coverage         0.000
_reflns_number_gt                1905
_reflns_number_total             2534
_reflns_threshold_expression     'I > 2\s(I)'
_cod_data_source_file            ja9b11895_si_002.cif
_cod_data_source_block           exp_1338
_cod_depositor_comments
'Adding full bibliography for 4133967--4133980.cif.'
_cod_database_code               4133975
_shelx_shelxl_version_number     2014/7
_chemical_oxdiff_formula         'Fe C16 H10 F6'
_chemical_oxdiff_usercomment     'In capillary'
_shelx_space_group_comment
;
The symmetry employed for this shelxl refinement is uniquely defined
by the following loop, which should always be used as a source of
symmetry information in preference to the above space-group names.
They are only intended as comments.
;
_shelx_estimated_absorpt_t_max   0.813
_shelx_estimated_absorpt_t_min   0.510
_reflns_odcompleteness_completeness 99.83
_reflns_odcompleteness_iscentric 1
_reflns_odcompleteness_theta     26.32
_olex2_refinement_description
;
;
_shelx_res_file
;
    exp_1338.res created by SHELXL-2014/7

TITL exp_1338 in P-1
REM P-1 (#2 in standard setting)
CELL 0.71073 7.199039 9.215556 11.767541 76.9773 77.3455 83.9536
ZERR 2 0.000447 0.000547 0.000807 0.0054 0.0056 0.005
LATT 1
SFAC C H F Fe
UNIT 32 20 12 2

L.S. 10 0 0
PLAN  1
SIZE 0.2 0.389 0.722
TEMP 21.85
BOND $H
CONF
list 4
fmap 2 53
acta
SHEL 50 0.85
REM <olex2.extras>
REM <HklSrc "%.\\exp_1338.hkl">
REM </olex2.extras>

WGHT    0.044900    0.231400
EXTI    0.045748
FVAR       8.76316
FE1   4    0.242414    0.497103    0.251444    11.00000    0.06034    0.04725 =
         0.05208   -0.00526   -0.01734    0.00261
C7    1    0.311602    0.677862    0.121988    11.00000    0.07814    0.09701 =
         0.14179    0.06429   -0.03682   -0.02741
H7    2    0.412772    0.696478    0.105105    11.00000    0.10146
C8    1    0.234774    0.573797    0.077841    11.00000    0.11385    0.09112 =
         0.05631   -0.00059   -0.01517    0.02818
H8    2    0.298723    0.525336    0.024820    11.00000    0.12326
C9    1    0.056110    0.552875    0.140223    11.00000    0.09752    0.07871 =
         0.08389   -0.00698   -0.05018    0.00067
H9    2   -0.030294    0.485344    0.128245    11.00000    0.12147
C10   1    0.016096    0.640646    0.223874    11.00000    0.08250    0.08993 =
         0.07453   -0.00698   -0.02178    0.02804
H10   2   -0.107670    0.640485    0.279418    11.00000    0.12961
C11   1    0.170516    0.717798    0.213703    11.00000    0.15554    0.04828 =
         0.10616   -0.01270   -0.07568    0.01194
H11   2    0.188873    0.774188    0.262457    11.00000    0.10102
C12   1    0.473248    0.408395    0.318299    11.00000    0.06202    0.10655 =
         0.12990    0.04186   -0.04591   -0.01167
H12   2    0.574581    0.446042    0.297267    11.00000    0.10074
C13   1    0.403312    0.303847    0.269467    11.00000    0.10488    0.07849 =
         0.07415   -0.00771   -0.01432    0.04343
H13   2    0.466942    0.261731    0.208987    11.00000    0.10222
C14   1    0.221762    0.277959    0.329549    11.00000    0.10511    0.05089 =
         0.07895   -0.00238   -0.02946   -0.00359
H14   2    0.138413    0.210326    0.315329    11.00000    0.13115
C15   1    0.175473    0.363192    0.415872    11.00000    0.08385    0.07373 =
         0.05989    0.00200   -0.01098    0.00411
H15   2    0.050522    0.370575    0.463550    11.00000    0.11053
C16   1    0.326887    0.443372    0.409682    11.00000    0.11240    0.07173 =
         0.07920   -0.00622   -0.05479    0.00153
H16   2    0.337459    0.512942    0.448458    11.00000    0.13505
F1    3    0.368286    0.995827   -0.113684    11.00000    0.07555    0.12383 =
         0.11684   -0.01011    0.00882    0.00287
F2    3    0.127744    0.814861   -0.152914    11.00000    0.14434    0.08385 =
         0.08282   -0.03424   -0.02019    0.02308
F3    3   -0.239006    0.818756   -0.038709    11.00000    0.12033    0.10707 =
         0.14266   -0.02943   -0.04307   -0.03374
C1    1    0.185288    0.997577   -0.058150    11.00000    0.06357    0.06582 =
         0.06662    0.00182   -0.00475    0.00770
C2    1    0.063659    0.907280   -0.077696    11.00000    0.08940    0.04988 =
         0.05767   -0.00855   -0.01804    0.01108
C3    1   -0.120445    0.909452   -0.020065    11.00000    0.07747    0.05791 =
         0.07858    0.00020   -0.02665   -0.00974
F4    3    0.787530    0.156910    0.511005    11.00000    0.11793    0.12255 =
         0.17417   -0.01259   -0.05873   -0.04806
F5    3    0.437916    0.198998    0.642875    11.00000    0.19079    0.08775 =
         0.09705   -0.04230   -0.04826    0.02517
F6    3    0.149619    0.042864    0.630592    11.00000    0.08257    0.13763 =
         0.10841    0.00515    0.01252    0.02283
C4    1    0.644639    0.078894    0.505642    11.00000    0.07588    0.06174 =
         0.08175    0.00410   -0.02994   -0.01320
C5    1    0.469551    0.099734    0.572439    11.00000    0.10051    0.05163 =
         0.06114   -0.00958   -0.02624    0.00701
C6    1    0.324280    0.021173    0.567158    11.00000    0.06798    0.06885 =
         0.06429    0.00479   -0.00563    0.01567
HKLF 4

REM  exp_1338 in P-1
REM R1 =  0.0404 for    1905 Fo > 4sig(Fo)  and  0.0557 for all    2534 data
REM    249 parameters refined using      0 restraints

END

WGHT      0.0449      0.2308

REM Highest difference peak  0.299,  deepest hole -0.200,  1-sigma level  0.059
Q1    1   0.6338  0.1857  0.5746  11.00000  0.05    0.30
;
_shelx_res_checksum              94651
_shelx_hkl_file
;
   0   0  -2 9100.81 411.920   1
   0   0   2 10337.1 423.363   1
   0   0   2 8878.35 440.618   3
   0   0  -2 9740.40 445.434   3
   0   0   2 8592.56 446.455   4
   0   0  -3 3.11408 27.1391   1
   0   0  -3-2.75813 50.9226   3
   0   0   3 109.072 73.6969   3
   0   0  -3 12.3307 46.1336   4
   0   0   3-39.3638 46.0712   4
   0   0   4 10731.6 968.978   5
   0   0   4 9619.99 657.621   3
   0   0  -4 11062.1 634.266   3
   0   0   4 10067.0 677.455   4
   0   0  -4 9117.98 580.939   1
   0   0  -4 9382.93 636.038   4
   0   0   5 3860.00 679.835   5
   0   0  -5 4956.98 467.344   3
   0   0  -5 4862.09 510.674   4
   0   0  -5 3991.66 418.386   1
   0   0   5 4811.83 527.929   3
   0   0   5 4575.15 513.480   4
   0   0   6 58917.4 3004.91   5
   0   0  -6 67350.9 2320.67   4
   0   0   6 68219.6 2395.67   4
   0   0  -6 64649.0 2104.98   1
   0   0  -6 75380.5 2206.09   3
   0   0   6 68791.6 2446.71   3
   0   0  -7 105.681 70.4157   3
   0   0  -7 285.243 148.275   1
   0   0   7 149.527 106.117   3
   0   0   7 21.7752 104.354   4
   0   0  -7 282.284 188.501   4
   0   0  -8 27045.6 1449.46   1
   0   0  -8 25439.4 2058.00   5
   0   0   8 28275.2 1784.39   3
   0   0  -8 28967.8 1634.34   4
   0   0  -8 31720.7 1496.60   3
   0   0   9-359.836 206.127   4
   0   0   9 115.515 125.679   3
   0   0  -9 56.8380 99.5449   3
   0   0   9-92.7753 210.410   2
   0   0  -9-37.6068 88.9268   4
   0   0  10 13479.6 1303.38   2
   0   0  10 14286.4 1377.01   4
   0   0  10 13767.1 1408.78   3
   0   0 -10 16146.1 1131.31   3
   0   0  11-51.6001 151.606   2
   0   0  11 351.983 154.592   4
   0   0 -11 118.531 83.6169   3
   0   0  12 7860.85 1100.49   2
   0   0 -12 8606.29 890.484   3
   0   0  13 337.283 231.962   2
   0   0 -13 409.263 222.407   3
   0   0 -14 473.973 246.308   3
   0   0  14 479.456 332.475   2
   0   0 -15 18.3068 57.3115   3
   0   1 -14 913.503 315.656   3
   0  -1  14 514.720 318.159   2
   0  -1  13 185.701 171.471   2
   0   1 -13 71.1535 80.2155   3
   0   1 -12 4115.08 627.461   3
   0  -1  12 3405.08 725.163   2
   0   1 -11 95.6736 223.882   4
   0   1 -11 215.552 89.5716   3
   0  -1  11 211.656 179.064   4
   0  -1  11-18.5995 164.054   3
   0   1 -10 6599.62 722.012   3
   0   1 -10 6598.86 852.985   4
   0  -1  10 5304.82 871.794   3
   0  -1  10 5689.19 856.098   4
   0  -1   9 333.458 197.999   3
   0   1  -9 327.117 205.702   4
   0  -1   9 230.893 211.039   4
   0   1  -9 3.37943 85.2831   3
   0   1  -8 877.160 238.011   3
   0  -1   8 834.734 300.742   3
   0   1  -8 830.893 237.462   1
   0  -1   8 817.333 434.880   5
   0   1  -8 720.643 347.861   5
   0   1  -8 762.133 252.883   4
   0   1  -7-39.3873 191.278   4
   0   1  -7 96.4530 166.301   5
   0   1  -7 2.75567 147.487   3
   0  -1   7-109.662 123.624   4
   0   1  -7-144.452 136.046   1
   0  -1   7-93.0182 221.479   5
   0  -1   7 118.407 111.346   1
   0  -1   7 113.589 86.7691   3
   0  -1   6 50272.9 1835.75   1
   0   1  -6 48225.9 1862.03   1
   0  -1   6 46711.9 2009.51   3
   0  -1   6 47352.7 2686.61   5
   0  -1   6 48844.3 2012.08   4
   0   1  -6 52669.8 1997.91   4
   0   1  -5 637.647 186.446   1
   0  -1   5 502.544 303.892   5
   0  -1   5 718.748 203.869   3
   0   1  -5 1001.78 239.148   4
   0   1  -5 851.082 195.451   3
   0  -1   5 950.671 252.880   4
   0  -1   5 660.053 189.909   1
   0   1  -4 36089.6 1284.69   3
   0  -1   4 34115.7 1833.38   5
   0  -1   4 34444.8 1377.89   3
   0  -1   4 32628.5 1369.29   4
   0   1  -4 35673.1 1378.97   4
   0  -1   4 35440.3 1306.36   1
   0   1  -4 33866.3 1319.60   1
   0   1  -3-99.2651 131.056   5
   0  -1   3 120.977 85.2302   4
   0  -1   3 29.5384 51.3334   3
   0  -1   3 248.677 152.653   5
   0  -1   3 26.9140 61.1710   1
   0   1  -3 13.0121 57.4750   4
   0   1  -3 104.800 66.7548   1
   0   1  -3-5.09243 70.2996   3
   0   1  -2 552345. 9007.40   4
   0  -1   2 542171. 9373.24   5
   0   1  -2 547020. 8923.37   3
   0  -1   2 534245. 8970.51   1
   0  -1   2 544920. 9055.50   4
   0   1  -1 113.805 54.0199   5
   0  -1  -2 447782. 7988.47   2
   0   1   2 469015. 8104.82   2
   0   1   3 576.502 179.276   4
   0  -1  -3 527.408 156.747   3
   0   1   3 806.893 218.298   2
   0   1   3 172.070 56.2745   3
   0  -1  -3 412.477 154.665   2
   0   1   4 230873. 4965.96   4
   0   1   4 229943. 5034.34   2
   0  -1  -4 246103. 4671.62   3
   0   1   4 244776. 4917.53   3
   0  -1  -5 3954.52 428.322   3
   0   1   5 3586.46 476.758   2
   0   1   5 3667.24 464.417   3
   0   1   5 2907.52 413.021   4
   0   1   6 115835. 3358.19   4
   0  -1  -6 113642. 2946.87   3
   0   1   6 112278. 3377.23   2
   0  -1  -6 113700. 2926.35   1
   0   1   6 114721. 3329.47   3
   0  -1  -7 19347.6 1081.96   3
   0   1   7 16048.0 1200.28   4
   0   1   7 18260.5 1277.95   3
   0  -1  -7 18275.8 1066.29   1
   0   1   7 18341.2 1306.71   2
   0  -1  -8 72325.0 3710.16   5
   0  -1  -8 71139.8 2433.75   1
   0   1   8 65424.9 2817.58   3
   0   1   8 66960.2 2830.97   2
   0  -1  -8 71416.0 2384.82   3
   0   1   9 64.8034 209.032   2
   0   1   9-97.8417 180.510   3
   0  -1  -9 14.9903 62.7647   1
   0   1   9-72.6793 190.257   4
   0  -1  -9 113.198 105.317   3
   0  -1 -10 5130.91 669.243   1
   0  -1 -10 5994.93 697.767   3
   0   1  10 4355.73 786.453   3
   0   1  10 6331.43 910.985   2
   0   1  10 5859.73 878.790   4
   0  -1 -11 835.160 290.575   3
   0   1  11 482.806 317.344   2
   0   1  11 424.164 192.675   4
   0   1  12 2654.56 659.519   2
   0  -1 -12 4111.63 640.037   3
   0   1  13 663.327 385.952   2
   0  -1 -13 550.505 294.537   3
   0   1  14 2827.50 775.623   2
   0  -1 -14 2466.21 523.754   3
   0  -1 -15 155.006 145.845   3
   0   2 -13 596.568 336.506   4
   0   2 -13 102.564 127.489   3
   0   2 -12 2074.01 434.733   3
   0   2 -12 2429.32 585.516   4
   0  -2  11 44.6680 114.692   4
   0   2 -11 101.695 87.8606   4
   0   2 -11 208.913 150.731   3
   0   2 -10 6521.13 878.868   4
   0   2 -10 9495.64 896.652   3
   0  -2  10 7306.21 1388.72   5
   0  -2  10 8041.09 1085.13   4
   0   2  -9-234.667 168.894   3
   0   2  -9-38.3426 175.662   4
   0  -2   9 29.1865 56.0951   1
   0  -2   9 106.991 272.430   5
   0  -2   9 82.5158 130.389   4
   0  -2   8 10267.7 1471.07   5
   0   2  -8 11362.0 1046.28   4
   0   2  -8 12418.7 950.983   3
   0   2  -8 11339.0 1357.70   5
   0  -2   8 11221.0 971.329   1
   0  -2   8 9977.14 1053.51   4
   0  -2   7 1382.43 324.656   1
   0   2  -7 1802.60 384.702   4
   0   2  -7 1251.43 416.310   5
   0   2  -7 1269.90 298.237   3
   0  -2   7 1601.65 573.716   5
   0  -2   6 66162.8 2592.90   4
   0  -2   6 72581.7 3433.83   5
   0   2  -6 75373.0 2366.82   3
   0   2  -6 74033.1 2587.13   4
   0  -2   6 74487.8 2518.34   1
   0   2  -6 74538.2 3152.27   5
   0   2  -5 309.121 113.070   3
   0   2  -5 145.876 100.340   5
   0  -2   5 204.999 94.2949   5
   0   2  -5 416.463 160.041   4
   0  -2   5 99.7129 77.0525   1
   0  -2   5 288.133 102.447   4
   0   2  -4 65411.0 2155.84   4
   0  -2   4 60525.1 2485.93   5
   0   2  -4 65276.7 2020.50   3
   0  -2   4 61792.7 2182.77   4
   0   2  -4 60563.3 2407.75   5
   0  -2   4 63989.5 2103.84   1
   0  -2   3 8.16821 135.000   5
   0  -2   3 144.675 92.2144   4
   0   2  -3 84.1040 111.580   4
   0   2  -3-43.7008 101.194   3
   0   2  -3-11.5629 51.8184   5
   0  -2   3-21.5909 46.6113   1
   0   2  -2 406843. 7305.35   4
   0  -2   2 396802. 7346.90   4
   0   2  -2 383411. 7291.59   8
   0  -2   2 401793. 7449.33   5
   0   2  -2 392922. 7481.92   5
   0   2  -1 2.56572 46.4605   8
   0   2  -1 62.4991 58.5348   5
   0  -2   1 138.490 113.106   2
   0  -2   1 43.4240 75.5780   5
   0   2  -1 17.3920 65.9042   4
   0  -2   0 233371. 4564.15   8
   0   2   0 225762. 4675.11   2
   0  -2  -1 683.760 174.467   8
   0   2   1 744.134 200.735   2
   0  -2  -2 445681. 8912.17   2
   0   2   2 474374. 8970.91   2
   0  -2  -3 50.4074 78.4525   3
   0  -2  -3 85.1945 105.435   2
   0   2   3-58.1491 177.493   2
   0   2   4 897.088 278.439   2
   0   2   4 890.260 206.673   3
   0  -2  -4 1168.60 229.130   3
   0  -2  -4 899.772 239.645   2
   0  -2  -5 5759.04 640.515   2
   0  -2  -5 7198.38 618.514   3
   0   2   5 6370.31 625.047   3
   0   2   5 6412.94 681.226   4
   0   2   5 6486.97 763.734   2
   0   2   6 186179. 4678.15   3
   0   2   6 173811. 4947.27   2
   0   2   6 182797. 4820.95   4
   0   2   7-71.3439 184.311   2
   0   2   7-199.138 174.416   3
   0  -2  -7 125.697 173.261   3
   0   2   8 16251.4 1424.62   2
   0   2   8 19103.9 1442.45   3
   0  -2  -8 19252.7 1187.18   3
   0  -2  -8 17093.6 1800.35   5
   0  -2  -8 17852.2 1132.21   1
   0  -2  -9 874.986 259.426   1
   0   2   9 756.735 333.695   4
   0  -2  -9 910.551 288.166   3
   0   2   9 1441.19 521.293   2
   0   2   9 391.191 194.940   3
   0   2  10 4422.56 766.953   4
   0   2  10 4779.08 830.694   3
   0   2  10 3977.86 807.012   2
   0  -2 -10 5621.68 697.807   3
   0  -2 -11-8.49716 156.676   3
   0   2  11-6.95607 83.1532   4
   0   2  11 131.636 212.070   2
   0   2  12 9788.87 1357.99   2
   0  -2 -12 8993.47 953.788   3
   0   2  13-167.343 202.737   2
   0  -2 -13 155.419 183.562   3
   0   2  14 2732.83 781.389   2
   0  -2 -14 1835.33 485.774   3
   0  -2 -15 276.306 229.379   3
   0   3 -12 2490.85 494.087   3
   0   3 -12 2228.68 576.626   4
   0   3 -11-82.3991 161.916   3
   0   3 -11-46.0894 199.288   4
   0   3 -10 8348.82 1010.55   8
   0  -3  10 8753.16 977.689   1
   0   3 -10 8159.03 1019.02   4
   0  -3  10 7566.32 1104.92   4
   0   3 -10 10129.9 954.267   3
   0  -3  10 9328.62 1585.72   5
   0   3  -9 809.294 261.201   3
   0   3  -9 526.544 221.964   8
   0  -3   9 896.472 303.453   1
   0  -3   9 733.063 311.130   4
   0  -3   9 1207.54 680.697   5
   0   3  -9 670.801 279.646   4
   0   3  -8 13812.0 1051.15   3
   0  -3   8 14655.6 1785.59   5
   0  -3   8 13852.8 1168.37   1
   0  -3   8 14540.8 1375.11   4
   0   3  -8 14506.0 1258.15   4
   0   3  -7 210.036 127.822   5
   0  -3   7 949.181 443.689   5
   0   3  -7 583.329 230.158   4
   0  -3   7 563.588 239.822   1
   0  -3   7 715.627 286.438   4
   0   3  -7 284.982 95.6244   3
   0   3  -6 7630.45 998.649   5
   0   3  -6 8143.01 875.827   4
   0   3  -6 9107.30 809.389   3
   0  -3   6 9059.21 882.561   1
   0  -3   6 7702.52 1083.03   5
   0  -3   5 794.712 348.119   5
   0   3  -5-38.3012 191.232   8
   0   3  -5 819.749 230.208   3
   0   3  -5 1020.38 350.069   5
   0  -3   5 610.562 229.048   4
   0  -3   5 177.447 104.038   1
   0   3  -5 530.849 208.554   4
   0   3  -4 61810.8 2580.38   5
   0   3  -4 60837.1 2290.77   4
   0   3  -4 65441.8 2249.26   3
   0   3  -4 66040.7 2408.20   8
   0  -3   4 62976.5 2414.27   4
   0  -3   4 62486.8 2321.24   1
   0  -3   4 57477.3 2522.40   5
   0   3  -3 424.093 92.4979   6
   0  -3   3 549.069 261.216   5
   0   3  -3 394.335 135.679   8
   0  -3   3 572.733 223.821   4
   0  -3   3 782.059 235.286   1
   0  -3   3 933.635 271.215   2
   0   3  -3 455.507 191.872   4
   0   3  -3 503.432 208.615   5
   0  -3   2 20519.0 1170.05   5
   0   3  -2 20113.1 1159.74   4
   0  -3   2 20299.6 1278.48   2
   0   3  -2 20535.3 1137.40   8
   0   3  -2 21542.2 1234.47   5
   0  -3   1 390.276 179.057   2
   0  -3   1 452.988 174.876   5
   0   3  -1 257.157 109.559   8
   0   3  -1 92.3404 106.258   2
   0  -3   1 167.408 51.8985   6
   0  -3   1 345.405 135.220   8
   0   3  -1 168.978 74.0860   4
   0  -3   0 83833.2 2555.06   8
   0   3   0 78815.0 2573.56   2
   0  -3   0 82938.6 1927.26   6
   0  -3  -1 1605.87 301.626   8
   0   3   1 1299.42 280.562   2
   0  -3  -2 33689.0 1490.67   8
   0   3   2 31402.5 1621.36   2
   0  -3  -3 1999.47 329.405   3
   0  -3  -3 1755.56 410.369   2
   0  -3  -3 1837.88 364.560   8
   0  -3  -4 110404. 3094.61   3
   0   3   4 111639. 3602.85   2
   0  -3  -5 1080.37 344.721   2
   0  -3  -5 1090.82 236.217   3
   0   3   5 1137.26 325.039   2
   0   3   6 2694.16 567.668   2
   0  -3  -6 3246.30 485.781   3
   0  -3  -6 2884.54 537.653   2
   0   3   6 2880.46 463.681   3
   0  -3  -7 120.976 176.065   3
   0   3   7 241.481 153.217   3
   0   3   7 9.94516 119.719   2
   0  -3  -7-150.802 291.656   5
   0  -3  -7 72.0441 119.506   2
   0  -3  -8 30176.8 1626.21   3
   0   3   8 27755.2 2023.05   2
   0  -3  -8 22055.2 2095.97   5
   0   3   8 28180.6 1795.47   3
   0   3   8 26964.0 1830.76   4
   0  -3  -9 3962.10 625.922   3
   0   3   9 4336.76 732.392   3
   0   3   9 4137.64 796.007   2
   0   3   9 3214.22 652.416   4
   0   3  10 17474.1 1597.66   4
   0  -3 -10 17059.6 1298.42   3
   0   3  10 16541.9 1675.98   2
   0  -3 -11 474.154 216.810   1
   0   3  11 261.317 163.033   2
   0  -3 -11 420.365 259.089   3
   0  -3 -12 5806.29 841.307   3
   0   3  12 4510.79 945.180   2
   0  -3 -13 318.969 220.074   3
   0   3  13 477.969 343.096   2
   0   3  14 554.014 407.525   2
   0  -3 -14 810.418 320.331   3
   0   3  15 258.325 356.503   2
   0  -3 -15-402.663 256.297   3
   0   4 -12 312.312 98.2530   4
   0  -4  12 1034.08 630.871   5
   0   4 -11 127.872 109.122   3
   0  -4  11 329.286 222.244   1
   0  -4  10 12147.8 1229.23   1
   0  -4  10 11853.6 1871.36   5
   0   4 -10 10386.1 1212.32   4
   0   4 -10 13287.0 1122.95   3
   0   4  -9-154.222 173.286   4
   0   4  -9 281.328 258.495   8
   0  -4   9 243.965 311.621   5
   0  -4   9 104.409 88.9904   1
   0  -4   9 485.002 244.938   4
   0   4  -9-53.4607 104.049   3
   0   4  -8 7787.51 981.726   4
   0   4  -8 6605.55 896.488   8
   0  -4   8 7017.35 1280.71   5
   0  -4   8 7429.60 1037.03   4
   0  -4   8 6132.82 836.716   1
   0   4  -8 6298.92 748.456   3
   0  -4   7 101.585 79.2708   1
   0   4  -7-70.8406 203.627   4
   0   4  -7-186.821 119.710   8
   0  -4   7-157.420 256.249   5
   0   4  -7-171.266 218.369   3
   0  -4   7 88.2897 113.174   4
   0   4  -6 21883.8 1532.41   8
   0   4  -6 22394.7 1398.90   3
   0  -4   6 21225.6 1627.59   4
   0  -4   6 22851.6 1831.89   2
   0   4  -6 21121.0 1767.75   5
   0  -4   6 19180.6 1435.65   1
   0  -4   6 17365.9 1690.40   5
   0   4  -6 22190.9 1573.59   4
   0  -4   5-53.5613 125.206   1
   0   4  -5 255.428 195.026   4
   0  -4   5-87.2961 74.4459   2
   0   4  -5-136.427 198.128   5
   0   4  -5-115.041 157.746   8
   0   4  -5 93.5262 51.9463   6
   0  -4   5-34.5636 134.784   5
   0   4  -5 407.788 160.391   3
   0   4  -4 51248.2 2136.03   3
   0   4  -4 48593.4 1157.59   6
   0  -4   4 49192.8 2389.12   5
   0  -4   4 50274.5 2283.76   1
   0   4  -4 48608.5 2400.24   5
   0   4  -4 48661.2 2202.36   4
   0   4  -3 541.246 231.984   5
   0  -4   3 428.357 214.787   5
   0   4  -3 277.323 113.560   4
   0  -4   2 118432. 3900.44   2
   0   4  -2 124926. 3674.88   4
   0   4  -2 122735. 3521.08   8
   0   4  -2 123145. 3698.91   5
   0  -4   2 124283. 3639.86   5
   0  -4   1 272.664 100.756   8
   0  -4   1 527.693 118.285   6
   0  -4   1 567.166 212.797   5
   0   4  -1 483.288 197.456   4
   0   4  -1 385.509 142.595   2
   0   4   0 84238.1 3008.92   2
   0  -4   0 87552.5 2798.78   5
   0  -4   0 85557.0 2206.54   6
   0  -4   0 94087.2 3083.84   8
   0   4   1 23163.1 1495.54   2
   0   4   1 21429.1 718.685   7
   0  -4  -1 23700.8 1422.41   8
   0   4   2 123697. 4025.69   2
   0  -4  -2 137683. 3895.65   8
   0  -4  -3 6119.48 734.475   8
   0   4   3 6530.93 841.471   2
   0  -4  -4 3705.87 615.258   8
   0  -4  -4 2931.32 577.459   2
   0   4   4 3413.17 623.194   2
   0  -4  -4 3449.66 518.832   3
   0  -4  -5-205.290 228.223   3
   0  -4  -5-286.421 229.359   2
   0   4   5 93.8695 147.840   2
   0  -4  -6 28042.0 1666.24   3
   0   4   6 27660.6 1983.49   2
   0  -4  -6 28061.2 1871.15   2
   0  -4  -7-112.138 228.510   3
   0   4   7 179.980 128.464   3
   0  -4  -7-74.5401 85.0710   2
   0   4   8 43284.7 2433.41   4
   0  -4  -8 46234.3 2503.23   2
   0  -4  -8 48626.8 2335.41   3
   0   4   8 48931.6 2387.81   3
   0   4   8 46466.7 2784.35   2
   0  -4  -9-173.815 176.672   3
   0   4   9 3.28406 85.4553   4
   0   4   9-144.814 142.105   2
   0   4  10 6386.66 1004.99   4
   0  -4 -10 5703.51 821.112   3
   0   4  10 4665.56 951.492   2
   0  -4 -11-91.7160 106.540   3
   0   4  11-227.899 356.688   2
   0   4  12 810.914 414.592   2
   0  -4 -12 746.253 294.716   3
   0   4  13 191.437 315.680   2
   0  -4 -13-183.905 239.015   3
   0  -4 -14 1052.38 387.104   3
   0   4  14 1256.83 547.646   2
   0  -4 -15-624.830 328.327   3
   0   4  15 2.97015 182.946   2
   0   5 -11-203.063 128.343   4
   0  -5  11 49.5301 179.026   5
   0  -5  11 94.8019 136.004   1
   0   5 -10 3104.72 565.620   3
   0   5 -10 3542.09 733.149   4
   0  -5  10 2550.16 609.644   1
   0  -5  10 1835.85 770.561   5
   0  -5   9 104.839 191.727   1
   0   5  -9-154.963 159.117   3
   0  -5   9 22.0647 279.002   5
   0   5  -9-131.250 178.306   4
   0   5  -8 15083.1 840.866   6
   0   5  -8 17469.0 1588.47   4
   0   5  -8 15700.2 1277.21   3
   0  -5   8 15687.7 1957.08   5
   0  -5   8 15149.7 1448.55   1
   0  -5   7-4.49663 264.729   5
   0   5  -7 251.292 182.701   8
   0   5  -7 189.478 80.2147   4
   0  -5   7 176.816 190.432   1
   0   5  -7 251.363 82.1314   6
   0   5  -7 451.666 202.109   3
   0  -5   6 13099.6 1492.37   2
   0  -5   6 12730.6 1479.79   5
   0  -5   6 12299.1 1242.81   1
   0   5  -6 11843.5 1204.92   4
   0   5  -6 13126.6 1148.36   3
   0   5  -6 10818.3 1318.07   5
   0   5  -6 13800.1 1264.73   8
   0  -5   5 1358.95 479.027   2
   0  -5   5 1308.06 411.953   1
   0   5  -5 811.208 334.282   5
   0   5  -5 534.033 239.730   8
   0   5  -5 548.813 229.842   4
   0  -5   5 752.494 370.354   5
   0   5  -5 1038.72 337.939   3
   0  -5   4 46408.4 2530.71   5
   0   5  -4 48614.2 2568.11   5
   0   5  -4 46383.8 2360.12   4
   0   5  -4 48164.2 2292.42   8
   0  -5   4 48357.7 2458.68   1
   0  -5   4 46606.9 2682.84   2
   0   5  -3 3066.64 586.612   4
   0  -5   3 2855.73 553.987   5
   0   5  -3 3093.04 596.582   5
   0   5  -3 2600.49 491.283   8
   0  -5   3 2482.69 565.610   2
   0  -5   2 40307.9 2097.42   5
   0  -5   2 41301.9 2372.59   2
   0   5  -2 44868.4 2085.18   8
   0   5  -2 40093.1 2110.75   4
   0   5  -1 335.214 196.266   4
   0  -5   1 415.251 125.923   6
   0  -5   1 543.060 169.929   5
   0   5  -1 408.558 197.823   2
   0  -5   0 19237.0 975.134   6
   0  -5   0 19237.2 1353.79   5
   0  -5   0 21453.6 1562.49   8
   0   5   0 20423.3 1524.26   2
   0   5   1 2663.58 232.256   7
   0  -5  -1 2766.86 545.336   8
   0  -5  -1 3119.87 430.835   6
   0   5   1 2998.05 582.155   2
   0   5   2 81397.4 3334.51   2
   0   5   2 74828.0 2060.97   7
   0   5   3 13595.9 1343.96   2
   0  -5  -3 12769.5 1193.03   8
   0  -5  -4 149134. 4680.65   8
   0  -5  -4 140639. 4848.96   2
   0   5   4 154606. 5125.00   2
   0  -5  -5 185.902 138.613   2
   0  -5  -5 389.909 244.414   8
   0   5   5 336.191 205.344   2
   0  -5  -6 33509.7 2235.80   2
   0   5   6 39736.9 1854.57   3
   0   5   6 37763.9 2492.55   2
   0  -5  -6 37623.7 2179.66   3
   0  -5  -6 32532.2 2050.54   8
   0   5   7 507.830 349.927   2
   0  -5  -7 79.6447 206.066   8
   0   5   7-23.0446 122.544   3
   0  -5  -7-333.093 311.452   3
   0  -5  -7 331.439 229.530   2
   0   5   8 4949.16 917.650   2
   0  -5  -8 4885.36 869.565   2
   0  -5  -8 5456.09 809.754   8
   0  -5  -8 5075.61 774.537   3
   0  -5  -9-70.5339 145.692   2
   0   5   9-338.455 366.154   2
   0  -5  -9-530.056 413.686   3
   0  -5 -10 662.188 227.371   3
   0   5  10 1834.15 570.452   2
   0   5  11-7.21990 285.967   2
   0  -5 -11-149.533 237.600   3
   0  -5 -12 3486.65 715.440   3
   0   5  12 3781.48 929.527   2
   0  -5 -13 399.885 240.302   8
   0   5  13-282.985 306.129   2
   0  -5 -13-402.608 331.269   3
   0  -5 -14 713.414 325.869   3
   0   5  14 867.613 458.006   2
   0   5  15 30.8012 199.008   2
   0  -6  11 334.748 452.662   5
   0  -6  10 2535.64 645.757   1
   0   6 -10 3091.74 733.425   4
   0  -6  10 3052.04 1002.08   5
   0  -6   9 486.749 481.257   5
   0   6  -9 151.016 76.3233   3
   0   6  -9 115.677 203.365   4
   0  -6   9 638.753 307.480   1
   0   6  -8 9440.21 1250.59   4
   0   6  -8 9956.45 1077.33   3
   0  -6   8 9084.20 1513.90   5
   0  -6   8 8392.85 1156.20   1
   0   6  -7 1322.96 390.207   3
   0  -6   7 694.966 383.564   5
   0   6  -7 1280.43 458.957   4
   0  -6   7 1067.41 409.137   1
   0  -6   6 18351.5 1673.26   1
   0  -6   6 17973.5 1837.51   5
   0   6  -6 16586.3 1586.03   4
   0   6  -6 19929.8 1554.44   3
   0  -6   5 166.871 185.772   1
   0  -6   5 418.788 295.441   5
   0   6  -5 87.4425 108.907   4
   0   6  -5 257.482 229.994   5
   0   6  -5 228.636 200.496   3
   0   6  -4 4353.31 784.813   4
   0   6  -4 4703.14 740.952   8
   0  -6   4 4594.99 814.058   5
   0  -6   4 5249.39 965.301   2
   0  -6   4 5054.69 825.849   1
   0   6  -3 89.3959 208.725   4
   0   6  -3 163.350 125.460   8
   0  -6   3-366.262 285.322   2
   0  -6   3 1.39718 142.190   5
   0  -6   2 2439.59 616.712   2
   0  -6   2 2835.56 566.107   5
   0   6  -2 3387.34 588.328   8
   0   6  -2 2779.47 588.095   4
   0   6  -1 73.0220 160.648   8
   0   6  -1 74.6256 81.4901   4
   0  -6   1 106.972 136.765   5
   0  -6   1-10.8902 33.6436   6
   0  -6   1 119.172 140.444   2
   0  -6   0 51078.4 1854.39   6
   0  -6   0 56034.1 2633.53   5
   0  -6   0 59351.6 3007.70   8
   0  -6   0 59106.8 3101.76   2
   0   6   0 51487.4 2779.03   2
   0  -6  -1 7935.47 766.229   6
   0   6   1 7224.98 990.916   2
   0   6   1 6945.11 744.134   3
   0  -6  -1 9259.98 1149.87   8
   0  -6  -2 118868. 4372.22   8
   0   6   2 111876. 3276.08   3
   0   6   2 101519. 2498.69   7
   0   6   2 108392. 4287.52   2
   0   6   3 6628.50 981.404   2
   0  -6  -3 7451.79 1028.39   8
   0  -6  -3 6988.03 1021.14   2
   0   6   3 7014.66 726.904   3
   0   6   3 6621.24 618.404   7
   0   6   4 46305.6 1958.37   3
   0  -6  -4 41089.0 2513.26   8
   0   6   4 41117.7 2670.69   2
   0  -6  -4 40959.0 2600.68   2
   0  -6  -5 149.825 143.789   8
   0  -6  -5 462.961 311.976   2
   0   6   5 67.9083 133.128   3
   0   6   5-134.011 326.030   2
   0   6   6 5981.23 1084.34   2
   0  -6  -6 4300.60 822.541   8
   0  -6  -6 4817.03 886.180   2
   0   6   6 6546.88 748.155   3
   0  -6  -7-125.145 166.517   8
   0  -6  -7 133.518 168.567   2
   0   6   7 110.738 432.687   2
   0  -6  -8 6612.53 984.606   8
   0  -6  -8 6569.93 986.494   3
   0  -6  -9 352.363 260.877   8
   0  -6  -9-681.078 478.822   3
   0  -6 -10 10717.1 1267.87   8
   0   6  10 12341.0 1644.62   2
   0  -6 -10 13879.9 1519.12   3
   0   6  11-286.821 308.556   2
   0  -6 -11 239.948 193.514   8
   0  -6 -11-299.841 281.861   3
   0   6  12 2391.37 846.933   2
   0  -6 -12 2343.41 575.580   8
   0  -6 -12 1258.80 464.617   3
   0   6  13-284.061 255.912   2
   0  -6 -13-22.0598 216.184   3
   0  -6 -13 296.890 202.607   8
   0   6  14 914.225 523.173   2
   0  -6 -14 451.682 288.767   3
   0   6  15 517.903 304.920   2
   0   7 -10 415.905 315.469   4
   0  -7  10-256.498 420.861   5
   0  -7  10 225.462 233.567   1
   0  -7   9-4.28140 275.123   1
   0  -7   9-495.940 416.148   5
   0   7  -9 154.323 267.742   4
   0   7  -8 3424.24 781.589   4
   0   7  -8 3265.76 649.282   3
   0  -7   8 4064.68 1057.95   5
   0  -7   8 2986.19 754.341   1
   0   7  -7 225.226 176.713   4
   0   7  -7 546.793 267.779   3
   0  -7   7 133.540 176.719   1
   0  -7   7 47.8744 254.293   5
   0   7  -6 6687.06 962.002   3
   0  -7   6 6189.27 1027.10   1
   0  -7   6 5766.62 1086.84   5
   0   7  -6 6143.69 1012.38   4
   0  -7   6 7081.65 726.661   7
   0  -7   5 177.071 91.6368   7
   0  -7   5-187.722 117.962   5
   0  -7   5 187.046 212.630   1
   0  -7   5 66.4420 43.3720   7
   0   7  -5 51.5606 180.982   3
   0   7  -5-242.483 235.715   4
   0  -7   4 21459.0 1895.18   1
   0  -7   4 19739.7 1800.56   5
   0   7  -4 19328.6 1764.00   4
   0  -7   3 1989.58 547.029   5
   0   7  -3 1645.32 498.523   4
   0  -7   2 14120.6 1406.57   5
   0   7  -2 14341.9 1494.47   4
   0  -7   1 984.727 353.290   5
   0  -7   1 549.763 158.914   6
   0   7  -1 883.304 371.714   4
   0   7   0 13944.2 1525.87   2
   0  -7   0 13115.3 936.240   6
   0  -7   0 14602.2 1400.64   5
   0  -7   0 14600.2 1609.81   8
   0  -7   0 16575.7 1745.55   2
   0   7   1 279.803 170.883   3
   0  -7  -1-96.1532 224.139   8
   0  -7  -1 236.576 117.031   2
   0   7   1 145.360 151.677   2
   0  -7  -1 29.5763 127.927   5
   0  -7  -1 324.354 186.197   6
   0  -7  -2 6225.60 1026.12   2
   0   7   2 6710.49 747.903   3
   0  -7  -2 6627.06 841.094   6
   0  -7  -2 8777.67 1252.80   8
   0   7   2 6487.87 1050.43   2
   0   7   2 6297.06 443.329   7
   0   7   3 266.677 131.462   7
   0  -7  -3 449.326 303.371   2
   0   7   3 151.008 109.867   3
   0  -7  -3 182.483 152.856   8
   0   7   4 8442.82 799.379   7
   0   7   4 9226.18 886.233   3
   0  -7  -4 8997.84 1271.78   8
   0   7   4 8256.12 1216.20   2
   0   7   5 4963.53 985.820   2
   0  -7  -5 3510.92 801.292   8
   0   7   6 11807.2 1521.98   2
   0  -7  -6 10522.5 1379.25   8
   0  -7  -7-60.9806 231.077   8
   0   7   7-134.570 219.273   2
   0   7   8 20745.2 2167.34   2
   0  -7  -8 16877.9 1738.77   8
   0  -7  -9 320.553 242.796   8
   0   7   9 955.337 538.049   2
   0  -7 -10 2837.89 678.479   8
   0   7  10 2947.02 879.698   2
   0   7  11 88.6770 177.304   2
   0  -7 -11 241.527 283.013   8
   0  -7 -12 1294.28 478.680   8
   0   7  12 1334.85 577.657   2
   0   7  13-486.686 389.917   2
   0  -7 -13 720.552 347.673   8
   0   7  14 750.643 522.872   2
   0   8  -9-84.5676 156.146   4
   0  -8   9-88.6127 162.828   1
   0  -8   8 598.731 516.922   5
   0   8  -8 223.205 192.569   4
   0  -8   8 379.052 281.698   1
   0   8  -7 271.559 239.687   3
   0  -8   7 523.074 316.815   5
   0   8  -7 267.805 289.463   4
   0  -8   7 18.8542 146.138   1
   0   8  -6 9551.48 1353.48   4
   0  -8   6 8760.67 1332.56   1
   0  -8   6 9291.34 1458.50   5
   0   8  -6 9151.71 1213.96   3
   0  -8   5 452.598 277.231   1
   0  -8   5 542.250 363.429   5
   0   8  -5 654.641 370.915   4
   0   8  -5 679.571 344.153   3
   0  -8   4 12145.2 1558.98   1
   0   8  -4 11107.9 1428.77   4
   0  -8   4 10239.1 1395.60   5
   0  -8   3 92.2104 225.345   5
   0   8  -3 338.876 328.537   4
   0   8  -2 13968.2 1579.40   4
   0  -8   2 12089.1 1383.95   5
   0  -8   1 274.021 232.831   5
   0  -8   1 129.034 88.8114   6
   0   8  -1 313.831 256.331   4
   0   8   0 3170.21 790.808   2
   0   8   0 4102.60 851.365   4
   0  -8   0 3194.19 494.482   6
   0  -8   0 4309.19 804.482   5
   0  -8  -1-16.5611 197.558   8
   0  -8  -1 67.4845 136.058   6
   0   8   1-19.6068 160.154   2
   0  -8  -1-26.0660 240.099   5
   0  -8  -2 6825.84 1219.32   8
   0  -8  -2 6939.70 893.456   6
   0   8   2 4990.44 973.065   2
   0  -8  -3 84.9211 182.455   8
   0  -8  -3 132.875 161.660   6
   0   8   3-13.9533 61.8372   7
   0   8   3 6.86179 140.306   2
   0  -8  -4 12991.6 1715.72   8
   0   8   4 11597.0 897.413   7
   0   8   4 13578.7 1710.32   2
   0   8   5 1320.62 349.291   7
   0   8   5 1986.96 635.869   2
   0  -8  -5 1928.88 662.577   8
   0   8   6 10920.8 1135.05   7
   0  -8  -6 8029.46 1316.52   8
   0   8   6 10919.5 1578.87   2
   0  -8  -7 170.471 245.680   8
   0   8   7-64.5137 183.454   2
   0   8   8 1145.47 516.510   2
   0  -8  -8 1724.54 601.643   8
   0  -8  -9 43.0784 105.845   8
   0   8   9 727.573 525.694   2
   0  -8 -10 1549.75 561.022   8
   0   8  10 2178.90 810.202   2
   0   8  11 601.630 445.238   2
   0  -8 -11-117.761 196.901   8
   0   8  12 1612.31 678.941   2
   0  -8 -12 1234.72 448.189   8
   0   8  13 110.820 199.125   2
   0   8  14 701.260 551.480   2
   0  -9   8 710.386 556.551   5
   0   9  -8 822.505 452.969   4
   0  -9   8 745.968 438.739   1
   0  -9   7-536.112 408.598   5
   0   9  -7-182.977 129.264   4
   0  -9   7 315.978 312.355   1
   0  -9   6 55.3476 116.762   5
   0   9  -6 379.985 233.138   3
   0  -9   6 447.616 318.267   1
   0   9  -6 656.434 338.576   4
   0   9  -5 293.806 216.748   4
   0   9  -5-122.634 175.596   3
   0  -9   5 290.448 295.512   5
   0  -9   5-298.024 156.848   1
   0   9  -4 7314.69 1238.84   4
   0  -9   4 8539.31 1337.67   5
   0  -9   4 7028.55 1279.57   1
   0  -9   3 555.675 355.184   1
   0   9  -3-165.848 339.975   4
   0  -9   3 13.0046 107.106   5
   0   9  -2 6920.19 1189.97   4
   0  -9   2 7513.00 1162.77   5
   0  -9   1 862.538 341.993   5
   0   9  -1 900.863 445.369   4
   0  -9   0 6070.19 1030.60   5
   0  -9   0 4920.45 605.441   6
   0   9   0 4046.79 909.765   4
   0  -9  -1 380.202 225.963   5
   0  -9  -1 244.834 197.828   6
   0   9   1 343.131 290.118   2
   0  -9  -2 23610.6 2521.07   8
   0  -9  -2 22454.3 1682.56   6
   0  -9  -2 19827.2 1920.73   5
   0   9   2 24133.4 2381.58   2
   0  -9  -3 60.7926 132.930   8
   0   9   3 451.155 266.768   2
   0  -9  -3 27.3312 141.579   6
   0   9   4 7884.26 721.981   7
   0   9   4 9367.61 1505.10   2
   0  -9  -4 9432.92 1559.53   8
   0  -9  -4 7887.18 1196.95   6
   0  -9  -5-352.855 460.954   8
   0  -9  -5-36.5445 214.783   6
   0   9   5 181.708 374.344   2
   0   9   5-170.922 162.624   7
   0   9   6 994.443 484.013   2
   0  -9  -6 418.242 253.577   8
   0   9   6 776.175 313.323   7
   0   9   7 35.6801 175.389   2
   0  -9  -7 121.935 191.792   8
   0   9   8 2016.25 599.003   7
   0   9   8 1514.25 625.464   2
   0  -9  -8 1913.89 654.134   8
   0  -9  -9-232.882 188.271   8
   0   9   9-82.6864 141.246   7
   0   9   9 131.760 254.553   2
   0   9  10 2079.89 816.963   2
   0   9  10 2022.64 680.359   7
   0  -9 -10 1338.09 563.070   8
   0   9  11 664.421 436.043   7
   0  -9 -11 114.248 140.691   8
   0   9  11 583.493 508.358   2
   0   9  12 1542.51 688.063   2
   0  -9 -12 1669.59 599.506   8
   0   9  12 1364.64 595.586   7
   0   9  13 456.516 365.001   7
   0 -10   6 22.9670 330.906   5
   0  10  -6 63.0930 151.518   4
   0 -10   5 295.087 339.586   1
   0  10  -5 56.3092 184.069   4
   0 -10   5 88.4906 175.561   5
   0  10  -5 157.736 222.988   3
   0  10  -4 2056.12 705.450   4
   0 -10   4 2208.83 739.895   1
   0 -10   4 1800.73 679.771   5
   0 -10   3 213.816 271.615   1
   0  10  -3 2.73847 277.597   4
   0 -10   3-231.848 328.741   5
   0  10  -2 1658.81 638.810   4
   0 -10   2 1647.57 556.141   5
   0  10  -1-91.5230 258.484   4
   0 -10   1-212.209 153.563   5
   0 -10   0 9033.44 1367.40   5
   0  10   0 9633.90 1508.46   4
   0  10   1 2065.85 694.480   4
   0 -10  -1 864.030 407.013   5
   0  10   2 3181.09 921.280   2
   0 -10  -2 3460.04 836.307   5
   0 -10  -2 2174.35 542.355   6
   0 -10  -3 1050.27 402.818   6
   0 -10  -3 564.180 293.930   5
   0  10   3 117.255 269.012   2
   0 -10  -3 1338.57 643.688   8
   0 -10  -4 4964.42 967.688   6
   0  10   4 5864.47 1270.60   2
   0 -10  -4 6102.16 1374.76   8
   0  10   5-292.506 363.928   2
   0 -10  -5-155.556 296.790   8
   0 -10  -5-223.214 231.679   6
   0  10   6 3098.05 928.901   2
   0 -10  -6 1975.72 714.768   6
   0 -10  -6 3780.26 1063.78   8
   0 -10  -7 210.504 290.199   8
   0 -10  -7-332.755 300.242   6
   0  10   7-253.250 386.693   2
   0 -10  -8 2304.51 802.801   8
   0  10   8 2760.85 920.733   2
   0  10   9-353.364 186.201   2
   0 -10  -9-34.9976 114.195   8
   0  10  10 1626.80 786.777   2
   0 -10 -10 1384.87 643.269   8
   0 -10 -11-948.254 505.463   8
   0 -10 -12 333.903 280.811   8
   0 -11   4 475.559 460.353   5
   0 -11   3 158.541 185.179   5
   0  11  -3 430.408 318.274   4
   0 -11   2 2273.42 719.850   5
   0  11  -2 3926.48 1017.34   4
   0  11  -1 284.189 284.206   4
   0 -11   1 179.203 324.522   5
   0  11   0-353.537 366.093   4
   0 -11   0 128.429 155.151   5
   0 -11  -1-344.256 365.510   5
   0  11   1 437.903 369.206   4
   0  11   2 1798.31 691.193   4
   0 -11  -2 1041.29 472.045   5
   0 -11  -3-229.523 246.981   5
   0  11   3 102.843 326.867   2
   0 -11  -4 2572.32 958.780   8
   0 -11  -4 3478.95 938.579   5
   0  11   4 3342.74 1034.56   2
   0 -11  -4 2980.21 753.434   6
   0 -11  -5-10.5436 173.282   6
   0 -11  -5-401.451 398.366   8
   0  11   5 626.965 424.186   2
   0 -11  -6 2256.02 788.539   6
   0 -11  -6 1425.76 742.356   8
   0  11   6 1039.74 586.117   2
   0 -11  -7-498.235 417.063   8
   0  11   7 7.40440 225.580   2
   0 -11  -7 169.555 327.956   6
   0 -11  -8 588.546 434.766   8
   0 -11  -8 852.528 519.666   6
   0 -11  -9-18.2690 195.612   6
   0 -11  -9 146.677 133.608   8
   0 -12  -3 300.408 295.468   5
   0 -12  -4 104.808 177.074   5
   0 -12  -5-200.526 244.737   5
   1 -12  -4-838.530 513.032   5
   1 -12  -3 641.399 440.657   5
   1 -12  -2-156.842 343.995   5
   1 -12  -1 291.323 327.976   5
   1 -12   0 20.0642 90.8134   5
   1 -12   1 228.336 350.012   5
   1 -11  -6-338.553 312.692   6
  -1  11   6 255.597 298.140   2
   1 -11  -6-503.808 415.261   8
  -1  11   5 1827.05 769.886   2
   1 -11  -5 896.499 645.688   8
   1 -11  -5 1486.16 583.672   6
  -1  11   4 35.1746 356.751   2
   1 -11  -4 372.235 339.297   8
  -1  11   3 944.215 507.836   4
   1 -11  -3 1370.05 690.117   8
   1 -11  -3 676.404 435.374   5
   1 -11  -2 361.770 144.825   8
   1 -11  -2 156.287 255.239   5
  -1  11   2 436.372 389.522   4
  -1  11   1 909.540 512.932   4
   1 -11  -1 1067.36 616.680   5
  -1  11   0 762.141 557.419   4
   1 -11   0 723.130 467.171   5
  -1  11  -1 2828.56 893.112   4
   1 -11   1 2541.65 803.080   5
   1 -11   2 318.264 312.698   5
   1 -11   3 1023.40 560.764   5
   1 -11   4 458.902 367.064   5
   1 -10 -10 486.230 389.746   8
  -1  10  10 152.246 310.511   2
  -1  10   9 1041.51 569.584   2
   1 -10  -9 442.416 369.988   8
   1 -10  -8 78.7299 196.958   8
  -1  10   8 257.804 111.464   2
  -1  10   7 1428.89 623.544   2
   1 -10  -7 1457.02 581.079   8
   1 -10  -6 38.1356 143.616   8
  -1  10   6-82.1237 296.301   2
  -1  10   5 1878.22 708.879   2
   1 -10  -5 1476.47 664.259   8
   1 -10  -4-73.1859 202.099   8
  -1  10   4-46.3161 136.673   2
   1 -10  -4-43.9649 164.992   6
  -1  10   3 7669.02 1456.74   2
   1 -10  -3 8891.39 1185.63   6
   1 -10  -3 8421.60 1580.75   8
  -1  10   2 186.034 240.168   4
   1 -10  -2 180.291 123.057   5
   1 -10  -2 173.510 191.387   6
   1 -10  -2 213.741 191.796   8
  -1  10   1 5179.06 1140.89   4
   1 -10  -1 5936.45 1309.12   8
   1 -10  -1 5119.89 1114.93   5
   1 -10   0-189.482 295.521   5
  -1  10   0 806.111 429.790   4
  -1  10  -1 2257.94 751.247   4
   1 -10   1 2344.06 742.115   5
   1 -10   2-94.4308 211.235   5
  -1  10  -2-386.160 315.435   4
  -1  10  -3 2967.94 875.749   4
   1 -10   3 3383.65 897.748   5
   1 -10   4-128.287 203.384   1
   1 -10   4-95.0371 291.642   5
  -1  10  -4 212.710 300.481   4
  -1  10  -5 1179.45 569.391   4
   1 -10   5 1740.76 684.724   5
   1 -10   5 638.296 418.489   1
   1 -10   6-443.370 362.729   5
   1 -10   6 361.263 314.403   1
  -1   9  12-454.833 355.048   7
  -1   9  12-531.963 411.363   2
   1  -9 -12 2.56492 108.470   8
   1  -9 -11-66.4628 199.532   8
  -1   9  11 169.407 130.331   7
   1  -9 -10 255.778 287.142   8
  -1   9  10 256.069 311.266   7
  -1   9  10 460.732 349.725   2
  -1   9   9 1755.74 678.279   2
  -1   9   9 1196.43 471.209   7
   1  -9  -9 669.748 381.839   8
   1  -9  -8-77.9549 151.121   8
  -1   9   8-117.504 224.114   7
  -1   9   8-336.973 394.486   2
   1  -9  -7 1728.34 628.518   8
  -1   9   7 1272.95 409.724   7
  -1   9   6 227.357 316.952   2
  -1   9   6-497.071 261.198   7
   1  -9  -6-91.6164 337.668   8
  -1   9   5 10591.8 1117.81   7
   1  -9  -5 8062.29 1397.20   8
  -1   9   5 11562.4 1687.02   2
  -1   9   4 202.889 130.407   7
  -1   9   4 139.575 229.879   2
   1  -9  -4 58.3436 136.382   8
  -1   9   3 6451.37 664.419   7
  -1   9   3 5893.49 1208.69   2
   1  -9  -3 6519.29 1252.77   8
   1  -9  -2-59.7759 183.746   6
  -1   9   2-393.782 377.074   2
  -1   9   2 278.472 232.338   4
   1  -9  -2 55.4189 218.986   8
   1  -9  -1 3740.67 886.379   5
  -1   9   1 4232.60 986.557   4
   1  -9  -1 3675.50 595.294   6
   1  -9  -1 4874.16 1110.79   8
   1  -9   0-23.7078 311.436   5
  -1   9   0 152.114 198.578   4
   1  -9   0 79.5578 218.396   8
   1  -9   0 171.980 108.209   6
   1  -9   1 7095.89 1226.97   5
  -1   9  -1 6802.78 1216.32   4
  -1   9  -2 971.689 499.311   4
   1  -9   2 480.300 380.896   5
   1  -9   3 11586.3 1570.70   5
  -1   9  -3 11389.4 1592.98   4
  -1   9  -4 236.523 204.783   4
   1  -9   4-61.3931 237.771   5
   1  -9   5 3276.22 897.773   5
  -1   9  -5 1722.91 631.486   4
   1  -9   5 2574.84 763.412   1
  -1   9  -6 215.211 144.677   4
   1  -9   6-419.609 365.810   1
   1  -9   6 386.452 383.421   5
  -1   9  -7 1032.45 503.727   4
   1  -9   7 926.791 550.493   5
   1  -9   7 1081.78 534.210   1
  -1   9  -8-75.2737 163.912   4
   1  -9   8-201.254 226.118   1
  -1   8  13 218.120 390.473   2
   1  -8 -13 380.261 234.955   8
   1  -8 -12 281.006 223.429   8
  -1   8  12-245.361 284.018   2
  -1   8  12-62.0042 240.617   7
   1  -8 -11 885.698 429.941   8
  -1   8  11 1134.58 522.468   7
  -1   8  11 907.237 482.147   2
  -1   8  10 316.113 322.532   2
   1  -8 -10-4.46017 161.460   8
  -1   8  10-65.0953 126.550   7
  -1   8   9 2328.79 756.912   2
  -1   8   9 4321.76 920.608   7
   1  -8  -9 4559.57 942.702   8
   1  -8  -8 220.925 273.676   8
  -1   8   8-246.899 230.236   7
  -1   8   8-487.914 436.255   2
   1  -8  -7 8182.04 1270.94   8
  -1   8   7 7249.44 1061.84   7
  -1   8   7 8807.79 1425.12   2
  -1   8   6-143.064 134.838   7
  -1   8   6-382.507 278.111   2
   1  -8  -6 77.3970 217.430   8
  -1   8   5 1924.28 662.611   2
   1  -8  -5 1708.78 608.722   8
  -1   8   5 1397.52 405.634   7
  -1   8   4 299.751 304.020   2
  -1   8   4-40.7528 115.328   7
   1  -8  -4 46.6798 209.130   8
  -1   8   3 2763.16 477.408   7
   1  -8  -3 2461.49 700.549   8
  -1   8   3 3314.49 856.780   2
   1  -8  -2 838.917 346.938   8
  -1   8   2 651.564 320.307   2
  -1   8   2 382.551 167.410   7
   1  -8  -1 6867.79 1169.65   8
  -1   8   1 6449.55 1159.02   2
  -1   8   1 6615.95 1106.08   4
   1  -8  -1 7018.61 1136.71   5
   1  -8  -1 7034.98 800.990   6
  -1   8   1 8114.70 857.413   3
  -1   8   0 187.566 94.1226   3
   1  -8   0 39.8124 214.061   5
  -1   8   0-389.169 273.229   4
   1  -8   0-54.6373 54.0227   6
   1  -8   0-184.730 223.758   8
   1  -8   1 24213.2 2132.79   5
  -1   8  -1 22535.9 1440.55   3
  -1   8  -1 22654.5 2085.96   4
   1  -8   1 25527.8 2306.78   8
   1  -8   1 22199.2 910.143   6
  -1   8  -2 841.978 358.598   4
   1  -8   2 624.821 349.619   5
  -1   8  -2 1209.98 326.457   3
  -1   8  -3 12387.7 1074.18   3
  -1   8  -3 15441.5 1738.55   4
   1  -8   3 15590.2 1738.52   5
   1  -8   4-69.5567 225.921   5
  -1   8  -4-164.788 183.725   4
   1  -8   5 7581.11 1282.31   5
   1  -8   5 7685.80 1241.84   1
  -1   8  -5 7179.32 1215.06   4
  -1   8  -6-25.5629 154.932   4
   1  -8   6-180.180 244.070   1
  -1   8  -6-154.395 209.267   3
   1  -8   6-273.596 368.684   5
   1  -8   7 2001.76 749.968   5
   1  -8   7 1226.74 474.628   1
  -1   8  -7 1330.50 549.756   4
   1  -8   8 221.937 197.528   5
   1  -8   8 491.849 276.357   1
  -1   8  -8 102.953 187.341   4
   1  -8   9 961.927 451.119   1
  -1   8  -9 510.438 383.508   4
   1  -8   9 944.185 597.388   5
  -1   8 -10-182.503 229.365   4
   1  -7 -13 762.587 377.700   8
  -1   7  13 1844.83 799.470   7
  -1   7  13 853.963 527.697   2
   1  -7 -12 60.8761 158.671   8
   1  -7 -12 47.0350 253.563   3
  -1   7  12-273.707 309.083   2
   1  -7 -11 2566.19 686.444   8
  -1   7  11 2017.51 700.004   7
   1  -7 -11 2274.82 655.702   3
  -1   7  11 3114.27 877.306   2
  -1   7  10-168.058 196.853   2
  -1   7  10 131.748 276.634   7
   1  -7 -10-157.685 312.365   3
   1  -7 -10 398.515 295.280   8
   1  -7  -9 8288.32 1199.01   8
  -1   7   9 7676.49 1248.10   7
   1  -7  -9 6492.89 1052.88   3
  -1   7   9 5902.70 1143.13   2
  -1   7   8 55.5481 186.425   2
  -1   7   8 723.761 414.969   7
   1  -7  -8 221.960 241.709   8
   1  -7  -8-134.743 319.716   3
  -1   7   7 1366.85 513.343   7
  -1   7   7 1168.74 410.485   2
   1  -7  -7 863.861 434.132   8
  -1   7   6-81.6887 239.520   7
   1  -7  -6-77.0146 96.8837   8
  -1   7   6-277.363 342.391   2
   1  -7  -5 6513.36 1093.13   8
  -1   7   5 6724.16 864.341   7
  -1   7   5 7338.93 1192.38   2
  -1   7   4 633.780 326.437   2
   1  -7  -4 272.622 255.474   8
  -1   7   4 57.5755 218.498   7
  -1   7   3 27091.3 1546.77   7
  -1   7   3 29986.4 2327.61   2
  -1   7   3 31318.7 1659.93   3
   1  -7  -3 29292.8 2279.82   8
  -1   7   2 44.7245 126.649   3
   1  -7  -2 289.625 299.046   8
  -1   7   2 22.6404 72.7679   7
  -1   7   2-7.65475 182.718   2
  -1   7   1 21432.1 1947.87   2
   1  -7  -1 22528.2 1949.94   8
  -1   7   1 20956.6 973.800   7
  -1   7   1 22822.4 1380.01   3
   1  -7   0-210.546 242.853   8
   1  -7   0 136.834 72.3114   6
   1  -7   0 50.3614 124.971   5
  -1   7   0-68.2466 106.293   3
  -1   7   0-130.623 209.031   4
   1  -7   1 3023.91 720.865   8
  -1   7  -1 2194.99 605.114   4
  -1   7  -1 2420.93 427.555   3
   1  -7   1 2013.63 566.044   5
   1  -7   1 2307.30 288.218   6
   1  -7   2 207.003 170.854   8
  -1   7  -2 359.650 166.209   3
  -1   7  -2 137.935 108.766   4
   1  -7   2 241.235 283.378   5
   1  -7   3 10520.2 1332.62   5
  -1   7  -3 11029.0 1344.93   4
  -1   7  -4 294.898 245.467   4
   1  -7   4 292.078 254.041   5
   1  -7   4 81.7677 59.5726   7
  -1   7  -5 10881.9 1387.85   4
   1  -7   5 10232.4 1436.32   5
   1  -7   5 9314.77 734.289   7
   1  -7   5 9546.57 1259.22   1
   1  -7   6 192.693 121.361   5
   1  -7   6 354.379 211.408   1
  -1   7  -6 536.468 311.185   4
  -1   7  -6 716.068 270.068   3
   1  -7   7 8197.98 1196.99   1
   1  -7   7 7695.36 1325.44   5
  -1   7  -7 8015.29 923.595   3
  -1   7  -7 6431.29 1098.84   4
   1  -7   8-69.3711 183.943   1
  -1   7  -8 366.575 302.112   4
   1  -7   8 20.9798 191.334   5
  -1   7  -9 1725.60 601.720   4
   1  -7   9 1449.63 498.691   1
   1  -7   9 1765.15 731.313   5
  -1   7 -10-66.8337 188.128   4
   1  -7  10 200.011 157.243   5
  -1   7 -11 262.379 155.311   4
   1  -6 -13 1269.86 449.752   3
  -1   6  13 948.765 515.015   2
   1  -6 -12-552.766 327.194   3
  -1   6  12 381.387 303.252   2
  -1   6  11 2400.73 733.647   2
   1  -6 -11 3147.99 692.070   3
   1  -6 -10-295.630 204.698   3
  -1   6  10 23.5557 314.329   2
   1  -6  -9 2216.72 533.093   3
  -1   6   9 3340.38 815.445   2
   1  -6  -8 199.188 212.791   3
  -1   6   8 396.249 312.372   2
  -1   6   7 14803.0 1549.79   7
  -1   6   7 16873.2 1786.36   2
   1  -6  -7 14082.9 1370.54   3
   1  -6  -7 13514.0 1504.55   2
   1  -6  -6-130.552 207.991   2
  -1   6   6 13.5797 188.964   2
  -1   6   6 558.530 357.034   7
   1  -6  -6-268.598 308.206   3
   1  -6  -6 271.493 244.737   8
  -1   6   5 61409.7 2783.61   7
   1  -6  -5 61930.1 3191.84   8
   1  -6  -5 60154.2 3234.95   2
  -1   6   5 69226.7 2678.31   3
  -1   6   5 65212.7 3391.93   2
   1  -6  -5 64346.1 3000.16   3
  -1   6   4 106.825 167.619   7
  -1   6   4 388.897 197.412   3
  -1   6   4 476.503 395.148   2
   1  -6  -4 74.4687 136.078   8
   1  -6  -4 530.535 296.318   2
   1  -6  -3 58352.3 3074.42   2
  -1   6   3 59307.2 2302.86   7
  -1   6   3 69250.3 2435.81   3
  -1   6   3 65344.2 3258.90   2
   1  -6  -3 61639.0 3119.99   8
   1  -6  -2 297.067 260.147   2
  -1   6   2 231.448 243.993   2
   1  -6  -2-33.5949 124.800   8
  -1   6   2 295.538 149.956   7
  -1   6   2 221.245 143.321   3
  -1   6   1-14.3543 246.098   2
   1  -6  -1 52.4065 144.719   8
  -1   6   1 158.785 135.427   3
  -1   6   1 91.8068 72.5739   7
  -1   6   0 1323.76 408.522   4
   1  -6   0 1085.27 397.580   2
   1  -6   0 1694.32 487.034   8
   1  -6   0 1304.97 445.793   5
   1  -6   1 26864.7 2078.00   2
   1  -6   1 27275.0 1966.15   8
   1  -6   1 24645.7 1899.82   5
  -1   6  -1 23956.8 1822.12   4
   1  -6   1 26334.4 1005.14   6
  -1   6  -2 2078.29 576.842   4
   1  -6   2 1808.02 505.859   8
   1  -6   2 2058.91 574.738   2
   1  -6   2 1784.09 213.461   7
   1  -6   2 2009.88 531.855   5
  -1   6  -3 20618.2 1739.86   4
   1  -6   3 23155.6 1876.69   5
   1  -6   3 22032.7 984.104   7
   1  -6   3 22941.2 1988.14   2
  -1   6  -3 25679.4 1719.98   8
  -1   6  -4 376.112 262.696   4
   1  -6   4 104.481 175.506   5
   1  -6   4 398.979 137.284   7
  -1   6  -4 138.594 138.781   8
  -1   6  -5 8778.21 922.403   3
   1  -6   5 9132.62 814.545   7
  -1   6  -5 9871.85 1220.19   4
  -1   6  -5 11122.2 1169.67   8
   1  -6   5 9635.22 1152.50   1
   1  -6   5 7464.10 1132.11   5
   1  -6   6 238.137 278.303   5
   1  -6   6-35.0156 149.768   1
  -1   6  -6 355.759 297.973   4
  -1   6  -6-38.5708 125.860   8
  -1   6  -6-117.853 187.080   3
  -1   6  -7 9731.77 943.627   3
   1  -6   7 8769.12 1360.36   5
   1  -6   7 8226.79 1095.28   1
  -1   6  -7 9528.41 1269.42   4
   1  -6   8 162.743 154.168   1
  -1   6  -8 174.784 193.972   4
  -1   6  -8 110.475 61.3127   3
   1  -6   9 5404.80 1240.56   5
  -1   6  -9 2642.81 709.203   4
  -1   6  -9 4076.52 573.509   3
   1  -6   9 4030.45 792.211   1
   1  -6  10 416.807 539.029   5
   1  -6  10 131.615 160.984   1
  -1   6 -10-28.7963 159.226   4
  -1   6 -11 243.735 233.106   4
   1  -6  11 537.875 615.457   5
  -1   6 -12 412.347 254.690   4
   1  -5 -14-412.008 277.112   3
   1  -5 -13 2003.82 551.771   3
  -1   5  13 2172.04 710.473   2
  -1   5  12 191.315 285.804   2
   1  -5 -12-221.190 270.969   3
   1  -5 -11 2095.59 538.207   3
  -1   5  11 1182.18 522.171   2
   1  -5 -10 85.1544 99.0391   3
  -1   5  10 255.061 264.920   2
   1  -5  -9 15392.3 1506.72   2
   1  -5  -9 19284.0 1543.20   3
  -1   5   9 17580.9 1769.60   2
   1  -5  -8 16.6569 118.151   3
   1  -5  -8 386.780 245.646   2
  -1   5   8 274.710 212.430   2
   1  -5  -7 37202.0 2069.17   3
  -1   5   7 33142.3 2335.41   2
   1  -5  -6 680.798 211.941   3
  -1   5   6 2092.31 658.460   2
   1  -5  -6 1863.41 646.899   2
  -1   5   6 1219.63 377.530   3
   1  -5  -5 21075.2 1740.55   2
  -1   5   5 24831.3 1498.39   3
  -1   5   5 23085.0 1847.58   2
  -1   5   5 24045.4 1697.05   7
   1  -5  -5 24130.3 1578.31   3
  -1   5   4 130.833 198.949   2
  -1   5   4 115.286 156.786   7
  -1   5   4 162.520 155.791   3
   1  -5  -4 366.789 188.004   2
   1  -5  -4-137.606 297.004   3
  -1   5   3 23742.5 1754.53   2
  -1   5   3 23619.9 1292.24   3
   1  -5  -3 22683.2 1658.08   8
  -1   5   3 20379.8 1252.06   7
   1  -5  -3 22310.6 1665.59   2
  -1   5   2 1549.48 304.626   7
   1  -5  -2 1807.82 454.923   2
   1  -5  -2 2619.83 548.611   8
  -1   5   2 1579.08 426.300   2
  -1   5   1 184077. 5339.85   2
   1  -5  -1 185588. 5209.05   8
  -1   5   1 175642. 4008.53   7
  -1   5   0 1157.49 365.427   4
   1  -5   0 813.878 291.406   8
  -1   5   0 1117.90 241.465   3
  -1   5   0 864.208 190.050   7
  -1   5   0 900.882 277.713   2
   1  -5   1 28044.8 1846.76   5
  -1   5  -1 27332.7 1272.25   3
   1  -5   1 22302.4 872.019   7
   1  -5   1 28219.7 1781.38   8
  -1   5  -1 27337.0 1779.66   4
   1  -5   2-101.811 225.758   8
  -1   5  -2 118.622 132.099   4
  -1   5  -2 199.578 170.401   8
   1  -5   2 16.7179 66.7693   7
   1  -5   2 226.668 231.452   5
   1  -5   3 110367. 4036.54   5
  -1   5  -3 114782. 3643.72   8
  -1   5  -3 96684.0 3737.25   4
   1  -5   3 99216.5 4020.14   2
   1  -5   3 100737. 2709.63   7
   1  -5   4-25.2479 198.031   5
   1  -5   4 407.808 220.721   2
  -1   5  -4-208.180 279.093   4
  -1   5  -4 12.2346 107.590   8
  -1   5  -5 36399.8 1970.56   8
   1  -5   5 31740.7 1940.91   1
   1  -5   5 31398.9 2292.59   2
  -1   5  -5 29910.3 2026.13   4
   1  -5   5 29366.0 2143.14   5
  -1   5  -5 33764.0 2324.37   5
  -1   5  -5 32646.0 1668.32   3
  -1   5  -6 89.7297 113.070   8
   1  -5   6-26.1310 148.390   5
   1  -5   6 295.879 215.192   1
  -1   5  -6 195.981 139.266   3
  -1   5  -6 54.9306 130.031   4
  -1   5  -7 2168.35 411.408   3
  -1   5  -7 2959.79 571.264   8
   1  -5   7 1630.45 560.685   5
   1  -5   7 2504.53 565.261   1
  -1   5  -7 2539.99 625.709   4
  -1   5  -8-73.1582 106.201   4
  -1   5  -8-60.0048 87.3981   3
   1  -5   8 208.750 182.842   1
  -1   5  -8 364.906 208.324   8
   1  -5   8-101.061 237.048   5
  -1   5  -9 8200.86 1165.01   4
   1  -5   9 7607.51 988.841   1
  -1   5  -9 8470.03 798.334   3
   1  -5   9 7358.36 1393.44   5
  -1   5 -10 195.424 86.5224   4
  -1   5 -10-75.0550 107.725   3
   1  -5  10 146.407 155.860   1
  -1   5 -11 2420.68 676.085   4
   1  -5  11 2645.76 978.433   5
  -1   5 -12-384.793 285.670   4
   1  -4 -14-365.984 245.366   3
  -1   4  13 1382.30 546.260   2
   1  -4 -13 1966.40 546.228   3
   1  -4 -12-339.403 203.680   3
  -1   4  12 148.321 203.529   2
   1  -4 -11 4079.32 725.498   1
   1  -4 -11 4585.82 727.407   3
  -1   4  11 4521.44 901.658   2
  -1   4  10 1803.32 507.024   4
  -1   4  10 2290.06 632.397   2
   1  -4 -10 2897.74 580.897   3
  -1   4   9 15366.5 1540.38   2
  -1   4   9 15218.9 1429.92   4
   1  -4  -9 16588.8 1300.56   3
   1  -4  -8 537.444 255.812   2
   1  -4  -8 388.538 219.786   3
  -1   4   7 6623.01 971.215   2
  -1   4   7 6773.18 899.909   3
   1  -4  -7 6134.23 870.592   2
   1  -4  -7 6873.98 789.284   3
  -1   4   6 9536.24 1126.20   2
   1  -4  -6 7793.57 993.899   2
   1  -4  -6 8699.45 877.543   3
  -1   4   5 1370.22 436.936   2
   1  -4  -5 1504.62 346.793   3
   1  -4  -5 1326.01 398.361   2
  -1   4   4 2581.99 494.068   7
  -1   4   4 1779.08 441.812   2
   1  -4  -4 2410.22 424.052   3
   1  -4  -4 1277.41 380.096   2
   1  -4  -3 236416. 5373.81   3
  -1   4   3 238633. 6050.20   2
   1  -4  -3 218960. 5805.40   2
  -1   4   3 229409. 5346.11   7
  -1   4   2 9093.46 712.830   7
  -1   4   2 11683.7 1074.08   2
  -1   4   2 11628.2 777.393   3
   1  -4  -2 10752.7 854.341   3
   1  -4  -2 11889.0 1076.82   2
  -1   4   1 45255.5 2162.76   2
  -1   4   1 41757.4 1559.95   7
  -1   4   1 48642.6 1614.65   3
   1  -4  -1 48074.8 2134.03   8
  -1   4   0 447.388 134.127   7
  -1   4   0 577.805 151.939   3
  -1   4   0 272.773 106.266   2
   1  -4   0 368.966 112.102   7
  -1   4   0 374.732 208.536   4
   1  -4   0 517.725 211.092   8
   1  -4   1 166795. 4387.50   8
   1  -4   1 152839. 3320.37   7
  -1   4  -1 164168. 3584.20   3
  -1   4  -1 161547. 4489.23   4
   1  -4   1 165912. 4675.93   5
  -1   4  -2 148.636 127.577   4
   1  -4   2 205.582 114.009   7
   1  -4   2 466.883 213.960   8
   1  -4   2 378.703 213.026   5
  -1   4  -2 402.734 184.784   8
  -1   4  -3 264922. 6440.11   4
   1  -4   3 256357. 6595.94   5
  -1   4  -3 263148. 6663.47   5
   1  -4   3 271367. 6330.50   8
  -1   4  -4 628.658 154.122   4
   1  -4   4 1389.95 377.080   4
  -1   4  -4 1048.76 336.488   5
   1  -4   4 1254.97 370.153   5
  -1   4  -5 12324.1 1180.43   4
   1  -4   5 13492.2 1287.28   4
  -1   4  -5 12796.9 904.835   3
   1  -4   5 13218.7 1111.61   1
  -1   4  -5 12804.2 1325.81   5
   1  -4   5 12671.6 1318.91   5
   1  -4   6-40.5530 124.157   5
  -1   4  -6 343.156 208.538   4
   1  -4   6 46.5495 108.855   1
  -1   4  -6 61.2340 79.2115   3
   1  -4   6-7.45415 137.792   4
   1  -4   7 22864.8 2027.86   5
  -1   4  -7 27132.5 1340.99   3
  -1   4  -7 24767.7 935.859   6
  -1   4  -7 25232.4 1558.72   8
  -1   4  -7 25570.5 1877.36   4
   1  -4   7 25112.7 1926.44   4
   1  -4   7 23500.3 1579.48   1
  -1   4  -8-6.35455 80.3528   3
  -1   4  -8 9.27250 117.461   4
   1  -4   8 188.578 206.344   5
  -1   4  -8-74.4819 60.6755   6
  -1   4  -8 45.3336 55.4089   8
   1  -4   8 41.4451 67.3719   1
   1  -4   9 15592.3 1965.56   5
  -1   4  -9 16769.5 1318.38   8
  -1   4  -9 15863.6 1544.90   4
  -1   4  -9 18197.6 1127.24   3
   1  -4   9 16676.5 1348.35   1
  -1   4  -9 16335.1 999.101   6
  -1   4 -10 62.0455 110.279   4
  -1   4 -10 81.4324 71.9154   6
   1  -4  10-93.2913 56.9389   1
  -1   4 -10 7.14654 54.2761   3
  -1   4 -11 3451.82 768.345   4
   1  -4  11 2801.20 548.073   1
   1  -4  11 2202.27 835.972   5
  -1   4 -11 3283.42 489.323   3
  -1   4 -12-386.543 305.274   4
   1  -4  12-461.221 504.897   5
  -1   4 -13 567.701 332.403   4
   1  -3 -14 10.9433 158.219   3
  -1   3  13 2431.45 700.352   2
   1  -3 -13 2672.54 587.862   3
  -1   3  12 391.095 327.883   2
   1  -3 -12 626.413 299.987   3
  -1   3  11 2364.23 584.902   4
  -1   3  11 3108.47 721.755   2
   1  -3 -11 3768.96 628.258   3
   1  -3 -11 2013.42 509.375   1
   1  -3 -10 196.280 146.092   1
  -1   3  10-13.5161 101.499   4
  -1   3  10-85.2061 258.399   2
  -1   3   9 1896.21 525.626   2
   1  -3  -9 2605.51 489.058   3
  -1   3   9 1619.91 457.316   4
   1  -3  -8 481.666 387.674   5
  -1   3   8 360.264 275.949   3
  -1   3   8 420.699 279.986   2
   1  -3  -8 688.373 264.184   3
  -1   3   7 13733.5 1317.30   3
   1  -3  -7 13375.1 1124.50   2
   1  -3  -7 15853.4 1110.67   3
  -1   3   7 13102.0 1267.75   2
   1  -3  -6 3627.22 503.275   3
  -1   3   6 3094.77 572.632   2
   1  -3  -6 2111.72 463.037   2
  -1   3   5 54445.3 2441.49   2
   1  -3  -5 50617.9 2303.86   2
   1  -3  -4 7389.24 651.125   3
   1  -3  -4 5794.51 713.310   2
  -1   3   4 7236.16 790.366   2
  -1   3   3 53521.7 2138.45   7
   1  -3  -3 58658.6 1922.28   3
  -1   3   3 55222.7 2257.23   2
   1  -3  -2 15539.7 899.329   3
  -1   3   2 14552.7 1061.00   2
  -1   3   2 13860.9 883.733   7
  -1   3   2 14084.1 835.578   3
   1  -3  -2 14140.9 1028.53   2
  -1   3   1 187325. 3736.81   3
   1  -3  -1 184516. 3917.47   3
  -1   3   1 174600. 3819.45   7
   1  -3  -1 166589. 4334.05   2
   1  -3  -1 168723. 3730.41   7
  -1   3   1 173526. 4367.52   2
   1  -3   0 708.000 217.306   2
  -1   3   0 825.646 186.610   2
   1  -3   0 528.550 132.136   7
  -1   3   0 839.467 169.464   3
  -1   3   0 539.969 148.940   7
  -1   3   0 821.854 267.343   4
   1  -3   0 1024.24 261.771   8
   1  -3   1 5180.38 432.847   7
   1  -3   1 5520.20 650.766   5
  -1   3  -1 5540.65 419.539   3
  -1   3  -1 5327.08 606.297   4
   1  -3   1 5446.28 576.769   8
  -1   3  -2 50.8740 74.2936   4
  -1   3  -2 81.6411 86.7875   8
   1  -3   2 149.950 143.638   8
   1  -3   2 207.939 108.639   7
   1  -3   2 40.3985 111.021   5
  -1   3  -3 6766.82 637.792   8
  -1   3  -3 6010.00 694.794   4
   1  -3   3 5419.04 698.093   5
   1  -3   3 5876.98 627.616   8
   1  -3   4 125.589 156.277   5
  -1   3  -4 274.404 103.442   8
  -1   3  -4 204.254 121.295   3
  -1   3  -4 280.516 203.785   4
  -1   3  -5 504895. 10146.8   4
  -1   3  -5 496802. 9407.66   8
  -1   3  -5 493221. 8279.54   6
   1  -3   5 509699. 10706.4   5
  -1   3  -5 486821. 8827.77   3
  -1   3  -5 499266. 10707.9   5
   1  -3   5 487175. 9460.62   1
  -1   3  -6 315.609 160.474   8
  -1   3  -6 228.128 153.146   4
   1  -3   6 286.461 304.639   5
  -1   3  -6 293.893 130.364   6
  -1   3  -6 96.2518 99.3981   5
  -1   3  -6 308.042 152.118   3
   1  -3   6 403.571 161.903   1
   1  -3   6 695.052 307.507   4
  -1   3  -7 21450.9 1313.97   8
  -1   3  -7 23332.5 1133.29   3
  -1   3  -7 20901.9 1564.59   4
   1  -3   7 20208.5 1864.06   5
   1  -3   7 21128.1 1664.79   4
  -1   3  -7 23017.8 1132.03   6
   1  -3   7 20111.2 1290.53   1
  -1   3  -7 22592.2 1889.09   5
  -1   3  -8 254.990 181.931   4
   1  -3   8 159.385 86.8930   1
   1  -3   8 108.069 216.733   5
  -1   3  -8 73.3227 65.3091   3
  -1   3  -8 162.182 104.094   6
  -1   3  -9 12036.8 880.525   3
   1  -3   9 10228.1 942.178   1
  -1   3  -9 11185.9 1219.45   4
  -1   3  -9 11028.5 938.587   6
   1  -3   9 9958.30 1566.87   5
   1  -3   9 10195.9 1264.58   4
  -1   3 -10-117.385 172.236   4
  -1   3 -10 260.826 132.654   3
  -1   3 -10-5.04292 87.0792   6
   1  -3  10 430.480 204.501   1
  -1   3 -11 7357.98 729.301   3
  -1   3 -11 7733.44 1094.46   4
   1  -3  11 7510.45 825.207   1
   1  -3  11 7195.78 1532.08   5
  -1   3 -11 8064.78 911.936   6
   1  -3  12-185.692 262.133   5
  -1   3 -12 125.325 171.866   4
   1  -3  13 862.451 599.712   5
  -1   3 -13 932.467 422.485   4
   1  -2 -15 744.625 327.096   3
   1  -2 -14 514.183 295.465   3
   1  -2 -13 3774.23 672.434   3
  -1   2  13 3960.40 858.298   2
   1  -2 -12 833.817 330.914   3
  -1   2  12 803.248 447.459   2
  -1   2  11-139.568 194.741   4
  -1   2  11 610.557 371.594   2
   1  -2 -11 619.230 298.922   3
   1  -2 -11 288.444 186.393   1
  -1   2  10 2848.81 633.022   2
   1  -2 -10 3771.54 595.796   3
   1  -2 -10 3175.73 602.448   1
  -1   2  10 3414.40 646.409   4
   1  -2  -9 13674.3 1084.94   3
   1  -2  -9 12865.3 1162.84   1
  -1   2   9 13453.0 1303.42   2
  -1   2   8 2623.51 564.523   2
   1  -2  -8 2974.82 493.502   3
  -1   2   8 2095.44 526.783   3
   1  -2  -8 2202.64 659.299   5
  -1   2   7 77905.1 3252.14   3
  -1   2   7 81102.0 3114.90   2
  -1   2   7 78330.9 2834.88   4
   1  -2  -7 85172.6 2706.36   3
  -1   2   6 2137.76 438.840   2
  -1   2   6 2327.33 415.395   4
  -1   2   6 3209.87 569.852   3
   1  -2  -6 2631.58 412.411   3
  -1   2   5 47771.5 2054.26   2
   1  -2  -5 49897.3 1792.58   3
  -1   2   4 26781.7 1398.93   2
   1  -2  -4 28960.6 1242.50   3
   1  -2  -4 25713.3 1338.26   2
   1  -2  -3 3524.87 464.418   2
  -1   2   3 3312.10 446.074   2
   1  -2  -3 3776.02 416.929   3
  -1   2   2 4206.98 437.823   3
  -1   2   2 3431.95 408.213   2
  -1   2   2 3499.27 440.051   7
   1  -2  -2 3829.32 380.881   3
   1  -2  -2 3010.04 390.867   2
   1  -2  -1 30450.7 1027.97   3
  -1   2   1 27749.6 1040.79   3
   1  -2  -1 29143.9 1241.68   2
  -1   2   1 29201.8 1250.10   2
  -1   2   1 27670.5 1111.62   7
   1  -2  -1 26241.5 1076.22   7
  -1   2   0 62.2169 85.6408   4
   1  -2   0 28.5239 45.5286   2
   1  -2   0 178.279 84.2645   7
  -1   2   0 153.186 84.5303   7
   1  -2   0 8.96417 57.1948   3
  -1   2   0 174.836 72.1079   3
   1  -2   1 348626. 6889.86   5
  -1   2  -1 341115. 6701.07   4
   1  -2   1 340854. 6240.81   7
  -1   2  -1 351621. 5805.28   3
   1  -2   1 344860. 6421.95   8
   1  -2   2 120.989 83.1835   8
   1  -2   2 75.8377 88.4982   5
  -1   2  -2-56.3339 114.835   4
  -1   2  -2-1.83020 39.8022   8
   1  -2   3 532599. 9918.36   4
   1  -2   3 520957. 9333.61   8
  -1   2  -3 527920. 9800.29   4
  -1   2  -3 520513. 8735.35   3
  -1   2  -3 521230. 9245.40   8
   1  -2   4 56.0178 54.3522   4
  -1   2  -4 151.621 69.1861   8
  -1   2  -4-11.7679 58.8814   3
   1  -2   4 174.081 187.030   5
  -1   2  -4-29.3958 122.688   4
  -1   2  -4 98.8580 70.6312   6
  -1   2  -5 7964.86 641.498   8
  -1   2  -5 8279.19 544.986   3
  -1   2  -5 8336.78 841.779   4
   1  -2   5 8550.54 868.043   4
   1  -2   5 8054.77 648.274   1
   1  -2   5 7580.42 896.248   5
   1  -2   6 588.633 313.485   5
  -1   2  -6 25.9137 78.3014   8
  -1   2  -6 503.264 254.524   4
   1  -2   6-45.7543 170.646   1
  -1   2  -6 228.435 120.287   3
  -1   2  -7 16059.8 1526.67   5
   1  -2   7 17239.6 1396.61   4
  -1   2  -7 16649.1 1303.44   4
   1  -2   7 16557.1 1647.57   5
  -1   2  -7 18617.3 968.804   3
   1  -2   7 16908.3 1029.46   1
  -1   2  -7 17635.2 1074.45   8
   1  -2   8-66.9274 144.760   5
  -1   2  -8 125.767 117.250   8
  -1   2  -8 138.852 145.541   4
  -1   2  -8 15.9951 69.3166   3
   1  -2   8-74.0902 177.084   4
   1  -2   8-82.3046 106.641   1
   1  -2   9 10135.4 1542.75   5
   1  -2   9 12666.6 1344.51   4
  -1   2  -9 12496.1 1242.18   4
  -1   2  -9 13664.1 1018.22   8
   1  -2   9 12950.0 952.215   1
  -1   2  -9 14433.9 943.917   3
   1  -2  10-437.561 424.732   5
  -1   2 -10-187.769 140.109   8
  -1   2 -10-8.85770 112.785   4
  -1   2 -10-98.0729 137.953   3
  -1   2 -11 9361.04 803.998   3
   1  -2  11 6624.49 1380.49   5
  -1   2 -11 8391.40 1134.71   4
  -1   2 -12 740.129 351.848   4
   1  -2  12 639.571 434.609   5
  -1   2 -12 634.586 228.847   3
  -1   2 -13 1996.15 534.147   6
  -1   2 -13 2261.04 642.218   4
  -1   2 -14-253.018 313.047   4
   1  -1 -15 674.156 301.431   3
   1  -1 -14 391.783 247.546   3
  -1   1  13 1042.04 443.445   2
   1  -1 -13 2436.08 542.144   3
  -1   1  12 167.742 249.525   2
   1  -1 -12 173.481 177.127   3
  -1   1  11 18379.5 1580.23   4
  -1   1  11 15606.3 1493.76   2
   1  -1 -11 15895.9 1450.00   1
   1  -1 -11 19414.9 1375.63   3
   1  -1 -10 128.673 133.464   1
  -1   1  10-15.3746 148.553   2
  -1   1  10-236.563 207.527   4
   1  -1 -10 106.923 124.477   3
  -1   1   9 12830.0 1417.99   3
  -1   1   9 12313.3 1181.45   2
   1  -1  -9 13972.1 1097.11   3
   1  -1  -9 10700.1 1075.31   1
   1  -1  -8 1834.24 609.634   5
  -1   1   8 2650.33 524.936   2
   1  -1  -8 3070.84 506.389   3
  -1   1   8 2910.81 497.926   4
  -1   1   8 2763.40 596.172   3
  -1   1   7 37264.9 1737.02   4
  -1   1   7 36714.5 2124.22   3
  -1   1   7 36746.5 1827.58   2
   1  -1  -7 40877.0 1796.03   3
  -1   1   6 1144.63 263.613   4
   1  -1  -6 679.925 250.044   1
  -1   1   6 1073.47 288.171   2
   1  -1  -6 1056.12 286.640   3
  -1   1   6 906.042 350.442   3
  -1   1   5 1725.94 301.502   2
   1  -1  -5 1454.18 292.403   1
   1  -1  -5 1908.33 322.144   3
  -1   1   5 1629.81 292.779   4
  -1   1   4 60.9910 63.1738   4
  -1   1   4-51.9241 80.5331   2
   1  -1  -4 22.5032 60.4101   3
   1  -1  -3 118869. 2753.88   2
  -1   1   3 122155. 2878.06   2
   1  -1  -2 1605.98 233.241   2
  -1   1   2 1710.51 312.100   7
  -1   1   2 2155.55 259.661   2
   1  -1  -2 1834.24 250.996   3
   1  -1  -1 473206. 7885.65   7
  -1   1   1 469109. 7620.63   2
   1  -1  -1 453723. 7606.82   2
   1  -1  -1 431191. 7530.54   3
  -1   1   1 474728. 7891.98   7
  -1   1   1 421720. 7695.50   3
   1  -1   0 140.198 67.2404   7
  -1   1   0 96.1490 50.6044   4
   1  -1   0 180.854 98.5339   4
  -1   1   0 62.4042 63.8299   7
   1  -1   0 213.050 63.6517   3
  -1   1   0 105.312 44.0429   3
  -1   1  -1 495050. 8497.59   4
   1  -1   1 484903. 8112.31   6
   1  -1   1 491213. 8412.72   7
   1  -1   1 494798. 8681.20   5
   1  -1   2-24.7695 41.1117   6
  -1   1  -2-41.7802 69.8330   4
   1  -1   2-7.41646 89.4781   5
   1  -1   2 4.96945 31.4446   8
  -1   1  -2 69.3601 41.7745   6
  -1   1  -3 901045. 14990.0   4
   1  -1   3 999999. 15420.3   5
  -1   1  -4-65.9803 79.7538   8
   1  -1   4 123.958 77.6306   3
   1  -1   4 20.9554 42.3585   1
  -1   1  -4 249.013 141.294   4
   1  -1   4-296.050 248.394   5
   1  -1   4-66.4768 82.0440   4
  -1   1  -4 28.2475 44.6807   3
   1  -1   5 65758.4 1783.80   1
  -1   1  -5 70382.6 1865.60   8
  -1   1  -5 71411.7 1779.70   3
   1  -1   5 60850.4 2656.52   5
   1  -1   5 63842.3 2399.49   4
   1  -1   5 66086.5 1891.39   3
  -1   1  -5 68367.1 2390.49   4
   1  -1   6 74.1764 53.5900   1
   1  -1   6 94.2593 54.9166   3
  -1   1  -6-6.14097 62.9313   8
  -1   1  -6 37.9234 49.0005   3
  -1   1  -6 186.843 162.262   4
   1  -1   7 60281.3 1827.49   1
   1  -1   7 60244.9 3216.71   5
  -1   1  -7 65206.7 1942.44   3
   1  -1   7 58908.3 2166.58   3
  -1   1  -7 56586.0 2452.28   4
   1  -1   8 606.188 213.030   3
   1  -1   8 617.020 282.886   4
  -1   1  -8 941.669 372.460   5
  -1   1  -8 723.871 200.157   3
   1  -1   8 805.918 433.222   5
  -1   1  -8 706.840 290.036   4
  -1   1  -9 4328.42 710.926   4
   1  -1   9 4037.45 717.530   4
   1  -1   9 4540.82 661.018   3
  -1   1  -9 5253.22 550.519   3
   1  -1   9 4883.80 1077.05   5
   1  -1  10 479.737 235.229   3
  -1   1 -10 88.2060 73.8677   8
  -1   1 -10 38.4464 139.840   4
   1  -1  10-228.049 200.080   4
  -1   1 -10 84.5474 129.184   3
   1  -1  10 80.0061 299.097   5
   1  -1  11 12405.8 1288.15   3
  -1   1 -11 13890.0 1002.81   8
   1  -1  11 11324.8 1793.69   5
  -1   1 -11 13883.8 1412.03   4
  -1   1 -11 13099.5 991.405   3
  -1   1 -12 141.063 221.402   4
  -1   1 -12 284.039 170.724   3
   1  -1  13 1054.35 456.144   2
  -1   1 -13 1563.70 526.813   4
  -1   1 -13 1690.70 401.248   3
   1  -1  14 191.139 250.460   2
   1  -1  15 329.595 358.999   2
   1   0 -15 95.6028 142.400   3
   1   0 -14 362.871 258.211   3
  -1   0  13 6213.48 1000.09   2
   1   0 -13 5859.08 820.806   3
   1   0 -12 144.877 97.5718   3
  -1   0  12 51.1337 170.067   2
  -1   0  11 3995.27 702.941   2
   1   0 -11 3619.00 694.032   1
  -1   0  11 4511.42 758.235   4
   1   0 -11 4005.44 629.394   3
   1   0 -10 139.773 150.839   3
   1   0 -10-103.326 146.400   1
  -1   0  10 134.156 192.664   2
  -1   0   9 3752.94 593.204   2
  -1   0   9 3362.48 720.952   3
   1   0  -9 4188.20 680.632   1
   1   0  -9 4397.87 610.939   3
  -1   0   8 856.502 281.957   2
   1   0  -8 1277.00 300.959   3
  -1   0   8 466.952 282.857   3
   1   0  -8 624.500 350.189   5
  -1   0   8 823.306 264.693   4
   1   0  -7 36502.7 1701.37   3
  -1   0   7 33052.8 1584.11   2
   1   0  -7 30923.8 2342.22   5
  -1   0   7 34964.9 2055.15   3
  -1   0   7 32462.6 1573.29   4
   1   0  -6 507.921 198.534   1
  -1   0   6 627.169 250.639   3
  -1   0   6 498.761 162.226   4
  -1   0   6 408.903 146.896   2
   1   0  -6 285.074 73.9857   3
  -1   0   5 231044. 4699.66   4
   1   0  -5 225687. 5218.93   1
   1   0  -5 247323. 5145.66   3
  -1   0   5 230637. 4784.27   2
  -1   0   5 232249. 5607.74   3
  -1   0   4 10201.7 579.915   4
  -1   0   4 10169.3 603.656   2
   1   0  -4 11092.8 762.212   3
   1   0  -4 10607.2 783.710   1
  -1   0   4 11238.0 874.618   3
   1   0  -3 210052. 4500.95   1
  -1   0   3 213143. 3856.21   4
  -1   0   3 214091. 3887.62   2
   1   0  -3 220170. 4429.48   3
  -1   0   3 220051. 4688.67   3
   1   0  -2 550.423 147.676   1
  -1   0   2 682.420 228.442   7
   1   0  -2 699.053 172.516   3
   1   0  -1 490168. 8584.75   3
  -1   0   1 541100. 8751.96   7
  -1   0  -2 30.2940 43.1957   5
  -1   0  -2-3.86066 46.2584   6
  -1   0  -2 6.18078 36.5733   4
   1   0   2-0.59750 29.9941   6
  -1   0  -3 75902.1 2023.60   6
  -1   0  -3 76260.9 2261.38   5
  -1   0  -3 77523.2 2143.47   4
   1   0   3 73784.2 1555.39   3
   1   0   3 70797.0 2126.43   4
  -1   0  -3 73762.7 1565.36   3
  -1   0  -4 26.9524 115.639   4
   1   0   4 144.180 105.648   4
   1   0   4 206.808 80.1963   3
  -1   0  -4 154.061 81.1334   3
  -1   0  -4 62.1272 70.0081   5
   1   0   4-14.8417 115.285   5
   1   0   5 146340. 3235.89   3
  -1   0  -5 154005. 3805.40   4
  -1   0  -5 148650. 3112.52   3
   1   0   5 152338. 4550.95   5
   1   0   5 148267. 3921.37   4
  -1   0  -6 18.9546 150.481   4
   1   0   6 148.591 87.9924   4
  -1   0  -6 128.733 87.6135   3
  -1   0  -6 117.505 75.0662   1
   1   0   6 110.927 45.2595   3
   1   0   6-1.44196 188.088   5
  -1   0  -7 16660.3 916.844   3
   1   0   7 15929.0 1034.37   3
  -1   0  -7 16166.2 1195.28   4
  -1   0  -7 16490.1 795.024   1
   1   0   7 14739.3 1541.65   5
   1   0   8 208.572 198.394   4
  -1   0  -8 57.1749 138.608   4
   1   0   8 99.1917 92.3267   3
  -1   0  -8 232.273 191.724   3
  -1   0  -8 146.811 156.419   5
   1   0   8 536.557 365.026   5
  -1   0  -9 16052.1 1374.40   4
   1   0   9 16632.5 1291.97   3
   1   0   9 14122.9 1721.15   5
  -1   0  -9 19548.6 1117.97   3
   1   0   9 17446.1 1536.43   4
   1   0  10 1423.43 633.909   5
  -1   0 -10 2117.19 407.634   3
  -1   0 -10 1164.23 388.332   4
   1   0  10 2037.13 481.333   3
   1   0  10 1543.39 471.229   4
  -1   0 -11 3095.54 500.136   3
   1   0  11 1681.40 474.272   3
   1   0  11 1457.15 457.615   2
  -1   0 -11 1923.22 518.768   4
   1   0  12-57.0218 281.580   2
  -1   0 -12 103.735 167.476   3
   1   0  13 1564.96 562.122   2
  -1   0 -13 2212.26 451.534   3
   1   0  14 497.860 315.724   2
  -1   0 -14 31.7603 122.266   3
   1   0  15 750.169 448.362   2
   1   1 -14-309.048 195.896   3
   1   1 -13 80.2136 123.398   3
  -1  -1  12 97.5735 131.257   2
   1   1 -12 352.009 181.029   3
  -1  -1  11 8522.24 1023.25   2
  -1  -1  11 8340.17 1061.14   4
   1   1 -11 9307.27 1121.75   1
   1   1 -11 10866.4 1052.22   3
   1   1 -10 161.226 158.569   1
  -1  -1  10-26.6427 131.983   2
   1   1 -10 291.577 210.524   3
   1   1  -9 12836.4 1226.83   1
   1   1  -9 14803.8 1159.20   3
   1   1  -9 12747.4 1037.78   4
  -1  -1   9 12719.9 1418.38   3
   1   1  -8-49.3209 81.9387   3
   1   1  -8-14.3021 89.6015   1
  -1  -1   8 234.573 216.363   3
   1   1  -8-10.4478 92.9167   4
   1   1  -8 53.6666 181.192   5
  -1  -1   8 36.4781 84.9283   4
  -1  -1   7 31523.5 1568.39   4
   1   1  -7 34746.7 1545.96   4
   1   1  -7 35604.4 1728.11   3
   1   1  -7 31728.4 2237.00   5
  -1  -1   7 35767.5 2110.80   3
   1   1  -6 6509.72 739.004   1
  -1  -1   6 6539.75 619.144   4
   1   1  -6 6715.38 598.292   4
   1   1  -6 7414.10 718.898   3
  -1  -1   6 6673.41 711.633   1
  -1  -1   6 6461.48 804.367   3
   1   1  -6 6681.57 938.261   5
   1   1  -5 137836. 3127.66   4
   1   1  -5 134839. 3769.85   1
   1   1  -5 138106. 3598.81   3
  -1  -1   5 132410. 3935.46   3
   1   1  -5 135554. 4415.09   5
  -1  -1   5 141094. 3694.34   1
  -1  -1   5 133933. 3218.64   4
   1   1  -4 217.956 69.1874   3
   1   1  -4 433.977 128.651   4
  -1  -1   4 308.385 159.719   1
   1   1  -4 225.744 116.601   1
  -1  -1   4 334.012 102.046   4
  -1  -1   4 237.120 125.920   3
   1   1  -4 393.802 219.477   5
   1   1  -3 4044.02 470.537   1
   1   1  -3 4108.88 306.987   4
   1   1  -3 4038.79 459.772   3
  -1  -1   3 3589.52 308.331   4
   1   1  -3 3318.34 497.463   5
  -1  -1   3 4410.62 484.208   1
  -1  -1   3 3997.63 482.430   3
   1   1  -2 161.044 79.7712   3
  -1  -1   2 168.483 66.4572   3
   1   1  -2 20.3374 38.3965   1
  -1  -1   2 37.9552 49.7842   1
   1   1  -2 111.802 38.8141   4
  -1  -1   2 74.3183 27.8215   2
   1   1  -2 221.907 129.101   5
  -1  -1   1 320395. 5851.70   1
   1   1  -1 317650. 5311.68   2
  -1  -1   1 313436. 5399.99   2
  -1  -1   1 318643. 5641.98   7
   1   1  -1 331104. 5976.67   3
   1   1  -1 320274. 5662.53   7
   1   1   0 3480.12 298.794   2
   1   1   0 2979.01 279.391   7
   1   1   0 3044.20 314.030   6
  -1  -1   0 3441.13 298.867   2
  -1  -1   0 3159.97 313.830   6
  -1  -1   0 3227.80 304.530   1
  -1  -1  -1 558798. 9417.66   2
   1   1   1 559344. 9298.02   4
   1   1   2 644.587 173.679   2
  -1  -1  -2 594.005 166.970   4
   1   1   2 706.120 100.547   8
   1   1   2 966.147 181.321   5
  -1  -1  -2 578.069 128.556   5
  -1  -1  -2 740.611 178.216   6
  -1  -1  -3 345357. 6329.21   5
   1   1   3 349779. 6351.98   2
  -1  -1  -3 316923. 6114.73   4
  -1  -1  -4 400.376 177.045   5
   1   1   4 919.192 321.139   5
  -1  -1  -4 598.379 185.487   4
   1   1   4 118.771 87.3222   2
  -1  -1  -4 336.296 101.817   3
   1   1   4 224.803 146.903   4
   1   1   4 560.300 133.068   3
  -1  -1  -5 55076.5 2373.16   5
   1   1   5 59063.7 1751.62   3
   1   1   5 59194.0 2225.17   2
  -1  -1  -5 58717.5 1799.47   3
   1   1   5 53932.0 2472.00   5
  -1  -1  -5 56047.7 1327.25   1
  -1  -1  -5 58136.5 2122.49   4
   1   1   5 58675.8 2213.40   4
   1   1   6 2640.01 363.825   3
  -1  -1  -6 3021.20 503.384   4
  -1  -1  -6 2703.82 262.601   1
   1   1   6 3005.02 671.085   5
  -1  -1  -6 3011.89 379.801   3
   1   1   6 2777.08 471.499   2
   1   1   6 3055.55 511.809   4
  -1  -1  -7 153833. 3226.12   1
  -1  -1  -7 150668. 4306.76   4
   1   1   7 153210. 3924.26   3
   1   1   7 162192. 4603.56   2
  -1  -1  -7 165003. 3769.72   3
   1   1   8 19.2528 126.881   4
  -1  -1  -8 404.909 189.463   3
  -1  -1  -8-18.7652 105.878   5
  -1  -1  -8 239.174 232.518   4
   1   1   8-125.658 195.697   2
   1   1   8-11.5541 66.0384   3
  -1  -1  -8-18.7809 71.5315   1
   1   1   9 472.020 228.026   4
   1   1   9 169.239 226.943   2
  -1  -1  -9 659.816 226.370   3
   1   1   9 426.781 197.401   3
  -1  -1  -9 417.943 336.578   5
  -1  -1  -9 319.953 116.728   1
   1   1  10 424.691 305.767   2
  -1  -1 -10 310.121 171.503   3
  -1  -1 -10 183.499 114.892   1
   1   1  10 72.1160 106.938   3
   1   1  10 112.348 120.572   4
   1   1  11 5518.50 864.218   3
  -1  -1 -11 6522.91 618.379   1
  -1  -1 -11 7159.79 794.201   3
   1   1  11 5658.89 952.326   2
   1   1  12 581.437 425.381   2
  -1  -1 -12 385.020 215.987   3
  -1  -1 -13 5094.45 735.817   3
   1   1  13 5316.69 1026.20   2
  -1  -1 -14-65.8095 106.874   3
   1   1  14 28.0454 156.005   2
  -1  -1 -15 847.058 333.182   3
   1   1  15 192.878 271.300   2
   1   2 -14 21.5790 76.4472   3
   1   2 -13 1145.21 376.796   3
   1   2 -12 83.9431 101.632   3
  -1  -2  12-4.72607 115.937   2
   1   2 -11 3855.72 633.094   4
   1   2 -11 4691.23 698.571   3
   1   2 -10 4.67282 177.176   3
  -1  -2  10 274.729 174.940   4
   1   2 -10 391.016 240.730   4
   1   2 -10 67.0302 119.733   1
  -1  -2   9 1900.45 536.610   3
   1   2  -9 2445.43 512.845   3
   1   2  -9 2541.23 557.261   1
   1   2  -9 2610.36 481.664   4
  -1  -2   8 2696.68 603.551   3
  -1  -2   8 3097.07 546.154   4
  -1  -2   8 4092.72 646.687   1
   1   2  -8 4637.60 635.951   3
   1   2  -8 3226.68 494.411   4
   1   2  -8 3982.40 675.680   1
   1   2  -7 21633.9 1248.11   4
  -1  -2   7 22973.6 1492.97   1
  -1  -2   7 20673.5 1345.71   4
   1   2  -7 21568.2 1518.21   1
  -1  -2   7 16894.9 1772.58   5
   1   2  -7 20859.9 1336.31   3
   1   2  -7 20080.5 1736.26   5
  -1  -2   7 19740.8 1585.97   3
   1   2  -6-3.57086 152.481   3
  -1  -2   6-59.1116 159.320   3
   1   2  -6 114.227 104.621   4
  -1  -2   6 12.2336 97.8011   1
   1   2  -6 461.089 409.860   5
  -1  -2   6 160.241 114.342   4
   1   2  -5 24680.0 1656.66   5
   1   2  -5 27184.9 1559.47   1
   1   2  -5 26368.2 1227.18   4
  -1  -2   5 27357.7 1934.53   5
  -1  -2   5 27971.8 1348.56   4
   1   2  -5 29183.2 1522.27   3
  -1  -2   5 26380.7 1481.18   1
   1   2  -4 188.888 111.778   1
   1   2  -4 95.6426 148.804   5
  -1  -2   4 402.806 292.570   5
  -1  -2   4 282.091 159.407   1
   1   2  -4 19.9185 56.6533   4
   1   2  -4 331.495 116.229   3
  -1  -2   4 20.8214 59.9158   4
   1   2  -3 158248. 3345.44   4
   1   2  -3 151098. 3906.67   1
  -1  -2   3 142849. 3617.23   2
   1   2  -3 162624. 3988.09   3
  -1  -2   3 157747. 4289.51   5
   1   2  -3 148607. 3875.41   5
  -1  -2   3 158449. 3903.60   1
  -1  -2   2 874.594 240.382   5
   1   2  -2 785.407 163.848   4
   1   2  -2 748.604 220.775   3
  -1  -2   2 622.931 174.039   2
  -1  -2   2 442.540 158.819   1
  -1  -2   2 712.053 173.674   7
   1   2  -2 659.388 176.197   5
   1   2  -2 798.944 208.575   1
  -1  -2   1 20247.6 1040.18   1
   1   2  -1 19504.6 915.945   2
  -1  -2   1 18526.2 766.675   7
   1   2  -1 19027.4 901.018   6
  -1  -2   1 19176.8 980.544   2
   1   2  -1 18901.4 794.704   5
  -1  -2   1 18909.8 826.148   5
  -1  -2   0 1482.61 248.231   1
  -1  -2   0 1785.54 300.209   2
  -1  -2   0 1486.96 152.427   5
  -1  -2   0 1496.03 191.903   7
   1   2   0 1742.85 294.961   2
   1   2   0 1745.65 254.267   6
   1   2   0 1621.53 164.381   5
  -1  -2   0 1560.85 243.431   6
   1   2   0 1543.29 188.432   7
   1   2   1 397889. 7318.68   6
  -1  -2  -1 430289. 7473.33   6
   1   2   1 416738. 7393.58   8
  -1  -2  -1 404319. 7773.48   2
   1   2   1 417898. 7853.83   2
  -1  -2  -2 2893.22 363.477   6
   1   2   2 2718.13 284.361   8
   1   2   2 3435.77 475.020   2
   1   2   3 122863. 2689.78   8
   1   2   3 117586. 2806.60   3
  -1  -2  -3 127073. 2877.75   8
  -1  -2  -4 10420.4 614.522   8
   1   2   4 10190.1 840.266   4
  -1  -2  -4 9937.28 836.049   2
   1   2   4 10284.4 932.220   2
  -1  -2  -4 10732.6 758.164   3
   1   2   4 9860.20 603.602   3
  -1  -2  -4 9270.22 876.420   5
  -1  -2  -5 69536.5 2908.38   5
  -1  -2  -5 80356.6 2074.59   8
  -1  -2  -5 74165.7 2392.05   3
   1   2   5 80573.2 2144.24   3
   1   2   5 76005.2 2846.22   2
   1   2   6 3386.50 417.144   3
  -1  -2  -6 2720.75 435.046   3
   1   2   6 3356.97 609.631   2
   1   2   7 28599.9 1861.22   2
   1   2   7 30053.0 1485.61   3
  -1  -2  -7 27165.8 1981.61   5
  -1  -2  -7 30469.8 1533.40   3
  -1  -2  -8-55.3712 89.6218   3
   1   2   8 234.639 295.616   2
   1   2   8 177.477 205.903   4
   1   2   8-132.808 165.286   3
  -1  -2  -8 18.9456 35.1545   1
  -1  -2  -8-104.148 232.280   5
  -1  -2  -9 44038.3 1633.58   1
  -1  -2  -9 49692.7 2150.27   3
   1   2   9 48360.0 2652.23   4
   1   2   9 45629.8 2648.22   2
   1   2   9 47188.5 2261.80   3
  -1  -2  -9 44304.5 2889.46   5
   1   2  10 168.432 121.746   3
   1   2  10 91.0072 110.623   4
   1   2  10 144.593 205.354   2
  -1  -2 -10 53.8145 148.575   3
  -1  -2 -10-37.0711 84.4856   1
   1   2  11 12525.8 1291.30   3
  -1  -2 -11 15092.3 1251.55   3
   1   2  11 14216.7 1587.62   2
  -1  -2 -11 12430.1 892.451   1
   1   2  12 661.593 475.173   2
  -1  -2 -12 513.031 241.397   3
  -1  -2 -13 3671.92 676.139   3
   1   2  13 4521.08 988.730   2
  -1  -2 -14-296.327 221.682   3
   1   2  14 171.058 249.266   2
   1   2  15 901.035 465.691   2
  -1  -2 -15 179.272 72.9343   3
   1   2  16 304.709 207.317   2
   1   3 -13-199.606 165.936   3
   1   3 -12-17.3866 82.4303   3
   1   3 -11 1784.65 462.514   4
   1   3 -11 2085.75 490.624   3
   1   3 -10 104.501 113.752   4
  -1  -3  10 24.9435 160.550   4
  -1  -3  10 123.575 173.872   1
   1   3 -10 567.059 268.331   3
   1   3  -9 13467.1 1191.61   3
  -1  -3   9 12642.4 1293.45   4
  -1  -3   9 10871.3 1158.13   1
   1   3  -9 12772.7 1107.68   4
   1   3  -8 394.211 196.101   3
  -1  -3   8 740.554 311.114   1
   1   3  -8 849.603 295.403   4
  -1  -3   8 1179.84 535.085   5
   1   3  -7 399.801 216.356   5
  -1  -3   7 274.636 188.568   4
   1   3  -7-63.9397 148.253   3
   1   3  -7 36.4703 93.6959   4
  -1  -3   7 168.630 111.340   1
  -1  -3   6-188.284 136.436   1
   1   3  -6-196.164 226.580   3
   1   3  -6-85.2055 102.552   5
   1   3  -6 92.1510 113.212   4
  -1  -3   6-2.99213 65.6518   4
  -1  -3   6-177.473 234.325   5
  -1  -3   5 37115.4 1908.36   1
   1   3  -5 34621.4 1610.36   4
  -1  -3   5 37946.6 1986.08   2
  -1  -3   5 35428.4 2288.45   5
   1   3  -5 35204.7 1998.20   5
   1   3  -5 38343.3 1901.27   3
  -1  -3   4 3133.21 515.439   1
   1   3  -4 3535.13 459.434   4
  -1  -3   4 3874.31 597.435   2
   1   3  -4 3061.69 511.361   5
   1   3  -4 3593.17 542.155   3
  -1  -3   4 3099.52 594.497   5
  -1  -3   3 66706.4 2511.66   1
   1   3  -3 64967.0 2128.00   4
   1   3  -3 64504.7 2053.54   6
  -1  -3   3 66303.4 2259.55   7
  -1  -3   3 59426.7 2352.66   2
  -1  -3   3 66335.0 2553.19   5
   1   3  -3 66791.5 2373.17   5
  -1  -3   2 9787.20 847.496   1
   1   3  -2 8566.33 632.628   6
  -1  -3   2 9316.48 829.309   2
   1   3  -2 9120.53 725.779   5
  -1  -3   2 7725.24 553.387   7
   1   3  -2 8506.07 673.482   4
  -1  -3   2 8682.76 725.983   5
   1   3  -1 215759. 4881.99   2
  -1  -3   1 215113. 4440.22   5
  -1  -3   1 220621. 5069.17   1
   1   3  -1 220812. 4449.13   6
  -1  -3   1 212646. 5088.26   2
  -1  -3   1 221429. 4487.91   6
   1   3  -1 220610. 4496.79   5
  -1  -3   1 222961. 4045.87   7
   1   3   0 5878.67 625.448   2
   1   3   0 4751.65 438.038   6
   1   3   0 5129.57 312.662   7
  -1  -3   0 5148.16 485.369   6
  -1  -3   0 5505.47 626.763   2
  -1  -3   0 5419.25 417.615   5
   1   3   1 66526.0 2092.43   8
  -1  -3  -1 67956.2 2067.05   6
   1   3   1 65528.2 1915.07   6
   1   3   1 67356.7 2433.45   2
  -1  -3  -1 60281.0 2323.91   2
   1   3   2 48.5255 156.813   2
  -1  -3  -2-39.0897 86.1335   8
  -1  -3  -2-12.5796 70.1487   6
   1   3   2-65.5446 88.3378   8
   1   3   3 4559.30 440.710   8
  -1  -3  -3 4760.17 530.506   8
  -1  -3  -4 38147.6 1575.83   8
   1   3   4 38759.0 2090.14   2
  -1  -3  -5 25229.2 1253.17   8
   1   3   5 27009.0 1173.08   3
   1   3   5 25447.2 1738.20   2
  -1  -3  -6 5017.93 637.699   3
  -1  -3  -6 5362.89 746.969   2
   1   3   6 5694.37 567.869   3
  -1  -3  -6 5260.29 565.836   8
   1   3   6 6829.21 967.655   2
   1   3   7 138976. 4437.29   4
   1   3   7 132868. 4626.78   2
  -1  -3  -7 125986. 4766.19   5
  -1  -3  -7 126925. 3917.35   3
   1   3   7 133441. 3509.57   3
   1   3   8 1516.59 425.530   4
   1   3   8 1096.61 295.933   3
  -1  -3  -8 886.821 272.665   3
   1   3   8 786.477 382.249   2
  -1  -3  -8 761.803 415.955   5
   1   3   9 34554.4 2267.52   4
  -1  -3  -9 34719.0 1946.77   3
   1   3   9 35942.1 2464.53   2
   1   3   9 35416.5 1924.92   3
  -1  -3  -9 32311.8 2542.57   5
  -1  -3 -10 20.5521 96.4755   1
   1   3  10 168.848 287.900   2
  -1  -3 -10-52.1299 123.712   3
   1   3  10-144.967 205.852   3
   1   3  10 151.558 187.410   4
  -1  -3 -11 3325.05 624.406   3
   1   3  11 2250.22 704.053   2
  -1  -3 -11 3216.93 476.106   1
   1   3  12 533.408 556.507   2
  -1  -3 -12-35.8873 194.509   3
   1   3  13 1934.79 724.287   2
  -1  -3 -13 1199.48 389.163   3
   1   3  14 762.084 464.572   2
  -1  -3 -14-52.4091 202.911   3
   1   3  15 1903.63 744.153   2
  -1  -3 -15 781.145 335.750   3
  -1  -3 -16 75.9608 113.472   3
   1   3  16 9.94358 151.361   2
  -1  -4  13 1623.94 816.237   7
  -1  -4  12 211.079 352.828   7
   1   4 -12-65.2680 114.855   3
  -1  -4  11 2926.40 661.943   1
   1   4 -11 3390.62 660.446   3
   1   4 -10-242.973 269.719   4
   1   4 -10-73.6688 159.437   3
  -1  -4  10 17.8428 101.735   1
  -1  -4   9 1968.08 725.455   5
  -1  -4   9 2663.73 705.554   2
  -1  -4   9 1829.10 506.936   1
   1   4  -9 2392.96 505.559   4
   1   4  -9 2342.09 501.335   3
   1   4  -8-164.373 198.784   3
   1   4  -8 54.0274 91.3713   4
  -1  -4   8 499.979 303.896   2
  -1  -4   8 92.0456 125.321   1
  -1  -4   8 435.080 392.809   5
  -1  -4   7 9709.30 1230.07   2
   1   4  -7 11097.7 1326.77   5
   1   4  -7 9229.82 957.562   4
   1   4  -7 10911.1 1085.37   3
  -1  -4   7 8416.14 1315.22   5
  -1  -4   7 8172.92 1040.75   1
   1   4  -6 1892.73 479.347   3
   1   4  -6 1772.55 403.458   4
  -1  -4   6 2410.01 579.128   2
   1   4  -6 2187.40 549.889   5
  -1  -4   6 2170.05 613.268   5
  -1  -4   6 1893.64 468.362   1
   1   4  -5 20253.1 1185.73   6
  -1  -4   5 20997.5 1535.51   1
  -1  -4   5 22070.3 1843.53   5
   1   4  -5 20478.4 1574.22   5
   1   4  -5 22258.0 1387.13   4
   1   4  -5 24091.9 1598.77   3
   1   4  -4 3162.16 558.948   5
   1   4  -4 2635.78 486.611   3
  -1  -4   4 2096.40 409.245   7
   1   4  -4 2223.64 428.893   4
   1   4  -4 2400.62 363.904   6
  -1  -4   4 1990.71 474.731   1
  -1  -4   4 1913.72 466.828   5
   1   4  -3 57761.9 2352.02   5
  -1  -4   3 52329.0 1843.66   7
   1   4  -3 58816.3 1903.25   6
   1   4  -3 58867.7 2254.41   4
  -1  -4   3 51147.3 2469.51   2
  -1  -4   3 54723.0 2365.90   5
  -1  -4   3 58940.1 2533.79   1
   1   4  -2 132.731 164.500   5
   1   4  -2 343.985 180.684   4
   1   4  -2 155.877 98.1644   6
  -1  -4   2 286.874 141.771   1
  -1  -4   2-16.8861 119.057   2
  -1  -4   2 187.417 88.0076   7
  -1  -4   2 116.284 115.957   5
  -1  -4   1 36607.2 1857.11   1
   1   4  -1 33510.8 1276.57   6
   1   4  -1 34990.6 1777.95   2
  -1  -4   1 34860.8 1924.70   2
  -1  -4   1 34159.3 1448.44   5
  -1  -4   1 34420.5 930.178   7
  -1  -4   1 33194.4 1371.66   6
  -1  -4   0 7374.71 600.390   5
  -1  -4   0 6979.28 825.996   2
   1   4   0 7524.17 577.746   6
   1   4   0 7729.14 836.522   2
  -1  -4   0 6373.54 587.105   6
  -1  -4  -1 30951.6 1423.64   6
   1   4   1 30584.4 1780.75   2
   1   4   1 31407.7 958.199   7
   1   4   2 1613.89 314.473   8
  -1  -4  -2 1155.82 307.201   8
   1   4   2 1633.80 446.798   2
  -1  -4  -2 1154.20 282.383   6
  -1  -4  -3 193765. 4917.29   8
  -1  -4  -3 187148. 4880.33   6
  -1  -4  -4 3917.30 558.613   8
   1   4   4 1975.71 513.444   2
   1   4   5 51871.4 2764.18   2
  -1  -4  -5 53595.1 2240.88   8
  -1  -4  -6 956.546 352.896   2
   1   4   6 1767.73 490.384   2
  -1  -4  -6 1078.16 317.325   8
   1   4   6 1380.63 310.146   3
  -1  -4  -7 10681.1 986.413   8
   1   4   7 13348.0 1501.30   2
  -1  -4  -7 10979.2 1293.94   5
  -1  -4  -7 11102.7 1149.06   3
   1   4   7 12435.0 948.811   3
   1   4   7 11239.3 1194.92   4
  -1  -4  -7 12684.1 1261.83   2
  -1  -4  -8 391.542 219.761   8
   1   4   8 360.347 265.947   2
   1   4   8 334.372 248.624   4
  -1  -4  -8 65.9385 176.889   3
   1   4   8 504.952 231.565   3
  -1  -4  -8 355.106 287.844   5
   1   4   9 5254.32 899.619   4
   1   4   9 4164.86 879.984   2
  -1  -4  -9 3987.67 600.444   8
   1   4   9 5671.15 738.720   3
  -1  -4  -9 3622.99 653.910   3
  -1  -4  -9 3881.77 908.904   5
  -1  -4 -10-92.0195 259.216   3
  -1  -4 -10 152.997 71.8007   8
   1   4  10 4.40310 187.954   2
   1   4  11 3475.73 841.825   2
  -1  -4 -11 2510.51 472.536   8
  -1  -4 -11 2571.92 577.845   3
  -1  -4 -12 119.223 154.568   3
   1   4  12 549.224 494.768   2
  -1  -4 -12 89.5127 93.8174   8
   1   4  13 4422.57 1052.80   2
  -1  -4 -13 4912.84 881.902   3
   1   4  14 21.2178 199.211   2
  -1  -4 -14-226.452 215.010   3
  -1  -4 -15 512.687 296.252   3
   1   4  15 467.757 425.907   2
   1   4  16 710.227 528.845   2
  -1  -4 -16 176.724 266.718   3
   1   5 -11 887.624 348.456   3
  -1  -5  11 986.987 549.962   7
  -1  -5  11 1218.96 470.596   1
   1   5 -10 45.8227 146.991   3
   1   5 -10-115.021 100.861   4
  -1  -5  10 66.1430 97.8727   1
  -1  -5  10-189.365 243.685   7
  -1  -5  10 375.109 482.902   5
   1   5  -9 10668.7 1166.43   3
  -1  -5   9 11443.6 1654.08   7
  -1  -5   9 10928.6 1741.06   5
   1   5  -9 11232.2 1197.26   4
  -1  -5   9 8988.82 1220.95   1
  -1  -5   8 579.155 276.735   1
   1   5  -8 850.235 342.563   3
   1   5  -8 541.867 243.126   4
  -1  -5   8 1062.43 466.873   2
  -1  -5   8 910.182 438.721   5
  -1  -5   8 911.016 430.689   7
  -1  -5   7 8737.50 1142.45   1
  -1  -5   7 10084.2 1527.10   5
   1   5  -7 11072.3 1184.27   3
  -1  -5   7 8666.47 1175.71   7
   1   5  -7 10240.4 896.624   6
   1   5  -7 10250.2 1123.05   4
  -1  -5   7 10315.3 1376.09   2
  -1  -5   6-122.081 139.410   1
   1   5  -6 208.524 116.013   6
  -1  -5   6 123.719 132.486   2
   1   5  -6 336.538 230.052   5
   1   5  -6-87.5183 132.790   8
   1   5  -6 192.795 136.347   4
  -1  -5   6 209.660 182.030   7
   1   5  -6 386.242 234.335   3
  -1  -5   6 495.509 265.188   5
   1   5  -5 2494.99 573.095   5
   1   5  -5 2744.62 564.671   8
  -1  -5   5 3175.25 643.341   1
   1   5  -5 3315.40 569.175   4
  -1  -5   5 2723.53 662.006   5
  -1  -5   5 2596.05 630.885   2
  -1  -5   5 2964.17 522.540   7
   1   5  -5 3151.27 423.617   6
   1   5  -5 2902.70 593.289   3
   1   5  -4 1800.97 467.285   3
  -1  -5   4 2032.67 499.530   5
  -1  -5   4 1959.99 515.319   1
   1   5  -4 1926.32 471.961   8
  -1  -5   4 2025.44 366.089   7
   1   5  -4 1996.04 313.109   6
  -1  -5   4 2364.62 588.209   2
   1   5  -4 1674.23 429.772   5
   1   5  -4 1653.43 394.953   4
   1   5  -3 1951.51 439.307   5
   1   5  -3 2105.78 298.357   6
   1   5  -3 2628.91 543.600   8
  -1  -5   3 2498.67 557.674   2
   1   5  -3 2846.59 537.289   4
  -1  -5   3 2152.03 292.289   7
  -1  -5   3 1910.41 445.263   5
  -1  -5   3 2752.69 568.734   1
  -1  -5   2-134.457 104.617   5
  -1  -5   2-28.1109 157.274   1
   1   5  -2 39.8951 56.1658   6
   1   5  -2 262.993 225.401   4
  -1  -5   2 48.0454 36.5472   7
   1   5  -2-153.806 159.391   8
  -1  -5   1 85296.0 2780.84   5
   1   5  -1 90564.1 3412.83   2
  -1  -5   1 89188.6 2564.72   6
   1   5   0 10978.8 1119.34   2
  -1  -5   0 11260.1 851.771   6
  -1  -5   0 11739.8 890.464   5
   1   5   1 204611. 5784.15   2
  -1  -5  -1 197565. 4791.66   6
  -1  -5  -1 201427. 4725.91   5
  -1  -5  -2 3794.86 645.844   8
  -1  -5  -2 3595.80 567.385   6
   1   5   2 4084.20 706.749   2
  -1  -5  -3 82999.2 3270.50   8
  -1  -5  -3 72966.0 2964.99   6
   1   5   3 76501.9 2656.41   8
  -1  -5  -4 462.326 242.492   8
   1   5   4 656.775 297.978   2
   1   5   5 3592.38 758.760   2
  -1  -5  -5 3823.42 655.135   8
   1   5   6 6881.94 697.507   3
  -1  -5  -6 5150.50 783.213   8
  -1  -5  -6 5331.05 894.375   2
   1   5   6 7145.99 1084.97   2
   1   5   7 8127.36 1188.04   2
  -1  -5  -7 8768.59 1119.21   2
   1   5   7 8161.77 791.291   3
  -1  -5  -7 5976.35 837.539   8
  -1  -5  -8 215.093 203.289   5
   1   5   8 482.762 266.635   4
  -1  -5  -8-20.3784 105.751   8
  -1  -5  -8 291.314 158.950   2
   1   5   8 219.549 297.418   2
   1   5   8 184.841 109.027   3
  -1  -5  -9 11035.1 1118.46   8
  -1  -5  -9 9484.17 1409.46   5
   1   5   9 13738.0 1719.50   2
   1   5  10 369.387 343.867   2
  -1  -5 -10 96.6423 100.349   8
   1   5  11 8080.73 1377.52   2
  -1  -5 -11 5427.37 781.209   8
  -1  -5 -11 8516.95 1173.53   3
  -1  -5 -12 130.144 135.275   8
   1   5  12-11.2394 192.302   2
  -1  -5 -12-122.867 218.451   3
  -1  -5 -13 1106.56 430.429   3
   1   5  13 608.323 223.800   2
   1   5  14-570.014 459.680   2
   1   5  15 334.672 262.878   2
  -1  -6  11 1225.98 504.708   1
   1   6 -10 334.732 218.188   3
  -1  -6  10-122.397 181.644   1
  -1  -6  10-55.2566 271.203   5
   1   6  -9 2376.60 576.078   3
   1   6  -9 1580.91 478.685   4
  -1  -6   9 1894.54 604.352   7
  -1  -6   9 1960.94 584.850   1
  -1  -6   9 1072.35 515.867   5
  -1  -6   8 23.8838 230.030   7
   1   6  -8 391.684 218.278   4
  -1  -6   8 193.308 113.848   1
   1   6  -8 509.521 243.727   3
  -1  -6   8 778.195 509.275   5
  -1  -6   7 7959.42 1169.66   1
   1   6  -7 9064.06 1127.06   3
  -1  -6   7 8696.91 1055.68   7
   1   6  -7 8709.33 1084.95   4
  -1  -6   7 8357.95 1438.78   5
   1   6  -6 94.4530 108.828   4
   1   6  -6 98.7099 44.0288   6
   1   6  -6-17.6991 203.079   3
  -1  -6   6 166.902 61.8086   7
  -1  -6   6 536.064 339.745   5
  -1  -6   6 183.867 232.784   1
   1   6  -5 6531.64 892.975   4
   1   6  -5 6037.59 466.980   6
  -1  -6   5 6343.59 676.554   7
  -1  -6   5 6260.38 972.431   1
   1   6  -5 6799.67 965.272   3
   1   6  -5 7140.54 1031.34   5
  -1  -6   5 6475.19 1125.15   2
  -1  -6   5 5367.02 979.673   5
   1   6  -4 732.474 161.050   6
   1   6  -4 527.708 253.024   4
  -1  -6   4 374.590 145.262   7
   1   6  -4 946.004 322.065   5
  -1  -6   4 897.455 434.191   2
  -1  -6   4 863.800 298.263   5
  -1  -6   4 495.151 254.219   1
   1   6  -3 25107.4 1798.71   8
  -1  -6   3 24653.8 846.639   7
   1   6  -3 24492.0 1752.27   4
  -1  -6   3 23581.2 1688.52   5
  -1  -6   3 22464.1 1976.83   2
  -1  -6   3 24546.7 1929.73   1
   1   6  -2 5775.29 815.100   8
   1   6  -2 5132.94 763.838   4
  -1  -6   2 3750.97 792.948   2
  -1  -6   2 5632.49 895.538   1
  -1  -6   2 5167.34 726.057   5
   1   6  -1 7642.91 1010.62   2
  -1  -6   1 7678.94 692.225   6
  -1  -6   1 9486.58 1243.93   2
  -1  -6   1 8120.43 843.501   5
   1   6  -1 8890.26 973.345   8
   1   6   0 277.340 196.818   2
  -1  -6   0 812.884 335.574   2
  -1  -6   0 521.453 203.808   5
  -1  -6   0 212.429 139.056   6
  -1  -6  -1 56997.7 2333.07   6
  -1  -6  -1 59276.4 3094.24   2
   1   6   1 60837.7 3038.74   2
  -1  -6  -1 58338.0 2365.55   5
   1   6   2 1606.22 506.578   2
  -1  -6  -2 1282.33 359.069   6
   1   6   2 1503.66 369.754   8
  -1  -6  -3 23020.8 1654.61   6
  -1  -6  -3 21938.4 1801.24   8
   1   6   3 18212.3 1260.45   3
   1   6   3 22535.0 1456.75   8
   1   6   3 22478.2 1926.68   2
  -1  -6  -4 4116.83 772.916   8
  -1  -6  -4 3967.81 728.996   6
   1   6   4 3494.29 530.238   3
   1   6   4 2592.10 705.698   2
  -1  -6  -5 23727.9 1884.76   8
   1   6   5 24485.3 1438.09   3
  -1  -6  -5 21812.3 1915.82   2
   1   6   5 24746.3 2131.46   2
  -1  -6  -6 370.006 308.143   2
   1   6   6 284.693 174.283   3
   1   6   6 504.093 453.736   2
  -1  -6  -6 159.741 201.358   8
  -1  -6  -7 29669.1 2113.18   8
   1   6   7 35420.2 2701.95   2
  -1  -6  -8 133.660 224.783   8
   1   6   8-6.89666 193.656   2
   1   6   9 17912.0 2037.84   2
  -1  -6  -9 14010.0 1420.64   8
  -1  -6 -10-54.6010 105.750   8
   1   6  10 52.2305 222.801   2
   1   6  11 1131.77 561.146   2
  -1  -6 -11 1147.44 399.621   8
  -1  -6 -12-145.554 143.721   8
   1   6  12-121.508 269.066   2
   1   6  13 1083.91 566.506   2
   1   6  14 294.542 172.388   2
   1   6  15 882.463 575.224   2
  -1  -7  10-113.071 165.582   1
  -1  -7  10 823.016 580.685   5
   1   7  -9 2119.27 590.745   3
  -1  -7   9 555.229 452.903   5
  -1  -7   9 963.196 459.442   1
   1   7  -8 738.405 355.738   3
  -1  -7   8 441.115 360.241   1
   1   7  -8 285.905 237.408   4
  -1  -7   8 622.218 434.646   5
   1   7  -7 3928.12 801.307   3
   1   7  -7 3248.85 727.108   4
  -1  -7   7 4829.45 1130.13   5
  -1  -7   7 3576.14 834.436   1
   1   7  -6 2430.97 612.830   3
   1   7  -6 2162.55 568.918   4
  -1  -7   6 1626.14 336.755   7
  -1  -7   6 1207.55 466.098   1
  -1  -7   6 1011.64 492.839   5
  -1  -7   5 17886.9 1798.63   1
   1   7  -5 21358.7 1795.63   4
  -1  -7   5 19176.2 1011.11   7
   1   7  -5 21043.1 1852.35   3
  -1  -7   5 19997.6 1944.95   5
   1   7  -4 206.450 219.366   4
  -1  -7   4 404.888 257.013   5
  -1  -7   4 92.5052 102.990   1
  -1  -7   3 1342.57 511.496   1
   1   7  -3 798.881 340.627   4
  -1  -7   3 860.477 344.814   5
  -1  -7   2 90.9996 106.731   5
   1   7  -2 88.2718 114.047   4
  -1  -7   2 404.815 297.955   1
   1   7  -1 9292.21 1142.02   4
   1   7  -1 9877.20 1270.42   2
  -1  -7   1 10769.2 1414.90   2
  -1  -7   1 10023.6 841.350   6
  -1  -7   1 10061.4 1044.13   5
  -1  -7   0 1926.48 607.243   2
  -1  -7   0 2275.53 497.071   5
   1   7   0 1658.08 539.256   2
  -1  -7   0 2054.11 413.470   6
  -1  -7  -1 7497.52 842.976   6
   1   7   1 7722.52 1140.59   2
  -1  -7  -1 6171.48 796.931   5
   1   7   1 8524.78 972.392   8
  -1  -7  -1 7999.14 1205.43   2
   1   7   2 1123.45 349.562   8
  -1  -7  -2 550.225 265.370   2
  -1  -7  -2 991.765 350.515   6
   1   7   2 1040.25 465.864   2
   1   7   3 19645.8 1911.42   2
  -1  -7  -3 22990.0 2079.07   8
   1   7   3 20681.7 1512.86   8
  -1  -7  -3 26847.6 2216.76   2
   1   7   3 19721.0 1385.92   3
  -1  -7  -3 20381.1 1640.70   6
  -1  -7  -4 2357.62 664.993   8
   1   7   4 1025.89 475.062   2
  -1  -7  -4 2079.61 607.955   6
   1   7   5 29294.0 2530.53   2
  -1  -7  -5 35300.9 2585.41   8
  -1  -7  -5 30548.5 2374.24   6
  -1  -7  -6 3543.08 805.118   8
   1   7   6 3876.99 945.631   2
  -1  -7  -6 3439.66 816.100   6
   1   7   7 13294.3 1747.14   2
  -1  -7  -7 8718.16 1268.78   8
   1   7   8 2387.70 774.875   2
  -1  -7  -8 724.930 341.771   8
  -1  -7  -9 2351.04 601.832   8
   1   7   9 4411.96 1050.18   2
   1   7  10 319.580 470.810   2
  -1  -7 -10 231.010 284.394   8
   1   7  11 2653.62 851.938   2
  -1  -7 -11 1403.71 475.466   8
   1   7  12 449.203 390.843   2
  -1  -7 -12 128.849 143.475   8
   1   7  13 1322.76 628.299   2
   1   7  14-122.463 200.872   2
  -1  -8   9 2299.76 902.558   5
  -1  -8   9 395.350 288.911   1
  -1  -8   8 403.080 336.526   1
   1   8  -8 21.7350 192.760   4
  -1  -8   8 44.4650 232.551   5
   1   8  -8 50.7902 215.975   3
  -1  -8   7 1770.92 619.628   1
   1   8  -7 1836.63 609.028   3
   1   8  -7 2608.45 696.180   4
  -1  -8   7 3024.47 906.025   5
  -1  -8   6 887.236 454.073   1
   1   8  -6 422.527 283.576   3
   1   8  -6 255.391 195.449   4
  -1  -8   6 317.222 133.333   5
  -1  -8   5 3619.41 862.473   1
   1   8  -5 2851.84 708.541   3
   1   8  -5 2894.87 704.763   4
  -1  -8   5 3144.89 801.980   5
  -1  -8   4 261.273 328.891   1
  -1  -8   4 181.937 201.253   5
   1   8  -4-50.6414 99.5431   4
  -1  -8   3 14679.5 1516.63   5
  -1  -8   3 13536.6 1668.55   1
   1   8  -3 14630.6 1586.22   4
   1   8  -2 762.029 323.471   4
  -1  -8   2 912.265 421.549   1
  -1  -8   2 1151.33 406.240   5
  -1  -8   1 3189.67 638.886   5
   1   8  -1 2153.05 584.538   4
  -1  -8   1 2706.14 443.925   6
   1   8   0 657.083 368.873   2
  -1  -8   0 578.301 276.136   5
  -1  -8   0 837.150 277.725   6
   1   8   1 7709.47 1223.59   2
  -1  -8  -1 7629.58 984.957   5
  -1  -8  -1 7854.02 908.403   6
  -1  -8  -2-118.210 148.621   5
   1   8   2-84.9653 190.026   2
  -1  -8  -2-30.8621 126.736   6
   1   8   3 30930.7 1034.80   7
  -1  -8  -3 32676.4 2180.16   6
   1   8   3 35383.8 2768.29   2
   1   8   4 6205.21 625.369   7
  -1  -8  -4 8764.41 1453.03   8
  -1  -8  -4 7372.76 1119.18   6
   1   8   4 6690.03 1220.11   2
  -1  -8  -5-164.755 322.128   6
   1   8   5-140.526 324.763   2
  -1  -8  -5 642.322 412.898   8
  -1  -8  -6-71.2920 196.557   8
   1   8   6 418.393 377.749   2
  -1  -8  -6-193.246 309.168   6
   1   8   7 2052.57 716.867   2
  -1  -8  -7 2356.23 723.997   6
  -1  -8  -7 2602.97 771.622   8
  -1  -8  -8 957.624 473.652   8
  -1  -8  -8 287.202 193.720   6
   1   8   8 356.457 473.108   2
  -1  -8  -9 4056.52 927.400   8
   1   8   9 6069.18 1270.07   2
   1   8  10 677.677 532.324   2
  -1  -8 -10-574.777 348.984   8
  -1  -8 -11 501.988 344.598   8
   1   8  11 3645.58 1018.82   2
   1   8  12-384.443 511.411   2
  -1  -8 -12-543.834 328.299   8
   1   8  13 920.960 534.078   2
  -1  -9   8-279.834 367.779   5
   1   9  -7 581.157 385.863   3
  -1  -9   7-314.476 285.940   1
   1   9  -7 316.912 280.528   4
  -1  -9   7 1178.11 609.708   5
   1   9  -6 403.480 330.283   4
   1   9  -6 49.8535 179.875   3
  -1  -9   6 349.230 251.140   1
  -1  -9   6-204.415 187.286   5
   1   9  -5 3188.21 793.399   4
   1   9  -5 3292.66 838.765   3
  -1  -9   5 3125.29 845.896   5
  -1  -9   5 3504.80 927.483   1
  -1  -9   4 228.193 236.129   5
   1   9  -4-212.956 176.576   4
  -1  -9   4-5.39654 201.502   1
   1   9  -3 6267.21 1105.47   4
  -1  -9   3 5316.13 1131.88   1
  -1  -9   3 5000.17 939.365   5
   1   9  -2 236.912 136.398   4
  -1  -9   2 92.1541 123.752   5
  -1  -9   1 4350.84 816.607   5
  -1  -9   1 3788.95 907.187   1
   1   9  -1 3823.00 866.883   4
   1   9   0 2324.08 683.638   4
   1   9   0 1782.25 621.181   2
  -1  -9   0 1833.96 501.360   5
  -1  -9   0 1566.80 400.482   6
   1   9   1 23877.2 2360.12   2
  -1  -9  -1 21630.5 1614.57   6
  -1  -9  -1 20729.6 1750.96   5
  -1  -9  -2 310.310 142.487   5
   1   9   2 177.932 263.539   2
  -1  -9  -2 854.963 385.182   6
  -1  -9  -3 1400.85 473.857   5
  -1  -9  -3 1119.53 415.891   6
   1   9   3 1088.74 537.326   2
   1   9   4 224.304 99.6396   7
  -1  -9  -4 415.458 347.833   6
  -1  -9  -5 3244.67 848.622   6
  -1  -9  -5 4379.24 1081.87   8
   1   9   5 3755.54 993.984   2
   1   9   5 3203.34 497.715   7
  -1  -9  -6 2099.65 705.752   6
   1   9   6 732.393 442.613   2
  -1  -9  -6 1063.30 537.825   8
  -1  -9  -7 1790.53 724.255   8
  -1  -9  -7 3598.95 974.545   6
   1   9   7 2470.09 822.642   2
  -1  -9  -8 325.508 262.239   8
  -1  -9  -8-6.48179 198.893   6
  -1  -9  -9 2864.92 910.835   6
  -1  -9  -9 2510.98 786.735   8
   1   9   9 3177.75 983.331   2
   1   9  10-76.9843 276.136   2
  -1  -9 -10 186.079 207.233   6
  -1  -9 -11 599.543 406.338   8
  -1  -9 -11 727.217 504.360   6
   1   9  11 957.726 616.111   2
  -1  -9 -12 197.004 113.224   8
   1   9  12-94.2450 228.936   2
   1  10  -6-288.495 273.678   3
   1  10  -6 441.301 324.766   4
   1  10  -5 677.100 388.321   4
  -1 -10   5 840.203 485.986   1
   1  10  -5 888.952 455.454   3
  -1 -10   5 406.520 362.318   5
   1  10  -4-100.890 289.157   4
  -1 -10   4-96.4765 180.528   1
  -1 -10   4-2.61279 197.359   5
  -1 -10   3 2933.13 892.354   1
   1  10  -3 1906.69 663.359   4
  -1 -10   3 1872.83 593.935   5
  -1 -10   2-490.365 219.638   1
  -1 -10   2-8.40650 116.701   5
   1  10  -2-395.964 390.158   4
  -1 -10   1 5778.44 990.962   5
  -1 -10   1 7068.90 1390.14   1
   1  10  -1 6259.07 1213.24   4
   1  10   0 92.8226 232.159   4
  -1 -10   0-87.7062 242.304   5
  -1 -10  -1-121.846 253.757   5
  -1 -10  -1 356.743 253.556   6
   1  10   1 321.375 116.127   2
  -1 -10  -2-169.479 198.099   5
  -1 -10  -2 222.607 127.198   6
   1  10   2-112.379 138.801   2
  -1 -10  -3 16344.2 1654.38   6
   1  10   3 15790.3 2060.76   2
  -1 -10  -3 16645.4 1709.61   5
  -1 -10  -4 456.329 257.635   6
   1  10   4 81.0076 253.776   2
   1  10   5 4329.45 1147.27   2
  -1 -10  -5 3874.39 933.577   6
   1  10   6-102.821 299.866   2
  -1 -10  -6 247.044 382.782   8
  -1 -10  -6 647.334 325.815   6
   1  10   7 2563.80 863.464   2
  -1 -10  -7 1475.51 658.181   6
  -1 -10  -7 1311.05 616.719   8
  -1 -10  -8-293.004 396.527   6
  -1 -10  -8-339.005 431.197   8
   1  10   8-276.848 340.558   2
  -1 -10  -9 1290.07 628.295   8
   1  10   9 1615.29 708.638   2
  -1 -10  -9 2380.63 894.257   6
  -1 -10 -10 231.086 276.623   8
  -1 -10 -10-23.5764 384.570   6
   1  10  10-248.248 341.281   2
  -1 -10 -11-225.040 261.972   8
  -1 -10 -12-607.803 412.466   8
   1  11  -4 552.475 386.237   4
   1  11  -3 1133.36 573.712   4
   1  11  -2-273.484 196.436   4
  -1 -11   1-233.452 403.978   1
   1  11  -1 623.676 483.692   4
  -1 -11   0-101.047 195.169   1
   1  11   0 408.448 333.921   4
  -1 -11  -1 3312.81 772.718   5
   1  11   1 2779.51 866.755   4
  -1 -11  -2 100.670 181.279   5
   1  11   2 551.244 464.846   2
  -1 -11  -3 2534.07 721.198   5
   1  11   3 3472.74 1001.05   2
  -1 -11  -4 39.0824 76.7916   5
  -1 -11  -4-69.6853 139.792   6
   1  11   5 3093.25 990.840   2
  -1 -11  -5 2231.83 648.556   6
   1  11   6 140.582 255.094   2
  -1 -11  -6 131.644 266.619   6
   1  11   7 1622.76 713.264   2
  -1 -11  -7 897.960 514.090   6
  -1 -11  -8 8.21936 176.579   8
  -1 -11  -8-19.5797 107.727   6
  -1 -11  -9 433.862 394.419   8
  -1 -11  -9 1240.55 727.574   6
  -1 -11 -10 127.386 225.914   8
  -1 -11 -11 874.441 599.514   8
  -1 -12  -7 156.346 245.168   6
  -1 -12  -8-61.0369 180.925   6
   2 -11  -3-256.957 351.094   5
   2 -11  -2 3391.35 1022.67   5
   2 -11  -1-483.275 399.335   5
   2 -11   0 1370.29 708.117   5
   2 -11   1 24.2874 141.361   5
   2 -11   2 874.102 525.618   5
   2 -11   3 398.722 354.252   5
  -2  10  10 364.348 413.198   2
  -2  10   9 132.231 223.876   2
   2 -10  -8 1200.40 574.045   8
  -2  10   8 514.728 458.399   2
   2 -10  -7-441.894 352.399   8
  -2  10   7 138.283 137.560   2
  -2  10   6 1802.30 709.817   2
   2 -10  -6 560.350 392.887   8
   2 -10  -5 238.587 231.785   8
  -2  10   5 38.5094 147.768   2
  -2  10   4 5176.96 1174.32   4
   2 -10  -4 3827.63 1025.82   8
  -2  10   3-272.563 299.343   4
   2 -10  -3-321.941 315.767   8
   2 -10  -2 1966.43 744.214   8
  -2  10   2 852.144 467.144   4
   2 -10  -2 1058.86 631.860   5
   2 -10  -1-336.982 325.952   5
   2 -10  -1-9.64994 107.693   8
  -2  10   0 2467.37 831.230   4
   2 -10   0 3890.41 1036.52   5
   2 -10   0 2265.59 777.050   8
   2 -10   1 296.853 247.817   5
   2 -10   1 643.852 405.293   8
  -2  10  -1 107.349 173.921   4
   2 -10   2 1386.40 621.559   5
  -2  10  -2 3239.54 917.234   4
  -2  10  -3 6.04572 130.757   4
   2 -10   3-218.898 118.914   5
  -2  10  -4 1104.91 454.688   4
   2 -10   4 2007.72 773.023   5
   2 -10   5 262.245 280.712   5
   2 -10   6-303.156 285.138   1
   2  -9 -11-192.854 221.777   8
  -2   9  11-432.151 342.815   7
  -2   9  11 3.23651 310.914   2
   2  -9 -10 1329.99 616.410   8
  -2   9  10 1072.83 586.505   2
  -2   9  10 803.775 445.151   7
   2  -9  -9 262.460 305.149   8
  -2   9   9-266.261 305.711   7
  -2   9   9-248.087 250.116   2
  -2   9   8 1500.57 527.389   7
   2  -9  -8 1924.85 739.037   8
  -2   9   8 1275.65 584.068   2
  -2   9   7 487.198 403.299   2
  -2   9   7 180.208 167.283   7
   2  -9  -7 76.9889 178.163   8
  -2   9   6 4650.78 1093.74   2
  -2   9   6 3735.14 792.130   7
   2  -9  -6 2745.08 793.726   8
  -2   9   5 195.092 212.475   7
  -2   9   5 352.312 335.453   2
   2  -9  -5-271.540 288.531   8
   2  -9  -4 1663.08 602.823   8
  -2   9   4 1157.22 383.183   7
  -2   9   4 1729.80 718.215   2
  -2   9   3-25.6520 197.571   4
  -2   9   3 10.9426 64.9451   7
   2  -9  -3-24.0426 178.343   8
   2  -9  -2 6708.80 1274.21   8
  -2   9   2 5307.34 673.147   7
  -2   9   2 6871.18 1256.25   4
   2  -9  -1-47.9171 358.718   5
   2  -9  -1-565.607 370.368   8
  -2   9   1 251.365 340.794   4
   2  -9   0 11943.1 1733.53   5
   2  -9   0 12097.8 1726.96   8
  -2   9   0 11623.6 1629.68   4
   2  -9   1 497.631 348.402   5
   2  -9   1 623.504 400.465   8
  -2   9  -1 517.234 340.061   4
   2  -9   2 13943.5 1842.50   8
  -2   9  -2 10308.7 1554.93   4
   2  -9   2 12451.6 1764.52   5
   2  -9   3-104.049 290.509   5
  -2   9  -3-23.8044 254.383   4
   2  -9   4 1645.19 660.235   5
  -2   9  -4 2083.43 673.374   4
   2  -9   5 59.7394 113.232   5
  -2   9  -5-83.1008 251.295   4
   2  -9   6 1650.02 642.695   1
  -2   9  -6 1754.85 636.937   4
   2  -9   6 2400.39 822.361   5
  -2   9  -7-331.328 304.836   4
   2  -9   7-176.716 301.851   1
   2  -9   7 202.065 244.471   5
   2  -9   8 348.315 309.488   1
   2  -8 -12 1058.36 480.745   8
  -2   8  12 423.738 358.245   2
  -2   8  12 807.485 483.212   7
  -2   8  11 721.198 451.095   7
  -2   8  11-2.92724 181.147   2
   2  -8 -11 70.6351 292.956   8
  -2   8  10 1420.28 570.100   7
  -2   8  10 856.675 538.346   2
   2  -8 -10 900.570 450.294   8
   2  -8 -10 1217.19 515.491   3
  -2   8   9 118.274 126.715   2
   2  -8  -9-79.5033 208.790   3
   2  -8  -9 267.931 258.740   8
  -2   8   9 89.1773 161.005   7
  -2   8   8 1456.90 581.697   2
  -2   8   8 1204.35 472.876   7
   2  -8  -8 2015.18 663.187   8
   2  -8  -7 251.312 331.390   8
  -2   8   7-161.241 246.421   7
  -2   8   7 12.9120 154.099   2
   2  -8  -6 1206.34 518.031   8
  -2   8   6 534.915 330.473   7
  -2   8   6 1494.56 592.933   2
   2  -8  -5 190.110 271.151   8
  -2   8   5 718.997 481.944   2
  -2   8   5 507.898 320.437   7
   2  -8  -4 8760.57 1338.57   8
  -2   8   4 8876.69 1404.58   2
  -2   8   4 10484.0 1173.49   7
   2  -8  -3-20.3407 233.279   8
  -2   8   3 53.9114 122.013   7
  -2   8   3-418.015 413.282   2
  -2   8   2 11332.0 1506.66   4
   2  -8  -2 12023.0 1561.03   8
  -2   8   2 12564.7 1113.73   7
  -2   8   1 8.84827 188.971   4
   2  -8  -1-190.368 305.412   8
   2  -8   0 11193.8 1496.55   8
  -2   8   0 14855.7 1732.83   4
  -2   8   0 12714.3 1053.17   3
   2  -8   0 11862.3 1618.80   5
   2  -8   1-251.288 240.090   5
   2  -8   1 155.480 232.216   8
   2  -8   1 76.7642 41.6985   6
  -2   8  -1 9.89770 55.3839   3
  -2   8  -1 56.2926 114.171   4
   2  -8   2 6214.73 1159.27   5
  -2   8  -2 6874.94 1186.07   4
   2  -8   2 6090.94 1111.50   8
  -2   8  -2 6843.26 730.277   3
   2  -8   3 172.113 119.924   5
   2  -8   3-104.399 226.282   8
  -2   8  -3-16.2269 174.059   4
  -2   8  -3 308.147 161.460   3
   2  -8   4 12475.6 1683.05   5
  -2   8  -4 12093.7 1595.94   4
  -2   8  -5-31.5757 136.484   4
   2  -8   5 116.247 182.740   5
   2  -8   6 6572.69 1282.62   5
   2  -8   6 5091.36 993.619   1
  -2   8  -6 6074.84 1157.15   4
   2  -8   7 242.274 348.676   5
  -2   8  -7 204.495 307.002   4
   2  -8   7 90.1449 183.262   1
   2  -8   8 2386.50 704.171   1
   2  -8   8 3585.30 1033.92   5
  -2   8  -8 3060.37 892.934   4
  -2   8  -9 289.966 310.149   4
  -2   7  12 488.580 387.776   7
  -2   7  12-84.9466 278.742   2
   2  -7 -11 206.680 199.763   3
  -2   7  11-225.105 285.623   7
  -2   7  11-360.206 215.371   2
  -2   7  10 868.233 452.160   2
   2  -7 -10 1324.59 410.989   3
  -2   7  10 1821.68 664.152   7
   2  -7  -9-137.519 288.743   3
  -2   7   9 278.770 298.184   2
  -2   7   9 68.3906 174.293   7
   2  -7  -8 2261.12 576.955   3
  -2   7   8 2252.00 688.334   2
  -2   7   8 1751.12 585.587   7
  -2   7   7-75.2375 261.805   2
   2  -7  -7-247.162 330.325   3
  -2   7   7-154.708 254.489   7
   2  -7  -6 9053.32 1125.66   3
   2  -7  -6 9942.36 1302.49   8
  -2   7   6 9960.05 1426.03   2
  -2   7   6 9401.17 1177.29   7
   2  -7  -5 1285.62 498.026   8
  -2   7   5 1498.20 572.274   2
   2  -7  -5 604.039 194.862   3
  -2   7   5 687.386 275.950   7
  -2   7   4 17475.1 1496.19   7
   2  -7  -4 16656.1 1719.64   8
  -2   7   4 18734.6 1859.06   2
  -2   7   3 97.2708 192.311   7
  -2   7   3 83.3394 203.052   2
  -2   7   3 36.9099 134.604   3
   2  -7  -3 463.891 260.639   8
  -2   7   2 2061.87 631.084   4
  -2   7   2 1954.19 426.050   7
   2  -7  -2 2001.80 614.146   8
  -2   7   2 2733.15 501.808   3
  -2   7   1 313.369 189.431   7
   2  -7  -1 195.304 187.501   8
  -2   7   1 255.178 174.935   3
  -2   7   1 101.999 122.879   4
  -2   7   0 344.943 211.428   4
  -2   7   0 668.157 241.165   3
   2  -7   0 111.483 165.204   8
   2  -7   0 286.622 160.971   5
   2  -7   1 86.0753 208.763   5
   2  -7   1 259.734 197.125   8
  -2   7  -1 558.339 330.972   4
  -2   7  -1 346.804 183.936   3
  -2   7  -2 32792.6 2436.30   4
   2  -7   2 36699.3 2514.83   8
  -2   7  -2 33847.5 1591.95   3
   2  -7   2 29359.1 1306.30   7
   2  -7   2 34579.1 2605.32   5
   2  -7   3 87.8264 246.094   5
   2  -7   3 57.3066 52.4877   7
   2  -7   3 102.903 130.387   8
  -2   7  -3 180.645 224.170   4
   2  -7   4 4475.68 549.131   7
  -2   7  -4 3618.14 851.187   4
   2  -7   4 5480.24 1032.97   5
   2  -7   5 70.2062 109.529   7
   2  -7   5 137.537 189.742   5
  -2   7  -5-205.636 215.272   4
  -2   7  -6 7067.03 1181.40   4
  -2   7  -6 5986.47 723.875   3
   2  -7   6 7806.13 1329.18   5
  -2   7  -7 6.96661 96.1116   4
   2  -7   7-124.038 167.708   5
   2  -7   7-45.7103 218.361   1
  -2   7  -8 9082.97 1406.69   4
   2  -7   8 8910.79 1232.80   1
   2  -7   8 11306.8 1738.86   5
   2  -7   9 416.728 291.127   1
  -2   7  -9 453.399 341.129   4
   2  -7   9 23.9613 190.278   5
  -2   7 -10 776.951 436.907   4
  -2   6  12 1148.19 645.097   7
   2  -6 -12 666.602 347.818   3
  -2   6  12 789.580 388.241   2
  -2   6  11 174.064 375.321   7
  -2   6  11-251.755 228.731   2
   2  -6 -11-168.704 233.565   3
  -2   6  10 2955.10 852.773   7
  -2   6  10 3724.51 892.146   2
   2  -6 -10 3984.02 770.568   3
  -2   6   9-95.8154 171.451   7
   2  -6  -9 323.495 269.030   3
  -2   6   9-289.645 177.317   2
   2  -6  -8 10937.8 1171.15   3
   2  -6  -8 10091.9 1309.23   2
  -2   6   8 9282.08 1345.03   7
  -2   6   8 9368.50 1340.77   2
   2  -6  -7 2255.02 621.309   2
  -2   6   7 2140.80 613.226   7
  -2   6   7 3065.13 747.083   2
   2  -6  -7 2600.24 555.024   3
  -2   6   6 11091.5 1383.74   2
   2  -6  -6 9730.35 1052.36   3
  -2   6   6 9268.33 1199.07   7
   2  -6  -6 9820.60 1295.95   2
   2  -6  -5 528.082 278.892   2
   2  -6  -5 605.954 132.481   3
  -2   6   5 931.541 336.585   7
  -2   6   5 840.190 381.766   2
  -2   6   4 10480.5 1081.91   3
  -2   6   4 10853.0 1319.80   2
   2  -6  -4 9470.93 1209.03   2
  -2   6   4 9147.32 1044.92   7
   2  -6  -4 9534.48 1025.26   3
   2  -6  -3 328.279 239.149   2
  -2   6   3 357.166 170.380   3
  -2   6   3 387.361 241.042   7
  -2   6   3 263.192 152.791   2
   2  -6  -3-160.194 282.020   3
   2  -6  -3 79.8708 172.182   8
  -2   6   2 6714.07 762.732   3
  -2   6   2 6291.73 981.471   2
   2  -6  -2 6037.30 931.695   8
  -2   6   2 5809.89 741.503   7
   2  -6  -2 5068.67 866.364   2
  -2   6   1 1034.30 388.497   4
  -2   6   1 623.475 229.812   7
   2  -6  -1 589.399 273.140   2
   2  -6  -1 938.691 365.725   8
  -2   6   1 1276.70 314.980   3
   2  -6   0 30575.8 2066.49   8
  -2   6   0 26753.6 2034.73   4
   2  -6   0 27301.4 2089.38   2
   2  -6   0 28266.8 1396.42   7
  -2   6   0 30861.1 1561.73   7
  -2   6  -1 772.811 405.324   4
   2  -6   1 1083.69 404.985   2
   2  -6   1 1476.95 455.479   8
   2  -6   1 1140.22 254.963   7
   2  -6   1 757.741 294.269   5
   2  -6   2 8088.53 449.322   6
  -2   6  -2 7537.77 1072.42   4
   2  -6   2 7855.12 686.957   7
   2  -6   2 8165.81 1065.06   8
  -2   6  -2 9029.21 728.048   3
   2  -6   2 8222.87 1181.24   5
   2  -6   3 68.7345 120.500   5
   2  -6   3 133.309 84.2446   7
  -2   6  -3 44.8132 58.3535   3
  -2   6  -3 18.8833 141.573   4
   2  -6   3-7.76975 151.874   8
  -2   6  -4 13300.0 1478.47   4
   2  -6   4 13886.2 1580.93   5
   2  -6   4 10825.1 940.407   7
  -2   6  -4 14625.7 891.009   3
   2  -6   4 13945.5 1421.93   8
  -2   6  -5 24.0015 169.579   4
  -2   6  -5-15.4637 43.5852   3
   2  -6   5 107.885 93.3566   7
   2  -6   6 4532.05 949.259   5
  -2   6  -6 2951.45 401.735   3
  -2   6  -6 4365.68 856.061   4
  -2   6  -6 3239.61 472.883   3
   2  -6   7-121.973 128.722   1
   2  -6   7 174.172 70.3248   7
  -2   6  -7-115.666 113.576   3
  -2   6  -7-84.3559 209.100   4
   2  -6   8 1764.22 664.893   5
   2  -6   8 697.725 337.475   1
  -2   6  -8 911.035 405.503   4
   2  -6   9 126.836 172.306   1
  -2   6  -9 563.851 393.086   4
   2  -6   9 24.8630 257.094   5
  -2   6 -10 6499.37 1184.88   4
   2  -6  10 6245.73 1398.19   5
  -2   6 -11 117.287 172.088   4
  -2   6 -12 97.3430 202.305   4
   2  -5 -13 350.942 280.413   3
   2  -5 -12 1503.71 496.857   3
  -2   5  12 1653.73 802.415   7
  -2   5  12 1868.99 585.468   2
  -2   5  11 257.884 339.140   7
   2  -5 -11-105.100 233.318   3
  -2   5  11 503.244 386.013   2
   2  -5 -10 6207.47 889.520   3
  -2   5  10 5674.39 1000.61   2
  -2   5  10 7402.26 1372.17   7
  -2   5   9 228.075 238.603   2
  -2   5   9 532.650 499.130   7
   2  -5  -9 30.0511 96.2120   3
   2  -5  -9 100.142 171.858   2
  -2   5   8 15658.9 1787.84   7
   2  -5  -8 12262.7 1344.04   2
  -2   5   8 14527.5 1541.48   2
   2  -5  -8 15891.0 1321.65   3
   2  -5  -7 3194.83 709.193   2
  -2   5   7 3661.80 827.858   7
  -2   5   7 4216.89 821.514   2
   2  -5  -7 4406.78 670.815   3
   2  -5  -6 3963.08 634.098   3
  -2   5   6 2914.41 654.020   7
   2  -5  -6 3528.15 696.352   2
  -2   5   6 3481.70 715.995   2
  -2   5   5 2349.32 518.483   3
  -2   5   5 1961.47 519.581   7
   2  -5  -5 2273.27 565.995   2
   2  -5  -5 2089.18 468.819   3
  -2   5   5 2482.33 606.602   2
  -2   5   4 32100.0 2116.40   2
  -2   5   4 29499.9 1845.59   7
   2  -5  -4 29777.4 1999.95   2
   2  -5  -4 35250.9 1809.37   3
  -2   5   4 35048.3 1997.32   3
   2  -5  -3 2558.55 459.987   3
  -2   5   3 3127.76 553.454   3
  -2   5   3 2932.40 600.084   2
  -2   5   3 2646.03 529.584   7
   2  -5  -3 3617.78 668.027   2
   2  -5  -2 115437. 3511.56   3
  -2   5   2 119006. 4217.43   2
   2  -5  -2 111031. 4107.78   2
  -2   5   2 110182. 3588.77   7
   2  -5  -1 6659.41 889.315   8
  -2   5   1 5538.05 807.480   4
  -2   5   1 5331.58 661.402   7
   2  -5  -1 5326.80 612.559   7
   2  -5  -1 6489.21 892.891   2
  -2   5   0 23624.4 1730.15   4
   2  -5   0 25725.8 1710.55   8
   2  -5   0 24643.0 1789.28   2
   2  -5   0 22152.6 1204.54   7
  -2   5   0 26035.6 1430.43   7
  -2   5   0 23404.9 1211.07   3
   2  -5   1 3970.85 746.794   5
   2  -5   1 3074.08 589.916   8
   2  -5   1 2870.81 409.666   7
  -2   5  -1 3697.25 423.286   3
   2  -5   1 3456.54 667.512   2
  -2   5  -1 2868.92 590.565   4
   2  -5   2 75435.2 3084.11   8
   2  -5   2 71697.0 3317.84   2
  -2   5  -2 68969.7 3177.14   4
  -2   5  -2 81812.8 2229.65   3
   2  -5   2 76225.4 1925.71   6
   2  -5   2 70524.3 2433.71   7
   2  -5   2 79036.2 3555.42   5
   2  -5   3 163.151 123.279   5
  -2   5  -3-36.5147 72.9359   3
   2  -5   3-23.2686 175.592   8
  -2   5  -3-36.7789 104.029   4
   2  -5   3-28.2175 189.645   2
   2  -5   3-52.3097 116.623   7
   2  -5   4 19118.3 1288.93   7
   2  -5   4 22185.8 1624.18   8
  -2   5  -4 20942.1 1717.36   4
   2  -5   4 21587.0 1862.84   2
  -2   5  -4 22256.3 1011.05   3
   2  -5   4 20208.9 1795.18   5
   2  -5   5-39.8753 186.735   5
  -2   5  -5-75.9746 116.703   3
  -2   5  -5-69.8304 215.666   4
  -2   5  -5 80.4285 86.1150   3
   2  -5   5-156.099 126.923   7
  -2   5  -6 8099.51 1133.18   4
  -2   5  -6 7748.84 626.036   3
   2  -5   6 7511.51 1180.24   5
   2  -5   7 99.3675 206.279   5
  -2   5  -7-2.55013 73.0152   3
  -2   5  -7 190.479 181.066   4
   2  -5   7 60.7965 64.2481   1
  -2   5  -8 21783.3 1976.57   4
   2  -5   8 18835.3 1519.77   1
  -2   5  -8 21547.4 999.861   3
   2  -5   8 22147.2 2221.47   5
   2  -5   9-18.7083 159.735   1
  -2   5  -9 82.1620 220.161   4
   2  -5   9 94.0728 172.291   5
   2  -5  10 2684.97 834.104   5
   2  -5  10 1892.49 467.997   1
  -2   5 -10 2731.73 746.179   4
  -2   5 -11-328.828 330.165   4
   2  -5  11 165.259 174.416   5
  -2   5 -12 296.265 303.058   4
  -2   5 -13-626.194 380.617   4
   2  -4 -13 365.711 267.194   3
  -2   4  13 1244.70 694.374   7
  -2   4  12 1737.15 747.412   7
   2  -4 -12 1772.53 484.987   3
  -2   4  12 2568.95 677.820   2
  -2   4  11 454.001 322.393   2
  -2   4  11-44.6238 179.138   7
   2  -4 -11 367.511 231.164   3
  -2   4  10 4382.61 825.868   2
  -2   4  10 4817.16 1119.08   7
   2  -4 -10 5333.10 763.024   3
  -2   4  10 4059.07 765.043   4
  -2   4   9 1624.22 453.981   4
  -2   4   9 1797.92 670.051   7
  -2   4   9 1883.81 534.023   2
   2  -4  -9 1763.00 450.667   3
   2  -4  -8 8407.88 879.453   3
   2  -4  -8 6062.97 816.985   2
  -2   4   8 6894.44 996.873   2
  -2   4   8 6425.66 1153.23   7
  -2   4   7 103.531 232.957   7
  -2   4   7 316.977 258.478   2
   2  -4  -7 355.122 251.897   2
   2  -4  -7 556.869 273.430   3
  -2   4   6 35396.3 2392.82   7
   2  -4  -6 39444.5 1860.06   3
   2  -4  -6 33530.7 2035.03   2
  -2   4   6 38790.9 2239.02   2
  -2   4   6 39766.5 2420.91   3
  -2   4   5 184.835 187.278   7
   2  -4  -5-177.395 172.680   2
   2  -4  -5 112.790 157.689   3
  -2   4   5 232.535 156.209   2
  -2   4   4 104811. 3653.09   2
   2  -4  -4 97952.4 3543.32   2
   2  -4  -4 107371. 3087.36   3
  -2   4   4 102265. 3659.07   3
  -2   4   3 10171.4 997.465   7
  -2   4   3 11368.5 1082.53   2
   2  -4  -3 8892.57 956.947   2
   2  -4  -3 11310.1 852.751   3
   2  -4  -2 128462. 3400.36   3
  -2   4   2 131111. 4091.47   2
   2  -4  -2 119677. 3938.87   2
  -2   4   2 125447. 3771.54   7
  -2   4   1 1946.45 451.751   4
   2  -4  -1 1636.69 372.390   2
   2  -4  -1 1945.93 361.398   7
   2  -4  -1 1999.71 327.774   3
  -2   4   1 1990.09 350.892   3
  -2   4   1 1854.14 360.717   7
  -2   4   0 20804.0 1272.32   7
   2  -4   0 20733.2 1478.84   2
  -2   4   0 23053.5 1532.87   4
   2  -4   0 18059.4 1071.71   7
  -2   4   0 21227.7 1066.85   3
   2  -4   1 1468.02 427.448   5
   2  -4   1 1455.73 372.873   8
   2  -4   1 1213.71 281.145   7
  -2   4  -1 1188.17 336.082   4
  -2   4  -1 1563.03 255.792   3
  -2   4  -2 80296.1 3198.68   4
   2  -4   2 88300.0 2999.35   8
  -2   4  -2 87937.7 2138.22   3
   2  -4   2 79174.7 2615.68   7
   2  -4   2 80935.6 2114.87   6
   2  -4   2 85745.5 3457.98   5
   2  -4   3 21.1587 121.859   5
  -2   4  -3-277.713 296.759   4
   2  -4   3 13.3790 21.5614   6
   2  -4   3-40.3791 100.265   7
  -2   4  -3-4.31571 59.2695   3
  -2   4  -4 110347. 3951.23   4
  -2   4  -4 114563. 2509.48   3
   2  -4   4 114296. 4078.35   4
   2  -4   4 110818. 3582.33   8
   2  -4   4 108025. 3415.38   7
   2  -4   4 113230. 4222.63   5
   2  -4   5 7.98314 169.942   5
  -2   4  -5 13.6778 126.763   5
  -2   4  -5-0.41228 40.7371   3
   2  -4   5 60.3242 180.617   4
  -2   4  -5 40.3405 129.357   4
  -2   4  -6 108062. 4153.35   4
   2  -4   6 106617. 4243.36   4
  -2   4  -6 106967. 2526.57   3
   2  -4   6 113088. 4635.31   5
   2  -4   7 265.313 290.222   5
  -2   4  -7-108.951 218.955   4
  -2   4  -7-17.3234 27.8075   6
  -2   4  -7-19.9560 31.2405   3
   2  -4   7-25.6492 64.6145   1
  -2   4  -8 1482.43 233.250   3
  -2   4  -8 1018.88 203.543   6
  -2   4  -8 822.813 359.370   4
   2  -4   8 817.823 253.940   1
   2  -4   8 1346.40 535.839   5
   2  -4   9 26.6737 82.2071   1
   2  -4   9-323.627 364.808   5
  -2   4  -9-81.2779 134.654   4
  -2   4  -9 25.0648 68.4235   6
   2  -4  10 7498.65 845.156   1
  -2   4 -10 5437.14 983.797   4
   2  -4  10 7306.70 1440.70   5
  -2   4 -11-102.478 222.683   4
   2  -4  11 276.784 424.465   5
  -2   4 -12 1657.47 571.141   4
   2  -4  12 1047.89 632.462   5
  -2   4 -13 75.2066 190.389   4
  -2   3  13 102.390 281.752   7
   2  -3 -13 237.321 263.373   3
  -2   3  12 1633.37 729.291   7
   2  -3 -12 1529.52 444.140   3
  -2   3  12 454.165 282.507   2
  -2   3  11 584.390 514.032   7
  -2   3  11 175.045 157.995   2
   2  -3 -11 442.878 228.315   3
  -2   3  10 405.615 310.430   2
  -2   3  10 303.431 190.538   4
  -2   3  10 312.045 388.153   7
   2  -3 -10 124.619 134.296   3
  -2   3   9 3355.89 667.092   2
   2  -3  -9 2737.41 590.693   1
   2  -3  -9 2499.17 505.572   3
  -2   3   8 52234.9 2565.39   2
  -2   3   8 51371.3 3413.64   7
   2  -3  -8 49769.3 2235.16   3
  -2   3   7 1617.28 421.298   2
  -2   3   7 2234.50 685.952   7
   2  -3  -7 1401.03 347.692   2
  -2   3   7 1339.51 434.306   3
   2  -3  -7 1802.86 395.279   3
  -2   3   6 33730.7 1895.50   2
  -2   3   6 35312.7 2252.39   3
   2  -3  -6 30630.9 1711.35   2
   2  -3  -6 35391.7 1691.64   3
  -2   3   6 32069.3 2312.45   7
  -2   3   5-14.3593 209.859   7
  -2   3   5 163.779 158.994   2
   2  -3  -5 221.293 135.360   2
   2  -3  -5 351.783 193.545   3
   2  -3  -4 10382.9 955.485   2
   2  -3  -4 10686.2 814.813   3
  -2   3   4 10289.5 1056.37   7
  -2   3   4 10983.2 966.178   2
   2  -3  -3 295.102 173.976   3
  -2   3   3 297.485 186.907   2
  -2   3   2 11395.7 962.556   7
   2  -3  -2 11740.0 947.501   7
  -2   3   2 13205.5 1024.08   2
   2  -3  -2 10976.1 933.940   2
   2  -3  -2 12734.4 794.742   3
  -2   3   2 12746.9 969.290   3
  -2   3   1 674.612 215.632   7
   2  -3  -1 698.243 192.319   7
   2  -3  -1 896.682 277.418   2
  -2   3   1 873.771 292.566   4
   2  -3  -1 900.916 204.726   3
  -2   3   1 680.398 190.848   3
  -2   3   0 121998. 3375.91   7
   2  -3   0 111825. 3154.28   7
  -2   3   0 112000. 2915.54   3
   2  -3   0 128119. 2839.28   3
  -2   3   0 121504. 3596.22   4
   2  -3   0 117874. 3495.53   2
  -2   3  -1 768.584 228.048   7
  -2   3  -1 368.278 116.051   4
   2  -3   1 408.835 151.602   7
  -2   3  -1 509.318 139.193   3
   2  -3   2 151472. 4429.88   5
  -2   3  -2 144415. 4122.76   4
   2  -3   2 152065. 3779.76   8
   2  -3   2 141397. 3151.35   6
   2  -3   2 138423. 3686.12   7
   2  -3   3-202.475 183.407   5
   2  -3   3 105.552 92.9195   7
   2  -3   3 24.2189 88.0515   8
  -2   3  -3 22.8744 101.521   4
   2  -3   3 48.6868 44.1160   6
  -2   3  -3 12.3826 42.2493   3
  -2   3  -4 542743. 8935.62   3
  -2   3  -4 545073. 11055.5   4
   2  -3   4 553276. 10207.3   8
   2  -3   4 562938. 11548.7   5
   2  -3   5-385.112 395.616   5
   2  -3   5-208.035 205.837   4
  -2   3  -5-73.3008 186.781   4
  -2   3  -5 38.9639 44.5385   3
  -2   3  -5-76.1932 95.2636   6
  -2   3  -6 3525.97 708.776   5
   2  -3   6 3369.43 724.679   5
   2  -3   6 3298.35 663.192   4
  -2   3  -6 2266.07 541.613   4
  -2   3  -6 2500.59 341.824   6
  -2   3  -6 3113.72 268.123   3
   2  -3   7 42.1378 230.814   5
  -2   3  -7 10.3371 68.7675   3
  -2   3  -7 145.952 166.396   4
   2  -3   7-13.2417 59.6070   1
  -2   3  -7-24.8558 57.4469   6
   2  -3   7-227.539 260.886   4
  -2   3  -8 17334.9 781.065   3
   2  -3   8 16877.6 1118.89   1
  -2   3  -8 18108.6 1613.05   4
  -2   3  -8 17831.3 1118.56   6
   2  -3   8 16172.5 1775.66   5
   2  -3   9-7.25687 75.7134   1
  -2   3  -9-34.4083 63.1706   3
  -2   3  -9-4.34601 45.8760   6
  -2   3 -10 15177.3 1178.12   6
   2  -3  10 14445.2 1026.54   1
   2  -3  10 14065.4 1938.47   5
  -2   3 -10 12100.0 737.664   3
  -2   3 -11 330.610 228.306   4
  -2   3 -11-152.842 177.422   6
   2  -3  11-269.367 225.426   5
  -2   3 -12 2316.63 651.534   4
   2  -3  12 1328.80 670.083   5
  -2   3 -13 98.3226 155.697   4
   2  -3  13 4.22268 178.316   5
  -2   3 -14 910.857 461.127   4
   2  -2 -14 201.097 231.784   3
  -2   2  13 1303.71 703.742   7
   2  -2 -13 572.573 307.480   3
   2  -2 -12 2044.13 488.875   3
  -2   2  12 3394.76 1059.60   7
   2  -2 -11 476.765 215.915   3
  -2   2  11 207.510 199.514   2
  -2   2  10 11114.8 1169.70   2
   2  -2 -10 9825.18 994.066   3
  -2   2   9 626.534 273.905   2
  -2   2   9 1150.25 334.478   4
   2  -2  -9 1269.67 393.517   1
   2  -2  -9 538.485 216.381   3
  -2   2   8 1010.79 295.374   2
  -2   2   8 1193.83 288.521   4
   2  -2  -8 1658.08 408.034   3
   2  -2  -8 1334.20 391.185   1
  -2   2   7 478.839 258.847   3
   2  -2  -7 362.646 206.647   1
  -2   2   7 345.171 193.720   4
  -2   2   7 555.936 291.104   2
   2  -2  -7 131.690 107.670   3
  -2   2   7 654.250 525.320   7
  -2   2   6 7011.97 1062.11   7
  -2   2   6 7279.11 743.322   2
   2  -2  -6 8163.10 783.161   3
   2  -2  -5-34.8720 101.240   3
  -2   2   5-115.309 202.129   7
  -2   2   5 137.203 104.464   2
   2  -2  -5 16.1108 50.0848   2
  -2   2   4 6684.95 625.707   2
   2  -2  -4 8188.82 700.798   3
  -2   2   4 7183.89 885.899   7
   2  -2  -4 6750.81 648.496   2
   2  -2  -3 7131.80 702.046   2
  -2   2   3 5935.51 570.318   2
  -2   2   3 6564.47 781.813   7
   2  -2  -3 5759.86 550.340   3
   2  -2  -2 237246. 5051.03   2
  -2   2   2 244517. 5098.35   2
  -2   2   2 240005. 5586.31   7
   2  -2  -2 232475. 5375.15   7
  -2   2   2 252081. 5429.93   3
   2  -2  -2 235065. 4847.35   3
  -2   2   1 14952.9 1038.48   7
  -2   2   1 13875.0 915.384   4
   2  -2  -1 14941.5 902.026   2
   2  -2  -1 13356.4 898.999   7
   2  -2  -1 15320.0 759.580   3
  -2   2   1 16523.3 958.105   3
  -2   2   0 103540. 2946.31   4
  -2   2   0 107825. 2610.49   3
   2  -2   0 102536. 2884.95   2
  -2   2   0 107147. 3021.66   7
   2  -2   0 102608. 2291.91   3
   2  -2   0 103829. 2940.80   7
  -2   2  -1 463.087 113.207   3
  -2   2  -1 303.800 158.632   7
   2  -2   1 566.274 108.091   3
   2  -2   1 470.336 168.598   4
  -2   2  -1 615.709 200.632   4
   2  -2   1 478.672 161.587   7
   2  -2   1 466.608 157.597   6
  -2   2  -2 598.736 98.8912   3
   2  -2   2 638.210 206.458   7
   2  -2   2 481.114 201.574   5
  -2   2  -2 192.487 113.592   4
   2  -2   2 450.480 137.713   6
   2  -2   3 172.841 82.2563   8
  -2   2  -3 147.008 137.775   4
   2  -2   3 150.757 78.1160   5
  -2   2  -3 106.646 99.0186   6
   2  -2   3 48.3333 30.3120   6
   2  -2   4 29777.1 1216.06   8
  -2   2  -4 28577.0 1619.75   4
  -2   2  -4 27071.0 1184.49   6
   2  -2   4 28928.2 1718.07   5
  -2   2  -5 177.118 191.513   4
  -2   2  -5-39.2117 97.8415   6
   2  -2   5-234.501 195.082   5
   2  -2   6 224507. 5849.04   4
   2  -2   6 215620. 4394.57   1
  -2   2  -6 234333. 5776.69   4
   2  -2   6 259327. 6533.89   5
  -2   2  -6 208658. 4677.42   6
  -2   2  -7-48.1867 94.3055   6
  -2   2  -7-163.367 248.894   5
   2  -2   7 87.3692 111.757   4
  -2   2  -7-80.1000 119.410   4
   2  -2   7 38.0584 72.7336   1
  -2   2  -7-18.8593 42.3382   3
   2  -2   7-197.224 245.935   5
  -2   2  -8 27297.5 1881.85   4
  -2   2  -8 27313.6 1525.08   6
   2  -2   8 28625.9 2022.94   4
   2  -2   8 26018.9 1174.68   1
   2  -2   8 22460.5 2051.12   5
  -2   2  -9 13.0207 51.5569   3
   2  -2   9-185.735 354.075   5
  -2   2  -9 155.699 172.680   4
   2  -2   9 102.113 113.615   1
  -2   2  -9 149.923 116.589   6
  -2   2 -10 10600.4 1260.48   4
  -2   2 -10 7429.02 598.228   3
  -2   2 -10 11688.4 1136.11   6
   2  -2  10 11481.0 1744.76   5
  -2   2 -11 70.8109 193.422   4
   2  -2  11 700.467 579.681   5
  -2   2 -11 343.396 204.811   6
  -2   2 -11 58.6662 83.0560   3
  -2   2 -12 8989.83 1118.18   6
   2  -2  12 7380.57 1537.03   5
  -2   2 -12 8892.58 1248.19   4
  -2   2 -13 137.657 180.098   4
   2  -2  13-42.8143 261.617   5
  -2   2 -14 841.929 463.644   4
  -2   2 -15-100.258 212.537   4
   2  -1 -14 833.914 351.469   3
  -2   1  13 1599.26 803.453   7
   2  -1 -13 384.055 228.483   3
  -2   1  12 8304.23 1680.24   7
   2  -1 -12 5792.68 839.417   3
  -2   1  11 778.070 342.933   2
   2  -1 -11 603.927 293.318   3
  -2   1  10 673.828 317.783   2
   2  -1 -10 719.547 277.024   3
  -2   1  10 439.022 229.110   4
  -2   1   9 85.7319 167.078   2
  -2   1   9-285.195 154.567   4
   2  -1  -9 202.144 131.168   1
   2  -1  -9 164.923 172.318   3
  -2   1   8 11429.5 897.368   4
  -2   1   8 12987.8 1075.98   2
   2  -1  -8 13385.8 1130.72   3
   2  -1  -8 12223.8 1219.21   1
   2  -1  -7 432.435 167.686   3
   2  -1  -7 1063.95 336.793   1
  -2   1   7 514.147 258.342   3
  -2   1   7 803.758 217.089   4
  -2   1   7 378.322 170.463   2
   2  -1  -7 410.400 259.166   5
  -2   1   6 72165.8 2348.96   2
  -2   1   6 68911.5 2132.75   4
  -2   1   6 78768.9 3733.62   7
   2  -1  -6 79264.9 2686.70   3
   2  -1  -6 70816.4 2849.38   1
  -2   1   6 79488.3 3388.28   3
   2  -1  -5 1010.34 281.123   3
  -2   1   5 988.249 232.148   2
  -2   1   5 660.907 167.064   4
  -2   1   5 355.246 236.751   7
  -2   1   4 28587.7 1801.34   7
  -2   1   4 28587.9 1116.40   2
   2  -1  -4 29970.5 1036.19   2
   2  -1  -4 31775.3 1466.29   3
   2  -1  -3 41189.1 1310.85   2
  -2   1   3 42665.3 1286.17   2
   2  -1  -3 46425.4 1728.32   3
  -2   1   3 44048.6 2039.38   7
   2  -1  -2 49075.0 1427.47   2
  -2   1   2 51263.7 1510.18   4
  -2   1   2 48219.9 2000.36   7
   2  -1  -2 55527.8 1763.78   3
  -2   1   2 54159.3 1966.99   3
  -2   1   1 831.078 196.663   3
   2  -1  -1 676.917 174.796   3
   2  -1  -1 573.590 137.039   2
  -2   1   1 657.464 149.261   4
  -2   1   1 875.249 242.911   7
   2  -1   0 1162.72 184.290   3
  -2   1   0 1556.05 234.515   3
   2  -1   0 1955.52 279.265   4
   2  -1   0 1359.36 289.690   7
  -2   1   0 1314.37 229.999   4
  -2   1   0 1462.38 302.653   7
   2  -1   1 294.202 73.4802   3
  -2   1  -1 161.271 63.1750   3
   2  -1   1 268.460 119.625   4
   2  -1   1-26.9622 81.9762   7
   2  -1   1 118.242 56.7013   6
  -2   1  -1 154.119 95.2443   4
  -2   1  -1 145.555 84.3582   7
  -2   1  -2 601.064 215.900   4
   2  -1   2 336.047 150.442   7
   2  -1   2 419.614 153.679   4
   2  -1   2 714.828 237.814   5
  -2   1  -2 697.946 193.532   6
   2  -1   2 778.341 191.881   6
   2  -1   2 537.465 71.7538   3
   2  -1   3 176.899 87.5024   5
  -2   1  -3 106.950 119.443   5
   2  -1   3 157.882 68.4738   6
  -2   1  -3 117.458 73.3005   6
  -2   1  -3 304.774 142.510   4
   2  -1   4 49861.7 1324.68   8
   2  -1   4 46756.6 2067.74   5
  -2   1  -4 45835.3 1990.89   4
  -2   1  -4 49126.2 1765.29   6
   2  -1   5-101.570 117.398   5
   2  -1   5-19.7378 45.1890   3
  -2   1  -5-53.7092 86.8127   4
  -2   1  -5 147.975 137.024   6
   2  -1   6 108200. 2298.43   1
  -2   1  -6 107372. 3186.60   6
  -2   1  -6 118393. 3667.61   4
   2  -1   6 112138. 3731.75   4
  -2   1  -6 98845.4 2207.02   3
   2  -1   6 105312. 2369.75   3
   2  -1   7 160.740 138.381   4
   2  -1   7 21.5696 57.3642   3
  -2   1  -7-16.3237 131.561   4
   2  -1   7-65.0305 261.669   5
   2  -1   7-18.5207 28.9362   1
  -2   1  -7-67.5268 75.3737   6
  -2   1  -7-48.5345 81.1856   3
  -2   1  -8 6718.19 892.056   4
   2  -1   8 7789.72 1010.26   4
   2  -1   8 5846.53 1046.31   5
  -2   1  -8 7710.82 865.840   6
   2  -1   8 6646.86 612.562   3
  -2   1  -8 6822.71 1039.97   5
  -2   1  -8 5865.63 495.536   3
   2  -1   9 453.855 250.734   4
   2  -1   9-21.4342 50.1124   3
  -2   1  -9 29.7328 95.1679   4
   2  -1   9 77.9760 269.941   5
  -2   1  -9 240.766 186.213   6
  -2   1  -9 140.896 87.2673   3
  -2   1 -10 17302.2 1581.16   4
  -2   1 -10 20298.8 1606.67   6
   2  -1  10 16770.5 1218.73   3
   2  -1  10 18450.4 2168.76   5
   2  -1  11-14.8474 81.3390   3
  -2   1 -11 230.482 243.188   4
  -2   1 -11 153.983 170.428   6
  -2   1 -11 37.0662 70.1552   3
   2  -1  11 132.225 301.354   5
  -2   1 -12 3717.00 787.793   4
  -2   1 -12 4079.96 810.243   6
  -2   1 -12 2488.60 427.014   3
   2  -1  12 2896.53 969.972   5
   2  -1  13 138.121 189.712   5
  -2   1 -13 56.3678 237.312   4
  -2   1 -13 415.148 196.657   6
  -2   1 -14 1247.21 506.382   4
  -2   1 -14 814.489 375.102   6
   2  -1  14 799.526 478.856   2
   2  -1  15-209.845 208.282   2
   2   0 -14 578.840 325.029   3
  -2   0  13 830.069 613.781   7
   2   0 -13 285.363 211.049   3
  -2   0  12 2211.79 940.768   7
   2   0 -12 1589.43 442.719   3
   2   0 -11 77.5404 171.123   3
  -2   0  11 94.8088 160.905   2
  -2   0  10 13569.6 1121.57   4
  -2   0  10 15223.4 1241.69   2
   2   0 -10 15929.6 1337.38   3
   2   0  -9 219.957 127.286   3
   2   0  -9 298.388 157.650   1
   2   0  -8 11973.9 1239.99   1
  -2   0   8 12933.6 917.174   4
   2   0  -8 14116.8 1172.39   3
  -2   0   8 13680.9 1010.75   2
   2   0  -7-273.095 258.662   3
   2   0  -7-21.8823 96.8241   1
  -2   0   7 59.2601 106.054   3
  -2   0   7 37.9381 70.4984   4
  -2   0   7 23.3534 81.8844   2
   2   0  -7-20.1598 216.575   5
  -2   0   6 21817.4 969.941   4
  -2   0   6 19128.4 1792.06   7
  -2   0   6 20198.4 1031.36   2
   2   0  -6 20160.1 1442.65   1
   2   0  -6 23194.9 1390.58   3
  -2   0   6 21046.4 1648.11   3
   2   0  -6 21948.6 1934.09   5
  -2   0   5 8312.50 492.113   4
  -2   0   5 7873.94 1051.14   7
  -2   0   5 8320.65 547.873   2
   2   0  -5 8594.17 809.527   3
   2   0  -5 6996.66 1003.41   5
  -2   0   4 97647.4 2002.27   2
  -2   0   4 92142.6 3424.55   7
   2   0  -4 99531.1 2919.85   3
  -2   0   4 91776.3 1881.09   4
   2   0  -4 93532.5 3050.87   1
   2   0  -3-57.1779 85.1094   3
  -2   0   3 3940.99 679.775   7
   2   0  -2 102.884 47.7782   3
  -2   0   2 266.640 110.152   7
   2   0  -2 203.320 141.677   7
   2   0  -1 322.578 84.9944   4
  -2   0   1 262.279 117.880   3
  -2   0   1 381.195 78.0886   4
   2   0  -1 183.955 47.5587   3
  -2   0   1 413.879 191.949   7
  -2   0   0 285771. 5630.40   3
  -2   0   0 299593. 5277.87   4
   2   0   0 294125. 5270.95   4
   2   0   0 288155. 5648.13   1
   2   0   0 288616. 5542.55   3
  -2   0  -1 1265.37 258.651   7
   2   0   1 1166.67 187.241   3
  -2   0  -1 1269.65 221.889   4
   2   0   1 1111.06 211.660   4
   2   0   1 1296.82 267.482   6
  -2   0  -1 1093.79 243.793   6
   2   0   2 1192.87 259.698   6
  -2   0  -2 942.866 207.321   5
   2   0   2 706.574 179.430   5
  -2   0  -2 592.082 155.346   4
   2   0   2 873.920 208.147   4
  -2   0  -2 605.602 173.079   6
   2   0   3 93.1396 101.987   5
  -2   0  -3 263.467 114.659   5
  -2   0  -3 148.384 113.565   4
   2   0   3 201.181 120.044   6
  -2   0  -3 358.503 152.990   6
   2   0   4 106048. 1959.75   3
  -2   0  -4 98808.3 3014.98   4
  -2   0  -4 104054. 2949.33   6
   2   0   4 99222.7 3095.42   5
  -2   0  -4 101653. 3126.02   5
  -2   0  -5 1393.91 350.138   5
   2   0   5 1517.34 178.875   3
  -2   0  -5 1868.67 372.215   6
  -2   0  -5 1614.72 343.373   4
   2   0   5 590.358 194.504   5
  -2   0  -6 65882.6 2526.37   4
  -2   0  -6 55456.3 1668.96   3
   2   0   6 55983.2 1600.49   3
  -2   0  -6 62848.8 2462.59   6
  -2   0  -7 243.650 150.857   5
  -2   0  -7 384.384 161.109   4
  -2   0  -7 370.657 134.910   3
   2   0   7 571.160 270.135   4
   2   0   7 539.548 157.226   3
  -2   0  -7 489.688 223.868   6
   2   0   7 139.271 212.817   5
  -2   0  -8 7133.75 903.538   4
   2   0   8 9664.64 1143.35   4
  -2   0  -8 8403.58 1105.32   5
   2   0   8 7758.39 675.895   3
   2   0   8 9889.98 1331.44   5
  -2   0  -8 8382.75 676.592   3
  -2   0  -8 10662.2 1091.23   6
   2   0   9 900.406 274.824   3
  -2   0  -9 959.724 328.157   4
   2   0   9 921.982 379.986   4
  -2   0  -9 1075.96 364.693   6
  -2   0  -9 630.058 209.712   3
   2   0   9 967.488 512.467   5
   2   0  10 627.860 228.948   3
  -2   0 -10 348.923 165.260   4
  -2   0 -10 694.258 331.432   6
  -2   0 -10 204.872 114.414   3
   2   0  10 359.507 300.167   5
  -2   0 -11-20.3420 145.075   4
   2   0  11-232.622 160.051   3
  -2   0 -11-163.228 241.321   6
   2   0  11-261.167 172.604   5
  -2   0 -11-93.0614 138.687   3
  -2   0 -12 9532.72 1247.66   4
  -2   0 -12 7072.25 783.053   3
   2   0  12 9673.36 1359.58   2
   2   0  12 10338.3 1741.32   5
  -2   0 -12 10322.6 1359.35   6
   2   0  13-60.2496 215.141   2
  -2   0 -13 132.286 51.6507   3
  -2   0 -13 44.2451 140.343   4
  -2   0 -13 53.4159 261.666   6
   2   0  14 1020.93 509.860   2
  -2   0 -14 2468.70 708.141   6
   2   0  15 208.810 256.026   2
  -2   0 -15 514.281 426.279   6
   2   1 -14 482.884 273.913   3
   2   1 -13 338.826 252.835   3
  -2  -1  13 840.437 569.480   7
  -2  -1  12 5185.63 1398.63   7
   2   1 -12 3699.05 723.473   3
  -2  -1  11 2416.73 955.038   7
  -2  -1  11 1520.29 397.088   2
   2   1 -11 2071.60 507.171   3
   2   1 -10 3167.71 583.342   3
  -2  -1  10 4058.45 1100.64   7
  -2  -1  10 3243.29 551.438   2
  -2  -1   9 1403.38 345.827   4
   2   1  -9 1148.65 331.347   3
  -2  -1   9 1639.02 387.368   2
  -2  -1   9 1331.34 599.295   7
   2   1  -9 695.289 321.484   1
   2   1  -8 7099.16 967.458   1
  -2  -1   8 5993.25 635.206   4
  -2  -1   8 5900.24 616.257   2
  -2  -1   8 7358.01 1318.78   7
   2   1  -8 7080.37 845.375   3
   2   1  -7-174.464 208.390   1
  -2  -1   7 118.826 105.335   4
  -2  -1   7 328.134 261.254   3
   2   1  -7-141.413 171.019   3
  -2  -1   7 295.396 310.478   7
  -2  -1   7 40.1244 61.3104   2
   2   1  -7-69.4800 162.625   5
   2   1  -6 113504. 4619.38   5
   2   1  -6 117777. 3982.04   1
   2   1  -6 124313. 3723.08   3
  -2  -1   6 114514. 4248.61   3
  -2  -1   6 118862. 2811.54   4
   2   1  -5 866.743 275.371   3
  -2  -1   5 470.130 220.007   3
  -2  -1   5 938.435 310.324   1
  -2  -1   5 272.717 242.630   7
  -2  -1   5 486.847 107.805   4
   2   1  -5 591.249 287.479   5
  -2  -1   4 19256.0 788.587   2
  -2  -1   4 21730.4 1507.20   7
  -2  -1   4 21067.6 1313.86   1
   2   1  -4 20224.1 1266.32   3
   2   1  -4 17961.9 1468.04   5
  -2  -1   3 1857.37 356.668   1
   2   1  -3 1757.83 312.256   3
  -2  -1   3 1995.15 406.106   7
  -2  -1   3 1813.88 187.345   2
   2   1  -3 1997.70 438.583   5
  -2  -1   2 76333.9 2544.89   7
   2   1  -2 80695.6 2572.26   3
   2   1  -2 75933.2 2473.69   7
  -2  -1   2 82216.8 2544.27   1
   2   1  -1 8243.14 741.839   6
  -2  -1   1 7621.13 646.669   1
   2   1  -1 8622.40 361.520   4
  -2  -1   1 8580.50 714.704   7
   2   1  -1 7185.73 617.622   7
   2   1  -1 8958.22 726.873   3
  -2  -1   1 8171.11 394.401   2
   2   1  -1 8800.36 449.149   2
   2   1   0 114279. 2926.43   1
   2   1   0 114371. 2427.57   4
   2   1   0 115997. 2651.51   2
  -2  -1   0 118704. 3060.92   7
   2   1   0 121010. 3105.96   7
   2   1   0 116145. 2993.96   3
  -2  -1   0 118388. 2918.75   1
   2   1   1 8702.34 607.396   1
   2   1   1 9773.30 608.000   4
  -2  -1  -1 9853.30 760.031   6
  -2  -1  -1 9601.02 725.942   7
  -2  -1  -1 9293.94 590.444   4
   2   1   1 8641.98 611.794   2
   2   1   1 9474.48 730.168   7
  -2  -1  -1 9536.76 631.411   1
   2   1   1 9340.62 494.671   5
   2   1   2 310723. 5636.28   1
  -2  -1  -2 304550. 5996.86   4
   2   1   2 321244. 6090.35   4
   2   1   2 319532. 6306.56   7
   2   1   2 304352. 6109.66   2
   2   1   2 311794. 5607.19   5
  -2  -1  -2 315724. 6365.11   6
  -2  -1  -2 316610. 5602.53   1
  -2  -1  -2 297763. 5663.04   5
  -2  -1  -3 2343.25 322.974   5
   2   1   3 2969.75 422.479   4
   2   1   3 2570.08 240.802   1
  -2  -1  -3 2886.88 396.619   4
  -2  -1  -3 2368.83 384.722   6
   2   1   3 3088.44 420.659   6
  -2  -1  -3 3005.94 258.813   1
   2   1   3 2368.05 338.757   5
  -2  -1  -4 44394.1 1779.49   5
   2   1   4 49138.5 1335.31   3
  -2  -1  -4 47051.5 1906.60   4
   2   1   4 47704.0 1030.76   8
  -2  -1  -4 49567.2 2001.67   6
   2   1   4 45294.1 1875.59   5
  -2  -1  -5-90.4500 112.989   5
  -2  -1  -5-8.53457 110.451   4
   2   1   5 53.6327 66.8928   3
  -2  -1  -5 8.44810 94.9871   6
   2   1   5-68.9876 85.5651   5
  -2  -1  -6 36145.7 1852.29   4
  -2  -1  -6 34489.3 1876.67   6
  -2  -1  -7 605.117 279.065   5
  -2  -1  -7 747.112 224.958   3
  -2  -1  -7 840.838 321.675   4
   2   1   7 499.476 258.343   4
  -2  -1  -7 1107.59 361.918   6
   2   1   7 1326.42 544.948   5
   2   1   7 822.086 191.873   3
  -2  -1  -8 19757.0 1207.86   3
  -2  -1  -8 23430.5 1661.62   4
   2   1   8 25023.1 1835.99   4
   2   1   8 24011.8 1785.93   2
   2   1   8 21939.6 1965.23   5
  -2  -1  -8 24191.2 1861.54   5
   2   1   8 23417.3 1257.12   3
  -2  -1  -8 23972.5 1780.93   6
  -2  -1  -9 205.645 230.389   5
   2   1   9 769.292 336.704   4
   2   1   9 603.517 208.702   3
  -2  -1  -9 618.076 257.047   4
   2   1   9 505.174 240.905   2
  -2  -1  -9 484.215 316.056   6
  -2  -1  -9 174.582 88.7220   3
   2   1   9 979.798 496.232   5
  -2  -1 -10 15738.1 1572.55   6
  -2  -1 -10 13450.2 1387.40   4
   2   1  10 13072.3 1093.83   3
  -2  -1 -10 10727.0 963.084   3
   2   1  10 13431.8 1429.98   2
   2   1  10 9805.49 1504.20   5
   2   1  11-24.5477 113.230   3
  -2  -1 -11 56.3169 129.545   4
   2   1  11-258.443 254.176   2
  -2  -1 -11-359.958 253.900   6
  -2  -1 -11-1.04259 93.2978   3
   2   1  12 3412.73 783.019   2
   2   1  12 4008.61 722.059   3
  -2  -1 -12 2612.87 510.769   3
  -2  -1 -12 5296.53 985.551   6
   2   1  13-284.038 343.478   2
  -2  -1 -13-46.0233 194.096   6
  -2  -1 -13 132.464 143.561   3
  -2  -1 -14 1055.01 455.174   6
   2   1  14 1028.06 443.147   2
  -2  -1 -14 558.488 267.431   3
   2   1  15 114.266 298.690   2
  -2  -1 -15-366.840 302.972   6
  -2  -1 -16 654.184 367.399   6
  -2  -2  13 1363.66 805.500   7
   2   2 -13 146.911 129.341   3
   2   2 -12 775.576 330.112   3
  -2  -2  12 1134.55 587.580   7
   2   2 -11-52.5792 113.187   3
  -2  -2  11 82.3250 279.079   7
  -2  -2  10 6961.97 815.240   2
  -2  -2  10 6487.38 1451.10   7
   2   2 -10 6211.63 904.156   3
   2   2  -9 2117.28 496.061   3
  -2  -2   9 1428.67 369.755   4
  -2  -2   9 1337.68 631.277   7
   2   2  -8 11722.2 1290.84   1
  -2  -2   8 10821.3 929.878   4
   2   2  -8 10665.3 783.204   4
  -2  -2   8 7899.71 1344.45   7
   2   2  -8 10483.7 1075.11   3
  -2  -2   7 412.228 172.529   4
   2   2  -7 232.083 109.434   3
   2   2  -7 323.833 149.797   4
  -2  -2   7 167.617 103.042   3
   2   2  -7 380.698 237.084   1
  -2  -2   7 396.924 204.525   1
  -2  -2   7 211.322 155.331   2
  -2  -2   7-315.680 346.207   7
   2   2  -7 351.422 261.669   5
   2   2  -6 4350.70 642.485   3
   2   2  -6 4356.52 421.893   4
   2   2  -6 3586.49 647.064   1
  -2  -2   6 3563.39 681.333   3
  -2  -2   6 4722.83 592.074   2
   2   2  -6 4711.58 805.073   5
  -2  -2   6 5832.05 784.418   1
  -2  -2   6 2698.74 621.388   7
   2   2  -5 586.785 266.936   1
   2   2  -5 216.104 190.673   3
  -2  -2   5 336.899 151.272   2
   2   2  -5 234.435 96.5008   4
  -2  -2   5 781.252 368.632   7
  -2  -2   5 521.636 239.373   1
   2   2  -5 112.510 82.8405   5
   2   2  -4 150658. 2998.82   4
  -2  -2   4 145299. 4426.27   7
  -2  -2   4 154973. 4283.76   1
   2   2  -4 160455. 4426.86   3
  -2  -2   4 147050. 3566.79   2
   2   2  -4 135910. 4318.54   5
   2   2  -3 27923.6 892.163   4
  -2  -2   3 29063.9 1230.82   2
  -2  -2   3 25559.1 1453.35   7
   2   2  -3 26979.5 1531.94   5
   2   2  -3 29940.5 1639.99   3
  -2  -2   3 27123.6 1523.02   1
  -2  -2   2 204452. 4328.46   2
   2   2  -2 225760. 5296.18   3
   2   2  -2 210771. 3878.87   4
   2   2  -2 216148. 4156.93   2
  -2  -2   2 216370. 4889.72   7
   2   2  -2 218608. 5081.39   6
   2   2  -2 199350. 4739.68   5
  -2  -2   2 210671. 5044.94   1
  -2  -2   1 4675.25 519.176   7
  -2  -2   1 5183.12 498.508   2
   2   2  -1 4213.55 541.081   6
  -2  -2   1 5527.62 599.712   1
   2   2  -1 4842.59 594.584   3
   2   2  -1 4237.69 415.170   2
   2   2  -1 4108.41 454.060   7
   2   2  -1 5012.91 458.162   5
  -2  -2   0 56909.1 1969.21   1
   2   2   0 55422.1 1877.20   2
  -2  -2   0 52063.4 1809.16   2
   2   2   0 58918.8 2105.45   6
  -2  -2   0 55215.3 1864.59   7
  -2  -2   0 54210.1 2009.88   6
   2   2   0 51999.4 1280.78   5
   2   2   0 54016.4 1950.86   1
   2   2   0 55924.2 1887.60   7
   2   2   1 511.936 165.961   2
   2   2   1 699.306 192.219   1
   2   2   1 702.800 192.202   7
  -2  -2  -1 994.294 239.431   1
   2   2   1 741.555 214.885   6
  -2  -2  -1 855.279 221.149   2
  -2  -2  -1 799.252 242.909   6
   2   2   2 1818.33 370.200   2
  -2  -2  -2 1463.26 334.702   6
   2   2   2 1679.24 308.726   4
  -2  -2  -2 1610.45 312.736   2
   2   2   2 1538.37 259.697   1
   2   2   2 2069.51 230.509   5
  -2  -2  -2 1403.75 238.350   1
  -2  -2  -2 1908.53 188.668   5
  -2  -2  -3 4773.86 590.830   6
   2   2   3 5008.56 583.544   4
  -2  -2  -3 5269.90 453.678   1
  -2  -2  -3 4530.03 413.279   5
   2   2   3 4421.22 611.240   2
  -2  -2  -3 5335.18 608.743   2
   2   2   3 4957.14 480.020   5
  -2  -2  -4 29258.1 1050.56   1
   2   2   4 30296.7 983.608   8
   2   2   4 26580.5 1430.76   5
  -2  -2  -4 32639.1 1700.19   6
  -2  -2  -4 27756.5 1330.69   5
   2   2   4 31189.8 1704.36   2
  -2  -2  -5 6685.66 422.352   1
   2   2   5 6065.43 492.013   3
   2   2   5 6719.28 832.258   2
  -2  -2  -5 6478.06 800.642   6
   2   2   5 5080.17 690.406   5
  -2  -2  -5 6844.09 747.161   5
   2   2   6 247783. 5280.32   3
   2   2   6 338813. 7386.35   2
  -2  -2  -6 271423. 6956.09   6
  -2  -2  -6 285222. 6771.74   5
   2   2   7 17428.4 1449.73   4
   2   2   7 17276.0 1444.60   2
  -2  -2  -7 19668.8 1583.36   6
   2   2   7 16626.2 934.330   3
   2   2   8 69921.9 3249.39   4
  -2  -2  -8 66971.8 3233.54   5
   2   2   8 68359.5 3205.29   2
   2   2   8 69879.1 2344.77   3
  -2  -2  -9 110.916 128.839   5
   2   2   9-108.438 174.590   3
   2   2   9-13.5278 92.8248   4
   2   2   9 16.5320 118.277   2
  -2  -2  -9-93.2868 170.673   3
   2   2  10 4905.93 910.804   2
  -2  -2 -10 3512.35 592.114   3
   2   2  10 4715.79 670.933   3
   2   2  11 87.8539 75.7736   3
  -2  -2 -11-27.9802 142.055   3
   2   2  12 2447.74 683.144   2
   2   2  12 2180.06 527.937   3
  -2  -2 -12 901.938 338.072   3
  -2  -2 -12 2980.66 787.910   6
   2   2  13-334.469 288.389   2
  -2  -2 -13-139.620 213.170   3
  -2  -2 -13 91.9147 137.954   6
  -2  -2 -14 1829.57 650.191   6
  -2  -2 -14 727.404 316.075   3
   2   2  14 919.249 508.557   2
   2   2  15-102.839 189.690   2
  -2  -2 -15-70.4271 204.123   6
  -2  -2 -16 873.751 488.876   6
   2   2  16 850.851 537.537   2
  -2  -3  13-1033.60 667.049   7
   2   3 -13 221.419 205.215   3
   2   3 -12 531.609 232.399   3
  -2  -3  12 945.157 604.768   7
   2   3 -11-53.7853 147.749   3
  -2  -3  11 323.207 325.886   7
   2   3 -10 1379.07 445.486   3
  -2  -3  10 2528.07 905.099   7
   2   3  -9 1681.37 470.928   3
   2   3  -9 1022.80 271.520   4
  -2  -3   9 955.099 376.705   1
  -2  -3   9 1265.03 600.928   7
   2   3  -8 1262.02 292.552   4
   2   3  -8 1540.55 418.387   3
  -2  -3   8 1312.47 418.800   1
  -2  -3   8 667.763 431.107   7
   2   3  -7 1728.38 517.173   5
   2   3  -7 1823.81 481.191   3
  -2  -3   7 972.454 329.523   2
   2   3  -7 1532.18 302.741   4
  -2  -3   7 1306.08 489.791   7
  -2  -3   7 1059.19 352.610   1
   2   3  -7 1670.68 496.986   1
   2   3  -6 33167.1 1407.79   4
  -2  -3   6 31183.4 1836.34   2
   2   3  -6 33891.1 2128.89   1
   2   3  -6 34722.7 2047.75   3
  -2  -3   6 34156.8 2035.75   1
   2   3  -6 32531.3 2120.67   5
   2   3  -5 7652.24 630.604   4
   2   3  -5 7949.31 927.711   3
   2   3  -5 8202.52 983.885   1
  -2  -3   5 6436.39 763.693   2
   2   3  -5 6513.40 855.159   5
  -2  -3   5 7800.47 933.310   1
  -2  -3   5 7069.91 920.580   7
  -2  -3   4 80889.6 2868.11   2
  -2  -3   4 81522.0 3055.47   7
   2   3  -4 91772.5 3337.05   3
   2   3  -4 82823.2 2292.54   4
   2   3  -4 88707.7 3322.95   1
   2   3  -4 83637.3 3029.91   5
  -2  -3   4 85935.3 3194.53   1
  -2  -3   3 5034.26 728.369   1
  -2  -3   3 5276.44 674.008   7
   2   3  -3 4646.27 453.683   4
   2   3  -3 4498.92 608.737   6
  -2  -3   3 5728.52 670.764   2
   2   3  -3 6024.64 773.334   3
   2   3  -3 4908.44 603.275   5
  -2  -3   2 22145.6 1411.69   1
   2   3  -2 21713.7 1134.97   2
  -2  -3   2 20300.3 1224.76   2
  -2  -3   2 20590.8 1168.51   7
   2   3  -2 19787.0 1270.70   6
  -2  -3   2 18400.6 1206.00   5
   2   3  -2 20138.2 1064.70   5
   2   3  -2 22197.1 1463.08   3
  -2  -3   1 2787.94 479.995   1
  -2  -3   1 2459.23 420.010   2
   2   3  -1 2246.97 328.356   7
   2   3  -1 2488.24 417.890   6
  -2  -3   1 2256.15 351.534   7
   2   3  -1 2594.20 413.118   2
   2   3  -1 2705.90 304.741   5
  -2  -3   1 2485.85 351.987   5
  -2  -3   0 32405.7 1637.76   2
  -2  -3   0 32716.4 1347.14   7
   2   3   0 34079.3 1629.31   2
   2   3   0 32260.7 1562.66   6
  -2  -3   0 34611.2 1641.52   6
   2   3   0 34410.0 1385.27   7
   2   3   0 33717.5 909.732   5
  -2  -3   0 34337.7 1659.82   1
   2   3   1 1719.05 383.396   2
  -2  -3  -1 925.561 247.172   2
  -2  -3  -1 1221.31 292.609   1
  -2  -3  -1 769.707 223.148   6
   2   3   1 1149.20 269.901   6
   2   3   1 1214.36 240.864   7
  -2  -3  -2 64733.6 2214.42   1
   2   3   2 63007.9 2609.43   2
   2   3   2 61915.1 2053.17   7
  -2  -3  -2 64016.5 2390.82   6
  -2  -3  -2 59154.8 2407.56   2
   2   3   2 63752.0 2247.86   6
  -2  -3  -3 43267.3 1709.76   1
   2   3   3 40266.8 1540.32   8
   2   3   3 44147.4 2219.16   2
  -2  -3  -3 42343.0 1980.28   6
  -2  -3  -3 37823.5 1363.73   5
   2   3   4 104765. 2622.30   8
  -2  -3  -4 100209. 2961.59   5
   2   3   5 81.8097 56.8417   3
   2   3   5 209.009 117.105   8
  -2  -3  -5-43.2930 141.568   6
  -2  -3  -5 106.622 155.757   5
   2   3   5-58.9893 137.323   2
   2   3   6 66049.9 2148.98   3
  -2  -3  -6 73741.8 3211.37   6
   2   3   7 1754.68 528.384   2
  -2  -3  -7 1986.10 534.988   6
   2   3   7 1773.33 321.658   3
   2   3   8 16697.3 1558.43   4
   2   3   8 15377.0 1592.76   2
   2   3   8 17267.6 1074.12   3
  -2  -3  -8 18737.0 960.089   8
  -2  -3  -8 15803.6 1550.47   5
   2   3   9 831.344 392.500   4
   2   3   9 1169.59 495.276   2
  -2  -3  -9 817.549 192.116   8
   2   3   9 663.786 221.973   3
  -2  -3  -9 892.228 355.991   5
  -2  -3 -10 7881.15 557.283   8
   2   3  10 7496.92 857.624   3
  -2  -3 -10 7113.82 496.207   1
   2   3  10 7042.72 1170.18   2
  -2  -3 -11 18.8147 24.1651   1
   2   3  11-20.4687 158.609   2
   2   3  12 6426.29 1206.32   2
   2   3  13 1682.02 730.458   2
  -2  -3 -13-196.476 253.656   6
   2   3  14 2282.13 778.384   2
  -2  -3 -14 2764.16 847.366   6
  -2  -3 -15-222.426 308.440   6
   2   3  15 411.287 443.153   2
   2   3  16-70.8360 202.502   2
  -2  -4  12 1287.94 688.812   7
   2   4 -12 79.2540 121.928   3
   2   4 -11-183.346 172.281   3
  -2  -4  11-539.957 418.485   7
   2   4 -10 2960.13 637.846   3
  -2  -4  10 1484.73 636.697   7
  -2  -4  10 2847.62 687.188   1
   2   4  -9 691.986 294.542   3
  -2  -4   9 215.902 209.444   1
   2   4  -9 524.068 217.331   4
  -2  -4   9 100.629 197.695   7
   2   4  -8 7029.30 753.775   4
  -2  -4   8 6872.64 1057.32   2
  -2  -4   8 4821.63 1014.80   7
   2   4  -8 8735.83 1090.37   3
  -2  -4   8 7418.25 1056.60   1
   2   4  -7 1664.71 512.066   5
   2   4  -7 1270.02 406.762   3
   2   4  -7 1120.86 294.703   4
  -2  -4   7 856.917 416.331   7
  -2  -4   7 1026.26 408.273   1
   2   4  -6 1110.07 386.387   5
   2   4  -6 1541.33 338.860   4
   2   4  -6 1455.67 429.476   3
  -2  -4   6 1406.85 521.953   5
  -2  -4   6 1136.90 411.570   7
  -2  -4   6 1306.77 419.146   1
   2   4  -5 207.679 171.134   5
  -2  -4   5 210.844 207.667   1
   2   4  -5 269.078 136.722   4
   2   4  -5 223.521 129.792   3
  -2  -4   5 352.108 196.335   7
   2   4  -5 195.579 198.941   6
  -2  -4   5-1.38230 227.940   2
  -2  -4   5 629.719 329.668   5
   2   4  -4 5975.21 631.692   4
  -2  -4   4 6051.40 836.591   1
   2   4  -4 5416.96 710.496   5
  -2  -4   4 6905.81 883.179   2
   2   4  -4 7231.34 809.871   6
  -2  -4   4 5706.41 696.185   7
   2   4  -4 7311.00 942.123   3
  -2  -4   4 5989.55 916.077   5
   2   4  -3 263.504 150.999   5
   2   4  -3 160.269 133.919   3
  -2  -4   3 124.309 111.863   7
  -2  -4   3 412.531 238.767   1
   2   4  -3 235.647 90.2996   6
  -2  -4   3 354.746 174.616   2
   2   4  -3 191.925 105.414   4
  -2  -4   3 633.410 315.742   5
  -2  -4   2 87550.8 3282.13   1
   2   4  -2 90820.8 2982.79   2
  -2  -4   2 87598.8 3226.25   2
  -2  -4   2 84142.3 2554.13   7
   2   4  -2 84966.7 2622.72   5
   2   4  -2 86884.3 2905.08   6
  -2  -4   2 87364.8 2973.42   5
  -2  -4   1 20593.6 1278.42   6
  -2  -4   1 21365.3 1475.09   2
  -2  -4   1 22684.9 1503.36   1
  -2  -4   1 19812.5 1009.13   7
   2   4  -1 20589.0 1338.72   2
   2   4  -1 19458.2 981.702   7
  -2  -4   1 21017.7 1123.57   5
   2   4  -1 19621.7 1229.22   6
   2   4  -1 20740.8 1009.93   5
   2   4   0 247203. 4977.72   7
  -2  -4   0 256930. 6194.33   1
   2   4   0 255743. 6113.66   2
  -2  -4   0 245725. 6181.79   2
  -2  -4   0 261370. 5871.19   6
   2   4   0 244533. 5564.05   6
  -2  -4   0 248256. 4699.21   5
   2   4   1 13640.3 827.309   7
   2   4   1 15525.9 1267.59   2
  -2  -4  -1 12873.0 1046.97   6
  -2  -4  -1 14260.8 1135.96   1
   2   4   1 12880.8 958.368   6
  -2  -4  -1 12727.1 515.340   5
  -2  -4  -1 12481.7 1143.12   2
   2   4   2 9392.74 844.230   8
  -2  -4  -2 10218.9 951.778   6
   2   4   2 11500.9 1119.42   2
  -2  -4  -2 10396.0 945.243   1
  -2  -4  -2 9468.59 1009.30   2
   2   4   2 9555.54 827.668   6
   2   4   2 9755.67 736.595   7
   2   4   3 2059.15 358.597   8
   2   4   3 2618.34 579.745   2
  -2  -4  -3 2317.55 455.597   6
  -2  -4  -4 21879.9 1554.34   6
   2   4   4 19441.5 1681.02   2
   2   4   4 19234.6 1069.12   8
  -2  -4  -4 16040.8 1102.91   5
   2   4   5 75.2024 61.5474   3
   2   4   5 26.1192 144.997   2
   2   4   5 167.880 96.2983   8
  -2  -4  -5 100.354 162.574   6
  -2  -4  -5 375.945 215.751   5
  -2  -4  -6 10499.1 1102.61   5
   2   4   6 11162.3 1304.78   2
   2   4   6 7313.10 683.300   3
  -2  -4  -6 7474.67 1031.44   6
  -2  -4  -7 659.009 271.422   6
   2   4   7 1180.49 284.037   3
   2   4   7 1501.06 448.957   4
   2   4   7 1457.40 532.609   2
  -2  -4  -7 974.810 354.869   2
  -2  -4  -7 1218.17 340.514   8
   2   4   8 20708.7 1791.71   4
  -2  -4  -8 22378.3 1349.14   8
   2   4   8 18469.8 1885.09   2
  -2  -4  -8 19492.7 1770.32   5
   2   4   8 22186.4 1277.15   3
  -2  -4  -8 23706.3 2063.81   6
   2   4   9 3276.51 851.051   2
  -2  -4  -9 3072.26 479.356   8
  -2  -4  -9 2871.44 750.490   6
   2   4   9 2395.47 434.431   3
  -2  -4  -9 3035.71 732.792   5
  -2  -4 -10 16606.9 1101.54   8
   2   4  10 16106.5 1252.73   3
   2   4  10 15211.9 1793.76   2
  -2  -4 -11 378.254 164.724   8
   2   4  11 748.628 427.449   2
  -2  -4 -12 6659.23 613.004   8
   2   4  12 7268.55 1364.04   2
  -2  -4 -12 6610.26 1257.64   6
   2   4  13-106.856 284.209   2
  -2  -4 -13 175.410 137.691   6
   2   4  14 551.978 358.279   2
  -2  -4 -14 1153.57 552.631   6
   2   4  15-504.715 446.441   2
  -2  -4 -15 198.635 361.163   6
   2   5 -12 303.078 199.669   3
   2   5 -11 420.055 260.869   3
  -2  -5  11-124.400 132.389   1
  -2  -5  11 196.619 288.808   7
   2   5 -10 1402.63 447.755   3
  -2  -5  10 927.126 428.048   1
  -2  -5  10 1604.37 657.957   7
  -2  -5   9 213.646 195.496   1
   2   5  -9-1.72261 102.779   3
  -2  -5   9-133.843 158.274   7
   2   5  -8 2964.42 663.353   3
   2   5  -8 3124.30 548.294   4
  -2  -5   8 2244.48 642.140   7
  -2  -5   8 2919.33 705.490   1
   2   5  -7-235.841 287.481   3
  -2  -5   7-467.560 387.820   2
  -2  -5   7 107.337 147.095   7
   2   5  -7 62.7710 56.7669   4
  -2  -5   7 524.165 409.132   5
  -2  -5   7 67.5687 175.977   1
  -2  -5   6 7629.85 1077.75   1
  -2  -5   6 5312.07 968.588   2
   2   5  -6 8403.84 1102.23   3
  -2  -5   6 7951.73 1237.71   5
   2   5  -6 7284.20 1051.41   5
   2   5  -6 7962.68 850.432   4
  -2  -5   6 7625.39 977.919   7
  -2  -5   5 166.662 187.646   1
  -2  -5   5-60.9274 159.568   7
   2   5  -5 168.302 216.529   3
   2   5  -5-79.2132 129.793   4
   2   5  -5 113.353 105.327   5
   2   5  -5 100.337 114.714   6
  -2  -5   5 230.528 334.190   5
  -2  -5   4 8230.16 1069.77   1
   2   5  -4 9322.10 902.840   4
  -2  -5   4 8079.95 1120.46   5
  -2  -5   4 7434.76 793.937   7
   2   5  -4 9031.66 897.889   6
   2   5  -4 9036.11 1126.47   3
   2   5  -4 8900.68 983.438   5
  -2  -5   3 3201.10 660.572   1
   2   5  -3 3599.30 560.292   4
  -2  -5   3 3612.77 488.662   7
  -2  -5   3 3923.10 679.520   5
   2   5  -3 3206.31 506.856   6
   2   5  -3 3142.05 541.002   5
  -2  -5   2 69999.8 3133.16   1
   2   5  -2 68747.2 2629.05   4
   2   5  -2 73775.4 2934.27   2
  -2  -5   2 65071.5 2061.39   7
   2   5  -2 67490.5 2477.00   6
  -2  -5   2 71550.9 2731.29   5
   2   5  -2 70093.2 2484.58   5
  -2  -5   1 755.493 178.859   7
   2   5  -1 1275.39 426.234   2
  -2  -5   1 737.380 275.831   6
  -2  -5   1 1181.82 365.608   1
   2   5  -1 1082.02 292.547   6
  -2  -5   1 836.274 208.289   5
  -2  -5   0 20236.5 1546.80   1
   2   5   0 18544.2 838.340   7
  -2  -5   0 19697.2 1324.91   6
   2   5   0 18679.1 1185.06   6
   2   5   0 18442.1 1506.02   2
  -2  -5   0 19451.9 968.774   5
   2   5   1 2122.15 393.840   6
   2   5   1 1477.67 259.172   7
  -2  -5  -1 1936.40 251.992   5
  -2  -5  -1 1666.68 402.161   6
   2   5   1 2062.73 482.400   2
  -2  -5  -1 2643.49 552.469   1
   2   5   2 116015. 3018.09   7
   2   5   2 118313. 3624.61   8
   2   5   2 124689. 4432.99   2
  -2  -5  -2 117403. 3841.30   6
   2   5   3 3751.78 735.169   2
   2   5   3 3867.49 539.594   8
  -2  -5  -3 4148.11 672.151   6
   2   5   4 2347.21 570.910   2
   2   5   4 2551.53 424.559   8
  -2  -5  -4 2090.65 510.189   6
   2   5   5 144.027 173.640   2
   2   5   5-23.7317 95.1346   3
   2   5   5 132.927 109.849   8
  -2  -5  -5 326.663 227.877   6
  -2  -5  -5 234.388 168.087   5
  -2  -5  -6 47296.8 2705.23   2
   2   5   6 53759.9 3146.12   2
   2   5   6 34044.8 1693.06   3
  -2  -5  -6 36731.4 2510.59   6
  -2  -5  -6 39463.8 2261.79   5
   2   5   7 981.475 467.528   2
   2   5   7 369.805 302.294   4
  -2  -5  -7 1378.13 385.936   8
  -2  -5  -7 706.127 370.518   2
   2   5   7 1153.52 305.953   3
  -2  -5  -7 747.743 372.846   6
  -2  -5  -8 39179.5 2119.06   8
  -2  -5  -8 35328.3 2706.47   6
  -2  -5  -8 32937.4 2390.22   5
   2   5   8 37388.8 1762.89   3
   2   5   8 32573.5 2670.65   2
   2   5   9 3230.57 859.684   2
  -2  -5  -9 3981.38 655.621   8
  -2  -5  -9 4153.78 976.823   6
  -2  -5  -9 3350.44 774.601   5
   2   5  10 2447.23 789.154   2
  -2  -5 -10 2339.83 496.352   8
  -2  -5 -10 1684.32 592.241   6
  -2  -5 -11 35.1786 45.5567   8
  -2  -5 -11-255.742 313.148   6
   2   5  12 369.592 293.910   2
  -2  -5 -12 1100.44 313.901   8
   2   5  13-108.711 329.817   2
  -2  -5 -13-741.793 458.242   6
   2   5  14 1883.16 788.677   2
  -2  -5 -14 1559.70 652.530   6
   2   5  15 691.424 488.162   2
  -2  -6  11 332.224 255.468   1
   2   6 -11 11.3220 87.6484   3
   2   6 -10 1050.45 430.692   3
  -2  -6  10 746.917 400.238   1
   2   6  -9-67.3552 148.485   3
  -2  -6   9 247.929 293.311   7
  -2  -6   9 124.840 218.865   1
  -2  -6   8 2315.55 600.654   7
   2   6  -8 2639.75 653.681   3
   2   6  -8 1894.75 468.512   4
  -2  -6   8 2053.25 651.582   1
  -2  -6   7 398.045 308.410   1
   2   6  -7 700.237 382.282   3
   2   6  -7 538.072 256.763   4
  -2  -6   7 162.935 131.128   7
  -2  -6   7 1320.92 590.496   5
  -2  -6   6 5422.60 792.271   7
   2   6  -6 5545.63 938.502   5
   2   6  -6 6882.52 875.731   4
   2   6  -6 6009.70 990.825   3
  -2  -6   6 5912.16 998.963   1
   2   6  -6 5726.41 734.162   6
  -2  -6   6 3900.94 903.913   2
  -2  -6   6 6415.20 1182.40   5
   2   6  -5-328.619 218.151   5
  -2  -6   5 347.393 280.627   1
  -2  -6   5 205.335 165.214   5
   2   6  -5 104.283 79.0093   6
   2   6  -5 143.347 113.423   3
  -2  -6   5 103.460 109.232   7
  -2  -6   5 375.332 280.977   2
   2   6  -5 120.536 128.609   4
   2   6  -4 12435.8 1175.65   4
   2   6  -4 11401.8 968.199   6
  -2  -6   4 11967.2 1486.49   2
  -2  -6   4 13587.4 1484.40   1
  -2  -6   4 13066.4 987.969   7
  -2  -6   4 13664.7 1485.02   5
   2   6  -4 13877.7 1315.81   5
   2   6  -4 13557.8 1456.70   3
  -2  -6   3 101.296 123.977   1
   2   6  -3 118.342 129.929   5
   2   6  -3 4.88621 88.7681   4
   2   6  -3-45.2683 70.3714   6
  -2  -6   3-43.6533 100.342   7
  -2  -6   3-64.8489 143.734   2
  -2  -6   3-66.7653 104.850   5
  -2  -6   2 159.908 91.0733   7
   2   6  -2 28.7983 86.4306   4
   2   6  -2 230.076 127.581   6
  -2  -6   2 206.815 200.198   1
  -2  -6   2-64.2113 148.534   5
  -2  -6   2 65.1986 127.634   2
  -2  -6   1 882.389 268.849   5
  -2  -6   1 932.156 442.250   2
  -2  -6   1 755.427 260.308   6
   2   6  -1 590.002 312.648   2
   2   6  -1 911.237 330.742   8
   2   6  -1 953.017 259.180   6
  -2  -6   1 630.753 321.215   1
  -2  -6   0 76207.1 2956.83   6
  -2  -6   0 80513.2 3563.71   1
   2   6   0 83276.8 3304.30   8
   2   6   0 80273.1 3500.02   2
  -2  -6   0 79687.7 3710.75   2
   2   6   0 68027.8 2491.49   6
  -2  -6   0 78705.3 2443.68   5
  -2  -6  -1-68.5135 141.300   5
  -2  -6  -1 128.130 254.921   2
   2   6   1 56.4338 153.029   2
   2   6   1-100.465 89.9254   7
   2   6   1-124.148 200.023   8
  -2  -6  -1-6.19014 165.936   1
  -2  -6  -1-109.041 140.132   6
   2   6   2 20698.2 1031.85   7
   2   6   2 22476.5 1904.92   2
   2   6   2 21474.0 1469.80   8
  -2  -6  -2 20584.8 1841.80   2
  -2  -6  -2 21330.3 1571.00   6
  -2  -6  -2 22291.7 1159.38   5
  -2  -6  -3 712.445 325.668   2
  -2  -6  -3 323.899 202.093   6
   2   6   3 148.300 64.5143   8
   2   6   3 462.523 350.366   2
   2   6   4 31827.7 1725.34   8
   2   6   4 34326.4 2518.80   2
  -2  -6  -4 30282.9 2261.88   2
  -2  -6  -4 32295.3 2167.46   6
   2   6   5-162.860 242.736   2
   2   6   5 9.62453 60.9375   8
  -2  -6  -5 93.9929 105.397   2
   2   6   5-35.5112 104.269   3
  -2  -6  -5 66.1874 172.293   6
   2   6   6 99150.5 4545.22   2
  -2  -6  -6 91252.6 4080.85   2
  -2  -6  -6 70311.1 3782.00   6
   2   6   7 546.557 470.225   2
  -2  -6  -7 776.877 423.097   8
  -2  -6  -7 496.420 359.943   6
  -2  -6  -8 5153.70 882.781   8
   2   6   8 4628.74 1023.38   2
  -2  -6  -8 3353.63 764.401   5
  -2  -6  -8 5141.66 1076.99   6
   2   6   9 827.963 392.781   2
  -2  -6  -9 1726.27 481.897   8
  -2  -6  -9 268.399 335.463   6
  -2  -6  -9 1259.59 518.324   5
   2   6  10 2582.64 835.780   2
  -2  -6 -10 2904.71 634.595   8
  -2  -6 -10 1854.87 684.761   6
   2   6  11 135.115 183.578   2
  -2  -6 -11 713.089 318.960   8
  -2  -6 -11 358.360 321.679   6
   2   6  12 2188.72 799.399   2
  -2  -6 -12 2497.77 568.137   8
  -2  -6 -12 2288.41 827.664   6
   2   6  13-34.0949 202.549   2
  -2  -6 -13-749.104 481.775   6
   2   6  14 682.173 436.474   2
  -2  -6 -14 859.808 456.281   6
   2   6  15 268.575 363.889   2
   2   7 -10 591.860 314.214   3
  -2  -7  10 628.117 349.132   1
   2   7  -9 162.127 186.840   3
  -2  -7   9 106.080 148.494   1
   2   7  -8 1151.45 549.625   3
  -2  -7   8 1091.04 720.957   5
  -2  -7   8 1038.97 444.312   1
  -2  -7   7 936.441 433.461   1
   2   7  -7 1372.75 518.720   3
   2   7  -7 619.093 290.566   4
  -2  -7   7 1339.55 610.108   5
   2   7  -6 4885.85 948.263   3
   2   7  -6 4354.73 778.037   4
  -2  -7   6 4441.97 919.858   1
  -2  -7   6 3443.96 561.036   7
  -2  -7   6 3556.00 906.683   5
   2   7  -5 744.061 361.667   5
  -2  -7   5 461.849 316.617   1
   2   7  -5 239.394 188.698   3
  -2  -7   5 422.321 166.154   7
   2   7  -5 224.566 185.212   4
  -2  -7   5-92.0104 284.598   5
   2   7  -4 5774.84 1023.24   3
  -2  -7   4 5385.34 508.734   7
  -2  -7   4 4515.95 888.059   5
   2   7  -4 4402.63 552.821   6
   2   7  -4 4624.43 787.240   4
  -2  -7   4 4625.57 916.181   1
  -2  -7   3 322.949 241.301   1
  -2  -7   3 193.418 146.290   5
   2   7  -3 598.439 283.852   4
   2   7  -3 153.616 84.5707   6
  -2  -7   3 50.5957 162.994   2
  -2  -7   2 7091.37 1183.78   2
   2   7  -2 8828.11 1085.86   4
  -2  -7   2 8789.05 1282.62   1
   2   7  -2 8890.34 778.161   6
  -2  -7   2 8062.08 959.392   5
  -2  -7   1 779.134 294.347   5
  -2  -7   1 699.078 356.767   2
  -2  -7   1 425.097 260.687   1
   2   7  -1 590.397 322.799   2
  -2  -7   0 7248.16 1177.78   2
  -2  -7   0 8983.47 1259.21   1
  -2  -7   0 8491.53 939.518   6
   2   7   0 8880.27 1200.68   2
  -2  -7   0 7714.26 782.954   5
  -2  -7  -1 185.904 96.1012   5
  -2  -7  -1 676.073 364.414   2
  -2  -7  -1 130.343 165.652   1
   2   7   1 177.396 158.343   2
  -2  -7  -1 346.255 205.318   6
   2   7   2 20011.4 1912.63   2
  -2  -7  -2 17735.4 1516.69   6
   2   7   2 17823.6 1445.54   8
   2   7   2 21015.0 888.197   7
  -2  -7  -2 19880.3 1955.73   2
  -2  -7  -2 19247.2 1210.80   5
  -2  -7  -3 1110.44 482.524   2
   2   7   3 788.616 211.563   7
   2   7   3 1404.08 392.789   8
   2   7   3 1279.94 402.550   2
  -2  -7  -3 653.290 281.190   6
   2   7   4 33837.9 1929.85   8
   2   7   4 32912.4 2651.78   2
  -2  -7  -4 35107.2 2385.08   6
   2   7   5 3172.46 562.899   8
  -2  -7  -5 2934.25 703.808   6
   2   7   5 3898.96 966.401   2
  -2  -7  -6-247.085 327.731   6
   2   7   6 631.803 501.937   2
   2   7   7 3981.00 1020.26   2
  -2  -7  -7 2820.23 875.338   6
  -2  -7  -7 1966.72 565.878   5
  -2  -7  -8 20844.8 1946.73   8
  -2  -7  -8 20110.9 2281.07   6
   2   7   8 24802.0 2468.11   2
   2   7   9-447.674 283.919   2
  -2  -7  -9 26.1489 218.745   8
  -2  -7  -9 64.3550 131.423   6
  -2  -7  -9-130.123 183.661   5
   2   7  10 7358.27 1392.56   2
  -2  -7 -10 5273.87 955.721   8
  -2  -7 -10 4665.79 1156.52   6
   2   7  11 845.615 581.396   2
  -2  -7 -11 273.722 223.613   8
  -2  -7 -11-566.895 424.061   6
   2   7  12 2272.27 840.678   2
  -2  -7 -12 1992.21 549.681   8
  -2  -7 -12 1613.20 736.680   6
   2   7  13 741.965 552.644   2
  -2  -7 -13-937.740 554.964   6
   2   7  14 592.662 568.926   2
   2   8  -9 42.7218 119.688   3
  -2  -8   8 525.289 389.701   1
   2   8  -8 732.765 314.794   3
  -2  -8   8 112.251 135.537   5
  -2  -8   7 172.656 247.017   1
   2   8  -7 746.005 393.127   3
  -2  -8   7 388.424 531.136   5
   2   8  -6 1420.10 487.910   4
   2   8  -6 1953.45 646.167   3
  -2  -8   6 2348.95 733.640   1
  -2  -8   6 1518.16 653.887   5
   2   8  -5 424.760 353.970   3
   2   8  -5 678.331 340.318   4
  -2  -8   5 535.416 303.533   1
  -2  -8   5 1574.61 606.821   5
  -2  -8   4 7131.82 1247.54   1
   2   8  -4 6387.33 1006.97   4
   2   8  -4 6171.09 1104.97   3
  -2  -8   4 5480.97 1018.06   5
  -2  -8   3 506.268 340.209   1
   2   8  -3 581.546 324.689   4
  -2  -8   3 306.479 252.287   5
   2   8  -2 5689.01 961.071   4
  -2  -8   2 6595.50 1170.57   1
  -2  -8   2 6388.47 916.173   5
  -2  -8   1 3603.91 638.562   5
  -2  -8   1 5077.21 1010.53   1
   2   8  -1 3516.46 797.893   2
  -2  -8   0 3558.80 860.156   1
   2   8   0 4291.32 875.319   2
  -2  -8   0 2847.96 559.227   6
  -2  -8   0 3718.52 601.258   5
  -2  -8  -1 2564.96 477.021   5
  -2  -8  -1 4226.32 962.040   1
   2   8   1 3189.46 784.542   2
  -2  -8  -1 3738.81 686.297   6
   2   8   2 23653.5 2230.26   2
  -2  -8  -2 22846.8 1464.15   5
  -2  -8  -2 21420.5 1738.16   6
  -2  -8  -3 312.020 180.973   5
   2   8   3 197.811 89.5049   7
  -2  -8  -3 123.523 183.290   6
   2   8   3-7.23793 184.264   2
  -2  -8  -4 1889.13 565.907   6
   2   8   4 1467.64 308.912   7
   2   8   4 2034.72 670.493   2
  -2  -8  -5 113.461 112.812   6
   2   8   5-259.183 384.344   2
   2   8   6 15652.5 1999.60   2
  -2  -8  -6 13571.5 1750.79   6
  -2  -8  -7 1148.23 574.183   6
   2   8   7 1942.43 703.058   2
  -2  -8  -8 8730.41 1566.16   6
  -2  -8  -8 4973.76 949.880   5
   2   8   8 8629.32 1512.39   2
   2   8   9 31.2293 170.980   2
  -2  -8  -9-261.516 379.541   6
   2   8  10 3686.03 1072.19   2
  -2  -8 -10 2074.16 657.493   8
  -2  -8 -10 1896.06 710.166   6
   2   8  11 365.718 356.684   2
  -2  -8 -11-592.758 344.100   8
  -2  -8 -11-511.353 422.780   6
   2   8  12 2676.72 916.785   2
  -2  -8 -12 623.271 384.738   6
   2   8  13 708.650 550.776   2
   2   9  -7 433.621 319.603   3
   2   9  -6-482.493 340.692   3
  -2  -9   6-130.935 289.984   1
   2   9  -5-71.8408 247.243   3
   2   9  -5 2.14435 119.383   4
  -2  -9   5 293.537 244.915   1
  -2  -9   5 221.683 183.996   5
   2   9  -4 2636.98 707.824   4
   2   9  -4 2398.05 739.900   3
  -2  -9   4 3106.22 800.139   5
  -2  -9   4 3032.46 839.227   1
   2   9  -3-82.1670 133.362   4
  -2  -9   3 84.2713 198.250   5
  -2  -9   2 2451.45 746.590   1
   2   9  -2 2672.66 719.942   4
  -2  -9   2 2794.01 643.151   5
  -2  -9   1 2004.78 521.906   5
   2   9  -1 1429.99 510.450   4
  -2  -9   1 1601.80 586.191   1
  -2  -9   0 9327.93 1503.39   1
  -2  -9   0 7645.99 964.971   6
   2   9   0 7364.61 1282.88   2
  -2  -9   0 8731.84 1016.71   5
  -2  -9  -1 177.093 152.947   5
  -2  -9  -1 613.562 456.811   1
   2   9   1 490.647 298.553   2
  -2  -9  -1 74.8978 218.893   6
  -2  -9  -2 1398.24 376.833   5
  -2  -9  -2 1340.13 453.099   6
   2   9   2 1921.83 659.015   2
  -2  -9  -3 1032.92 350.464   5
  -2  -9  -3 998.223 419.906   6
   2   9   3 968.664 452.968   2
   2   9   4 12315.3 1759.98   2
  -2  -9  -4 10030.6 1395.71   6
  -2  -9  -5 920.771 477.763   6
   2   9   5 482.474 417.808   2
  -2  -9  -6 872.843 482.833   6
   2   9   6 1871.81 693.004   2
  -2  -9  -7 606.893 444.633   6
   2   9   7 1459.99 710.751   2
  -2  -9  -8 792.528 578.221   6
   2   9   8 3651.21 1030.65   2
  -2  -9  -9-246.195 350.350   6
   2   9   9 162.968 406.303   2
  -2  -9 -10 1076.06 622.831   6
   2   9  10 2289.56 877.236   2
  -2  -9 -11-340.121 360.093   6
   2   9  11 731.172 641.195   2
   2   9  12 997.015 694.823   2
   2  10  -6 503.265 365.794   3
   2  10  -5 127.022 177.780   4
   2  10  -5 38.4989 148.995   3
   2  10  -4 1099.07 493.227   3
   2  10  -4 1329.62 544.081   4
  -2 -10   4 1635.68 670.924   1
  -2 -10   3 162.487 239.322   1
   2  10  -3 75.7005 89.8720   4
  -2 -10   2 2217.62 771.464   1
   2  10  -2 2362.58 720.808   4
   2  10  -1-221.410 280.272   4
  -2 -10   1-300.293 281.454   1
  -2 -10   0 1100.01 378.452   5
   2  10   0 567.860 348.045   4
  -2 -10   0 590.759 442.802   1
   2  10   0 177.086 233.822   2
  -2 -10  -1 2262.29 546.910   5
   2  10   1 2075.70 715.540   2
  -2 -10  -1 3288.07 996.778   1
  -2 -10  -1 3296.78 677.164   6
   2  10   2 9945.91 1613.04   2
  -2 -10  -2 10718.4 1764.89   1
  -2 -10  -2 9236.59 1222.03   6
  -2 -10  -2 8342.94 1025.51   5
  -2 -10  -3 354.339 241.043   5
  -2 -10  -3 378.641 254.792   6
  -2 -10  -4 4327.14 769.805   5
  -2 -10  -4 3449.94 816.317   6
   2  10   4 3942.01 1086.27   2
  -2 -10  -5-80.7615 107.954   6
   2  10   5 26.5468 226.686   2
  -2 -10  -6 1472.64 617.696   6
   2  10   6 1852.33 747.773   2
  -2 -10  -7-130.445 313.619   6
   2  10   7-28.4798 187.612   2
  -2 -10  -8 1481.69 717.155   6
   2  10   8 862.175 409.258   2
  -2 -10  -9-125.478 353.062   6
   2  10   9-199.851 436.605   2
  -2 -10 -10 22.3397 185.760   6
   2  10  10-11.9819 370.651   2
   2  11  -3 526.305 402.316   4
   2  11  -2 575.568 249.467   4
   2  11  -1-140.829 254.346   4
  -2 -11   0 1555.39 713.927   1
   2  11   0 1679.91 635.596   4
   2  11   1 37.0046 183.003   2
  -2 -11  -1-56.4181 297.678   1
  -2 -11  -2 2692.12 975.590   1
   2  11   2 1356.21 691.290   2
  -2 -11  -3-46.2117 192.348   1
   2  11   3 1237.93 657.387   2
   2  11   4 2395.01 826.263   2
  -2 -11  -4 1471.22 564.045   6
  -2 -11  -5 221.317 253.286   6
   2  11   5 195.024 211.096   2
   2  11   6 2950.97 1059.63   2
  -2 -11  -6 1762.35 683.754   6
   2  11   7 186.841 230.424   2
  -2 -11  -7 35.6891 196.728   6
  -2 -11  -8 104.782 196.944   6
  -2 -11  -9 102.565 215.623   6
  -2 -12  -7 87.0411 163.693   6
  -2 -12  -8 269.734 407.202   6
  -3  10   9 352.072 337.781   2
  -3  10   8-363.259 350.719   2
  -3  10   7 789.415 491.601   4
  -3  10   6 510.718 449.696   4
  -3  10   5 1617.61 674.647   4
   3 -10  -5 975.370 509.570   8
   3 -10  -4-603.050 416.605   8
  -3  10   4 248.019 293.321   4
   3 -10  -3 466.987 397.988   8
  -3  10   3 1656.06 685.378   4
   3 -10  -2 144.336 286.653   5
   3 -10  -2-605.208 430.701   8
  -3  10   2-407.335 385.692   4
   3 -10  -1 2938.08 909.050   5
   3 -10  -1 2918.72 887.907   8
  -3  10   1 2404.61 813.850   4
   3 -10   0-14.4218 210.078   5
  -3  10   0 208.660 308.378   4
   3 -10   0 160.713 191.741   8
   3 -10   1 718.652 466.114   5
   3 -10   1 2454.84 764.874   8
  -3  10  -1 1780.41 712.532   4
   3 -10   2 3.55609 240.634   5
  -3  10  -2 216.174 258.708   4
   3 -10   2 341.396 324.214   8
   3 -10   3 679.853 447.289   5
  -3   9  10-493.460 254.742   7
  -3   9  10-368.978 329.143   2
  -3   9   9 887.118 475.388   2
  -3   9   9-125.203 223.953   7
   3  -9  -8 253.881 383.192   8
  -3   9   8 399.610 258.036   7
  -3   9   8 338.277 297.225   2
  -3   9   7 1345.42 580.994   2
  -3   9   7 378.057 301.991   7
   3  -9  -7 1841.06 618.013   8
  -3   9   6-37.3759 216.696   4
  -3   9   6 161.077 172.562   7
   3  -9  -6 374.162 323.851   8
  -3   9   6-364.077 324.574   2
  -3   9   5 2779.78 711.199   7
   3  -9  -5 2449.87 754.605   8
  -3   9   5 2560.46 827.998   4
   3  -9  -4 609.583 492.292   8
  -3   9   4 378.453 287.109   7
  -3   9   4 361.106 392.695   4
  -3   9   3 6352.33 965.867   7
   3  -9  -3 5040.55 1083.01   8
  -3   9   3 4060.63 1030.62   4
   3  -9  -2 31.6927 177.325   8
  -3   9   2 21.4444 95.2626   7
  -3   9   2-233.679 248.625   4
   3  -9  -1 6585.71 1391.01   5
  -3   9   1 6833.71 1302.62   4
   3  -9  -1 5671.44 1137.07   8
   3  -9   0 380.285 315.176   5
  -3   9   0-194.617 107.248   4
   3  -9   1 6338.63 1354.49   5
   3  -9   1 4877.13 1080.79   8
  -3   9  -1 5735.59 1183.75   4
   3  -9   2-319.499 311.485   5
   3  -9   2 125.629 161.039   8
  -3   9  -2 165.258 174.745   4
   3  -9   3 1308.26 587.732   5
   3  -9   3 1275.94 586.891   8
  -3   9  -3 989.647 486.065   4
  -3   9  -4 26.0947 92.4280   4
   3  -9   4-203.984 305.390   5
   3  -9   5 2938.67 907.333   5
  -3   9  -5 3435.05 923.840   4
   3  -9   6 294.485 309.565   5
   3  -9   7 417.798 365.926   1
  -3   8  11-307.984 371.381   7
  -3   8  10 459.520 393.234   7
  -3   8  10-103.368 312.258   2
  -3   8   9 1717.49 655.149   2
   3  -8  -9 1897.85 571.397   3
  -3   8   9 1428.26 607.384   7
  -3   8   8-111.462 249.853   7
  -3   8   8 51.4302 160.732   2
   3  -8  -8 182.998 169.083   3
   3  -8  -7 3697.14 850.555   8
   3  -8  -7 1995.30 602.818   3
  -3   8   7 2999.03 824.764   2
  -3   8   7 2194.13 671.791   7
   3  -8  -6-167.629 225.611   3
  -3   8   6 52.4255 173.831   2
   3  -8  -6 303.759 390.535   8
  -3   8   6-159.139 231.582   7
  -3   8   5 7414.20 1308.00   4
   3  -8  -5 7046.20 1204.78   8
  -3   8   5 6968.59 1105.77   7
  -3   8   5 7387.11 1293.38   2
   3  -8  -4 11.4121 145.129   8
  -3   8   4 179.638 182.094   7
  -3   8   4-90.9823 129.779   4
  -3   8   3 7870.13 1318.52   4
  -3   8   3 7670.51 1054.21   7
   3  -8  -3 7408.44 1225.36   8
   3  -8  -2 772.313 416.105   8
  -3   8   2 1018.22 363.579   7
  -3   8   2 576.232 289.685   4
  -3   8   1 4841.56 1015.37   4
  -3   8   1 2937.16 590.293   7
   3  -8  -1 4207.72 915.783   8
   3  -8   0-150.954 254.308   5
  -3   8   0-323.864 324.597   4
   3  -8   0 280.565 205.863   8
  -3   8   0 1.18257 57.8928   3
  -3   8  -1 11829.7 1600.40   4
   3  -8   1 11692.6 1532.73   8
  -3   8  -1 10506.2 1005.56   3
   3  -8   1 12216.0 1765.11   5
   3  -8   2-49.7399 236.695   8
   3  -8   2 272.395 265.294   5
  -3   8  -2-336.310 388.615   4
  -3   8  -2-8.50971 70.4716   3
  -3   8  -3 17459.7 1980.76   4
   3  -8   3 18575.9 1960.32   8
   3  -8   3 17029.3 2115.07   5
   3  -8   4 72.5859 149.978   5
  -3   8  -4-35.7861 146.799   4
   3  -8   4 94.6327 161.922   8
   3  -8   5 3837.61 992.912   5
  -3   8  -5 2780.86 811.317   4
   3  -8   6-237.758 365.570   5
  -3   8  -6-178.683 189.205   4
   3  -8   7 6721.98 1400.87   5
  -3   8  -7 6170.24 1243.96   4
   3  -8   8 61.0523 245.468   1
  -3   7  11 1004.86 484.540   7
  -3   7  10 126.628 201.184   7
  -3   7  10-56.8036 138.477   2
  -3   7   9 1841.94 655.277   7
  -3   7   9 2115.20 680.958   2
   3  -7  -9 1268.18 422.370   3
  -3   7   8 554.469 302.170   7
  -3   7   8 254.156 243.130   2
   3  -7  -8 401.011 206.879   3
  -3   7   7 2307.45 678.207   7
  -3   7   7 1207.80 470.443   2
   3  -7  -7 2638.09 617.293   3
  -3   7   6 934.004 495.542   2
  -3   7   6 1282.73 483.770   7
   3  -7  -6 1201.70 404.293   3
   3  -7  -5 6106.19 909.126   3
  -3   7   5 6083.74 1091.90   2
  -3   7   5 5506.69 965.399   7
   3  -7  -4 1392.06 419.977   3
  -3   7   4 2904.11 678.408   7
  -3   7   4 2381.99 672.795   4
   3  -7  -3 3124.06 728.951   8
  -3   7   3 3018.58 769.036   4
  -3   7   3 2236.34 569.589   7
  -3   7   2 336.560 286.328   4
   3  -7  -2 347.404 251.651   8
  -3   7   2 36.9256 107.204   7
  -3   7   2 305.289 169.076   3
  -3   7   1 6806.64 1139.41   4
   3  -7  -1 6240.38 1042.63   8
  -3   7   1 7068.39 934.483   7
  -3   7   1 7323.12 890.948   3
   3  -7   0-3.75593 194.614   8
  -3   7   0-165.351 209.146   4
   3  -7   0-377.792 436.869   5
  -3   7   0-26.0291 113.870   3
  -3   7  -1 22957.8 2112.52   4
   3  -7   1 25459.6 2418.64   5
   3  -7   1 22414.1 1968.24   8
   3  -7   1 20789.7 1357.68   7
  -3   7  -1 23708.7 1456.09   3
   3  -7   2 453.532 243.205   5
   3  -7   2-116.751 271.552   8
   3  -7   2 336.427 154.756   7
  -3   7  -2 194.248 209.588   4
   3  -7   2 373.423 116.665   6
  -3   7  -3 11029.7 1470.52   4
   3  -7   3 9099.82 908.841   7
   3  -7   3 9929.26 1290.17   8
   3  -7   3 8867.70 1414.24   5
   3  -7   4-51.5621 256.331   5
  -3   7  -4 600.333 392.897   4
   3  -7   4 109.061 125.140   8
  -3   7  -4 218.767 173.872   3
   3  -7   5 5632.23 1156.40   5
  -3   7  -5 9286.86 1375.94   4
  -3   7  -6-182.791 209.964   4
   3  -7   6 24.7612 156.494   5
  -3   7  -7 10234.0 1517.21   4
   3  -7   7 11735.8 1747.58   5
   3  -7   8 781.045 482.909   5
  -3   7  -8 922.388 547.978   4
   3  -7   8-160.366 235.071   1
   3  -7   9 6043.98 1385.28   5
  -3   7  -9 3103.00 907.843   4
   3  -6 -11 343.459 236.479   3
  -3   6  11-86.5951 193.798   7
  -3   6  10 209.879 340.426   7
  -3   6  10 521.760 357.127   2
   3  -6 -10 265.878 199.420   3
  -3   6   9 2592.51 680.548   2
  -3   6   9 3404.60 876.923   7
   3  -6  -9 2782.67 599.462   3
  -3   6   8-360.820 399.590   7
  -3   6   8-202.008 205.785   2
   3  -6  -8 162.148 121.277   3
   3  -6  -7 1270.78 469.844   2
  -3   6   7 1220.85 474.140   7
  -3   6   7 2202.98 619.198   2
   3  -6  -7 1931.63 496.983   3
   3  -6  -6 360.353 258.077   2
  -3   6   6-77.2710 178.155   2
  -3   6   6 139.783 103.468   7
   3  -6  -6-133.790 178.997   3
   3  -6  -5 560.458 265.469   2
  -3   6   5 144.248 161.526   2
   3  -6  -5 178.491 120.213   3
  -3   6   5 574.084 324.691   7
   3  -6  -4 4844.74 881.889   2
  -3   6   4 6389.19 1010.34   7
  -3   6   4 4993.70 884.157   4
  -3   6   4 4854.96 902.840   2
   3  -6  -4 5168.09 727.270   3
  -3   6   3 25659.4 2081.12   4
  -3   6   3 25716.3 1928.02   7
   3  -6  -3 25988.3 1642.65   3
  -3   6   3 25492.0 1879.40   3
   3  -6  -3 26731.6 2080.45   2
  -3   6   2 344.971 210.967   7
   3  -6  -2 1444.05 503.995   2
   3  -6  -2 406.949 129.648   3
  -3   6   2 1564.29 513.845   4
  -3   6   2 262.367 215.601   3
  -3   6   1 16226.0 1627.71   4
   3  -6  -1 15275.5 1518.37   8
   3  -6  -1 16710.9 1633.34   2
  -3   6   1 15569.1 1384.23   7
  -3   6   1 13123.8 1183.01   3
   3  -6   0-209.715 244.352   8
  -3   6   0-93.9489 131.065   7
  -3   6   0 131.492 264.868   4
  -3   6   0 90.9367 100.151   3
   3  -6   1 6158.49 1089.34   5
   3  -6   1 7527.26 1025.37   8
  -3   6  -1 6652.88 1036.49   4
   3  -6   2 517.497 359.194   5
  -3   6  -2 385.401 347.569   4
   3  -6   2 754.938 310.848   8
   3  -6   2 437.180 154.540   6
  -3   6  -2 235.438 117.918   3
  -3   6  -3 8581.58 1233.48   4
  -3   6  -3 8202.53 683.878   3
   3  -6   3 8568.02 1303.92   5
   3  -6   3 9271.38 547.588   6
   3  -6   3 9210.77 1128.47   8
   3  -6   4 211.794 218.272   5
  -3   6  -4 189.223 185.672   4
   3  -6   4-28.6223 90.2547   8
  -3   6  -4 191.154 113.847   3
   3  -6   5 609.208 357.338   5
   3  -6   5 634.339 298.346   8
  -3   6  -5 135.903 125.883   4
  -3   6  -5 558.657 146.683   3
   3  -6   5 242.241 175.846   7
   3  -6   6-174.243 282.715   5
  -3   6  -6 29.2487 42.1354   3
  -3   6  -6-19.2741 163.370   4
   3  -6   6 38.5771 78.5172   7
   3  -6   7 3915.81 751.173   7
   3  -6   7 4583.71 1066.68   5
  -3   6  -7 3329.07 812.697   4
   3  -6   8-155.950 265.202   5
   3  -6   8 86.9919 179.713   1
  -3   6  -8 43.8698 122.503   4
  -3   6  -9 27720.0 2496.95   4
   3  -6   9 24719.0 1877.85   1
   3  -6   9 31577.7 3011.52   5
  -3   6 -10 403.851 346.434   4
   3  -6  10 419.489 324.933   5
  -3   6 -11-8.30788 133.226   4
  -3   5  12 156.279 237.029   7
  -3   5  11 959.695 619.651   7
   3  -5 -11 1190.45 409.301   3
  -3   5  10-166.570 182.794   2
  -3   5  10 530.914 405.079   7
   3  -5 -10 615.369 308.622   3
  -3   5   9 2976.39 808.041   7
  -3   5   9 3397.46 733.482   2
   3  -5  -9 3963.99 669.002   3
   3  -5  -8 106.468 111.060   2
  -3   5   8 208.050 262.829   7
  -3   5   8 145.262 184.490   2
   3  -5  -8 64.4205 78.8903   3
  -3   5   7 1677.37 504.122   2
  -3   5   7 1862.62 613.759   7
   3  -5  -7 2103.63 543.413   2
   3  -5  -7 2572.07 507.399   3
  -3   5   6 4235.38 802.628   2
   3  -5  -6 5205.57 853.957   2
  -3   5   6 3647.42 808.960   7
   3  -5  -6 4627.25 667.360   3
  -3   5   5 35366.9 2288.40   2
  -3   5   5 30612.2 2292.22   7
   3  -5  -5 31817.4 2165.25   2
   3  -5  -5 33948.3 1800.36   3
  -3   5   4 865.873 361.632   3
   3  -5  -4 927.519 375.548   2
  -3   5   4 874.377 367.849   7
  -3   5   4 884.190 318.967   2
   3  -5  -4 902.714 298.069   3
   3  -5  -3 19165.6 1607.39   2
  -3   5   3 21594.6 1760.68   4
   3  -5  -3 24527.7 1467.39   3
  -3   5   3 23554.4 1776.87   3
  -3   5   3 22693.9 1770.52   7
  -3   5   2 299.459 166.543   3
  -3   5   2 758.927 324.243   7
  -3   5   2 565.045 270.379   4
   3  -5  -2 326.244 157.169   3
   3  -5  -2 687.479 289.270   2
   3  -5  -1 4786.22 579.882   3
  -3   5   1 4711.37 802.884   4
  -3   5   1 4579.71 725.315   7
   3  -5  -1 3690.62 706.072   2
  -3   5   0 597.315 287.640   7
  -3   5   0 335.559 239.478   4
   3  -5   0 449.830 277.062   2
   3  -5   1 2818.22 691.423   5
   3  -5   1 2924.16 630.630   2
   3  -5   1 2486.40 564.267   8
  -3   5  -1 2649.31 618.306   4
  -3   5  -1 2349.02 403.939   3
   3  -5   2-171.985 235.661   5
  -3   5  -2-78.8280 199.611   4
   3  -5   2-440.949 303.199   2
   3  -5   2 437.347 257.653   8
  -3   5  -2-7.24199 51.3382   3
   3  -5   2 6.68848 89.6147   6
  -3   5  -3 29174.9 2152.70   4
   3  -5   3 32548.5 2417.86   5
   3  -5   3 30646.1 1280.42   6
   3  -5   3 30750.1 1910.48   8
  -3   5  -3 26640.2 1204.74   3
   3  -5   4-138.094 292.312   5
  -3   5  -4-70.4422 184.149   4
   3  -5   4-158.083 212.136   8
  -3   5  -4 14.8412 43.6039   3
   3  -5   5 2011.63 559.957   5
   3  -5   5 1957.51 483.900   8
  -3   5  -5 1559.87 511.165   4
   3  -5   5 1403.22 415.273   7
  -3   5  -5 1962.83 234.099   3
  -3   5  -5 1320.17 169.798   3
   3  -5   6-139.610 225.744   5
  -3   5  -6 99.1987 103.749   4
   3  -5   6 230.963 186.083   7
   3  -5   7 4117.62 952.654   5
   3  -5   7 3841.66 753.659   7
  -3   5  -7 3629.11 814.537   4
   3  -5   8 80.6182 178.333   5
  -3   5  -8 8.61874 122.157   4
   3  -5   8 407.988 265.010   7
   3  -5   8-231.888 216.844   1
   3  -5   9 1413.12 641.187   5
  -3   5  -9 1027.33 457.591   4
   3  -5   9 958.110 343.140   1
  -3   5 -10 253.408 246.588   4
   3  -5  10 628.048 491.069   5
  -3   5 -11 5236.93 1073.68   4
   3  -5  11 4320.46 1215.67   5
  -3   5 -12 49.0626 228.673   4
   3  -4 -12 92.0034 221.450   3
  -3   4  12-780.105 515.081   7
   3  -4 -11 952.943 353.924   3
  -3   4  11 1463.21 726.054   7
  -3   4  10-105.995 262.325   7
  -3   4  10-37.7528 157.495   2
   3  -4 -10 535.939 261.883   3
  -3   4   9 7599.62 1009.37   2
  -3   4   9 7949.14 972.139   4
  -3   4   9 8850.32 1495.78   7
   3  -4  -9 9968.87 1046.99   3
  -3   4   8 351.309 118.079   7
   3  -4  -8-83.0262 125.848   2
  -3   4   8-94.2158 136.014   2
   3  -4  -8 426.373 291.494   3
  -3   4   7 49561.2 2569.33   2
  -3   4   7 46982.4 3086.19   7
   3  -4  -7 51189.8 2262.86   3
   3  -4  -6 35.7720 142.187   2
  -3   4   6 151.529 156.296   7
  -3   4   6-202.746 207.951   2
  -3   4   5 21.8184 95.3686   3
   3  -4  -5 220.685 174.932   2
  -3   4   5 222.959 221.470   7
  -3   4   5 292.468 173.745   2
   3  -4  -5 474.748 278.997   3
  -3   4   4 859.256 307.206   7
  -3   4   4 1434.56 474.168   3
   3  -4  -4 1472.26 399.664   2
  -3   4   4 2191.32 488.987   2
   3  -4  -4 1691.85 367.321   3
  -3   4   3 19891.6 1625.95   7
  -3   4   3 19641.5 1506.27   4
   3  -4  -3 18769.0 1421.83   2
   3  -4  -3 21009.6 1209.35   3
  -3   4   3 19132.8 1578.13   3
  -3   4   2 1771.45 464.719   4
  -3   4   2 2001.87 491.419   7
   3  -4  -2 1647.04 388.170   2
   3  -4  -2 1644.66 322.001   3
  -3   4   1 49999.3 2542.33   4
   3  -4  -1 49343.7 2397.09   2
  -3   4   1 51060.5 2484.23   7
   3  -4  -1 54668.9 1906.24   3
  -3   4   0 699.352 217.434   3
  -3   4   0 849.218 294.442   7
  -3   4   0 1018.96 382.769   4
   3  -4   0 1093.53 365.724   2
   3  -4   0 1131.71 243.669   3
  -3   4  -1 69728.8 3088.69   4
   3  -4   1 69421.6 3041.68   2
  -3   4  -1 72819.4 2914.90   7
   3  -4   1 74710.6 2195.08   3
  -3   4  -1 72695.0 2404.77   3
   3  -4   1 71419.7 2788.48   7
  -3   4  -2 2712.88 354.586   3
   3  -4   2 2738.13 507.226   7
   3  -4   2 4129.84 785.679   5
   3  -4   2 3599.04 589.042   8
  -3   4  -2 2763.30 576.735   4
   3  -4   2 3424.60 634.116   4
   3  -4   2 2944.06 609.010   2
   3  -4   2 3211.25 463.369   6
  -3   4  -3 79206.2 3375.19   4
   3  -4   3 77711.6 3320.02   4
   3  -4   3 79850.2 2409.15   6
   3  -4   3 87934.5 3030.40   8
   3  -4   3 84650.4 3722.95   5
  -3   4  -4-52.7820 50.3713   3
   3  -4   4 111.655 95.7897   5
  -3   4  -4 369.941 225.440   4
   3  -4   4-48.0962 150.814   4
   3  -4   4-41.2305 144.463   8
   3  -4   4 22.2605 67.3576   6
  -3   4  -5 12084.2 1333.38   4
   3  -4   5 14260.2 1148.97   8
   3  -4   5 12989.1 1462.89   5
   3  -4   5 13286.3 1255.71   7
   3  -4   6-83.5136 266.383   5
  -3   4  -6-180.626 239.153   4
   3  -4   6 185.566 172.713   7
   3  -4   7 5053.68 1000.05   5
  -3   4  -7 6015.72 997.773   4
   3  -4   8 358.393 347.834   5
  -3   4  -8-51.7580 161.299   4
   3  -4   8-15.0042 69.2061   1
   3  -4   9 12670.9 1071.46   1
  -3   4  -9 13563.8 1573.07   4
  -3   4  -9 11258.9 812.109   6
  -3   4 -10-45.7374 189.340   4
   3  -4  10 209.773 296.922   5
  -3   4 -11 3599.25 874.487   4
   3  -4  11 2016.44 795.970   5
  -3   4 -12 14.9937 188.602   4
   3  -4  12-226.406 407.631   5
  -3   4 -13-50.0157 150.726   4
  -3   3  12 54.1038 338.513   7
   3  -3 -12 558.085 287.066   3
   3  -3 -11 3021.15 616.995   3
  -3   3  11 1645.78 740.345   7
  -3   3  10 25.3830 271.144   7
  -3   3  10-200.934 188.922   2
   3  -3 -10-28.4855 101.604   3
   3  -3  -9 10368.3 1062.84   3
  -3   3   9 12838.6 1177.17   2
  -3   3   9 10197.3 1639.03   7
  -3   3   8 1131.35 331.906   4
  -3   3   8 305.332 152.215   7
  -3   3   8 1265.11 382.320   2
   3  -3  -8 1210.42 353.009   3
  -3   3   7 1280.89 563.670   7
  -3   3   7 1720.29 404.340   2
   3  -3  -7 1149.99 292.549   2
   3  -3  -7 1772.23 447.371   3
   3  -3  -6 696.730 272.741   2
  -3   3   6 507.262 364.667   7
  -3   3   6 376.851 225.204   2
   3  -3  -6 820.935 305.815   3
  -3   3   5 36217.7 1825.13   2
  -3   3   5 31963.5 2261.08   7
   3  -3  -5 34686.5 1796.38   2
  -3   3   5 37642.4 2450.12   3
   3  -3  -5 35888.2 1735.89   3
  -3   3   4 506.997 245.645   3
   3  -3  -4 791.097 272.832   2
  -3   3   4 1053.99 393.203   7
  -3   3   4 1207.15 329.462   2
   3  -3  -4 924.022 281.428   3
   3  -3  -3 104988. 2949.90   3
  -3   3   3 101425. 3361.39   4
  -3   3   3 104994. 3892.71   7
  -3   3   3 102132. 3787.03   3
   3  -3  -3 97099.1 3184.02   2
   3  -3  -2 393.519 200.192   2
  -3   3   2 856.121 311.889   7
  -3   3   2 643.064 246.325   4
   3  -3  -2 606.018 213.520   3
  -3   3   1 98823.0 3524.01   7
  -3   3   1 97901.7 3383.39   4
   3  -3  -1 94728.8 3158.28   2
   3  -3  -1 99599.7 2607.69   3
  -3   3   1 96105.7 3148.92   3
  -3   3   0 12890.3 1111.22   4
   3  -3   0 13100.9 1100.17   2
  -3   3   0 14334.2 1229.08   7
   3  -3   0 14456.9 1151.69   7
   3  -3   0 13805.6 764.870   3
  -3   3   0 13650.6 968.963   3
  -3   3  -1 58011.2 2567.74   4
   3  -3   1 56135.0 2418.46   4
   3  -3   1 61152.3 1705.60   3
  -3   3  -1 61586.7 2605.94   7
   3  -3   1 55881.8 2425.11   7
   3  -3   1 56612.7 2243.10   6
  -3   3  -1 62489.8 1992.08   3
  -3   3  -2 189.217 105.487   3
   3  -3   2 134.714 143.544   5
   3  -3   2 120.191 140.645   4
  -3   3  -2 32.2987 130.426   4
   3  -3   2-51.8265 75.0166   6
   3  -3   2-108.526 164.182   7
   3  -3   2 200.087 101.996   3
  -3   3  -3 56408.7 2620.37   4
   3  -3   3 60750.8 2261.02   8
   3  -3   3 52718.8 2024.36   6
  -3   3  -3 58497.8 1436.85   3
   3  -3   3 61719.1 2934.19   5
   3  -3   4 42.2115 183.639   5
  -3   3  -4-56.1722 115.566   4
   3  -3   4-36.9873 60.9324   8
   3  -3   4 204.789 113.361   6
  -3   3  -5 90606.8 3619.76   4
   3  -3   5 90538.0 3663.99   4
   3  -3   5 86512.2 2744.05   8
   3  -3   5 80432.4 3315.06   7
   3  -3   5 86514.1 3724.30   5
  -3   3  -5 86459.5 3780.69   5
   3  -3   6-134.296 266.535   5
  -3   3  -6 24.0638 172.851   5
   3  -3   6-26.9949 124.261   8
  -3   3  -6 88.5803 160.468   4
  -3   3  -6-11.4422 54.2204   6
   3  -3   6-112.667 111.216   4
  -3   3  -7 15134.3 1492.60   4
  -3   3  -7 13842.5 1013.49   6
   3  -3   7 14915.7 1624.08   5
  -3   3  -8 178.356 222.341   4
   3  -3   8-32.9823 83.3735   1
  -3   3  -8-36.4214 102.158   6
   3  -3   8-4.33561 176.611   5
   3  -3   9 7754.28 697.569   1
  -3   3  -9 8139.10 1169.61   4
  -3   3  -9 7921.79 848.773   6
   3  -3   9 9543.35 1487.79   5
  -3   3 -10-98.4275 221.040   4
  -3   3 -10-154.935 130.940   6
   3  -3  10-45.8685 80.0080   1
   3  -3  10-535.530 531.104   5
  -3   3 -11 4931.52 968.323   4
  -3   3 -11 4453.10 699.043   6
   3  -3  11 4357.10 1147.27   5
  -3   3 -12-55.1454 257.937   4
   3  -3  12 19.3313 332.691   5
  -3   3 -13 1502.44 553.339   4
  -3   2  12-673.098 489.334   7
   3  -2 -12 93.5305 138.818   3
  -3   2  11 1221.91 651.935   7
   3  -2 -11 643.974 314.616   3
  -3   2  10 668.375 497.722   7
  -3   2  10 324.499 194.073   2
   3  -2 -10 923.580 351.163   3
  -3   2   9-37.1245 88.0830   2
  -3   2   9 21.5686 53.1609   4
  -3   2   9 294.361 339.227   7
   3  -2  -9 55.2295 147.326   3
  -3   2   8 502.936 183.658   2
  -3   2   8 707.052 234.696   4
  -3   2   8 829.598 518.704   7
   3  -2  -8 1134.32 363.690   3
  -3   2   7 50751.5 1980.96   4
  -3   2   7 56536.5 2099.52   2
  -3   2   7 50454.9 3288.59   7
   3  -2  -7 53689.0 2393.88   3
   3  -2  -7 47790.3 2637.90   1
  -3   2   6 4405.15 858.454   3
   3  -2  -6 3447.76 648.786   1
  -3   2   6 4148.26 492.369   2
  -3   2   6 3658.05 783.412   7
   3  -2  -6 4079.44 598.501   3
  -3   2   5 23535.9 1211.63   2
  -3   2   5 23931.8 1871.13   7
   3  -2  -5 22925.6 1150.34   2
   3  -2  -5 25509.7 1462.73   3
  -3   2   5 25806.9 1983.58   3
  -3   2   4 2954.39 442.777   4
   3  -2  -4 2968.82 414.007   2
  -3   2   4 2182.58 527.014   7
   3  -2  -4 2868.30 465.068   3
  -3   2   3 4595.49 550.235   4
   3  -2  -3 4359.62 495.507   2
  -3   2   3 3887.89 688.881   7
   3  -2  -3 4950.80 571.421   3
  -3   2   2 9027.82 794.022   4
   3  -2  -2 8673.37 713.451   2
  -3   2   2 9124.94 993.582   7
   3  -2  -2 9479.76 752.138   3
  -3   2   1 213207. 5536.53   7
  -3   2   1 199991. 4906.77   4
   3  -2  -1 215076. 4495.20   3
   3  -2  -1 197783. 4647.29   2
  -3   2   1 214530. 5089.20   3
  -3   2   0 4229.56 566.508   4
   3  -2   0 5170.73 642.813   4
   3  -2   0 4235.91 670.575   7
  -3   2   0 5335.00 732.913   7
  -3   2   0 4344.95 514.295   3
   3  -2   0 4730.51 440.999   3
   3  -2   1 25002.5 1528.64   7
  -3   2  -1 21885.3 1357.99   4
   3  -2   1 23332.0 1375.66   4
  -3   2  -1 24051.7 1543.72   7
   3  -2   1 24825.0 1426.85   6
   3  -2   1 22441.6 892.962   3
  -3   2  -1 24899.5 1131.76   3
   3  -2   2 223.956 125.460   5
  -3   2  -2 131.834 91.6428   4
  -3   2  -2 237.870 86.1532   3
   3  -2   2 227.467 145.942   4
   3  -2   2 140.489 118.437   6
   3  -2   2 304.515 93.3789   3
   3  -2   2 252.614 128.047   7
   3  -2   3 139738. 4221.17   7
  -3   2  -3 138843. 4160.02   4
   3  -2   3 139246. 2445.05   3
   3  -2   3 133853. 3654.75   6
   3  -2   3 141909. 4435.42   5
   3  -2   4 804.564 303.779   5
  -3   2  -4 906.377 285.756   4
   3  -2   4 996.639 211.117   8
   3  -2   4 1236.26 265.834   6
  -3   2  -4 886.084 234.304   6
  -3   2  -5 102785. 3662.95   4
   3  -2   5 98677.9 2598.43   8
  -3   2  -5 95582.7 3027.47   6
   3  -2   5 92694.1 3658.51   5
   3  -2   5 96196.6 2785.38   6
   3  -2   6 940.495 389.832   5
  -3   2  -6 542.748 276.679   5
   3  -2   6 650.144 185.583   8
  -3   2  -6 331.253 216.222   4
   3  -2   6 833.619 326.234   4
  -3   2  -6 697.349 234.712   6
  -3   2  -7 38700.5 2344.02   4
   3  -2   7 40720.5 2482.35   4
  -3   2  -7 39333.4 1920.35   6
   3  -2   7 39582.9 2565.49   5
  -3   2  -7 39289.1 2561.37   5
  -3   2  -8-92.8284 135.237   4
   3  -2   8 124.594 61.8940   1
  -3   2  -8 242.837 170.776   6
   3  -2   8 341.863 332.344   5
  -3   2  -9 13221.9 1435.25   4
  -3   2  -9 12244.5 1151.37   6
   3  -2   9 12284.5 650.600   1
  -3   2 -10-120.268 178.738   4
  -3   2 -10-328.345 212.279   6
   3  -2  10-63.8222 210.448   5
  -3   2 -11 12896.3 1504.15   4
  -3   2 -11 11384.6 1225.25   6
   3  -2  11 10895.7 1801.27   5
  -3   2 -12-332.819 279.892   4
  -3   2 -12 262.411 130.988   6
   3  -2  12 529.116 557.287   5
  -3   2 -13 1029.71 439.402   4
   3  -2  13 882.158 613.283   5
  -3   2 -14-493.384 341.605   4
   3  -1 -13 292.154 208.256   3
  -3   1  12 199.466 286.371   7
   3  -1 -12 216.830 169.245   3
  -3   1  11 1089.19 630.248   7
   3  -1 -11 1948.25 506.450   3
  -3   1  10 342.894 475.049   7
   3  -1 -10-129.136 129.362   3
   3  -1  -9 6428.68 887.632   3
  -3   1   9 7019.73 636.569   4
  -3   1   9 9071.38 1583.86   7
  -3   1   9 7363.08 684.967   2
   3  -1  -8 1595.46 391.435   3
  -3   1   8 1295.27 604.534   7
  -3   1   8 1607.01 280.076   4
  -3   1   8 2022.46 325.665   2
   3  -1  -7 2747.60 504.278   3
  -3   1   7 2610.52 319.839   4
  -3   1   7 2448.61 312.268   2
  -3   1   7 3068.73 800.869   7
   3  -1  -7 2482.29 580.634   1
   3  -1  -6 2917.76 509.300   3
  -3   1   6 2687.29 309.734   4
  -3   1   6 2930.25 682.397   3
  -3   1   6 2652.79 272.242   2
  -3   1   6 2899.35 748.836   7
   3  -1  -6 2843.12 601.801   1
  -3   1   5 7318.41 507.928   4
   3  -1  -5 7743.36 817.378   3
   3  -1  -5 8128.02 951.951   1
  -3   1   5 7053.07 1035.25   7
  -3   1   4 3739.27 380.787   4
  -3   1   4 3613.51 672.262   7
   3  -1  -4 4350.32 581.358   3
  -3   1   3 80694.5 2181.29   4
  -3   1   3 85858.1 3364.35   7
   3  -1  -3 82740.3 2008.41   2
   3  -1  -3 85467.1 2724.31   3
   3  -1  -2 275.432 162.664   3
  -3   1   2 222.066 196.883   7
  -3   1   2 412.528 198.912   3
  -3   1   2 247.844 113.853   4
   3  -1  -2 30.4583 43.1666   2
  -3   1   1 4354.94 466.746   4
  -3   1   1 4220.17 540.007   3
   3  -1  -1 4315.52 473.106   3
  -3   1   1 3806.57 609.835   7
   3  -1   0 1997.03 304.016   3
  -3   1   0 1672.10 316.533   3
  -3   1   0 2118.23 343.518   4
   3  -1   0 1508.07 290.273   4
  -3   1   0 1737.86 396.597   7
  -3   1  -1 145825. 3443.60   3
  -3   1  -1 158421. 3870.06   4
   3  -1   1 145208. 3748.36   4
  -3   1  -1 151125. 4284.14   7
   3  -1   1 144911. 4086.02   6
   3  -1   1 146233. 3177.09   3
   3  -1   2 13120.6 1017.96   6
  -3   1  -2 12999.4 1008.38   4
   3  -1   2 13012.6 978.525   4
   3  -1   2 13422.7 628.533   3
   3  -1   2 13151.7 1072.84   5
  -3   1  -3 66775.8 2540.41   4
   3  -1   3 66551.3 2679.14   7
  -3   1  -3 69483.7 2501.75   6
   3  -1   3 69899.9 2463.08   6
   3  -1   3 68563.2 1472.62   3
   3  -1   3 72687.0 2739.72   5
   3  -1   4 3471.42 570.340   5
  -3   1  -4 2474.12 468.232   4
   3  -1   4 3252.98 468.960   6
  -3   1  -4 2800.18 470.127   6
  -3   1  -5 120246. 3920.14   4
   3  -1   5 127248. 3472.72   6
   3  -1   5 129290. 2734.79   8
  -3   1  -5 118170. 3649.82   6
   3  -1   5 126748. 4127.98   5
   3  -1   6 115.890 119.352   5
  -3   1  -6 334.928 168.142   5
  -3   1  -6 449.109 239.474   4
  -3   1  -6 149.527 105.111   6
   3  -1   7 12521.0 504.712   1
  -3   1  -7 11477.0 1191.54   4
   3  -1   7 11968.0 1280.54   4
  -3   1  -7 13588.0 1170.60   6
   3  -1   7 12717.6 1381.57   5
  -3   1  -7 12834.8 1377.21   5
  -3   1  -8 727.681 346.104   5
  -3   1  -8 187.344 176.539   6
  -3   1  -8-90.8102 187.434   4
   3  -1   8 579.068 262.613   4
   3  -1   8 201.863 153.539   5
  -3   1  -9 10978.8 1268.98   4
  -3   1  -9 8880.57 1058.48   6
   3  -1   9 11579.4 1554.60   5
  -3   1 -10-196.805 287.187   4
  -3   1 -10-118.360 227.317   6
   3  -1  10 250.174 219.066   5
  -3   1 -11 14175.6 1556.63   4
  -3   1 -11 12382.0 1367.57   6
   3  -1  11 13075.1 1929.56   5
  -3   1 -12 54.7927 153.585   4
  -3   1 -12 233.813 207.111   6
   3  -1  12 327.867 373.434   5
  -3   1 -13 6113.49 1109.61   4
  -3   1 -13 5967.99 1036.00   6
   3  -1  13 3544.20 1133.65   5
  -3   1 -14 235.107 232.474   4
  -3   1 -15 1034.73 493.098   4
  -3   0  12-54.5170 355.339   7
   3   0 -12-209.770 202.323   3
  -3   0  11 2448.76 968.331   7
   3   0 -11 2564.51 620.938   3
   3   0 -10 1197.85 391.473   3
  -3   0  10 962.116 655.031   7
   3   0  -9 636.498 244.151   3
  -3   0   9 1148.11 204.009   4
  -3   0   9 824.684 557.829   7
  -3   0   9 928.007 226.086   2
   3   0  -8 32.2690 253.268   3
  -3   0   8 162.402 241.655   7
  -3   0   8 317.893 97.2818   4
  -3   0   8 343.647 115.781   2
  -3   0   7 17685.2 1943.00   7
   3   0  -7 22091.2 1555.99   3
   3   0  -7 18189.5 1996.04   5
   3   0  -7 19289.6 1670.93   1
   3   0  -6 970.397 301.005   3
  -3   0   6 438.329 237.698   3
  -3   0   6 711.401 411.668   7
   3   0  -6 1010.82 371.995   1
   3   0  -6 1234.93 547.374   5
  -3   0   5 33238.7 2282.01   7
   3   0  -5 36798.3 1907.52   3
  -3   0   5 35491.9 2282.20   3
   3   0  -5 35118.6 2059.77   1
  -3   0   4 4524.72 734.708   7
   3   0  -4 4456.04 607.096   3
  -3   0   3 18214.9 1438.45   7
   3   0  -3 18390.7 1206.22   3
   3   0  -2-45.4896 87.5612   3
  -3   0   2 41.2283 135.107   7
  -3   0   2 46.4676 27.2138   4
  -3   0   1 97298.0 2240.91   4
   3   0  -1 93425.2 2235.95   4
  -3   0   1 94819.8 3267.10   7
   3   0  -1 101742. 2938.61   3
  -3   0   1 93870.3 3044.26   3
  -3   0   0 35801.2 1308.45   4
   3   0   0 34716.0 1307.60   4
  -3   0   0 34598.4 1802.76   7
   3   0   0 36261.5 1530.38   3
   3   0   0 33647.8 1569.55   1
  -3   0   0 34177.6 1567.61   3
  -3   0  -1 236515. 4940.96   4
   3   0   1 233147. 4956.48   4
   3   0   1 232770. 4905.10   3
   3   0   1 229739. 5057.95   1
  -3   0  -2 5385.08 575.806   4
   3   0   2 5124.96 575.848   4
  -3   0  -2 5575.95 661.005   6
   3   0   2 4616.42 616.672   6
   3   0   2 5517.15 486.416   3
   3   0   2 5862.69 538.053   1
   3   0   2 5538.79 611.903   5
  -3   0  -3 60072.6 2232.29   4
   3   0   3 60581.8 2307.04   4
   3   0   3 57685.3 2301.58   6
  -3   0  -3 58557.0 2369.82   6
   3   0   3 62151.4 1748.44   3
   3   0   3 62552.2 1819.73   1
   3   0   3 59105.2 2256.29   5
  -3   0  -4 2198.90 438.203   5
  -3   0  -4 2196.08 446.448   4
   3   0   4 1863.17 387.254   5
   3   0   4 1524.90 337.263   6
  -3   0  -4 1267.82 323.505   6
   3   0   4 1963.17 251.231   1
  -3   0  -5 17292.0 1268.64   4
   3   0   5 17497.6 580.176   3
   3   0   5 17370.1 1153.62   6
  -3   0  -5 17581.0 1279.88   6
   3   0   5 16478.9 1278.40   5
   3   0   5 15713.1 630.326   1
   3   0   6 479.844 190.983   5
  -3   0  -6 585.623 286.269   5
  -3   0  -6 734.244 273.778   4
  -3   0  -6 399.208 239.723   6
   3   0   6 554.113 107.382   3
  -3   0  -7 16669.0 1377.91   4
   3   0   7 15484.5 1438.49   4
  -3   0  -7 15501.8 1306.76   6
   3   0   7 15217.1 695.102   3
   3   0   7 13030.7 1343.41   5
  -3   0  -7 16405.3 1489.87   5
  -3   0  -8-27.7035 100.393   5
   3   0   8 56.1641 57.1185   3
  -3   0  -8 146.643 210.959   4
   3   0   8-201.664 230.418   4
  -3   0  -8 2.69961 168.700   6
   3   0   8-46.2555 169.493   5
  -3   0  -9 16606.9 1539.61   4
  -3   0  -9 16596.4 1527.58   6
   3   0   9 14828.0 906.045   3
   3   0  10-124.675 92.9915   3
  -3   0 -10 107.681 150.795   6
  -3   0 -10 161.739 169.701   4
   3   0  10-42.0251 195.618   5
  -3   0 -11 12375.8 1460.38   4
   3   0  11 12062.2 983.956   3
  -3   0 -11 14040.6 1551.97   6
   3   0  11 11675.9 1822.01   5
  -3   0 -12-263.173 245.372   4
  -3   0 -12-133.487 250.245   6
  -3   0 -13 2923.58 738.272   4
   3   0  13 3512.01 852.667   2
  -3   0 -13 2200.35 642.861   6
   3   0  13 1888.50 901.179   5
  -3   0 -14 155.184 210.327   4
  -3   0 -14 171.130 175.341   6
   3   0  15 1199.24 629.967   2
  -3   0 -15 579.039 364.566   6
  -3  -1  12 441.498 389.282   7
   3   1 -12 173.685 145.160   3
   3   1 -11 2514.99 586.434   3
  -3  -1  11 2695.99 982.090   7
   3   1 -10-49.2433 178.862   3
  -3  -1  10 515.929 474.000   7
   3   1  -9 5158.68 824.555   3
  -3  -1   9 6093.22 594.482   2
  -3  -1   9 4299.13 1104.77   7
   3   1  -8-14.8015 103.329   3
  -3  -1   8 65.5864 48.7146   2
  -3  -1   8 115.234 85.2551   2
   3   1  -7 6144.23 960.032   1
  -3  -1   7 4233.95 962.725   7
   3   1  -7 5538.98 788.692   3
   3   1  -7 6481.01 1153.41   5
   3   1  -6-156.070 225.802   3
  -3  -1   6 261.168 240.280   7
  -3  -1   6-1.80197 55.1790   3
   3   1  -6 162.846 162.888   1
   3   1  -6-109.875 190.208   5
   3   1  -5 20101.6 1580.71   1
   3   1  -5 21771.2 1501.42   3
  -3  -1   5 20593.2 1718.68   7
  -3  -1   5 20363.3 1717.39   3
   3   1  -5 18045.5 1696.12   5
   3   1  -4 782.809 258.476   3
   3   1  -4 1559.79 419.095   1
  -3  -1   4 1323.45 405.776   7
   3   1  -4 1504.48 456.754   5
   3   1  -3 105011. 3474.45   3
  -3  -1   3 105427. 3703.66   7
  -3  -1   2 17053.1 1303.03   7
   3   1  -2 14409.4 1142.77   7
   3   1  -2 17614.1 1241.48   3
  -3  -1   2 17803.1 1228.63   1
   3   1  -1 36002.5 1065.87   4
  -3  -1   1 35565.3 1856.15   7
   3   1  -1 36189.8 1782.35   7
  -3  -1   1 40213.3 1797.70   1
   3   1  -1 38740.6 1813.50   3
   3   1  -1 36886.8 1229.56   2
  -3  -1   0 5812.26 476.230   4
   3   1   0 6111.96 479.947   4
   3   1   0 6399.64 547.223   2
  -3  -1   0 6492.32 651.498   1
   3   1   0 6259.00 682.738   3
   3   1   0 6117.97 658.286   1
   3   1   1 2216.38 369.554   1
  -3  -1  -1 2019.62 409.947   7
  -3  -1  -1 2138.80 316.771   4
   3   1   1 1560.91 310.320   3
   3   1   1 2122.01 314.332   4
  -3  -1  -1 2212.51 431.857   6
   3   1   1 1325.98 267.021   2
  -3  -1  -1 2554.61 397.874   1
   3   1   2 6054.68 564.873   1
  -3  -1  -2 6044.57 594.959   4
   3   1   2 6232.85 610.320   4
  -3  -1  -2 5621.77 713.520   6
   3   1   2 5920.78 537.507   5
   3   1   3 88390.4 2369.82   1
  -3  -1  -3 87726.1 2772.14   4
   3   1   3 93997.7 2919.86   4
  -3  -1  -3 91228.2 3130.50   6
   3   1   3 87174.6 2547.12   5
  -3  -1  -3 87163.7 2604.84   5
  -3  -1  -4 569.062 206.280   5
   3   1   4 751.133 226.541   5
  -3  -1  -4 944.451 280.752   4
  -3  -1  -4 946.622 271.740   6
   3   1   4 594.041 229.518   6
   3   1   4 737.839 158.867   1
  -3  -1  -5 168574. 4640.62   4
  -3  -1  -5 175881. 4867.77   6
   3   1   5 174006. 4498.30   6
   3   1   5 162435. 4464.36   5
  -3  -1  -5 167028. 4524.61   5
   3   1   5 165377. 3443.82   3
  -3  -1  -6 9788.65 1008.07   4
  -3  -1  -6 8309.59 961.416   6
   3   1   6 10332.8 565.976   3
   3   1   6 8997.58 991.364   5
  -3  -1  -7 46326.6 2359.89   4
  -3  -1  -7 46640.5 2450.08   6
   3   1   7 43886.1 1394.56   3
   3   1   7 43035.9 2537.74   5
  -3  -1  -7 45229.8 2428.85   5
  -3  -1  -8 180.214 92.3546   5
  -3  -1  -8 191.937 187.867   4
   3   1   8-185.686 202.813   4
  -3  -1  -8 482.345 272.982   6
   3   1   8 358.230 321.818   5
   3   1   8 180.564 69.8677   3
  -3  -1  -9 7703.90 1047.94   4
  -3  -1  -9 6082.00 973.022   6
   3   1   9 5203.84 570.239   3
  -3  -1  -9 6560.45 1019.34   5
   3   1  10 999.700 279.429   3
  -3  -1 -10 1102.80 413.360   4
   3   1  10 649.864 266.622   2
  -3  -1 -10 1101.20 430.983   6
   3   1  10 529.265 318.688   5
   3   1  11 2796.04 490.349   3
  -3  -1 -11 3449.59 746.803   4
   3   1  11 3001.42 767.769   2
  -3  -1 -11 3301.35 819.130   6
   3   1  11 3387.29 976.643   5
  -3  -1 -12-254.227 242.971   4
   3   1  12-622.665 404.785   2
  -3  -1 -12 16.0185 242.681   6
   3   1  12 298.647 339.671   5
   3   1  13 1740.86 670.057   2
  -3  -1 -13 2879.14 794.913   6
  -3  -1 -14-43.0210 158.626   6
   3   1  14 645.988 450.851   2
   3   1  15 1250.67 659.246   2
  -3  -1 -15 1353.40 578.847   6
   3   2 -12-595.679 308.836   3
  -3  -2  12 236.153 341.873   7
   3   2 -11 1461.36 474.638   3
  -3  -2  11 1359.38 737.181   7
   3   2 -10 1619.27 486.990   3
  -3  -2  10 996.716 576.445   7
   3   2  -9 3518.39 677.420   3
  -3  -2   9 2801.61 385.758   2
  -3  -2   8 779.221 210.863   2
  -3  -2   8 663.715 173.693   2
  -3  -2   8 526.326 331.996   7
  -3  -2   7 17924.4 1020.49   2
  -3  -2   7 16483.3 785.019   2
   3   2  -7 17510.4 1475.92   3
   3   2  -7 15993.8 1705.28   5
   3   2  -6 358.154 165.430   3
  -3  -2   6 503.049 278.220   1
  -3  -2   6 769.099 206.410   2
  -3  -2   6 268.777 243.737   7
   3   2  -6 521.877 270.873   1
   3   2  -6 230.563 204.942   5
   3   2  -5 55772.4 2809.49   1
  -3  -2   5 49840.7 2767.51   7
  -3  -2   5 54069.5 1542.29   2
  -3  -2   5 55766.6 2665.10   1
   3   2  -5 52941.9 2872.10   5
   3   2  -5 59697.9 2775.15   3
   3   2  -4 2152.14 479.724   3
  -3  -2   4 1993.56 452.215   1
  -3  -2   4 1899.10 488.418   7
  -3  -2   4 2603.95 270.362   2
   3   2  -4 2870.92 573.792   1
   3   2  -4 3172.34 630.689   5
  -3  -2   3 16334.8 1341.00   7
  -3  -2   3 15447.2 691.189   2
   3   2  -3 16878.8 1332.11   3
   3   2  -3 14924.3 1266.69   5
  -3  -2   3 14858.0 1217.28   1
   3   2  -2 1303.96 142.951   4
   3   2  -2 920.491 282.899   3
  -3  -2   2 1252.65 198.725   2
  -3  -2   2 1532.43 373.992   7
   3   2  -2 1251.51 334.109   7
  -3  -2   2 898.426 294.820   1
   3   2  -2 960.956 166.987   2
   3   2  -2 758.601 245.348   5
   3   2  -1 577.828 217.046   7
   3   2  -1 207.832 77.2624   3
   3   2  -1 702.770 139.205   4
  -3  -2   1 639.417 166.588   2
   3   2  -1 754.648 257.662   6
  -3  -2   1 601.541 229.039   1
  -3  -2   1 643.213 252.145   7
   3   2  -1 750.238 207.145   2
   3   2   0 13219.9 750.029   4
   3   2   0 12292.1 890.590   2
   3   2   0 13023.4 1047.23   7
  -3  -2   0 12486.3 1026.32   7
  -3  -2   0 11922.7 763.808   2
   3   2   0 11969.4 1029.98   3
  -3  -2   0 12704.5 985.938   1
   3   2   1 50440.9 2018.78   1
   3   2   1 51329.9 1800.29   4
  -3  -2  -1 51533.2 2152.97   7
   3   2   1 50035.7 2158.59   7
   3   2   1 51171.6 2084.47   2
  -3  -2  -1 53105.3 2323.78   6
   3   2   1 50856.6 1372.86   5
  -3  -2  -1 51529.2 2007.20   1
   3   2   2 26239.3 1348.65   4
   3   2   2 26016.5 1309.80   1
   3   2   2 26351.3 1513.28   2
  -3  -2  -2 24599.6 1567.78   6
   3   2   2 25070.9 1497.26   7
   3   2   2 24495.5 907.841   5
  -3  -2  -2 26940.3 1314.03   1
   3   2   3 196534. 4803.07   4
   3   2   3 190231. 4262.54   1
   3   2   3 198146. 5024.30   7
   3   2   3 192650. 5050.54   2
  -3  -2  -3 196505. 5220.40   6
   3   2   3 187839. 4022.46   5
  -3  -2  -3 188681. 4063.09   5
  -3  -2  -3 195924. 4304.59   1
  -3  -2  -4 4963.43 653.222   4
   3   2   4 5228.49 699.284   4
   3   2   4 5660.60 775.849   2
  -3  -2  -4 5655.11 753.483   6
   3   2   4 4994.49 567.183   5
  -3  -2  -4 5384.29 555.499   5
  -3  -2  -4 4833.15 459.932   1
  -3  -2  -5 55411.3 2389.49   4
   3   2   5 57039.8 1597.10   8
   3   2   5 57061.1 2608.81   2
  -3  -2  -5 59160.0 2685.85   6
   3   2   5 53397.8 2293.31   5
  -3  -2  -5 55318.5 1596.66   1
  -3  -2  -5 53975.5 2163.41   5
  -3  -2  -6 1388.98 347.255   5
  -3  -2  -6 1425.65 411.014   4
   3   2   6 1136.67 145.603   8
  -3  -2  -6 1226.23 160.117   1
   3   2   6 1711.75 513.373   2
  -3  -2  -6 1389.29 402.624   6
   3   2   6 781.001 187.866   3
   3   2   6 695.859 299.403   5
  -3  -2  -7 46059.2 2410.47   4
   3   2   7 49445.4 2687.19   2
   3   2   7 47812.6 1581.60   3
  -3  -2  -7 51477.9 2722.61   6
   3   2   7 46685.4 2669.88   5
  -3  -2  -8 798.753 334.863   5
  -3  -2  -8 980.113 376.214   4
   3   2   8 312.842 188.221   4
   3   2   8 303.368 148.461   2
  -3  -2  -8 309.802 268.651   6
   3   2   8 346.051 139.933   3
   3   2   8 832.623 472.822   5
  -3  -2  -9 6628.69 967.848   4
   3   2   9 8306.56 1184.52   2
   3   2   9 4858.84 549.356   3
  -3  -2  -9 5273.08 963.168   6
   3   2   9 7286.57 1181.02   5
  -3  -2  -9 6137.17 964.793   5
   3   2  10 208.463 117.418   3
   3   2  10-16.0518 156.128   2
   3   2  10 532.588 527.211   5
  -3  -2 -10 689.193 398.514   6
   3   2  11 6535.28 1137.28   2
  -3  -2 -11 8454.84 1337.91   6
   3   2  11 6644.07 797.384   3
   3   2  12 36.9168 184.896   2
  -3  -2 -12-104.409 167.476   6
   3   2  13 3917.71 973.118   2
  -3  -2 -13 4855.83 1080.99   6
  -3  -2 -14-136.538 280.161   6
   3   2  14 194.306 288.627   2
  -3  -2 -15 488.689 381.666   6
   3   2  15 1289.60 620.670   2
  -3  -2 -16 192.844 226.314   6
   3   3 -12 56.6240 112.018   3
  -3  -3  12-31.3494 161.948   7
   3   3 -11 2060.98 566.173   3
  -3  -3  11 1722.25 809.483   7
   3   3 -10 696.495 354.751   3
  -3  -3  10-73.4370 114.282   7
   3   3  -9 4033.81 757.461   3
  -3  -3   9 1753.85 692.768   7
   3   3  -8 2421.74 623.582   3
  -3  -3   8 942.673 490.796   7
  -3  -3   8 2645.18 635.115   1
  -3  -3   8 2044.18 461.687   2
   3   3  -7 3025.88 707.897   5
   3   3  -7 4546.79 772.805   3
  -3  -3   7 4109.79 783.006   1
  -3  -3   7 2296.38 681.368   7
  -3  -3   7 3607.73 577.090   2
   3   3  -6 279.503 209.144   5
  -3  -3   6 78.3530 126.503   7
   3   3  -6-150.219 283.897   3
   3   3  -6 101.894 49.6572   4
  -3  -3   6 40.8629 152.283   1
  -3  -3   6 292.584 156.367   2
   3   3  -5 8405.03 441.928   4
   3   3  -5 8202.80 1081.84   1
  -3  -3   5 7734.86 1067.32   7
   3   3  -5 8894.05 1075.58   3
  -3  -3   5 8258.62 795.905   2
   3   3  -5 7112.99 931.280   5
  -3  -3   5 8906.11 1066.59   1
  -3  -3   4 1977.53 359.073   2
   3   3  -4 1735.84 209.063   4
   3   3  -4 1712.64 488.715   3
  -3  -3   4 1548.99 441.004   7
   3   3  -4 1439.66 451.848   6
   3   3  -4 1992.90 524.499   1
  -3  -3   4 1782.77 474.800   1
   3   3  -4 1662.54 418.860   5
  -3  -3   3 66984.9 2857.05   7
   3   3  -3 69753.7 1774.98   4
  -3  -3   3 66098.6 2316.52   2
   3   3  -3 74172.1 3152.47   3
   3   3  -3 62430.7 2487.95   5
  -3  -3   3 73450.1 3019.25   1
   3   3  -2 6989.30 604.441   2
   3   3  -2 6868.65 757.851   7
  -3  -3   2 7341.23 822.517   7
  -3  -3   2 7423.91 708.430   2
   3   3  -2 7861.07 951.766   3
   3   3  -2 6761.46 651.476   5
  -3  -3   2 7482.32 880.175   1
   3   3  -1 59000.9 2120.26   2
  -3  -3   1 56583.9 2130.10   2
  -3  -3   1 55845.8 2278.40   7
   3   3  -1 54070.2 2154.12   7
   3   3  -1 58887.3 2656.06   3
   3   3  -1 54514.8 1707.11   5
  -3  -3   1 61212.9 2562.63   1
  -3  -3   0 11384.4 1022.77   1
  -3  -3   0 11489.5 961.324   7
   3   3   0 13039.8 1015.46   2
   3   3   0 11539.1 960.630   7
  -3  -3   0 10894.8 901.938   2
  -3  -3   0 11360.4 1039.19   6
   3   3   0 12712.4 1123.91   6
   3   3   0 11247.4 477.745   5
  -3  -3  -1 66410.8 2513.96   1
   3   3   1 66459.0 2511.15   7
   3   3   1 65660.9 2254.56   4
  -3  -3  -1 61493.0 2385.29   2
   3   3   1 66606.0 2514.90   1
  -3  -3  -1 64225.4 2403.58   7
   3   3   1 70122.8 2706.59   2
  -3  -3  -1 64501.6 2691.79   6
   3   3   1 63088.3 2619.86   6
   3   3   2 590.634 205.165   7
   3   3   2 1025.49 370.792   2
   3   3   2 691.757 229.619   4
  -3  -3  -2 457.167 192.194   1
   3   3   2 479.577 195.057   1
  -3  -3  -2 69.9048 90.4034   2
  -3  -3  -2 535.550 221.255   6
  -3  -3  -3 13284.7 971.859   1
   3   3   3 12139.1 1031.01   4
   3   3   3 11591.4 1013.23   7
   3   3   3 12032.5 1205.80   2
  -3  -3  -3 11079.0 993.395   2
  -3  -3  -3 12775.2 1184.08   6
  -3  -3  -3 11477.1 586.298   5
  -3  -3  -4-13.3811 63.0155   5
   3   3   4 255.158 200.089   4
   3   3   4-8.09607 224.794   2
  -3  -3  -4 3.37667 55.7209   1
  -3  -3  -4 2.52346 197.179   6
  -3  -3  -5 125270. 3203.69   1
   3   3   5 126606. 3034.29   8
   3   3   5 130694. 4531.97   2
  -3  -3  -5 126167. 3430.37   5
  -3  -3  -6 2448.74 459.480   5
  -3  -3  -6 2582.64 351.512   1
   3   3   6 3320.18 342.185   8
   3   3   6 3289.89 723.812   2
   3   3   6 2497.37 375.803   3
  -3  -3  -6 2483.09 598.812   6
  -3  -3  -7 17232.8 830.764   1
   3   3   7 19077.8 1749.97   2
   3   3   7 17018.2 1000.87   3
  -3  -3  -7 16982.4 1654.04   6
  -3  -3  -8 2903.27 262.491   1
  -3  -3  -8 2989.57 627.710   5
   3   3   8 2634.57 637.213   4
   3   3   8 2707.07 737.453   2
   3   3   8 2659.21 386.587   3
  -3  -3  -8 3062.57 727.163   6
   3   3   9 15024.5 1008.39   3
  -3  -3  -9 17108.7 1844.99   6
  -3  -3  -9 18516.5 1689.79   5
   3   3  10 681.260 433.384   2
  -3  -3 -10 537.618 359.043   6
   3   3  10-110.624 116.596   3
   3   3  11 16717.4 1924.20   2
  -3  -3 -11 20219.1 2179.61   6
   3   3  11 15199.9 1226.23   3
   3   3  12 58.6514 200.913   2
  -3  -3 -12 61.3709 329.018   6
   3   3  13 1939.35 723.625   2
  -3  -3 -13 2211.54 819.383   6
   3   3  14 327.086 372.881   2
  -3  -3 -14-162.618 265.465   6
   3   3  15 909.716 533.845   2
  -3  -3 -15 584.066 507.863   6
  -3  -4  12 250.589 501.722   7
   3   4 -11 329.272 247.729   3
  -3  -4  11 158.369 295.259   7
   3   4 -10 151.201 92.7440   3
  -3  -4  10-3.30555 279.604   7
   3   4  -9 1378.67 511.979   3
  -3  -4   9 1084.17 447.466   1
  -3  -4   9 1148.89 530.348   7
   3   4  -8 943.525 370.747   3
  -3  -4   8 435.197 335.679   7
  -3  -4   8 234.437 212.204   1
   3   4  -7 7080.40 559.553   4
  -3  -4   7 6748.79 926.266   2
   3   4  -7 6030.58 991.215   6
   3   4  -7 7522.47 1097.83   3
  -3  -4   7 7336.03 1100.68   1
  -3  -4   7 4688.73 939.406   7
   3   4  -6 473.571 255.556   5
   3   4  -6 356.038 214.630   3
   3   4  -6 102.956 66.4529   6
   3   4  -6 306.473 135.708   4
  -3  -4   6 131.786 189.022   7
  -3  -4   6 247.920 281.208   1
   3   4  -5 15746.9 899.994   4
  -3  -4   5 15559.7 1322.06   2
  -3  -4   5 14996.3 1468.29   7
   3   4  -5 16158.4 1488.19   6
   3   4  -5 16310.4 1554.58   3
   3   4  -5 15034.3 1343.40   5
  -3  -4   5 16866.9 1560.05   1
   3   4  -4 2846.80 520.983   5
  -3  -4   4 3043.42 554.049   2
   3   4  -4 2512.08 349.488   4
   3   4  -4 1931.33 537.940   3
  -3  -4   4 2339.16 532.100   7
   3   4  -4 3070.45 661.688   1
   3   4  -4 2664.45 571.668   6
  -3  -4   4 1831.08 515.907   1
   3   4  -3 12187.7 828.986   4
   3   4  -3 14739.5 1394.30   1
  -3  -4   3 12341.7 1126.96   7
  -3  -4   3 13195.4 1151.88   2
   3   4  -3 13468.0 1355.25   3
   3   4  -3 11960.4 969.877   5
  -3  -4   3 12789.9 1271.83   1
  -3  -4   2 16170.9 1399.53   1
   3   4  -2 14883.8 1080.58   2
  -3  -4   2 14583.7 1144.53   7
  -3  -4   2 13712.4 1181.66   2
   3   4  -2 16241.7 1455.08   3
   3   4  -2 13899.8 894.451   5
  -3  -4   1 97140.4 3565.17   1
  -3  -4   1 93622.4 3369.82   2
   3   4  -1 98562.6 3213.01   2
   3   4  -1 90312.5 2911.18   7
  -3  -4   1 92568.4 3035.64   7
   3   4  -1 93857.3 2352.05   5
  -3  -4   0 590.873 438.720   2
  -3  -4   0 459.171 199.188   7
  -3  -4   0 969.898 416.825   1
   3   4   0 403.724 180.793   7
   3   4   0 1531.40 500.443   2
  -3  -4   0 541.184 275.420   6
   3   4   1 76.0164 179.197   2
  -3  -4  -1 82.8690 158.923   2
  -3  -4  -1 205.828 175.185   6
  -3  -4  -1 194.448 182.290   1
   3   4   1 100.986 91.8013   7
   3   4   2 3886.30 713.652   2
  -3  -4  -2 4250.57 625.719   1
   3   4   2 3462.48 524.596   7
  -3  -4  -2 4026.51 676.271   6
  -3  -4  -3 55498.5 2339.23   1
   3   4   3 52598.8 2264.11   7
  -3  -4  -3 55072.3 2670.41   6
   3   4   3 54161.4 2872.89   2
  -3  -4  -4 4182.89 699.576   2
   3   4   4 4564.68 705.946   4
  -3  -4  -4 4679.17 625.470   1
   3   4   4 5380.04 887.881   2
   3   4   4 4078.84 533.678   8
  -3  -4  -4 3956.69 712.767   6
  -3  -4  -4 3823.51 391.114   5
   3   4   5 5191.05 781.065   4
  -3  -4  -5 4474.12 586.627   1
   3   4   5 4826.74 876.495   2
   3   4   5 4609.16 522.183   8
  -3  -4  -5 5421.79 859.384   6
  -3  -4  -5 5192.50 568.953   5
  -3  -4  -6 564.935 228.590   5
   3   4   6 487.720 143.757   8
   3   4   6 741.696 330.849   4
  -3  -4  -6 354.506 312.179   6
   3   4   6 150.137 56.7268   3
  -3  -4  -6 556.980 203.459   1
   3   4   7 31779.0 2211.75   4
  -3  -4  -7 30940.6 1487.93   1
   3   4   7 34047.2 2496.24   2
   3   4   7 30434.7 1517.93   3
  -3  -4  -7 32845.5 2413.11   6
  -3  -4  -8 2848.43 631.913   5
  -3  -4  -8 3298.17 440.664   1
   3   4   8 3480.82 825.793   2
   3   4   8 3105.72 450.697   3
  -3  -4  -8 2955.66 744.856   6
  -3  -4  -9 20314.7 1038.60   1
   3   4   9 19912.3 1233.10   3
  -3  -4  -9 19850.0 2083.66   6
  -3  -4  -9 23648.1 1922.40   5
  -3  -4 -10 2751.02 690.500   5
  -3  -4 -10 2480.47 295.830   1
   3   4  10 4677.43 1068.30   2
   3   4  10 3487.04 536.723   3
  -3  -4 -10 3036.14 865.354   6
   3   4  11 1076.80 480.515   2
  -3  -4 -11 2336.57 786.959   6
   3   4  12 1715.78 761.901   2
  -3  -4 -12 735.628 449.015   6
   3   4  13 4612.82 1152.60   2
  -3  -4 -13 3591.79 1009.25   6
   3   4  14 717.981 545.932   2
  -3  -4 -14 396.750 396.610   6
   3   4  15 1909.84 804.811   2
  -3  -4 -15 1136.60 690.852   6
   3   5 -11 382.420 266.988   3
   3   5 -10 123.143 105.911   3
  -3  -5  10 55.1581 97.7231   1
  -3  -5  10 193.279 320.028   7
   3   5  -9 2507.01 659.639   3
  -3  -5   9 1895.01 609.663   1
  -3  -5   9 954.500 508.376   7
   3   5  -8-201.617 237.904   3
  -3  -5   8 297.375 293.290   7
  -3  -5   8 341.809 357.647   1
   3   5  -7 2676.26 648.173   3
   3   5  -7 2992.22 447.526   4
  -3  -5   7 2681.17 690.906   7
   3   5  -7 3901.21 775.564   6
  -3  -5   7 3134.16 749.464   1
   3   5  -6 211.563 155.944   5
   3   5  -6 215.830 209.944   3
   3   5  -6 303.323 160.513   4
  -3  -5   6 15.6894 171.120   7
   3   5  -6-56.0311 138.562   6
  -3  -5   6 601.665 341.265   1
   3   5  -5 8308.55 768.487   4
  -3  -5   5 7711.43 1003.48   7
   3   5  -5 7869.74 1026.78   6
   3   5  -5 8735.87 1182.28   3
   3   5  -5 6834.86 915.936   5
  -3  -5   5 6936.14 1064.98   1
   3   5  -4 120.507 98.5324   5
  -3  -5   4 350.194 204.414   1
   3   5  -4 218.146 125.987   3
   3   5  -4 14.6553 59.4252   4
  -3  -5   4 150.356 101.337   7
   3   5  -4 408.191 230.421   6
  -3  -5   3 15958.0 1546.18   1
   3   5  -3 17150.3 1164.48   4
   3   5  -3 16652.6 1614.16   3
   3   5  -3 16051.6 1172.06   5
  -3  -5   3 16019.6 1235.92   7
  -3  -5   2 3322.46 670.502   1
  -3  -5   2 3507.23 531.036   7
   3   5  -2 3782.29 619.010   2
   3   5  -2 3712.77 489.164   5
  -3  -5   1 14081.7 1371.40   1
   3   5  -1 15954.3 1319.33   2
  -3  -5   1 14307.3 1033.12   7
   3   5  -1 13464.3 994.315   7
   3   5   0 747.201 215.214   7
  -3  -5   0 758.335 323.041   6
   3   5   0 986.763 331.071   2
  -3  -5   0 1055.98 366.378   1
  -3  -5  -1 72155.3 3121.60   1
   3   5   1 68452.6 3223.67   2
   3   5   1 72571.6 2549.97   7
  -3  -5  -1 64217.2 2931.38   6
  -3  -5  -2-268.862 250.730   1
   3   5   2-11.7896 95.0871   8
  -3  -5  -2 120.615 138.883   2
   3   5   2-75.2217 126.185   7
  -3  -5  -2 151.749 150.008   6
   3   5   2-5.69810 64.2988   6
   3   5   2 212.235 314.382   2
  -3  -5  -3 9078.43 1084.42   6
  -3  -5  -3 8795.88 1004.87   1
   3   5   3 9225.79 926.148   8
   3   5   3 7940.38 815.672   7
   3   5   3 8818.61 1185.12   2
  -3  -5  -3 6242.89 921.417   2
   3   5   3 8540.35 920.557   6
  -3  -5  -4 8556.44 1114.05   2
  -3  -5  -4 9422.32 1034.83   1
   3   5   4 9263.04 883.523   8
   3   5   4 10455.4 1326.97   2
  -3  -5  -4 8799.13 1118.13   6
  -3  -5  -4 8415.99 591.188   5
   3   5   5 22627.7 1763.80   4
  -3  -5  -5 22720.4 1596.95   1
   3   5   5 21371.4 1298.05   8
   3   5   5 21203.9 1984.51   2
  -3  -5  -5 23599.4 1864.28   2
  -3  -5  -5 23733.8 1950.68   6
  -3  -5  -5 21630.4 1237.66   5
  -3  -5  -6 2841.65 545.118   1
   3   5   6 2624.23 760.492   2
   3   5   6 1968.54 551.302   4
   3   5   6 2171.73 382.716   8
  -3  -5  -6 2062.10 538.603   2
   3   5   6 1893.14 396.335   3
  -3  -5  -6 2689.09 661.427   6
  -3  -5  -6 1574.01 378.206   5
  -3  -5  -7 48303.6 2244.42   1
   3   5   7 47862.1 3219.67   2
   3   5   7 44667.6 2004.87   3
  -3  -5  -7 49526.4 3162.62   6
  -3  -5  -7 40846.6 2238.95   5
  -3  -5  -8 1079.80 319.407   1
   3   5   8 952.118 407.817   2
  -3  -5  -8 1599.63 562.772   6
   3   5   8 1425.64 350.641   3
  -3  -5  -8 1359.40 411.780   5
  -3  -5  -9 1182.67 318.698   1
   3   5   9 840.413 412.279   2
  -3  -5  -9 732.186 417.344   6
  -3  -5  -9 979.725 353.445   5
   3   5  10-157.522 322.473   2
  -3  -5 -10-22.4007 104.282   1
  -3  -5 -10 188.625 260.418   6
  -3  -5 -10 160.357 247.918   5
  -3  -5 -11 4099.79 506.830   1
   3   5  11 4420.50 1112.49   2
  -3  -5 -11 4405.57 1154.36   6
   3   5  12-175.347 369.533   2
  -3  -5 -12 689.380 410.353   6
   3   5  13 2802.73 918.625   2
  -3  -5 -13 2122.72 829.256   6
   3   5  14 376.901 434.832   2
  -3  -5 -14 957.495 554.937   6
  -3  -6  10-80.7037 167.654   1
   3   6 -10 345.993 299.626   3
   3   6  -9-106.693 239.311   3
  -3  -6   9 538.748 347.298   1
  -3  -6   8 228.790 301.187   1
   3   6  -8 690.335 369.483   3
  -3  -6   8 979.450 452.435   7
   3   6  -7 7861.52 1225.47   3
  -3  -6   7 5729.47 976.044   7
  -3  -6   7 4787.96 981.090   1
   3   6  -6 468.287 311.495   3
  -3  -6   6 306.353 256.457   7
   3   6  -6 104.882 127.019   4
  -3  -6   6-382.153 381.267   1
  -3  -6   5 5320.67 1000.69   2
  -3  -6   5 7057.57 917.720   7
  -3  -6   5 5251.26 988.561   1
   3   6  -5 6383.95 768.086   4
   3   6  -5 6547.89 1107.44   3
   3   6  -5 5560.78 840.123   6
   3   6  -5 6212.56 908.727   5
  -3  -6   4-38.7982 121.083   2
   3   6  -4-262.115 174.456   5
  -3  -6   4-270.748 229.487   1
   3   6  -4 51.4591 140.982   3
   3   6  -4 86.1311 122.394   4
  -3  -6   4-2.20115 138.439   7
   3   6  -4 402.884 235.597   6
  -3  -6   3 7394.25 1117.95   1
   3   6  -3 7146.23 849.744   4
  -3  -6   3 7010.59 766.635   7
  -3  -6   3 7813.94 1160.86   2
   3   6  -3 7179.34 906.667   6
   3   6  -3 8358.53 1189.96   3
   3   6  -3 7321.15 822.553   5
  -3  -6   2-40.0588 178.204   2
  -3  -6   2 112.008 160.653   1
   3   6  -2 61.7001 136.530   2
  -3  -6   2 79.7105 85.7670   7
  -3  -6   1 12886.0 1435.37   1
   3   6  -1 9749.35 1143.78   2
  -3  -6   1 10334.7 1327.93   2
  -3  -6   1 10338.7 884.767   5
  -3  -6   0 606.376 330.359   1
  -3  -6   0 731.478 453.514   2
   3   6   0 181.066 172.428   8
   3   6   0 350.671 166.017   7
  -3  -6   0 92.8021 93.9797   6
   3   6   0 346.313 309.593   2
   3   6   0 152.396 106.080   6
  -3  -6   0 411.747 144.892   5
  -3  -6  -1 49542.1 2808.74   1
   3   6   1 51135.3 2612.54   8
   3   6   1 47835.1 2780.08   2
  -3  -6  -1 43817.8 2741.86   2
  -3  -6  -1 43391.8 2479.03   6
   3   6   1 43903.5 2227.72   6
   3   6   1 47066.6 1884.13   7
  -3  -6  -2 2012.25 572.979   2
   3   6   2 1894.48 471.297   8
   3   6   2 2539.28 436.735   7
  -3  -6  -2 1824.80 517.444   6
  -3  -6  -2 1396.34 427.092   1
   3   6   2 2222.55 470.854   6
   3   6   2 1973.94 601.071   2
   3   6   3 12077.9 1477.51   2
  -3  -6  -3 9170.61 1225.83   2
  -3  -6  -3 13213.4 1376.33   1
   3   6   3 10391.6 1041.58   8
  -3  -6  -3 11521.5 1316.22   6
  -3  -6  -3 10758.0 537.539   5
  -3  -6  -3 11704.6 489.914   5
   3   6   3 10607.8 949.776   7
   3   6   4 3096.01 757.408   2
   3   6   4 3582.82 573.807   8
  -3  -6  -4 3231.41 735.400   2
   3   6   4 2958.79 516.812   7
  -3  -6  -4 2316.84 612.016   6
  -3  -6  -4 2950.15 638.812   1
  -3  -6  -4 3366.11 417.021   5
  -3  -6  -5 45434.4 2543.69   1
   3   6   5 40650.7 1974.49   8
   3   6   5 40044.8 2904.05   2
  -3  -6  -5 43031.5 2799.02   6
  -3  -6  -5 41146.2 1892.69   5
  -3  -6  -5 39037.5 2619.53   2
  -3  -6  -6 343.681 264.182   1
   3   6   6-239.918 346.746   2
  -3  -6  -6 275.579 166.385   6
   3   6   6 141.316 117.050   8
  -3  -6  -6 219.069 141.695   5
   3   6   7 2232.89 714.194   2
  -3  -6  -7 1712.12 642.156   6
  -3  -6  -7 2383.22 542.371   5
   3   6   8 16.0100 235.196   2
  -3  -6  -8 171.402 243.276   6
  -3  -6  -8 26.3277 158.824   5
  -3  -6  -9 14781.5 1980.22   6
  -3  -6  -9 18566.1 1756.68   5
   3   6  10 2328.80 882.800   2
  -3  -6 -10 2878.15 925.379   6
  -3  -6 -10 1704.30 555.458   5
   3   6  11 2592.00 865.334   2
  -3  -6 -11 1607.78 752.206   6
   3   6  12 287.318 460.780   2
  -3  -6 -12 220.334 288.916   6
   3   6  13 1083.52 611.096   2
  -3  -6 -13 1803.95 751.329   6
   3   6  14-163.755 356.970   2
  -3  -6 -14 21.0016 347.682   6
   3   7  -9 356.279 257.822   3
   3   7  -8 106.009 156.989   3
  -3  -7   8 605.528 374.195   1
   3   7  -7 102.139 170.938   3
  -3  -7   7 97.2708 198.267   1
  -3  -7   6-139.067 284.003   1
   3   7  -6-76.2213 212.922   3
  -3  -7   5 7813.67 1262.64   1
   3   7  -5 9434.77 1059.16   4
   3   7  -5 8650.64 1330.89   3
  -3  -7   5 7451.92 853.321   7
   3   7  -4-112.905 150.861   3
  -3  -7   4 71.5917 153.247   1
   3   7  -4 109.949 129.627   4
   3   7  -4 28.7004 117.897   6
  -3  -7   4 18.2740 99.9663   7
  -3  -7   3 5008.43 1023.34   2
  -3  -7   3 6798.30 1145.99   1
   3   7  -3 5998.31 863.322   4
   3   7  -3 6378.03 1116.67   3
   3   7  -3 4260.98 673.969   6
  -3  -7   3 5391.55 599.413   7
  -3  -7   3 4915.68 859.672   5
  -3  -7   2 1121.43 479.925   2
   3   7  -2 1453.46 423.597   4
  -3  -7   2 1397.47 515.264   1
   3   7  -2 1070.24 323.980   6
  -3  -7   2 1123.43 368.582   5
  -3  -7   1 12632.0 1526.04   1
   3   7  -1 11966.8 1366.87   2
  -3  -7   1 12897.2 1601.86   2
   3   7  -1 12124.4 1136.24   6
  -3  -7   1 12972.4 1128.15   5
  -3  -7   0 1396.94 498.702   2
  -3  -7   0 1680.92 572.359   1
  -3  -7   0 1037.90 397.361   6
   3   7   0 1090.01 439.658   2
   3   7   0 1411.32 379.818   6
  -3  -7   0 1238.80 294.558   5
   3   7   1 5314.89 962.097   2
  -3  -7  -1 4951.97 837.992   6
  -3  -7  -1 6915.05 1135.44   1
  -3  -7  -1 5294.65 1017.98   2
   3   7   1 4565.06 479.360   7
   3   7   1 5249.23 723.670   6
  -3  -7  -1 5138.57 470.824   5
  -3  -7  -2 695.173 357.358   1
  -3  -7  -2 209.579 279.001   2
  -3  -7  -2-24.8022 168.207   6
   3   7   2-95.2057 240.648   2
   3   7   2 472.251 181.873   7
  -3  -7  -2 141.263 36.1550   5
  -3  -7  -3 23312.3 2046.93   1
   3   7   3 24008.3 1403.56   7
   3   7   3 21970.0 2171.94   2
  -3  -7  -3 24799.5 2011.42   6
  -3  -7  -3 23111.2 943.431   5
  -3  -7  -4 1193.65 509.978   1
   3   7   4 1162.27 344.410   8
   3   7   4 1240.65 337.756   7
  -3  -7  -4 1690.61 539.276   6
  -3  -7  -4 1128.09 285.184   5
   3   7   4 867.491 503.152   2
   3   7   5 830.925 564.381   2
   3   7   5 1119.72 337.524   8
  -3  -7  -5 428.616 296.530   6
  -3  -7  -5 458.064 180.961   5
  -3  -7  -5 495.725 236.375   1
   3   7   6 4202.69 1044.83   2
   3   7   6 2907.19 537.853   8
  -3  -7  -6 3701.23 778.949   1
  -3  -7  -6 3464.46 849.974   6
  -3  -7  -6 2061.90 476.784   5
   3   7   7 36790.5 3122.52   2
  -3  -7  -7 40922.2 3145.08   6
   3   7   8-63.1459 197.621   2
  -3  -7  -8-90.7579 256.633   6
  -3  -7  -8-72.3685 254.930   5
   3   7   9 10112.8 1688.74   2
  -3  -7  -9 8226.28 1536.15   6
  -3  -7  -9 9698.13 1318.79   5
   3   7  10 766.123 595.304   2
  -3  -7 -10 141.092 256.009   6
   3   7  11 2105.53 787.717   2
  -3  -7 -11 1122.64 643.516   6
   3   7  12-151.787 268.318   2
  -3  -7 -12 61.9568 366.645   6
   3   7  13 1727.10 789.618   2
  -3  -7 -13 537.634 493.825   6
   3   8  -8 24.1890 169.735   3
   3   8  -7 974.173 451.131   3
  -3  -8   7 1031.54 516.949   1
  -3  -8   6 627.684 430.409   1
   3   8  -6 1440.43 572.001   3
   3   8  -5 505.506 332.520   3
  -3  -8   5 662.303 394.148   1
   3   8  -5 527.754 250.612   4
   3   8  -4 395.235 333.602   3
  -3  -8   4 558.403 389.566   1
   3   8  -4 252.001 187.479   4
  -3  -8   4-2.20531 96.8990   5
  -3  -8   3 7517.01 1303.70   1
   3   8  -3 6922.76 1189.37   3
   3   8  -3 5440.09 906.187   4
  -3  -8   3 5536.00 964.662   5
   3   8  -2 892.299 357.728   4
  -3  -8   2 863.731 351.115   5
   3   8  -2 1099.80 330.227   6
  -3  -8   2 562.318 321.119   1
  -3  -8   1 3409.95 878.510   1
   3   8  -1 3476.01 822.231   2
   3   8  -1 3198.97 554.479   6
  -3  -8   1 3786.07 663.373   5
  -3  -8   0 1102.74 480.479   1
  -3  -8   0 1352.80 439.154   6
   3   8   0 1904.02 591.983   2
  -3  -8   0 1719.51 375.860   5
  -3  -8  -1 8876.30 1404.83   1
   3   8   1 8680.27 1354.72   2
  -3  -8  -1 8687.22 1135.25   6
  -3  -8  -1 6678.25 628.459   5
  -3  -8  -2 541.335 178.196   5
  -3  -8  -2 435.785 240.791   1
   3   8   2 401.284 127.985   7
   3   8   2 1146.17 490.781   2
  -3  -8  -2 459.670 303.280   6
  -3  -8  -3 1483.68 269.791   5
   3   8   3 2262.44 384.543   7
  -3  -8  -3 2243.09 681.191   1
  -3  -8  -3 1892.73 563.330   6
   3   8   3 2781.95 775.637   2
  -3  -8  -4 1251.65 268.592   5
  -3  -8  -4 2533.77 760.411   1
   3   8   4 1129.88 304.611   7
  -3  -8  -4 1280.07 516.421   6
   3   8   4 1677.56 647.147   2
  -3  -8  -5 9223.06 1384.87   1
   3   8   5 6672.16 812.545   7
  -3  -8  -5 9149.74 1367.02   6
  -3  -8  -5 6902.68 815.708   5
   3   8   5 8437.68 1429.29   2
  -3  -8  -6-238.113 352.442   1
  -3  -8  -6-28.4755 207.850   6
  -3  -8  -6 487.691 283.667   5
   3   8   6-75.5233 397.038   2
  -3  -8  -7 6466.01 1291.38   6
   3   8   7 7954.99 1485.92   2
  -3  -8  -8 261.757 322.220   6
  -3  -8  -8 196.307 193.498   5
   3   8   9 4989.90 1245.23   2
  -3  -8  -9 3417.61 1100.91   6
   3   8  10-611.807 450.603   2
  -3  -8 -10-66.2450 237.734   6
   3   8  11 1763.77 768.690   2
  -3  -8 -11 1931.20 857.891   6
   3   8  12 179.145 232.463   2
  -3  -8 -12 53.6855 157.588   6
   3   9  -6 84.8694 206.781   3
   3   9  -5-343.669 315.393   3
  -3  -9   5 787.120 510.935   1
   3   9  -4 151.673 166.596   3
   3   9  -4 92.3363 166.940   4
  -3  -9   4-398.230 461.448   1
   3   9  -3 2816.33 833.461   3
   3   9  -3 2498.25 658.515   4
  -3  -9   3 2728.28 854.226   1
   3   9  -2 278.805 251.584   4
  -3  -9   2 601.996 379.803   1
  -3  -9   1 2517.15 807.110   1
   3   9  -1 2153.18 678.071   2
   3   9  -1 1846.32 577.591   4
  -3  -9   0 1296.07 596.091   1
  -3  -9   0 1078.93 393.368   6
   3   9   0 776.347 468.838   2
  -3  -9   0 1695.51 412.996   5
   3   9   1 4825.21 1034.90   2
  -3  -9  -1 4427.62 836.129   6
  -3  -9  -1 4532.33 1078.39   1
  -3  -9  -1 4309.40 585.886   5
  -3  -9  -2 3725.70 968.769   1
  -3  -9  -2 3282.05 754.129   6
   3   9   2 2927.33 850.916   2
  -3  -9  -2 3310.48 456.783   5
   3   9   3 5412.59 1147.50   2
  -3  -9  -3 4778.47 1075.65   1
  -3  -9  -3 5266.59 980.323   6
  -3  -9  -3 5100.54 562.185   5
  -3  -9  -4-14.6053 81.2174   5
  -3  -9  -4-78.9911 235.012   1
  -3  -9  -5 1199.82 335.785   5
  -3  -9  -5 1674.31 612.971   1
  -3  -9  -5 1279.65 557.580   6
   3   9   5 969.441 462.545   2
   3   9   6 6.54910 280.315   2
  -3  -9  -6 501.113 241.454   1
  -3  -9  -7 830.390 524.602   6
   3   9   7 1395.95 721.333   2
  -3  -9  -8 78.1603 179.819   6
   3   9   8 775.673 614.326   2
  -3  -9  -9 2929.51 1027.17   6
   3   9   9 1970.24 784.490   2
  -3  -9 -10-4.27047 143.553   6
   3   9  10 1711.44 829.955   2
   3   9  11-19.5633 393.451   2
  -3  -9 -11 742.537 547.043   6
   3  10  -4 438.335 384.753   3
   3  10  -3 561.927 414.708   3
   3  10  -3 294.319 217.585   4
   3  10  -2-99.7267 126.875   4
  -3 -10   2 517.644 456.330   1
  -3 -10   1 2713.30 904.216   1
   3  10  -1 2816.17 767.439   4
  -3 -10   0 2425.45 865.672   1
   3  10   0 975.038 552.760   2
   3  10   1 2471.06 827.630   2
  -3 -10  -1 2087.89 762.675   1
  -3 -10  -1 1681.55 543.399   6
  -3 -10  -2 366.937 297.842   1
   3  10   2 868.742 529.681   2
  -3 -10  -2 246.342 245.905   6
  -3 -10  -3 2418.75 814.442   1
  -3 -10  -3 2566.51 709.564   6
   3  10   3 2613.33 789.685   2
   3  10   4-115.402 266.849   2
  -3 -10  -4 195.101 261.299   1
  -3 -10  -4 116.567 273.430   6
  -3 -10  -5 1133.02 564.379   6
  -3 -10  -5 1277.30 614.499   1
   3  10   5 1239.27 609.548   2
  -3 -10  -6 600.724 436.696   6
   3  10   6 634.097 413.605   2
  -3 -10  -6 320.322 356.213   1
  -3 -10  -7 2123.43 797.706   1
  -3 -10  -7 1525.89 691.015   6
   3  10   7 2875.97 946.883   2
  -3 -10  -8 520.051 407.761   6
   3  10   8 570.808 502.999   2
  -3 -10  -9 1296.31 698.069   6
   3  10   9 1352.46 690.001   2
  -3 -10 -10 70.3628 190.482   6
   3  11  -2 197.916 164.071   4
   3  11  -1-45.6111 289.943   4
   3  11   0-208.880 255.097   4
   3  11   1 1241.15 560.493   2
  -3 -11  -1 505.871 405.370   1
   3  11   2 350.912 346.743   2
  -3 -11  -2 140.517 223.832   1
  -3 -11  -3 984.848 587.879   1
   3  11   3 823.518 517.424   2
  -3 -11  -3 1149.24 505.244   6
  -3 -11  -4 348.588 358.299   1
  -3 -11  -4 380.958 304.966   6
   3  11   4-272.568 390.121   2
  -3 -11  -5 1589.68 733.399   1
  -3 -11  -5 1780.93 690.551   6
   3  11   5 2445.97 885.910   2
  -3 -11  -6 204.661 105.552   6
   3  11   6-47.1085 240.135   2
  -3 -11  -7 569.368 350.579   6
  -3 -11  -7 1141.47 632.834   1
  -3 -11  -8 189.714 349.284   1
  -3 -11  -8-46.1979 365.238   6
  -3 -11  -9 1098.81 623.406   1
  -3 -11  -9 1025.92 701.447   6
  -3 -12  -7 1878.11 816.192   6
  -3 -12  -8 88.9707 149.926   6
  -4  10   4 1365.02 625.180   4
  -4  10   3 226.674 222.699   4
   4 -10  -1 132.550 260.859   5
   4 -10   1 284.773 301.411   8
  -4   9   9 584.314 410.752   4
  -4   9   9 350.538 328.165   7
  -4   9   8 2132.43 765.900   7
  -4   9   8 819.520 501.639   4
  -4   9   7 163.652 328.959   7
  -4   9   7-385.012 335.172   4
  -4   9   6 1921.59 683.583   7
  -4   9   6 1256.50 634.380   4
   4  -9  -5 151.734 150.364   8
  -4   9   5 195.390 206.835   4
  -4   9   4 3052.76 922.610   4
   4  -9  -4 2141.02 694.915   8
  -4   9   4 2202.46 670.831   7
   4  -9  -3 476.149 372.372   8
  -4   9   3 130.219 79.0416   7
  -4   9   3 58.7366 112.668   4
   4  -9  -2 2149.80 756.225   8
  -4   9   2 2736.11 848.695   4
   4  -9  -1-211.561 463.514   5
  -4   9   1 345.645 309.573   4
   4  -9  -1-132.117 292.212   8
   4  -9   0 1075.48 625.279   5
  -4   9   0 1177.06 541.847   4
   4  -9   0 288.679 272.970   8
   4  -9   1 50.9031 197.494   5
  -4   9  -1-78.7062 272.165   4
   4  -9   1-35.0155 283.341   8
   4  -9   2 4135.43 1126.08   5
  -4   9  -2 3068.92 925.498   4
   4  -9   2 3648.85 918.914   8
   4  -9   3 301.386 358.622   5
   4  -9   3 290.973 334.924   8
  -4   9  -3 101.945 195.436   4
   4  -9   4 1628.36 628.302   5
   4  -9   4 1429.95 613.785   8
  -4   8   9 205.202 219.195   7
  -4   8   9 5.87555 183.140   4
  -4   8   8 441.024 328.617   4
  -4   8   8 104.705 236.128   7
   4  -8  -8 559.780 330.174   3
  -4   8   7-146.046 207.638   4
   4  -8  -7-135.796 147.920   3
  -4   8   7 280.176 265.532   7
  -4   8   6 2154.06 691.533   7
  -4   8   6 3770.35 967.400   4
   4  -8  -6 2591.88 658.019   3
  -4   8   5 712.082 434.241   4
  -4   8   5 392.751 311.298   7
   4  -8  -5-83.6499 185.463   3
   4  -8  -4 5647.40 1084.98   8
  -4   8   4 4360.69 928.592   7
  -4   8   4 5133.05 1119.70   4
   4  -8  -3 1339.09 553.365   8
  -4   8   3 719.452 507.222   4
  -4   8   3 1373.08 511.736   7
   4  -8  -2 2272.96 665.489   8
  -4   8   2 1719.42 652.637   4
  -4   8   2 1854.73 571.624   7
   4  -8  -1 1035.42 476.794   8
  -4   8   1 1099.76 448.188   7
  -4   8   1 1202.16 528.692   4
  -4   8   0 12857.8 1757.70   4
   4  -8   0 10635.8 1496.85   8
   4  -8   0 13865.5 2026.37   5
   4  -8   1 241.422 334.425   5
   4  -8   1 11.4664 139.829   8
  -4   8  -1-460.001 393.149   4
   4  -8   2 7966.88 1491.54   5
  -4   8  -2 8255.70 1410.64   4
   4  -8   2 8051.27 1291.46   8
   4  -8   3-29.0694 158.979   5
   4  -8   3-128.028 254.858   8
  -4   8  -3-87.7691 163.541   4
   4  -8   4 1735.44 711.218   5
  -4   8  -4 2406.10 797.602   4
   4  -8   4 2991.88 805.107   8
   4  -8   5-531.611 434.840   5
  -4   8  -5-199.800 236.135   4
   4  -8   5 142.265 156.337   8
   4  -8   6 4854.49 1189.84   5
  -4   8  -6 4288.93 1056.64   4
  -4   7  10 130.300 294.968   7
  -4   7   9 758.747 440.023   4
  -4   7   9 173.850 218.637   7
   4  -7  -9 201.125 230.866   3
  -4   7   8 1455.25 661.875   7
  -4   7   8 2588.41 761.494   4
   4  -7  -8 1790.19 539.879   3
  -4   7   7-59.6768 144.793   7
  -4   7   7 118.243 217.142   4
   4  -7  -7-164.794 179.534   3
  -4   7   6 2006.60 645.668   4
  -4   7   6 1450.29 593.883   7
   4  -7  -6 1894.61 494.764   3
  -4   7   5-141.684 241.492   4
   4  -7  -5-210.803 207.619   3
  -4   7   5 262.669 168.086   7
  -4   7   4 5179.58 1038.84   4
  -4   7   4 5814.57 1071.35   7
   4  -7  -4 5641.30 847.424   3
  -4   7   3 98.0152 114.029   7
  -4   7   3 210.104 272.777   4
   4  -7  -3-351.065 304.548   3
  -4   7   2 27970.9 2433.78   4
  -4   7   2 23805.0 2054.84   7
  -4   7   1 301.352 83.9959   3
   4  -7  -1 34.7709 225.339   8
  -4   7   1-40.0043 144.418   4
  -4   7   1 380.581 284.839   7
  -4   7   0 4347.09 744.031   3
   4  -7   0 4825.66 1120.75   5
   4  -7   0 4046.45 899.598   8
  -4   7   0 5162.77 1032.94   4
   4  -7   0 3680.76 676.514   7
  -4   7   0 3880.17 770.734   7
  -4   7  -1 88.5609 128.103   3
   4  -7   1 592.675 449.863   5
   4  -7   1 188.002 114.101   8
  -4   7  -1 492.510 386.288   4
   4  -7   1 126.546 101.841   7
   4  -7   1 269.888 174.681   6
  -4   7  -2 9297.93 1397.62   4
   4  -7   2 10579.5 1351.13   8
   4  -7   2 7339.42 911.230   7
   4  -7   2 9068.76 1528.96   5
   4  -7   3 163.500 423.898   5
   4  -7   3-234.538 260.879   8
  -4   7  -3 172.176 143.527   4
   4  -7   3-166.386 179.942   7
   4  -7   4 9238.13 1544.17   5
  -4   7  -4 7450.92 1312.27   4
   4  -7   4 9152.82 1264.08   8
   4  -7   5-664.491 525.021   5
   4  -7   5-235.478 199.622   8
  -4   7  -5-89.1945 177.558   4
   4  -7   6 7065.82 1391.63   5
  -4   7  -6 7651.60 1334.83   4
   4  -7   7-19.3110 182.711   5
  -4   7  -7 205.529 241.362   4
  -4   7  -8 9614.08 1586.71   4
   4  -7   8 11009.7 1880.86   5
  -4   6  10 816.280 562.107   7
   4  -6 -10 923.875 382.531   3
  -4   6   9 82.0360 240.679   7
   4  -6  -9 395.113 285.780   3
  -4   6   8 822.941 464.053   7
  -4   6   8 575.924 323.457   4
   4  -6  -8 416.130 250.619   3
  -4   6   7 720.942 417.314   4
  -4   6   7 405.147 246.647   7
   4  -6  -7 550.576 287.923   3
  -4   6   6 1828.92 643.972   7
  -4   6   6 1624.72 537.584   4
   4  -6  -6 2500.03 538.205   3
   4  -6  -5 342.316 323.074   2
  -4   6   5 455.557 322.541   7
  -4   6   5 642.352 341.346   4
   4  -6  -5 505.358 225.124   3
   4  -6  -4 20476.8 1858.53   2
  -4   6   4 21349.2 2001.96   4
  -4   6   4 18035.5 1890.07   7
   4  -6  -4 23209.0 1580.27   3
  -4   6   3 12.4256 173.681   4
  -4   6   3 132.670 166.294   7
   4  -6  -3-220.540 208.977   3
  -4   6   2 895.408 431.559   3
  -4   6   2 383.660 254.351   4
  -4   6   2 313.738 233.707   7
   4  -6  -2 772.489 271.957   3
  -4   6   1 284.406 220.918   3
  -4   6   1-56.0711 144.055   7
   4  -6  -1 255.265 188.670   7
   4  -6  -1-61.5129 200.553   3
  -4   6   1-159.219 236.819   4
  -4   6   0 5854.72 945.702   7
   4  -6   0 5961.47 838.672   7
  -4   6   0 5496.94 812.216   3
  -4   6   0 5805.50 1008.56   4
   4  -6   1-27.8013 257.769   5
   4  -6   1 60.5280 94.2036   7
   4  -6   1 73.2753 90.5077   8
  -4   6  -1-14.4275 116.215   4
   4  -6   1 91.4374 111.377   6
  -4   6  -2 18166.3 1871.02   4
   4  -6   2 19881.7 1737.71   8
   4  -6   2 19869.7 1573.66   7
   4  -6   2 18745.2 1359.78   6
   4  -6   2 20836.7 2199.36   5
  -4   6  -3-15.4684 75.1759   3
  -4   6  -3-100.504 250.706   4
   4  -6   3-225.902 273.163   5
   4  -6   3-14.8505 63.9740   6
   4  -6   3-40.5125 175.007   8
   4  -6   3-31.3277 114.143   7
  -4   6  -4 11323.3 1505.01   4
   4  -6   4 9664.74 1197.29   8
   4  -6   4 10609.9 1209.43   7
   4  -6   4 10833.7 1597.65   5
  -4   6  -4 10750.0 708.186   3
   4  -6   5-441.962 338.995   5
   4  -6   5-53.0832 175.267   8
  -4   6  -5 214.042 217.019   4
   4  -6   5 30.0541 189.857   7
   4  -6   6 6460.60 983.583   8
  -4   6  -6 8342.84 1329.04   4
   4  -6   6 7781.59 1385.55   5
   4  -6   7 179.380 146.299   5
  -4   6  -7 242.455 315.334   4
  -4   6  -8 13345.3 1797.38   4
   4  -6   8 16914.4 2165.51   5
   4  -6   9 269.726 446.810   5
  -4   6  -9-403.953 221.681   4
  -4   5  10 34.9491 217.219   7
   4  -5 -10 611.878 330.287   3
  -4   5   9 460.973 308.975   7
   4  -5  -9 183.147 248.838   3
  -4   5   8 3397.42 781.821   4
  -4   5   8 4543.87 1081.92   7
   4  -5  -8 4788.76 746.262   3
  -4   5   7 383.012 288.235   4
   4  -5  -7 571.829 282.127   3
   4  -5  -6 1843.88 514.409   2
  -4   5   6 1151.93 474.612   7
  -4   5   6 2359.48 624.110   4
   4  -5  -6 2578.28 515.372   3
   4  -5  -5 1630.84 510.228   2
  -4   5   5 1474.92 522.107   4
  -4   5   5 1379.25 519.669   7
   4  -5  -5 1923.90 439.960   3
   4  -5  -4 1688.63 493.565   2
  -4   5   4 877.239 390.540   4
  -4   5   4 1306.02 493.459   7
   4  -5  -4 1903.76 410.006   3
  -4   5   3 33.5820 115.498   3
  -4   5   3 148.839 224.040   4
  -4   5   3 142.796 233.463   7
   4  -5  -3 521.675 227.538   3
   4  -5  -3 466.490 266.286   2
  -4   5   2 27285.9 2110.24   4
   4  -5  -2 26151.5 1884.11   7
   4  -5  -2 27666.5 1507.04   3
  -4   5   2 26465.5 2074.79   7
  -4   5   2 25389.9 1956.21   3
   4  -5  -2 28444.2 2035.52   2
  -4   5   1 125.609 132.581   3
  -4   5   1-172.335 275.112   4
  -4   5   1 1.66523 112.585   7
   4  -5  -1 295.934 209.702   7
   4  -5  -1 6.53925 89.4958   2
   4  -5  -1-130.128 151.422   3
  -4   5   0 10643.3 1320.65   4
   4  -5   0 12673.5 1362.68   2
   4  -5   0 12178.2 1167.67   7
  -4   5   0 14452.8 1457.11   7
   4  -5   0 13564.4 984.358   3
  -4   5  -1 131.258 116.267   3
   4  -5   1-187.664 306.795   5
  -4   5  -1 41.4445 159.442   7
   4  -5   1-380.036 249.173   7
   4  -5   1-93.2015 91.8790   6
   4  -5   1-29.5645 103.661   2
   4  -5   2 9002.22 1063.28   7
  -4   5  -2 7066.36 1093.30   4
   4  -5   2 9600.08 970.855   6
   4  -5   2 8713.20 1078.06   8
  -4   5  -2 5877.16 653.710   3
   4  -5   2 7430.35 1220.06   5
  -4   5  -3 1089.71 244.843   3
   4  -5   3 1546.99 599.000   5
  -4   5  -3 1201.35 461.784   4
   4  -5   3 1083.53 441.523   7
   4  -5   3 1543.60 423.865   8
   4  -5   3 1286.25 339.064   6
  -4   5  -4 12740.4 657.925   3
  -4   5  -4 13429.4 1536.11   4
   4  -5   4 12168.3 1206.42   8
   4  -5   4 12696.5 1326.78   7
   4  -5   4 11976.3 911.471   6
   4  -5   4 12499.5 1613.23   5
   4  -5   5-54.3469 159.253   5
   4  -5   5-226.841 260.523   8
  -4   5  -5 10.1739 274.696   4
   4  -5   5-26.6458 89.6571   7
   4  -5   5-93.8091 100.520   6
   4  -5   6 712.905 376.401   5
   4  -5   6 525.802 229.099   8
  -4   5  -6 186.595 114.989   4
   4  -5   6 617.409 350.125   7
   4  -5   7-223.024 285.375   5
  -4   5  -7-482.565 375.457   4
   4  -5   8 6580.98 1287.09   5
  -4   5  -8 5764.01 1108.94   4
   4  -5   9 158.816 286.261   5
  -4   5  -9-141.720 245.352   4
  -4   5 -10 11933.4 1656.05   4
   4  -5  10 10539.8 1801.06   5
  -4   5 -11-245.753 346.903   4
  -4   4  11-158.264 223.582   7
   4  -4 -11 245.708 222.729   3
  -4   4  10 1113.91 589.057   7
   4  -4 -10 2665.22 597.900   3
  -4   4   9-370.308 435.108   7
   4  -4  -9 305.131 216.062   3
  -4   4   8 3355.07 682.109   4
  -4   4   8 3055.58 960.422   7
   4  -4  -8 3016.21 592.206   3
   4  -4  -7 215.102 191.839   2
  -4   4   7 607.816 258.545   7
   4  -4  -7 686.814 315.686   3
  -4   4   7 849.464 379.994   4
  -4   4   6 421.105 262.743   4
   4  -4  -6 305.178 196.403   2
  -4   4   6 321.349 329.231   7
   4  -4  -6 375.497 232.681   3
  -4   4   5 1474.20 474.910   4
   4  -4  -5 1627.71 452.711   2
  -4   4   5 1062.73 510.184   7
   4  -4  -5 1901.05 449.722   3
  -4   4   4 33154.0 2131.71   4
   4  -4  -4 30548.5 1893.49   2
  -4   4   4 30796.6 2390.89   7
   4  -4  -4 32873.0 1692.73   3
  -4   4   3 1715.40 528.546   3
  -4   4   3 1711.29 479.161   4
  -4   4   3 1966.37 600.030   7
   4  -4  -3 1998.38 391.132   3
   4  -4  -3 2104.19 485.764   2
  -4   4   2 16112.5 1481.44   4
   4  -4  -2 17290.1 1421.60   2
  -4   4   2 14246.8 1489.86   7
   4  -4  -2 16943.4 1482.79   7
   4  -4  -2 18069.8 1117.02   3
  -4   4   2 15143.2 1450.23   3
  -4   4   1 316.851 167.113   3
  -4   4   1 313.343 131.981   7
   4  -4  -1 220.738 152.030   7
   4  -4  -1 682.453 297.994   2
   4  -4  -1 555.789 202.110   3
  -4   4   1 329.116 177.374   4
  -4   4   0 857.474 335.126   7
   4  -4   0 1277.66 375.824   7
   4  -4   0 1081.93 348.421   2
   4  -4   0 1552.63 292.554   3
  -4   4   0 824.913 345.514   4
  -4   4  -1 3114.87 669.080   4
  -4   4  -1 3339.02 690.568   7
   4  -4   1 3924.45 444.337   3
   4  -4   1 3249.70 589.332   6
   4  -4   1 2973.00 597.209   7
  -4   4  -1 3982.20 557.145   3
   4  -4   1 3144.41 640.998   2
  -4   4  -2 21389.9 1796.31   4
   4  -4   2 25323.4 1855.00   4
   4  -4   2 23359.3 1832.77   2
   4  -4   2 23322.6 1735.25   7
   4  -4   2 23994.5 1113.86   3
   4  -4   2 22838.6 1548.03   6
  -4   4  -2 24584.6 1271.53   3
   4  -4   2 23376.9 2050.26   5
   4  -4   3 285.885 324.745   5
  -4   4  -3 92.9520 89.8238   3
   4  -4   3-54.6011 91.9566   8
   4  -4   3 59.8630 97.3012   7
   4  -4   3 72.6342 135.232   4
   4  -4   3 159.522 115.070   6
  -4   4  -3 547.196 309.263   4
   4  -4   4 5093.46 970.668   5
  -4   4  -4 5733.16 952.966   4
   4  -4   4 6675.85 797.771   8
   4  -4   4 6851.43 954.791   7
   4  -4   4 5902.69 683.800   6
  -4   4  -4 5582.95 317.405   3
   4  -4   5 256.695 185.336   5
   4  -4   5-79.4509 73.2301   8
  -4   4  -5-21.9428 156.229   4
   4  -4   5 53.3122 58.0235   6
   4  -4   5-76.8281 126.356   7
   4  -4   6 3906.85 882.122   5
   4  -4   6 4320.85 645.404   8
  -4   4  -6 4027.43 864.992   4
   4  -4   6 4148.36 795.628   7
   4  -4   7-13.9127 115.066   5
  -4   4  -7-410.198 375.093   4
   4  -4   7 4.40817 143.011   8
   4  -4   8 5054.35 1090.07   5
  -4   4  -8 4099.12 886.710   4
   4  -4   9 285.457 337.078   5
   4  -4   9 33.3151 73.2682   1
  -4   4  -9-72.2501 173.751   4
  -4   4 -10 6012.94 1128.42   4
   4  -4  10 5648.66 1271.58   5
  -4   4 -11-48.9223 248.999   4
   4  -4  11 492.178 460.452   5
  -4   4 -12 657.707 393.448   4
  -4   3  11-1000.92 577.931   7
   4  -3 -11 710.207 316.339   3
  -4   3  10 851.946 566.863   7
   4  -3 -10 940.694 378.361   3
  -4   3   9 300.016 179.273   4
  -4   3   9 195.709 142.745   7
   4  -3  -9 446.107 318.915   3
  -4   3   8 5148.54 744.178   4
  -4   3   8 7627.11 1391.42   7
   4  -3  -8 8316.26 973.041   3
  -4   3   7-97.3559 131.966   4
  -4   3   7-114.845 356.235   7
   4  -3  -7 198.149 121.400   3
  -4   3   6 27575.5 2441.28   7
   4  -3  -6 23223.7 1313.81   2
   4  -3  -6 24887.5 1577.98   3
   4  -3  -5 6433.84 729.411   2
  -4   3   5 3785.93 637.632   4
  -4   3   5 5213.59 999.379   7
   4  -3  -5 5651.79 716.888   3
   4  -3  -4 1848.73 404.297   2
  -4   3   4 1908.53 579.194   3
  -4   3   4 2126.22 467.788   4
  -4   3   4 2820.76 731.437   7
   4  -3  -4 2180.32 430.783   3
  -4   3   3-124.469 126.883   3
  -4   3   3-8.23242 77.2941   4
  -4   3   3 229.950 287.122   7
   4  -3  -3 148.644 155.289   7
   4  -3  -3 117.057 114.932   2
   4  -3  -3-31.3056 88.4140   3
  -4   3   2 33376.7 1956.49   4
   4  -3  -2 32154.8 1745.63   2
  -4   3   2 31308.7 2189.80   7
   4  -3  -2 31204.6 1992.86   7
   4  -3  -2 33672.4 1557.52   3
  -4   3   2 34612.4 2167.20   3
  -4   3   1 218.257 217.619   7
  -4   3   1 523.712 274.536   4
   4  -3  -1 208.742 137.281   2
   4  -3  -1 375.388 157.514   3
   4  -3  -1 116.716 92.6976   7
   4  -3   0 79688.4 2287.48   3
  -4   3   0 72632.9 3101.86   4
   4  -3   0 78239.8 3030.15   2
  -4   3   0 85090.2 3562.84   7
   4  -3   0 78204.7 3266.82   7
  -4   3   0 85427.7 3014.21   3
  -4   3  -1-46.0249 90.3211   3
  -4   3  -1 15.5814 185.411   4
  -4   3  -1-70.4256 163.109   7
   4  -3   1 117.596 152.981   7
   4  -3   1 134.345 184.073   4
   4  -3   1 84.0675 104.879   6
   4  -3   1 50.6539 67.3341   3
   4  -3   2 126.528 177.050   5
  -4   3  -2 165.905 101.763   3
  -4   3  -2-93.4230 199.317   4
   4  -3   2 11.8404 106.483   4
   4  -3   2 250.226 216.841   7
   4  -3   2 230.727 182.982   6
   4  -3   2 165.080 95.2289   3
   4  -3   3 120.492 221.183   5
  -4   3  -3-39.9263 52.7203   3
  -4   3  -3 100.555 95.8824   4
   4  -3   3-88.0019 150.479   7
   4  -3   3-141.807 203.046   4
   4  -3   3 65.3086 119.556   6
   4  -3   3 2.68158 40.5152   3
  -4   3  -4 39828.2 2438.55   4
   4  -3   4 37831.4 2345.07   4
   4  -3   4 40661.2 1960.82   6
   4  -3   4 38355.9 2319.81   7
   4  -3   4 39117.1 2563.70   5
   4  -3   5 1629.40 542.161   5
   4  -3   5 1356.46 437.382   7
  -4   3  -5 1678.04 511.431   4
   4  -3   5 1039.75 295.469   8
   4  -3   5 1470.77 345.485   6
  -4   3  -6 13465.4 1466.33   4
   4  -3   6 12884.6 974.287   8
   4  -3   6 12421.4 1379.14   7
   4  -3   6 11590.2 1422.41   5
   4  -3   7 378.807 301.865   5
  -4   3  -7-125.710 248.670   4
   4  -3   7-71.6178 123.878   8
   4  -3   7 35.7217 113.507   7
  -4   3  -7 337.499 205.100   6
   4  -3   8 6207.78 1168.76   5
  -4   3  -8 7597.99 1148.64   4
  -4   3  -8 6452.38 788.195   6
  -4   3  -9-187.855 243.900   4
   4  -3   9-3.89064 48.2095   1
  -4   3  -9-379.073 201.130   6
  -4   3 -10 5077.13 1003.09   4
  -4   3 -10 3916.51 647.709   6
   4  -3  10 3856.85 973.819   5
  -4   3 -11-111.878 252.160   4
   4  -3  11 97.6893 205.929   5
  -4   3 -12 1306.76 473.106   4
   4  -3  12 2968.04 1044.16   5
  -4   2  11-562.513 452.742   7
   4  -2 -11-58.1515 100.790   3
  -4   2  10 1372.51 690.256   7
   4  -2 -10 1685.65 470.922   3
  -4   2   9 601.143 414.477   7
   4  -2  -9 330.941 250.691   3
  -4   2   8 4722.35 481.710   4
  -4   2   8 3474.32 477.476   4
   4  -2  -8 5733.16 830.019   3
  -4   2   8 5590.24 1227.27   7
  -4   2   7 6094.06 558.370   4
  -4   2   7 4139.90 549.440   4
  -4   2   7 7077.41 1266.34   7
   4  -2  -7 7644.57 928.539   3
  -4   2   6 6644.70 681.230   4
  -4   2   6 7939.20 1285.10   7
   4  -2  -6 8371.56 932.460   3
   4  -2  -5 1246.73 347.095   3
  -4   2   5 567.753 379.320   7
  -4   2   5 1266.10 301.944   4
   4  -2  -5 1587.46 257.372   2
  -4   2   4 35866.9 1699.94   4
  -4   2   4 32351.7 2431.30   7
   4  -2  -4 33290.3 1466.12   2
   4  -2  -4 37775.2 1866.90   3
  -4   2   4 34844.6 2422.20   3
   4  -2  -3 627.983 221.775   3
  -4   2   3 702.098 323.133   3
  -4   2   3 832.416 239.701   4
  -4   2   3 1315.07 454.990   7
   4  -2  -3 1197.16 415.417   7
   4  -2  -3 880.509 243.809   2
  -4   2   2 62561.7 2424.25   4
   4  -2  -2 56919.1 2139.09   2
  -4   2   2 61350.8 3054.14   7
   4  -2  -2 59756.9 2823.60   7
   4  -2  -2 65113.8 2314.22   3
  -4   2   2 64758.9 2971.39   3
   4  -2  -1 158.588 92.5445   3
  -4   2   1 42.6300 101.126   4
  -4   2   1-263.925 282.740   7
   4  -2  -1 135.054 142.341   7
   4  -2  -1-8.82738 75.9035   2
   4  -2   0 15543.8 1357.93   7
  -4   2   0 12486.9 1080.08   4
   4  -2   0 12241.5 1013.71   4
  -4   2   0 11818.3 1233.85   7
   4  -2   0 12887.3 1230.18   6
   4  -2   0 14091.2 876.129   3
  -4   2   0 12973.2 1055.54   3
  -4   2  -1 69.6281 115.160   3
  -4   2  -1 45.4067 81.4367   4
  -4   2  -1 66.1253 101.278   7
   4  -2   1-92.1879 163.908   7
   4  -2   1-27.4833 145.407   6
   4  -2   1-65.1858 78.1926   4
   4  -2   1 110.947 78.2522   3
  -4   2  -2 85749.8 3451.35   7
  -4   2  -2 87138.4 3271.86   4
   4  -2   2 83670.8 3155.13   4
   4  -2   2 85304.0 3448.94   7
   4  -2   2 82057.5 3191.59   6
   4  -2   2 84166.3 2106.40   3
  -4   2  -2 79045.8 2426.10   3
   4  -2   2 86594.8 3540.18   5
  -4   2  -3 8508.34 1001.86   4
   4  -2   3 7062.70 879.319   4
   4  -2   3 7006.14 929.691   7
   4  -2   3 7021.55 409.125   3
   4  -2   3 7356.57 856.064   6
   4  -2   3 7313.24 978.219   5
  -4   2  -4 46116.1 2434.41   4
   4  -2   4 44660.7 2415.19   4
   4  -2   4 40819.0 2044.63   6
   4  -2   4 41197.4 2407.22   7
   4  -2   4 45537.4 2575.21   5
   4  -2   5-122.749 234.289   5
  -4   2  -5-12.9041 98.1248   4
   4  -2   5 37.3020 107.528   8
   4  -2   5-74.7347 185.923   4
   4  -2   5-132.055 180.497   7
  -4   2  -5 198.896 171.124   6
   4  -2   5-55.9837 64.2500   6
  -4   2  -6 16334.5 1519.13   4
   4  -2   6 13533.7 877.453   8
  -4   2  -6 13915.9 1201.68   6
   4  -2   6 14818.3 1123.17   6
   4  -2   6 13702.4 1450.59   5
  -4   2  -6 15347.6 1588.29   5
   4  -2   6 14100.3 1467.77   7
   4  -2   7 136.292 168.932   5
  -4   2  -7-271.839 311.929   4
   4  -2   7-81.5706 131.702   8
  -4   2  -7-92.7616 81.6966   6
   4  -2   8 3809.66 857.275   5
  -4   2  -8 5722.13 968.189   4
  -4   2  -8 5274.57 771.698   6
   4  -2   9 7.89363 30.3171   1
  -4   2  -9-216.638 226.254   4
  -4   2  -9 142.232 165.172   6
   4  -2   9-199.641 286.483   5
  -4   2 -10 14258.1 1636.33   4
  -4   2 -10 14724.5 1418.96   6
   4  -2  10 14427.0 1871.85   5
  -4   2 -11 248.398 247.278   4
  -4   2 -11 319.307 227.421   6
   4  -2  11 504.524 457.796   5
  -4   2 -12 3295.20 836.539   4
  -4   2 -12 4032.02 793.846   6
   4  -2  12 3508.25 1077.16   5
  -4   2 -13 49.4300 157.141   4
   4  -2  13-223.685 360.134   5
  -4   1  11 195.721 351.701   7
   4  -1 -11 507.182 274.574   3
  -4   1  10 484.185 415.526   7
   4  -1 -10 715.911 355.192   3
  -4   1   9-813.849 484.549   7
   4  -1  -9 183.104 222.611   3
   4  -1  -8 5447.93 815.947   3
  -4   1   8 2854.39 878.952   7
   4  -1  -7-397.264 301.287   3
  -4   1   7-59.7444 313.545   7
  -4   1   6 13113.2 1695.70   7
   4  -1  -6 14607.9 1276.77   3
   4  -1  -5 2515.77 495.087   3
  -4   1   5 2718.28 247.167   4
  -4   1   5 2849.50 264.675   4
  -4   1   5 2684.26 766.168   7
   4  -1  -4 2024.02 440.615   3
  -4   1   4 2229.62 574.169   3
  -4   1   4 1905.90 251.491   4
   4  -1  -4 1576.72 455.959   1
  -4   1   4 1998.18 587.272   7
  -4   1   3 5787.59 929.068   7
  -4   1   3 6982.03 578.453   4
   4  -1  -3 6823.54 469.629   2
  -4   1   3 7247.02 1000.64   3
   4  -1  -3 7733.63 816.246   3
  -4   1   2 28827.0 1334.77   4
   4  -1  -2 26645.1 1150.01   2
  -4   1   2 27776.2 1975.31   7
   4  -1  -2 29100.4 1540.56   3
  -4   1   2 28393.9 1873.37   3
   4  -1  -1 861.869 262.006   3
  -4   1   1 651.959 345.289   7
   4  -1  -1 816.176 226.375   4
  -4   1   1 714.052 214.362   4
  -4   1   0 226691. 5232.11   4
   4  -1   0 215672. 5005.15   4
  -4   1   0 217949. 6082.68   7
   4  -1   0 216531. 6005.45   6
   4  -1   0 213365. 4832.67   3
  -4   1   0 203624. 5269.07   3
  -4   1  -1 18267.4 1246.23   4
   4  -1   1 18552.1 1219.98   4
  -4   1  -1 17287.8 1446.59   7
   4  -1   1 17092.7 1405.36   6
   4  -1   1 17656.3 999.199   3
  -4   1  -1 17569.9 1145.39   3
  -4   1  -2 69894.4 2698.37   4
   4  -1   2 66338.8 2615.18   4
  -4   1  -2 69489.5 3062.07   7
   4  -1   2 70022.8 2936.21   6
   4  -1   2 69491.5 2002.17   3
   4  -1   2 70758.6 2916.51   5
   4  -1   3 190.330 81.2767   3
   4  -1   3 372.752 254.536   5
  -4   1  -3 290.594 170.468   4
   4  -1   3 391.786 180.037   4
   4  -1   3 415.078 190.340   6
   4  -1   3 374.941 255.879   7
   4  -1   4 2983.71 573.501   4
   4  -1   4 2834.70 591.809   5
  -4   1  -4 2868.39 539.035   4
   4  -1   4 2843.80 625.260   7
   4  -1   4 3204.52 263.775   3
  -4   1  -4 3139.40 549.884   6
   4  -1   4 3251.31 560.069   6
   4  -1   5 640.356 277.831   5
   4  -1   5 1241.18 403.791   4
  -4   1  -5 1003.26 322.079   4
   4  -1   5 1040.13 347.408   7
  -4   1  -5 517.943 254.508   6
   4  -1   5 362.964 191.774   6
  -4   1  -6 9019.60 1063.80   4
   4  -1   6 10196.9 1191.91   4
   4  -1   6 10002.4 624.076   8
  -4   1  -6 9710.34 1060.73   6
   4  -1   6 10197.4 972.593   6
   4  -1   6 10081.8 1172.46   5
  -4   1  -6 10111.1 1213.46   5
   4  -1   7 893.257 373.262   5
  -4   1  -7 1283.16 471.828   5
  -4   1  -7 1200.00 427.250   4
   4  -1   7 1401.44 201.536   8
  -4   1  -7 2097.61 508.055   6
   4  -1   7 1488.70 210.007   1
  -4   1  -8 24750.1 1973.74   4
  -4   1  -8 27189.4 1916.23   6
   4  -1   8 24023.6 2096.63   5
  -4   1  -9 1172.92 460.542   4
  -4   1  -9 733.781 343.498   6
   4  -1   9 539.512 292.140   5
  -4   1 -10 12493.3 1488.79   4
  -4   1 -10 13208.6 1424.92   6
   4  -1  10 12569.3 1708.55   5
  -4   1 -11 406.941 318.296   4
  -4   1 -11 288.891 232.191   6
   4  -1  11 194.999 309.184   5
  -4   1 -12 6441.88 1154.69   4
  -4   1 -12 6752.35 1084.90   6
  -4   1 -13-283.998 235.631   4
  -4   1 -13 435.016 333.876   6
   4  -1  13 662.721 540.386   5
  -4   1 -14 673.252 341.918   4
  -4   0  11 451.124 413.742   7
   4   0 -11 339.426 281.093   3
   4   0 -10 2130.85 562.555   3
  -4   0  10 1386.19 666.095   7
   4   0  -9-22.2007 164.002   3
  -4   0   9 425.687 410.099   7
   4   0  -8-36.3577 252.220   3
  -4   0   8 500.417 248.726   7
   4   0  -7 403.345 304.028   3
  -4   0   7-10.4617 225.174   7
  -4   0   6 5428.43 1070.32   7
   4   0  -6 6339.06 869.830   3
  -4   0   5 4819.85 965.597   7
   4   0  -5 5779.56 808.355   3
  -4   0   4 35933.5 2479.02   7
   4   0  -4 37718.7 2007.12   3
  -4   0   4 33206.9 2334.99   3
   4   0  -4 34045.9 2150.11   1
  -4   0   3 8841.57 1160.00   7
   4   0  -3 9218.29 1095.10   7
   4   0  -3 8779.87 910.165   3
  -4   0   3 8823.56 1106.51   3
  -4   0   2 28483.9 1036.29   4
   4   0  -2 28541.3 881.395   2
  -4   0   2 27949.9 1956.69   7
   4   0  -2 28958.6 1644.81   3
   4   0  -2 28154.4 896.881   2
  -4   0   2 31386.6 1981.96   3
   4   0  -1 1444.56 340.301   3
  -4   0   1 1143.36 235.220   4
   4   0  -1 1480.25 256.382   4
  -4   0   1 1113.37 318.257   7
  -4   0   0 17901.1 1020.45   4
   4   0   0 15535.6 957.203   4
  -4   0   0 16244.4 1415.38   7
   4   0   0 19925.7 1235.01   3
  -4   0   0 17030.0 1233.86   3
   4   0   0 16562.7 1236.20   1
   4   0   1 474.762 112.647   3
  -4   0  -1 619.562 222.360   4
   4   0   1 604.124 201.780   4
  -4   0  -1 813.428 299.355   7
   4   0   1 1045.39 281.830   1
  -4   0  -2 48801.1 2076.99   4
   4   0   2 50103.9 2089.48   4
  -4   0  -2 47344.5 2452.45   7
   4   0   2 48109.5 2431.69   6
   4   0   2 51405.9 1891.06   3
   4   0   2 49329.6 2013.49   1
   4   0   2 48667.5 2183.84   5
   4   0   3 1164.97 303.731   5
   4   0   3 1436.55 268.948   3
  -4   0  -3 1254.02 340.989   4
   4   0   3 1414.00 352.967   4
   4   0   3 1215.28 282.788   1
  -4   0  -3 849.825 289.950   6
   4   0   3 1255.83 356.324   6
  -4   0  -4 86905.5 3138.25   4
   4   0   4 84637.4 3199.88   4
  -4   0  -4 85381.6 3325.01   6
   4   0   4 78891.7 3081.76   6
   4   0   4 80884.1 2316.15   3
   4   0   4 82664.4 2448.47   1
   4   0   4 82509.6 3112.99   5
  -4   0  -5 9543.20 1014.98   4
   4   0   5 7314.46 935.972   4
  -4   0  -5 8703.12 1018.48   6
   4   0   5 8714.72 933.703   6
   4   0   5 9411.27 617.481   3
   4   0   5 7785.19 927.680   5
   4   0   5 9173.49 645.380   1
  -4   0  -6 41012.7 2251.31   4
   4   0   6 39499.0 2353.37   4
   4   0   6 40137.6 1033.77   3
  -4   0  -6 38189.5 2221.61   6
   4   0   6 37523.9 2017.33   6
   4   0   6 37092.5 2203.19   5
  -4   0  -6 36484.6 2254.78   5
   4   0   6 38899.2 1262.84   1
   4   0   7 1463.86 450.422   5
  -4   0  -7 1341.39 427.969   5
  -4   0  -7 1818.02 483.713   4
   4   0   7 1506.90 479.239   4
   4   0   7 1357.99 162.137   3
  -4   0  -7 1214.42 413.101   6
  -4   0  -8 1169.57 413.096   5
  -4   0  -8 721.086 316.797   4
   4   0   8 1678.08 195.065   3
  -4   0  -8 1518.94 455.434   6
   4   0   8 1563.67 528.165   5
   4   0   9 13.2830 33.4408   3
  -4   0  -9-60.1455 101.751   4
  -4   0  -9-34.2759 170.338   6
   4   0   9-110.991 252.707   5
  -4   0 -10 11434.2 1399.90   4
  -4   0 -10 11748.1 1400.05   6
   4   0  10 10902.6 647.561   3
   4   0  10 13437.6 1796.72   5
  -4   0 -11 117.276 136.575   4
  -4   0 -11 288.572 252.466   6
   4   0  11 448.014 390.993   5
  -4   0 -12 5220.87 1023.49   4
  -4   0 -12 5599.15 1053.46   6
   4   0  12 8020.22 1582.95   5
  -4   0 -13 65.2340 125.647   4
   4   0  13 102.130 223.278   2
  -4   0 -13-4.83774 208.000   6
   4   0  13 83.2351 183.589   5
  -4   0 -14 827.726 422.360   4
   4   0  14 152.761 262.126   2
  -4   0 -14 1222.17 515.053   6
   4   0  14 873.388 526.098   5
   4   1 -11 267.676 251.540   3
  -4  -1  11 370.918 357.594   7
   4   1 -10 924.778 313.579   3
  -4  -1  10 1390.19 664.874   7
   4   1  -9 314.471 208.917   3
  -4  -1   9 115.064 260.364   7
  -4  -1   8 4836.21 1100.14   7
   4   1  -8 7827.31 1038.23   3
   4   1  -7 294.176 247.045   3
  -4  -1   7 138.160 239.909   7
  -4  -1   6 14056.2 1741.14   7
   4   1  -6 14027.5 1340.52   3
   4   1  -6 10777.6 1508.13   5
   4   1  -5 1577.76 410.268   3
  -4  -1   5 970.531 478.291   7
   4   1  -5 959.799 427.576   5
   4   1  -4 3032.98 639.822   1
   4   1  -4 2779.20 547.035   3
  -4  -1   4 3469.53 728.560   3
  -4  -1   4 1762.79 557.475   7
   4   1  -3-236.460 316.823   3
  -4  -1   3 30.8289 88.7135   3
  -4  -1   3 1.60757 132.269   7
   4   1  -3 206.492 207.697   7
   4   1  -2 2146.53 459.963   3
  -4  -1   2 3256.45 659.867   7
   4   1  -2 2701.23 576.966   7
   4   1  -1 31.3673 183.921   3
   4   1  -1 193.896 121.471   2
   4   1  -1 21.4836 35.9778   4
  -4  -1   1-76.0342 150.792   7
   4   1  -1 261.096 197.837   7
  -4  -1   0 62792.3 2007.98   4
   4   1   0 64841.3 2005.04   4
  -4  -1   0 62719.6 2849.78   7
   4   1   0 62392.6 2115.55   2
   4   1   0 68603.4 2643.85   3
   4   1   0 64297.8 2638.36   1
  -4  -1  -1 3877.98 484.693   4
   4   1   1 3073.43 434.301   4
   4   1   1 3214.54 521.173   3
  -4  -1  -1 3230.57 582.693   7
   4   1   1 4358.07 526.633   2
   4   1   1 3606.99 550.569   1
  -4  -1  -2 80859.3 2695.56   4
   4   1   2 82694.6 2793.86   4
   4   1   2 81074.7 2810.73   2
  -4  -1  -2 81274.4 3259.33   6
   4   1   2 86999.0 2865.60   3
   4   1   2 82885.6 2686.93   5
   4   1   2 81132.1 2760.10   1
   4   1   3 22989.6 1283.98   1
  -4  -1  -3 22453.3 1394.76   4
   4   1   3 23951.6 1487.97   4
  -4  -1  -3 23163.0 1673.02   6
   4   1   3 25017.8 1372.35   3
   4   1   3 22765.9 1334.40   5
   4   1   4 144426. 3582.44   1
  -4  -1  -4 146269. 4243.54   4
   4   1   4 148834. 4420.70   4
  -4  -1  -4 146372. 4677.56   6
   4   1   4 144486. 4452.75   6
   4   1   4 136518. 3944.68   5
   4   1   5 17.5403 134.066   5
  -4  -1  -5 120.614 117.815   5
  -4  -1  -5 20.5364 94.4785   4
   4   1   5 163.671 157.989   4
   4   1   5 15.3979 54.1706   1
  -4  -1  -5-11.1357 167.748   6
   4   1   5-123.965 199.348   6
   4   1   6 1192.15 189.222   1
  -4  -1  -6 994.049 334.746   4
   4   1   6 1453.28 455.935   4
  -4  -1  -6 1122.88 373.740   6
   4   1   6 1047.98 186.098   3
   4   1   6 2330.88 486.651   6
  -4  -1  -7 77.1397 118.247   5
  -4  -1  -7-22.4431 140.194   4
   4   1   7 129.423 175.787   4
  -4  -1  -7-4.77608 162.221   6
   4   1   7 69.8302 63.4358   3
   4   1   7-2.95701 114.218   5
  -4  -1  -8 14879.0 1463.29   4
   4   1   8 14108.8 744.520   3
  -4  -1  -8 15902.5 1565.17   6
   4   1   8 13095.6 1471.08   5
  -4  -1  -8 16480.4 1579.47   5
  -4  -1  -9 169.254 244.301   4
  -4  -1  -9 179.088 90.3086   6
   4   1   9 75.0787 48.6803   3
  -4  -1 -10 5741.99 977.192   4
   4   1  10 5884.75 578.807   3
   4   1  10 5454.61 1007.95   2
  -4  -1 -10 6597.45 1102.52   6
   4   1  10 4746.30 1037.39   5
  -4  -1 -11-88.1275 115.608   4
   4   1  11-416.725 381.842   2
  -4  -1 -11-102.475 220.734   6
   4   1  11 496.866 397.475   5
  -4  -1 -12 5453.36 1031.29   4
   4   1  12 5406.53 1092.11   2
  -4  -1 -12 3585.40 872.861   6
  -4  -1 -13 25.8319 207.819   4
   4   1  13-59.0117 360.596   2
  -4  -1 -13 387.240 129.411   6
   4   1  13 423.989 456.477   5
   4   1  14 2642.69 829.588   2
  -4  -1 -14 1968.89 677.573   6
   4   1  14 2142.72 897.157   5
  -4  -1 -15 289.008 309.333   6
   4   2 -11-343.895 262.689   3
  -4  -2  11-870.471 582.258   7
   4   2 -10 3322.39 742.826   3
  -4  -2  10 1274.37 704.453   7
   4   2  -9 513.349 268.608   3
  -4  -2   9-48.3305 271.140   7
   4   2  -8 1678.01 468.706   3
  -4  -2   8 506.543 245.985   7
   4   2  -7 57.2105 110.762   3
  -4  -2   7 10.7498 219.105   7
   4   2  -6 2955.98 647.102   3
  -4  -2   6 4196.54 925.677   7
   4   2  -6 3119.61 770.190   5
   4   2  -5-4.61742 231.572   3
  -4  -2   5-278.953 300.325   7
   4   2  -5 173.903 220.933   5
   4   2  -4 24555.5 1921.61   1
  -4  -2   4 21592.3 1897.95   7
   4   2  -4 23508.3 1975.47   6
   4   2  -4 24018.4 1812.00   3
   4   2  -4 21731.0 1805.42   5
  -4  -2   3 2092.64 495.353   1
  -4  -2   3 2675.63 644.240   7
   4   2  -3 2332.37 534.654   3
   4   2  -3 2265.68 536.976   1
   4   2  -3 2408.72 548.387   7
   4   2  -3 2465.60 604.080   6
   4   2  -3 1859.57 474.020   5
   4   2  -2 41138.4 987.417   4
   4   2  -2 41976.8 1224.21   2
  -4  -2   2 40641.6 2357.00   7
   4   2  -2 41382.2 2223.54   7
   4   2  -2 44968.9 2595.57   6
   4   2  -2 47607.1 2436.76   3
  -4  -2   2 43771.2 2296.42   1
   4   2  -1 292.371 164.440   2
   4   2  -1 173.651 128.952   3
   4   2  -1 79.4418 62.5797   4
  -4  -2   1 243.102 143.951   7
  -4  -2   1 208.817 195.247   1
   4   2  -1-20.3625 81.3790   7
   4   2  -1 156.806 179.325   6
   4   2   0 2442.42 519.723   7
   4   2   0 2410.73 409.364   2
   4   2   0 1990.13 450.046   3
   4   2   0 2053.92 309.499   4
   4   2   0 1998.39 451.762   1
  -4  -2   0 2421.62 475.638   1
  -4  -2   0 1559.75 403.941   7
   4   2   1 680.220 264.899   7
   4   2   1 649.084 262.196   3
   4   2   1 1267.86 270.984   4
   4   2   1 368.118 211.821   2
  -4  -2  -1 1264.35 327.053   1
   4   2   1 1131.31 336.511   1
  -4  -2  -1 1251.02 383.364   7
  -4  -2  -1 636.402 245.161   6
   4   2   2 79184.6 2998.14   2
   4   2   2 85504.2 2933.63   1
   4   2   2 83319.0 2780.42   4
   4   2   2 83645.5 3292.39   7
  -4  -2  -2 84391.5 3407.49   6
  -4  -2  -2 82626.0 2821.64   1
   4   2   2 82726.7 2315.31   5
   4   2   3 286.140 118.195   5
   4   2   3 295.519 147.256   1
  -4  -2  -3-41.5648 148.012   4
   4   2   3 414.697 255.327   4
  -4  -2  -3 478.369 181.914   1
   4   2   3 372.328 221.316   7
   4   2   3 168.929 124.338   2
  -4  -2  -3 180.612 157.186   6
  -4  -2  -4 20066.8 1397.32   4
   4   2   4 22643.5 1540.80   4
   4   2   4 20802.0 1186.08   1
   4   2   4 20413.8 1583.71   7
   4   2   4 19384.8 1498.55   2
  -4  -2  -4 18425.9 1571.55   6
  -4  -2  -4 21240.2 1175.00   1
   4   2   4 20959.1 1200.03   5
  -4  -2  -5-126.742 117.017   5
   4   2   5-36.0369 63.8024   1
  -4  -2  -5 41.4076 193.326   4
   4   2   5 81.2618 145.131   4
   4   2   5 159.417 175.919   7
   4   2   5 104.359 141.691   2
  -4  -2  -5-182.345 262.130   6
   4   2   5 183.191 158.115   6
   4   2   5-147.097 209.900   5
  -4  -2  -6 91054.1 3515.25   4
   4   2   6 97680.1 3842.14   4
   4   2   6 93383.1 3816.24   2
  -4  -2  -6 94461.8 3946.88   6
   4   2   6 93153.6 3478.03   6
   4   2   6 87944.7 3368.48   5
  -4  -2  -7 300.129 256.422   4
   4   2   7 451.138 255.767   4
   4   2   7 242.172 62.0738   8
   4   2   7 92.8826 121.328   2
  -4  -2  -7-24.3271 195.688   6
   4   2   7 401.141 144.166   3
   4   2   7 198.514 150.819   5
  -4  -2  -8 3844.27 736.274   4
   4   2   8 4504.85 455.490   3
   4   2   8 3743.16 779.798   2
  -4  -2  -8 4456.25 863.801   6
  -4  -2  -8 5203.01 850.036   5
   4   2   8 4085.18 814.759   5
  -4  -2  -9 62.7250 134.401   5
  -4  -2  -9-116.902 136.773   4
   4   2   9-189.140 258.945   2
  -4  -2  -9 203.679 176.776   6
   4   2   9 62.8717 57.0913   3
   4   2   9 208.818 165.988   5
  -4  -2 -10 10838.6 1352.09   4
   4   2  10 10446.9 1413.77   2
   4   2  10 9520.14 790.601   3
  -4  -2 -10 10273.7 1435.44   6
   4   2  10 8986.79 1437.00   5
   4   2  11-202.516 150.192   3
   4   2  11-297.522 320.335   2
  -4  -2 -11-524.765 346.809   6
   4   2  11 334.511 320.793   5
   4   2  12 16323.8 1982.07   2
  -4  -2 -12 11652.0 1662.00   6
   4   2  12 15571.6 2087.49   5
   4   2  13 985.982 569.144   2
  -4  -2 -13 348.950 335.501   6
   4   2  14 310.746 239.483   2
  -4  -2 -14-341.959 353.829   6
  -4  -2 -15 179.448 241.561   6
  -4  -3  11-748.250 535.931   7
   4   3 -10 218.211 100.477   3
  -4  -3  10-986.252 585.706   7
   4   3  -9 701.055 408.432   3
  -4  -3   9 778.213 487.879   7
   4   3  -8 4400.67 844.136   3
  -4  -3   8 3491.64 982.654   7
   4   3  -7 824.607 368.686   3
  -4  -3   7 980.393 514.150   7
  -4  -3   6 6115.48 1161.05   7
   4   3  -6 10787.3 1296.84   3
  -4  -3   6 9037.60 1209.69   1
   4   3  -6 6968.75 1068.77   5
   4   3  -5 291.438 120.789   3
  -4  -3   5-92.4537 152.558   1
  -4  -3   5-236.743 295.994   7
   4   3  -5-197.636 269.040   6
   4   3  -5 315.658 225.899   5
   4   3  -4 3935.68 741.364   3
  -4  -3   4 4264.37 791.216   1
   4   3  -4 4244.64 837.673   6
  -4  -3   4 3551.00 300.024   2
  -4  -3   4 3787.03 745.603   7
   4   3  -4 4312.31 725.912   5
   4   3  -3 5580.39 901.969   1
  -4  -3   3 3842.36 732.082   7
  -4  -3   3 4310.31 407.896   2
  -4  -3   3 4794.05 808.010   1
   4   3  -3 5199.90 905.839   6
   4   3  -3 6242.27 934.512   3
   4   3  -3 4073.57 652.299   5
   4   3  -2 13331.4 648.050   4
   4   3  -2 12292.9 1355.31   6
   4   3  -2 13078.1 1330.31   1
   4   3  -2 12313.6 792.344   2
  -4  -3   2 12948.0 1266.37   7
   4   3  -2 13239.0 1221.59   7
  -4  -3   2 11591.8 752.906   2
   4   3  -2 14177.1 1379.45   3
   4   3  -2 12272.1 1037.64   5
  -4  -3   2 11445.9 1188.75   1
   4   3  -1 466.310 236.781   1
   4   3  -1 432.307 194.190   3
   4   3  -1 289.809 122.968   4
  -4  -3   1 460.975 182.564   7
   4   3  -1 818.408 297.010   7
  -4  -3   1 453.834 162.349   2
  -4  -3   1 637.132 293.427   1
   4   3  -1 613.572 326.758   6
   4   3  -1 659.800 211.011   2
   4   3  -1 931.380 259.146   5
  -4  -3   0 49730.2 2441.99   7
   4   3   0 53644.4 1902.03   4
   4   3   0 55198.9 2588.47   1
   4   3   0 53762.9 2278.04   2
   4   3   0 55956.5 2578.17   7
  -4  -3   0 50787.0 1984.48   2
   4   3   0 56300.5 2841.27   6
   4   3   0 52964.0 2645.77   3
   4   3   0 47086.1 1619.50   5
  -4  -3   0 53222.4 2495.82   1
   4   3   1-27.5413 44.3836   5
   4   3   1 205.278 220.997   2
   4   3   1 40.5310 63.0277   4
  -4  -3  -1-48.9729 198.347   7
   4   3   1 57.1432 115.546   1
   4   3   1 156.028 185.856   7
  -4  -3  -1-179.497 183.440   6
   4   3   1 183.884 152.090   6
  -4  -3  -1 156.719 182.315   1
   4   3   2 925.055 135.623   5
   4   3   2 978.083 365.260   2
   4   3   2 939.318 271.023   4
   4   3   2 733.686 285.303   7
  -4  -3  -2 1079.80 346.076   6
  -4  -3  -2 770.989 277.263   1
   4   3   2 799.387 278.847   1
   4   3   3 539.793 255.889   4
   4   3   3 1063.99 389.220   2
   4   3   3 688.086 290.499   7
   4   3   3 1037.33 300.159   1
  -4  -3  -3 666.506 306.445   6
  -4  -3  -3 1135.27 325.235   1
   4   3   3 516.064 148.059   5
   4   3   4 70991.5 2895.65   4
   4   3   4 65360.6 2948.09   7
  -4  -3  -4 63430.7 3140.44   6
   4   3   4 65942.6 3109.45   2
   4   3   4 62852.2 2141.21   5
  -4  -3  -4 67376.0 2431.84   1
  -4  -3  -5 36.4341 77.2871   5
   4   3   5 110.720 217.528   4
   4   3   5 16.9569 152.877   7
   4   3   5 105.334 145.125   2
  -4  -3  -5 121.585 112.487   6
  -4  -3  -5 27.5769 96.9406   1
   4   3   5 254.643 149.093   6
   4   3   5 63.7029 98.7538   5
   4   3   6 36270.0 2289.43   4
   4   3   6 35821.3 1438.63   8
   4   3   6 32223.3 2321.84   2
  -4  -3  -6 35154.8 2395.83   6
   4   3   6 34328.3 2046.00   6
   4   3   6 31541.2 1904.62   5
  -4  -3  -6 32896.3 1425.32   1
  -4  -3  -6 31612.4 1734.75   5
   4   3   7 970.220 388.565   4
   4   3   7 493.122 127.418   8
  -4  -3  -7 728.836 185.201   1
   4   3   7 670.186 376.673   2
  -4  -3  -7 1207.72 494.803   6
   4   3   7 575.536 185.396   3
   4   3   7 655.612 321.500   5
   4   3   8 10381.4 1410.63   2
   4   3   8 12450.7 881.054   3
  -4  -3  -8 13012.4 1599.82   6
   4   3   8 11048.4 1307.64   5
  -4  -3  -8 12164.2 1267.78   5
  -4  -3  -9 591.473 291.414   5
   4   3   9 1177.60 523.390   2
  -4  -3  -9 890.913 448.613   6
   4   3   9 953.616 251.598   3
   4   3   9 1629.81 600.032   5
   4   3  10 18987.0 2065.56   2
   4   3  10 16931.9 1090.03   3
  -4  -3 -10 18497.1 2044.93   6
   4   3  11 459.850 458.346   2
  -4  -3 -11-5.39404 210.144   6
   4   3  11 178.992 85.1104   3
   4   3  12 3043.31 860.156   2
  -4  -3 -12 2120.22 728.603   6
   4   3  13 388.105 357.215   2
  -4  -3 -13 597.084 460.698   6
   4   3  14 1938.45 793.595   2
  -4  -3 -14 2076.45 830.816   6
  -4  -3 -15 533.821 416.048   6
  -4  -4  11 802.744 589.970   7
   4   4 -10 1156.30 474.446   3
  -4  -4  10 464.562 403.041   7
   4   4  -9 389.870 232.631   3
  -4  -4   9 1168.79 610.125   7
   4   4  -8 1787.45 573.955   3
  -4  -4   8 2448.22 685.323   1
  -4  -4   8 1624.62 661.228   7
   4   4  -7-85.8981 263.710   3
  -4  -4   7 253.491 278.169   1
  -4  -4   7 505.897 345.521   7
   4   4  -6 1288.37 429.339   5
   4   4  -6 2159.75 607.836   3
  -4  -4   6 2015.46 606.261   1
  -4  -4   6 1988.59 587.528   7
   4   4  -5 2538.84 561.620   5
   4   4  -5 3167.29 728.271   3
  -4  -4   5 2766.86 447.730   2
  -4  -4   5 2256.19 588.099   7
  -4  -4   5 2770.77 693.389   1
   4   4  -5 3446.86 774.601   6
   4   4  -4 11918.2 544.933   4
   4   4  -4 12256.5 548.007   4
  -4  -4   4 13219.5 1406.99   7
  -4  -4   4 12818.3 1010.33   2
   4   4  -4 12097.1 1414.93   6
   4   4  -4 11849.9 1387.39   3
   4   4  -4 11149.9 1086.22   5
  -4  -4   4 12809.8 1406.14   1
   4   4  -3 4091.92 402.940   4
   4   4  -3 4170.80 403.516   4
   4   4  -3 4911.97 873.130   3
  -4  -4   3 4308.87 605.004   2
  -4  -4   3 5113.01 827.598   7
   4   4  -3 4385.79 819.181   6
  -4  -4   3 3511.40 725.998   1
   4   4  -3 4378.46 601.597   5
  -4  -4   2 9583.92 1067.59   7
   4   4  -2 8113.38 646.541   4
   4   4  -2 8331.97 791.578   2
   4   4  -2 8923.14 1000.18   7
  -4  -4   2 8334.93 835.447   2
   4   4  -2 9119.15 1165.34   6
   4   4  -2 8633.13 1138.30   3
   4   4  -2 8819.99 732.271   5
  -4  -4   2 8802.90 1088.74   1
   4   4  -1 2229.57 363.834   4
   4   4  -1 1708.74 468.248   3
  -4  -4   1 1987.20 413.646   2
   4   4  -1 2021.86 539.371   1
  -4  -4   1 2144.02 490.253   7
   4   4  -1 1755.36 422.344   7
   4   4  -1 2677.28 585.636   6
   4   4  -1 2312.46 438.609   2
   4   4  -1 2465.54 303.695   5
  -4  -4   1 2430.38 567.047   1
   4   4   0 17637.2 1150.71   4
   4   4   0 19440.6 1577.56   1
   4   4   0 19455.1 1432.65   2
  -4  -4   0 16657.4 1344.21   7
   4   4   0 17615.3 1371.15   7
  -4  -4   0 16726.8 1256.42   2
   4   4   0 17979.2 1582.25   6
  -4  -4   0 17910.1 1497.20   1
   4   4   1 181.269 217.720   2
  -4  -4  -1-22.8863 93.2155   1
   4   4   1 263.678 138.206   4
   4   4   1 207.328 175.908   7
  -4  -4  -1 263.890 191.673   2
  -4  -4  -1 59.6054 162.069   6
   4   4   1 152.165 114.471   6
   4   4   1 217.480 197.555   1
  -4  -4  -2 9345.42 1004.57   1
   4   4   2 9237.83 933.783   4
   4   4   2 9585.79 1027.27   7
   4   4   2 10182.7 1196.46   2
  -4  -4  -2 8503.37 1093.22   6
   4   4   2 10749.1 1158.45   6
  -4  -4  -3 5738.61 801.825   1
   4   4   3 7702.68 914.706   4
   4   4   3 6548.84 986.742   2
   4   4   3 6156.52 848.006   7
  -4  -4  -3 6002.57 852.194   2
   4   4   3 6545.75 907.704   6
  -4  -4  -3 5853.69 916.848   6
  -4  -4  -4 32514.9 1817.67   1
   4   4   4 35972.5 2112.53   4
   4   4   4 33310.1 2027.11   7
   4   4   4 31786.8 2301.10   2
  -4  -4  -4 32131.8 2253.69   6
   4   4   4 32740.3 2093.47   6
  -4  -4  -5 5558.82 686.797   1
   4   4   5 6346.75 912.913   4
   4   4   5 5497.75 1010.84   2
   4   4   5 4880.65 625.944   8
   4   4   5 6465.23 895.303   7
   4   4   5 4884.97 765.914   6
  -4  -4  -5 5178.29 910.431   6
  -4  -4  -5 5084.47 530.979   5
  -4  -4  -6 13428.5 1026.11   1
   4   4   6 15432.8 1500.42   4
   4   4   6 13445.9 942.119   8
   4   4   6 14904.5 1666.48   2
  -4  -4  -6 14301.7 1598.14   6
  -4  -4  -6 13995.7 1054.44   5
  -4  -4  -7 14.5651 69.7760   5
  -4  -4  -7-34.2180 83.4094   1
   4   4   7 50.9766 75.8990   8
   4   4   7 184.014 281.161   2
  -4  -4  -7-126.565 223.986   6
   4   4   7 54.8719 54.3466   3
   4   4   8 15874.9 1833.02   2
   4   4   8 13936.9 1041.96   3
  -4  -4  -8 16535.0 1889.50   6
  -4  -4  -8 15568.1 941.805   1
  -4  -4  -9 509.534 303.063   5
  -4  -4  -9 78.8319 73.8348   1
  -4  -4  -9 2.49953 311.350   6
   4   4   9 41.6700 100.034   3
  -4  -4 -10 643.291 331.013   5
   4   4  10-34.2195 252.326   2
  -4  -4 -10 147.846 137.126   6
   4   4  10 273.087 146.000   3
   4   4  11 65.4414 234.627   2
  -4  -4 -11 422.518 363.044   6
   4   4  11 77.5073 114.908   3
   4   4  12 22455.5 2478.98   2
  -4  -4 -12 13167.0 1967.51   6
   4   4  13-203.853 338.357   2
  -4  -4 -13 93.5801 248.968   6
   4   4  14 2226.23 907.703   2
  -4  -4 -14 1848.52 797.057   6
  -4  -5  10 1109.73 558.920   7
   4   5  -9-114.995 145.121   3
  -4  -5   9-112.281 136.858   1
  -4  -5   9-150.979 224.794   7
   4   5  -8 797.385 360.223   3
  -4  -5   8 1102.08 469.197   1
  -4  -5   8 1054.98 528.114   7
   4   5  -7 1641.58 532.328   3
  -4  -5   7 2146.74 644.797   1
  -4  -5   7 1845.14 620.583   7
  -4  -5   6 11682.5 1495.32   7
   4   5  -6 14334.1 1658.43   3
  -4  -5   6 12340.2 1541.51   1
   4   5  -5 5.51796 94.1332   5
   4   5  -5-29.3308 78.5629   4
   4   5  -5-101.978 229.425   3
  -4  -5   5-141.449 107.496   2
  -4  -5   5-206.950 155.642   7
   4   5  -5 193.970 146.495   6
  -4  -5   5 29.9245 202.001   1
   4   5  -4-7.93493 89.4561   5
   4   5  -4 242.381 295.247   3
  -4  -5   4 407.215 241.802   2
   4   5  -4 94.5942 100.018   4
  -4  -5   4 61.7880 94.4142   7
   4   5  -4 203.670 152.625   6
  -4  -5   4 150.471 188.014   1
   4   5  -3 519.689 221.908   5
   4   5  -3 127.405 169.778   3
  -4  -5   3 528.294 280.974   2
   4   5  -3 467.728 186.661   4
  -4  -5   3 541.372 275.515   7
   4   5  -3 899.131 378.499   6
  -4  -5   3 401.623 189.423   1
   4   5  -2 13615.4 1147.44   2
  -4  -5   2 11959.0 1169.40   7
  -4  -5   2 10592.2 1140.27   2
   4   5  -2 11246.6 1292.13   6
   4   5  -2 11476.4 1408.75   3
   4   5  -2 12670.4 866.173   5
  -4  -5   2 13061.6 1435.40   1
  -4  -5   1 4119.57 792.745   1
  -4  -5   1 3764.74 625.165   7
   4   5  -1 3520.34 588.626   7
   4   5  -1 5189.90 848.163   6
   4   5  -1 3533.75 629.224   2
   4   5  -1 3895.50 342.350   5
  -4  -5   0 7295.42 1041.78   1
   4   5   0 8608.39 1038.61   2
  -4  -5   0 8332.54 907.767   7
   4   5   0 7804.29 852.088   7
   4   5   0 6906.68 972.848   6
  -4  -5  -1 5236.76 841.614   1
   4   5   1 6502.36 943.389   2
   4   5   1 5864.94 773.801   7
   4   5   1 5462.64 837.715   6
  -4  -5  -1 4804.82 838.563   6
  -4  -5  -2 38769.5 2307.16   1
   4   5   2 37168.0 2064.86   4
   4   5   2 38107.6 2467.48   2
   4   5   2 40574.3 2173.81   7
  -4  -5  -2 40305.0 2356.70   2
  -4  -5  -2 36740.9 2436.08   6
   4   5   2 40484.2 2329.11   6
  -4  -5  -3 6511.51 916.400   1
   4   5   3 7952.21 974.127   4
   4   5   3 7057.78 893.370   7
   4   5   3 7455.70 1156.30   2
  -4  -5  -3 7350.01 976.940   2
  -4  -5  -3 6652.39 1023.30   6
   4   5   3 7450.54 1002.89   6
   4   5   4 577.421 365.204   2
   4   5   4 1248.94 417.740   4
   4   5   4 1261.73 345.899   8
   4   5   4 880.923 331.096   7
  -4  -5  -4 668.851 294.608   1
  -4  -5  -4 585.737 224.762   2
  -4  -5  -4 675.234 341.657   6
   4   5   4 1346.60 446.684   6
   4   5   5 2578.52 779.837   2
   4   5   5 2364.85 575.889   4
   4   5   5 2450.47 466.736   8
   4   5   5 2108.57 505.975   7
  -4  -5  -5 1805.97 454.083   1
  -4  -5  -5 1911.79 515.438   2
  -4  -5  -5 1752.61 585.306   6
   4   5   5 1978.66 502.182   6
  -4  -5  -5 2522.51 319.219   5
  -4  -5  -6 33114.5 1889.00   1
   4   5   6 34477.7 2370.08   4
   4   5   6 28599.2 1540.13   8
  -4  -5  -6 30445.3 2493.77   6
   4   5   6 30771.6 2589.39   2
  -4  -5  -6 29008.2 1468.29   5
  -4  -5  -7 500.648 223.197   5
   4   5   7 332.923 272.769   2
   4   5   7 623.296 197.845   8
  -4  -5  -7 578.129 237.069   1
  -4  -5  -7 905.792 479.053   6
   4   5   7 276.234 119.564   3
   4   5   8 400.502 458.954   2
  -4  -5  -8 67.6483 67.7751   1
  -4  -5  -8 225.021 329.139   6
   4   5   8-34.7353 89.0344   3
  -4  -5  -9 1624.63 477.320   5
   4   5   9 2538.60 739.001   2
  -4  -5  -9 1874.93 380.759   1
  -4  -5  -9 2730.69 824.299   6
  -4  -5 -10 5310.04 967.842   5
  -4  -5 -10 5939.05 586.835   1
   4   5  10 7467.82 1448.65   2
  -4  -5 -10 6426.36 1340.77   6
   4   5  11 1539.99 683.177   2
  -4  -5 -11 416.352 485.280   6
   4   5  12 3648.49 1072.89   2
  -4  -5 -12 2885.21 933.705   6
   4   5  13-35.9851 436.558   2
  -4  -5 -13 137.449 196.645   6
   4   5  14 2199.10 905.014   2
  -4  -5 -14 1100.66 597.414   6
   4   6  -8 1610.94 553.848   3
  -4  -6   8 1165.47 500.673   1
  -4  -6   7 215.205 216.463   7
  -4  -6   7 51.3575 93.0940   1
   4   6  -6 309.051 340.587   3
  -4  -6   6 929.875 404.877   7
  -4  -6   6 939.144 434.890   1
   4   6  -5-61.2913 133.981   3
  -4  -6   5 111.056 101.790   7
  -4  -6   5-55.9718 194.649   1
   4   6  -4 17374.7 1193.48   4
  -4  -6   4 17188.2 1498.51   7
  -4  -6   4 17833.9 1745.50   2
   4   6  -4 14254.2 1529.91   6
   4   6  -4 18029.7 1930.74   3
  -4  -6   4 15966.2 1789.23   1
  -4  -6   3 1911.01 597.440   1
   4   6  -3 2198.11 428.504   5
  -4  -6   3 2055.03 579.060   2
   4   6  -3 2561.07 716.734   3
  -4  -6   3 2347.53 537.290   7
   4   6  -3 1823.71 425.194   4
   4   6  -3 2203.51 584.413   6
  -4  -6   2 466.013 330.350   1
  -4  -6   2 792.141 346.308   2
   4   6  -2 87.7404 177.546   3
  -4  -6   2 768.651 294.277   7
   4   6  -2 752.691 334.054   2
   4   6  -2 995.368 391.362   6
  -4  -6   1 1016.35 356.903   1
  -4  -6   1 1979.86 575.141   2
  -4  -6   1 1369.52 378.062   7
   4   6  -1 1785.51 433.420   7
   4   6  -1 1517.96 443.747   2
   4   6  -1 1594.65 476.408   6
  -4  -6   0 13262.5 1494.64   1
   4   6   0 13683.6 1420.03   2
   4   6   0 12142.7 1064.93   7
  -4  -6   0 15879.3 1592.54   2
   4   6   0 14479.6 1399.19   6
  -4  -6  -1 236.056 207.200   2
  -4  -6  -1-12.4516 128.672   1
   4   6   1-224.456 180.322   7
  -4  -6  -1-68.7262 155.592   6
   4   6   1-24.2716 97.1892   6
   4   6   1-197.417 291.633   2
   4   6   2 5696.54 771.854   7
  -4  -6  -2 4171.28 837.621   2
  -4  -6  -2 5084.12 891.821   1
  -4  -6  -2 3983.82 813.321   6
   4   6   2 4773.26 792.689   6
   4   6   2 4566.34 905.452   2
   4   6   3 1375.44 524.177   2
   4   6   3 1257.76 398.198   8
  -4  -6  -3 900.706 372.665   2
   4   6   3 867.939 305.154   7
  -4  -6  -3 704.393 364.142   6
   4   6   3 1162.72 391.157   6
  -4  -6  -3 574.844 253.754   1
   4   6   4 17523.1 1898.83   2
   4   6   4 16452.9 1541.34   4
  -4  -6  -4 17996.0 1646.64   1
   4   6   4 17485.7 1427.84   8
  -4  -6  -4 17985.7 1824.76   6
   4   6   4 17558.1 1518.54   6
  -4  -6  -4 15931.7 1635.50   2
   4   6   4 16597.4 1425.94   7
   4   6   5 2929.01 808.948   2
  -4  -6  -5 2205.42 528.596   1
   4   6   5 2379.41 486.452   8
   4   6   5 1543.11 431.133   7
  -4  -6  -5 2374.21 666.536   6
  -4  -6  -5 1978.29 212.137   5
   4   6   6 8188.92 1385.07   2
  -4  -6  -6 8269.28 1035.81   1
   4   6   6 6868.10 791.712   8
  -4  -6  -6 8046.29 1334.13   6
  -4  -6  -6 7923.11 690.917   5
  -4  -6  -7 6196.64 882.577   1
   4   6   7 5746.66 1236.53   2
   4   6   7 5468.98 682.703   8
  -4  -6  -7 8246.87 1406.50   6
  -4  -6  -7 6225.26 754.588   5
  -4  -6  -8 12496.0 1213.31   1
   4   6   8 12882.2 1868.83   2
  -4  -6  -8 13001.5 1845.25   6
  -4  -6  -9-42.1162 126.469   5
  -4  -6  -9 59.2353 117.582   1
   4   6   9 239.388 282.989   2
  -4  -6  -9-247.630 260.315   6
  -4  -6 -10 692.984 256.495   1
  -4  -6 -10 315.089 211.297   5
   4   6  10 173.536 346.723   2
  -4  -6 -10 741.020 462.022   6
   4   6  11 183.582 396.290   2
  -4  -6 -11 3.61903 137.590   6
   4   6  12 2480.18 970.727   2
  -4  -6 -12 1096.84 590.755   6
   4   6  13 344.310 462.249   2
  -4  -6 -13-204.579 287.590   6
   4   7  -7 439.038 387.401   3
  -4  -7   7 272.351 222.218   1
   4   7  -6 3973.98 965.073   3
  -4  -7   6 3017.74 832.165   1
   4   7  -5 976.204 501.904   3
  -4  -7   5 1308.79 544.860   1
  -4  -7   4 3592.45 866.816   1
   4   7  -4 4345.29 982.368   3
   4   7  -4 2442.82 496.452   4
  -4  -7   4 1932.48 464.946   7
  -4  -7   3 35.3000 191.131   1
  -4  -7   3 97.4399 247.684   2
   4   7  -3-114.901 322.975   3
  -4  -7   3 216.713 187.741   7
   4   7  -3-54.8101 100.937   4
   4   7  -3-146.042 237.518   6
   4   7  -2 5893.25 827.208   4
  -4  -7   2 5936.08 1090.92   2
  -4  -7   2 5123.61 1014.97   1
   4   7  -2 6023.48 1118.20   3
   4   7  -2 5339.55 889.638   2
   4   7  -2 4520.31 806.063   6
  -4  -7   1 174.597 214.290   2
  -4  -7   1 651.947 287.269   1
   4   7  -1 502.455 335.186   2
   4   7  -1 915.036 359.321   6
  -4  -7   0 4689.26 961.726   2
   4   7   0 4782.68 642.344   7
  -4  -7   0 4361.93 905.988   1
   4   7   0 4902.06 815.140   6
   4   7   0 5353.96 954.715   2
  -4  -7  -1 174.361 197.368   2
   4   7   1-113.861 161.438   7
  -4  -7  -1-60.8420 205.316   6
  -4  -7  -1 58.9010 118.137   1
   4   7   1-57.8656 131.254   6
   4   7   1-219.499 340.039   2
   4   7   2 5487.01 731.174   7
   4   7   2 5844.46 881.379   6
  -4  -7  -2 5310.74 960.071   6
   4   7   2 5669.61 1041.73   2
  -4  -7  -2 5956.29 1072.75   1
  -4  -7  -3-74.1990 133.316   1
   4   7   3 6.11823 115.318   7
  -4  -7  -3-105.108 194.056   6
  -4  -7  -4 9143.19 1271.27   1
   4   7   4 10471.3 1504.32   2
   4   7   4 7564.45 931.299   7
  -4  -7  -4 10029.5 1405.59   6
   4   7   5 7363.57 1330.91   2
  -4  -7  -5 7642.91 1156.36   1
   4   7   5 4991.15 786.815   7
  -4  -7  -5 6486.56 1195.64   6
  -4  -7  -6 13752.3 1494.36   1
   4   7   6 9882.85 1039.44   8
   4   7   6 10351.1 1189.64   7
   4   7   6 12956.5 1799.00   2
  -4  -7  -6 11781.9 1695.42   6
  -4  -7  -6 11932.1 799.588   5
  -4  -7  -7 272.621 127.387   5
   4   7   7 210.705 161.402   8
  -4  -7  -7 436.110 246.380   1
  -4  -7  -7 87.6605 197.200   6
   4   7   8 8809.06 1562.12   2
  -4  -7  -8 7954.67 1097.28   1
  -4  -7  -8 6495.85 1334.82   6
  -4  -7  -8 7512.11 934.760   5
   4   7   9 373.601 398.335   2
  -4  -7  -9 219.944 213.143   1
  -4  -7  -9 80.7192 285.400   6
   4   7  10 1670.29 693.041   2
  -4  -7 -10 774.211 290.573   1
  -4  -7 -10 978.332 548.584   6
   4   7  11-116.916 282.388   2
  -4  -7 -11-258.779 314.941   6
   4   7  12 4238.53 1225.65   2
  -4  -7 -12 3057.48 1123.13   6
   4   7  13-1052.55 635.545   2
   4   8  -6 333.713 276.408   3
  -4  -8   5-201.878 249.805   1
   4   8  -5 72.4029 229.354   3
  -4  -8   4 3670.79 913.229   1
   4   8  -4 3867.33 965.890   3
  -4  -8   3 437.900 392.142   1
   4   8  -3 378.423 270.369   3
   4   8  -3 423.972 232.892   4
   4   8  -2 6773.50 993.841   4
   4   8  -2 5415.84 1130.90   3
  -4  -8   2 4487.56 1028.75   1
   4   8  -1 1038.99 453.850   2
  -4  -8   1 1317.87 620.865   1
  -4  -8   0 1116.90 514.072   1
   4   8   0 1479.98 527.385   2
   4   8   0 1189.88 403.195   6
  -4  -8  -1 559.478 367.645   6
   4   8   1 172.408 202.720   2
  -4  -8  -1 285.140 196.870   1
  -4  -8  -2 10501.5 1520.65   1
   4   8   2 9822.71 1467.47   2
  -4  -8  -2 8902.57 1303.13   6
  -4  -8  -3-12.0280 160.776   1
   4   8   3 239.821 167.615   7
  -4  -8  -3 237.141 267.421   6
   4   8   3-205.073 321.771   2
  -4  -8  -4 2550.26 734.298   1
   4   8   4 1686.53 424.068   7
  -4  -8  -4 1572.95 572.749   6
   4   8   4 2037.35 717.500   2
  -4  -8  -5 199.477 332.940   1
   4   8   5 42.3279 77.7565   7
  -4  -8  -5-20.7593 193.800   6
   4   8   5 362.189 302.932   2
   4   8   6 3962.86 731.923   7
  -4  -8  -6 5730.82 1099.96   1
  -4  -8  -6 5649.27 1204.08   6
   4   8   6 5806.75 1269.36   2
   4   8   7 975.716 584.002   2
  -4  -8  -7 437.748 343.666   6
  -4  -8  -7 857.689 455.494   1
   4   8   8 3744.52 1036.62   2
  -4  -8  -8 3643.42 1051.82   6
  -4  -8  -8 4182.05 897.957   1
   4   8   9 476.769 388.188   2
  -4  -8  -9 283.351 386.962   6
  -4  -8  -9 152.725 183.816   1
   4   8  10 2756.17 957.378   2
  -4  -8 -10 2417.53 1000.14   6
  -4  -8 -10 2102.93 588.740   1
   4   8  11 223.470 269.391   2
  -4  -8 -11 135.906 327.707   6
   4   8  12 1923.72 861.182   2
  -4  -8 -12-127.244 258.949   6
   4   9  -4 426.738 254.168   3
  -4  -9   3 122.778 190.015   1
   4   9  -3-335.768 343.279   3
  -4  -9   2 988.784 526.543   1
   4   9  -2 928.265 413.832   4
   4   9  -1 397.820 268.110   4
  -4  -9   1-304.054 385.748   1
   4   9   0 3878.05 925.680   2
  -4  -9   0 4216.37 1054.66   1
  -4  -9  -1 1071.04 454.141   6
   4   9   1 956.340 417.007   2
  -4  -9  -1 1241.24 512.557   1
  -4  -9  -2 1638.30 649.287   1
  -4  -9  -2 1381.13 524.881   6
   4   9   2 1500.32 645.232   2
  -4  -9  -3-186.506 355.480   1
  -4  -9  -3 149.723 237.055   6
   4   9   3-236.888 402.043   2
  -4  -9  -4 2606.75 829.038   1
  -4  -9  -4 1872.56 668.243   6
   4   9   4 3320.69 929.670   2
  -4  -9  -5 11.3167 227.434   1
  -4  -9  -5-56.4208 287.597   6
   4   9   5 29.5520 186.074   2
  -4  -9  -6 1574.74 643.143   6
  -4  -9  -6 1678.93 652.962   1
   4   9   6 1176.10 565.699   2
  -4  -9  -7 618.503 510.688   6
  -4  -9  -7 300.768 292.676   1
   4   9   7 241.813 389.400   2
  -4  -9  -8 2253.40 697.888   1
  -4  -9  -8 3443.72 1103.89   6
   4   9   8 3312.52 1046.37   2
   4   9   9 399.971 420.637   2
  -4  -9  -9 232.908 238.791   1
  -4  -9  -9 445.866 460.711   6
   4   9  10 694.313 416.040   2
  -4  -9 -10 270.803 297.867   1
  -4  -9 -10 357.300 130.088   6
  -4  -9 -11 1019.07 646.051   6
   4  10  -2 734.137 387.186   3
   4  10  -1 257.496 290.184   4
  -4 -10   1 426.464 338.518   1
   4  10   0 93.3118 129.400   2
  -4 -10   0 795.785 504.656   1
   4  10   1 77.5852 137.777   2
  -4 -10  -1 6.55701 93.6777   6
  -4 -10  -1 462.835 411.840   1
  -4 -10  -2 1699.21 695.881   1
  -4 -10  -2 926.166 416.401   6
   4  10   2 475.390 335.525   2
  -4 -10  -3 901.898 475.791   1
  -4 -10  -3 334.358 279.707   6
   4  10   3 564.732 380.212   2
  -4 -10  -4 2204.30 793.516   1
  -4 -10  -4 1979.52 688.324   6
   4  10   4 1590.34 679.237   2
  -4 -10  -5 729.878 477.170   1
  -4 -10  -5 336.140 331.496   6
   4  10   5 667.819 486.770   2
  -4 -10  -6 1805.31 732.539   6
  -4 -10  -6 2265.06 841.951   1
   4  10   6 3145.01 1100.12   2
  -4 -10  -7 314.893 327.807   6
   4  10   7 203.327 209.839   2
  -4 -10  -7-226.858 198.019   1
  -4 -10  -8 1041.92 532.723   1
  -4 -10  -8 249.559 354.867   6
   4  10   8 450.447 397.113   2
  -4 -10  -9 223.718 252.735   1
  -4 -10  -9-40.6028 642.360   6
  -4 -10 -10 390.519 345.510   1
   4  11   0 571.880 413.152   4
   4  11   0 825.890 527.094   2
   4  11   1 228.085 337.700   2
   4  11   2 555.350 456.208   2
  -4 -11  -3 580.752 484.774   1
  -4 -11  -3 320.542 254.065   6
   4  11   3 1069.21 653.103   2
  -4 -11  -4 682.783 530.403   1
  -4 -11  -4 1142.61 573.341   6
   4  11   4 414.057 482.963   2
  -4 -11  -5-211.209 195.560   1
  -4 -11  -5-65.4441 169.770   6
   4  11   5 329.406 309.853   2
  -4 -11  -6 339.506 318.813   1
  -4 -11  -6 151.160 241.980   6
  -4 -11  -7 1027.27 656.787   6
  -4 -11  -7-428.385 504.745   1
  -4 -11  -8 150.147 227.117   6
  -4 -11  -8 1316.56 677.459   1
  -4 -11  -9-585.574 436.187   1
  -5   9   7 688.736 473.587   4
  -5   9   6-763.650 487.455   4
  -5   9   6-34.6722 138.800   7
  -5   9   5 736.973 472.059   4
  -5   9   5 611.013 396.617   7
  -5   9   4-422.357 356.295   4
  -5   9   3 139.573 229.458   4
  -5   9   2-131.547 218.714   4
   5  -9  -1 441.392 389.207   8
  -5   9   1 267.157 286.227   4
   5  -9   0 864.607 471.657   8
  -5   9   0 176.531 143.613   4
   5  -9   1 3029.80 880.198   8
   5  -9   2 166.505 205.823   8
   5  -9   3 188.872 171.585   8
   5  -9   4 192.426 263.853   8
   5  -9   5 205.628 115.143   8
  -5   8   8-519.607 375.129   7
  -5   8   7 946.283 511.070   4
  -5   8   7 937.167 612.890   7
  -5   8   6 428.129 378.635   4
  -5   8   6-504.820 377.882   7
   5  -8  -6-443.863 392.888   3
  -5   8   5 1008.19 541.978   4
  -5   8   5 430.348 339.006   7
   5  -8  -5 850.131 383.482   3
  -5   8   4 132.179 296.645   4
  -5   8   4 92.1065 165.061   7
   5  -8  -4-144.751 164.163   3
   5  -8  -3 3390.37 848.320   8
  -5   8   3 3158.77 943.505   4
  -5   8   3 1710.17 617.079   7
   5  -8  -2 767.577 457.692   8
  -5   8   2 75.6084 317.753   4
  -5   8   2 91.5028 159.063   7
   5  -8  -1 5014.47 1071.10   8
  -5   8   1 4277.69 1052.61   4
  -5   8   1 3792.69 891.477   7
   5  -8   0 854.117 548.385   5
   5  -8   0 91.0940 248.134   8
  -5   8   0 1076.62 561.845   4
   5  -8   1-262.782 381.293   5
   5  -8   1 212.213 202.383   8
  -5   8  -1 277.064 271.686   4
   5  -8   2 525.450 494.871   5
   5  -8   2 142.834 156.308   8
  -5   8  -2-41.9629 157.505   4
   5  -8   3 3946.35 1122.33   5
   5  -8   3 1971.50 625.139   8
  -5   8  -3 2079.19 753.641   4
   5  -8   4-55.6747 160.900   5
   5  -8   4-233.406 236.431   8
  -5   8  -4-239.847 261.906   4
   5  -8   5 2306.63 750.832   8
   5  -8   6 151.536 142.165   8
  -5   7   8 375.168 243.360   7
  -5   7   7 882.447 476.224   4
  -5   7   7 1375.30 655.502   7
   5  -7  -7 1322.30 418.089   3
  -5   7   6-78.4442 182.774   4
  -5   7   6-437.741 353.704   7
   5  -7  -6 42.4223 83.2521   3
  -5   7   5 5192.04 1105.05   4
  -5   7   5 4903.26 1161.45   7
   5  -7  -5 3764.23 716.047   3
  -5   7   4-122.360 267.931   4
  -5   7   4-80.6106 207.655   7
   5  -7  -4-66.5601 170.444   3
  -5   7   3 7267.24 1262.64   7
  -5   7   3 6585.75 1242.14   4
   5  -7  -3 6253.65 880.897   3
  -5   7   2-107.252 138.002   4
   5  -7  -2-243.224 187.299   3
  -5   7   1 399.299 204.454   4
  -5   7   1 67.1716 273.795   7
   5  -7   0 69.3825 318.087   5
   5  -7   0 189.292 229.472   8
  -5   7   0 374.277 327.748   4
  -5   7   0-46.5717 147.679   7
  -5   7  -1 12233.8 1688.79   4
   5  -7   1 12737.2 1564.15   8
   5  -7   1 16327.7 2179.78   5
   5  -7   2-22.9524 337.334   5
   5  -7   2 272.906 223.036   8
  -5   7  -2 182.026 188.226   4
   5  -7   3 6965.70 1397.05   5
   5  -7   3 6161.50 1065.06   8
  -5   7  -3 6974.55 1301.74   4
   5  -7   4 39.7051 247.267   5
   5  -7   4-193.398 148.342   8
  -5   7  -4 22.1155 134.196   4
   5  -7   5 1991.76 742.304   5
   5  -7   5 1840.44 552.702   8
  -5   7  -5 1856.10 655.075   4
   5  -7   6-316.965 303.938   5
   5  -7   6 70.6659 201.005   8
  -5   7  -6 290.823 373.310   4
  -5   6   9 618.130 608.898   7
  -5   6   8 79.1196 197.191   7
   5  -6  -8 215.403 205.301   3
  -5   6   7 2752.81 757.538   4
  -5   6   7 1284.65 645.609   7
   5  -6  -7 2041.41 525.495   3
  -5   6   6-136.856 183.462   4
   5  -6  -6 134.833 162.029   3
  -5   6   5 1544.09 572.304   4
  -5   6   5 1064.54 457.573   7
   5  -6  -5 1482.18 418.685   3
  -5   6   4 251.280 281.198   4
  -5   6   4 99.2541 166.194   7
   5  -6  -4 98.2318 145.310   3
  -5   6   3 3597.26 903.009   4
  -5   6   3 4940.93 1006.43   7
   5  -6  -3 5123.22 733.693   3
  -5   6   2 72.7169 192.953   4
  -5   6   2 347.146 312.092   7
   5  -6  -2 4.59061 104.122   3
  -5   6   1 19417.4 2078.14   4
  -5   6   1 20792.0 2010.46   7
   5  -6  -1 22197.1 1490.18   3
  -5   6   0 422.906 216.474   3
  -5   6   0 828.317 404.998   4
  -5   6   0 917.159 356.089   7
   5  -6   0 1259.38 430.857   6
   5  -6   0 1206.23 329.541   3
  -5   6  -1 3189.21 613.716   3
   5  -6   1 5449.43 1156.45   5
  -5   6  -1 4642.46 971.558   4
   5  -6   1 4013.80 762.435   6
   5  -6   2-26.2747 345.024   5
   5  -6   2 426.515 292.670   8
  -5   6  -2-68.8710 167.231   4
  -5   6  -3 9374.27 1417.34   4
   5  -6   3 9329.50 1226.73   8
   5  -6   3 9622.72 1590.39   5
   5  -6   4 109.810 132.691   8
  -5   6  -4 126.801 120.453   4
  -5   6  -5 11685.8 1624.10   4
   5  -6   5 9674.27 1220.09   8
   5  -6   5 10291.1 1651.88   5
   5  -6   6-211.195 353.825   5
   5  -6   6-157.173 188.172   8
  -5   6  -6 412.158 269.535   4
   5  -6   7 3913.05 1052.35   5
   5  -6   7 3483.62 738.208   8
  -5   6  -7 3352.60 919.885   4
   5  -6   8 263.331 349.252   5
  -5   6  -8 118.306 169.363   4
  -5   5   9 1025.66 526.484   7
   5  -5  -9 762.175 320.706   3
  -5   5   8 380.550 366.931   7
   5  -5  -8-1.43765 96.9490   3
  -5   5   7 137.451 114.640   4
   5  -5  -7 325.657 187.328   3
  -5   5   6-231.033 207.838   4
  -5   5   6-204.609 229.377   7
   5  -5  -6 210.670 157.135   3
  -5   5   5 1475.10 515.568   4
  -5   5   5 2163.77 723.695   7
   5  -5  -5 2324.46 487.232   3
   5  -5  -4 346.618 181.688   2
  -5   5   4-55.0059 104.231   4
  -5   5   4 94.3356 181.566   7
   5  -5  -4 416.467 273.742   3
  -5   5   3 12590.1 1511.78   4
  -5   5   3 14304.0 1714.33   7
   5  -5  -3 13713.3 1106.41   3
   5  -5  -3 12921.1 1408.82   2
  -5   5   2 4164.51 864.328   4
  -5   5   2 4724.03 954.881   7
   5  -5  -2 4526.54 615.039   3
   5  -5  -2 4254.07 798.216   2
  -5   5   1 843.187 371.347   3
  -5   5   1 1690.02 582.428   4
  -5   5   1 1709.28 498.579   7
   5  -5  -1 1205.50 435.196   2
   5  -5  -1 2062.14 406.101   3
  -5   5   0-117.870 129.581   3
  -5   5   0 896.487 394.671   4
  -5   5   0 237.394 237.249   7
   5  -5   0 336.868 238.908   6
   5  -5   0 669.282 216.761   3
  -5   5  -1 7872.62 1195.99   4
  -5   5  -1 8696.06 1225.60   7
   5  -5   1 8173.72 759.460   3
   5  -5   1 8067.44 1086.18   6
   5  -5   1 8520.78 1376.76   5
   5  -5   2 82.1155 280.406   5
  -5   5  -2-92.0295 151.173   3
  -5   5  -2-58.3257 165.068   4
   5  -5   2-26.3210 100.512   6
  -5   5  -3 19537.2 1955.69   4
   5  -5   3 25931.3 1918.52   8
   5  -5   3 23636.1 1729.55   6
  -5   5  -3 22828.0 1233.32   3
   5  -5   3 22849.6 2331.09   5
   5  -5   4-117.207 303.715   5
  -5   5  -4 27.1781 50.7617   3
  -5   5  -4 17.8673 108.449   4
   5  -5   4-93.2439 115.062   8
   5  -5   4-35.4493 97.6768   6
   5  -5   5 3114.27 883.146   5
  -5   5  -5 4019.17 940.688   4
   5  -5   5 3899.04 722.100   8
   5  -5   6-370.055 420.153   5
   5  -5   6-101.270 111.841   8
  -5   5  -6 113.288 146.805   4
  -5   5  -7 9251.37 1428.45   4
   5  -5   7 9314.15 1112.72   8
   5  -5   7 10969.8 1649.76   5
   5  -5   8-100.581 229.410   5
  -5   5  -8 57.3650 190.176   4
   5  -5   9 6939.84 1414.26   5
  -5   5  -9 6312.20 1221.08   4
  -5   4   9 1173.40 660.158   7
   5  -4  -9 1002.07 383.541   3
  -5   4   8-187.140 249.442   7
   5  -4  -8 285.066 255.213   3
  -5   4   7 1520.49 454.354   4
  -5   4   7 2853.39 895.396   7
   5  -4  -7 2225.80 515.287   3
  -5   4   6-84.7321 196.679   4
  -5   4   6-380.184 322.648   7
   5  -4  -6 533.332 263.222   3
   5  -4  -5 1876.75 464.658   2
  -5   4   5 821.238 358.280   4
  -5   4   5 1436.85 574.707   7
   5  -4  -5 1330.23 349.086   3
   5  -4  -4 535.112 276.327   2
  -5   4   4 203.012 235.248   4
  -5   4   4 522.771 331.816   7
   5  -4  -4 1200.12 342.891   3
  -5   4   3 2648.42 656.183   4
  -5   4   3 1585.58 553.276   7
   5  -4  -3 3111.66 514.717   3
   5  -4  -3 2701.39 588.884   2
  -5   4   2 48.7912 134.832   3
  -5   4   2 15.3327 150.201   4
  -5   4   2-206.436 267.112   7
   5  -4  -2 219.918 192.875   2
   5  -4  -2 42.3004 141.368   3
  -5   4   1 14839.5 1542.84   4
   5  -4  -1 13976.1 1342.04   2
  -5   4   1 13369.8 1564.93   7
   5  -4  -1 15214.9 1042.88   3
  -5   4   1 15281.4 1527.39   3
  -5   4   0 388.100 259.258   3
  -5   4   0 605.058 313.709   4
  -5   4   0 397.317 313.200   7
   5  -4   0 250.453 83.9985   6
   5  -4   0 705.407 318.616   2
   5  -4   0 552.453 223.123   3
  -5   4  -1 3823.32 782.801   4
  -5   4  -1 3819.47 813.067   7
   5  -4   1 4367.96 806.845   7
   5  -4   1 3611.97 447.679   3
   5  -4   1 4333.97 792.241   2
   5  -4   1 3666.68 720.811   6
   5  -4   2 994.434 449.545   5
  -5   4  -2 948.096 282.926   3
  -5   4  -2 523.780 251.140   4
   5  -4   2 1000.24 428.834   7
   5  -4   2 1057.70 382.922   6
   5  -4   2 1120.21 243.158   3
   5  -4   3 3325.39 833.501   5
  -5   4  -3 2965.61 719.634   4
   5  -4   3 2967.69 696.702   7
   5  -4   3 2792.39 597.466   6
  -5   4  -3 3012.23 409.590   3
   5  -4   4 48.3014 114.617   5
  -5   4  -4 647.171 362.281   4
   5  -4   4 453.696 269.623   8
   5  -4   4 222.442 168.495   6
  -5   4  -5 26604.9 2307.62   4
   5  -4   5 29408.1 1835.06   8
   5  -4   5 25990.0 1678.20   6
   5  -4   5 25364.6 2370.42   5
   5  -4   6 1225.02 540.704   5
  -5   4  -6 1101.44 430.272   4
   5  -4   6 689.154 249.529   8
   5  -4   6 449.173 198.959   6
   5  -4   7 5963.24 1154.06   5
   5  -4   7 5863.40 768.149   8
  -5   4  -7 5758.43 1075.17   4
   5  -4   8 77.5335 200.457   5
  -5   4  -8-2.38468 184.998   4
   5  -4   9 6412.47 1304.32   5
  -5   4  -9 5345.41 1097.53   4
   5  -4  10-139.277 309.856   5
  -5   4 -10 94.9821 188.788   4
  -5   3  10 4.30843 354.284   7
   5  -3 -10 275.585 247.322   3
  -5   3   9 238.388 313.710   7
   5  -3  -9 1795.46 482.356   3
  -5   3   8 970.880 529.010   7
   5  -3  -8 837.894 355.650   3
  -5   3   7 2157.86 442.533   4
  -5   3   7 2236.97 808.802   7
   5  -3  -7 2515.29 553.465   3
  -5   3   6-164.731 235.307   7
  -5   3   6 336.972 171.484   4
   5  -3  -6 582.487 254.161   3
  -5   3   5 6474.26 849.169   4
   5  -3  -5 5863.19 666.702   2
  -5   3   5 5964.85 1184.45   7
   5  -3  -5 6695.49 833.158   3
   5  -3  -4 1246.48 316.342   2
  -5   3   4 1174.62 385.765   4
  -5   3   4 1047.78 482.352   7
   5  -3  -4 1720.09 429.012   3
  -5   3   3 9999.41 1104.04   4
   5  -3  -3 8098.35 875.243   2
  -5   3   3 8017.18 1262.75   7
   5  -3  -3 9450.12 906.530   3
  -5   3   2 268.000 219.619   3
  -5   3   2 577.957 276.056   4
  -5   3   2-4.00496 164.766   7
   5  -3  -2 309.062 61.1515   2
   5  -3  -2 141.415 168.422   3
  -5   3   1 4032.80 757.942   3
  -5   3   1 2677.06 576.471   4
  -5   3   1 4384.25 867.679   7
   5  -3  -1 5405.86 608.907   3
   5  -3  -1 3516.61 611.276   2
  -5   3   0 2396.54 531.684   3
  -5   3   0 2515.22 590.358   4
  -5   3   0 2477.78 656.722   7
   5  -3   0 2041.76 560.335   7
   5  -3   0 2570.35 538.714   2
   5  -3   0 3438.94 716.835   6
   5  -3   0 2685.45 414.626   3
  -5   3  -1 5105.28 840.728   4
   5  -3   1 5333.39 798.320   4
  -5   3  -1 5033.71 909.260   7
   5  -3   1 5041.21 874.732   7
   5  -3   1 5270.12 520.491   3
   5  -3   1 4443.98 789.120   6
   5  -3   2 682.281 330.531   5
  -5   3  -2 1168.17 295.597   3
  -5   3  -2 1177.26 431.300   4
   5  -3   2 717.452 333.336   4
   5  -3   2 1195.58 439.643   7
   5  -3   2 728.121 342.746   6
   5  -3   2 1018.18 228.911   3
  -5   3  -3 23197.0 1939.80   4
   5  -3   3 22426.5 1820.69   4
   5  -3   3 23595.4 1968.73   7
   5  -3   3 23762.1 940.854   3
   5  -3   3 21315.5 1692.79   6
   5  -3   3 25584.0 2168.80   5
   5  -3   4 797.059 369.015   5
  -5   3  -4 1316.02 478.490   4
   5  -3   4 748.250 348.268   7
   5  -3   4 830.270 313.914   6
  -5   3  -5 8565.04 1231.34   4
   5  -3   5 8748.56 905.002   8
   5  -3   5 8799.47 994.254   6
   5  -3   5 7828.74 1234.92   5
   5  -3   6-104.251 258.345   5
   5  -3   6 52.4190 109.128   8
  -5   3  -6-277.583 284.473   4
   5  -3   6 179.882 135.883   6
  -5   3  -7 9053.78 1295.58   4
   5  -3   7 8553.81 824.485   8
   5  -3   7 8230.87 1292.52   5
   5  -3   8-163.452 125.799   5
  -5   3  -8-247.778 308.994   4
   5  -3   8-16.3127 61.9465   8
   5  -3   9 6223.54 1235.41   5
  -5   3  -9 6197.77 1125.30   4
  -5   3  -9 5988.20 854.345   6
   5  -3  10 115.586 121.537   5
  -5   3 -10-37.2166 142.535   4
  -5   3 -10 181.550 145.225   6
  -5   3 -11 3352.70 879.966   4
   5  -3  11 3366.92 1008.19   5
  -5   2  10-490.788 497.684   7
   5  -2 -10 189.390 161.713   3
  -5   2   9 3.94849 193.861   7
   5  -2  -9 1677.35 506.319   3
  -5   2   8 198.731 204.514   7
   5  -2  -8-36.6644 113.049   3
  -5   2   7 4177.48 1098.93   7
   5  -2  -7 5089.33 805.644   3
  -5   2   6 438.933 151.884   4
  -5   2   6 470.913 408.787   7
   5  -2  -6 661.013 228.252   3
   5  -2  -5 2168.94 508.720   3
  -5   2   5 2339.04 391.983   4
  -5   2   5 2904.35 842.854   7
   5  -2  -4 71.1821 192.430   3
   5  -2  -4 419.489 162.762   2
  -5   2   4 59.8985 59.3141   4
  -5   2   4 319.422 259.710   7
  -5   2   3 11060.9 989.426   4
   5  -2  -3 10340.8 836.253   2
  -5   2   3 9933.57 1417.32   7
   5  -2  -3 11961.9 1058.09   3
  -5   2   3 10343.3 1356.49   3
   5  -2  -2-222.184 206.504   3
  -5   2   2-106.282 217.386   3
  -5   2   2 52.7656 159.884   4
  -5   2   2-23.3791 116.397   7
   5  -2  -2 0.84819 57.0103   2
  -5   2   1 52877.9 2451.03   4
   5  -2  -1 49340.9 2162.08   2
  -5   2   1 51431.2 3020.39   7
   5  -2  -1 49180.8 2733.15   7
   5  -2  -1 50674.7 2959.56   6
   5  -2  -1 53698.6 2165.15   3
  -5   2   1 53727.0 2780.56   3
   5  -2   0 872.833 256.314   3
  -5   2   0 807.221 332.222   4
  -5   2   0 1054.76 395.528   7
   5  -2   0 774.596 297.467   4
   5  -2   0 939.598 365.942   7
   5  -2   0 1019.40 404.218   6
  -5   2  -1 20228.8 1579.47   4
   5  -2   1 15544.3 1305.59   4
  -5   2  -1 17381.1 1678.57   7
   5  -2   1 17618.1 1674.99   7
   5  -2   1 16289.0 1553.12   6
   5  -2   1 18746.1 1075.50   3
   5  -2   2-73.2197 158.290   5
  -5   2  -2 115.825 151.405   3
  -5   2  -2 243.186 207.893   4
  -5   2  -2-158.643 280.586   7
   5  -2   2-146.264 154.931   4
   5  -2   2-60.6395 160.457   7
   5  -2   2 49.3421 148.484   6
   5  -2   2 70.8532 71.8020   3
   5  -2   3 333.815 236.273   5
  -5   2  -3 406.934 293.150   4
   5  -2   3 161.435 165.465   4
   5  -2   3 44.9134 170.340   7
   5  -2   3 411.271 189.939   6
   5  -2   3 403.387 132.729   3
   5  -2   4 1462.99 483.359   5
  -5   2  -4 1279.48 418.879   4
   5  -2   4 805.645 320.464   4
   5  -2   4 1128.99 418.476   7
   5  -2   4 543.137 252.670   6
   5  -2   4 860.145 155.008   3
  -5   2  -5 7931.76 1105.44   4
   5  -2   5 8108.93 975.723   6
   5  -2   5 7945.75 1158.65   5
   5  -2   6-321.823 321.516   5
  -5   2  -6-40.5310 240.700   4
   5  -2   6 105.925 104.745   8
   5  -2   6-28.7247 55.5722   6
  -5   2  -7 17467.7 1724.01   4
   5  -2   7 16259.8 1001.70   8
  -5   2  -7 15692.8 1447.10   6
   5  -2   7 15616.9 1309.71   6
   5  -2   7 15823.1 1722.22   5
   5  -2   8 714.778 401.770   5
  -5   2  -8 856.226 431.377   4
   5  -2   8 668.661 174.017   8
  -5   2  -8 563.118 291.583   6
  -5   2  -9 20453.4 2014.87   4
  -5   2  -9 17716.2 1620.79   6
   5  -2   9 18093.4 2033.89   5
  -5   2 -10 118.583 136.485   4
  -5   2 -10 98.8478 122.288   6
   5  -2  10 34.0234 196.511   5
  -5   2 -11 2092.82 667.488   4
  -5   2 -11 1697.54 523.598   6
   5  -2  11 1845.70 749.035   5
  -5   2 -12-107.680 223.595   4
   5  -2  12 3.73780 226.544   5
  -5   1  10 664.348 520.839   7
   5  -1 -10 137.797 245.029   3
  -5   1   9 1636.00 714.767   7
   5  -1  -9 1257.85 452.695   3
   5  -1  -8-235.933 286.701   3
  -5   1   8 60.8458 118.390   7
   5  -1  -7 1564.89 443.699   3
  -5   1   7 1201.93 583.340   7
   5  -1  -6 3517.93 650.984   3
  -5   1   6 2735.98 886.403   7
  -5   1   5 17883.6 2051.08   7
   5  -1  -5 19675.0 1544.08   3
   5  -1  -4 3956.19 666.394   3
  -5   1   4 2991.23 321.306   4
  -5   1   4 3292.66 829.660   7
  -5   1   3 20291.4 1067.67   4
   5  -1  -3 19780.8 834.299   2
  -5   1   3 21173.1 2020.55   7
   5  -1  -3 20113.5 1459.19   3
  -5   1   3 18822.8 1822.38   3
   5  -1  -2 854.167 303.214   3
  -5   1   2 1339.43 470.700   3
  -5   1   2 392.446 147.928   4
   5  -1  -2 909.303 346.879   1
  -5   1   2 620.174 270.859   7
   5  -1  -2 617.527 198.270   2
  -5   1   1 8440.31 817.793   4
   5  -1  -1 7499.12 704.196   2
  -5   1   1 6692.77 1033.17   7
   5  -1  -1 6592.43 983.514   7
   5  -1  -1 7113.01 1090.44   6
   5  -1  -1 8456.29 849.813   3
  -5   1   1 7913.66 1026.87   3
   5  -1  -1 8990.65 1063.70   1
   5  -1   0 63.8114 158.460   3
  -5   1   0-79.7692 65.3467   3
  -5   1   0-164.427 146.461   4
   5  -1   0 83.4888 126.156   1
  -5   1   0 261.743 275.695   7
   5  -1   0-92.0473 158.980   4
   5  -1   0-59.2973 298.552   7
   5  -1   0-181.727 185.462   6
  -5   1  -1 20455.1 1441.05   4
   5  -1   1 20478.2 1413.37   4
  -5   1  -1 21928.6 1826.91   7
   5  -1   1 20359.3 1781.53   7
   5  -1   1 21103.5 1783.10   6
   5  -1   1 21288.7 1232.89   3
   5  -1   1 21216.1 1535.74   1
   5  -1   2 973.088 241.490   3
   5  -1   2 893.081 337.128   5
   5  -1   2 992.986 310.950   1
  -5   1  -2 1404.23 409.673   4
  -5   1  -2 642.169 295.316   7
   5  -1   2 1248.35 364.628   4
   5  -1   2 1090.11 409.976   7
   5  -1   2 867.095 334.351   6
  -5   1  -3 30279.1 1920.03   4
   5  -1   3 30207.3 1924.52   4
   5  -1   3 29585.9 2186.27   7
   5  -1   3 30251.4 2059.67   6
   5  -1   3 31039.4 1304.97   3
   5  -1   3 29787.9 1687.86   1
   5  -1   3 29074.0 2016.42   5
   5  -1   4 18.5220 67.0514   3
   5  -1   4 177.695 222.302   5
   5  -1   4 115.560 126.453   1
  -5   1  -4-70.5067 175.077   4
   5  -1   4-134.940 217.053   4
   5  -1   4 316.334 252.165   7
   5  -1   4-11.8297 150.161   6
  -5   1  -5 6030.97 905.545   4
   5  -1   5 6702.03 971.372   4
   5  -1   5 6254.93 1033.65   7
  -5   1  -5 6383.56 934.949   6
   5  -1   5 6051.45 860.205   6
   5  -1   5 6235.35 391.193   3
   5  -1   5 6248.72 674.909   1
   5  -1   5 6535.68 978.617   5
   5  -1   6 1657.64 501.034   5
  -5   1  -6 1583.85 465.768   4
   5  -1   6 1667.39 323.816   1
  -5   1  -6 949.345 370.139   6
   5  -1   6 1269.40 392.655   6
  -5   1  -7 15594.0 1596.91   4
   5  -1   7 16443.2 879.132   8
  -5   1  -7 13741.3 1420.48   6
   5  -1   7 14129.8 1290.17   6
   5  -1   7 15587.5 913.810   1
   5  -1   7 15656.3 1641.75   5
   5  -1   8 58.1974 167.445   5
  -5   1  -8 225.074 298.515   4
   5  -1   8 39.5648 29.4843   8
  -5   1  -8-11.9537 223.508   6
   5  -1   8 113.676 68.4235   1
   5  -1   9 6705.77 1166.06   5
  -5   1  -9 7493.64 1155.48   4
  -5   1  -9 5437.51 944.907   6
  -5   1 -10-254.514 287.665   4
  -5   1 -10-133.692 195.959   6
   5  -1  10-255.926 342.022   5
  -5   1 -11 7888.90 1267.44   4
  -5   1 -11 8274.34 1232.33   6
   5  -1  11 7902.09 1507.74   5
  -5   1 -12 314.433 272.612   4
  -5   1 -12 129.113 188.484   6
   5  -1  12 375.227 416.029   5
  -5   1 -13 1186.85 524.481   4
   5  -1  13 2416.06 970.726   5
   5   0 -10 272.391 190.377   3
  -5   0  10 399.044 441.932   7
   5   0  -9 2276.59 613.498   3
  -5   0   9 1667.69 840.452   7
   5   0  -8-52.3793 292.921   3
  -5   0   8 61.4354 180.520   7
  -5   0   7 4809.96 1167.85   7
   5   0  -7 6631.97 977.640   3
   5   0  -6 891.716 375.922   3
  -5   0   6 1341.57 555.048   7
   5   0  -5 2136.11 524.677   3
  -5   0   5 1357.71 520.522   7
   5   0  -4 3549.67 639.447   3
  -5   0   4 4465.59 991.629   7
  -5   0   3 5836.32 1058.24   7
   5   0  -3 5900.76 802.543   3
   5   0  -2-77.9781 101.394   3
  -5   0   2 30.8974 87.3305   4
  -5   0   2 276.710 249.787   3
   5   0  -2 123.431 84.4856   2
  -5   0   2 319.163 231.878   7
   5   0  -2-7.96225 173.984   6
   5   0  -2 103.912 62.2786   2
   5   0  -2-52.8051 149.111   1
  -5   0   1 40388.0 1625.96   4
   5   0  -1 38292.9 1582.45   4
  -5   0   1 37453.7 2511.45   7
   5   0  -1 39633.7 2409.42   7
   5   0  -1 38648.1 1512.44   2
   5   0  -1 41730.5 2691.08   6
   5   0  -1 41369.0 2084.38   3
  -5   0   1 39653.7 2359.01   3
   5   0  -1 36978.6 2231.96   1
  -5   0   0 5750.22 643.489   4
   5   0   0 5710.17 633.964   4
   5   0   0 6432.60 981.744   7
  -5   0   0 4722.35 858.094   7
   5   0   0 5604.05 950.794   6
   5   0   0 6085.61 749.266   3
   5   0   0 5679.08 819.098   1
  -5   0  -1 49158.6 2145.58   4
   5   0   1 48694.6 2146.03   4
  -5   0  -1 51969.1 2863.77   7
   5   0   1 51904.0 2896.84   7
   5   0   1 52323.9 2918.24   6
   5   0   1 55943.7 2316.94   3
   5   0   1 51802.2 2461.01   1
  -5   0  -2 7522.77 849.235   4
   5   0   2 8054.21 877.355   4
  -5   0  -2 7416.80 1037.08   7
   5   0   2 8466.75 1123.69   7
   5   0   2 8637.49 1122.45   6
   5   0   2 8314.71 793.761   3
   5   0   2 6527.82 801.246   1
   5   0   2 7824.38 929.119   5
  -5   0  -3 11960.7 1148.71   4
   5   0   3 13582.2 1214.51   4
   5   0   3 12321.8 1367.66   7
   5   0   3 14367.0 1430.28   6
   5   0   3 14230.6 1005.58   3
   5   0   3 12892.3 1078.75   1
   5   0   3 12366.0 1184.78   5
   5   0   4 1147.65 359.226   5
   5   0   4 1414.19 297.771   3
  -5   0  -4 936.874 345.650   4
   5   0   4 2275.24 526.271   4
   5   0   4 1721.83 512.418   7
  -5   0  -4 950.638 411.813   6
   5   0   4 1227.27 301.900   1
   5   0   4 1676.18 477.739   6
  -5   0  -5 16674.7 1481.15   4
   5   0   5 18390.0 1589.62   4
   5   0   5 17602.3 1720.58   7
  -5   0  -5 18071.2 1627.54   6
   5   0   5 19783.0 1605.88   6
   5   0   5 18943.8 1019.36   3
   5   0   5 17676.4 1509.15   5
   5   0   5 18186.0 1145.46   1
   5   0   6 34.6591 62.3040   1
   5   0   6-143.326 216.315   5
   5   0   6 53.8049 44.6107   3
  -5   0  -6 120.497 174.655   4
  -5   0  -6-3.32041 139.350   6
   5   0   6-178.238 152.575   6
   5   0   7 735.100 397.940   5
  -5   0  -7 82.5348 149.751   5
   5   0   7 154.821 79.5015   3
  -5   0  -7 85.7396 139.827   4
   5   0   7 130.604 74.8938   1
  -5   0  -7 746.439 367.160   6
   5   0   7 385.940 256.109   6
   5   0   7 150.405 56.4885   3
   5   0   8 660.437 330.230   5
  -5   0  -8 280.890 237.383   4
  -5   0  -8 296.231 225.391   6
  -5   0  -9 17633.9 1777.97   4
  -5   0  -9 17293.1 1755.71   6
   5   0   9 17473.4 1895.39   5
  -5   0 -10 75.4164 131.763   4
  -5   0 -10 420.141 273.711   6
   5   0  10-160.038 310.985   5
  -5   0 -11 4201.56 939.818   4
  -5   0 -11 4452.59 947.549   6
   5   0  11 3915.92 1025.99   5
  -5   0 -12 127.660 262.993   4
  -5   0 -12 641.072 407.964   6
   5   0  12-362.109 347.279   5
  -5   0 -13 836.581 440.200   4
  -5   0 -13 1463.82 575.634   6
   5   0  13 367.539 301.231   2
   5   0  13 1201.31 703.719   5
  -5   0 -14-390.234 315.500   6
   5   1 -10-116.375 295.781   3
  -5  -1  10-529.903 564.381   7
   5   1  -9 1473.05 526.266   3
  -5  -1   9 299.799 230.948   7
   5   1  -8-111.410 142.560   3
  -5  -1   8-196.765 334.698   7
   5   1  -7 425.843 256.300   3
  -5  -1   7 504.106 443.995   7
   5   1  -6 329.023 268.313   3
  -5  -1   6-919.600 484.662   7
  -5  -1   5 11759.9 1634.31   7
   5   1  -5 11872.2 1267.81   3
   5   1  -5 8051.37 1269.44   5
   5   1  -4 3122.20 619.121   3
  -5  -1   4 1795.46 578.286   7
  -5  -1   3 22358.9 2038.97   7
   5   1  -3 24494.9 1787.01   3
   5   1  -2 413.585 211.417   1
   5   1  -2 273.186 198.575   3
  -5  -1   2 850.445 365.190   7
   5   1  -2 1.65152 85.3367   7
   5   1  -2 527.416 350.444   6
   5   1  -1 8999.24 651.946   4
  -5  -1   1 8392.91 1120.49   7
   5   1  -1 8129.31 1076.26   7
   5   1  -1 7561.27 667.225   2
   5   1  -1 9252.15 1242.99   6
   5   1  -1 7718.82 931.983   3
   5   1  -1 6850.69 951.710   1
   5   1   0 2742.80 581.377   1
  -5  -1   0 3126.80 451.749   4
   5   1   0 3716.93 653.892   3
   5   1   0 3610.75 471.392   4
  -5  -1   0 2437.36 615.587   7
   5   1   0 2502.83 426.822   2
   5   1   0 3252.02 687.857   7
   5   1   0 3058.84 713.960   6
  -5  -1  -1 15719.8 1121.22   4
   5   1   1 17424.2 1158.83   4
  -5  -1  -1 16876.9 1555.07   7
   5   1   1 17792.5 1648.61   7
   5   1   1 15398.2 1134.11   2
   5   1   1 15421.3 1564.40   6
   5   1   1 18437.5 1377.11   3
   5   1   1 15669.7 1335.31   1
  -5  -1  -2 9699.87 936.232   4
   5   1   2 8207.94 857.288   4
  -5  -1  -2 8933.37 1138.86   7
   5   1   2 9638.01 1207.17   7
   5   1   2 8214.91 882.207   2
   5   1   2 9257.85 1188.18   6
   5   1   2 10071.6 1001.33   3
   5   1   2 8261.67 863.124   5
   5   1   2 10355.0 1022.14   1
   5   1   3 58315.2 2453.58   1
  -5  -1  -3 53056.6 2454.18   4
   5   1   3 60199.0 2633.52   4
   5   1   3 58396.5 3057.05   7
  -5  -1  -3 55788.8 2964.92   6
   5   1   3 56802.7 2991.30   6
   5   1   3 61350.6 2471.11   3
   5   1   3 56189.3 2424.29   5
   5   1   4 1574.76 395.954   5
   5   1   4 1097.62 303.414   1
   5   1   4 1037.45 299.745   3
  -5  -1  -4 2152.32 485.054   4
   5   1   4 1587.01 446.291   4
   5   1   4 769.300 348.278   7
  -5  -1  -4 1451.82 467.044   6
   5   1   4 2114.24 545.236   6
   5   1   5 7255.82 713.819   1
  -5  -1  -5 6610.95 905.403   4
   5   1   5 7048.71 980.825   4
   5   1   5 8486.57 1160.16   7
  -5  -1  -5 8563.52 1144.17   6
   5   1   5 8719.38 1077.93   6
   5   1   5 7713.37 777.824   3
   5   1   5 7111.59 867.156   5
   5   1   6 67.0748 111.166   5
  -5  -1  -6 163.091 123.952   4
   5   1   6 420.555 219.828   4
  -5  -1  -6 415.975 253.094   6
   5   1   6 410.366 248.601   6
   5   1   6 425.248 145.477   1
  -5  -1  -7 8675.79 1106.47   4
   5   1   7 7531.12 554.366   1
   5   1   7 8272.99 587.637   3
  -5  -1  -7 7726.64 1142.24   6
   5   1   7 9827.76 1130.62   6
   5   1   7 8464.24 1079.69   5
  -5  -1  -7 8482.90 1107.73   5
  -5  -1  -8 1470.18 467.033   5
  -5  -1  -8 1351.00 456.373   4
   5   1   8 1947.57 256.176   3
  -5  -1  -8 1919.85 602.350   6
   5   1   8 1218.63 424.917   5
  -5  -1  -9 5987.61 1002.87   4
   5   1   9 5581.75 453.504   3
  -5  -1  -9 5889.84 1054.05   6
   5   1   9 5814.81 1073.15   5
  -5  -1 -10-49.1374 196.085   4
  -5  -1 -10 335.616 266.281   6
   5   1  10 14.2966 141.903   2
   5   1  10 409.606 379.148   5
  -5  -1 -11 3130.04 779.050   4
   5   1  11 2969.22 778.225   2
  -5  -1 -11 5274.49 1068.36   6
   5   1  11 4295.60 1092.21   5
  -5  -1 -12 548.355 368.837   4
   5   1  12 468.505 328.102   2
  -5  -1 -12 456.045 334.405   6
   5   1  12 471.634 408.322   5
  -5  -1 -13 1488.28 615.365   4
   5   1  13 1387.69 625.772   2
  -5  -1 -13 1602.06 652.005   6
   5   1  13 1723.44 710.205   5
  -5  -1 -14 568.345 445.840   6
   5   1  14 876.968 567.553   5
  -5  -1 -15 389.100 290.278   6
  -5  -2  10-79.0453 529.778   7
   5   2  -9 819.542 390.441   3
  -5  -2   9-107.425 323.389   7
   5   2  -8 532.104 328.721   3
  -5  -2   8-252.448 311.985   7
   5   2  -7 5568.37 960.901   3
  -5  -2   7 3757.87 1056.14   7
   5   2  -6 525.031 335.350   3
  -5  -2   6 931.140 427.753   7
   5   2  -5 1874.67 514.745   3
  -5  -2   5 1055.22 498.271   7
   5   2  -5 986.723 441.210   5
   5   2  -4-198.247 312.984   3
  -5  -2   4 101.629 223.193   7
   5   2  -4 120.163 246.573   5
   5   2  -3 4243.35 775.271   3
  -5  -2   3 4035.05 843.312   7
   5   2  -2 3909.70 757.704   3
   5   2  -2 3706.42 286.532   2
  -5  -2   2 4147.28 845.147   7
   5   2  -2 4785.73 846.450   7
   5   2  -1 45166.4 2591.67   1
   5   2  -1 43703.5 1513.53   4
  -5  -2   1 45752.6 2703.72   7
   5   2  -1 45623.4 1776.97   2
   5   2  -1 42272.0 2484.84   7
   5   2  -1 46031.2 2895.22   6
   5   2  -1 51427.3 2672.31   3
   5   2   0-93.3160 241.884   3
   5   2   0-53.9172 121.418   2
   5   2   0 159.898 103.497   4
   5   2   0-90.6011 230.837   1
  -5  -2   0-30.6205 148.412   7
   5   2   0 299.028 210.871   7
   5   2   0-127.326 169.054   6
   5   2   1 14900.8 1343.51   1
   5   2   1 14448.9 1061.08   4
   5   2   1 15807.8 1534.36   7
  -5  -2  -1 14311.8 1431.47   7
   5   2   1 14179.2 1197.39   2
   5   2   1 13838.4 1482.78   6
   5   2   1 14289.0 1324.56   3
   5   2   2 1741.68 345.112   5
   5   2   2 2619.34 564.521   3
   5   2   2 2480.62 484.809   4
   5   2   2 1811.03 436.564   2
   5   2   2 2152.20 561.827   7
   5   2   2 2088.46 471.059   1
  -5  -2  -2 1334.57 445.615   6
   5   2   2 1764.48 529.186   6
   5   2   3 21927.8 1497.63   1
  -5  -2  -3 20615.7 1483.73   4
   5   2   3 21548.0 1507.69   4
   5   2   3 21742.2 1804.67   7
   5   2   3 21853.2 1631.49   2
  -5  -2  -3 22067.0 1854.98   6
   5   2   3 21950.3 1824.69   6
   5   2   3 22231.0 1565.45   3
   5   2   3 22027.6 1268.37   5
   5   2   4 259.547 143.604   5
   5   2   4-86.6260 126.837   1
  -5  -2  -4 75.2729 95.5513   4
   5   2   4 245.492 173.015   4
   5   2   4 27.6202 93.1939   7
   5   2   4 320.538 262.229   2
  -5  -2  -4 146.388 153.492   6
   5   2   4-59.1565 195.304   6
  -5  -2  -5 27238.8 1832.32   4
   5   2   5 27736.0 1935.35   4
   5   2   5 25680.3 1439.93   1
   5   2   5 27172.2 2106.62   7
   5   2   5 25846.0 1940.23   2
  -5  -2  -5 27817.9 2184.74   6
   5   2   5 25707.3 1930.61   6
   5   2   5 25692.8 1563.95   5
  -5  -2  -6 1181.78 411.039   4
   5   2   6 1515.21 464.774   4
   5   2   6 1033.13 407.762   2
  -5  -2  -6 1054.32 433.703   6
   5   2   6 964.871 392.879   6
   5   2   6 901.882 229.398   1
   5   2   6 1042.80 332.627   5
  -5  -2  -7 11649.1 1316.26   4
   5   2   7 11963.7 1428.16   2
  -5  -2  -7 12491.0 1520.41   6
   5   2   7 13478.2 1341.03   5
  -5  -2  -7 13667.8 1340.04   5
  -5  -2  -8 3079.25 678.764   5
  -5  -2  -8 2365.68 609.106   4
   5   2   8 2455.47 202.009   8
   5   2   8 2825.88 383.663   3
   5   2   8 3220.45 762.061   2
  -5  -2  -8 2837.48 758.253   6
   5   2   8 2122.16 607.261   5
  -5  -2  -9 4655.35 896.174   5
  -5  -2  -9 4229.31 857.651   4
   5   2   9 5719.78 521.042   3
   5   2   9 4667.21 915.726   2
  -5  -2  -9 5015.01 1031.30   6
   5   2   9 3537.88 865.956   5
  -5  -2 -10 958.436 459.169   4
   5   2  10 845.591 445.240   2
  -5  -2 -10 470.301 330.813   6
   5   2  10 778.561 204.392   3
   5   2  10 204.576 257.841   5
  -5  -2 -11 9199.51 1350.51   4
   5   2  11 10338.8 1567.90   2
  -5  -2 -11 11741.8 1692.17   6
   5   2  11 8493.54 1527.99   5
   5   2  12 579.165 496.483   2
  -5  -2 -12-81.7458 236.602   6
   5   2  12 159.251 388.949   5
   5   2  13-438.832 405.053   2
  -5  -2 -13-3.14035 210.322   6
   5   2  13 554.977 513.962   5
  -5  -2 -14 33.6148 146.318   6
  -5  -2 -15 466.325 376.661   6
  -5  -3  10 952.125 695.136   7
   5   3  -9 722.721 370.443   3
  -5  -3   9 366.436 342.495   7
   5   3  -8 490.826 268.401   3
  -5  -3   8-83.5236 361.570   7
   5   3  -7 469.020 271.829   3
  -5  -3   7 848.929 479.808   7
   5   3  -6-113.459 160.514   3
  -5  -3   6-223.618 361.145   7
   5   3  -5 1879.23 565.256   3
  -5  -3   5 2870.17 822.194   7
   5   3  -5 1817.18 563.641   5
   5   3  -4 4458.36 853.532   3
  -5  -3   4 4907.37 891.965   1
  -5  -3   4 6237.37 1104.17   7
   5   3  -4 4670.38 816.897   5
  -5  -3   3 20354.7 1893.18   7
   5   3  -3 19829.4 1759.83   7
   5   3  -3 21531.7 1874.19   3
  -5  -3   3 18437.7 1738.97   1
   5   3  -3 17334.1 1500.80   5
   5   3  -2-87.3673 255.337   3
   5   3  -2 53.6587 33.4846   4
  -5  -3   2 262.025 244.355   1
  -5  -3   2 370.555 267.923   7
   5   3  -2 312.870 193.707   7
   5   3  -2 51.8100 60.2438   2
   5   3  -2 161.396 177.011   5
   5   3  -1 3508.46 736.911   3
   5   3  -1 2011.48 304.295   4
  -5  -3   1 1588.67 500.784   1
  -5  -3   1 1856.71 511.666   7
   5   3  -1 2022.91 525.177   7
   5   3  -1 2014.53 619.839   6
   5   3  -1 2437.19 403.096   2
   5   3  -1 1929.91 416.138   5
   5   3   0 1244.24 341.476   2
   5   3   0 975.774 389.184   1
   5   3   0 934.758 412.558   3
   5   3   0 710.282 199.239   4
  -5  -3   0 932.458 387.129   1
  -5  -3   0 759.154 334.063   7
   5   3   0 1531.52 459.789   7
   5   3   0 511.068 289.945   6
   5   3   1 42818.3 2392.11   1
   5   3   1 40257.6 1862.07   4
  -5  -3  -1 40820.4 2449.83   7
   5   3   1 45601.1 2634.98   7
   5   3   1 44295.3 2351.86   2
   5   3   1 40132.0 2621.80   6
   5   3   1 41903.2 2480.12   3
  -5  -3  -1 42544.5 2331.47   1
   5   3   1 41018.4 1464.01   5
   5   3   2 1101.02 197.411   5
   5   3   2 1055.18 334.696   3
   5   3   2 811.283 312.812   2
   5   3   2 1055.33 326.476   1
   5   3   2 1397.33 359.467   4
  -5  -3  -2 1411.47 401.358   1
   5   3   2 1282.73 448.708   7
  -5  -3  -2 962.515 421.684   6
   5   3   2 1426.22 482.242   6
   5   3   3 8970.08 972.435   4
   5   3   3 8177.40 941.226   1
   5   3   3 9207.63 1145.25   7
   5   3   3 7443.03 1040.06   2
  -5  -3  -3 6919.16 1055.48   6
   5   3   3 8674.88 1162.18   6
  -5  -3  -3 8654.90 936.436   1
   5   3   3 7565.65 586.872   5
   5   3   4 4730.26 751.502   4
   5   3   4 3757.57 606.599   1
   5   3   4 4028.84 794.653   2
   5   3   4 4427.12 797.220   7
  -5  -3  -4 4122.96 815.804   6
   5   3   4 3826.09 737.943   6
  -5  -3  -4 4028.83 623.445   1
   5   3   4 3243.28 439.206   5
   5   3   5 47595.8 2641.12   4
   5   3   5 41466.3 1973.36   1
   5   3   5 46204.7 2742.27   7
   5   3   5 45677.2 2791.49   2
  -5  -3  -5 44864.5 2886.13   6
   5   3   5 46006.9 2655.14   6
  -5  -3  -5 48405.6 2108.94   1
   5   3   5 45025.5 2038.40   5
  -5  -3  -6 61.3879 97.8577   5
   5   3   6 137.538 177.216   4
   5   3   6 95.2181 156.059   2
  -5  -3  -6 109.180 141.561   6
   5   3   6 59.3777 150.936   5
   5   3   7 3530.66 449.918   8
   5   3   7 3233.49 810.732   2
  -5  -3  -7 3871.73 891.276   6
   5   3   7 2690.11 615.435   5
  -5  -3  -8 226.560 168.858   5
   5   3   8-35.0190 78.0818   8
   5   3   8-62.7246 214.117   2
  -5  -3  -8 344.900 343.482   6
   5   3   8 64.2020 53.5185   3
   5   3   8-112.328 135.164   5
   5   3   9 11031.8 1555.76   2
   5   3   9 11009.2 840.649   3
  -5  -3  -9 15004.8 1841.35   6
   5   3   9 8910.93 1303.69   5
  -5  -3  -9 12786.6 1422.17   5
   5   3  10-180.038 248.273   2
  -5  -3 -10-5.48629 227.599   6
   5   3  10 244.567 131.644   3
   5   3  11 4547.85 1051.29   2
  -5  -3 -11 3101.69 934.041   6
   5   3  11 3079.39 831.269   5
   5   3  12-426.420 232.205   2
  -5  -3 -12 63.8341 150.451   6
   5   3  13 4399.01 1182.58   2
  -5  -3 -13 3118.08 988.396   6
  -5  -3 -14 213.027 374.388   6
  -5  -4  10-535.856 462.592   7
  -5  -4   9-60.1905 177.747   7
   5   4  -8 305.224 259.827   3
  -5  -4   8-692.834 462.151   7
   5   4  -7 2413.08 694.529   3
  -5  -4   7 1626.28 680.246   7
   5   4  -6 1516.02 571.883   3
  -5  -4   6 1105.47 481.941   1
  -5  -4   6 816.431 505.229   7
   5   4  -5 2492.63 670.429   3
  -5  -4   5 3641.97 813.124   1
  -5  -4   5 2582.61 730.387   7
   5   4  -4 199.349 195.937   5
   5   4  -4-315.257 186.923   3
  -5  -4   4-228.964 305.353   1
  -5  -4   4 162.775 224.534   7
   5   4  -3 656.567 386.596   3
  -5  -4   3 1732.33 554.164   7
  -5  -4   3 1410.02 473.934   1
   5   4  -3 1069.53 325.425   5
   5   4  -2 2764.04 714.389   3
   5   4  -2 1431.49 234.892   4
  -5  -4   2 1429.20 470.647   7
  -5  -4   2 2154.04 596.676   1
   5   4  -2 1432.96 474.170   7
   5   4  -2 1120.07 276.459   2
   5   4  -2 1537.78 337.849   5
   5   4  -1 39886.7 1620.45   4
   5   4  -1 44164.2 2058.88   2
  -5  -4   1 40405.6 2514.66   7
   5   4  -1 39669.9 2355.05   7
   5   4  -1 44298.7 2792.74   3
   5   4  -1 38145.6 1465.77   5
  -5  -4   1 42070.5 2576.40   1
   5   4   0 4038.69 536.309   4
   5   4   0 4037.82 821.834   3
  -5  -4   0 4301.65 759.281   7
   5   4   0 3186.56 662.401   7
   5   4   0 3469.88 772.660   6
   5   4   0 3676.07 283.294   5
  -5  -4   0 5572.59 920.899   1
   5   4   0 4755.69 736.325   2
   5   4   1 5859.50 867.488   2
   5   4   1 6537.40 747.243   4
   5   4   1 5270.88 864.491   1
   5   4   1 5339.78 888.349   3
   5   4   1 6080.45 930.057   7
   5   4   1 6206.40 1015.37   6
  -5  -4  -1 6372.26 928.622   1
   5   4   2 1482.44 448.014   2
   5   4   2 1244.09 356.673   4
   5   4   2 997.285 393.930   7
  -5  -4  -2 641.953 346.306   6
  -5  -4  -2 1639.60 484.507   1
   5   4   2 813.806 330.889   6
   5   4   2 1008.40 333.406   1
   5   4   3 27776.5 1789.99   4
   5   4   3 24531.4 1734.49   1
   5   4   3 25599.9 1942.34   7
   5   4   3 27844.5 2182.42   2
  -5  -4  -3 25204.1 2121.29   6
  -5  -4  -3 25504.2 1757.93   1
   5   4   4-333.045 253.169   2
   5   4   4 287.150 132.192   4
   5   4   4 317.430 214.306   7
  -5  -4  -4-83.9565 249.777   6
  -5  -4  -4 609.453 281.972   1
   5   4   5 6975.14 984.064   4
   5   4   5 5455.30 996.087   2
   5   4   5 4591.49 847.619   7
  -5  -4  -5 6165.73 1089.23   6
  -5  -4  -5 5739.15 759.088   1
  -5  -4  -6 234.395 103.304   5
   5   4   6 559.708 405.854   2
  -5  -4  -6 455.550 214.094   1
  -5  -4  -6 189.543 125.616   6
   5   4   7 11611.8 912.062   8
   5   4   7 12756.5 1655.75   2
  -5  -4  -7 11599.4 1593.82   6
  -5  -4  -7 11578.9 958.090   1
  -5  -4  -7 10922.6 1063.74   5
   5   4   8 106.426 70.0330   8
  -5  -4  -8 124.682 114.110   1
   5   4   8 394.281 354.341   2
  -5  -4  -8 154.591 172.679   6
   5   4   8 224.475 126.190   3
  -5  -4  -9 2499.23 600.382   5
   5   4   9 3131.61 873.141   2
  -5  -4  -9 2976.94 909.169   6
   5   4   9 2769.75 468.521   3
  -5  -4 -10 1077.18 424.238   5
   5   4  10 2904.78 839.528   2
  -5  -4 -10 2071.14 789.426   6
   5   4  10 1625.10 343.045   3
   5   4  11 11093.8 1767.16   2
  -5  -4 -11 12705.4 1915.39   6
   5   4  12 990.582 618.381   2
  -5  -4 -12-412.864 411.873   6
   5   4  13 1104.14 560.069   2
  -5  -4 -13 2582.84 937.549   6
  -5  -4 -14-316.304 456.823   6
  -5  -5   9 1241.43 650.332   7
  -5  -5   8-69.7595 126.349   7
   5   5  -7 880.546 434.791   3
  -5  -5   7 1621.56 593.526   1
  -5  -5   7 1200.52 532.908   7
   5   5  -6-251.773 335.457   3
  -5  -5   6 97.3433 169.417   1
  -5  -5   6 175.868 161.373   7
   5   5  -5 2037.75 663.008   3
  -5  -5   5 1215.80 514.275   7
  -5  -5   5 957.755 435.440   1
   5   5  -4 1273.52 517.644   3
  -5  -5   4 1224.38 466.545   7
  -5  -5   4 2149.05 642.516   1
   5   5  -3 6545.67 529.667   4
  -5  -5   3 7024.76 1066.79   7
  -5  -5   3 6325.59 725.999   2
  -5  -5   3 6577.27 1102.31   1
   5   5  -3 8663.72 1297.72   3
   5   5  -2 5978.67 612.351   4
   5   5  -2 6648.72 1147.02   3
   5   5  -2 6642.41 791.185   2
  -5  -5   2 5745.61 949.595   7
   5   5  -2 6223.14 957.776   7
  -5  -5   2 5230.88 689.898   2
   5   5  -2 6764.86 598.600   5
  -5  -5   2 7705.72 1173.67   1
   5   5  -1-2.58654 30.6258   5
   5   5  -1 195.879 153.312   4
   5   5  -1 38.2110 181.617   3
  -5  -5   1 27.7496 89.3929   7
   5   5  -1 506.330 270.805   7
   5   5  -1 37.3893 147.063   2
  -5  -5   1 473.197 345.106   1
   5   5   0 224.427 176.230   4
   5   5   0-2.01858 279.175   3
  -5  -5   0 64.4188 206.867   7
   5   5   0-95.2352 162.393   7
   5   5   0-164.086 183.559   2
  -5  -5   0 19.4834 146.819   1
   5   5   1 16475.7 1320.39   4
   5   5   1 16712.3 1589.63   2
   5   5   1 16501.3 1527.92   7
  -5  -5  -1 14862.3 1327.79   2
  -5  -5  -1 17475.1 1733.92   6
  -5  -5  -1 16912.6 1621.43   1
   5   5   2 1961.59 582.121   2
   5   5   2 1485.64 409.066   4
   5   5   2 1634.23 475.291   7
  -5  -5  -2 1834.21 531.323   6
  -5  -5  -2 2847.21 605.321   2
  -5  -5  -2 1319.27 435.704   1
   5   5   3 12070.6 1253.76   4
   5   5   3 10906.8 1265.29   7
   5   5   3 10670.9 1431.11   2
  -5  -5  -3 10866.9 1210.90   2
  -5  -5  -3 10009.4 1363.19   6
  -5  -5  -3 11482.8 1281.64   1
  -5  -5  -4 3749.88 697.672   1
   5   5   4 3759.75 881.648   2
   5   5   4 4216.16 767.286   4
   5   5   4 3432.64 711.797   7
  -5  -5  -4 4036.24 904.740   6
   5   5   5 6317.18 1002.82   4
   5   5   5 7583.08 1237.93   2
   5   5   5 6898.27 879.849   8
   5   5   5 5719.23 937.398   7
  -5  -5  -5 6718.24 1187.05   6
  -5  -5  -5 6945.27 906.855   1
  -5  -5  -6 310.755 217.380   1
   5   5   6 359.601 201.391   8
  -5  -5  -6-65.4027 208.093   6
   5   5   7 8329.12 1414.04   2
   5   5   7 7605.18 786.440   8
  -5  -5  -7 8494.97 1406.40   6
  -5  -5  -7 7034.96 783.106   5
  -5  -5  -7 7698.17 889.250   1
   5   5   8 266.960 346.857   2
   5   5   8 63.9355 69.7730   8
  -5  -5  -8 433.464 452.710   6
  -5  -5  -8 381.188 204.388   1
  -5  -5  -9 2033.16 525.032   5
   5   5   9 2797.42 907.448   2
  -5  -5  -9 2288.78 408.179   1
  -5  -5  -9 2342.74 806.331   6
  -5  -5 -10 126.873 198.456   5
   5   5  10 487.109 503.830   2
  -5  -5 -10-8.08864 60.1431   1
  -5  -5 -10 138.522 218.760   6
   5   5  11 3183.54 981.460   2
  -5  -5 -11 1832.56 781.372   6
   5   5  12 262.975 230.245   2
  -5  -5 -12 306.366 235.962   6
   5   5  13 3291.90 1080.91   2
  -5  -5 -13 1541.92 768.293   6
   5   6  -7 524.391 367.150   3
   5   6  -6 209.251 196.629   3
  -5  -6   6-51.4205 133.118   7
  -5  -6   6 423.394 334.759   1
   5   6  -5 4130.48 983.326   3
  -5  -6   5 3079.48 761.595   7
  -5  -6   5 4501.48 984.305   1
   5   6  -4 1059.33 567.098   3
  -5  -6   4 890.691 395.518   7
  -5  -6   4 610.979 425.954   1
   5   6  -3 1046.54 554.822   3
  -5  -6   3 244.998 219.502   7
  -5  -6   3 588.081 378.158   1
   5   6  -2-158.749 258.684   3
  -5  -6   2 59.7368 94.5584   2
  -5  -6   2-43.6858 183.937   7
   5   6  -2 63.9271 115.453   2
  -5  -6   2-217.259 178.823   1
   5   6  -1 1704.60 400.784   4
   5   6  -1 2613.57 718.681   3
  -5  -6   1 1745.03 466.553   7
  -5  -6   1 2388.91 590.096   2
   5   6  -1 2070.42 536.246   7
   5   6  -1 2536.54 580.975   2
  -5  -6   1 1674.61 584.591   1
  -5  -6   0 2898.85 754.598   1
   5   6   0 2316.30 491.493   4
  -5  -6   0 2566.06 611.154   2
   5   6   0 2125.39 506.677   7
   5   6   0 2298.75 585.406   2
   5   6   1 7984.07 970.924   4
   5   6   1 8952.02 1222.58   2
   5   6   1 7829.37 1011.31   7
  -5  -6  -1 8887.24 1150.52   2
  -5  -6  -1 7710.20 1201.72   6
  -5  -6  -1 8343.06 1201.17   1
  -5  -6  -2 682.981 319.903   1
   5   6   2 901.811 329.138   4
   5   6   2 755.400 351.381   7
  -5  -6  -2 1029.92 414.083   2
  -5  -6  -2 831.559 425.188   6
   5   6   2 797.194 421.058   2
   5   6   3 2990.43 777.523   2
  -5  -6  -3 1459.99 440.257   1
   5   6   3 1594.06 455.559   4
   5   6   3 1941.16 524.772   7
  -5  -6  -3 1509.54 489.768   2
  -5  -6  -3 1556.41 552.606   6
   5   6   4 4018.06 900.369   2
  -5  -6  -4 4142.35 784.670   1
   5   6   4 2583.03 612.962   7
  -5  -6  -4 2892.45 757.335   6
  -5  -6  -5 14889.8 1476.36   1
   5   6   5 16382.7 1433.36   8
   5   6   5 15344.2 1545.58   7
   5   6   5 17940.0 2013.66   2
  -5  -6  -5 13544.2 1740.11   6
   5   6   6 2712.67 858.878   2
  -5  -6  -6 2709.93 612.759   1
   5   6   6 2798.95 548.204   8
  -5  -6  -6 2791.43 800.785   6
   5   6   7 3578.29 954.050   2
  -5  -6  -7 2322.31 562.582   1
   5   6   7 1948.67 420.477   8
  -5  -6  -7 3969.69 1013.06   6
  -5  -6  -7 3056.91 448.817   5
  -5  -6  -8 59.9653 131.291   5
  -5  -6  -8 2.58376 89.0877   1
   5   6   8 94.8309 204.295   2
   5   6   8-40.4489 70.3882   8
  -5  -6  -8 412.984 281.959   6
  -5  -6  -9 1945.39 443.885   1
   5   6   9 2751.43 925.698   2
  -5  -6  -9 2192.82 771.506   6
   5   6  10-142.875 399.213   2
  -5  -6 -10-376.632 425.389   6
  -5  -6 -10 89.7492 95.2865   1
   5   6  11 1951.94 807.723   2
  -5  -6 -11 1068.17 734.032   6
   5   6  12 72.9677 458.382   2
  -5  -6 -12 134.398 362.290   6
  -5  -6 -13 1715.96 907.617   6
   5   7  -5 1083.71 525.906   3
  -5  -7   5 1159.90 546.679   1
   5   7  -4 65.2635 159.410   3
  -5  -7   4 406.710 256.453   7
  -5  -7   4-29.2057 162.784   1
   5   7  -3 2557.77 759.835   3
  -5  -7   3 2827.67 631.342   7
  -5  -7   3 2508.39 775.110   1
   5   7  -2 1225.78 552.864   3
  -5  -7   2 968.511 362.213   7
   5   7  -2 790.050 277.607   4
  -5  -7   2 1486.09 577.141   1
  -5  -7   1 2405.69 716.038   1
   5   7  -1 2307.85 750.022   3
  -5  -7   1 2302.15 629.408   2
   5   7  -1 1875.32 531.038   2
  -5  -7   0-84.0344 178.482   1
  -5  -7   0-113.341 126.539   2
  -5  -7  -1 423.176 233.035   1
   5   7   1 424.604 227.841   7
  -5  -7  -1 340.101 280.192   6
   5   7   1 69.2429 171.109   2
   5   7   2-33.9015 91.1953   4
  -5  -7  -2-158.015 166.981   1
   5   7   2-167.418 151.747   7
  -5  -7  -2 13.5395 166.839   6
   5   7   2-95.4270 283.993   2
  -5  -7  -3 11912.2 1546.16   1
   5   7   3 11924.9 1638.92   2
   5   7   3 11000.8 1245.06   7
  -5  -7  -3 10881.2 1523.23   6
   5   7   4 1723.73 661.035   2
  -5  -7  -4 2415.07 673.006   1
   5   7   4 2058.43 544.492   7
  -5  -7  -4 1343.19 545.049   6
   5   7   5 1416.41 700.321   2
  -5  -7  -5 1738.17 538.182   1
   5   7   5 1732.19 515.899   7
  -5  -7  -5 1270.92 579.641   6
   5   7   6 541.298 352.019   2
  -5  -7  -6 1295.66 459.249   1
  -5  -7  -6 1644.30 670.851   6
  -5  -7  -7 5450.90 946.038   1
   5   7   7 5670.93 1250.26   2
  -5  -7  -7 5388.91 1244.33   6
   5   7   8 662.344 567.109   2
  -5  -7  -8-39.9269 113.572   1
  -5  -7  -8 314.079 325.957   6
   5   7   9 1512.89 631.714   2
  -5  -7  -9 1225.51 419.084   1
  -5  -7  -9 1746.71 763.153   6
   5   7  10 40.6724 401.944   2
  -5  -7 -10-101.795 119.875   1
  -5  -7 -10 539.854 512.027   6
   5   7  11 1208.22 641.404   2
  -5  -7 -11 1388.18 764.632   6
   5   7  12 517.851 544.274   2
  -5  -7 -12-682.979 529.310   6
   5   8  -4-722.906 453.633   3
   5   8  -3 1337.70 551.900   3
  -5  -8   3 794.241 443.179   1
  -5  -8   2-228.919 232.247   1
   5   8  -2 343.312 308.966   3
  -5  -8   1 1630.65 647.314   1
   5   8  -1 1478.78 658.178   3
   5   8  -1 344.345 174.957   2
  -5  -8   0 460.616 394.176   1
   5   8   0 921.277 422.637   2
  -5  -8  -1 4349.16 1008.76   1
   5   8   1 3441.51 850.069   2
  -5  -8  -2-118.728 331.424   1
  -5  -8  -2 81.8416 218.578   6
   5   8   2-285.024 370.956   2
  -5  -8  -3 907.178 474.077   1
  -5  -8  -3 642.450 414.789   6
   5   8   3 1640.01 644.787   2
  -5  -8  -4 49.0935 201.647   1
  -5  -8  -4-146.217 282.033   6
   5   8   4-210.536 268.006   2
  -5  -8  -5 3992.68 906.707   1
  -5  -8  -5 3511.13 947.593   6
   5   8   5 2681.63 887.870   2
   5   8   6 360.529 337.461   2
  -5  -8  -6 160.653 247.378   1
  -5  -8  -6 205.782 238.482   6
   5   8   7 3729.60 1034.14   2
  -5  -8  -7 2143.49 642.200   1
  -5  -8  -7 2306.22 859.741   6
   5   8   8 641.207 392.981   2
  -5  -8  -8 927.216 446.858   1
  -5  -8  -8 1296.06 656.140   6
   5   8   9 846.609 485.908   2
  -5  -8  -9 1813.25 560.836   1
  -5  -8  -9 2301.40 968.842   6
   5   8  10 323.243 490.124   2
  -5  -8 -10 349.000 237.566   1
  -5  -8 -10-352.795 623.139   6
   5   8  11 1654.55 809.664   2
  -5  -8 -11 1082.95 707.808   6
   5   9  -2-81.5845 326.740   3
  -5  -9   1 782.122 582.210   1
   5   9  -1 1008.27 568.008   3
   5   9  -1 1421.62 535.983   2
  -5  -9   0 202.183 349.392   1
   5   9   0 430.629 285.712   2
  -5  -9  -1 986.829 559.529   1
   5   9   1 1699.11 644.643   2
  -5  -9  -2 284.173 212.092   1
  -5  -9  -2-313.942 152.964   6
   5   9   2 167.786 257.611   2
  -5  -9  -3 1359.12 640.647   1
  -5  -9  -3 1835.43 643.236   6
   5   9   3 1745.84 693.655   2
  -5  -9  -4 230.568 288.141   1
  -5  -9  -4 538.946 361.767   6
   5   9   4 859.250 516.861   2
  -5  -9  -5 2444.93 812.494   6
  -5  -9  -5 1491.71 607.778   1
   5   9   5 1233.83 591.440   2
  -5  -9  -6 691.575 471.392   6
  -5  -9  -6 896.068 485.179   1
   5   9   6 906.722 583.357   2
  -5  -9  -7-91.7747 365.641   6
  -5  -9  -7 962.471 471.142   1
   5   9   7 1585.82 679.452   2
   5   9   8-83.5482 263.089   2
  -5  -9  -8-189.126 209.371   6
  -5  -9  -8 368.719 234.673   1
   5   9   9 1354.18 678.443   2
  -5  -9  -9 250.482 320.671   6
  -5  -9  -9 480.342 338.745   1
  -5  -9 -10 195.631 351.781   6
   5  10   0 390.783 375.666   2
   5  10   1 968.752 514.301   2
  -5 -10  -2 123.394 187.353   1
  -5 -10  -2 564.608 380.698   6
   5  10   2-280.361 413.658   2
  -5 -10  -3 1186.56 629.221   1
  -5 -10  -3 812.617 386.208   6
   5  10   3 594.582 451.365   2
  -5 -10  -4 986.913 566.292   6
  -5 -10  -4 86.0340 262.915   1
   5  10   4 581.412 405.191   2
  -5 -10  -5 1641.61 728.817   6
  -5 -10  -5 868.072 499.235   1
   5  10   5 884.996 667.463   2
  -5 -10  -6-494.737 407.883   6
   5  10   6 109.245 384.278   2
  -5 -10  -6-118.896 176.056   1
  -5 -10  -7 1191.38 579.441   1
  -5 -10  -7 416.967 403.041   6
   5  10   7 1099.10 578.141   2
  -5 -10  -8-420.919 345.922   1
  -5 -10  -8-139.281 250.397   6
  -5 -10  -9 892.493 479.904   1
   5  11   1 367.474 429.888   2
   5  11   2-240.407 211.711   2
   5  11   3 211.189 288.420   2
  -5 -11  -4-190.771 309.904   6
   5  11   4 369.496 352.115   2
  -5 -11  -5 689.784 551.171   6
  -5 -11  -6 174.815 253.220   6
  -5 -11  -6-413.571 384.271   1
  -5 -11  -7 510.125 429.577   1
  -5 -11  -7 339.970 374.250   6
  -5 -11  -8-611.521 443.054   1
  -6   8   5 671.230 493.141   4
  -6   8   5 194.634 307.193   7
   6  -8  -5 1.94944 89.2842   3
  -6   8   4 915.892 532.135   4
  -6   8   4 949.076 486.414   7
   6  -8  -4 791.154 373.032   3
  -6   8   3 339.189 324.243   4
  -6   8   3 202.993 160.069   7
   6  -8  -3-86.7657 179.708   3
  -6   8   2 518.000 349.633   4
  -6   8   2 376.918 313.990   7
   6  -8  -1-600.302 378.778   8
  -6   8   1-425.682 373.071   4
  -6   8   1-291.318 337.477   7
   6  -8   0 249.626 276.894   8
  -6   8   0 53.4728 151.746   4
   6  -8   1 196.491 233.974   8
  -6   8  -1-399.053 352.139   4
   6  -8   2 3686.15 919.653   8
   6  -8   3-72.8466 169.032   8
   6  -8   4 280.192 377.505   8
   6  -8   5 575.049 364.585   8
  -6   7   6 620.856 443.885   7
   6  -7  -6 952.701 374.567   3
  -6   7   5 509.108 406.822   4
  -6   7   5 82.6202 229.551   7
   6  -7  -5 100.183 167.595   3
  -6   7   4 1646.49 642.782   4
  -6   7   4 1176.29 613.425   7
   6  -7  -4 1505.43 461.985   3
  -6   7   3 111.763 197.325   4
  -6   7   3 354.094 317.784   7
   6  -7  -3-194.166 224.049   3
  -6   7   2 1774.68 697.312   4
  -6   7   2 1214.65 571.650   7
   6  -7  -2 1104.43 374.890   3
  -6   7   1-92.9996 181.062   4
  -6   7   1-415.118 318.828   7
   6  -7  -1-233.949 211.848   3
   6  -7   0 2345.06 931.690   5
  -6   7   0 2117.94 804.626   4
   6  -7   1 517.011 332.912   5
   6  -7   1 249.824 230.702   8
  -6   7  -1-20.7937 232.971   4
   6  -7   2 438.887 330.921   8
  -6   7  -2 281.258 252.090   4
   6  -7   3-154.098 358.571   5
  -6   7  -3-132.169 203.788   4
   6  -7   4 1411.35 683.375   5
   6  -7   4 1622.81 550.349   8
  -6   7  -4 1320.38 552.285   4
   6  -7   5-210.722 211.548   8
   6  -7   6 766.345 379.986   8
  -6   6   7 551.758 401.227   7
   6  -6  -7 132.306 181.684   3
  -6   6   6 632.876 449.922   7
   6  -6  -6 1091.47 408.315   3
  -6   6   5 486.904 336.857   4
  -6   6   5 877.856 454.007   7
   6  -6  -5 90.2248 164.487   3
  -6   6   4 2072.84 705.197   4
  -6   6   4 2918.72 861.622   7
   6  -6  -4 3209.74 604.711   3
  -6   6   3 412.007 321.699   4
  -6   6   3 789.452 487.546   7
   6  -6  -3 347.109 257.116   3
  -6   6   2 2906.76 816.411   4
  -6   6   2 3057.41 846.104   7
   6  -6  -2 3570.43 628.292   3
  -6   6   1 561.527 350.184   4
  -6   6   1 57.7633 298.172   7
   6  -6  -1 845.997 306.147   3
  -6   6   0 1968.93 669.056   4
  -6   6   0 1847.18 622.273   7
   6  -6   0 2164.60 461.275   3
   6  -6   1 281.952 325.046   5
  -6   6  -1 139.229 267.796   4
   6  -6   2 7915.31 1544.06   5
  -6   6  -2 7140.36 1331.34   4
   6  -6   2 8113.47 1196.49   8
   6  -6   3-42.7862 198.808   5
  -6   6  -3-230.761 343.893   4
   6  -6   3-130.307 242.385   8
   6  -6   4 4009.25 1076.78   5
  -6   6  -4 3739.62 988.339   4
   6  -6   4 4752.03 898.477   8
  -6   6  -5 9.01400 87.5897   4
   6  -6   5-33.9945 140.482   8
   6  -6   6 694.869 462.291   5
  -6   6  -6 964.258 490.341   4
   6  -6   6 529.425 259.792   8
  -6   5   7 95.0861 188.186   7
   6  -5  -7 756.217 335.222   3
  -6   5   6 1601.08 749.665   7
   6  -5  -6 2260.30 525.735   3
  -6   5   5 124.834 181.981   7
   6  -5  -5 552.250 252.732   3
  -6   5   4 1161.39 479.153   4
  -6   5   4 1287.89 562.852   7
  -6   5   3 518.771 320.096   4
  -6   5   3 785.853 429.901   7
   6  -5  -3 1064.02 340.207   3
  -6   5   2 5365.18 1054.95   4
  -6   5   2 5315.25 1125.72   7
   6  -5  -2 6547.24 791.807   3
  -6   5   1-91.9789 173.313   4
  -6   5   1 74.0665 145.437   7
   6  -5  -1 267.325 167.930   3
  -6   5   0 4718.74 869.359   3
  -6   5   0 4843.92 1006.70   4
  -6   5   0 4162.30 953.519   7
   6  -5   0 4842.34 644.932   3
   6  -5   1 138.564 277.005   5
  -6   5  -1 164.230 181.472   3
  -6   5  -1 450.261 270.169   4
  -6   5  -1 739.821 455.371   7
   6  -5   1 310.950 165.123   3
   6  -5   2 5495.25 1225.08   5
  -6   5  -2 4119.16 939.220   4
   6  -5   2 5740.77 634.121   3
   6  -5   3-246.796 256.874   5
  -6   5  -3-25.1181 165.885   4
  -6   5  -4 9647.43 1493.35   4
   6  -5   4 11089.5 1302.72   8
   6  -5   4 9705.56 1600.53   5
   6  -5   5 384.932 430.242   5
  -6   5  -5 142.198 237.369   4
   6  -5   5 313.690 245.057   8
   6  -5   6 4313.55 1105.87   5
   6  -5   6 6371.46 927.443   8
  -6   5  -6 7347.98 1325.10   4
   6  -5   7 194.809 340.545   5
  -6   5  -7-134.438 266.863   4
   6  -5   7-90.9487 127.007   8
   6  -5   8 1381.22 643.075   5
  -6   5  -8 769.296 506.463   4
  -6   4   8 2004.58 897.316   7
   6  -4  -8 1211.10 425.237   3
  -6   4   7 340.879 419.613   7
   6  -4  -7 340.607 258.339   3
  -6   4   6 1681.31 714.583   7
   6  -4  -6 1349.07 422.506   3
  -6   4   5 136.257 115.156   4
  -6   4   5 123.055 181.025   7
   6  -4  -5 446.319 236.993   3
  -6   4   4 1816.77 541.830   4
  -6   4   4 3473.44 956.713   7
   6  -4  -4 2611.77 543.514   3
  -6   4   3-122.349 148.960   4
  -6   4   3 267.180 257.174   7
   6  -4  -3 211.026 183.766   3
  -6   4   2 1899.75 615.273   4
  -6   4   2 1816.13 640.797   7
   6  -4  -2 1267.32 437.173   2
   6  -4  -2 1725.81 389.172   3
  -6   4   1 2249.55 644.101   4
  -6   4   1 2520.63 732.585   7
   6  -4  -1 3411.28 700.055   2
   6  -4  -1 3109.55 508.340   3
  -6   4   0 7731.60 1182.41   4
  -6   4   0 5743.68 1092.33   7
   6  -4   0 6342.67 682.921   3
   6  -4   0 5354.02 899.023   2
  -6   4   0 5440.93 920.384   3
   6  -4   1 2071.06 695.887   5
  -6   4  -1 1860.88 475.085   3
  -6   4  -1 2475.45 670.556   4
  -6   4  -1 2007.64 641.558   7
   6  -4   1 2003.21 363.932   3
  -6   4  -2 10836.7 1452.15   4
   6  -4   2 11360.0 819.214   3
   6  -4   2 10551.7 1567.41   5
   6  -4   3 57.4579 222.530   5
  -6   4  -3 62.0395 121.858   4
   6  -4   3 86.8332 101.564   6
   6  -4   3-28.9644 92.9677   3
  -6   4  -4 12686.7 1630.73   4
   6  -4   4 10844.2 1292.50   6
   6  -4   4 12040.1 1667.36   5
   6  -4   5 92.0104 242.185   5
  -6   4  -5 297.967 223.053   4
   6  -4   5 603.996 334.227   8
   6  -4   6 4736.32 1119.87   5
  -6   4  -6 5592.25 1106.01   4
   6  -4   6 3986.58 687.069   8
   6  -4   7 166.717 367.274   5
  -6   4  -7 174.210 255.959   4
   6  -4   7-38.9310 143.146   8
   6  -4   8 3600.31 969.682   5
  -6   4  -8 3184.65 870.265   4
   6  -4   9 498.159 381.098   5
  -6   4  -9 456.404 332.299   4
  -6   3   8 622.189 570.541   7
   6  -3  -8 551.464 327.330   3
  -6   3   7 272.418 391.690   7
   6  -3  -7 319.602 236.951   3
  -6   3   6 1827.77 739.062   7
   6  -3  -6 2015.60 507.475   3
  -6   3   5 1.26041 107.211   4
  -6   3   5 268.101 357.716   7
   6  -3  -5 143.552 122.844   3
  -6   3   4 1242.90 374.730   4
  -6   3   4 1952.44 695.300   7
   6  -3  -4 1667.50 443.550   3
  -6   3   3 1.50522 91.3331   4
  -6   3   3 161.155 125.478   7
   6  -3  -3 18.4874 113.691   3
  -6   3   2 13235.9 1377.88   4
   6  -3  -2 9697.68 1042.89   2
  -6   3   2 11132.6 1578.81   7
   6  -3  -2 11658.1 1050.05   3
  -6   3   1 712.305 332.294   3
  -6   3   1 1110.50 414.918   4
  -6   3   1 792.892 455.647   7
   6  -3  -1 810.098 291.073   2
   6  -3  -1 732.211 247.825   3
   6  -3   0 4672.29 775.104   2
  -6   3   0 5073.89 894.855   4
  -6   3   0 6382.81 1166.61   7
   6  -3   0 4642.08 599.959   3
  -6   3   0 5031.78 862.193   3
  -6   3  -1 1457.07 431.547   3
  -6   3  -1 1288.68 465.826   4
  -6   3  -1 2006.59 617.305   7
   6  -3   1 1666.05 486.977   2
   6  -3   1 1411.61 304.101   3
   6  -3   2 1539.68 596.087   5
  -6   3  -2 1528.26 497.690   4
   6  -3   2 2106.13 339.953   3
   6  -3   3-78.4525 137.492   5
  -6   3  -3 395.919 297.643   4
   6  -3   3-61.2739 176.721   6
   6  -3   3 69.9525 79.0316   3
  -6   3  -4 8668.53 1252.33   4
   6  -3   4 9349.84 553.457   3
   6  -3   4 8333.96 1148.30   6
   6  -3   4 8568.63 1339.54   5
   6  -3   5 1273.09 534.837   5
  -6   3  -5 699.109 385.114   4
   6  -3   5 596.248 279.400   6
  -6   3  -6 14938.4 1736.60   4
   6  -3   6 17094.2 1332.58   8
   6  -3   6 12581.4 1323.29   6
   6  -3   6 12991.0 1692.32   5
   6  -3   7 79.3764 222.944   5
  -6   3  -7 888.767 406.891   4
   6  -3   7 491.226 247.745   8
   6  -3   8 6123.37 1213.26   5
  -6   3  -8 7837.89 1308.83   4
   6  -3   9 32.6936 157.847   5
  -6   3  -9 417.254 290.300   4
   6  -3  10 1372.19 663.699   5
  -6   3 -10 1899.96 695.771   4
  -6   2   8 608.246 503.622   7
   6  -2  -8 957.142 388.164   3
  -6   2   7-323.291 247.064   7
   6  -2  -7-221.434 268.488   3
  -6   2   6 3430.56 1030.15   7
   6  -2  -6 2501.74 601.588   3
  -6   2   5 362.037 381.091   7
   6  -2  -5 308.366 197.065   3
  -6   2   4 6526.05 725.233   4
  -6   2   4 7478.85 1373.72   7
   6  -2  -4 6145.65 852.182   3
   6  -2  -3 324.344 179.233   3
  -6   2   3 263.244 157.989   4
  -6   2   3 268.862 279.875   7
   6  -2  -3 334.171 141.669   2
   6  -2  -2 901.616 299.036   3
  -6   2   2 803.474 296.368   4
  -6   2   2 820.018 434.404   7
   6  -2  -2 469.977 213.312   2
   6  -2  -1-37.8360 135.195   3
  -6   2   1 546.861 310.423   3
  -6   2   1-62.8762 66.8934   4
  -6   2   1 211.990 283.800   7
   6  -2  -1 154.077 109.817   2
  -6   2   0 5215.44 822.597   4
  -6   2   0 4772.07 833.193   3
   6  -2   0 4663.79 708.589   2
  -6   2   0 5238.33 1017.55   7
   6  -2   0 5231.50 653.362   3
   6  -2   1 49.0473 73.6660   3
  -6   2  -1 332.778 224.844   3
  -6   2  -1 226.672 183.035   4
  -6   2  -1 239.687 237.192   7
   6  -2   1-22.6862 114.338   4
  -6   2  -2 12719.0 1362.68   4
   6  -2   2 12306.0 1303.79   4
  -6   2  -2 12404.0 1556.57   7
   6  -2   2 13678.8 946.928   3
   6  -2   2 13433.5 1561.32   5
   6  -2   3 164.180 186.643   5
  -6   2  -3 63.8200 139.354   4
   6  -2   3-21.3267 72.0466   6
   6  -2   3 42.7544 77.8356   3
  -6   2  -4 8053.32 1151.60   4
   6  -2   4 7059.48 514.260   3
   6  -2   4 8864.16 1188.14   6
   6  -2   4 6924.98 1142.43   5
   6  -2   5 223.366 108.155   5
  -6   2  -5 526.938 279.528   4
   6  -2   5-62.6376 182.326   6
   6  -2   5 417.789 90.1808   3
  -6   2  -6 10502.8 1380.94   4
   6  -2   6 8228.75 1098.22   6
   6  -2   6 8330.95 903.551   1
   6  -2   6 7768.28 1228.14   5
   6  -2   7 756.249 388.604   5
  -6   2  -7 594.851 373.062   4
   6  -2   7 1091.79 306.109   8
   6  -2   7 1088.56 414.672   6
  -6   2  -8 12609.4 1621.44   4
   6  -2   8 11175.9 850.679   8
   6  -2   8 12508.6 1668.87   5
   6  -2   9 89.9251 159.604   5
  -6   2  -9 36.2268 216.604   4
  -6   2  -9-39.3513 131.634   6
   6  -2  10 1634.19 624.081   5
  -6   2 -10 3265.34 855.476   4
  -6   2 -10 1755.46 546.242   6
  -6   2 -11 89.0170 199.684   4
   6  -2  11-244.326 386.512   5
   6  -1  -8 828.059 349.729   3
  -6   1   8 1179.17 570.919   7
   6  -1  -7 555.906 329.507   3
  -6   1   7 244.232 152.492   7
   6  -1  -6 1198.80 373.007   3
  -6   1   6 2412.33 865.994   7
   6  -1  -5 565.756 260.761   3
  -6   1   5 1241.02 653.255   7
   6  -1  -4 1075.03 370.780   3
  -6   1   4 913.452 159.519   4
  -6   1   4 1375.01 636.323   7
   6  -1  -3 56.4056 175.536   3
   6  -1  -3-20.6561 38.1374   2
  -6   1   3 17.6125 103.635   4
   6  -1  -3 66.0505 41.4008   2
  -6   1   3 139.097 210.185   7
  -6   1   2 14595.7 1079.81   4
   6  -1  -2 13884.9 922.468   2
  -6   1   2 13731.9 1693.04   7
   6  -1  -2 14866.1 1283.16   3
   6  -1  -1 162.724 234.053   3
  -6   1   1 269.129 295.899   3
  -6   1   1 3.06460 61.9968   4
  -6   1   1 29.1586 149.193   7
   6  -1  -1 55.4179 108.459   2
  -6   1   0 10871.5 1075.30   4
   6  -1   0 9917.99 984.641   4
  -6   1   0 9589.95 1384.28   7
   6  -1   0 9908.63 963.645   3
   6  -1   1 615.587 207.060   3
  -6   1  -1 901.029 348.440   4
  -6   1  -1-106.650 234.103   7
   6  -1   1 209.047 95.3192   1
   6  -1   1 434.054 234.952   4
   6  -1   2 2865.46 676.083   5
  -6   1  -2 2819.48 606.812   4
  -6   1  -2 3501.93 832.671   7
   6  -1   2 2429.36 541.208   1
   6  -1   2 3221.33 624.794   4
   6  -1   2 3343.64 505.607   3
   6  -1   3 155.337 131.792   3
   6  -1   3-174.717 267.792   5
  -6   1  -3 139.390 208.290   4
   6  -1   3 243.820 150.689   4
   6  -1   3 226.569 158.280   1
  -6   1  -4 9282.10 1177.53   4
   6  -1   4 8908.79 701.235   3
   6  -1   4 8087.59 939.010   1
   6  -1   4 8277.76 1156.83   5
   6  -1   5-64.2079 100.297   3
   6  -1   5-160.322 223.503   5
  -6   1  -5-114.454 230.721   4
   6  -1   5-395.922 198.302   1
  -6   1  -6 7046.62 1095.33   4
   6  -1   6 7531.78 378.640   3
   6  -1   6 7793.06 831.837   1
   6  -1   6 7503.22 1135.39   5
   6  -1   7 91.5888 157.233   5
  -6   1  -7 144.498 219.468   4
  -6   1  -7 51.1614 156.473   6
   6  -1   7 56.7849 56.4323   1
  -6   1  -8 9015.11 1304.90   4
   6  -1   8 8573.25 648.719   8
  -6   1  -8 7884.64 1185.88   6
   6  -1   8 8011.83 1271.57   5
   6  -1   9-17.7548 174.956   5
  -6   1  -9 69.6807 172.284   4
  -6   1  -9 324.926 245.080   6
  -6   1 -10 7040.33 1250.45   4
  -6   1 -10 6113.70 1089.59   6
   6  -1  10 8032.59 1443.71   5
  -6   1 -11-283.183 315.839   4
  -6   1 -11-44.1546 101.536   6
   6  -1  11 170.886 306.651   5
  -6   1 -12 449.471 333.697   6
   6  -1  12 428.878 369.962   5
   6   0  -8 737.092 360.418   3
  -6   0   8 1288.14 638.347   7
   6   0  -7-13.3714 210.091   3
  -6   0   7-446.172 400.048   7
   6   0  -6 1618.98 510.196   3
  -6   0   6 1306.74 653.992   7
   6   0  -5 829.782 405.986   3
  -6   0   5 516.869 348.898   7
  -6   0   4 9955.59 1605.65   7
   6   0  -4 10707.2 1212.42   3
   6   0  -3 1725.19 468.292   3
  -6   0   3 2114.18 675.155   7
   6   0  -2 2909.09 620.486   3
  -6   0   2 2372.62 354.359   4
   6   0  -2 2222.23 285.388   2
   6   0  -2 2435.83 277.454   2
  -6   0   2 3449.18 826.112   7
   6   0  -1 96.6021 90.0587   3
  -6   0   1-106.731 147.815   4
  -6   0   1-146.922 185.807   7
   6   0  -1 24.0450 98.6862   4
   6   0  -1-16.0047 51.4926   2
   6   0   0 1983.01 449.708   3
  -6   0   0 1472.84 361.312   4
  -6   0   0 2390.87 707.826   7
   6   0   0 1761.10 385.636   4
   6   0   0 1317.64 326.941   2
  -6   0  -1 9024.44 946.124   4
   6   0   1 7990.19 901.356   4
  -6   0  -1 9622.95 1336.54   7
   6   0   1 7095.02 847.322   3
   6   0   1 9522.71 1133.84   1
  -6   0  -2 23398.0 1631.48   4
   6   0   2 24547.1 1677.34   4
  -6   0  -2 22541.5 2069.55   7
   6   0   2 23111.2 1504.76   3
   6   0   2 23763.2 1747.09   1
   6   0   2 22818.3 1781.30   5
   6   0   3 189.763 184.551   5
   6   0   3-62.4679 108.722   3
  -6   0  -3 212.826 193.470   4
   6   0   3-18.6058 99.1773   4
   6   0   3 109.047 109.373   1
   6   0   4 4085.01 753.793   5
  -6   0  -4 4573.43 777.708   4
   6   0   4 4504.04 785.465   4
   6   0   4 4904.31 621.578   3
   6   0   4 4841.55 714.999   1
   6   0   5-22.4755 165.499   5
   6   0   5 2.98277 101.304   3
  -6   0  -5-121.403 110.279   4
  -6   0  -5 264.309 291.662   6
   6   0   5 301.970 174.772   1
  -6   0  -6 6131.99 981.553   4
  -6   0  -6 6276.06 1057.85   6
   6   0   6 5622.30 555.484   3
   6   0   6 6734.34 1002.02   5
   6   0   6 5079.53 650.509   1
   6   0   7 411.893 198.126   5
   6   0   7 447.129 101.829   3
  -6   0  -7 683.275 335.756   4
   6   0   7 567.276 185.528   1
  -6   0  -7 801.651 416.145   6
   6   0   7 511.858 114.819   3
  -6   0  -8 7040.17 1107.95   4
  -6   0  -8 8487.17 1265.89   6
   6   0   8 7281.96 1161.02   5
  -6   0  -9-52.1929 173.749   4
  -6   0  -9 351.403 328.919   6
   6   0   9-98.1750 256.166   5
  -6   0 -10 6752.68 1186.57   4
  -6   0 -10 6798.66 1199.72   6
   6   0  10 6657.94 1253.51   5
  -6   0 -11 37.7724 111.320   4
  -6   0 -11-272.425 234.498   6
   6   0  11 268.492 257.964   5
  -6   0 -12 932.157 488.362   4
  -6   0 -12 1619.70 616.557   6
   6   0  12 891.221 572.133   5
  -6   0 -13 508.689 373.566   6
   6   0  13 549.134 502.617   5
   6   1  -8 899.467 407.789   3
  -6  -1   8 202.096 262.039   7
   6   1  -7-43.7085 159.762   3
  -6  -1   7-160.668 253.691   7
   6   1  -6 2909.20 718.070   3
  -6  -1   6 1148.98 621.912   7
   6   1  -5 1178.31 437.533   3
  -6  -1   5 372.869 365.430   7
   6   1  -4 1961.84 557.354   3
  -6  -1   4 1661.71 636.293   7
   6   1  -3 610.688 299.024   3
  -6  -1   3 14.6857 182.100   7
  -6  -1   2 9660.29 1433.18   7
   6   1  -2 10141.1 1210.83   3
   6   1  -1 5720.14 580.479   4
   6   1  -1 5411.92 599.588   2
  -6  -1   1 6174.16 1102.62   7
   6   1  -1 6199.06 915.254   3
  -6  -1   0 16548.7 1151.10   4
   6   1   0 17575.8 1176.33   4
  -6  -1   0 17070.0 1794.64   7
   6   1   0 16050.2 1203.14   2
   6   1   0 18999.5 1581.88   3
   6   1   1 658.950 316.407   1
   6   1   1-133.962 206.732   3
  -6  -1  -1 159.456 159.181   4
   6   1   1 105.455 82.6000   4
  -6  -1  -1 817.057 392.415   7
   6   1   1 381.117 171.149   2
   6   1   2 264.628 175.776   1
   6   1   2 180.588 132.356   5
   6   1   2 317.807 218.479   3
  -6  -1  -2 26.7937 120.739   4
   6   1   2 172.151 102.785   4
  -6  -1  -2 480.275 312.245   7
   6   1   2 50.5557 104.406   2
   6   1   3 1757.87 448.052   5
   6   1   3 2617.22 557.860   1
   6   1   3 2535.93 518.614   3
  -6  -1  -3 1600.88 419.778   4
   6   1   3 1119.46 362.097   4
   6   1   3 2265.53 519.204   2
   6   1   4 24863.5 1660.74   1
  -6  -1  -4 23219.9 1761.45   4
   6   1   4 24576.0 1838.93   4
   6   1   4 25090.0 1888.42   2
  -6  -1  -4 22943.6 2044.75   6
   6   1   4 23868.0 1588.25   3
   6   1   4 22492.8 1664.77   5
   6   1   5 1251.50 387.831   5
   6   1   5 1004.69 319.858   3
  -6  -1  -5 1133.50 446.673   4
   6   1   5 786.783 263.700   1
  -6  -1  -5 1591.14 561.504   6
   6   1   5 888.428 395.416   2
   6   1   6 2717.93 594.575   5
   6   1   6 3142.88 525.582   3
  -6  -1  -6 1987.04 560.446   4
   6   1   6 2416.57 440.755   1
  -6  -1  -6 2309.84 644.958   6
   6   1   7 2237.45 602.449   5
   6   1   7 2028.55 411.003   3
   6   1   7 1794.33 350.255   1
  -6  -1  -7 2022.88 594.524   4
  -6  -1  -7 1401.47 521.932   6
  -6  -1  -8 7267.41 1130.82   4
   6   1   8 6715.99 518.040   3
  -6  -1  -8 6509.01 1149.30   6
   6   1   8 6972.43 699.584   3
   6   1   8 7830.70 1235.78   2
   6   1   8 5616.93 984.817   5
   6   1   9 430.430 148.843   3
  -6  -1  -9 227.095 232.654   4
   6   1   9 231.856 233.144   2
   6   1   9 851.172 439.085   5
  -6  -1 -10 3434.99 845.705   4
  -6  -1 -10 3870.27 940.514   6
   6   1  10 4750.20 1073.77   2
   6   1  10 2433.85 717.449   5
  -6  -1 -11 263.541 237.842   4
  -6  -1 -11-254.598 283.953   6
   6   1  11-225.527 378.537   2
   6   1  11-380.209 342.518   5
  -6  -1 -12 1460.90 563.193   4
   6   1  12 2301.25 781.071   2
  -6  -1 -12 1084.07 535.535   6
   6   1  12 1218.24 642.035   5
  -6  -1 -13 128.995 110.027   6
   6   1  13 179.720 286.168   5
  -6  -1 -14-641.748 435.114   6
  -6  -2   8 466.403 450.099   7
   6   2  -7 661.355 296.054   3
  -6  -2   7 18.9913 289.349   7
   6   2  -6 2561.63 689.436   3
  -6  -2   6 1550.70 670.924   7
   6   2  -5 896.589 442.641   3
  -6  -2   5-23.9471 197.468   7
  -6  -2   4 4623.87 1070.79   7
   6   2  -4 2624.81 727.921   5
   6   2  -3 2820.20 678.067   3
  -6  -2   3 2523.63 727.695   7
  -6  -2   2 14190.8 1695.66   7
   6   2  -2 14072.3 1496.27   3
   6   2  -1 686.228 229.180   2
   6   2  -1 366.387 247.419   3
   6   2  -1 720.079 185.094   4
  -6  -2   1 521.938 239.883   7
   6   2   0 344.009 221.512   3
   6   2   0-208.719 264.436   2
   6   2   0 193.657 90.9389   4
  -6  -2   0 620.083 321.092   7
   6   2   1 1791.96 384.442   5
   6   2   1 1917.55 548.798   3
   6   2   1 2581.17 565.083   2
   6   2   1 1966.79 408.179   4
  -6  -2  -1 3106.49 749.021   7
   6   2   2 24694.0 1890.37   1
   6   2   2 28375.3 1746.03   4
   6   2   2 27386.9 1883.31   2
   6   2   2 27345.9 1959.33   3
   6   2   2 28360.6 1605.93   5
   6   2   3 8728.13 1046.75   1
  -6  -2  -3 10400.8 1099.19   4
   6   2   3 9140.12 1037.31   4
   6   2   3 10120.5 1182.70   2
   6   2   3 10879.5 1164.38   3
   6   2   3 8567.71 875.139   5
   6   2   4 1148.76 319.955   5
  -6  -2  -4 796.352 323.549   4
   6   2   4 539.899 246.979   3
   6   2   4 1407.95 462.424   4
   6   2   4 851.124 343.762   2
  -6  -2  -4 1125.88 503.821   6
   6   2   4 1011.73 340.537   1
   6   2   5 92.8231 162.121   5
   6   2   5 97.8440 85.4925   1
  -6  -2  -5 496.085 332.132   4
   6   2   5 105.470 88.7717   3
   6   2   5 159.465 145.983   2
  -6  -2  -5 177.259 226.558   6
  -6  -2  -6 11473.9 1318.24   4
   6   2   6 11625.5 1016.98   1
   6   2   6 10806.2 1391.41   2
  -6  -2  -6 12474.6 1589.77   6
   6   2   6 12603.8 1187.90   3
   6   2   6 12064.2 1206.22   5
  -6  -2  -7 1186.38 419.396   4
   6   2   7 1137.31 457.280   2
  -6  -2  -7 680.374 330.334   6
   6   2   7 1134.68 267.826   1
   6   2   7 567.220 283.856   5
  -6  -2  -8 3061.21 774.857   4
   6   2   8 2676.12 773.853   2
  -6  -2  -8 1938.64 653.550   6
   6   2   8 2366.40 377.060   3
   6   2   8 2939.05 693.538   5
  -6  -2  -9 2106.09 631.618   4
   6   2   9 2579.25 757.490   2
  -6  -2  -9 1569.71 614.538   6
   6   2   9 1967.88 632.757   5
  -6  -2 -10 5305.07 1029.60   4
   6   2  10 4546.97 1006.13   2
  -6  -2 -10 4623.09 1074.23   6
   6   2  10 3711.95 919.094   5
  -6  -2 -11 212.065 219.241   4
   6   2  11 323.594 376.687   2
  -6  -2 -11 249.446 126.589   6
   6   2  11 279.580 265.442   5
   6   2  12 1478.90 749.492   2
  -6  -2 -12 1408.10 628.009   6
   6   2  12 893.448 532.785   5
  -6  -2 -13 239.665 326.554   6
   6   2  13-68.1819 353.248   5
  -6  -2 -14 10.9304 151.309   6
   6   2  14 268.437 457.110   5
  -6  -3   8 404.676 438.391   7
   6   3  -7 125.731 173.371   3
  -6  -3   7 89.3533 168.106   7
   6   3  -6 1264.83 480.673   3
  -6  -3   6 1634.69 712.932   7
   6   3  -5 258.367 244.197   3
  -6  -3   5-131.840 220.063   7
   6   3  -4 1241.96 498.112   3
  -6  -3   4 1324.78 582.117   7
   6   3  -3 121.360 202.107   3
  -6  -3   3 551.410 355.841   7
   6   3  -3 596.192 323.015   5
   6   3  -2 4185.03 867.319   3
   6   3  -2 4306.66 339.327   2
  -6  -3   2 4289.01 925.420   7
   6   3  -2 4491.62 756.408   5
   6   3  -1 225.379 215.347   3
   6   3  -1 507.284 160.124   4
  -6  -3   1 351.099 259.645   7
   6   3  -1 865.823 263.260   2
   6   3  -1 540.580 260.095   5
   6   3   0 35048.5 1642.94   4
  -6  -3   0 33044.2 2489.03   7
   6   3   0 34644.1 1955.85   2
   6   3   0 39378.1 2565.65   3
   6   3   1 3639.47 575.835   4
   6   3   1 3138.59 640.720   2
   6   3   1 2790.88 711.972   3
  -6  -3  -1 3034.77 742.882   7
   6   3   1 3235.06 462.015   5
   6   3   2 94.9915 64.8115   5
   6   3   2 349.324 257.084   1
   6   3   2-27.9469 155.138   3
   6   3   2 344.540 264.813   2
   6   3   2 299.009 185.517   4
   6   3   3 32.1140 62.9287   5
   6   3   3-135.216 204.707   3
   6   3   3-362.625 247.281   1
   6   3   3-20.3200 93.8893   4
   6   3   3 310.589 290.173   2
  -6  -3  -3 371.236 272.436   6
   6   3   4 9477.46 1140.95   4
   6   3   4 9753.62 1087.57   1
   6   3   4 9231.03 1279.76   2
  -6  -3  -4 8749.22 1318.84   6
   6   3   4 7842.92 1021.05   3
   6   3   4 9705.60 841.316   5
   6   3   5 214.671 130.026   4
   6   3   5 237.694 150.590   1
   6   3   5 89.3655 256.468   2
  -6  -3  -5-72.8400 178.728   6
   6   3   5 61.1062 122.562   5
   6   3   6 7282.05 826.048   1
   6   3   6 7059.24 1167.82   2
  -6  -3  -6 7488.48 1281.50   6
   6   3   6 6391.32 826.075   5
   6   3   7 463.785 385.079   2
  -6  -3  -7 221.345 318.645   6
   6   3   7 380.270 243.478   5
   6   3   8 2880.55 806.220   2
  -6  -3  -8 3530.64 919.342   6
   6   3   8 2698.16 457.078   3
   6   3   8 2233.05 584.783   5
  -6  -3  -9 1816.18 558.096   5
   6   3   9 2162.70 755.167   2
  -6  -3  -9 1755.36 710.445   6
   6   3   9 2139.25 645.856   5
   6   3  10 6205.37 1276.54   2
  -6  -3 -10 5874.96 1284.29   6
   6   3  10 5573.44 1088.99   5
   6   3  11 1601.88 716.828   2
  -6  -3 -11 1370.44 687.422   6
   6   3  11 825.132 506.142   5
   6   3  12 3447.49 1036.09   2
  -6  -3 -12 1868.98 745.549   6
   6   3  12 1748.05 693.420   5
  -6  -3 -13 496.909 388.180   6
  -6  -3 -14 218.710 375.867   6
  -6  -4   8 1037.97 651.259   7
  -6  -4   7 201.424 232.566   7
   6   4  -6 1394.00 578.079   3
  -6  -4   6 959.550 555.088   7
   6   4  -5-195.042 243.986   3
  -6  -4   5 171.757 114.602   7
   6   4  -4 1133.86 478.566   3
  -6  -4   4 1331.74 553.984   7
   6   4  -3 1338.84 569.350   3
  -6  -4   3 1318.62 477.041   1
  -6  -4   3 1178.90 488.300   7
   6   4  -2 5082.29 983.314   3
   6   4  -2 4812.61 501.367   2
  -6  -4   2 5588.89 1031.16   1
  -6  -4   2 4380.22 908.756   7
   6   4  -1 580.130 354.285   3
   6   4  -1 992.806 239.936   4
  -6  -4   1 588.595 349.560   1
  -6  -4   1 856.374 439.459   7
   6   4  -1 855.578 273.440   2
   6   4  -1 603.812 208.349   5
   6   4   0 4969.20 606.380   4
   6   4   0 4415.00 904.609   3
   6   4   0 5166.62 789.907   2
  -6  -4   0 6001.60 1000.60   1
  -6  -4   0 4907.63 915.056   7
   6   4   0 5020.12 446.282   5
   6   4   0 5014.60 434.028   5
   6   4   1 580.732 303.057   2
   6   4   1 523.391 248.460   3
   6   4   1 809.798 289.521   4
  -6  -4  -1 881.617 406.608   1
   6   4   2 12260.5 1164.50   4
   6   4   2 12498.6 1429.19   2
   6   4   2 12813.7 1485.59   3
  -6  -4  -2 12837.0 1377.96   1
   6   4   3 4031.96 867.945   2
   6   4   3 3305.79 745.322   3
   6   4   3 3913.71 695.924   4
  -6  -4  -3 3416.97 688.972   1
  -6  -4  -3 2844.67 790.120   6
   6   4   4 9037.70 1120.54   4
   6   4   4 8842.33 1060.84   1
   6   4   4 7609.67 1216.52   2
  -6  -4  -4 9540.11 1408.71   6
  -6  -4  -4 9255.52 1078.49   1
   6   4   4 8081.48 580.242   5
   6   4   5-111.986 193.394   2
  -6  -4  -5 16.7421 79.4844   1
  -6  -4  -5 150.902 131.622   6
   6   4   5 112.558 128.705   5
  -6  -4  -6 1853.67 441.255   1
   6   4   6 1783.64 611.230   2
  -6  -4  -6 1045.57 458.089   6
   6   4   6 1771.03 410.550   5
   6   4   7 85.8125 221.413   2
  -6  -4  -7 59.6154 241.945   6
   6   4   7 349.935 239.243   5
   6   4   8 6804.09 1289.88   2
  -6  -4  -8 5540.04 1184.32   6
   6   4   8 5845.19 895.367   5
  -6  -4  -9 1515.12 511.092   5
   6   4   9 1868.94 775.268   2
  -6  -4  -9 1334.83 684.502   6
   6   4   9 779.176 417.555   5
   6   4  10 3093.24 947.410   2
  -6  -4 -10 2734.20 888.966   6
   6   4  11 67.0266 272.814   2
  -6  -4 -11 56.8765 161.114   6
   6   4  12 1334.25 711.364   2
  -6  -4 -12 2240.38 840.231   6
  -6  -4 -13 215.685 133.312   6
  -6  -5   7 740.909 428.529   7
   6   5  -6 906.720 385.049   3
  -6  -5   6 1104.14 537.579   7
   6   5  -5-35.0225 163.507   3
  -6  -5   5 217.952 132.098   1
  -6  -5   5 191.519 111.210   7
   6   5  -4 988.597 491.357   3
  -6  -5   4 771.149 361.546   1
  -6  -5   4 560.447 354.199   7
   6   5  -3 885.193 452.003   3
  -6  -5   3 282.390 311.449   1
  -6  -5   3 660.327 371.605   7
   6   5  -2 1500.47 566.139   3
  -6  -5   2 1211.61 476.704   7
  -6  -5   2 2338.86 677.997   1
   6   5  -2 1141.52 314.494   2
   6   5  -1 601.906 342.351   3
  -6  -5   1 350.145 248.003   7
  -6  -5   1 450.213 297.522   1
   6   5  -1 335.759 181.654   2
   6   5   0 5376.95 682.348   4
   6   5   0 5711.34 1083.38   3
   6   5   0 6187.56 903.747   2
  -6  -5   0 4585.93 861.134   7
  -6  -5   0 6149.06 1039.58   1
   6   5   1 1338.43 474.294   3
   6   5   1 2160.42 488.629   4
  -6  -5  -1 1265.17 472.650   1
   6   5   1 2172.68 587.748   2
   6   5   2 10810.1 1136.13   4
   6   5   2 12510.3 1456.45   2
  -6  -5  -2 12779.5 1655.02   6
   6   5   2 11524.6 1480.80   3
  -6  -5  -2 11689.9 1396.65   1
   6   5   3-10.6929 205.661   2
   6   5   3 10.7081 83.5405   4
  -6  -5  -3-26.1747 174.777   6
   6   5   4 1226.70 484.595   2
   6   5   4 1131.94 420.793   4
  -6  -5  -4 796.698 335.650   1
  -6  -5  -4 727.255 349.784   6
  -6  -5  -5 611.146 286.881   1
  -6  -5  -5-346.717 381.324   6
   6   5   6 10590.5 1588.06   2
  -6  -5  -6 10056.1 1573.21   6
  -6  -5  -6 10855.0 1173.43   1
   6   5   7 282.661 427.696   2
   6   5   7-74.2557 111.348   8
  -6  -5  -7 230.315 163.251   1
  -6  -5  -7 43.8793 161.146   6
   6   5   8 1139.88 607.173   2
  -6  -5  -8 967.672 319.040   1
  -6  -5  -8 829.126 455.691   6
   6   5   9-290.738 320.324   2
  -6  -5  -9 40.2940 176.570   6
   6   5  10 3402.16 992.043   2
  -6  -5 -10 3729.33 1111.94   6
   6   5  11-25.1092 307.679   2
  -6  -5 -11 714.538 511.044   6
   6   5  12 3213.15 1067.68   2
  -6  -5 -12 960.759 534.012   6
  -6  -6   5-285.699 259.865   7
   6   6  -4 1828.76 682.185   3
  -6  -6   4 1083.92 461.969   7
  -6  -6   4 2782.51 799.981   1
   6   6  -3 1227.96 534.316   3
  -6  -6   3 183.559 203.003   7
  -6  -6   3 1049.34 534.382   1
   6   6  -2 952.705 512.728   3
  -6  -6   2 387.728 139.274   7
  -6  -6   2 789.381 401.211   1
   6   6  -1 485.601 328.100   3
  -6  -6   1 488.553 279.693   7
  -6  -6   1 704.079 365.895   1
   6   6  -1 491.222 209.061   2
   6   6   0 2784.32 776.910   3
  -6  -6   0 3253.47 836.862   1
   6   6   0 2266.23 566.350   2
   6   6   1 656.789 327.034   3
  -6  -6  -1 469.159 318.812   1
   6   6   1 186.305 228.187   2
   6   6   2 2495.06 573.053   4
  -6  -6  -2 1832.12 624.209   6
  -6  -6  -2 2605.85 675.086   1
   6   6   2 2340.73 670.814   2
   6   6   3 1857.03 606.380   2
   6   6   3 1944.20 529.924   4
  -6  -6  -3 2193.83 704.599   6
  -6  -6  -3 2126.82 625.053   1
   6   6   4 6044.74 1164.72   2
  -6  -6  -4 7674.47 1362.29   6
  -6  -6  -4 7660.15 1130.79   1
   6   6   5 1590.93 672.497   2
  -6  -6  -5 1914.88 732.841   6
  -6  -6  -5 1255.41 441.520   1
   6   6   6 2164.11 767.546   2
  -6  -6  -6 2344.59 815.077   6
  -6  -6  -6 1359.80 444.617   1
   6   6   7-412.518 352.767   2
  -6  -6  -7-177.263 253.253   6
  -6  -6  -7-72.3589 79.4676   1
   6   6   8 2709.33 944.037   2
  -6  -6  -8 2337.91 534.806   1
  -6  -6  -8 2705.80 954.202   6
   6   6   9 404.629 404.872   2
  -6  -6  -9-20.1468 81.7989   1
  -6  -6  -9 29.2129 455.568   6
   6   6  10 1246.89 682.629   2
  -6  -6 -10 1579.19 743.710   6
   6   6  11 812.538 611.539   2
  -6  -6 -11-309.410 459.313   6
  -6  -6 -12 591.026 607.488   6
   6   7  -3 631.344 431.688   3
  -6  -7   3 45.2294 136.181   1
   6   7  -2 728.898 482.224   3
  -6  -7   2 1266.12 602.383   1
   6   7  -1 102.105 189.115   3
   6   7  -1 162.786 184.725   2
   6   7   0 1056.48 495.547   3
   6   7   0 973.388 437.392   2
  -6  -7   0 1037.60 438.060   1
   6   7   1 667.773 370.694   3
   6   7   1 189.910 268.672   2
  -6  -7  -1 441.672 403.992   1
  -6  -7  -2 1154.96 519.511   6
   6   7   2 2127.76 683.791   2
  -6  -7  -2 1882.60 636.232   1
  -6  -7  -3-159.470 231.707   6
  -6  -7  -3 487.437 277.676   1
   6   7   4 2523.03 800.265   2
  -6  -7  -4 3014.02 747.477   1
  -6  -7  -4 1227.53 587.277   6
  -6  -7  -5 705.053 355.856   1
   6   7   5 909.034 478.016   2
  -6  -7  -5 397.107 423.301   6
  -6  -7  -6 2166.16 623.062   1
   6   7   6 1535.51 605.808   2
  -6  -7  -6 2318.10 823.195   6
  -6  -7  -7 128.821 167.001   1
   6   7   7 764.941 494.905   2
  -6  -7  -7 400.877 432.067   6
   6   7   8 2022.47 716.907   2
  -6  -7  -8 1113.46 688.493   6
  -6  -7  -8 1997.27 540.287   1
   6   7   9 374.808 207.695   2
  -6  -7  -9 520.945 424.423   6
  -6  -7  -9 549.304 243.966   1
   6   7  10 1343.46 697.904   2
  -6  -7 -10 1005.60 668.169   6
   6   7  11-546.003 504.741   2
  -6  -7 -11-690.170 561.864   6
   6   8  -1 267.424 435.662   3
  -6  -8   1 188.139 223.384   1
   6   8   0 282.507 235.965   3
   6   8   0 766.036 366.157   2
  -6  -8   0 1091.35 564.704   1
  -6  -8  -1-209.562 321.086   1
   6   8   1 506.231 354.770   2
  -6  -8  -2 1656.33 665.829   1
   6   8   2 1716.72 653.960   2
  -6  -8  -3 460.618 345.509   1
  -6  -8  -3 531.951 402.334   6
   6   8   3-111.492 246.606   2
  -6  -8  -4 894.568 406.099   1
  -6  -8  -4 477.029 430.254   6
   6   8   4 591.447 378.887   2
  -6  -8  -5 452.086 273.648   1
  -6  -8  -5 623.510 398.353   6
   6   8   5 456.049 523.469   2
   6   8   6 1820.21 768.673   2
  -6  -8  -6 1291.77 506.605   1
  -6  -8  -6 1422.36 671.145   6
   6   8   7-209.747 293.876   2
  -6  -8  -7 227.274 202.840   1
  -6  -8  -7 259.260 300.107   6
   6   8   8 691.183 541.477   2
  -6  -8  -8 726.463 356.788   1
  -6  -8  -8 1288.32 671.470   6
  -6  -8  -9 302.175 238.478   1
   6   8   9 620.709 323.978   2
  -6  -8  -9 1178.02 707.714   6
   6   8  10 458.628 470.534   2
  -6  -9  -1 568.990 464.907   1
   6   9   1 354.006 238.827   2
  -6  -9  -2 881.296 540.653   1
   6   9   2 747.265 443.878   2
  -6  -9  -3 90.0837 137.302   1
  -6  -9  -3 749.773 463.086   6
   6   9   3 261.459 272.202   2
  -6  -9  -4 717.974 459.499   1
   6   9   4 253.326 190.153   2
  -6  -9  -5 849.897 472.111   1
  -6  -9  -5 176.379 336.653   6
   6   9   5-84.8100 340.239   2
  -6  -9  -6 721.507 363.488   1
  -6  -9  -6-14.8249 125.894   6
   6   9   6 1194.47 623.067   2
  -6  -9  -7-179.427 172.587   1
  -6  -9  -7 187.852 356.569   6
   6   9   7-38.2362 280.742   2
  -6  -9  -8-253.076 245.293   1
  -6  -9  -8 77.8316 199.379   6
   6  10   2 300.852 306.682   2
  -6 -10  -3 96.2981 218.596   6
   6  10   3-3.38367 195.458   2
  -6 -10  -4 536.952 404.160   1
  -6 -10  -4 672.580 478.845   6
   6  10   4 1346.16 671.468   2
  -6 -10  -5 72.1983 127.399   1
  -6 -10  -5 478.343 394.945   6
   6  10   5-468.310 408.946   2
  -6 -10  -6 179.594 221.893   1
  -6 -10  -6 202.262 431.062   6
   6  10   6 279.104 439.501   2
  -6 -10  -7-271.623 286.237   1
  -6 -10  -8 398.336 365.623   1
   7  -7  -4-260.688 209.602   3
  -7   7   3 307.569 303.389   4
  -7   7   3 372.270 366.275   7
   7  -7  -3 744.547 327.252   3
  -7   7   2 80.8428 141.984   4
  -7   7   2-194.028 257.370   7
  -7   7   1 495.330 508.799   4
  -7   7   1 374.921 95.3387   7
  -7   7   0 122.750 206.299   4
  -7   7  -1 1175.63 549.530   4
   7  -7   1 415.005 394.827   8
  -7   7  -2 212.537 293.885   4
   7  -7   2 299.741 288.046   8
   7  -7   3 793.290 417.254   8
   7  -7   4-98.1263 71.9365   8
   7  -6  -5 525.959 320.718   3
  -7   6   4 245.821 286.608   7
   7  -6  -4-170.901 90.9084   3
  -7   6   3 100.875 233.525   4
  -7   6   3 272.164 389.641   7
   7  -6  -3 793.341 327.101   3
  -7   6   2-495.532 362.115   4
  -7   6   2 42.2343 145.990   7
   7  -6  -2-221.009 174.087   3
  -7   6   1 1018.68 483.011   4
  -7   6   1 741.644 519.966   7
   7  -6  -1 1265.85 374.888   3
   7  -6   0-247.754 389.843   5
  -7   6   0-153.448 331.293   4
  -7   6   0 147.275 209.931   7
   7  -6   1-97.8259 321.951   5
  -7   6  -1 474.059 402.835   4
   7  -6   2 478.375 397.001   5
  -7   6  -2-19.1500 252.555   4
   7  -6   3 1101.38 637.334   5
  -7   6  -3 2243.97 810.475   4
   7  -6   3 1602.69 573.333   8
  -7   6  -4-39.5258 168.433   4
   7  -6   4-21.7432 141.279   8
   7  -6   5 620.804 330.677   8
  -7   5   5-111.766 353.277   7
   7  -5  -5 1000.97 386.407   3
  -7   5   4-217.739 317.718   7
   7  -5  -4 104.721 128.652   3
  -7   5   3 695.030 393.990   4
  -7   5   3 949.657 522.069   7
   7  -5  -3 1037.63 373.276   3
  -7   5   2 910.735 467.754   4
  -7   5   2 541.803 323.159   7
   7  -5  -2 834.235 313.370   3
  -7   5   1 1696.01 652.703   4
  -7   5   1 1415.04 620.054   7
   7  -5  -1 1851.38 424.886   3
  -7   5   0 765.794 423.065   4
  -7   5   0 460.126 344.205   7
   7  -5   0 45.3807 80.5838   3
   7  -5   1 4091.92 1130.52   5
  -7   5  -1 4417.45 1044.44   4
   7  -5   2 30.2352 199.225   5
  -7   5  -2-46.5510 163.517   4
   7  -5   3 2038.14 829.006   5
  -7   5  -3 1911.11 696.512   4
   7  -5   4-196.629 256.042   5
  -7   5  -4-345.334 361.758   4
   7  -5   4-349.860 249.368   8
   7  -5   5 1577.86 746.195   5
  -7   5  -5 587.658 328.282   4
   7  -5   5 1227.78 448.555   8
   7  -5   6-103.221 392.758   5
  -7   5  -6-585.082 400.597   4
   7  -4  -6 556.710 289.355   3
  -7   4   5 1516.71 787.180   7
   7  -4  -5 2038.72 511.807   3
  -7   4   4 431.942 374.435   7
   7  -4  -4 476.206 254.479   3
  -7   4   3 1722.75 574.306   4
  -7   4   3 2308.33 849.105   7
   7  -4  -3 2033.35 462.685   3
  -7   4   2 359.984 273.274   7
   7  -4  -2 876.711 308.997   3
  -7   4   1 3500.66 857.295   4
  -7   4   1 4079.49 1033.18   7
   7  -4  -1 3133.23 557.069   3
  -7   4   0 777.776 435.786   4
  -7   4   0 1171.47 474.379   7
   7  -4   0 530.818 237.127   3
   7  -4   1 730.759 428.169   5
  -7   4  -1 1461.88 556.586   4
  -7   4  -1 952.648 505.411   7
   7  -4   1 1373.19 344.854   3
   7  -4   2-209.384 129.545   5
  -7   4  -2-55.4708 146.131   4
   7  -4   2 33.8151 80.0681   3
   7  -4   3 4594.44 1129.30   5
  -7   4  -3 3724.88 914.244   4
   7  -4   4 595.871 510.000   5
  -7   4  -4-570.917 361.410   4
   7  -4   5 3495.40 1025.63   5
  -7   4  -5 4858.35 1062.12   4
   7  -4   6 191.901 273.084   5
  -7   4  -6 209.802 308.787   4
   7  -4   6 66.9325 189.193   8
   7  -4   7 1321.90 608.051   5
  -7   4  -7 1024.69 494.774   4
   7  -4   8-166.711 155.447   5
  -7   3   6 325.284 401.073   7
   7  -3  -6 782.597 318.135   3
  -7   3   5 2001.84 825.060   7
   7  -3  -5 720.745 350.596   3
  -7   3   4 50.4503 231.455   7
   7  -3  -4-50.3235 102.488   3
  -7   3   3 571.343 305.609   4
  -7   3   3 1568.16 678.770   7
   7  -3  -3 930.764 313.514   3
  -7   3   2 139.277 195.621   4
  -7   3   2 418.899 425.127   7
   7  -3  -2 311.039 209.571   3
  -7   3   1 710.986 347.277   4
  -7   3   1 1181.02 556.344   7
   7  -3  -1 1302.34 366.802   3
  -7   3   0 1593.92 529.023   4
  -7   3   0 1697.24 623.139   7
   7  -3   0 1773.96 401.373   3
   7  -3   1 6803.75 1277.76   5
  -7   3  -1 9099.72 1292.41   4
  -7   3  -1 6760.24 1272.04   7
   7  -3   1 8097.64 794.223   3
   7  -3   2 209.814 249.756   5
   7  -3   2 621.319 208.005   3
   7  -3   3 4821.28 1052.10   5
  -7   3  -3 4621.27 974.398   4
   7  -3   3 4973.73 518.582   3
   7  -3   4 55.8183 220.091   5
  -7   3  -4-372.711 406.897   4
   7  -3   5 2230.03 735.483   5
  -7   3  -5 1957.76 684.617   4
   7  -3   6 1094.18 527.485   5
  -7   3  -6 1483.64 612.716   4
   7  -3   7 3938.55 1009.65   5
  -7   3  -7 4906.42 1095.77   4
   7  -3   8 224.088 113.292   5
  -7   3  -8-212.977 242.928   4
   7  -3   9 1006.91 586.550   5
  -7   3  -9 891.203 463.978   4
  -7   2   6-44.2145 216.363   7
   7  -2  -6 483.026 331.631   3
  -7   2   5 1130.40 656.447   7
   7  -2  -5 605.058 309.826   3
  -7   2   4-46.4537 262.485   7
   7  -2  -4-126.741 233.207   3
   7  -2  -3 2516.80 558.636   3
  -7   2   3 3502.57 985.688   7
   7  -2  -2-66.0309 175.548   3
  -7   2   2-18.8535 128.899   4
  -7   2   2-211.785 255.700   7
  -7   2   1 6843.73 964.739   4
  -7   2   1 5435.74 1193.05   7
   7  -2  -1 5413.31 770.399   3
   7  -2   0 852.283 257.611   3
  -7   2   0 1826.23 517.248   4
  -7   2   0 1178.91 519.160   7
   7  -2   1 1939.19 637.641   5
  -7   2  -1 2363.54 617.952   4
  -7   2  -1 1526.06 578.499   7
   7  -2   1 1794.60 403.950   3
   7  -2   2 61.1357 129.870   5
  -7   2  -2-217.287 252.884   4
   7  -2   2 42.0688 98.1854   3
   7  -2   3 3796.21 868.888   5
  -7   2  -3 4088.26 843.163   4
   7  -2   3 4773.34 549.539   3
   7  -2   4 873.304 437.451   5
  -7   2  -4 819.069 423.727   4
   7  -2   4 912.487 228.649   3
  -7   2  -5 11533.2 1508.77   4
   7  -2   5 10771.0 1536.05   5
   7  -2   6 279.548 265.644   5
  -7   2  -6 376.140 199.812   4
   7  -2   7 1941.09 652.270   5
  -7   2  -7 2201.34 724.037   4
   7  -2   8 87.9078 150.893   5
  -7   2  -8 919.509 487.215   4
   7  -2   9 3759.63 999.947   5
  -7   2  -9 2604.49 783.211   4
   7  -2  10 548.952 360.684   5
   7  -1  -6 58.4719 182.501   3
  -7   1   6 20.0869 132.771   7
   7  -1  -5 1690.00 480.209   3
  -7   1   5 1439.50 667.861   7
   7  -1  -4-151.671 273.696   3
  -7   1   4 197.074 143.867   7
   7  -1  -3 1552.34 439.331   3
  -7   1   3 2352.17 806.183   7
   7  -1  -2 100.259 113.121   3
  -7   1   2 15.4888 79.8823   4
   7  -1  -1 840.370 310.026   3
  -7   1   1 443.878 223.763   4
  -7   1   1 463.276 297.924   7
   7  -1   0 30.4390 97.9862   3
  -7   1   0-101.639 141.525   7
   7  -1   1 6281.34 1069.85   5
  -7   1  -1 6856.03 967.652   4
   7  -1   1 5611.60 847.937   4
  -7   1  -1 6254.84 1205.17   7
   7  -1   1 6357.42 809.926   3
   7  -1   2 2034.80 462.273   3
   7  -1   2 448.563 289.242   5
  -7   1  -2 2147.66 565.811   4
   7  -1   2 1510.94 452.667   4
  -7   1  -3 15451.7 1571.87   4
   7  -1   3 15937.0 1173.47   3
   7  -1   3 13291.1 1573.87   5
   7  -1   4 480.468 201.837   3
   7  -1   4 492.116 313.951   5
  -7   1  -4 790.882 396.171   4
   7  -1   5 718.404 184.211   3
   7  -1   5 950.000 430.098   5
  -7   1  -5 1166.70 467.744   4
   7  -1   5 944.515 349.511   1
   7  -1   6 383.634 335.510   5
  -7   1  -6 563.935 362.145   4
  -7   1  -7 10125.4 1423.43   4
   7  -1   7 7861.32 1266.08   5
   7  -1   8 330.987 312.498   5
  -7   1  -8 424.375 320.949   4
   7  -1   9 2075.71 682.125   5
  -7   1  -9 3294.71 864.153   4
  -7   1  -9 2481.12 702.391   6
  -7   1 -10-71.1649 147.641   4
  -7   1 -10-31.9656 154.087   6
  -7   1 -11 660.186 410.536   6
   7  -1  11 81.5610 340.250   5
   7   0  -6-290.080 318.112   3
  -7   0   6 188.075 189.326   7
   7   0  -5 729.722 346.137   3
  -7   0   5 637.669 446.127   7
   7   0  -4 1238.67 445.148   3
  -7   0   4 700.508 463.994   7
   7   0  -3 2743.41 632.873   3
  -7   0   3 2025.27 730.188   7
   7   0  -2 8.05766 79.9459   3
  -7   0   2 8.51993 130.632   7
   7   0  -1 2700.80 608.355   3
  -7   0   1 2956.50 507.499   4
   7   0  -1 2828.23 447.096   2
  -7   0   1 2758.62 842.529   7
   7   0   0 1177.52 400.649   3
  -7   0   0 1635.29 430.942   4
  -7   0   0 1246.24 524.619   7
   7   0   0 1678.40 396.992   4
   7   0   0 1119.79 340.021   2
   7   0   1 2873.27 582.725   3
   7   0   1 1798.34 535.649   5
  -7   0  -1 3252.17 604.528   4
  -7   0  -1 3026.11 842.801   7
   7   0   1 2746.76 564.491   4
   7   0   1 2101.71 465.439   2
   7   0   2-36.9136 150.532   3
   7   0   2-120.446 200.029   5
  -7   0  -2 35.2540 120.908   4
   7   0   2-227.402 164.575   4
   7   0   3 2057.47 563.107   5
   7   0   3 985.719 316.316   3
  -7   0  -3 1611.63 485.071   4
   7   0   3 1951.18 526.304   4
   7   0   4 140.246 266.475   5
   7   0   4 79.8241 65.0865   3
  -7   0  -4 177.084 194.399   4
   7   0   4 176.351 218.656   1
  -7   0  -5 18837.9 1786.42   4
   7   0   5 19894.3 1280.06   3
   7   0   5 20370.6 1852.21   5
   7   0   5 18747.0 1557.40   1
   7   0   6 661.814 335.202   5
   7   0   6 826.222 228.691   3
  -7   0  -6 458.114 303.646   4
   7   0   7 2165.06 637.833   5
  -7   0  -7 1140.17 462.685   4
  -7   0  -7 1309.00 531.006   6
   7   0   8-239.820 236.251   5
  -7   0  -8 184.470 277.796   4
  -7   0  -8-97.8842 91.8654   6
   7   0   9 4731.95 1018.78   5
  -7   0  -9 3943.06 941.504   4
  -7   0  -9 4163.96 953.899   6
  -7   0 -10 414.581 311.471   4
  -7   0 -10-18.8036 167.050   6
   7   0  10 51.7125 210.691   5
  -7   0 -11 1222.90 597.327   4
  -7   0 -11 1188.65 564.004   6
   7   0  11 1334.16 602.425   5
  -7   0 -12-436.817 338.674   6
   7   0  12-715.657 560.133   5
   7   1  -6 146.422 183.878   3
  -7  -1   6 411.894 279.908   7
   7   1  -5 372.589 266.516   3
  -7  -1   5 962.858 522.437   7
   7   1  -4-41.1520 180.436   3
  -7  -1   4 83.9826 190.365   7
   7   1  -3 2318.07 657.813   3
  -7  -1   3 2784.32 862.341   7
   7   1  -2 253.579 227.602   3
  -7  -1   2 330.797 362.512   7
   7   1  -1 1677.92 507.836   3
   7   1  -1 1303.04 300.166   2
  -7  -1   1 1406.55 590.355   7
   7   1   0 272.431 155.694   3
   7   1   0 418.586 231.530   2
  -7  -1   0 212.485 213.453   7
   7   1   0 299.389 164.060   4
   7   1   1 126.781 142.815   5
   7   1   1 326.436 227.081   3
  -7  -1  -1 285.792 180.663   4
  -7  -1  -1 181.169 318.118   7
   7   1   1 401.447 203.561   4
   7   1   1 375.732 236.102   2
   7   1   2 2895.21 630.155   5
   7   1   2 2688.20 576.047   3
  -7  -1  -2 2346.04 539.631   4
   7   1   2 3589.39 651.569   4
   7   1   2 2498.11 575.214   2
  -7  -1  -3 11932.5 1283.18   4
   7   1   3 11564.2 1259.57   4
   7   1   3 12402.7 1334.75   2
   7   1   3 11958.1 1224.85   3
   7   1   3 13013.2 1329.29   5
   7   1   4 1037.14 361.630   5
   7   1   4 1058.81 360.059   3
  -7  -1  -4 734.934 354.974   4
   7   1   4 810.045 329.398   1
   7   1   4 1254.43 467.845   2
   7   1   5 1928.13 509.119   5
   7   1   5 1908.17 459.603   3
  -7  -1  -5 1609.49 523.554   4
   7   1   5 1517.90 452.774   1
   7   1   5 2027.66 585.741   2
   7   1   6-78.3533 119.419   5
   7   1   6 137.803 145.739   3
  -7  -1  -6 68.0732 155.181   4
   7   1   6 147.040 145.176   1
  -7  -1  -6 700.844 430.413   6
   7   1   6 204.091 250.754   2
  -7  -1  -7 6065.25 1050.27   4
  -7  -1  -7 6490.16 1211.24   6
   7   1   7 6390.33 744.337   3
   7   1   7 6352.10 1137.52   2
   7   1   7 5996.99 1014.51   5
   7   1   8 1034.65 380.884   5
  -7  -1  -8 1332.74 526.374   4
  -7  -1  -8 740.299 394.026   6
   7   1   8 770.144 414.496   2
  -7  -1  -9 4155.69 960.886   4
  -7  -1  -9 2519.58 784.781   6
   7   1   9 2670.71 808.181   2
   7   1   9 1770.13 596.503   5
  -7  -1 -10 53.4602 144.328   4
  -7  -1 -10-113.412 266.814   6
   7   1  10 134.252 236.228   2
   7   1  10 109.982 225.286   5
  -7  -1 -11 1094.25 503.393   4
   7   1  11 1289.93 589.854   2
  -7  -1 -11 1810.94 721.383   6
   7   1  11 633.637 456.272   5
  -7  -1 -12 392.121 364.526   6
   7   1  12-228.456 421.329   5
  -7  -1 -13 259.654 320.275   6
   7   1  13 920.936 580.240   5
   7   2  -6 190.774 173.572   3
  -7  -2   6 1293.66 721.685   7
   7   2  -5 972.164 443.921   3
  -7  -2   5 681.049 504.056   7
   7   2  -4 183.893 135.839   3
  -7  -2   4 147.346 221.287   7
   7   2  -3 3246.32 790.351   3
  -7  -2   3 1817.04 674.915   7
   7   2  -2 1165.59 458.635   3
  -7  -2   2 532.028 370.506   7
   7   2  -1 4213.80 857.908   3
  -7  -2   1 3648.54 909.410   7
   7   2   0 743.489 346.733   3
   7   2   0 771.423 290.702   2
  -7  -2   0 198.945 162.441   7
   7   2   1 1450.40 403.953   5
   7   2   1 1645.78 475.872   3
   7   2   1 1296.37 420.100   2
   7   2   1 1650.35 389.031   4
  -7  -2  -1 2823.88 784.669   7
   7   2   2 2003.46 469.245   5
   7   2   2 1589.44 493.198   3
   7   2   2 2118.17 526.765   2
   7   2   2 2010.34 476.535   4
   7   2   3 29.2333 91.8945   5
   7   2   3 174.966 218.872   3
   7   2   3 226.421 151.183   4
   7   2   3 264.804 250.779   2
   7   2   4-11.0851 62.4903   5
   7   2   4 351.208 262.864   3
  -7  -2  -4 114.705 96.2308   4
   7   2   4 199.549 264.266   2
   7   2   4-17.9603 114.519   1
  -7  -2  -5 5842.41 967.814   4
   7   2   5 5656.27 855.397   1
   7   2   5 6507.94 1079.21   2
  -7  -2  -5 7570.41 1272.08   6
   7   2   5 6649.09 943.432   3
   7   2   5 6863.60 912.241   5
   7   2   6 1782.59 507.471   5
   7   2   6 1662.12 446.543   3
  -7  -2  -6 2097.97 603.406   4
   7   2   6 1362.17 392.251   1
   7   2   6 1647.99 574.739   2
  -7  -2  -6 2884.03 828.727   6
  -7  -2  -7 4210.85 868.397   4
   7   2   7 4126.47 925.660   2
  -7  -2  -7 5617.52 1165.53   6
   7   2   7 5868.90 842.137   3
   7   2   7 5132.87 867.380   5
   7   2   8 809.543 341.896   3
  -7  -2  -8 1067.39 486.458   4
   7   2   8 1504.92 589.473   2
  -7  -2  -8 525.566 408.404   6
   7   2   8 884.648 453.216   5
  -7  -2  -9 1897.62 640.027   4
   7   2   9 1991.06 725.166   2
  -7  -2  -9 1606.98 643.568   6
   7   2   9 935.810 418.764   5
   7   2  10 355.299 322.203   2
  -7  -2 -10-216.151 311.798   6
   7   2  10-8.10216 250.431   5
  -7  -2 -11 1450.34 570.777   4
   7   2  11 2601.48 894.852   2
  -7  -2 -11 1448.03 670.524   6
   7   2  11 2622.11 859.924   5
  -7  -2 -12-196.761 266.212   6
   7   2  12 83.5836 311.920   5
  -7  -2 -13 219.599 245.233   6
   7   2  13 817.868 470.410   5
  -7  -3   6 343.416 435.169   7
   7   3  -5 926.622 445.048   3
  -7  -3   5 492.007 578.521   7
   7   3  -4 1010.79 541.109   3
  -7  -3   4 686.288 490.222   7
   7   3  -3 1327.54 538.653   3
  -7  -3   3 1804.14 639.302   7
   7   3  -2 6.84482 201.200   3
  -7  -3   2 133.243 146.432   7
   7   3  -1 2692.67 689.616   3
  -7  -3   1 2228.55 702.211   7
   7   3   0 133.449 124.647   2
   7   3   0 74.2922 94.9051   5
  -7  -3   0 243.368 190.227   7
   7   3   1 2476.24 455.044   5
   7   3   1 3465.37 685.866   2
   7   3   1 3628.90 805.819   3
  -7  -3  -1 2301.57 702.177   7
   7   3   2 418.552 180.185   5
   7   3   2 606.919 275.564   3
   7   3   2 223.608 278.982   2
   7   3   2 271.399 177.850   4
   7   3   3 1375.07 331.854   5
   7   3   3 800.603 377.698   3
   7   3   3 1676.71 595.915   2
   7   3   3 1020.85 367.840   4
   7   3   4 1510.58 372.852   5
   7   3   4 1689.46 522.935   3
   7   3   4 2270.01 653.344   2
  -7  -3  -4 1328.43 517.315   6
   7   3   5 3283.64 675.104   1
   7   3   5 4535.22 845.216   3
   7   3   5 2336.76 708.039   2
  -7  -3  -5 5105.48 1098.50   6
   7   3   5 4492.16 645.701   5
   7   3   6 253.335 194.024   1
   7   3   6-420.627 257.334   3
   7   3   6-329.562 430.625   2
  -7  -3  -6 49.0119 185.543   6
   7   3   6-232.755 210.825   5
   7   3   7 1746.54 531.426   3
   7   3   7 1075.47 484.313   2
  -7  -3  -7 1083.22 545.126   6
   7   3   7 952.505 373.530   5
   7   3   8 2301.16 575.054   3
   7   3   8 2105.30 749.786   2
  -7  -3  -8 2354.43 799.530   6
   7   3   8 1749.21 554.401   5
   7   3   9 3591.59 994.539   2
  -7  -3  -9 4159.74 1145.47   6
   7   3   9 4680.02 971.015   5
   7   3  10 1069.12 548.535   2
  -7  -3 -10 290.243 393.241   6
   7   3  10 401.595 298.315   5
   7   3  11 576.079 495.803   2
  -7  -3 -11 1216.86 615.819   6
   7   3  11 1013.62 543.922   5
  -7  -3 -12-3.81124 165.783   6
   7   3  12 582.500 451.689   5
   7   3  13 448.146 397.016   5
  -7  -4   6 548.665 324.802   7
  -7  -4   5-122.100 284.766   7
   7   4  -4 18.8969 125.056   3
  -7  -4   4 510.429 331.425   7
   7   4  -3 691.951 347.540   3
  -7  -4   3 599.863 380.621   7
   7   4  -2 397.155 263.995   3
  -7  -4   2-26.4508 242.714   7
   7   4  -1 2861.66 763.944   3
  -7  -4   1 4052.51 983.305   7
   7   4   0 203.006 188.321   3
  -7  -4   0 475.751 322.641   7
   7   4   0 296.736 195.122   2
   7   4   1 1744.00 483.834   2
   7   4   1 1979.09 608.224   3
   7   4   2 508.868 299.988   2
   7   4   2 178.460 265.168   3
   7   4   3 4109.16 892.806   2
   7   4   3 2646.02 699.797   3
   7   4   3 3045.26 628.636   4
   7   4   4 299.804 154.849   2
   7   4   4 208.185 214.703   3
  -7  -4  -4 466.144 349.879   6
   7   4   5 688.464 347.413   3
   7   4   5 616.751 386.728   2
  -7  -4  -5 718.482 493.840   6
   7   4   6 462.583 339.884   2
  -7  -4  -6 290.440 305.482   6
   7   4   6 276.509 206.964   5
   7   4   7 4237.25 1019.90   2
  -7  -4  -7 4520.02 1082.66   6
   7   4   7 3165.95 635.937   5
   7   4   8 304.507 304.629   2
  -7  -4  -8 941.831 561.801   6
   7   4   8 553.873 314.139   5
   7   4   9 1257.02 652.609   2
  -7  -4  -9 1474.33 683.099   6
   7   4  10 1128.63 553.472   2
  -7  -4 -10 138.740 242.745   6
   7   4  11 2576.17 941.465   2
  -7  -4 -11 808.619 549.707   6
  -7  -4 -12-210.792 300.688   6
  -7  -5   6-414.241 495.539   7
  -7  -5   5 226.856 262.686   7
  -7  -5   4-262.271 275.792   7
   7   5  -3 2657.14 811.901   3
  -7  -5   3 780.236 458.776   7
   7   5  -2 185.759 195.723   3
  -7  -5   2 74.7041 136.246   1
  -7  -5   2-51.2276 174.809   7
   7   5  -1 560.637 398.723   3
  -7  -5   1 808.157 456.403   1
  -7  -5   1 869.516 448.967   7
   7   5   0 209.783 207.412   3
  -7  -5   0 239.555 232.307   1
   7   5   1 3140.00 831.967   3
  -7  -5  -1 3069.12 781.512   1
   7   5   1 2584.70 609.987   2
   7   5   2 1842.69 595.807   2
   7   5   2 1188.84 533.430   3
  -7  -5  -2 1396.74 527.366   1
   7   5   3 1854.53 635.671   2
   7   5   3 2663.19 722.409   3
  -7  -5  -3 1572.42 515.185   1
   7   5   4 215.887 308.456   2
   7   5   4 228.833 236.587   3
  -7  -5  -4 330.446 192.771   1
  -7  -5  -4 627.306 463.321   6
   7   5   5 1651.14 649.879   2
  -7  -5  -5 2131.89 575.551   1
  -7  -5  -5 2896.97 896.286   6
   7   5   6 449.174 399.340   2
  -7  -5  -6-84.1654 207.766   1
  -7  -5  -6-15.5138 139.931   6
   7   5   7 2697.95 879.810   2
  -7  -5  -7 3505.03 1018.03   6
   7   5   8 158.750 263.857   2
  -7  -5  -8 302.761 420.862   6
   7   5   9 2041.01 811.225   2
  -7  -5  -9 2373.41 925.737   6
   7   5  10 903.837 640.821   2
  -7  -5 -10 154.073 279.901   6
   7   5  11 1248.55 661.257   2
  -7  -5 -11 1411.90 741.110   6
  -7  -6   4-5.66407 86.6238   7
  -7  -6   3 837.585 477.932   7
   7   6  -2 638.356 449.847   3
  -7  -6   2 342.037 313.064   1
  -7  -6   2-338.317 274.214   7
   7   6  -1 1470.24 638.494   3
  -7  -6   1 869.611 507.469   1
   7   6   0 1139.86 534.246   3
  -7  -6   0 631.665 345.961   1
   7   6   1 830.478 422.731   3
  -7  -6  -1 1235.74 527.401   1
   7   6   1 1121.33 436.457   2
   7   6   2-307.003 249.987   3
  -7  -6  -2-71.1936 139.878   1
   7   6   3 1705.66 604.161   2
   7   6   3 1631.10 581.259   3
  -7  -6  -3 517.863 328.166   1
   7   6   4 58.0828 206.707   2
  -7  -6  -4 223.127 236.804   1
  -7  -6  -4 114.084 134.002   6
   7   6   5 1881.77 703.581   2
  -7  -6  -5 2463.34 643.733   1
  -7  -6  -5 1287.48 677.105   6
   7   6   6-74.6629 199.244   2
  -7  -6  -6 147.892 242.085   1
  -7  -6  -6 79.7236 220.605   6
   7   6   7 951.181 578.161   2
  -7  -6  -7 1265.29 432.055   1
  -7  -6  -7 880.857 564.616   6
   7   6   8 1112.51 641.504   2
  -7  -6  -8 427.617 265.018   1
  -7  -6  -8 587.871 538.722   6
   7   6   9 561.756 452.862   2
  -7  -6  -9 1405.34 812.820   6
   7   6  10 724.159 544.751   2
  -7  -6 -10 111.402 167.869   6
  -7  -7   1 1155.02 592.771   1
   7   7   0-317.465 378.833   3
  -7  -7   0 280.812 337.290   1
   7   7   1 1218.25 538.594   3
  -7  -7  -1 1309.27 544.312   1
   7   7   2-281.805 281.416   3
  -7  -7  -2 210.466 309.275   1
   7   7   2 121.590 176.894   2
  -7  -7  -3 736.193 371.070   1
   7   7   3 2104.30 711.241   2
   7   7   4 661.317 467.426   2
  -7  -7  -4 268.005 226.947   6
  -7  -7  -4 118.085 219.522   1
   7   7   5 1203.56 592.396   2
  -7  -7  -5 216.836 215.911   1
  -7  -7  -5 1011.32 564.199   6
   7   7   6 52.3846 154.643   2
  -7  -7  -6-167.709 156.131   1
  -7  -7  -6 3.55796 353.927   6
   7   7   7 636.940 480.873   2
  -7  -7  -7 1028.95 418.563   1
  -7  -7  -7 1063.92 621.629   6
   7   7   8-667.981 475.475   2
  -7  -7  -8 258.066 175.902   1
  -7  -7  -8 310.885 455.395   6
   7   7   9 1016.50 549.546   2
  -7  -7  -9 1373.46 765.377   6
  -7  -8  -1 380.338 352.488   1
   7   8   2 458.307 332.301   3
  -7  -8  -2 108.980 191.489   1
   7   8   2 120.644 170.969   2
  -7  -8  -3 414.818 336.845   1
   7   8   3 552.465 430.725   2
  -7  -8  -4 115.112 203.957   6
  -7  -8  -4 30.0046 221.904   1
   7   8   4-209.718 213.487   2
  -7  -8  -5 1077.29 589.560   6
  -7  -8  -5 335.516 307.254   1
   7   8   5 971.523 474.116   2
  -7  -8  -6 68.4806 142.630   6
  -7  -8  -6 59.0223 93.7390   1
   7   8   7 1227.13 636.600   2
  -7  -8  -7 995.935 620.602   6
  -7  -8  -7 619.286 333.076   1
   7   8   8-561.213 450.248   2
  -7  -8  -8 142.336 170.231   1
   7   9   3-68.7430 175.961   2
   7   9   4-637.225 445.941   2
  -7  -9  -4-44.3206 123.579   1
   7   9   5 80.0540 314.489   2
  -7  -9  -5 24.3188 110.142   1
  -7  -9  -6-240.319 352.701   1
   7   9   6 670.053 566.596   2
  -7  -9  -7 2.73452 260.451   1
   7   9   7 701.265 532.490   2
  -8   6   0 182.596 261.336   4
  -8   6  -1 295.729 316.036   4
   8  -6   3-63.4937 132.733   8
   8  -5  -4 900.298 402.336   3
   8  -5  -3 398.237 231.506   3
   8  -5  -2 132.763 133.676   3
  -8   5   1-54.6807 95.3395   4
  -8   5   0 909.744 470.990   4
  -8   5   0 953.578 538.893   7
  -8   5  -1-177.655 364.299   4
  -8   5  -2-148.197 221.350   4
  -8   5  -3 42.6324 135.404   4
  -8   5  -4 1186.14 581.533   4
   8  -4  -4 163.046 171.627   3
   8  -4  -3 89.5336 168.336   3
   8  -4  -2 891.385 329.782   3
  -8   4   1 393.195 333.833   7
   8  -4  -1 158.296 136.884   3
   8  -4   0 1593.68 696.624   5
  -8   4   0 978.719 486.366   4
  -8   4   0 831.052 535.561   7
   8  -4   1-123.800 396.579   5
  -8   4  -1-614.496 388.289   4
   8  -4   2 1826.95 705.046   5
  -8   4  -2 2419.79 796.129   4
   8  -4   3 335.007 330.244   5
  -8   4  -3-432.270 311.802   4
   8  -4   4 685.506 462.550   5
  -8   4  -4 274.243 244.457   4
   8  -4   5-485.200 386.598   5
  -8   4  -5 61.9450 233.646   4
   8  -3  -4 616.614 320.069   3
   8  -3  -3 184.850 236.603   3
  -8   3   2 695.915 528.817   7
   8  -3  -2 754.336 324.912   3
  -8   3   1 241.197 229.283   7
   8  -3  -1 347.550 216.301   3
  -8   3   0 967.136 411.326   4
  -8   3   0 814.504 521.013   7
   8  -3   0 1775.51 426.119   3
   8  -3   1 600.715 408.783   5
  -8   3  -1 162.587 172.961   4
  -8   3  -1 271.633 333.969   7
   8  -3   1 614.510 255.730   3
   8  -3   2 1204.98 542.815   5
  -8   3  -2 975.745 463.302   4
   8  -3   3-45.1812 153.905   5
  -8   3  -3 114.812 103.997   4
   8  -3   4 1827.88 675.666   5
  -8   3  -4 921.941 460.428   4
   8  -3   5 774.350 553.615   5
  -8   3  -5 1501.46 616.808   4
   8  -3   6 1854.15 714.576   5
  -8   3  -6 1245.62 572.560   4
   8  -3   7-356.048 322.896   5
  -8   3  -7 444.982 375.515   4
   8  -2  -4 666.044 401.420   3
  -8   2   3 487.252 413.503   7
   8  -2  -3 433.425 270.563   3
  -8   2   2 296.532 337.657   7
   8  -2  -2 771.293 320.897   3
  -8   2   1 312.251 282.922   7
   8  -2  -1 206.998 167.874   3
  -8   2   0 2021.59 617.981   4
  -8   2   0 2581.96 893.064   7
   8  -2   0 1474.23 426.207   3
   8  -2   1 134.784 195.512   5
  -8   2  -1 244.501 226.733   4
  -8   2  -1 581.200 475.781   7
   8  -2   1 456.083 212.081   3
   8  -2   2 3652.38 933.922   5
  -8   2  -2 4147.01 900.466   4
   8  -2   2 3115.16 544.592   3
   8  -2   3 217.186 216.944   5
  -8   2  -3-14.1132 128.542   4
   8  -2   4 1490.96 566.839   5
  -8   2  -4 1978.19 654.757   4
   8  -2   5 302.386 308.759   5
  -8   2  -5 551.692 385.608   4
   8  -2   6 350.233 329.866   5
  -8   2  -6-18.7608 87.5348   4
   8  -2   7 902.644 499.292   5
  -8   2  -7 2230.41 744.517   4
   8  -2   8 3039.96 888.456   5
  -8   2  -8 3065.65 903.603   4
   8  -2   9 84.6574 167.731   5
   8  -1  -4 502.274 309.857   3
   8  -1  -3 40.0399 156.208   3
  -8   1   3 303.753 374.900   7
   8  -1  -2 909.251 357.045   3
  -8   1   2 1574.27 708.647   7
   8  -1  -1 82.2460 103.025   3
  -8   1   1 201.940 253.274   7
   8  -1   0 693.171 257.913   3
  -8   1   0 1285.93 419.032   4
  -8   1   0 1641.25 671.571   7
   8  -1   1 305.935 195.264   3
   8  -1   1-80.5536 221.931   5
  -8   1  -1 471.290 273.436   4
  -8   1  -1 752.517 475.301   7
   8  -1   2 3695.82 626.776   3
   8  -1   2 3634.95 912.833   5
  -8   1  -2 3050.02 711.458   4
   8  -1   3-191.497 183.558   3
   8  -1   3 230.509 234.505   5
  -8   1  -3 39.1293 146.908   4
   8  -1   4 2112.86 680.317   5
  -8   1  -4 2464.13 685.936   4
   8  -1   5 827.405 385.703   5
  -8   1  -5 603.587 343.102   4
   8  -1   6 2732.64 754.711   5
  -8   1  -6 3198.53 836.532   4
   8  -1   7 1038.35 495.235   5
  -8   1  -7 731.486 441.136   4
   8  -1   8 208.679 104.519   5
  -8   1  -8 354.646 248.132   4
   8  -1   9 205.711 232.942   5
  -8   1  -9 84.8578 231.862   4
   8  -1  10 1411.42 655.305   5
   8   0  -4 244.043 224.553   3
   8   0  -3 396.491 300.358   3
  -8   0   3 436.468 439.781   7
   8   0  -2 1151.52 401.609   3
  -8   0   2 1128.33 633.937   7
   8   0  -1 514.598 299.408   3
  -8   0   1-153.840 269.415   7
   8   0   0 1948.56 527.563   3
  -8   0   0 1520.76 416.169   4
  -8   0   0 2128.37 767.842   7
   8   0   1 385.695 198.438   3
   8   0   1 797.262 411.976   5
  -8   0  -1 1107.78 401.600   4
  -8   0  -1 335.794 261.980   7
   8   0   1 476.671 269.967   2
   8   0   2 3471.60 669.181   3
   8   0   2 4000.01 852.592   5
  -8   0  -2 3269.75 714.987   4
   8   0   2 3127.09 660.273   2
   8   0   3 76.8694 154.014   3
   8   0   3 126.565 117.075   5
  -8   0  -3 354.911 267.436   4
   8   0   3-27.0227 120.607   2
   8   0   4 6040.26 1049.43   5
  -8   0  -4 6592.78 1094.47   4
   8   0   4 4770.90 709.884   3
   8   0   4 5428.52 992.440   2
   8   0   5 6.37630 180.383   5
  -8   0  -5-85.8734 118.827   4
   8   0   5-344.664 251.193   2
   8   0   6 1540.64 549.247   5
  -8   0  -6 702.553 404.507   4
   8   0   7 287.282 247.452   5
  -8   0  -7 22.5093 190.028   4
   8   0   8 1155.51 533.345   5
  -8   0  -8 947.444 499.992   4
   8   0   9 154.340 231.734   5
  -8   0  -9 273.922 351.322   4
   8   0   9-482.680 207.025   2
  -8   0 -10 925.535 453.593   6
   8   0  10 409.394 410.624   5
  -8   0 -11 43.3778 178.012   6
   8   0  11-491.395 396.110   5
   8   1  -4 1075.95 453.871   3
  -8  -1   4 403.248 326.019   7
   8   1  -3 101.776 169.360   3
  -8  -1   3-436.733 375.473   7
   8   1  -2 285.041 163.960   3
  -8  -1   2 882.098 539.124   7
   8   1  -1 840.148 339.588   3
  -8  -1   1-6.31672 148.955   7
   8   1   0 678.087 363.274   3
  -8  -1   0 680.169 397.510   7
   8   1   1 233.852 201.052   5
   8   1   1-144.543 161.611   3
  -8  -1  -1 276.678 321.460   7
   8   1   2 1066.90 425.630   5
   8   1   2 1061.29 376.470   3
  -8  -1  -2 1290.28 416.365   4
   8   1   2 770.464 355.601   2
   8   1   3 281.974 237.469   5
   8   1   3-14.2432 139.535   3
  -8  -1  -3 218.037 220.047   4
   8   1   3 254.411 290.265   2
   8   1   4 5012.69 890.627   5
   8   1   4 3994.96 715.748   3
  -8  -1  -4 4499.88 874.339   4
   8   1   4 4171.06 861.983   2
   8   1   5-74.1870 177.813   5
   8   1   5 89.9836 82.6092   3
  -8  -1  -5 10.4108 151.497   4
   8   1   5-230.321 261.083   2
   8   1   6 4080.59 819.057   5
  -8  -1  -6 3672.63 857.955   4
   8   1   6 4046.08 913.630   2
   8   1   7 467.667 313.567   5
  -8  -1  -7 384.261 189.162   4
   8   1   7 206.289 173.828   2
   8   1   8 655.369 328.020   5
  -8  -1  -8 1698.69 611.865   4
  -8  -1  -8 1823.26 692.249   6
   8   1   8 1545.60 631.954   2
  -8  -1  -9 344.825 200.973   4
  -8  -1  -9-58.4048 189.785   6
   8   1   9-430.487 368.344   2
   8   1   9-872.635 447.434   5
  -8  -1 -10 581.900 481.400   4
   8   1  10 693.123 391.719   2
  -8  -1 -10 1095.50 540.242   6
   8   1  10 459.566 380.251   5
  -8  -1 -11-124.515 208.561   6
   8   1  11 74.4002 279.064   5
  -8  -2   4 225.270 306.422   7
   8   2  -3 248.459 114.190   3
  -8  -2   3 161.751 325.921   7
   8   2  -2 996.940 465.480   3
  -8  -2   2-86.3302 147.239   7
   8   2  -1 8.72114 231.305   3
  -8  -2   1-102.803 158.814   7
   8   2   0 551.896 287.621   3
  -8  -2   0 251.499 361.094   7
   8   2   1 457.117 340.518   3
  -8  -2  -1 381.210 331.233   7
   8   2   2 2354.53 572.201   5
   8   2   2 2671.18 662.953   3
   8   2   2 1491.11 507.342   2
   8   2   3 218.880 188.682   5
   8   2   3-63.8452 187.559   3
   8   2   3 360.172 230.944   2
   8   2   4 1418.03 432.403   5
   8   2   4 2118.78 579.558   3
   8   2   4 1721.41 581.315   2
   8   2   5 217.055 183.956   5
   8   2   5 311.698 191.298   3
   8   2   5 309.028 255.367   2
   8   2   6 2621.38 632.541   5
   8   2   6 2830.63 651.030   3
  -8  -2  -6 2423.00 685.786   4
   8   2   6 3762.01 923.511   2
   8   2   7 373.149 256.037   5
  -8  -2  -7 6.86646 194.811   4
   8   2   7 35.5274 131.875   2
  -8  -2  -7-54.2954 299.782   6
  -8  -2  -8 1119.47 526.229   4
   8   2   8 1425.03 559.195   2
  -8  -2  -8 748.830 554.321   6
   8   2   8 905.138 431.539   5
  -8  -2  -9-408.452 316.192   4
   8   2   9 714.092 447.630   2
  -8  -2  -9 451.343 366.306   6
   8   2   9 136.193 134.278   5
  -8  -2 -10 962.296 484.679   4
   8   2  10 1345.82 605.455   2
  -8  -2 -10 1161.83 618.841   6
  -8  -2 -11 421.758 404.449   6
  -8  -3   4 26.8729 150.988   7
   8   3  -3 295.715 318.310   3
  -8  -3   3 331.349 351.708   7
   8   3  -2 5.02548 188.246   3
  -8  -3   2-637.662 349.584   7
   8   3  -1 226.607 274.248   3
  -8  -3   1 254.547 412.333   7
   8   3   0 1758.92 588.453   3
  -8  -3   0 1482.49 611.137   7
   8   3   1 547.939 324.495   3
   8   3   2 798.976 412.846   3
   8   3   2 233.364 245.418   2
   8   3   3 466.241 347.760   3
   8   3   3 347.455 277.276   2
   8   3   4 2062.61 619.181   3
   8   3   4 2196.89 657.336   2
   8   3   5-119.516 214.652   3
   8   3   5 845.760 393.511   2
   8   3   6 2285.50 619.077   3
   8   3   6 1799.58 639.443   2
  -8  -3  -6 2153.42 784.935   6
   8   3   7 89.2497 222.394   3
   8   3   7 226.965 288.786   2
  -8  -3  -7 407.358 355.018   6
   8   3   8 2276.65 796.058   2
  -8  -3  -8 1948.29 750.468   6
   8   3   9 161.113 427.373   2
  -8  -3  -9 777.140 530.725   6
   8   3  10 355.702 491.489   2
  -8  -3 -10-334.908 428.263   6
  -8  -4   4 882.937 529.794   7
  -8  -4   3-68.4088 163.588   7
   8   4  -2 288.200 247.860   3
  -8  -4   2 1103.37 588.383   7
   8   4  -1-193.859 289.415   3
  -8  -4   1-35.9593 116.211   7
   8   4   0 376.798 358.546   3
  -8  -4   0 887.458 477.535   7
   8   4   1 624.438 303.577   3
   8   4   2 1199.82 538.272   3
   8   4   3 1653.09 608.986   2
   8   4   3 988.400 441.912   3
   8   4   4 1591.92 568.751   3
   8   4   4 1428.94 556.212   2
   8   4   5 13.8876 199.459   3
   8   4   5 53.8647 151.623   2
   8   4   6 467.380 302.361   3
   8   4   6 2251.63 771.855   2
  -8  -4  -6 1390.09 625.310   6
   8   4   7-37.7558 268.457   3
   8   4   7 153.364 341.047   2
  -8  -4  -7 590.744 407.570   6
   8   4   8 600.550 342.123   3
   8   4   8 1718.24 749.175   2
  -8  -4  -8 553.074 536.333   6
   8   4   9-53.1434 179.447   2
  -8  -4  -9-594.605 448.328   6
   8   4  10 778.805 529.048   2
  -8  -5   3 162.238 229.530   7
  -8  -5   2-126.737 209.989   7
   8   5  -1 639.044 452.087   3
  -8  -5   1 408.849 309.912   7
   8   5   0 174.084 198.250   3
   8   5   1 105.829 150.296   3
   8   5   2 624.659 386.798   3
   8   5   3 552.638 359.320   2
   8   5   3 368.176 204.812   3
   8   5   4 898.871 469.630   2
   8   5   4 494.451 351.936   3
   8   5   5 62.7649 158.814   3
  -8  -5  -5 66.3889 173.365   6
   8   5   6 737.844 471.902   2
   8   5   6 277.370 283.353   3
  -8  -5  -6 1307.35 677.642   6
   8   5   7 882.384 513.769   2
   8   5   7 702.721 426.231   3
  -8  -5  -7 54.6797 294.837   6
   8   5   8 1369.48 716.730   2
   8   5   8 534.484 371.157   3
  -8  -5  -8 707.706 472.500   6
   8   5   9 485.255 478.748   2
  -8  -6   2 725.426 432.766   7
   8   6   1 325.413 357.108   3
  -8  -6  -1 577.257 407.912   1
   8   6   2 394.332 390.521   3
  -8  -6  -2 130.678 176.553   1
   8   6   3 675.504 472.298   3
  -8  -6  -3 294.309 246.777   1
   8   6   4 634.984 487.439   2
   8   6   4 117.297 337.495   3
  -8  -6  -4 699.806 414.862   1
   8   6   5 127.303 248.029   2
   8   6   5-100.602 356.346   3
  -8  -6  -5 334.108 260.615   6
   8   6   6 430.057 267.232   2
   8   6   6 419.434 342.436   3
  -8  -6  -6 681.834 470.847   6
   8   6   7 711.771 436.324   2
   8   6   8 1335.74 673.883   2
   8   6   9 128.777 273.154   2
  -8  -7  -2 263.487 261.171   1
   8   7   3 692.850 559.685   3
  -8  -7  -3 90.2241 214.863   1
   8   7   4-3.20554 152.652   3
  -8  -7  -4 783.865 454.619   1
   8   7   4 878.718 482.315   2
   8   7   5 528.759 467.805   2
  -8  -7  -5 112.471 103.678   1
   8   7   6-442.113 376.767   2
  -8  -7  -6-31.9462 104.163   1
   8   7   7 520.251 433.682   2
  -8  -7  -7 511.850 332.985   1
   8   7   8 216.222 397.345   2
  -8  -8  -4 196.305 261.866   1
  -8  -8  -5-316.637 282.039   1
   8   8   5-379.383 356.887   2
   8   8   6 1467.46 671.946   2
  -8  -8  -6 232.742 272.714   1
   8   8   7 26.9319 211.886   2
  -9   4  -2 287.732 244.346   4
  -9   4  -3 409.423 348.766   4
   9  -3   0 96.8865 203.630   5
   9  -3   1 165.362 306.879   5
   9  -3   2-520.684 406.037   5
  -9   3  -2-335.936 292.439   4
   9  -3   3 1468.60 693.014   5
  -9   3  -3 615.236 365.484   4
   9  -3   4 30.6592 222.509   5
  -9   3  -4-144.370 182.299   4
  -9   3  -5-360.699 322.922   4
   9  -2  -2 218.462 211.248   3
   9  -2  -1 183.557 173.948   3
   9  -2   0-248.962 374.925   5
   9  -2   1 774.559 522.976   5
   9  -2   2-713.453 444.873   5
   9  -2   3 605.879 406.380   5
  -9   2  -3 243.583 212.053   4
   9  -2   4 573.448 408.567   5
  -9   2  -4-66.9846 240.474   4
   9  -2   5 444.241 420.091   5
  -9   2  -5 547.409 429.589   4
   9  -2   6-61.9643 237.541   5
  -9   2  -6-61.4155 216.399   4
   9  -2   7-92.7015 167.692   5
   9  -1  -2 304.063 280.657   3
   9  -1  -1 615.279 346.113   3
   9  -1   0 416.348 261.297   3
   9  -1   0-263.381 285.597   5
   9  -1   1 182.832 167.898   3
   9  -1   1 409.201 339.046   5
   9  -1   2 41.2802 119.360   5
   9  -1   3 636.991 344.740   5
  -9   1  -3 617.585 359.148   4
   9  -1   4-41.0305 278.285   5
  -9   1  -4 139.938 188.400   4
   9  -1   5 336.956 368.641   5
  -9   1  -5-32.9780 171.399   4
   9  -1   6-234.829 223.124   5
  -9   1  -6 86.8827 157.751   4
   9  -1   7-115.795 192.014   5
  -9   1  -7 82.5761 208.743   4
   9  -1   8 137.810 220.650   5
   9   0  -2-496.313 317.125   3
   9   0  -1 172.301 176.749   3
   9   0   0 65.3164 285.633   3
   9   0   1 432.171 250.212   3
   9   0   2-71.0212 154.410   3
   9   0   3 786.680 405.487   5
  -9   0  -3 1116.06 462.190   4
   9   0   4 213.270 210.696   5
  -9   0  -4 235.301 147.778   4
   9   0   4 565.990 289.049   2
   9   0   5 513.297 326.906   5
  -9   0  -5 1349.86 559.576   4
   9   0   5 735.202 467.156   2
   9   0   6 482.033 384.928   5
  -9   0  -6 313.668 293.814   4
   9   0   6 2.70458 216.556   2
   9   0   7 771.111 512.322   5
  -9   0  -7 730.020 440.505   4
   9   0   7 412.655 197.789   2
   9   0   8 12.7702 171.318   2
   9   1  -1 690.450 406.224   3
   9   1   0 424.482 282.708   3
   9   1   1 329.840 305.702   3
   9   1   2-49.7278 163.731   3
   9   1   3 1166.19 435.756   3
  -9  -1  -4 55.2095 210.996   4
  -9  -1  -5 487.248 355.446   4
   9   1   5 260.580 220.362   2
  -9  -1  -6 58.7166 144.916   4
   9   1   6-308.402 335.195   2
  -9  -1  -7 1396.48 557.418   4
   9   1   7 216.420 236.599   2
  -9  -1  -8 391.530 304.500   4
   9   1   8-148.041 164.927   2
   9   2  -1 348.005 316.336   3
   9   2   0-338.429 280.667   3
   9   2   1 1674.81 584.512   3
   9   2   2-64.2205 131.665   3
   9   2   3 801.523 376.896   3
   9   2   4 488.421 311.312   3
   9   2   5 1290.81 578.763   2
   9   2   6 713.184 539.291   2
   9   2   7 551.168 441.616   2
   9   2   8 1093.39 572.709   2
   9   3   0 363.444 323.849   3
   9   3   1 458.917 345.703   3
   9   3   2 153.374 97.5779   3
   9   3   3 1573.22 559.396   3
   9   3   4-511.361 325.652   3
   9   3   5 471.753 306.342   3
   9   3   5 188.259 232.086   2
   9   3   6 84.2947 122.765   2
   9   3   7 693.384 500.166   2
   9   3   8 254.039 348.704   2
   9   4   1 465.850 243.894   3
   9   4   2 717.333 439.598   3
   9   4   3 297.870 278.190   3
   9   4   4 162.626 240.474   3
   9   4   5 1229.00 572.338   3
   9   4   6 107.088 115.251   3
   9   4   6 249.578 275.300   2
   9   4   7 553.745 287.807   2
   9   4   8-595.932 444.729   2
   9   5   3 1276.79 621.940   3
   9   5   4 189.814 369.617   3
   9   5   5-59.6293 155.987   3
   9   5   6 117.628 304.654   2
   9   5   6 296.489 378.610   3
   9   5   7 336.745 251.920   2
   9   5   8 1199.84 703.118   2
   9   6   5 467.851 367.363   3
   9   6   6 75.7608 167.393   3
   9   6   7-160.356 188.482   2
   9   6   7 519.079 403.264   3
   0   0   0    0.00    0.00   0

TITL exp_1338 in P-1
REM P-1 (#2 in standard setting)
CELL 0.71073   7.199039   9.215556  11.767541  76.9773  77.3455  83.9536
ZERR    2.00   0.000447   0.000547   0.000807   0.0054   0.0056   0.0050
LATT  1
SFAC C H F Fe
UNIT 32.00 20.00 12.00 2.00
TREF
HKLF 4
END
;
_shelx_hkl_checksum              82936
_olex2_date_sample_data_collection 2018-12-13
_olex2_exptl_crystal_mounting_method 'Inside 1.0 mm X-ray capillary'
_olex2_submission_special_instructions 'No special instructions were received'
_oxdiff_exptl_absorpt_empirical_details
;
Empirical correction (ABSPACK) includes:
- Absorption correction using spherical harmonics
- Frame scaling
;
_oxdiff_exptl_absorpt_empirical_full_max 1.666
_oxdiff_exptl_absorpt_empirical_full_min 0.767
loop_
_space_group_symop_operation_xyz
'x, y, z'
'-x, -y, -z'
loop_
_atom_site_label
_atom_site_type_symbol
_atom_site_fract_x
_atom_site_fract_y
_atom_site_fract_z
_atom_site_U_iso_or_equiv
_atom_site_adp_type
_atom_site_occupancy
_atom_site_site_symmetry_order
_atom_site_calc_flag
Fe1 Fe 0.24241(5) 0.49710(4) 0.25144(3) 0.0535(2) Uani 1 1 d
C7 C 0.3116(8) 0.6779(6) 0.1220(6) 0.116(2) Uani 1 1 d
H7 H 0.413(6) 0.696(4) 0.105(4) 0.101(16) Uiso 1 1 d
C8 C 0.2348(8) 0.5738(6) 0.0778(4) 0.0923(14) Uani 1 1 d
H8 H 0.299(6) 0.525(5) 0.025(4) 0.123(17) Uiso 1 1 d
C9 C 0.0561(7) 0.5529(5) 0.1402(4) 0.0837(11) Uani 1 1 d
H9 H -0.030(6) 0.485(4) 0.128(4) 0.121(15) Uiso 1 1 d
C10 C 0.0161(6) 0.6406(5) 0.2239(4) 0.0855(12) Uani 1 1 d
H10 H -0.108(6) 0.640(4) 0.279(4) 0.130(16) Uiso 1 1 d
C11 C 0.1705(9) 0.7178(4) 0.2137(5) 0.0975(16) Uani 1 1 d
H11 H 0.189(5) 0.774(4) 0.262(3) 0.101(14) Uiso 1 1 d
C12 C 0.4732(6) 0.4084(6) 0.3183(5) 0.1056(19) Uani 1 1 d
H12 H 0.575(6) 0.446(4) 0.297(3) 0.101(14) Uiso 1 1 d
C13 C 0.4033(7) 0.3038(5) 0.2695(4) 0.0914(14) Uani 1 1 d
H13 H 0.467(5) 0.262(4) 0.209(3) 0.102(14) Uiso 1 1 d
C14 C 0.2218(7) 0.2780(4) 0.3295(4) 0.0785(10) Uani 1 1 d
H14 H 0.138(6) 0.210(5) 0.315(4) 0.131(16) Uiso 1 1 d
C15 C 0.1755(6) 0.3632(4) 0.4159(3) 0.0763(10) Uani 1 1 d
H15 H 0.051(5) 0.371(4) 0.464(3) 0.111(14) Uiso 1 1 d
C16 C 0.3269(7) 0.4434(5) 0.4097(4) 0.0843(12) Uani 1 1 d
H16 H 0.337(7) 0.513(5) 0.448(4) 0.135(19) Uiso 1 1 d
F1 F 0.3683(3) 0.9958(3) -0.1137(2) 0.1129(8) Uani 1 1 d
F2 F 0.1277(4) 0.8149(2) -0.1529(2) 0.1036(7) Uani 1 1 d
F3 F -0.2390(4) 0.8188(3) -0.0387(3) 0.1182(9) Uani 1 1 d
C1 C 0.1853(5) 0.9976(4) -0.0582(3) 0.0700(9) Uani 1 1 d
C2 C 0.0637(5) 0.9073(3) -0.0777(3) 0.0667(8) Uani 1 1 d
C3 C -0.1204(5) 0.9095(4) -0.0201(3) 0.0715(9) Uani 1 1 d
F4 F 0.7875(4) 0.1569(3) 0.5110(3) 0.1335(10) Uani 1 1 d
F5 F 0.4379(4) 0.1990(3) 0.6429(2) 0.1209(9) Uani 1 1 d
F6 F 0.1496(3) 0.0429(3) 0.6306(2) 0.1217(9) Uani 1 1 d
C4 C 0.6446(5) 0.0789(4) 0.5056(3) 0.0733(10) Uani 1 1 d
C5 C 0.4696(6) 0.0997(4) 0.5724(3) 0.0707(9) Uani 1 1 d
C6 C 0.3243(5) 0.0212(4) 0.5672(3) 0.0727(10) Uani 1 1 d
loop_
_atom_site_aniso_label
_atom_site_aniso_U_11
_atom_site_aniso_U_22
_atom_site_aniso_U_33
_atom_site_aniso_U_23
_atom_site_aniso_U_13
_atom_site_aniso_U_12
Fe1 0.0603(3) 0.0472(3) 0.0521(3) -0.00526(19) -0.0173(2) 0.00261(19)
C7 0.078(3) 0.097(4) 0.142(5) 0.064(4) -0.037(3) -0.027(3)
C8 0.114(4) 0.091(3) 0.056(2) -0.001(2) -0.015(2) 0.028(3)
C9 0.098(3) 0.079(3) 0.084(3) -0.007(2) -0.050(3) 0.001(2)
C10 0.083(3) 0.090(3) 0.075(3) -0.007(2) -0.022(2) 0.028(2)
C11 0.156(5) 0.048(2) 0.106(4) -0.013(2) -0.076(4) 0.012(3)
C12 0.062(3) 0.107(4) 0.130(4) 0.042(3) -0.046(3) -0.012(3)
C13 0.105(3) 0.078(3) 0.074(3) -0.008(2) -0.014(2) 0.043(3)
C14 0.105(3) 0.051(2) 0.079(2) -0.0024(18) -0.029(2) -0.0036(19)
C15 0.084(3) 0.074(2) 0.060(2) 0.0020(18) -0.0110(19) 0.004(2)
C16 0.112(4) 0.072(3) 0.079(3) -0.006(2) -0.055(3) 0.002(2)
F1 0.0755(14) 0.1238(19) 0.1168(18) -0.0101(15) 0.0088(13) 0.0029(12)
F2 0.144(2) 0.0839(15) 0.0828(14) -0.0342(12) -0.0202(13) 0.0231(13)
F3 0.1203(19) 0.1071(18) 0.143(2) -0.0294(16) -0.0431(16) -0.0337(15)
C1 0.064(2) 0.066(2) 0.067(2) 0.0018(17) -0.0048(17) 0.0077(16)
C2 0.089(2) 0.0499(18) 0.0577(19) -0.0085(15) -0.0180(18) 0.0111(17)
C3 0.077(2) 0.058(2) 0.079(2) 0.0002(17) -0.0267(19) -0.0097(17)
F4 0.1179(19) 0.123(2) 0.174(3) -0.0126(18) -0.0587(18) -0.0481(16)
F5 0.191(3) 0.0877(16) 0.0970(16) -0.0423(14) -0.0483(17) 0.0252(16)
F6 0.0826(15) 0.138(2) 0.1084(18) 0.0051(15) 0.0125(13) 0.0228(13)
C4 0.076(2) 0.062(2) 0.082(2) 0.0041(19) -0.030(2) -0.0132(17)
C5 0.101(3) 0.0516(19) 0.061(2) -0.0096(16) -0.026(2) 0.0070(18)
C6 0.068(2) 0.069(2) 0.064(2) 0.0048(18) -0.0056(17) 0.0157(18)
loop_
_atom_type_symbol
_atom_type_description
_atom_type_scat_dispersion_real
_atom_type_scat_dispersion_imag
_atom_type_scat_source
C C 0.0033 0.0016 'International Tables Vol C Tables 4.2.6.8 and 6.1.1.4'
H H 0.0000 0.0000 'International Tables Vol C Tables 4.2.6.8 and 6.1.1.4'
F F 0.0171 0.0103 'International Tables Vol C Tables 4.2.6.8 and 6.1.1.4'
Fe Fe 0.3463 0.8444 'International Tables Vol C Tables 4.2.6.8 and 6.1.1.4'
loop_
_exptl_crystal_face_index_h
_exptl_crystal_face_index_k
_exptl_crystal_face_index_l
_exptl_crystal_face_perp_dist
0 2 16 0.1688
-2 -11 4 0.3527
-2 10 12 0.1016
1 -7 -14 0.1000
0 11 -6 0.1527
-1 7 14 0.1000
-7 7 -8 0.1653
8 -2 10 0.2091
2 -8 10 0.2361
-6 2 -14 0.1401
1 5 -12 0.1415
0 -5 13 0.2332
-5 10 1 0.1680
8 0 12 0.2066
0 -9 -13 0.1120
3 -12 -3 0.2141
3 -11 5 0.2285
6 -9 6 0.2201
-8 5 -7 0.1646
7 6 -6 0.2193
2 13 4 0.1666
loop_
_geom_angle_atom_site_label_1
_geom_angle_atom_site_label_2
_geom_angle_atom_site_label_3
_geom_angle
_geom_angle_site_symmetry_3
C7 Fe1 C8 40.7(2) .
C7 Fe1 C9 66.68(19) .
C7 Fe1 C10 66.8(2) .
C7 Fe1 C11 40.6(2) .
C7 Fe1 C12 109.90(19) .
C7 Fe1 C13 124.2(3) .
C7 Fe1 C14 158.1(3) .
C7 Fe1 C15 161.1(3) .
C7 Fe1 C16 126.3(2) .
C8 Fe1 C9 38.84(18) .
C8 Fe1 C10 66.44(18) .
C8 Fe1 C11 67.6(2) .
C8 Fe1 C14 122.0(2) .
C8 Fe1 C15 156.4(2) .
C8 Fe1 C16 163.2(2) .
C9 Fe1 C14 108.31(17) .
C9 Fe1 C15 122.53(18) .
C9 Fe1 C16 156.7(2) .
C10 Fe1 C9 39.73(17) .
C10 Fe1 C14 124.05(19) .
C10 Fe1 C15 108.70(17) .
C10 Fe1 C16 122.4(2) .
C11 Fe1 C9 66.44(18) .
C11 Fe1 C10 39.06(18) .
C11 Fe1 C14 159.2(2) .
C11 Fe1 C15 124.4(2) .
C11 Fe1 C16 109.42(19) .
C12 Fe1 C8 126.3(2) .
C12 Fe1 C9 161.0(3) .
C12 Fe1 C10 158.1(3) .
C12 Fe1 C11 124.2(2) .
C12 Fe1 C13 41.0(2) .
C12 Fe1 C14 67.39(18) .
C12 Fe1 C15 66.96(18) .
C12 Fe1 C16 40.6(2) .
C13 Fe1 C8 109.1(2) .
C13 Fe1 C9 123.9(2) .
C13 Fe1 C10 159.1(2) .
C13 Fe1 C11 160.4(2) .
C13 Fe1 C14 39.31(17) .
C13 Fe1 C15 66.68(17) .
C13 Fe1 C16 67.88(19) .
C14 Fe1 C15 39.84(15) .
C16 Fe1 C14 66.89(17) .
C16 Fe1 C15 39.15(16) .
Fe1 C7 H7 118(3) .
C8 C7 Fe1 69.9(2) .
C8 C7 H7 124(4) .
C11 C7 Fe1 70.0(2) .
C11 C7 H7 128(4) .
C11 C7 C8 106.7(4) .
Fe1 C8 H8 120(3) .
C7 C8 Fe1 69.4(3) .
C7 C8 H8 124(3) .
C9 C8 Fe1 70.9(2) .
C9 C8 C7 107.9(5) .
C9 C8 H8 127(3) .
Fe1 C9 H9 125(2) .
C8 C9 Fe1 70.3(2) .
C8 C9 H9 125(3) .
C8 C9 C10 109.0(4) .
C10 C9 Fe1 70.1(2) .
C10 C9 H9 126(3) .
Fe1 C10 H10 125(2) .
C9 C10 Fe1 70.2(2) .
C9 C10 H10 122(3) .
C11 C10 Fe1 70.3(2) .
C11 C10 C9 108.6(4) .
C11 C10 H10 130(3) .
Fe1 C11 H11 119(2) .
C7 C11 Fe1 69.4(2) .
C7 C11 H11 124(3) .
C10 C11 Fe1 70.7(2) .
C10 C11 C7 107.8(5) .
C10 C11 H11 127(3) .
Fe1 C12 H12 123(3) .
C13 C12 Fe1 69.6(2) .
C13 C12 H12 128(3) .
C16 C12 Fe1 70.2(2) .
C16 C12 H12 125(3) .
C16 C12 C13 106.8(4) .
Fe1 C13 H13 125(2) .
C12 C13 Fe1 69.3(2) .
C12 C13 H13 126(3) .
C14 C13 Fe1 70.8(2) .
C14 C13 C12 107.9(4) .
C14 C13 H13 126(3) .
Fe1 C14 H14 126(2) .
C13 C14 Fe1 69.8(2) .
C13 C14 H14 126(3) .
C13 C14 C15 108.4(4) .
C15 C14 Fe1 70.3(2) .
C15 C14 H14 125(3) .
Fe1 C15 H15 120(2) .
C14 C15 Fe1 69.8(2) .
C14 C15 H15 123(2) .
C16 C15 Fe1 70.0(2) .
C16 C15 C14 109.0(4) .
C16 C15 H15 128(2) .
Fe1 C16 H16 121(3) .
C12 C16 Fe1 69.2(2) .
C12 C16 H16 122(3) .
C15 C16 Fe1 70.8(2) .
C15 C16 C12 107.9(4) .
C15 C16 H16 130(3) .
F1 C1 C2 120.6(3) .
F1 C1 C3 119.7(3) 2_575
C2 C1 C3 119.8(3) 2_575
F2 C2 C1 119.8(3) .
F2 C2 C3 120.4(3) .
C3 C2 C1 119.8(3) .
F3 C3 C1 120.1(4) 2_575
F3 C3 C2 119.5(4) .
C2 C3 C1 120.4(3) 2_575
F4 C4 C5 119.7(4) .
F4 C4 C6 120.0(4) 2_656
C5 C4 C6 120.3(3) 2_656
F5 C5 C4 120.5(4) .
F5 C5 C6 119.6(4) .
C4 C5 C6 119.9(3) .
F6 C6 C4 119.6(4) 2_656
F6 C6 C5 120.6(4) .
C5 C6 C4 119.8(3) 2_656
loop_
_geom_bond_atom_site_label_1
_geom_bond_atom_site_label_2
_geom_bond_distance
_geom_bond_site_symmetry_2
Fe1 C7 2.011(4) .
Fe1 C8 2.016(4) .
Fe1 C9 2.024(3) .
Fe1 C10 2.023(3) .
Fe1 C11 2.018(4) .
Fe1 C12 2.011(4) .
Fe1 C13 2.015(4) .
Fe1 C14 2.028(3) .
Fe1 C15 2.035(3) .
Fe1 C16 2.025(4) .
C7 H7 0.74(4) .
C7 C8 1.399(7) .
C7 C11 1.397(7) .
C8 H8 0.87(4) .
C8 C9 1.344(6) .
C9 H9 0.98(4) .
C9 C10 1.375(6) .
C10 H10 0.98(4) .
C10 C11 1.351(6) .
C11 H11 0.89(4) .
C12 H12 0.81(4) .
C12 C13 1.411(7) .
C12 C16 1.400(7) .
C13 H13 0.90(4) .
C13 C14 1.360(6) .
C14 H14 0.97(4) .
C14 C15 1.384(5) .
C15 H15 0.95(4) .
C15 C16 1.360(6) .
C16 H16 0.88(5) .
F1 C1 1.336(4) .
F2 C2 1.342(4) .
F3 C3 1.338(4) .
C1 C2 1.356(5) .
C1 C3 1.372(5) 2_575
C2 C3 1.350(5) .
C3 C1 1.372(5) 2_575
F4 C4 1.336(4) .
F5 C5 1.338(4) .
F6 C6 1.335(4) .
C4 C5 1.351(5) .
C4 C6 1.365(5) 2_656
C5 C6 1.353(5) .
C6 C4 1.365(5) 2_656
loop_
_geom_torsion_atom_site_label_1
_geom_torsion_atom_site_label_2
_geom_torsion_atom_site_label_3
_geom_torsion_atom_site_label_4
_geom_torsion
_geom_torsion_site_symmetry_1
_geom_torsion_site_symmetry_4
Fe1 C7 C8 C9 60.7(3) . .
Fe1 C7 C11 C10 -60.5(3) . .
Fe1 C8 C9 C10 59.6(3) . .
Fe1 C9 C10 C11 60.0(3) . .
Fe1 C10 C11 C7 59.7(3) . .
Fe1 C12 C13 C14 -60.6(3) . .
Fe1 C12 C16 C15 60.5(3) . .
Fe1 C13 C14 C15 -60.0(3) . .
Fe1 C14 C15 C16 -59.3(3) . .
Fe1 C15 C16 C12 -59.5(3) . .
C7 C8 C9 Fe1 -59.8(3) . .
C7 C8 C9 C10 -0.2(4) . .
C8 C7 C11 Fe1 60.6(3) . .
C8 C7 C11 C10 0.1(4) . .
C8 C9 C10 Fe1 -59.7(3) . .
C8 C9 C10 C11 0.2(4) . .
C9 C10 C11 Fe1 -59.9(3) . .
C9 C10 C11 C7 -0.2(4) . .
C11 C7 C8 Fe1 -60.7(3) . .
C11 C7 C8 C9 0.1(4) . .
C12 C13 C14 Fe1 59.7(3) . .
C12 C13 C14 C15 -0.3(4) . .
C13 C12 C16 Fe1 -60.4(3) . .
C13 C12 C16 C15 0.1(4) . .
C13 C14 C15 Fe1 59.7(2) . .
C13 C14 C15 C16 0.4(4) . .
C14 C15 C16 Fe1 59.1(3) . .
C14 C15 C16 C12 -0.3(4) . .
C16 C12 C13 Fe1 60.7(3) . .
C16 C12 C13 C14 0.1(4) . .
F1 C1 C2 F2 0.4(4) . .
F1 C1 C2 C3 179.4(3) . .
F2 C2 C3 F3 -0.1(5) . .
F2 C2 C3 C1 179.1(3) . 2_575
C1 C2 C3 F3 -179.2(3) . .
C1 C2 C3 C1 0.0(5) . 2_575
C3 C1 C2 F2 -179.1(3) 2_575 .
C3 C1 C2 C3 0.0(5) 2_575 .
F4 C4 C5 F5 0.7(5) . .
F4 C4 C5 C6 179.9(3) . .
F5 C5 C6 F6 0.7(5) . .
F5 C5 C6 C4 179.2(3) . 2_656
C4 C5 C6 F6 -178.5(3) . .
C4 C5 C6 C4 0.0(5) . 2_656
C6 C4 C5 F5 -179.2(3) 2_656 .
C6 C4 C5 C6 0.0(5) 2_656 .
loop_
_exptl_oxdiff_crystal_face_indexfrac_h
_exptl_oxdiff_crystal_face_indexfrac_k
_exptl_oxdiff_crystal_face_indexfrac_l
_exptl_oxdiff_crystal_face_x
_exptl_oxdiff_crystal_face_y
_exptl_oxdiff_crystal_face_z
-0.1484 2.3228 16.1263 0.2326 0.9726 0.0006
-2.2593 -11.4262 3.5325 0.9057 0.0887 0.4145
-1.5130 9.9901 11.5568 -0.4931 0.8699 -0.0090
0.9678 -7.2583 -14.4825 0.2002 -0.9797 0.0091
0.3135 10.7767 -5.8815 -0.9583 -0.1780 -0.2234
-0.9678 7.2583 14.4825 -0.2002 0.9797 -0.0091
-6.6228 6.7092 -7.9455 -0.8524 -0.1597 0.4979
8.4886 -2.3031 9.7204 0.6045 0.2777 -0.7466
1.8291 -8.0251 10.3171 0.9094 0.4154 -0.0188
-5.6217 2.1385 -13.9511 -0.6385 -0.6081 0.4717
1.3355 5.5000 -12.4086 -0.7039 -0.6684 -0.2404
0.3585 -4.9277 13.4286 0.7230 0.6871 0.0723
-5.4550 10.1583 0.6633 -0.8685 0.3582 0.3427
8.0500 -0.0608 12.1225 0.4868 0.4647 -0.7396
0.4767 -9.3404 -13.1155 0.3820 -0.9195 0.0933
3.2365 -11.7933 -2.8012 0.8899 -0.4430 -0.1087
2.9500 -10.6818 4.8822 0.9958 0.0268 -0.0881
5.6357 -8.7495 5.6653 0.9273 0.0244 -0.3735
-8.3360 4.8480 -6.7185 -0.7171 -0.0684 0.6936
6.6711 6.1794 -6.2574 -0.4837 -0.4578 -0.7460
2.0803 12.9197 3.5416 -0.8420 0.3487 -0.4116
