#------------------------------------------------------------------------------
#$Date: 2020-01-01 02:06:01 +0200 (Wed, 01 Jan 2020) $
#$Revision: 246336 $
#$URL: file:///home/coder/svn-repositories/cod/cif/4/13/38/4133883.cif $
#------------------------------------------------------------------------------
#
# This file is available in the Crystallography Open Database (COD),
# http://www.crystallography.net/
#
# All data on this site have been placed in the public domain by the
# contributors.
#
data_4133883
loop_
_publ_author_name
'Zhu, Tianyu'
'Sha, Ye'
'Adabi Firouzjaie, Horie'
'Peng, Xiong'
'Cha, Yujin'
'Dissanayake, D. M. M. Mevan'
'Smith, Mark D.'
'Vannucci, Aaron K.'
'Mustain, William Earl'
'Tang, Chuanbing'
_publ_section_title
;
 Rational Synthesis of Metallo-Cations Toward Redox- and Alkaline-Stable
 Metallo-Polyelectrolytes.
;
_journal_name_full               'Journal of the American Chemical Society'
_journal_paper_doi               10.1021/jacs.9b12051
_journal_year                    2019
_chemical_absolute_configuration ad
_chemical_formula_moiety         'C14 H18 Co, F6 P'
_chemical_formula_sum            'C14 H18 Co F6 P'
_chemical_formula_weight         390.18
_space_group_crystal_system      tetragonal
_space_group_IT_number           82
_space_group_name_Hall           'I -4'
_space_group_name_H-M_alt        'I -4'
_atom_sites_solution_hydrogens   geom
_atom_sites_solution_primary     dual
_audit_creation_date             2018-11-19
_audit_creation_method
;
Olex2 1.2
(compiled 2018.05.29 svn.r3508 for OlexSys, GUI svn.r5506)
;
_cell_angle_alpha                90
_cell_angle_beta                 90
_cell_angle_gamma                90
_cell_formula_units_Z            2
_cell_length_a                   10.8185(3)
_cell_length_b                   10.8185(3)
_cell_length_c                   6.6735(2)
_cell_measurement_reflns_used    9871
_cell_measurement_temperature    100(2)
_cell_measurement_theta_max      30.021
_cell_measurement_theta_min      2.663
_cell_volume                     781.07(4)
_computing_cell_refinement       'SAINT+ Ver. 8.38A (Bruker-AXS, 2016)'
_computing_data_collection       'Bruker APEX3 v2016.5-0 (Bruker, 2016)'
_computing_data_reduction        'SAINT+ Ver. 8.38A (Bruker-AXS, 2016)'
_computing_molecular_graphics    'Olex2 (Dolomanov et al., 2009)'
_computing_publication_material  'Olex2 (Dolomanov et al., 2009)'
_computing_structure_refinement  'XL (Sheldrick, 2008)'
_computing_structure_solution    'XT (Sheldrick, 2015)'
_diffrn_ambient_temperature      100(2)
_diffrn_detector                 'Bruker PHOTON-100 area detector'
_diffrn_detector_area_resol_mean 10.4
_diffrn_detector_type            'CMOS area detector'
_diffrn_measured_fraction_theta_full 1.000
_diffrn_measured_fraction_theta_max 1.000
_diffrn_measurement_device       'three-circle diffractometer'
_diffrn_measurement_device_type  'Bruker D8 QUEST'
_diffrn_measurement_method       '\w and \f scans'
_diffrn_radiation_monochromator  'mirror optics'
_diffrn_radiation_probe          x-ray
_diffrn_radiation_type           MoK\a
_diffrn_radiation_wavelength     0.71073
_diffrn_reflns_av_R_equivalents  0.0349
_diffrn_reflns_av_unetI/netI     0.0137
_diffrn_reflns_Laue_measured_fraction_full 1.000
_diffrn_reflns_Laue_measured_fraction_max 1.000
_diffrn_reflns_limit_h_max       14
_diffrn_reflns_limit_h_min       -15
_diffrn_reflns_limit_k_max       15
_diffrn_reflns_limit_k_min       -15
_diffrn_reflns_limit_l_max       9
_diffrn_reflns_limit_l_min       -9
_diffrn_reflns_number            18295
_diffrn_reflns_point_group_measured_fraction_full 1.000
_diffrn_reflns_point_group_measured_fraction_max 1.000
_diffrn_reflns_theta_full        30.020
_diffrn_reflns_theta_max         30.021
_diffrn_reflns_theta_min         2.663
_diffrn_source                   'microfocus sealed X-ray tube'
_diffrn_source_type              'Incoatec I\ms'
_diffrn_standards_number         0
_exptl_absorpt_coefficient_mu    1.255
_exptl_absorpt_correction_T_max  0.5642
_exptl_absorpt_correction_T_min  0.4605
_exptl_absorpt_correction_type   multi-scan
_exptl_absorpt_process_details
;
SADABS-2016/2 (Bruker,2016/2) was used for absorption correction.
wR2(int) was 0.1228 before and 0.0592 after correction.
The Ratio of minimum to maximum transmission is 0.8162.
The \l/2 correction factor is Not present.
;
_exptl_crystal_colour            yellow
_exptl_crystal_colour_primary    yellow
_exptl_crystal_density_diffrn    1.659
_exptl_crystal_description       plate
_exptl_crystal_F_000             396
_exptl_crystal_size_max          0.4
_exptl_crystal_size_mid          0.3
_exptl_crystal_size_min          0.18
_refine_diff_density_max         0.500
_refine_diff_density_min         -0.401
_refine_diff_density_rms         0.082
_refine_ls_abs_structure_details
;
 Refined as an inversion twin.
;
_refine_ls_abs_structure_Flack   0.17(3)
_refine_ls_extinction_coef       0.015(2)
_refine_ls_extinction_expression Fc^*^=kFc[1+0.001xFc^2^\l^3^/sin(2\q)]^-1/4^
_refine_ls_extinction_method     'SHELXL-2018/3 (Sheldrick 2018)'
_refine_ls_goodness_of_fit_ref   1.142
_refine_ls_hydrogen_treatment    constr
_refine_ls_matrix_type           full
_refine_ls_number_parameters     86
_refine_ls_number_reflns         1149
_refine_ls_number_restraints     0
_refine_ls_restrained_S_all      1.142
_refine_ls_R_factor_all          0.0211
_refine_ls_R_factor_gt           0.0197
_refine_ls_shift/su_max          0.000
_refine_ls_shift/su_mean         0.000
_refine_ls_structure_factor_coef Fsqd
_refine_ls_weighting_details
'w=1/[\s^2^(Fo^2^)+(0.0283P)^2^+0.2526P] where P=(Fo^2^+2Fc^2^)/3'
_refine_ls_weighting_scheme      calc
_refine_ls_wR_factor_gt          0.0495
_refine_ls_wR_factor_ref         0.0502
_reflns_Friedel_coverage         0.847
_reflns_Friedel_fraction_full    1.000
_reflns_Friedel_fraction_max     1.000
_reflns_number_gt                1110
_reflns_number_total             1149
_reflns_threshold_expression     'I > 2\s(I)'
_cod_data_source_file            ja9b12051_si_003.cif
_cod_data_source_block           tytmcc
_cod_depositor_comments
;
The following automatic conversions were performed:

data item '_diffrn_radiation_probe' value 'X-ray' was changed to
'x-ray' in accordance with the
/home/data/users/saulius/crontab/automatic-downloads/rss-feeds/ACS/lib/dictionaries/cif_core.dic
dictionary named 'cif_core.dic' version 2.4.2 last updated on
2011-04-26.

Automatic conversion script
Id: cif_fix_values 7556 2019-12-06 15:28:31Z antanas 
;
_cod_original_cell_volume        781.07(5)
_cod_database_code               4133883
_shelx_shelxl_version_number     2018/3
_shelx_space_group_comment
;
The symmetry employed for this shelxl refinement is uniquely defined
by the following loop, which should always be used as a source of
symmetry information in preference to the above space-group names.
They are only intended as comments.
;
_shelx_estimated_absorpt_t_max   0.806
_shelx_estimated_absorpt_t_min   0.634
_olex2_refinement_description
;
1. Twinned data refinement
 Scales: 0.83(3)
 0.17(3)
2. Fixed Uiso
 At 1.2 times of:
  All C(H) groups
 At 1.5 times of:
  All C(H,H,H) groups
3. Others
 Fixed Sof: C1(0.5) C2(0.5) H2(0.5) C3(0.5) C4(0.5) H4(0.5) C5(0.5) H5(0.5)
 C6(0.5) H6A(0.5) H6B(0.5) H6C(0.5) C7(0.5) H7A(0.5) H7B(0.5) H7C(0.5)
4.a Aromatic/amide H refined with riding coordinates:
 C2(H2), C4(H4), C5(H5)
4.b Idealised Me refined as rotating group:
 C6(H6A,H6B,H6C), C7(H7A,H7B,H7C)
;
_shelx_res_file
;
TITL tytmcc_b.res in I-4
    tytmcc.res
    created by SHELXL-2018/3 at 18:29:22 on 19-Nov-2018
REM Old TITL tytmcc in I-4
REM SHELXT solution in I-4
REM R1 0.169, Rweak 0.046, Alpha 0.022, Orientation as input
REM Flack x = 0.276 ( 0.012 ) from Parsons' quotients
REM Formula found by SHELXT: C5 F6 P Co
REM yellow plate
CELL 0.71073 10.8185 10.8185 6.6735 90 90 90
ZERR 2 0.0003 0.0003 0.0002 0 0 0
LATT -2
SYMM -X,-Y,+Z
SYMM +Y,-X,-Z
SYMM -Y,+X,-Z
SFAC C H Co F P
UNIT 28 36 2 12 2

L.S. 7
PLAN  9
SIZE 0.18 0.3 0.4
TEMP -173(2)
BOND $H
CONF
LIST 4
fmap 2
acta 60.04
TWIN -1 0 0 0 -1 0 0 0 -1 2
REM <olex2.extras>
REM <HklSrc "%.\\tytmcc.hkl">
REM </olex2.extras>

WGHT    0.028300    0.252600
EXTI    0.015044
BASF   0.17228
FVAR       0.67721
CO1   3    0.000000    0.500000    0.250000    10.25000    0.02168    0.02168 =
         0.01208    0.00000    0.00000    0.00000
PART -1
C1    1    0.027818    0.393649    0.498013    10.50000    0.02600    0.02340 =
         0.01347    0.00356   -0.01121   -0.00283
C2    1    0.103932    0.499515    0.496509    10.50000    0.01977    0.02373 =
         0.01705   -0.00958   -0.00029    0.00226
AFIX  43
H2    2    0.191744    0.499237    0.496984    10.50000   -1.20000
AFIX   0
C3    1    0.028053    0.606488    0.494170    10.50000    0.02640    0.02187 =
         0.01384   -0.00468    0.00873    0.00199
C4    1   -0.096181    0.565932    0.490703    10.50000    0.02372    0.05656 =
         0.01393    0.00338    0.00145    0.01697
AFIX  43
H4    2   -0.167194    0.617478    0.485291    10.50000   -1.20000
AFIX   0
C5    1   -0.096295    0.435047    0.496706    10.50000    0.02095    0.05840 =
         0.01718    0.01028    0.00114   -0.01308
AFIX  43
H5    2   -0.167560    0.383768    0.499397    10.50000   -1.20000
AFIX   0
C6    1    0.071937    0.262001    0.498938    10.50000    0.10500    0.02193 =
         0.02813    0.00375   -0.00677    0.00329
AFIX 137
H6A   2    0.015256    0.210948    0.419742    10.50000   -1.50000
H6B   2    0.074373    0.231341    0.637063    10.50000   -1.50000
H6C   2    0.154966    0.257825    0.440611    10.50000   -1.50000
AFIX   0
C7    1    0.072308    0.738005    0.498710    10.50000    0.10267    0.02186 =
         0.02698   -0.00375   -0.00628   -0.00466
AFIX 137
H7A   2    0.154714    0.742935    0.438256    10.50000   -1.50000
H7B   2    0.076236    0.766721    0.637839    10.50000   -1.50000
H7C   2    0.014858    0.790196    0.422997    10.50000   -1.50000
AFIX   0

PART 0
P1    5    0.500000    0.500000    0.500000    10.25000    0.01447    0.01447 =
         0.02499    0.00000    0.00000    0.00000
F1    4    0.395108    0.395201    0.500052    11.00000    0.02138    0.02135 =
         0.07201   -0.00221    0.00216   -0.00681
F2    4    0.500000    0.500000    0.261350    10.50000    0.05263    0.05970 =
         0.02712    0.00000    0.00000    0.00035
HKLF 4




REM  tytmcc_b.res in I-4
REM wR2 = 0.0502, GooF = S = 1.142, Restrained GooF = 1.142 for all data
REM R1 = 0.0197 for 1110 Fo > 4sig(Fo) and 0.0211 for all 1149 data
REM 86 parameters refined using 0 restraints

END

WGHT      0.0283      0.2526

REM Highest difference peak  0.500,  deepest hole -0.401,  1-sigma level  0.082
Q1    1   0.0000  0.5000  0.7500  10.25000  0.05    0.50
Q2    1   0.2477  0.2806  0.4957  11.00000  0.05    0.21
Q3    1   0.2354  0.7204  0.4903  11.00000  0.05    0.20
Q4    1   0.2292  0.2431  0.4897  11.00000  0.05    0.20
Q5    1   0.2035  0.7835  0.2408  11.00000  0.05    0.19
Q6    1  -0.0433  0.4368  0.2497  11.00000  0.05    0.17
Q7    1   0.2491  0.7369  0.3495  11.00000  0.05    0.17
Q8    1   0.2788  0.7778  0.3691  11.00000  0.05    0.17
Q9    1   0.2376  0.2594  0.3493  11.00000  0.05    0.17
;
_shelx_res_checksum              66412
_shelx_hkl_file
;
   1   1   0  603.34   21.80
   1   1   0  590.44   21.90
  -1   1   0  588.24   21.20
   1  -1   0  605.14   21.50
  -1   1   0  586.24   21.60
  -1  -1   0  605.94   21.30
  -1  -1   0  577.54   21.20
   0   2   0 6223.58  222.18
   0  -2   0 6432.16  221.48
   0  -2   0 6006.00  221.98
   0  -2   0 5512.25  221.68
   2   0   0 5927.21  221.48
   2   0   0 7251.47  222.28
   0   2   0 6500.65  221.58
   2   0   0 7059.69  222.38
   0   2   0 5624.84  221.58
  -2  -2   0 3874.91  134.89
   2   2   0 3905.31  135.99
   2   2   0 3676.43  134.69
   2   2   0 3786.42  135.99
   2  -2   0 3708.43  135.59
   2  -2   0 4024.50  134.69
   2  -2   0 3801.32  135.29
  -2  -2   0 3514.85  134.79
  -2   2   0 4022.60  134.69
   3   1   0  140.09    5.50
  -1   3   0  137.89    6.30
  -1   3   0  141.39    6.60
  -3  -1   0  145.49    6.40
   1  -3   0  136.99    6.10
   3   1   0  136.19    6.30
   1  -3   0  145.39    6.60
   3   1   0  145.19    6.70
   3   1   0  139.59    6.90
   1  -3   0  142.69    6.10
   3   1   0  145.59    5.60
   1  -3   0  140.39    6.30
  -1   3   0  143.89    6.20
  -1   3   0  142.49    5.90
   3   1   0  141.79    6.90
   1   3   0  144.19    6.40
   3  -1   0  138.79    6.30
   1   3   0  144.89    6.10
   3  -1   0  139.09    6.60
  -1  -3   0  141.89    6.00
  -1  -3   0  141.49    5.50
  -1  -3   0  141.99    6.60
   3  -1   0  143.49    6.10
   3  -1   0  142.19    6.60
   1   3   0  127.69    6.20
   1   3   0  134.19    6.60
  -1  -3   0  140.09    6.20
  -3  -3   0  311.77   11.90
   3  -3   0  306.87   12.30
   3  -3   0  288.17   11.50
   3   3   0  306.27   11.40
  -3   3   0  300.07   11.40
  -3   3   0  289.07   12.40
  -3   3   0  316.87   11.10
  -3  -3   0  307.07   11.80
  -3  -3   0  302.87   12.50
  -3  -3   0  303.57   12.80
   3  -3   0  313.47   12.90
   3  -3   0  317.87   11.50
   3   3   0  277.27   12.50
   3   3   0  293.97   12.60
   3   3   0  290.07   13.20
  -3  -3   0  291.37   11.90
   3  -3   0  283.47   12.50
   3   3   0  310.27   13.30
   3   3   0  310.07   12.40
  -4  -2   0 1592.84   59.09
  -2   4   0 1529.15   59.39
   4   2   0 1634.64   59.69
  -4  -2   0 1594.14   59.49
   2  -4   0 1560.34   59.39
   4   2   0 1635.84   59.89
   4   2   0 1710.53   60.69
   4   2   0 1653.93   57.89
   2  -4   0 1562.44   58.89
   2  -4   0 1698.73   59.19
  -2   4   0 1717.03   59.09
  -2   4   0 1650.03   58.69
   4   2   0 1617.24   58.59
   4   2   0 1652.93   60.69
  -2   4   0 1657.23   59.79
   2  -4   0 1641.94   58.29
   4   0   0  770.92   29.90
   0   4   0  759.52   28.80
   0   4   0  793.02   29.10
   0  -4   0  768.92   29.10
   0  -4   0  778.12   29.30
   4   0   0  786.12   30.20
   4   0   0  801.42   28.80
   0   4   0  766.72   29.50
   4   0   0  841.92   30.20
   0  -4   0  793.92   28.70
   4   0   0  745.43   29.50
   0  -4   0  799.22   29.40
   4  -2   0 1705.63   59.99
   2   4   0 1630.94   61.09
  -2  -4   0 1635.74   60.09
  -4   2   0 1603.94   59.49
  -4   2   0 1630.14   60.29
  -2  -4   0 1637.54   59.99
   4  -2   0 1600.04   59.69
   4  -2   0 1627.14   60.49
   2   4   0 1516.25   60.19
   4  -2   0 1791.22   60.19
   4  -2   0 1680.13   60.69
   2   4   0 1749.12   58.79
  -2  -4   0 1700.13   59.69
   2   4   0 1687.33   59.79
   2   4   0 1713.03   60.69
   4  -2   0 1613.44   60.69
   2   4   0 1635.34   60.39
   2   4   0 1586.64   59.99
   4   4   0 2272.37   82.49
   4   4   0 2346.27   84.19
  -4  -4   0 2219.08   82.59
  -4  -4   0 2157.48   81.79
  -4  -4   0 2207.38   83.19
  -4   4   0 2285.47   82.79
   4  -4   0 2330.67   82.59
   4   4   0 2222.88   83.09
   4  -4   0 2256.87   82.99
  -4  -4   0 2374.16   81.79
   4   4   0 2236.98   84.19
   4  -4   0 2194.48   81.29
   4  -4   0 2409.56   81.79
  -4   4   0 2313.77   82.99
  -4   4   0 2342.67   81.09
  -4  -4   0 2251.07   81.89
   4  -4   0 2265.37   83.19
   4   4   0 2284.67   82.99
   5   3   0  568.54   22.80
   3  -5   0  559.24   22.70
  -3   5   0  584.44   21.70
   5   3   0  552.64   23.60
   3  -5   0  546.75   22.40
   5   3   0  527.85   23.50
  -5  -3   0  600.94   20.90
   5   3   0  544.55   22.50
  -5  -3   0  561.14   21.70
  -5  -3   0  554.14   22.20
   3  -5   0  556.44   21.90
   3  -5   0  551.44   21.50
   3  -5   0  530.15   21.20
  -5  -3   0  563.54   20.80
  -3   5   0  560.24   21.20
  -3   5   0  548.15   22.30
   5   3   0  565.14   21.40
  -3   5   0  551.54   22.50
   1  -5   0  128.69    5.90
  -5  -1   0  124.19    6.30
   5   1   0  125.09    7.20
   5   1   0  114.79    6.30
  -5  -1   0  119.89    6.30
   5   1   0  120.59    6.80
  -1   5   0  125.39    6.00
  -1   5   0  122.49    6.80
   1  -5   0  121.09    6.10
   1  -5   0  121.39    5.70
   5   1   0  109.69    6.40
   5   1   0  125.09    7.30
   5   1   0  129.69    5.50
   1  -5   0  122.99    6.10
   1  -5   0  127.89    6.70
   1  -5   0  124.29    5.00
   1  -5   0  121.69    6.20
  -1   5   0  118.59    6.40
   1   5   0  114.99    6.40
  -1  -5   0  121.09    6.30
   1   5   0  127.19    6.10
   1   5   0  120.19    6.00
   5  -1   0  130.09    7.10
  -1  -5   0  119.99    6.00
   1   5   0  126.09    6.70
  -1  -5   0  125.19    6.00
  -1  -5   0  128.49    5.50
   1   5   0  123.89    6.30
   1   5   0  127.89    5.30
   5  -1   0  128.79    6.80
  -1  -5   0  119.39    6.70
   1   5   0  119.79    7.10
   5  -1   0  124.19    6.90
   5  -1   0  122.89    6.00
  -5   3   0  569.24   21.60
   3   5   0  542.15   22.80
   3   5   0  571.74   23.40
   3   5   0  609.64   22.00
  -3  -5   0  579.74   22.40
   5  -3   0  575.24   23.20
   5  -3   0  564.64   21.80
   5  -3   0  550.74   22.90
   3   5   0  506.65   22.30
  -5   3   0  559.14   22.60
   5  -3   0  564.94   22.30
  -3  -5   0  571.64   21.80
  -3  -5   0  568.74   22.20
   3   5   0  566.44   23.80
  -3  -5   0  569.64   23.30
   5  -3   0  613.64   22.10
   3   5   0  521.95   22.50
   5   5   0  856.31   34.00
  -5   5   0  854.21   31.60
  -5   5   0  865.61   33.80
   5   5   0  821.42   34.10
  -5   5   0  871.41   34.00
  -5  -5   0  863.91   32.70
  -5  -5   0  834.22   33.60
  -5  -5   0  862.31   34.40
  -5  -5   0  857.31   32.80
  -5   5   0  866.51   32.10
   5  -5   0  873.81   33.50
   5  -5   0  862.81   34.40
   5   5   0  844.12   35.50
   5   5   0  881.21   35.50
   5  -5   0  868.81   34.30
   5   5   0  848.42   33.30
   5  -5   0  861.01   32.20
   5  -5   0  941.31   32.60
   5  -5   0  865.91   32.10
  -5   5   0  905.61   32.10
  -4   6   0 1706.93   64.59
  -4   6   0 1710.63   64.39
   6   4   0 1726.63   63.19
  -4   6   0 1675.43   62.79
  -6  -4   0 1852.41   62.69
  -6  -4   0 1737.23   64.39
   6   4   0 1731.93   64.99
   4  -6   0 1747.93   63.89
  -4   6   0 1825.92   63.39
  -6  -4   0 1683.83   63.29
  -6  -4   0 1663.33   62.69
   4  -6   0 1675.53   64.49
   6   4   0 1756.42   66.49
   4  -6   0 1796.82   65.29
   6   4   0 1679.03   64.59
   6   4   0 1715.53   66.29
   4  -6   0 1711.13   63.19
   4  -6   0 1747.33   62.89
  -2   6   0  747.63   30.00
  -6  -2   0  757.02   30.00
   6   2   0  760.62   31.50
   6   2   0  807.32   28.20
   6   2   0  772.42   27.70
  -2   6   0  756.92   30.60
   6   2   0  733.43   31.40
   2  -6   0  771.32   30.70
  -6  -2   0  779.02   29.70
   6   2   0  800.42   27.70
   6   2   0  793.12   30.30
   2  -6   0  735.43   28.70
   2  -6   0  774.32   29.40
   2  -6   0  806.32   29.00
   6   2   0  717.83   30.20
   2  -6   0  753.22   29.80
   2  -6   0  783.82   29.60
  -2   6   0  777.12   29.20
   6   0   0   31.80    3.70
   0   6   0   30.60    2.50
   6   0   0   36.40    3.80
  -6   0   0   35.20    3.20
   0  -6   0   36.30    2.60
   6   0   0   35.90    2.70
   0   6   0   35.50    3.70
   6   0   0   40.70    3.80
   0   6   0   29.20    3.10
   0  -6   0   34.80    2.60
   0  -6   0   33.10    2.80
   0   6   0   35.90    2.70
   0   6   0   29.60    3.00
   0  -6   0   32.60    3.10
   0  -6   0   37.00    3.10
   0   6   0   32.20    2.40
   0   6   0   33.10    2.80
   0  -6   0   35.50    3.40
   6  -2   0  781.62   31.00
  -6   2   0  775.82   30.40
   2   6   0  731.43   31.30
  -2  -6   0  748.43   30.90
   6  -2   0  784.92   29.80
   2   6   0  778.12   29.80
  -6   2   0  769.52   29.50
   6  -2   0  818.42   30.50
  -2  -6   0  784.92   29.40
  -2  -6   0  764.22   29.90
  -2  -6   0  794.12   29.80
   6  -2   0  794.92   31.10
  -2  -6   0  747.83   30.10
   2   6   0  787.12   30.50
   2   6   0  784.82   30.70
   2   6   0  730.53   30.30
   2   6   0  794.92   29.80
   6  -4   0 1928.61   63.59
   4   6   0 1709.63   64.59
   4   6   0 1703.63   66.29
   6  -4   0 1768.82   64.29
  -4  -6   0 1774.82   63.49
   6  -4   0 1762.52   65.29
   4   6   0 1708.33   64.59
   4   6   0 1641.34   64.69
   6  -4   0 1724.73   65.29
  -4  -6   0 1675.93   63.89
   4   6   0 1744.13   65.79
   4   6   0 1630.04   63.09
  -6   4   0 1712.03   62.99
  -4  -6   0 1754.52   64.39
  -6   4   0 1744.23   64.49
  -4  -6   0 1704.13   65.29
   6  -4   0 1806.72   63.49
   6  -6   0 1705.23   59.59
   6   6   0 1605.34   63.69
  -6   6   0 1631.64   59.49
   6   6   0 1583.74   62.39
  -6   6   0 1554.94   59.09
  -6  -6   0 1626.24   60.59
   6  -6   0 1604.14   59.29
  -6  -6   0 1561.54   62.09
   6  -6   0 1633.74   62.49
   6   6   0 1663.73   61.19
  -6  -6   0 1611.14   60.09
  -6   6   0 1723.33   59.79
   6   6   0 1621.94   61.99
   6  -6   0 1614.54   62.59
   6  -6   0 1645.04   61.29
  -6   6   0 1638.24   61.59
   6   6   0 1633.94   64.19
  -6  -6   0 1654.33   61.59
  -6   6   0 1632.14   61.99
   6  -6   0 1743.93   59.99
   7   5   0    2.10    2.10
  -5   7   0    1.30    1.70
   5  -7   0    1.00    1.30
   7   5   0    3.40    1.50
  -7  -5   0    2.50    1.90
   7   5   0    0.30    1.50
   5  -7   0    2.60    2.00
  -5   7   0    0.80    1.90
  -5   7   0    1.60    1.20
  -5   7   0   -1.20    2.80
   7   5   0    2.10    1.80
   5  -7   0    3.30    2.20
  -7  -5   0    1.90    1.40
   5  -7   0    0.00    1.60
  -7  -5   0    2.30    1.60
   5  -7   0    2.70    1.50
   7   5   0    2.60    2.40
  -7  -5   0    1.40    1.40
   7   5   0    0.90    2.00
  -5   7   0    2.30    1.20
   5  -7   0   -0.70    1.50
  -7  -5   0    5.20    2.20
   7   3   0    3.80    2.30
  -3   7   0    5.90    1.50
   3  -7   0    3.10    1.50
  -3   7   0    6.40    1.20
   7   3   0    5.50    1.80
   3  -7   0    5.50    1.70
   7   3   0    4.40    1.10
   7   3   0    5.60    1.10
   3  -7   0    2.80    1.70
  -3   7   0    5.10    2.20
  -7  -3   0    4.20    1.60
  -7  -3   0    6.80    1.30
   7   3   0    2.00    2.10
  -7  -3   0    5.40    1.30
  -7  -3   0    4.50    1.50
   7   3   0    6.00    2.30
  -3   7   0    3.60    1.80
   3  -7   0    2.60    1.40
   7   1   0    2.40    2.10
  -7  -1   0    0.50    1.30
   1  -7   0    3.80    1.40
   1  -7   0    3.70    1.30
  -1   7   0    2.40    1.20
   7   1   0    1.80    1.70
  -1   7   0    1.90    1.00
   1  -7   0    2.50    1.10
  -1   7   0    2.00    1.00
  -1   7   0    2.80    1.50
  -1   7   0    0.00    1.30
   7   1   0    2.90    1.10
   7   1   0    4.50    2.00
  -1   7   0    4.80    1.60
   1  -7   0    0.30    1.00
   7   1   0    2.40    1.50
   1  -7   0    6.50    2.00
   1  -7   0    2.50    1.50
  -7  -1   0    0.50    1.30
  -1  -7   0    1.80    1.50
   7  -1   0    2.50    1.30
   7  -1   0    6.20    2.30
  -1  -7   0    1.90    1.40
   1   7   0    2.90    1.20
  -1  -7   0    2.50    1.70
   1   7   0    4.00    1.70
  -1  -7   0    2.40    1.10
  -1  -7   0    1.80    1.20
   7  -1   0    3.50    1.80
   1   7   0    2.40    0.90
   1   7   0    2.50    1.50
   1   7   0    1.60    1.50
  -1  -7   0    5.40    1.30
   1   7   0    2.80    1.40
   1   7   0    2.10    1.80
   7  -1   0    3.90    1.90
  -3  -7   0    5.50    1.60
   3   7   0    7.70    2.40
  -7   3   0    3.30    1.70
   7  -3   0    5.20    1.70
   3   7   0    6.20    2.40
  -3  -7   0    5.40    1.90
  -7   3   0    2.40    1.20
   3   7   0    5.30    1.70
   3   7   0    4.20    2.10
   7  -3   0    5.20    1.70
  -3  -7   0    6.10    2.10
  -3  -7   0    2.10    1.30
   3   7   0    5.70    2.10
   7  -3   0    3.00    1.90
   7  -3   0    4.50    2.00
   3   7   0    4.30    1.70
  -5  -7   0    1.40    1.70
   7  -5   0   -1.00    1.90
   5   7   0    1.10    2.40
   5   7   0    0.60    1.70
  -7   5   0    1.10    1.80
  -7   5   0    1.00    1.30
   5   7   0    1.60    2.10
   7  -5   0   -0.90    1.60
  -5  -7   0    1.80    1.50
  -5  -7   0    0.10    1.60
   5   7   0    4.40    2.30
  -5  -7   0    3.70    1.30
   7  -5   0    0.00    2.20
   5   7   0    1.50    1.70
  -7   7   0   38.40    4.30
  -7   7   0   39.80    3.00
  -7  -7   0   36.30    4.00
  -7  -7   0   40.80    4.60
  -7   7   0   38.80    4.80
   7  -7   0   38.50    3.00
  -7   7   0   40.30    3.70
   7  -7   0   40.00    3.80
  -7  -7   0   41.60    4.90
   7   7   0   37.40    5.20
  -7  -7   0   42.70    4.00
  -7   7   0   37.10    5.10
   7  -7   0   42.10    5.40
   7  -7   0   35.70    5.40
   7  -7   0   37.50    4.10
   7   7   0   41.20    5.60
   7  -7   0   39.00    3.30
   7   7   0   41.30    4.40
   7   7   0   34.30    5.70
  -7   7   0   33.30    4.40
   7   7   0   35.00    5.70
  -6   8   0  361.46   21.90
  -6   8   0  403.26   19.00
   6  -8   0  435.26   16.90
  -8  -6   0  407.16   19.70
   6  -8   0  410.06   18.60
   6  -8   0  434.06   17.60
   6  -8   0  405.36   19.80
  -8  -6   0  420.06   19.00
  -6   8   0  423.16   18.20
   8   6   0  423.96   17.80
   8   6   0  425.66   19.70
   6  -8   0  411.26   17.30
   8   6   0  417.26   17.70
  -8  -6   0  396.76   17.40
   8   6   0  402.76   19.80
  -6   8   0  392.86   19.20
   6  -8   0  409.56   19.70
  -6   8   0  398.96   17.10
   8   6   0  378.46   20.80
  -6   8   0  424.76   16.10
  -8  -6   0  427.46   17.50
   8   6   0  373.66   21.00
   4  -8   0  551.34   20.40
  -4   8   0  525.45   19.30
  -4   8   0  496.75   20.90
  -4   8   0  491.35   22.00
   8   4   0  489.95   24.10
  -4   8   0  502.45   22.70
  -8  -4   0  492.15   19.70
  -8  -4   0  534.35   22.10
   4  -8   0  499.75   22.30
   4  -8   0  511.95   21.10
   4  -8   0  519.85   21.50
   8   4   0  503.45   19.60
   8   4   0  526.85   19.70
  -8  -4   0  537.05   19.80
   8   4   0  452.45   23.70
  -4   8   0  488.45   20.60
   8   4   0  495.35   22.60
   4  -8   0  498.75   22.60
  -8  -4   0  497.35   20.90
  -2   8   0 1565.54   57.69
  -2   8   0 1631.64   58.79
   2  -8   0 1566.54   59.89
  -2   8   0 1526.05   60.99
   8   2   0 1566.04   62.19
  -8  -2   0 1557.64   59.79
   8   2   0 1623.74   62.29
   2  -8   0 1609.44   59.49
   2  -8   0 1585.14   61.09
  -2   8   0 1572.84   59.19
   2  -8   0 1633.34   58.79
   8   2   0 1666.13   57.79
  -2   8   0 1525.85   59.99
   2  -8   0 1556.04   58.39
  -8  -2   0 1613.74   59.59
  -8  -2   0 1637.64   57.49
   8   2   0 1606.04   60.89
   2  -8   0 1608.34   59.09
   0   8   0 2312.97   80.09
  -8   0   0 2226.98   81.09
   8   0   0 2157.58   82.99
   0   8   0 2280.27   79.79
   0   8   0 2150.98   81.59
   8   0   0 2190.38   82.39
   0   8   0 2137.39   82.89
   8   0   0 2148.49   82.99
   0   8   0 2058.79   79.69
   0  -8   0 2219.48   80.99
   0  -8   0 2208.38   80.99
   0  -8   0 2179.28   80.19
   0  -8   0 2364.06   81.39
   0  -8   0 2164.78   82.49
  -8   0   0 2211.28   81.59
   8   0   0 2266.87   80.19
   0   8   0 2223.38   81.89
   0   8   0 2178.88   80.89
   0  -8   0 2191.68   79.89
  -2  -8   0 1600.74   62.29
   2   8   0 1584.94   63.09
   2   8   0 1611.34   60.89
   8  -2   0 1602.54   62.29
  -8   2   0 1576.44   60.19
  -8   2   0 1605.84   61.29
   8  -2   0 1795.62   62.29
   2   8   0 1632.34   58.69
   2   8   0 1551.44   61.39
  -2  -8   0 1607.14   60.19
   2   8   0 1703.43   60.79
   2   8   0 1601.84   60.39
   2   8   0 1622.74   61.79
   8  -2   0 1598.64   61.99
  -2  -8   0 1656.53   60.29
  -2  -8   0 1621.74   61.19
  -2  -8   0 1607.64   60.79
   8  -2   0 1653.13   60.39
  -4  -8   0  520.05   22.10
   4   8   0  489.95   24.00
  -4  -8   0  500.15   23.10
   8  -4   0  517.55   23.10
   4   8   0  525.55   22.50
  -4  -8   0  511.85   20.90
   4   8   0  496.15   22.60
  -4  -8   0  513.75   21.70
   4   8   0  520.25   21.10
   8  -4   0  475.15   22.50
  -8   4   0  518.55   20.70
   4   8   0  505.65   21.90
   8  -4   0  568.04   21.60
   4   8   0  479.45   22.80
   8  -4   0  520.25   21.70
  -8   4   0  480.25   21.80
  -4  -8   0  521.75   21.70
  -6  -8   0  388.56   18.10
  -6  -8   0  403.36   19.90
   6   8   0  413.66   19.10
  -8   6   0  416.26   19.10
   6   8   0  401.16   21.40
   6   8   0  383.76   19.40
  -8   6   0  387.06   15.50
  -6  -8   0  408.96   18.60
  -8   6   0  408.46   16.80
   6   8   0  407.26   20.50
  -8   6   0  396.76   18.70
  -6  -8   0  419.96   17.30
   8  -6   0  406.76   19.80
   8  -6   0  405.26   19.80
  -8   6   0  434.76   16.20
   8  -6   0  402.26   18.70
   6   8   0  399.96   18.70
   8  -8   0  370.06   19.40
   8   8   0  380.56   17.80
   8   8   0  395.16   17.90
   8   8   0  400.96   19.50
  -8  -8   0  376.06   18.30
   8   8   0  387.16   19.60
   8   8   0  369.76   20.60
  -8   8   0  376.46   18.60
  -8  -8   0  351.56   17.40
  -8   8   0  360.66   15.90
  -8   8   0  392.56   15.60
  -8   8   0  375.06   17.40
   8  -8   0  387.46   19.90
  -8  -8   0  398.46   16.80
   8   8   0  384.06   21.80
   8  -8   0  378.86   18.40
  -8  -8   0  361.16   19.40
  -8   8   0  393.36   18.70
  -7   9   0   21.10    4.60
   9   7   0    7.00    4.20
   7  -9   0    7.80    2.40
   9   7   0    8.20    3.40
   7  -9   0   11.20    4.10
  -7   9   0    8.60    2.90
   9   7   0   11.90    3.10
   7  -9   0    9.50    2.40
  -9  -7   0    6.40    2.50
   9   7   0   11.30    3.00
  -7   9   0   13.10    1.90
  -7   9   0    9.10    2.40
  -9  -7   0   11.30    2.50
  -7   9   0   13.00    2.30
   7  -9   0   14.30    2.80
  -9  -7   0    9.60    3.00
   9   7   0   15.30    4.50
   7  -9   0   13.20    2.40
   7  -9   0   12.90    3.40
  -9  -7   0   10.10    2.30
   5  -9   0  188.58   12.00
  -9  -5   0  210.68   11.50
   9   5   0  213.58   12.90
   5  -9   0  201.78   11.20
  -9  -5   0  209.68   10.50
   5  -9   0  208.28    9.90
   9   5   0  233.68    9.70
   5  -9   0  231.28   11.40
  -5   9   0  202.58   10.40
   5  -9   0  213.88   10.70
  -5   9   0  236.98    8.90
   9   5   0  197.48   13.60
  -5   9   0  198.58   11.60
   5  -9   0  201.88   12.20
   9   5   0  220.18    9.60
  -9  -5   0  196.98    9.80
   9   5   0  199.28   13.80
  -5   9   0  209.08   10.80
  -9  -5   0  227.08   10.20
  -5   9   0  204.38   12.30
  -9  -5   0  192.98   11.80
  -9  -3   0  142.49    8.70
  -3   9   0  142.69    9.50
   3  -9   0  133.09    9.00
  -3   9   0  138.89    7.90
   3  -9   0  142.69    8.10
  -3   9   0  139.19    7.70
   3  -9   0  144.39    8.80
   3  -9   0  134.79    8.20
   9   3   0  134.49   10.10
  -3   9   0  136.29    8.70
  -9  -3   0  145.39    8.20
   3  -9   0  135.39    7.30
   9   3   0  126.79   10.00
  -3   9   0  142.29    6.60
  -9  -3   0  146.79    6.30
   9   3   0  135.49    9.30
  -9  -3   0  141.39    6.30
  -9  -3   0  142.59    6.20
  -1   9   0    1.20    2.50
   1  -9   0    0.40    1.60
   1  -9   0    3.70    2.70
   1  -9   0    1.20    1.80
  -9  -1   0    0.70    1.10
  -9  -1   0    0.70    1.70
  -1   9   0    1.90    1.50
  -1   9   0    2.40    1.50
  -1   9   0    2.50    2.10
  -1   9   0   -0.20    2.00
  -9  -1   0    0.70    1.90
   1  -9   0   -0.70    1.40
   1  -9   0    1.90    1.40
   1  -9   0    2.50    1.80
   9   1   0    0.70    2.90
   9   1   0    2.50    2.20
   9   1   0    1.50    1.50
   9   1   0    4.40    2.30
  -1   9   0    3.20    1.60
  -1  -9   0    0.80    1.30
   1   9   0    4.30    2.10
   1   9   0   -0.90    1.90
   9  -1   0    4.30    2.40
  -9   1   0    0.60    1.70
   9  -1   0    0.10    1.40
   1   9   0    0.30    1.20
   1   9   0    2.00    2.10
   9  -1   0    0.60    2.60
   1   9   0    4.10    1.70
   9  -1   0    2.40    2.20
  -9   1   0    3.00    1.90
  -1  -9   0    0.40    1.30
  -1  -9   0    0.90    2.20
  -1  -9   0    1.60    2.00
   1   9   0    0.40    2.10
   1   9   0    5.70    2.40
  -9   1   0   -0.10    2.00
  -1  -9   0    2.50    2.00
  -3  -9   0  153.18    8.90
   3   9   0  146.79    8.40
   9  -3   0  155.58    8.80
  -9   3   0  146.69    8.00
   9  -3   0  138.49    8.20
   3   9   0  137.29   10.00
   3   9   0  133.69    8.80
   3   9   0  140.29    9.20
  -3  -9   0  137.19    8.70
   3   9   0  129.19    9.00
  -3  -9   0  136.79    8.10
   3   9   0  133.69    8.30
  -3  -9   0  143.49    7.90
   3   9   0  140.39    6.40
  -3  -9   0  143.89    9.80
   9  -3   0  146.49    9.40
   9  -3   0  142.59    9.40
  -9   3   0  139.29    8.90
  -5  -9   0  197.48   11.20
  -9   5   0  209.68   10.00
   5   9   0  194.18   11.90
   9  -5   0  195.38   12.10
  -5  -9   0  206.78   11.30
  -5  -9   0  206.08   11.10
  -5  -9   0  209.98   10.20
   9  -5   0  194.58   11.00
   5   9   0  194.38   13.60
   5   9   0  212.88   12.50
   5   9   0  200.38   11.30
  -5  -9   0  204.48   12.40
  -9   5   0  189.08   11.20
  -9   5   0  196.98   10.60
   5   9   0  208.08   11.70
   9  -5   0  202.18   12.10
  -9   7   0   13.70    3.10
   9  -7   0   13.30    3.40
  -7  -9   0    4.50    3.40
   9  -7   0    6.90    4.00
  -9   7   0   10.20    2.30
   7   9   0   12.80    3.60
  -7  -9   0   10.50    2.90
  -9   7   0   10.90    1.90
  -7  -9   0   10.90    2.40
   9  -7   0   11.30    4.20
  -7  -9   0   11.80    3.10
  -9   7   0    9.00    3.30
  -7  -9   0   10.90    2.80
   7   9   0    4.10    3.20
   7   9   0   10.20    3.50
  -9   7   0   10.30    2.60
   7   9   0   11.20    2.80
  -9   7   0    7.80    3.30
  -9   7   0   16.80    3.50
   7   9   0    7.10    4.00
   9   9   0   34.10    6.30
  -9   9   0   19.30    4.30
  -9  -9   0   36.10    4.70
  -9   9   0   24.40    4.90
   9  -9   0   23.10    5.20
   9   9   0   27.40    4.80
  -9   9   0   27.60    4.40
   9   9   0   31.70    6.10
  -9   9   0   26.40    4.30
  10   8   0  356.36   17.00
   8 -10   0  371.26   15.90
  -8  10   0  362.86   19.10
   8 -10   0  379.56   20.50
  10   8   0  383.26   17.20
  -8  10   0  364.16   18.70
   8 -10   0  365.16   15.70
 -10  -8   0  375.06   16.50
   8 -10   0  335.47   19.40
  -8  10   0  363.86   17.70
 -10  -8   0  383.36   19.10
  10   8   0  353.36   20.40
 -10  -6   0  208.08   11.00
  10   6   0  197.28   14.20
 -10  -6   0  203.98   12.80
  -6  10   0  196.08   12.70
  -6  10   0  201.18   10.90
  10   6   0  232.48   14.10
  -6  10   0  217.18   12.80
   6 -10   0  229.78   10.60
  10   6   0  225.58   10.10
   6 -10   0  213.68   11.10
 -10  -6   0  206.88   10.60
   6 -10   0  232.28   12.10
 -10  -6   0  218.28   12.50
   6 -10   0  209.48   13.20
  -6  10   0  220.18   11.40
   6 -10   0  216.48   12.10
   6 -10   0  217.28   13.60
  10   6   0  213.28    9.90
  10   6   0  206.18   14.80
 -10  -4   0  248.78   11.30
  10   4   0  237.78   16.00
  -4  10   0  241.58   12.60
  10   4   0  237.58   16.00
 -10  -4   0  277.97   14.00
 -10  -4   0  273.97   11.50
   4 -10   0  269.27   13.30
  -4  10   0  253.37   14.00
  -4  10   0  284.27   10.70
 -10  -4   0  273.17   10.40
  -4  10   0  269.17   12.70
  -4  10   0  260.07   15.00
   4 -10   0  261.07   14.30
   4 -10   0  255.77   13.20
 -10  -4   0  262.07   12.80
   4 -10   0  274.47   12.10
  10   4   0  263.57   14.70
   4 -10   0  262.67   14.70
  -2  10   0  982.10   36.40
  -2  10   0  939.71   37.10
  -2  10   0  950.30   38.20
 -10  -2   0  977.40   35.00
   2 -10   0  888.21   38.90
  -2  10   0  921.91   35.10
   2 -10   0  923.21   38.00
  10   2   0  922.41   40.70
  10   2   0  907.81   38.50
  -2  10   0  947.91   39.50
  -2  10   0  905.21   38.20
  10   2   0  925.91   40.50
   2 -10   0  923.61   36.00
   2 -10   0  954.70   36.90
   2 -10   0  949.21   37.40
 -10  -2   0  944.61   37.70
   2 -10   0  945.01   37.90
 -10  -2   0  938.31   37.30
  10   0   0 1601.84   65.09
   0 -10   0 1575.24   64.19
   0  10   0 1665.23   63.89
   0  10   0 1675.63   60.99
   0  10   0 1572.54   64.89
  10   0   0 1660.23   61.39
   0 -10   0 1725.93   62.89
  10   0   0 1664.83   65.29
   0 -10   0 1706.63   61.69
   0 -10   0 1688.33   62.99
  10   0   0 1657.73   64.39
 -10   0   0 1617.64   60.79
 -10   0   0 1652.03   62.69
   0  10   0 1626.24   63.49
   0  10   0 1698.43   61.19
   0  10   0 1649.13   62.59
 -10   0   0 1631.64   63.19
   0 -10   0 1666.33   62.59
 -10   2   0  924.91   38.50
   2  10   0  949.01   39.10
  10  -2   0  935.31   39.60
   2  10   0  899.81   40.60
  -2 -10   0  991.40   38.70
  -2 -10   0  959.70   37.50
  10  -2   0  940.31   37.50
   2  10   0  956.50   35.70
 -10   2   0  915.41   36.80
  10  -2   0  941.81   39.80
  -2 -10   0  966.10   38.20
  -2 -10   0  974.50   37.60
   2  10   0  994.10   38.10
 -10   2   0  938.41   37.60
   2  10   0  959.80   37.40
 -10   2   0  953.60   37.70
  10  -2   0  988.50   39.60
   2  10   0  975.70   38.00
  -2 -10   0  898.31   39.60
   2  10   0  999.00   39.40
  -4 -10   0  268.37   13.80
 -10   4   0  260.67   14.10
   4  10   0  289.47   13.50
   4  10   0  282.27   15.20
   4  10   0  247.48   15.90
 -10   4   0  266.07   13.10
   4  10   0  259.57   13.60
   4  10   0  278.57   14.80
   4  10   0  275.07   14.80
  10  -4   0  250.07   13.40
  -4 -10   0  244.28   15.00
  10  -4   0  288.07   14.00
 -10   4   0  270.97   12.90
  -4 -10   0  257.17   14.00
  -4 -10   0  266.17   13.40
  10  -4   0  266.27   15.00
  -4 -10   0  267.57   12.80
  -6 -10   0  191.58   11.70
  -6 -10   0  213.88   11.10
 -10   6   0  211.98   11.30
  -6 -10   0  217.78   12.60
   6  10   0  216.98   12.80
   6  10   0  210.68   13.80
 -10   6   0  217.18   12.50
   6  10   0  191.28   14.40
  -6 -10   0  210.18   12.30
   6  10   0  209.08   13.30
   6  10   0  215.08   12.60
 -10   6   0  196.58   12.20
  10  -6   0  209.28   11.90
 -10   6   0  223.68   10.70
  10  -6   0  204.98   13.20
  -6 -10   0  201.18   13.20
 -10   8   0  370.46   17.90
  -8 -10   0  366.16   19.00
   8  10   0  373.26   18.80
  10  -8   0  363.16   20.20
  10  -8   0  373.46   20.60
 -10   8   0  362.66   16.00
   8  10   0  397.86   19.80
   8  10   0  359.06   20.70
  -8 -10   0  368.46   18.60
 -10   8   0  350.96   18.70
 -10   8   0  370.36   18.90
  -8 -10   0  380.46   17.00
  10 -10   0  299.87   18.40
  10  10   0  305.87   19.70
 -10  10   0  304.57   16.60
  10 -10   0  309.87   20.30
  10  10   0  319.27   16.60
 -10 -10   0  299.87   17.20
 -10  10   0  289.87   17.90
 -10 -10   0  317.67   15.00
   9 -11   0    3.30    6.10
 -11  -9   0    2.60    4.20
  -9  11   0    2.20    3.90
  -9  11   0   -0.40    5.00
  11   9   0    6.30    4.50
  11   9   0   -1.70    6.90
   9 -11   0   -3.60    6.10
  11   9   0    9.50    5.30
 -11  -9   0    5.30    3.40
  11   7   0    4.40    2.60
  11   7   0   -2.10    4.70
  -7  11   0   -0.80    3.00
   7 -11   0    4.30    3.70
   7 -11   0    3.00    2.70
  -7  11   0    3.50    3.80
  11   7   0   -0.70    2.50
   7 -11   0    6.60    2.80
 -11  -7   0    4.60    2.90
   7 -11   0   -0.20    4.60
 -11  -7   0    1.60    3.00
   7 -11   0   -0.30    3.60
   5 -11   0   48.70    5.20
 -11  -5   0   55.19    5.60
   5 -11   0   52.09    5.40
  11   5   0   59.79    8.00
  -5  11   0   58.19    6.70
 -11  -5   0   56.59    6.10
  11   5   0   45.80    8.20
   5 -11   0   54.09    5.80
 -11  -5   0   46.30    4.00
   5 -11   0   55.59    7.10
  -5  11   0   55.49    6.40
   5 -11   0   46.40    6.50
   5 -11   0   36.90    6.90
 -11  -5   0   45.60    5.60
  -5  11   0   48.70    5.30
   3 -11   0   38.60    5.50
  11   3   0   47.40    7.00
 -11  -3   0   45.20    5.90
  -3  11   0   45.70    6.10
 -11  -3   0   46.30    3.70
 -11  -3   0   42.60    5.60
  -3  11   0   50.99    7.10
 -11  -3   0   40.40    3.60
  -3  11   0   39.60    3.90
   3 -11   0   49.60    5.90
 -11  -3   0   42.40    3.10
   3 -11   0   51.09    5.00
  -3  11   0   40.20    6.10
  11   3   0   51.19    7.20
   3 -11   0   48.50    4.90
  -3  11   0   49.70    4.80
  11   3   0   47.50    6.60
  -3  11   0   43.60    4.50
   3 -11   0   32.10    6.00
 -11  -1   0    1.20    1.80
  11   1   0    2.80    1.90
  -1  11   0    2.90    3.00
   1 -11   0   -0.70    4.60
  -1  11   0    2.60    2.20
 -11  -1   0    0.90    2.60
  -1  11   0   -0.50    3.10
   1 -11   0    3.90    2.80
  11   1   0    0.80    3.00
  -1  11   0    2.60    2.70
 -11  -1   0    2.30    2.90
  -1  11   0    1.30    1.90
   1 -11   0    4.20    2.20
  11   1   0    2.80    3.70
   1 -11   0    0.60    2.40
   1 -11   0    1.90    2.30
  -1  11   0    0.90    1.80
  11  -1   0   -1.50    1.70
   1  11   0    3.70    2.20
  -1 -11   0    2.70    2.80
 -11   1   0    5.90    2.60
 -11   1   0    0.50    3.10
   1  11   0    3.20    3.20
  -1 -11   0   -0.60    2.40
  -1 -11   0    2.00    2.20
  -1 -11   0    0.80    2.20
  11  -1   0   -1.30    3.20
  -1 -11   0    7.40    3.50
  11  -1   0    0.70    2.60
   1  11   0   -1.60    2.70
   1  11   0    0.00    2.70
 -11   1   0   -3.80    3.20
   1  11   0    1.70    2.60
 -11   1   0    2.80    2.10
  11  -1   0   -3.00    2.80
   1  11   0    1.20    1.90
 -11   1   0    2.90    2.60
  -3 -11   0   58.99    6.70
  11  -3   0   41.50    5.70
  -3 -11   0   43.00    5.20
   3  11   0   51.29    6.20
 -11   3   0   39.00    6.30
 -11   3   0   48.10    5.30
  11  -3   0   38.90    4.90
  -3 -11   0   46.90    5.70
   3  11   0   39.60    5.60
 -11   3   0   43.20    4.80
 -11   3   0   45.60    5.50
   3  11   0   47.40    5.80
  -3 -11   0   51.89    5.90
   3  11   0   51.19    4.20
   3  11   0   44.50    6.70
   3  11   0   46.10    3.90
  11  -3   0   40.50    6.00
   3  11   0   55.59    7.00
   3  11   0   48.80    6.40
  -3 -11   0   45.80    5.10
   5  11   0   52.99    7.10
  11  -5   0   52.89    7.00
  -5 -11   0   56.99    6.20
 -11   5   0   51.29    5.40
 -11   5   0   49.20    6.90
  -5 -11   0   46.70    5.30
  -5 -11   0   47.60    6.00
 -11   5   0   65.19    6.20
   5  11   0   67.29    6.90
   5  11   0   49.60    7.00
 -11   5   0   50.19    5.70
  -5 -11   0   58.69    7.70
   5  11   0   47.10    7.70
  11  -5   0   44.60    5.30
 -11   7   0    2.50    4.20
 -11   7   0    5.50    3.40
  -7 -11   0    3.30    3.40
   7  11   0   -2.30    3.90
   7  11   0   -4.50    3.80
 -11   7   0   -4.50    3.50
   7  11   0    2.60    3.90
 -11   7   0    3.60    3.10
  11  -7   0   -6.00    4.20
  -7 -11   0    0.90    2.90
 -11   7   0    4.10    3.30
 -11   7   0    0.40    3.40
   7  11   0   -6.00    4.90
  -7 -11   0   -5.00    4.90
  -9 -11   0    7.70    4.30
 -11   9   0    7.40    4.30
 -11   9   0    4.50    5.10
  11  -9   0    5.10    6.00
  -9 -11   0    5.30    3.70
  11  -9   0    8.80    5.00
   9  11   0    7.60    4.90
   9  11   0    5.20    6.50
  12   8   0  106.29   14.30
  -8  12   0  105.59   11.40
   8 -12   0  113.89   12.80
 -12  -8   0  124.59   10.90
 -12  -8   0  134.89    9.30
   8 -12   0  115.29    8.80
   8 -12   0  133.19   10.00
  -8  12   0  133.29   10.00
   6 -12   0  136.69   10.60
   6 -12   0  151.88   14.50
   6 -12   0  143.29   12.30
  -6  12   0  123.99   11.00
   6 -12   0  143.99    9.90
 -12  -6   0  150.88    9.40
  -6  12   0  136.89    9.60
 -12  -6   0  123.59   10.60
  12   6   0  145.79   12.30
 -12  -4   0  206.98   12.60
  -4  12   0  201.98   13.30
 -12  -4   0  214.88    9.00
   4 -12   0  207.48   13.50
  12   4   0  231.18   14.40
   4 -12   0  220.88   10.90
   4 -12   0  210.58   11.90
   4 -12   0  196.58   13.40
   4 -12   0  217.38   12.30
  -4  12   0  218.88   11.60
 -12  -4   0  216.88   11.90
  -4  12   0  200.78   13.80
  12   4   0  204.48   15.30
 -12  -2   0  315.27   13.30
  -2  12   0  322.37   17.10
 -12  -2   0  308.17   15.70
  12   2   0  251.17   17.50
   2 -12   0  286.17   17.00
  -2  12   0  310.07   15.50
  -2  12   0  296.17   17.00
  -2  12   0  316.97   14.50
  12   2   0  293.47   18.20
   2 -12   0  333.47   14.50
 -12  -2   0  290.77   15.90
  -2  12   0  318.57   13.30
   2 -12   0  309.37   16.30
   2 -12   0  315.97   16.00
 -12   0   0  434.36   19.90
   0 -12   0  408.26   18.00
 -12   0   0  362.06   18.80
   0  12   0  436.66   20.50
  12   0   0  374.46   20.90
  12   0   0  422.76   18.00
   0 -12   0  413.86   19.80
   0 -12   0  369.96   19.30
   0 -12   0  400.06   16.80
   0  12   0  409.16   20.80
 -12   0   0  399.66   17.30
   0  12   0  393.16   18.90
   0 -12   0  400.26   19.10
 -12   0   0  400.96   19.70
   0 -12   0  359.86   20.30
   0  12   0  415.46   17.50
  12   0   0  400.26   21.60
   0  12   0  411.96   17.30
 -12   2   0  294.27   17.00
  12  -2   0  307.07   17.20
   2  12   0  316.47   13.50
  12  -2   0  319.27   17.30
  -2 -12   0  287.07   17.30
   2  12   0  316.87   15.10
   2  12   0  315.47   15.90
  -2 -12   0  320.67   15.20
  12  -2   0  278.37   17.00
   2  12   0  300.47   17.30
 -12   2   0  309.97   15.70
  -2 -12   0  305.27   15.50
  -2 -12   0  307.07   16.40
 -12   2   0  313.37   14.80
 -12   2   0  310.47   16.90
   2  12   0  316.97   17.50
 -12   2   0  323.07   16.00
  -2 -12   0  338.17   16.80
  12  -2   0  297.77   15.20
  -4 -12   0  226.38   12.00
  -4 -12   0  229.78   13.90
 -12   4   0  205.58   12.00
 -12   4   0  230.58   12.50
 -12   4   0  216.78   13.70
 -12   4   0  218.18   11.80
  12  -4   0  211.48   14.00
   4  12   0  209.88   14.10
   4  12   0  226.58   14.50
  -4 -12   0  204.78   12.80
   4  12   0  215.48   12.70
  -4 -12   0  231.88   12.50
   4  12   0  230.78   13.70
  12  -4   0  208.28   12.90
  12  -4   0  216.58   12.40
 -12   6   0  147.09   10.00
  12  -6   0  147.19   11.60
 -12   6   0  137.19   11.10
 -12   6   0  145.49   10.50
   6  12   0  142.29   13.10
  -6 -12   0  135.19   10.10
 -12   6   0  136.99    9.70
   6  12   0  147.39   11.80
  -6 -12   0  151.48    9.70
   6  12   0  143.59   11.40
 -12   6   0  131.19    9.80
  -6 -12   0  159.48   11.90
  -6 -12   0  156.18   10.30
   6  12   0  149.59   11.50
  -8 -12   0  114.19   10.60
 -12   8   0  130.59   10.30
   8  12   0  136.29   12.10
  -8 -12   0  121.69    9.10
 -12   8   0  116.89   11.90
   8  12   0  119.19   13.80
  -7  13   0   -0.60    5.40
 -13  -7   0   10.10    4.70
  -7  13   0    5.50    4.30
   7 -13   0   -7.60    6.70
  13   7   0    4.70    7.20
 -13  -7   0   13.60    4.30
   7 -13   0    8.30    4.80
  -5  13   0   28.20    4.60
  13   5   0   37.60    7.00
 -13  -5   0   44.40    6.60
   5 -13   0   28.40    4.90
  -5  13   0   29.40    5.80
 -13  -5   0   31.40    5.50
   5 -13   0   28.40    5.90
 -13  -3   0    5.30    3.10
  -3  13   0   -5.60    5.60
  -3  13   0    2.80    4.50
 -13  -3   0    9.30    2.90
   3 -13   0    3.00    3.90
 -13  -3   0    7.30    3.60
   3 -13   0    5.40    3.90
 -13  -3   0    8.70    4.20
  -3  13   0    9.00    6.00
  13   3   0    2.80    5.40
   3 -13   0   10.30    3.60
  -3  13   0   10.20    3.30
  -1  13   0   21.10    3.40
  13   1   0   17.90    5.70
 -13  -1   0   16.90    4.20
  -1  13   0   23.20    3.50
 -13  -1   0   20.30    4.70
  -1  13   0   18.00    5.40
 -13  -1   0   18.90    3.40
  -1  13   0   14.90    5.20
   1 -13   0   14.40    4.10
   1 -13   0   30.50    5.60
 -13  -1   0   11.40    4.60
   1 -13   0   16.50    3.70
  -1  13   0   12.90    3.70
   1  13   0   25.60    3.60
  13  -1   0   17.40    4.50
  13  -1   0   15.60    4.40
 -13   1   0   18.20    4.10
  -1 -13   0   26.50    5.50
  -1 -13   0   14.10    3.50
   1  13   0   25.00    5.50
 -13   1   0   19.40    4.20
 -13   1   0   18.00    4.90
   1  13   0   20.50    3.70
  13  -1   0   21.60    4.50
 -13   1   0   23.00    3.80
   1  13   0   26.10    6.40
  -1 -13   0   24.20    4.40
 -13   1   0   16.30    5.60
   1  13   0   16.10    4.50
   3  13   0    6.10    3.60
  13  -3   0    6.30    3.90
  -3 -13   0   -1.90    4.40
 -13   3   0    5.40    4.50
 -13   3   0    4.00    3.40
 -13   3   0    7.30    3.50
   3  13   0    2.80    2.70
  -3 -13   0   10.40    3.50
  -3 -13   0   11.30    5.10
 -13   3   0    1.70    4.60
   3  13   0    7.60    4.50
  -3 -13   0   12.50    3.50
  13  -3   0    9.30    4.30
   3  13   0    9.20    5.50
 -13   3   0    8.90    3.80
  -5 -13   0   36.60    7.00
 -13   5   0   25.80    5.00
  -5 -13   0   37.10    6.60
 -13   5   0   29.90    6.20
  -5 -13   0   41.10    6.60
  13  -5   0   24.80    5.30
   5  13   0   30.80    6.90
 -13   5   0   35.70    5.60
   5  13   0   26.20    6.70
  -5 -13   0   26.60    4.70
 -13   5   0   29.80    5.10
   5  13   0   27.90    5.40
   7  13   0   13.10    6.60
  -7 -13   0   11.20    4.50
 -13   7   0    9.50    4.80
   7  13   0   -2.50    5.90
  -7 -13   0    9.10    4.70
 -13   7   0   -3.00    5.80
  14   6   0  139.09   15.80
   6 -14   0  130.29   14.80
 -14  -4   0  179.98   13.20
  -4  14   0  161.68   11.20
  -4  14   0  205.98   14.50
   4 -14   0  195.88   14.60
 -14  -4   0  179.08   12.40
   4 -14   0  172.28   13.00
   2 -14   0   40.50    5.70
   2 -14   0   44.00    7.00
 -14  -2   0   61.29    8.80
 -14  -2   0   35.60    6.00
   2 -14   0   45.30    7.00
  -2  14   0   30.20    6.50
  -2  14   0   41.50   11.30
 -14  -2   0   40.90    6.50
 -14   0   0    4.00    5.50
   0  14   0    8.60    5.20
   0  14   0   -3.50    3.80
   0 -14   0    5.30    3.90
   0  14   0   13.30    5.50
 -14   0   0    3.60    3.60
   0  14   0    1.60    3.50
   0 -14   0    9.30    4.30
 -14   0   0    5.20    4.70
   0 -14   0    8.60    5.40
 -14   0   0    1.40    5.60
 -14   0   0    2.90    4.60
   0  14   0   10.80    4.60
   2  14   0   44.90    6.50
   2  14   0   63.19   10.90
  -2 -14   0   47.80    7.70
 -14   2   0   70.19   10.40
  -2 -14   0   43.50    6.70
  -2 -14   0   43.10    5.60
 -14   2   0   41.50    7.90
 -14   2   0   47.00    8.10
 -14   2   0   41.90    7.20
   2  14   0   30.70    6.90
   2  14   0   48.70    8.60
 -14   2   0   54.99    7.20
   2  14   0   51.99    8.10
 -14   4   0  160.78   15.10
 -14   4   0  190.98   12.40
 -14   4   0  180.98   14.00
  -4 -14   0  166.28   12.70
  -4 -14   0  186.38   11.90
   4  14   0  185.58   13.20
  -4 -14   0  181.28   12.30
 -14   4   0  187.78   12.20
   4  14   0  209.78   15.50
  -4 -14   0  161.58   14.80
 -14   4   0  173.58   12.70
   4  14   0  191.18   15.40
  -6 -14   0  139.39   10.50
   6  14   0  138.29   16.30
   1 -15   0    1.10    5.10
  -1  15   0   11.30    6.40
 -15  -1   0   -8.40    5.50
  -1  15   0   -6.10    4.50
   1 -15   0   -6.60    5.70
 -15  -1   0  -11.10    7.40
 -15  -1   0    0.00    5.10
 -15  -1   0    1.40    6.40
 -15   1   0    7.80    5.70
   1  15   0   13.00    6.40
   1  15   0    0.20    4.60
  -1 -15   0    0.30    4.80
  -1 -15   0    5.50    5.00
   1  15   0    2.70    6.10
  -1 -15   0   -1.90    6.90
   1  15   0   -7.40    8.00
 -15   1   0   -5.10    5.00
 -15   1   0    2.30    4.60
  -1   0  -1 2859.61   98.99
   0   1  -1 2777.02   99.09
   1   0  -1 2911.81   99.19
   0   1  -1 2877.81   99.29
   0  -1  -1 2709.93   98.99
  -1   0  -1 2878.11   98.89
   0  -1  -1 2726.23   98.89
   0   1  -1 2687.43   99.09
   1   0  -1 2807.82   98.69
  -1   0  -1 2849.61   99.19
   1   0  -1 2966.00   99.69
   0  -1  -1 2675.33   99.09
  -1   0   1 2647.64   98.69
  -1   0   1 2798.52   99.69
   0   1   1 2740.53   99.29
  -1   0   1 2827.12   98.89
   0  -1   1 2909.61   99.59
   0  -1   1 2808.42   99.39
   0  -1   1 2884.61   99.19
   0   1   1 2669.13   98.99
   0   1   1 2703.63   98.79
   0  -1   1 2959.10   99.09
   1   0   1 2700.63   99.39
  -1   0   1 2701.33   98.89
   1   0   1 2751.22   99.49
  -1   2  -1 2550.54   88.99
   1  -2  -1 2491.55   88.49
   1  -2  -1 2587.94   88.99
  -1   2  -1 2600.84   88.89
  -2  -1  -1 2583.64   88.79
  -2  -1  -1 2404.86   88.59
   2   1  -1 2575.64   88.89
   2   1  -1 2448.46   89.99
  -2  -1  -1 2459.35   88.49
  -1   2  -1 2433.26   88.69
  -1   2   1 2415.06   88.69
   1  -2   1 2460.65   88.89
   2   1   1 2491.65   89.59
   2   1   1 2667.33   88.89
   2   1   1 2398.06   89.49
  -2  -1   1 2445.56   88.49
   2   1   1 2519.55   88.19
   1  -2   1 2369.56   89.59
  -2  -1   1 2584.14   89.09
  -2  -1   1 2626.04   88.59
   2   1   1 2461.05   89.59
  -1   2   1 2425.76   88.49
  -1   2   1 2446.36   88.79
  -1   2   1 2476.35   88.99
   2  -1  -1 2445.06   88.79
   1   2  -1 2653.03   88.79
  -1  -2  -1 2713.43   87.69
   1   2  -1 2613.54   87.99
  -1  -2  -1 2526.05   87.89
   1   2  -1 2602.04   87.89
   2  -1  -1 2427.86   87.29
  -2   1  -1 2331.87   87.09
  -2   1  -1 2459.45   87.39
   2  -1  -1 2272.67   87.69
   2  -1  -1 2363.86   87.89
  -1  -2   1 2271.27   87.99
   2  -1   1 2422.36   87.69
  -2   1   1 2586.34   87.29
   1   2   1 2404.36   88.29
   1   2   1 2399.56   88.09
  -1  -2   1 2283.67   88.29
  -1  -2   1 2382.36   87.99
  -2   1   1 2678.63   88.59
   2  -1   1 2572.74   88.09
   1   2   1 2401.26   87.69
  -2   3  -1 1023.60   36.60
   3   2  -1  935.91   36.20
  -2   3  -1  927.51   36.80
  -3  -2  -1  989.70   36.80
   3   2  -1 1072.39   36.00
  -2   3  -1  963.00   36.00
  -2   3  -1 1023.30   36.40
   2  -3  -1  973.40   36.60
   2  -3  -1  940.31   36.40
  -3  -2  -1 1043.60   35.90
  -2   3  -1  966.70   36.50
  -3  -2  -1 1080.59   35.80
   3   2  -1 1001.90   37.70
   3   2  -1 1047.90   38.10
   2  -3  -1 1012.20   36.20
   3   2  -1  957.60   36.90
  -3  -2  -1 1025.00   36.10
   2  -3  -1  952.70   37.00
   2  -3  -1  948.21   36.60
   3   2   1  972.80   37.50
  -3  -2   1 1042.90   36.10
   3   2   1  983.90   37.30
   3   2   1  978.30   37.40
  -3  -2   1  995.70   35.90
  -2   3   1  987.60   36.10
  -2   3   1 1045.80   36.10
   2  -3   1  959.20   36.40
   2  -3   1  957.50   36.20
   2  -3   1 1048.80   36.00
   3   2   1 1006.30   36.90
  -2   3   1  979.60   36.40
  -3  -2   1  932.21   36.90
  -2   3   1 1051.29   36.20
  -2   3   1 1003.00   36.40
  -3  -2   1  982.30   36.80
   2  -3   1  953.90   36.30
   3   2   1  942.21   36.50
   0   3  -1  907.11   32.90
   0  -3  -1  922.51   32.80
  -3   0  -1  856.31   33.00
   0   3  -1  880.81   33.00
   3   0  -1  912.91   32.80
   0  -3  -1  877.91   33.00
   3   0  -1  909.61   32.70
   3   0  -1  841.12   33.20
   0  -3  -1  906.21   32.80
   3   0  -1  817.82   32.00
   0  -3  -1  880.71   32.50
   0   3  -1  849.61   32.90
   0  -3  -1  857.91   32.70
   0   3  -1  945.41   33.40
   0   3   1  915.41   33.40
   0   3   1  899.51   32.70
   0  -3   1  906.01   33.60
   0   3   1  872.51   32.90
   0   3   1  907.51   32.60
   3   0   1  909.31   32.60
   0  -3   1  901.31   32.80
   0  -3   1  920.81   33.10
   0  -3   1  930.01   33.10
   3   0   1  935.21   33.90
   3   0   1  918.91   32.70
   3   0   1  919.61   33.60
   3   0   1  853.81   32.30
   3   0   1  873.01   33.50
   0   3   1  870.01   32.60
   2   3  -1  929.71   36.50
  -2  -3  -1 1049.20   35.90
   2   3  -1  938.01   37.00
  -3   2  -1  984.90   37.30
   3  -2  -1  967.10   36.80
   3  -2  -1 1062.99   38.10
   2   3  -1 1044.60   36.70
  -3   2  -1 1014.00   36.70
   3  -2  -1  991.60   36.20
   2   3  -1 1018.50   36.30
  -2  -3  -1  942.51   37.00
   2   3  -1  922.91   36.80
   3  -2  -1 1143.89   37.30
   3  -2  -1 1066.19   36.50
   2   3  -1 1020.80   38.10
   3  -2  -1  978.80   37.50
  -2  -3  -1 1024.20   36.60
   2   3  -1  958.10   37.60
   3  -2   1 1061.39   38.10
  -2  -3   1  956.90   36.70
  -2  -3   1 1001.20   36.80
   3  -2   1  929.41   36.60
  -2  -3   1 1002.10   36.90
   2   3   1  996.10   36.30
   2   3   1 1015.30   37.40
   2   3   1  989.40   37.10
  -2  -3   1 1061.49   37.60
   2   3   1 1010.80   37.30
  -3   2   1  955.60   36.60
   3  -2   1 1020.60   36.80
   2   3   1 1013.90   37.50
   3  -2   1  943.21   35.90
   3  -2   1  953.60   36.50
   3  -4  -1 1058.29   39.40
  -4  -3  -1 1036.90   40.00
   3  -4  -1 1052.69   39.80
   3  -4  -1 1137.29   39.60
   4   3  -1 1007.10   40.00
   3  -4  -1 1081.39   39.70
  -3   4  -1 1112.59   38.90
  -4  -3  -1 1091.39   38.20
  -3   4  -1 1140.59   39.80
  -3   4  -1 1095.49   40.30
  -3   4  -1 1087.69   39.40
   4   3  -1 1101.79   38.40
   4   3  -1 1026.00   41.40
   4   3  -1 1004.30   39.30
  -4  -3  -1 1011.40   39.00
   4   3  -1 1044.30   41.20
  -4  -3  -1 1118.69   38.90
   4   3  -1 1023.20   39.60
   3  -4  -1 1086.89   40.50
  -3   4  -1 1129.99   39.20
  -4  -3   1 1087.49   40.00
   4   3   1 1116.29   40.60
   4   3   1 1074.19   41.10
   3  -4   1 1061.19   38.50
  -4  -3   1 1026.60   39.80
   4   3   1 1075.49   39.60
  -3   4   1 1061.19   40.60
   3  -4   1  982.50   39.50
  -3   4   1 1103.29   39.10
  -3   4   1  993.50   39.40
   4   3   1 1074.89   40.70
   3  -4   1 1001.80   39.70
  -4  -3   1 1080.99   39.00
  -3   4   1  980.60   39.40
  -4  -3   1 1160.58   39.10
   3  -4   1  993.40   39.40
  -3   4   1 1090.19   38.80
  -4  -3   1 1108.29   40.20
   3  -4   1  998.90   38.90
  -4  -1  -1 1051.29   37.90
  -1   4  -1  958.40   37.50
   1  -4  -1 1038.50   37.50
   1  -4  -1  974.10   37.70
   1  -4  -1  993.60   37.90
  -1   4  -1 1007.80   37.70
  -1   4  -1  978.00   38.00
   4   1  -1  966.20   37.80
   4   1  -1 1030.50   36.70
   1  -4  -1  949.11   37.70
   1  -4  -1 1030.60   37.50
   4   1  -1 1074.59   37.20
   4   1  -1 1038.40   39.00
   1  -4  -1 1012.10   37.70
   4   1  -1 1090.79   39.60
   4   1   1  960.10   37.00
   4   1   1 1001.90   38.90
   4   1   1  984.30   37.00
   4   1   1 1028.10   38.10
  -1   4   1 1013.70   37.80
   1  -4   1 1006.80   37.60
  -1   4   1 1073.99   37.50
   4   1   1  972.00   38.80
   1  -4   1 1011.20   37.30
   1  -4   1 1000.00   37.60
   1  -4   1 1079.19   37.80
   4   1   1  966.20   38.50
  -1   4   1 1078.49   38.60
  -1   4   1 1016.70   37.50
   1  -4   1 1101.49   39.10
  -4  -1   1  966.40   38.30
  -1   4   1 1095.19   37.10
   1  -4   1 1117.19   37.30
   4  -1  -1 1116.19   38.20
  -1  -4  -1 1033.10   37.40
  -1  -4  -1 1002.30   38.40
  -1  -4  -1 1032.30   38.50
   1   4  -1  995.90   38.40
   4  -1  -1 1071.79   38.30
  -4   1  -1  992.90   38.20
   1   4  -1  967.60   38.30
   1   4  -1 1021.80   37.90
   1   4  -1 1019.20   39.20
   4  -1  -1 1097.29   39.90
   4  -1  -1 1042.70   37.90
  -4   1  -1 1108.09   37.80
   1   4  -1 1009.20   38.30
   4  -1  -1 1043.00   38.70
  -1  -4  -1 1008.30   38.10
  -1  -4  -1  984.60   37.80
   1   4  -1  970.90   38.50
  -1  -4   1 1057.59   39.20
   4  -1   1 1011.60   39.50
   4  -1   1 1059.19   38.00
  -1  -4   1 1067.99   38.60
   4  -1   1  995.50   38.70
   4  -1   1 1042.70   38.10
   1   4   1 1073.99   39.10
  -1  -4   1 1043.90   37.80
   1   4   1 1059.99   38.70
   1   4   1 1092.79   38.60
   4  -1   1  973.00   37.90
   1   4   1 1019.50   38.80
  -4   1   1 1002.50   37.90
   1   4   1 1057.09   37.60
   1   4   1 1061.29   38.10
   4  -3  -1  982.30   40.10
   3   4  -1 1032.00   39.50
   4  -3  -1 1016.30   39.50
   4  -3  -1 1085.79   39.20
   4  -3  -1 1021.60   38.20
  -3  -4  -1 1099.19   38.40
   3   4  -1 1039.90   39.80
  -4   3  -1 1065.09   39.10
  -4   3  -1 1000.90   39.00
  -3  -4  -1 1083.79   39.20
  -3  -4  -1 1054.59   39.70
   3   4  -1 1134.29   38.30
   3   4  -1 1052.49   39.40
   4  -3  -1 1016.30   38.40
   4  -3  -1 1029.50   39.40
   3   4  -1 1115.59   40.90
  -4   3  -1 1015.40   40.00
  -3  -4  -1 1119.49   37.70
   3   4  -1 1133.99   41.50
   3   4   1 1017.00   40.30
   3   4   1 1046.90   39.80
  -4   3   1 1083.09   39.20
   4  -3   1 1078.39   39.40
  -3  -4   1  996.50   39.30
   4  -3   1 1097.39   39.70
  -4   3   1 1060.09   39.30
  -3  -4   1 1021.00   40.20
   4  -3   1 1052.79   38.20
  -3  -4   1 1030.30   39.40
   3   4   1 1038.90   40.20
   4  -3   1 1152.08   41.10
   3   4   1 1042.80   37.90
  -3  -4   1 1017.60   39.40
   4  -3   1 1150.68   39.20
   3   4   1 1014.40   40.10
   4  -3   1 1061.99   39.30
   4  -5  -1 1422.46   54.89
  -4   5  -1 1386.36   54.19
   5   4  -1 1613.64   58.39
   5   4  -1 1502.65   56.09
   5   4  -1 1433.56   54.99
  -5  -4  -1 1631.04   54.69
  -5  -4  -1 1535.75   54.19
  -5  -4  -1 1617.04   56.19
   5   4  -1 1466.55   57.49
  -4   5  -1 1416.66   55.99
  -5  -4  -1 1518.25   54.79
  -4   5  -1 1423.66   54.79
  -4   5  -1 1466.65   55.59
   4  -5  -1 1501.55   55.59
   5   4  -1 1577.24   53.49
   4  -5  -1 1369.96   55.19
   4  -5  -1 1411.06   56.49
   4  -5  -1 1527.05   55.69
   5   4  -1 1504.45   55.79
  -4   5  -1 1502.75   54.89
  -4   5   1 1552.44   54.69
  -4   5   1 1591.34   53.99
   4  -5   1 1497.75   55.29
   4  -5   1 1525.35   54.59
   4  -5   1 1563.84   55.89
  -4   5   1 1482.15   55.39
   5   4   1 1395.36   56.59
  -5  -4   1 1446.56   54.79
   4  -5   1 1507.25   55.89
  -4   5   1 1569.44   56.79
   5   4   1 1413.76   55.29
   4  -5   1 1549.14   57.29
  -5  -4   1 1461.55   56.19
  -5  -4   1 1439.66   55.69
   4  -5   1 1667.43   53.89
  -5  -4   1 1520.55   54.69
  -5  -4   1 1468.25   55.59
   5   4   1 1459.35   56.89
  -4   5   1 1481.95   55.39
  -4   5   1 1547.05   54.49
   5   4   1 1469.45   57.49
   2  -5  -1  474.25   19.50
   2  -5  -1  514.15   18.80
  -5  -2  -1  517.95   18.00
   2  -5  -1  480.75   19.30
  -5  -2  -1  532.85   18.50
   5   2  -1  484.95   19.60
  -5  -2  -1  497.25   18.20
   2  -5  -1  526.25   19.80
  -2   5  -1  504.55   20.10
  -2   5  -1  470.05   19.10
   5   2  -1  507.65   18.80
   5   2  -1  480.35   18.50
   5   2  -1  478.35   21.00
   2  -5  -1  489.35   19.50
  -2   5  -1  483.75   20.00
  -5  -2  -1  479.85   19.70
   5   2  -1  467.35   19.90
   2  -5  -1  460.45   19.80
   5   2  -1  519.05   18.60
  -2   5  -1  498.25   19.30
   2  -5   1  515.45   18.10
   5   2   1  475.85   18.40
   5   2   1  465.25   20.80
   2  -5   1  489.35   19.60
  -5  -2   1  499.95   17.90
   2  -5   1  471.55   19.10
  -2   5   1  483.85   19.30
  -2   5   1  473.65   19.00
   5   2   1  500.05   20.90
  -2   5   1  471.55   19.50
   2  -5   1  474.75   20.60
   5   2   1  502.55   20.40
   5   2   1  467.25   20.50
   2  -5   1  483.65   19.50
  -2   5   1  511.75   18.10
   2  -5   1  474.25   19.10
  -2   5   1  494.35   20.40
  -5  -2   1  480.35   20.00
   5   2   1  492.35   18.80
   2  -5   1  506.75   18.90
   5   0  -1  731.73   28.90
  -5   0  -1  709.13   27.60
   0  -5  -1  726.33   28.00
   0  -5  -1  770.12   27.90
   5   0  -1  732.93   29.60
   0  -5  -1  690.83   27.70
   0  -5  -1  759.92   28.20
   0   5  -1  755.02   27.80
   0   5  -1  730.23   28.10
   5   0  -1  723.03   27.40
   0  -5  -1  741.53   27.70
   5   0  -1  681.63   27.60
   0  -5  -1  797.32   27.20
  -5   0  -1  668.43   27.80
   0   5  -1  744.23   27.80
   0   5  -1  739.63   28.80
   0   5   1  687.43   28.00
   0  -5   1  704.43   27.60
   0   5   1  696.73   28.50
   0  -5   1  772.02   26.90
   0   5   1  714.53   27.50
   5   0   1  791.62   28.30
   0  -5   1  701.53   27.70
  -5   0   1  742.33   27.10
   5   0   1  732.03   29.20
   0  -5   1  674.13   26.90
   0   5   1  704.43   27.10
   0   5   1  745.63   27.40
   5   0   1  722.63   27.20
   5   0   1  716.63   28.70
   5   0   1  730.03   28.90
   0  -5   1  693.83   28.70
   0  -5   1  729.53   28.10
  -5   0   1  750.12   28.80
  -5   2  -1  481.15   18.70
   5  -2  -1  521.25   19.60
  -5   2  -1  457.25   20.10
   2   5  -1  514.55   18.70
   2   5  -1  498.75   20.30
   2   5  -1  488.65   21.00
   2   5  -1  449.66   19.80
   2   5  -1  484.55   19.60
  -2  -5  -1  491.05   19.70
   5  -2  -1  461.85   19.70
  -2  -5  -1  499.55   19.50
   5  -2  -1  496.05   19.40
   5  -2  -1  510.85   21.10
  -2  -5  -1  510.95   20.10
   2   5  -1  519.55   19.60
  -5   2  -1  467.25   19.30
  -2  -5  -1  494.75   18.10
   2   5  -1  480.55   19.70
  -2  -5  -1  501.75   18.90
   2   5   1  474.45   20.40
  -2  -5   1  472.15   19.10
  -5   2   1  479.45   19.20
   2   5   1  487.75   20.20
   5  -2   1  468.15   19.20
   2   5   1  454.85   19.90
   2   5   1  507.15   20.10
   2   5   1  489.15   18.40
   2   5   1  504.15   19.10
   5  -2   1  481.65   19.40
  -2  -5   1  484.95   20.50
   2   5   1  456.75   19.20
  -2  -5   1  481.65   19.30
   5  -2   1  495.65   19.80
   5  -2   1  495.35   21.00
  -5   2   1  478.65   19.10
   5  -2   1  501.55   19.50
  -2  -5   1  517.35   20.00
   4   5  -1 1420.36   57.59
  -5   4  -1 1536.25   56.09
  -5   4  -1 1532.55   54.89
  -5   4  -1 1627.24   53.59
   5  -4  -1 1538.45   53.99
  -5   4  -1 1567.74   55.19
   5  -4  -1 1457.05   55.29
  -5   4  -1 1484.95   53.29
   4   5  -1 1390.16   56.79
  -4  -5  -1 1427.46   54.89
  -4  -5  -1 1450.15   54.09
  -4  -5  -1 1449.06   55.59
   5  -4  -1 1634.04   55.59
  -4  -5  -1 1391.96   55.99
   5  -4  -1 1562.44   56.79
   4   5  -1 1366.56   55.29
   5  -4  -1 1536.65   55.49
   5  -4  -1 1481.35   53.69
   4   5  -1 1455.65   55.89
   4   5  -1 1457.55   54.19
   4   5  -1 1534.05   53.39
   4   5  -1 1431.96   55.49
   5  -4   1 1468.65   55.09
   4   5   1 1520.85   57.09
   5  -4   1 1454.05   53.59
  -4  -5   1 1500.25   55.39
  -5   4   1 1488.95   53.39
   4   5   1 1468.85   56.39
  -5   4   1 1453.35   55.09
  -5   4   1 1553.84   54.89
   5  -4   1 1460.15   54.09
  -4  -5   1 1529.15   55.39
   4   5   1 1609.04   54.29
  -4  -5   1 1532.95   56.59
   4   5   1 1496.75   56.69
   5  -4   1 1446.06   55.59
   5  -4   1 1408.46   55.39
  -5   4   1 1450.65   55.09
   4   5   1 1482.05   55.79
   5  -4   1 1475.75   57.09
  -4  -5   1 1546.55   55.29
   5  -4   1 1613.44   54.79
  -6  -5  -1  565.94   23.60
  -5   6  -1  623.54   23.30
   6   5  -1  592.44   26.80
   5  -6  -1  583.74   24.20
   5  -6  -1  620.04   26.00
  -5   6  -1  631.54   23.90
   6   5  -1  568.04   25.10
   6   5  -1  600.54   24.10
   6   5  -1  574.74   27.30
  -5   6  -1  608.14   25.30
   5  -6  -1  650.33   25.00
  -6  -5  -1  584.14   24.90
  -5   6  -1  654.03   25.00
  -5   6  -1  643.74   24.00
   5  -6  -1  623.54   23.80
   5  -6  -1  633.04   24.80
   6   5  -1  581.14   25.00
   5  -6  -1  597.24   23.60
  -6  -5  -1  603.04   23.10
  -6  -5   1  615.64   24.90
   6   5   1  605.24   26.80
  -5   6   1  601.74   24.60
   5  -6   1  568.64   24.80
  -6  -5   1  649.04   24.70
  -5   6   1  601.84   23.70
   5  -6   1  563.34   24.80
   6   5   1  632.44   26.70
   5  -6   1  568.64   26.00
   6   5   1  602.24   24.50
   5  -6   1  604.64   24.00
  -6  -5   1  635.94   25.90
   5  -6   1  596.64   23.40
   6   5   1  631.34   26.30
  -5   6   1  579.24   25.50
  -6  -5   1  614.64   24.00
  -5   6   1  569.74   23.10
  -5   6   1  595.44   24.40
   6   3  -1  650.23   29.50
  -3   6  -1  773.32   27.30
   6   3  -1  675.03   28.30
  -6  -3  -1  675.43   26.30
  -6  -3  -1  680.93   28.00
   3  -6  -1  712.43   27.60
  -3   6  -1  716.73   27.20
   3  -6  -1  754.32   27.70
  -3   6  -1  722.63   28.40
  -6  -3  -1  685.83   26.50
  -6  -3  -1  734.03   26.10
  -3   6  -1  718.03   28.20
  -6  -3  -1  726.33   25.90
   3  -6  -1  747.83   27.70
   3  -6  -1  756.22   28.00
   3  -6  -1  713.33   28.50
   6   3  -1  658.93   26.40
   6   3  -1  666.53   27.80
   6   3  -1  695.43   26.80
   6   3  -1  645.44   29.90
   6   3  -1  744.03   26.10
   3  -6   1  680.83   27.70
   6   3   1  742.53   27.00
  -6  -3   1  704.33   26.10
   3  -6   1  654.43   27.60
   6   3   1  715.93   29.00
   6   3   1  716.03   26.40
  -6  -3   1  712.03   28.10
   6   3   1  724.43   26.00
  -3   6   1  691.23   27.40
  -3   6   1  661.73   27.60
  -3   6   1  652.23   26.80
  -6  -3   1  700.43   28.20
   6   3   1  708.23   28.90
  -3   6   1  684.13   28.50
   3  -6   1  696.13   27.20
  -6  -3   1  788.52   26.50
  -6  -3   1  737.53   28.20
   3  -6   1  668.23   28.90
   6   3   1  705.63   29.90
   6   1  -1  472.45   21.40
  -6  -1  -1  458.25   19.20
  -1   6  -1  471.05   19.70
   1  -6  -1  466.25   19.40
   1  -6  -1  500.75   19.10
   6   1  -1  472.55   20.80
  -6  -1  -1  467.55   18.60
   1  -6  -1  467.75   19.10
   6   1  -1  470.85   19.40
   6   1  -1  473.05   19.30
   6   1  -1  485.35   18.40
   1  -6  -1  480.45   18.80
  -1   6  -1  461.25   18.80
  -1   6  -1  459.55   19.10
   1  -6  -1  467.15   19.40
  -1   6  -1  474.25   20.20
   1  -6  -1  491.15   19.60
   1  -6   1  507.85   18.30
  -1   6   1  467.55   18.90
  -1   6   1  458.65   19.40
   1  -6   1  478.05   19.30
   6   1   1  462.25   20.90
  -6  -1   1  459.95   19.90
   1  -6   1  460.45   18.50
   6   1   1  493.05   20.80
   1  -6   1  468.25   20.60
  -1   6   1  469.35   20.30
   6   1   1  488.05   20.10
  -1   6   1  479.45   18.10
   1  -6   1  467.65   19.10
  -6  -1   1  472.75   18.10
  -1   6   1  459.55   18.70
   1  -6   1  448.26   18.90
   6   1   1  498.65   20.60
   6   1   1  475.95   18.40
  -1  -6  -1  447.66   19.10
   1   6  -1  453.35   20.20
   6  -1  -1  473.05   19.00
  -1  -6  -1  465.25   19.50
  -6   1  -1  417.36   18.70
   6  -1  -1  450.55   19.30
   1   6  -1  454.55   19.50
  -1  -6  -1  487.05   19.00
  -6   1  -1  444.06   18.40
   6  -1  -1  478.85   19.90
   1   6  -1  475.15   19.30
  -1  -6  -1  487.05   19.00
   6  -1  -1  445.36   18.50
   1   6  -1  479.05   19.10
  -1  -6  -1  464.85   18.60
   6  -1  -1  449.86   20.60
   1   6  -1  444.16   18.80
   6  -1  -1  464.65   18.60
   6  -1   1  494.45   19.40
  -1  -6   1  489.65   20.30
  -6   1   1  461.25   18.30
  -1  -6   1  462.15   18.20
   6  -1   1  463.05   18.50
   6  -1   1  487.25   18.70
   1   6   1  455.15   18.20
  -1  -6   1  467.35   18.70
   1   6   1  463.05   18.00
   6  -1   1  467.05   20.00
   1   6   1  453.45   19.60
   1   6   1  469.85   18.70
  -6   1   1  467.75   18.70
  -1  -6   1  461.75   18.90
   1   6   1  461.75   20.10
   1   6   1  462.95   18.80
   6  -1   1  465.35   20.50
   1   6   1  454.75   19.40
  -1  -6   1  478.95   19.40
  -6   3  -1  684.83   28.50
  -3  -6  -1  744.73   27.00
   3   6  -1  722.43   28.40
   6  -3  -1  676.63   29.30
  -3  -6  -1  762.72   28.20
  -3  -6  -1  736.63   28.20
   6  -3  -1  718.03   28.00
   3   6  -1  651.63   28.80
   3   6  -1  733.13   28.20
   3   6  -1  721.33   28.20
   6  -3  -1  699.03   27.90
  -6   3  -1  672.33   27.40
   3   6  -1  778.32   27.80
  -3  -6  -1  758.52   25.80
  -3  -6  -1  729.73   27.80
   3   6  -1  695.33   29.90
  -3  -6  -1  721.03   28.70
   6  -3  -1  705.13   27.90
  -6   3  -1  677.93   26.70
   3   6  -1  773.82   26.60
   6  -3   1  718.83   28.10
   6  -3   1  713.33   27.60
   3   6   1  648.94   27.70
  -6   3   1  727.53   27.60
   6  -3   1  763.92   28.20
  -6   3   1  701.13   27.50
  -3  -6   1  695.73   28.10
  -3  -6   1  658.93   27.30
   3   6   1  716.43   27.30
   3   6   1  683.03   28.80
   3   6   1  693.83   28.50
   6  -3   1  735.93   28.10
  -3  -6   1  668.93   28.90
   3   6   1  689.83   29.20
   6  -3   1  742.73   29.80
  -3  -6   1  659.33   27.40
   3   6   1  661.43   28.50
   3   6   1  686.43   26.20
   6  -5  -1  624.64   22.80
  -6   5  -1  588.44   25.40
   6  -5  -1  595.64   22.90
   6  -5  -1  598.34   24.90
   5   6  -1  605.14   26.80
   6  -5  -1  558.74   26.00
  -6   5  -1  609.44   23.20
  -5  -6  -1  610.04   24.50
   5   6  -1  635.74   27.90
  -6   5  -1  586.64   24.10
   5   6  -1  564.94   25.20
   5   6  -1  612.94   25.00
  -5  -6  -1  653.73   23.60
   6  -5  -1  596.64   24.70
  -6   5  -1  594.64   24.70
   6  -5  -1  605.04   25.10
  -5  -6  -1  642.14   25.40
  -6   5  -1  573.74   22.70
  -5  -6  -1  643.74   26.10
   5   6  -1  627.44   25.40
   5   6   1  589.04   26.20
   6  -5   1  642.34   25.60
   5   6   1  591.34   25.20
   6  -5   1  690.63   23.80
  -6   5   1  669.33   24.10
   6  -5   1  616.54   25.40
  -5  -6   1  590.34   24.90
  -6   5   1  631.84   22.90
  -5  -6   1  579.14   26.00
  -6   5   1  650.13   23.10
   6  -5   1  634.54   22.80
   6  -5   1  636.74   23.20
   6  -5   1  651.63   27.00
  -6   5   1  635.84   24.90
  -6   5   1  618.04   24.80
   5   6   1  569.54   26.40
  -5  -6   1  609.94   24.90
  -5  -6   1  567.44   24.30
   5   6   1  572.74   26.40
  -7  -6  -1  267.87   13.30
   7   6  -1  273.77   16.00
  -7  -6  -1  274.87   11.40
   6  -7  -1  247.88   14.00
   6  -7  -1  238.48   12.60
   7   6  -1  262.47   13.60
  -6   7  -1  253.57   11.40
   7   6  -1  266.47   15.40
  -6   7  -1  243.58   13.30
   6  -7  -1  244.08   11.70
  -7  -6  -1  262.87   13.90
  -6   7  -1  283.37   12.70
  -6   7  -1  256.27   11.90
   6  -7  -1  244.78   11.40
   6  -7  -1  265.87   13.40
   6  -7  -1  257.67   12.40
  -7  -6  -1  275.57   12.30
   7   6  -1  257.07   12.30
   7   6  -1  284.47   13.90
  -6   7  -1  261.57   13.10
   6  -7   1  269.47   11.50
   6  -7   1  267.27   12.00
  -6   7   1  269.37   11.50
   6  -7   1  274.67   13.40
  -6   7   1  280.47   13.00
   7   6   1  239.78   14.60
   6  -7   1  260.97   13.50
  -6   7   1  262.37   12.70
   7   6   1  253.77   14.30
  -7  -6   1  254.57   12.50
   7   6   1  245.78   14.60
  -7  -6   1  241.78   13.70
  -6   7   1  277.37   14.10
   7   6   1  242.78   12.50
  -6   7   1  289.17   12.60
   6  -7   1  287.37   14.90
  -7  -6   1  255.07   13.10
  -7  -6   1  243.38   12.10
  -7  -4  -1  554.44   20.40
   7   4  -1  558.94   22.50
  -4   7  -1  491.65   20.80
   7   4  -1  526.75   24.70
   7   4  -1  525.05   20.40
   4  -7  -1  484.95   21.30
  -7  -4  -1  541.65   20.60
   4  -7  -1  509.65   21.90
  -4   7  -1  517.45   20.80
   4  -7  -1  513.15   21.60
   7   4  -1  558.74   20.90
  -7  -4  -1  565.14   20.20
   4  -7  -1  472.45   21.30
   7   4  -1  556.84   19.30
   7   4  -1  530.75   22.50
  -4   7  -1  503.85   22.30
   7   4  -1  539.75   24.40
  -4   7  -1  503.55   22.10
   4  -7  -1  492.75   22.70
  -7  -4   1  510.65   20.30
   7   4   1  502.25   20.80
   4  -7   1  526.75   20.90
   7   4   1  488.85   23.80
  -4   7   1  527.55   20.80
   4  -7   1  512.75   22.10
   7   4   1  497.05   20.30
  -4   7   1  528.45   22.90
   4  -7   1  567.14   23.90
  -4   7   1  531.85   21.50
   7   4   1  498.95   23.30
   7   4   1  487.25   22.80
  -7  -4   1  528.55   20.50
  -7  -4   1  528.15   22.50
  -7  -4   1  492.55   21.60
  -7  -4   1  503.75   22.10
   4  -7   1  560.74   22.20
  -4   7   1  532.35   21.90
  -2   7  -1  365.06   16.50
   7   2  -1  396.06   14.80
   7   2  -1  376.56   16.30
   2  -7  -1  359.86   15.60
  -7  -2  -1  369.56   16.20
   7   2  -1  370.46   18.00
   2  -7  -1  383.86   15.30
  -2   7  -1  363.46   15.40
   7   2  -1  378.36   18.50
   2  -7  -1  346.77   16.00
   2  -7  -1  361.16   16.50
  -2   7  -1  354.66   15.70
   7   2  -1  373.76   16.40
   2  -7  -1  372.56   15.80
  -7  -2  -1  379.86   15.20
   2  -7  -1  368.16   16.50
  -2   7  -1  364.26   17.00
   7   2   1  342.17   17.00
  -2   7   1  378.96   17.40
   2  -7   1  384.66   17.60
   2  -7   1  380.76   16.20
   2  -7   1  387.56   15.90
   7   2   1  362.86   14.70
  -7  -2   1  359.96   16.50
  -2   7   1  372.86   15.60
   7   2   1  362.26   18.10
  -7  -2   1  374.26   14.40
  -2   7   1  370.16   15.60
   7   2   1  373.56   17.60
  -2   7   1  381.76   16.50
   7   2   1  374.86   17.40
   0  -7  -1  413.36   18.20
   0  -7  -1  419.96   17.50
   0  -7  -1  405.16   16.60
   0   7  -1  399.96   18.10
   7   0  -1  418.46   19.70
   0   7  -1  406.86   17.90
  -7   0  -1  416.96   17.30
   0   7  -1  395.36   17.50
   0   7  -1  384.36   18.60
   0   7  -1  413.36   17.30
   0  -7  -1  404.36   17.80
   7   0  -1  435.36   19.20
  -7   0  -1  427.36   17.50
   7   0  -1  439.06   17.00
   7   0  -1  440.76   17.70
   0  -7  -1  418.76   17.50
   0  -7  -1  430.16   17.60
  -7   0  -1  422.86   17.90
   7   0   1  377.66   18.80
   0   7   1  440.26   17.00
   0   7   1  397.96   16.30
   0  -7   1  418.46   17.50
  -7   0   1  400.16   18.40
   0   7   1  422.96   18.10
   7   0   1  418.36   18.30
   0   7   1  453.45   17.60
   0   7   1  413.46   18.40
  -7   0   1  403.26   16.50
   0   7   1  409.76   18.80
   0  -7   1  455.85   18.20
   0   7   1  438.16   16.80
   7   0   1  392.46   19.00
   7   0   1  393.56   16.70
   0  -7   1  428.46   16.50
   0  -7   1  409.46   18.90
   0  -7   1  420.86   17.40
  -2  -7  -1  366.26   14.40
   2   7  -1  349.07   16.20
  -2  -7  -1  376.56   16.20
   2   7  -1  370.26   16.10
   2   7  -1  377.66   15.10
  -7   2  -1  363.16   15.30
   7  -2  -1  380.86   16.70
  -2  -7  -1  357.96   16.20
   7  -2  -1  350.16   16.20
  -2  -7  -1  356.06   16.00
  -2  -7  -1  374.96   15.50
   2   7  -1  358.56   16.60
   7  -2  -1  393.86   16.00
   7  -2  -1  380.16   17.80
  -7   2  -1  379.86   17.00
   2   7  -1  357.76   17.80
   2   7  -1  334.37   15.90
  -2  -7  -1  371.56   16.80
   7  -2  -1  395.46   16.40
  -7   2  -1  376.46   15.90
  -2  -7   1  383.86   15.60
  -2  -7   1  381.56   16.60
   2   7   1  349.96   15.50
  -2  -7   1  381.26   17.60
  -7   2   1  366.06   15.90
   2   7   1  382.86   16.60
  -7   2   1  367.16   15.50
   2   7   1  354.76   16.80
   2   7   1  375.46   16.80
   7  -2   1  372.06   16.90
   7  -2   1  384.16   16.40
   2   7   1  351.76   17.30
   2   7   1  391.26   15.80
  -2  -7   1  367.16   15.90
  -2  -7   1  388.26   15.80
   2   7   1  384.26   14.80
   7  -2   1  369.66   15.80
   7  -2   1  356.16   17.60
   7  -2   1  361.16   15.80
  -4  -7  -1  527.35   20.50
  -7   4  -1  534.05   20.30
   4   7  -1  528.55   19.50
   4   7  -1  467.55   21.80
   4   7  -1  506.55   23.20
   7  -4  -1  520.25   21.60
   4   7  -1  522.25   21.20
  -7   4  -1  524.45   21.10
  -4  -7  -1  521.95   21.80
   7  -4  -1  566.24   22.20
   4   7  -1  522.65   22.10
  -4  -7  -1  484.45   21.80
  -4  -7  -1  488.65   22.60
   7  -4  -1  522.35   21.70
  -7   4  -1  527.35   22.50
   4   7  -1  484.25   24.20
  -4  -7  -1  512.35   21.60
   4   7  -1  491.55   22.00
  -7   4   1  508.65   21.40
  -4  -7   1  533.65   21.30
  -4  -7   1  530.15   23.30
  -7   4   1  506.45   20.20
   4   7   1  534.85   23.10
   7  -4   1  511.85   23.60
   4   7   1  521.75   22.90
   4   7   1  527.25   21.90
   7  -4   1  515.95   22.20
   4   7   1  519.95   22.50
   7  -4   1  507.25   22.00
  -7   4   1  506.85   21.40
   4   7   1  569.14   21.00
   4   7   1  540.25   23.70
   7  -4   1  540.15   21.40
  -4  -7   1  531.35   22.20
  -4  -7   1  522.65   21.40
  -4  -7   1  535.15   21.60
   7  -6  -1  269.67   13.20
   6   7  -1  259.57   15.00
  -7   6  -1  264.27   11.00
  -7   6  -1  286.97   11.90
  -6  -7  -1  256.57   13.30
  -6  -7  -1  257.87   12.70
  -7   6  -1  277.67   13.80
   6   7  -1  259.97   13.70
  -7   6  -1  270.87   10.90
   6   7  -1  249.68   13.60
  -6  -7  -1  248.98   13.80
   6   7  -1  258.67   12.90
   7  -6  -1  284.47   13.60
  -7   6  -1  281.17   13.20
   7  -6  -1  285.07   15.00
  -7   6  -1  280.37   12.40
   6   7  -1  253.17   15.70
   7  -6  -1  288.27   12.80
  -6  -7  -1  263.97   11.60
   7  -6   1  255.87   10.60
  -7   6   1  273.07   11.60
  -6  -7   1  281.47   12.60
  -7   6   1  242.68   13.90
   7  -6   1  276.17   11.30
   6   7   1  271.47   13.60
  -6  -7   1  264.27   13.00
   6   7   1  282.37   15.50
   7  -6   1  255.97   13.70
   6   7   1  260.87   14.70
  -6  -7   1  276.47   14.50
  -6  -7   1  274.87   13.30
  -7   6   1  263.37   10.80
   7  -6   1  258.67   14.70
   7  -6   1  271.27   13.60
  -7   6   1  258.27   12.80
  -7   6   1  277.77   11.80
   7  -6   1  252.07   10.40
  -7   6   1  254.47   13.00
   6   7   1  277.97   14.70
   8   7  -1  155.98   10.60
   8   7  -1  136.69    9.40
  -8  -7  -1  148.09    8.80
   7  -8  -1  175.68    8.40
   8   7  -1  149.49   12.00
   7  -8  -1  180.18    8.40
  -7   8  -1  155.88    8.30
  -7   8  -1  176.08   10.20
  -7   8  -1  161.98   10.30
  -7   8  -1  171.88    8.70
  -8  -7  -1  150.28    9.70
   8   7  -1  159.88   10.50
  -8  -7  -1  161.98    8.00
  -8  -7  -1  155.48   10.40
   7  -8  -1  172.38   11.60
   8   7  -1  156.78    9.00
   7  -8  -1  179.38    9.80
   8   7  -1  147.59   11.60
   7  -8  -1  158.88    9.70
   7  -8  -1  181.88   10.70
  -7   8   1  166.98    9.70
  -7   8   1  145.29   10.20
   8   7   1  157.98   11.70
  -8  -7   1  177.58   10.00
  -8  -7   1  163.38    9.30
  -8  -7   1  167.98   10.80
   7  -8   1  168.48    8.60
   7  -8   1  153.58    7.80
   7  -8   1  157.98   10.00
   7  -8   1  134.69   10.80
  -7   8   1  143.99    8.00
   8   7   1  190.18   12.00
  -8  -7   1  181.28    9.40
   7  -8   1  163.88   10.70
   8   7   1  164.38   12.00
   8   7   1  164.58    9.20
  -7   8   1  160.58    9.80
   8   7   1  178.88    9.90
  -8  -5  -1  188.38    9.10
   8   5  -1  175.88   12.00
   5  -8  -1  182.98    9.30
  -5   8  -1  171.18    8.90
   8   5  -1  175.88   10.50
   5  -8  -1  188.58   10.20
   8   5  -1  162.58   12.10
  -8  -5  -1  180.48    8.40
  -5   8  -1  175.38   10.50
  -8  -5  -1  182.38   10.30
   5  -8  -1  188.78   11.40
  -8  -5  -1  171.58    8.70
   8   5  -1  178.88    8.60
   8   5  -1  178.68   10.60
   5  -8  -1  158.08    9.10
  -5   8  -1  178.08    8.90
   5  -8  -1  177.28    9.70
   5  -8  -1  188.08    9.70
   8   5  -1  179.98    9.00
  -5   8  -1  181.38   10.40
   5  -8   1  180.68    9.70
   8   5   1  173.68    8.70
   8   5   1  183.88    9.20
  -5   8   1  180.58    9.50
   5  -8   1  176.48   10.10
  -8  -5   1  184.58    9.30
   8   5   1  180.58   11.50
  -5   8   1  173.08    8.80
  -5   8   1  188.08   10.10
  -8  -5   1  180.28    9.70
  -8  -5   1  173.68   10.00
   8   5   1  180.78   11.40
  -5   8   1  182.18   10.80
   5  -8   1  179.48   11.30
   5  -8   1  180.98    9.00
   8   5   1  163.48   11.50
  -8  -5   1  182.68    8.80
   5  -8   1  167.78   10.10
  -8  -5   1  170.58   10.30
   8   3  -1  252.77   15.40
   3  -8  -1  275.47   13.10
  -3   8  -1  270.77   12.60
   8   3  -1  273.57   11.10
   3  -8  -1  280.17   13.40
  -3   8  -1  277.87   13.60
  -3   8  -1  270.37   12.10
   3  -8  -1  260.57   12.60
  -8  -3  -1  269.17   12.00
  -3   8  -1  280.77   14.00
   8   3  -1  271.57   15.30
   3  -8  -1  258.67   13.70
   3  -8  -1  275.37   12.70
  -8  -3  -1  275.87   10.90
  -8  -3  -1  268.07   11.30
  -8  -3  -1  268.57   13.20
   8   3  -1  271.87   13.50
  -8  -3  -1  289.47   11.30
   8   3  -1  264.87   13.50
   8   3   1  280.07   14.70
  -8  -3   1  275.87   10.90
  -8  -3   1  265.27   13.30
   3  -8   1  266.87   14.40
  -8  -3   1  293.97   11.00
   3  -8   1  252.87   13.00
  -3   8   1  279.77   13.40
   8   3   1  289.27   10.50
  -8  -3   1  280.27   13.70
  -8  -3   1  296.17   11.30
  -3   8   1  265.77   14.20
  -3   8   1  277.57   12.70
   3  -8   1  267.37   12.50
   8   3   1  258.57   14.90
   8   3   1  266.77   14.30
  -3   8   1  272.27   12.50
  -8  -3   1  285.17   13.50
   1  -8  -1  435.96   17.70
  -8  -1  -1  437.46   18.50
   1  -8  -1  467.55   18.30
   1  -8  -1  445.16   18.90
  -1   8  -1  448.16   20.00
  -1   8  -1  424.86   18.90
  -1   8  -1  437.76   18.50
   8   1  -1  407.66   20.80
   1  -8  -1  429.96   18.80
   1  -8  -1  445.96   18.30
   8   1  -1  434.86   17.30
   8   1  -1  428.36   18.70
   1  -8  -1  444.06   19.10
   8   1  -1  414.86   20.40
   8   1  -1  414.76   18.60
  -8  -1  -1  396.56   17.70
  -1   8  -1  434.76   17.80
  -1   8  -1  426.56   19.10
   1  -8   1  445.46   16.90
   8   1   1  423.56   20.30
   8   1   1  432.56   20.20
   1  -8   1  393.86   19.80
   8   1   1  428.86   19.80
  -1   8   1  422.26   18.90
  -8  -1   1  441.36   19.30
  -1   8   1  407.76   18.00
  -8  -1   1  446.36   17.10
   1  -8   1  443.56   18.60
   1  -8   1  421.86   16.90
  -1   8   1  411.66   19.90
   1  -8   1  417.96   18.30
  -1   8   1  428.16   17.70
  -1   8   1  407.76   16.50
   1  -8   1  401.16   18.20
  -1   8   1  448.56   16.90
   8   1   1  438.66   19.80
   1   8  -1  438.66   19.20
  -1  -8  -1  447.76   18.30
  -1  -8  -1  459.05   17.30
   8  -1  -1  434.96   20.80
  -1  -8  -1  447.96   19.00
   8  -1  -1  415.36   19.80
   8  -1  -1  411.46   17.90
  -1  -8  -1  452.45   18.60
  -8   1  -1  410.86   18.00
  -1  -8  -1  457.45   19.70
   1   8  -1  455.35   20.80
   1   8  -1  460.35   18.90
   1   8  -1  436.26   19.50
   1   8  -1  456.35   18.40
   8  -1  -1  433.36   19.00
  -8   1  -1  410.26   18.60
  -8   1   1  435.06   17.70
  -1  -8   1  420.86   20.20
  -1  -8   1  407.86   18.20
   8  -1   1  457.55   19.40
   1   8   1  422.86   17.40
  -8   1   1  445.06   19.90
  -8   1   1  464.15   18.70
   1   8   1  403.06   20.00
   1   8   1  442.26   18.30
   8  -1   1  445.26   20.00
   1   8   1  399.36   19.30
   1   8   1  399.06   17.50
  -1  -8   1  416.96   18.90
   1   8   1  428.76   19.30
  -1  -8   1  413.06   18.30
  -1  -8   1  428.06   17.70
   8  -1   1  427.66   20.30
   1   8   1  418.66   18.20
   3   8  -1  269.17   15.20
   3   8  -1  283.27   10.70
  -3  -8  -1  277.17   14.00
  -8   3  -1  269.77   13.80
  -3  -8  -1  292.87   12.40
  -3  -8  -1  290.67   10.90
   3   8  -1  291.27   13.90
  -3  -8  -1  271.27   13.40
  -8   3  -1  257.07   12.60
   8  -3  -1  277.57   13.40
   3   8  -1  300.27   13.20
   3   8  -1  279.77   13.60
   3   8  -1  275.77   11.60
   8  -3  -1  266.37   14.60
  -3  -8  -1  273.57   13.20
   8  -3  -1  258.67   12.70
  -8   3  -1  256.57   12.00
  -3  -8  -1  289.27   13.30
   3   8  -1  284.97   14.00
   3   8  -1  243.48   12.90
   8  -3   1  275.57   14.70
   3   8   1  263.27   13.90
   3   8   1  280.97   13.70
   8  -3   1  286.67   13.50
  -8   3   1  277.57   12.90
  -3  -8   1  275.47   14.60
  -3  -8   1  264.37   12.50
   3   8   1  273.37   12.50
   8  -3   1  279.27   13.40
   3   8   1  255.67   14.60
  -8   3   1  274.67   12.70
  -3  -8   1  263.27   12.60
   3   8   1  269.57   11.30
  -3  -8   1  273.17   13.60
   3   8   1  256.17   12.70
  -8   3   1  274.57   12.10
  -3  -8   1  256.47   12.90
   8  -3   1  277.37   13.10
   3   8   1  259.87   13.90
  -5  -8  -1  171.98   10.10
   5   8  -1  180.78   11.40
  -8   5  -1  181.08    8.50
  -5  -8  -1  177.68   10.10
  -8   5  -1  189.78    9.40
  -5  -8  -1  191.88    8.80
   5   8  -1  169.58   10.50
   5   8  -1  172.18   10.40
  -5  -8  -1  185.88   11.10
  -5  -8  -1  181.98    9.90
   8  -5  -1  178.48   10.20
   8  -5  -1  184.48    9.70
  -8   5  -1  188.58   10.00
   8  -5  -1  174.88   10.00
   5   8  -1  164.98   12.10
   5   8  -1  174.78   10.30
  -8   5  -1  184.28   10.80
  -8   5   1  174.28    9.60
   5   8   1  170.78   11.50
   5   8   1  182.98   11.50
   8  -5   1  169.48   10.10
   5   8   1  170.08   10.90
   5   8   1  184.78    9.30
   8  -5   1  188.48   11.80
  -5  -8   1  172.38   11.10
  -8   5   1  183.78    9.90
  -8   5   1  174.68    8.30
   8  -5   1  182.48    9.10
  -5  -8   1  177.58    9.70
  -5  -8   1  177.38   10.20
  -5  -8   1  183.38    9.90
   5   8   1  180.48   10.60
   8  -5   1  191.18   10.70
  -5  -8   1  186.38    9.60
  -8   7  -1  150.48   10.50
   7   8  -1  153.88   11.70
   8  -7  -1  156.18    9.70
  -7  -8  -1  153.88   10.60
   7   8  -1  152.98   12.70
   8  -7  -1  165.18    9.20
  -7  -8  -1  173.68   10.40
   8  -7  -1  155.08   10.40
   7   8  -1  164.18    9.60
  -8   7  -1  165.08    9.00
  -8   7  -1  160.98    8.90
  -7  -8  -1  182.28    8.50
  -8   7  -1  142.79    7.50
  -8   7  -1  160.38    9.70
   7   8  -1  175.38   10.80
  -8   7  -1  158.48    7.40
  -7  -8  -1  170.58    9.60
   7   8  -1  166.48   11.00
   8  -7  -1  156.68   11.20
  -8   7   1  175.58    8.00
  -8   7   1  164.18    9.60
  -7  -8   1  163.68    9.10
  -8   7   1  163.78   10.60
  -7  -8   1  146.09   10.50
  -7  -8   1  146.69    9.50
   7   8   1  150.98   11.30
   8  -7   1  169.88   11.80
  -8   7   1  172.08   10.00
   8  -7   1  169.58   10.30
   7   8   1  152.58   11.70
   8  -7   1  182.38   11.00
  -7  -8   1  173.88   10.00
  -8   7   1  160.98    7.80
   7   8   1  165.48   10.30
   7   8   1  159.38   11.50
  -8   7   1  175.18    9.00
  -8   7   1  178.38    7.30
  -8   9  -1  183.38    9.90
   8  -9  -1  163.88   11.70
  -9  -8  -1  187.48   11.70
  -9  -8  -1  197.38    9.30
   8  -9  -1  174.98    8.40
   9   8  -1  199.48   10.50
   9   8  -1  211.38   13.20
  -8   9  -1  175.88   11.50
  -8   9  -1  177.58   12.10
   8  -9  -1  166.38   10.20
   9   8  -1  182.28   12.10
   8  -9  -1  183.28    8.70
   9   8  -1  195.18   11.40
   8  -9  -1  164.58   13.10
  -8   9   1  186.78   12.00
   9   8   1  164.68   13.20
   9   8   1  178.98   10.90
  -9  -8   1  183.98   10.30
   8  -9   1  199.18    8.60
   8  -9   1  169.58   12.70
  -9  -8   1  171.78   11.10
   9   8   1  177.28   13.20
   8  -9   1  210.38   13.00
   9   8   1  181.88   10.60
  -8   9   1  165.08   11.60
  -8   9   1  190.98   11.10
   8  -9   1  195.28    9.00
  -9  -6  -1  111.89    8.60
   6  -9  -1  101.09    7.20
   9   6  -1   91.99    8.10
   9   6  -1  118.59    7.10
   9   6  -1   96.09    9.30
   6  -9  -1   92.99    8.90
  -9  -6  -1   95.89    7.90
   6  -9  -1  111.59    7.70
  -6   9  -1  109.89    6.80
   9   6  -1  123.79   11.00
  -6   9  -1  130.49    9.20
   6  -9  -1  118.49    7.50
  -9  -6  -1  113.99    6.80
  -6   9  -1  116.99    6.70
   6  -9  -1  125.89    8.60
   6  -9  -1  125.59    7.70
  -6   9  -1  114.29    8.20
   9   6  -1  111.79    8.70
  -9  -6  -1  120.39    6.40
   9   6  -1  123.19    6.70
   6  -9   1  106.89    7.90
   6  -9   1  112.39    9.20
   6  -9   1  101.69    8.30
  -9  -6   1  109.69    6.90
  -6   9   1  107.29    6.60
  -9  -6   1  118.59    7.60
   6  -9   1  108.09    7.70
   9   6   1  119.79   10.00
  -6   9   1  117.89    7.80
   9   6   1  118.69    7.30
  -6   9   1  109.19    8.60
  -6   9   1  121.99    8.30
  -9  -6   1  105.29    8.20
   9   6   1   99.79    9.40
  -9  -6   1  105.89    8.40
   6  -9   1   93.39    6.70
   9   6   1  106.39    6.70
   9   6   1   97.79    9.40
   9   4  -1  157.28    6.70
   9   4  -1  147.69   11.60
  -4   9  -1  155.98    8.60
  -9  -4  -1  156.58    7.60
  -4   9  -1  152.98    9.80
  -9  -4  -1  153.28    7.70
  -4   9  -1  160.78    8.10
  -9  -4  -1  155.18    9.50
   4  -9  -1  154.18    8.90
   4  -9  -1  166.68    9.80
   9   4  -1  142.19   11.00
   4  -9  -1  156.38   10.20
  -4   9  -1  166.78   10.00
   9   4  -1  156.18    9.90
  -9  -4  -1  152.18    7.90
   4  -9  -1  171.58    8.90
   9   4  -1  157.68   10.00
   4  -9  -1  162.28    9.20
   4  -9   1  159.08    9.70
  -9  -4   1  170.68    8.10
  -9  -4   1  158.18    9.80
  -4   9   1  150.78   10.20
   4  -9   1  160.48    8.90
   9   4   1  161.68   11.00
   9   4   1  166.28    6.80
   9   4   1  134.49   10.50
  -9  -4   1  155.58    9.50
   4  -9   1  139.49   10.20
  -4   9   1  153.38    8.50
   9   4   1  162.18   10.90
  -9  -4   1  157.48    9.30
  -4   9   1  159.58    8.90
  -4   9   1  164.38    9.70
  -9  -4   1  154.18    7.50
   9   2  -1  323.77   17.80
  -2   9  -1  303.37   14.50
  -2   9  -1  302.17   13.80
   2  -9  -1  311.17   14.20
   2  -9  -1  319.97   14.10
   2  -9  -1  286.47   15.10
  -2   9  -1  298.57   16.00
   9   2  -1  337.17   13.20
   9   2  -1  338.37   15.40
   2  -9  -1  300.67   14.00
  -2   9  -1  300.07   15.20
  -9  -2  -1  304.17   14.80
   2  -9  -1  294.77   14.90
   2  -9  -1  297.37   15.40
  -9  -2  -1  324.47   14.00
  -2   9  -1  290.67   15.20
   9   2  -1  304.77   17.10
   9   2  -1  329.17   15.50
   2  -9   1  328.77   15.00
   9   2   1  303.87   16.80
   2  -9   1  313.67   16.50
  -2   9   1  326.07   16.40
  -9  -2   1  296.67   15.10
  -9  -2   1  298.97   12.80
   2  -9   1  318.67   14.30
   9   2   1  308.27   16.40
  -2   9   1  330.37   14.20
  -9  -2   1  303.97   15.20
   9   2   1  305.27   16.30
   2  -9   1  314.27   14.60
  -2   9   1  336.57   15.90
   9   2   1  306.37   16.20
   2  -9   1  347.57   13.10
  -2   9   1  323.87   14.40
  -2   9   1  324.57   15.40
   0  -9  -1  738.43   31.10
   9   0  -1  798.12   33.60
   0   9  -1  755.62   33.40
  -9   0  -1  800.22   31.20
   0   9  -1  721.23   31.70
   0  -9  -1  740.03   31.50
   0  -9  -1  732.43   32.10
   9   0  -1  771.22   34.10
   9   0  -1  819.82   30.50
   0   9  -1  747.13   31.40
   0  -9  -1  739.63   29.80
  -9   0  -1  812.12   31.20
   0   9  -1  730.83   32.00
   0  -9  -1  789.22   31.10
   0   9  -1  741.53   30.40
  -9   0  -1  801.12   31.70
   0   9   1  828.52   32.40
   0   9   1  840.42   31.40
   9   0   1  731.43   33.00
  -9   0   1  716.23   32.20
   0   9   1  803.62   29.70
   0   9   1  796.12   30.10
   0  -9   1  852.01   30.50
   0  -9   1  801.52   33.50
   0  -9   1  790.12   31.20
   0  -9   1  781.42   29.80
   9   0   1  746.43   33.20
   0  -9   1  807.82   31.30
   0   9   1  805.32   30.20
   0   9   1  774.52   32.60
   0   9   1  800.22   33.40
   0  -9   1  815.72   31.80
  -9   0   1  753.12   29.80
   9   0   1  760.62   32.40
   9  -2  -1  306.57   16.70
  -2  -9  -1  329.07   15.40
  -2  -9  -1  300.07   15.80
  -2  -9  -1  320.17   15.40
   2   9  -1  313.47   15.10
   2   9  -1  301.37   17.10
  -2  -9  -1  302.37   14.70
   9  -2  -1  327.37   14.60
   2   9  -1  303.77   13.70
  -2  -9  -1  318.97   14.40
   9  -2  -1  340.97   16.20
   2   9  -1  308.97   12.70
  -9   2  -1  314.27   14.70
   2   9  -1  307.37   15.50
  -9   2  -1  325.87   14.40
   9  -2  -1  341.27   15.40
   2   9  -1  281.17   15.00
  -9   2  -1  326.47   16.20
   2   9  -1  321.77   14.80
  -2  -9  -1  311.67   13.00
   2   9   1  302.77   16.60
   9  -2   1  317.97   14.60
   2   9   1  343.47   14.80
   2   9   1  317.77   15.80
  -2  -9   1  325.47   15.10
   9  -2   1  308.27   15.80
   2   9   1  328.37   16.20
   2   9   1  331.07   13.50
   2   9   1  324.47   14.30
  -9   2   1  295.97   14.70
  -2  -9   1  326.57   16.90
  -2  -9   1  334.57   14.70
   9  -2   1  305.97   15.30
   9  -2   1  296.37   16.50
  -9   2   1  298.37   14.00
  -9   2   1  299.27   16.20
  -2  -9   1  345.77   14.30
   2   9   1  333.67   15.20
  -2  -9   1  342.97   15.70
  -4  -9  -1  164.88    9.40
   4   9  -1  156.08   10.20
   9  -4  -1  146.89    8.90
   4   9  -1  147.29    9.70
  -4  -9  -1  157.68    8.30
   4   9  -1  152.48    9.60
  -4  -9  -1  166.38    9.50
  -9   4  -1  154.38   10.00
  -9   4  -1  149.29    8.10
   4   9  -1  167.78    7.20
  -4  -9  -1  141.19    9.70
   9  -4  -1  155.68    9.60
   4   9  -1  147.59   11.40
   4   9  -1  152.28    9.40
  -9   4  -1  147.39    8.70
  -4  -9  -1  159.58    9.70
   4   9  -1  169.68    9.40
   4   9   1  156.38    6.90
   4   9   1  148.29    9.80
  -4  -9   1  151.18    8.70
   9  -4   1  158.88    9.10
   4   9   1  156.18   11.00
  -9   4   1  168.78    8.20
  -4  -9   1  144.29    9.30
  -9   4   1  167.78    9.30
  -4  -9   1  160.58    9.60
  -4  -9   1  144.99   10.10
   9  -4   1  156.28    9.30
   9  -4   1  160.68   10.70
   4   9   1  158.68   10.40
   4   9   1  164.18    8.90
   9  -4   1  161.38    9.70
  -9   4   1  148.39    8.80
  -4  -9   1  150.08    8.60
   4   9   1  145.79   10.00
   6   9  -1  125.59    9.10
  -6  -9  -1  105.99    8.60
   9  -6  -1  109.89    8.00
  -6  -9  -1  116.69    8.10
   6   9  -1  116.29    9.50
  -9   6  -1  112.59    6.30
  -9   6  -1  119.69    8.00
  -6  -9  -1  118.49    7.90
   6   9  -1  104.19    8.30
   9  -6  -1  122.89    8.60
   6   9  -1  121.19    8.90
  -6  -9  -1  102.09    8.50
  -9   6  -1  113.49    5.40
   6   9  -1  100.69   10.00
  -9   6  -1  110.99    7.40
  -6  -9  -1  118.79    6.80
  -9   6  -1  121.69    9.00
   9  -6  -1  108.39    7.70
  -9   6  -1  115.39    6.20
  -9   6   1  119.29    7.70
  -6  -9   1  116.89    7.80
  -9   6   1  121.39    8.20
  -9   6   1  111.99    5.50
  -9   6   1  117.09    6.10
   9  -6   1  115.99    9.10
  -6  -9   1  115.89    7.30
   6   9   1  107.79    9.70
  -6  -9   1  107.29    8.80
  -9   6   1  111.79    7.80
   6   9   1  112.29    8.80
   6   9   1  111.79    9.10
   9  -6   1  112.89    6.90
   9  -6   1  114.79    8.20
  -9   6   1  117.29    6.30
  -6  -9   1  108.69    8.40
   6   9   1  118.49    9.80
  -6  -9   1  122.39    8.30
   9  -6   1  125.69    9.90
  -9   8  -1  195.18   11.40
  -8  -9  -1  177.18   11.40
  -9   8  -1  204.58   10.50
   9  -8  -1  197.58   13.50
   8   9  -1  168.58   10.80
  -8  -9  -1  191.68    9.60
   8   9  -1  172.38   12.80
   8   9  -1  189.58   12.20
   9  -8  -1  199.58   12.10
   9  -8  -1  198.58   10.50
  -9   8  -1  191.88   12.20
   8   9  -1  181.48   13.40
   8   9   1  184.68   13.00
  -8  -9   1  198.38   11.50
   8   9   1  177.18   13.40
   8   9   1  199.38   13.60
  -9   8   1  178.28   11.80
   9  -8   1  173.98   12.20
  -9   8   1  174.58   11.40
  -9   8   1  179.98   10.90
   9  -8   1  147.19   12.30
   8   9   1  181.68   11.70
  -8  -9   1  193.58   10.50
 -10  -9  -1  127.19   11.10
   9 -10  -1  146.09   11.50
  10   9  -1  148.59   12.50
   9 -10  -1  154.38    9.40
  10   9  -1  132.69    9.80
   9 -10  -1  156.18   14.10
  10   9  -1  160.18   11.30
  10   9  -1  134.69   12.10
  -9  10  -1  162.18    9.40
  -9  10  -1  147.29   10.50
 -10  -9  -1  138.09    8.40
  -9  10  -1  140.89   10.00
  -9  10  -1  133.59   11.80
 -10  -9   1  151.18    9.50
 -10  -9   1  147.69   10.80
  10   9   1  158.08   14.30
  10   9   1  143.59   11.10
  -9  10   1  126.99   10.10
  10   9   1  161.18   11.30
   9 -10   1  122.49   11.60
  -9  10   1  146.19   11.40
  10   7  -1   75.09    9.10
  10   7  -1   81.89    8.50
 -10  -7  -1   84.19    7.50
   7 -10  -1   86.19    6.70
   7 -10  -1   82.49    7.90
   7 -10  -1   87.59    7.60
 -10  -7  -1   85.39    5.80
   7 -10  -1   98.39    8.40
  -7  10  -1   89.69    7.80
   7 -10  -1   84.59    9.00
  10   7  -1   80.69    6.10
  -7  10  -1   95.29    8.50
  10   7  -1   86.59    7.00
  -7  10  -1   83.09    6.30
   7 -10   1   86.39    8.60
   7 -10   1   66.89    8.40
  10   7   1   93.89    6.60
   7 -10   1   76.99    5.90
  -7  10   1   82.69    7.90
 -10  -7   1   88.09    7.10
  10   7   1   80.99    6.70
  -7  10   1   75.99    7.60
  10   7   1   80.19    9.00
  -7  10   1   86.19    7.20
 -10  -7   1   86.89    7.60
   7 -10   1   87.29    7.40
  10   7   1   81.19   10.00
   5 -10  -1  101.19    7.70
  -5  10  -1  106.49    7.00
  -5  10  -1  109.29    6.70
 -10  -5  -1  113.59    6.60
  -5  10  -1  114.69    8.80
  10   5  -1  116.49   10.90
   5 -10  -1  103.69    7.60
 -10  -5  -1  114.49    8.50
  10   5  -1  109.49   10.10
   5 -10  -1  109.19    7.40
   5 -10  -1  113.29    8.00
   5 -10  -1  110.79    8.40
  10   5  -1  119.99    9.20
   5 -10  -1  111.99    9.40
 -10  -5  -1  124.19    6.70
  -5  10  -1   98.89    8.20
  10   5  -1  115.69    9.60
  -5  10   1  112.09    9.00
 -10  -5   1  108.89    8.40
  -5  10   1  114.19    8.00
  -5  10   1  129.09    8.70
  10   5   1  109.19   10.00
 -10  -5   1  114.49    8.00
   5 -10   1  111.49    8.60
  10   5   1  103.19    9.90
 -10  -5   1  108.59    6.50
   5 -10   1  124.39    7.50
  10   5   1  101.49    9.40
   5 -10   1  112.09    9.30
  -5  10   1  107.39    6.90
 -10  -5   1  106.39    8.10
   3 -10  -1  152.48    8.80
 -10  -3  -1  149.39    7.30
   3 -10  -1  161.48    9.80
  10   3  -1  139.59   11.10
  -3  10  -1  167.78    8.40
  10   3  -1  156.08    7.30
 -10  -3  -1  146.69    9.60
 -10  -3  -1  159.68    7.60
   3 -10  -1  162.88    9.10
  -3  10  -1  170.58   10.90
  10   3  -1  154.48   10.10
  10   3  -1  158.58   10.40
   3 -10  -1  159.48    9.80
  -3  10  -1  153.08   10.20
  10   3  -1  154.48   11.90
   3 -10  -1  157.88   10.30
 -10  -3  -1  159.78    8.50
  -3  10  -1  161.18   10.20
 -10  -3  -1  152.98    7.10
  -3  10  -1  150.98    9.00
 -10  -3   1  154.68    9.80
  -3  10   1  158.98   10.10
 -10  -3   1  164.68    7.30
  -3  10   1  157.48   10.40
   3 -10   1  157.78    9.60
  -3  10   1  141.99   10.20
  -3  10   1  146.79    8.80
 -10  -3   1  161.18    7.00
   3 -10   1  159.58    9.40
 -10  -3   1  168.58    7.40
  -3  10   1  153.28    8.80
  10   3   1  169.38   11.20
   3 -10   1  143.89    7.30
  10   3   1  165.98   11.40
  10   3   1  152.78   11.40
 -10  -3   1  165.48   10.00
   3 -10   1  141.89   10.50
   1 -10  -1  522.85   23.30
  -1  10  -1  534.15   22.40
  10   1  -1  506.25   20.60
   1 -10  -1  544.35   22.80
  10   1  -1  448.26   24.60
  -1  10  -1  518.15   23.00
 -10  -1  -1  470.45   21.80
   1 -10  -1  533.85   21.10
 -10  -1  -1  481.05   21.40
  10   1  -1  494.05   24.60
 -10  -1  -1  476.05   22.50
  -1  10  -1  506.95   21.00
   1 -10  -1  526.65   22.80
  -1  10  -1  539.55   23.30
  -1  10  -1  525.75   24.30
   1 -10  -1  523.35   21.80
   1 -10  -1  548.65   21.90
   1 -10   1  432.46   23.60
  10   1   1  502.05   24.70
   1 -10   1  482.95   21.80
  -1  10   1  505.15   23.00
  10   1   1  532.25   24.60
  -1  10   1  493.75   21.80
   1 -10   1  514.65   22.00
  10   1   1  521.45   23.70
 -10  -1   1  535.95   23.30
   1 -10   1  489.25   20.20
  -1  10   1  502.45   23.40
  -1  10   1  531.85   21.30
   1 -10   1  520.35   19.50
   1 -10   1  501.95   22.20
 -10  -1   1  516.95   22.70
 -10  -1   1  520.55   20.40
  -1  10   1  475.05   23.90
   1  10  -1  536.45   22.60
  10  -1  -1  504.45   21.50
  10  -1  -1  506.95   22.90
  -1 -10  -1  512.45   23.50
 -10   1  -1  471.95   22.20
  10  -1  -1  461.65   24.30
  -1 -10  -1  548.35   20.70
   1  10  -1  515.55   23.20
  10  -1  -1  504.25   24.10
   1  10  -1  526.15   25.10
  -1 -10  -1  520.05   22.00
   1  10  -1  535.25   23.40
   1  10  -1  536.55   20.30
  -1 -10  -1  535.05   22.70
   1  10  -1  516.65   21.80
  -1 -10  -1  543.25   22.30
 -10   1  -1  503.55   21.90
 -10   1  -1  492.05   22.30
  -1 -10  -1  552.54   23.10
   1  10   1  476.25   20.80
  10  -1   1  538.15   23.40
 -10   1   1  519.35   21.20
   1  10   1  492.15   23.40
 -10   1   1  520.75   23.80
   1  10   1  506.45   20.70
  -1 -10   1  495.45   22.70
  10  -1   1  530.75   24.70
   1  10   1  502.65   22.00
  -1 -10   1  454.25   23.70
   1  10   1  522.65   21.60
 -10   1   1  535.05   22.60
  -1 -10   1  507.35   22.30
  -1 -10   1  504.45   21.00
  10  -1   1  544.55   24.50
   1  10   1  497.55   23.20
   1  10   1  466.95   24.10
  -1 -10   1  498.55   22.00
   3  10  -1  152.68    9.60
  10  -3  -1  158.78    9.30
   3  10  -1  166.28   10.40
 -10   3  -1  154.38   10.40
   3  10  -1  172.78    8.10
   3  10  -1  144.89   11.50
  -3 -10  -1  168.48   10.00
   3  10  -1  151.28   10.10
   3  10  -1  172.68    9.80
  -3 -10  -1  175.68   10.50
  10  -3  -1  161.78   10.00
  -3 -10  -1  163.08   10.70
   3  10  -1  169.58    7.20
  -3 -10  -1  174.28    9.20
 -10   3  -1  156.98    9.40
  10  -3  -1  153.18   10.80
 -10   3  -1  148.99    8.60
  -3 -10  -1  167.38    9.70
 -10   3   1  159.78    9.60
   3  10   1  147.89    7.60
   3  10   1  167.58   10.90
   3  10   1  158.88   10.70
  -3 -10   1  151.98    8.80
   3  10   1  152.98    9.80
  -3 -10   1  159.08   10.00
  -3 -10   1  150.98    9.50
  -3 -10   1  155.88    9.10
  10  -3   1  157.88   10.00
  10  -3   1  161.48   11.00
 -10   3   1  160.88    9.00
 -10   3   1  161.78    8.80
  -3 -10   1  145.59   10.70
   3  10   1  160.58    9.20
   3  10   1  147.79   11.20
 -10   5  -1  124.59    8.20
 -10   5  -1  106.09    9.30
 -10   5  -1  114.29    6.80
  -5 -10  -1  104.99    8.50
   5  10  -1  113.29    9.30
 -10   5  -1  125.69    8.00
  -5 -10  -1  112.29    8.20
  -5 -10  -1  117.89    8.90
  10  -5  -1  103.29    7.60
  -5 -10  -1  107.99    7.10
   5  10  -1  117.39    8.70
  -5 -10  -1  111.09    8.10
   5  10  -1   95.59    9.90
  10  -5  -1  123.59    8.80
   5  10  -1  116.59    8.70
   5  10  -1  102.79    8.80
  -5 -10   1  116.99    8.40
 -10   5   1  118.19    6.80
   5  10   1  111.89    8.90
 -10   5   1  114.39    8.40
   5  10   1  107.99    9.20
  -5 -10   1  123.79    7.90
  10  -5   1  115.29    7.50
 -10   5   1   90.79    7.40
  10  -5   1  105.19    8.00
   5  10   1  105.69    9.60
  10  -5   1  111.09    9.40
   5  10   1  110.39   10.00
  -5 -10   1  122.59    9.40
  -5 -10   1  122.99    7.70
  -5 -10   1  118.69    8.60
   7  10  -1   80.29    8.50
  -7 -10  -1   89.39    6.20
 -10   7  -1   80.79    8.40
 -10   7  -1   76.59    8.60
  10  -7  -1   76.19    8.30
 -10   7  -1   83.99    7.00
 -10   7  -1   83.19    5.60
  -7 -10  -1   83.99    6.90
  -7 -10  -1   78.99    9.00
 -10   7  -1   79.99    4.80
   7  10  -1   87.09    8.40
   7  10  -1   96.29    9.20
 -10   7  -1   76.59    6.90
  -7 -10  -1   93.89    7.80
   7  10  -1   88.69    8.10
 -10   7   1   94.19    6.60
 -10   7   1   95.99    8.10
 -10   7   1   89.09    5.00
  -7 -10   1   77.19    7.80
  10  -7   1   81.49    8.90
  -7 -10   1   76.39    6.80
  -7 -10   1   81.59    7.30
  -7 -10   1   80.19    7.20
 -10   7   1  100.19    7.10
 -10   7   1   88.89    5.70
 -10   7   1   82.69    7.80
 -10   7   1   90.89    7.30
   7  10   1   89.29    8.90
   7  10   1   83.89    9.40
   7  10   1   79.49    8.10
  10  -7   1   72.19    9.40
  10  -9  -1  105.99   12.20
 -10   9  -1  135.39    9.60
 -10   9  -1  119.09    9.70
   9  10  -1  147.39   10.30
   9  10  -1  139.49   12.30
 -10   9  -1  131.19    9.30
  10  -9  -1  120.99   11.00
 -10   9  -1  130.09   11.60
  -9 -10  -1  152.08    8.60
  -9 -10  -1  153.08   11.10
   9  10  -1  139.59   12.70
   9  10   1  130.39   10.90
  -9 -10   1  143.79    9.30
   9  10   1  129.79   13.40
  -9 -10   1  133.69   10.20
 -10   9   1  134.79   10.30
 -10   9   1  142.39   11.00
  10  -9   1  166.68   12.80
 -10  11  -1   91.29   12.00
 -11 -10  -1   81.19   10.70
  10 -11  -1   81.19   10.30
  11  10  -1   99.59    9.10
  11  10  -1   73.69   13.80
 -10  11  -1   83.99    9.20
  10 -11  -1   72.99   13.30
 -11 -10   1   94.99   10.30
  11  10   1   72.89    9.40
 -10  11   1  107.29   11.40
  11  10   1  119.49   15.00
 -10  11   1   88.79    9.80
 -11 -10   1   82.99    9.00
  10 -11   1   84.69   12.90
  11   8  -1  153.48   12.70
 -11  -8  -1  131.09   10.70
  -8  11  -1  127.39   11.50
  11   8  -1  128.69    8.40
   8 -11  -1  138.19    8.50
   8 -11  -1  115.49   12.70
   8 -11  -1  124.89    8.50
  11   8  -1  136.99    9.50
  11   8  -1  129.79   12.80
   8 -11  -1  124.49    9.00
 -11  -8  -1  157.88    8.40
  -8  11  -1  115.89    9.20
   8 -11  -1  121.69   11.10
  -8  11   1  144.19   11.50
   8 -11   1  136.39    8.20
  11   8   1  120.79    8.70
 -11  -8   1  133.49    9.00
 -11  -8   1  127.79   10.70
   8 -11   1  155.98    9.10
  11   8   1  121.09   13.70
   8 -11   1  126.19   12.70
  11   8   1  124.99    8.70
  -8  11   1  133.79   10.20
   6 -11  -1   93.49    7.40
  -6  11  -1   79.19    8.90
   6 -11  -1   81.19    9.70
 -11  -6  -1  105.89    6.30
  -6  11  -1   99.59    7.30
   6 -11  -1   72.79    7.30
  11   6  -1  101.69   10.50
 -11  -6  -1   99.49    8.50
   6 -11  -1   72.79    7.90
  -6  11  -1   85.79    8.20
  -6  11  -1   98.29    6.40
  -6  11   1   95.89    7.60
   6 -11   1   89.19    8.80
  11   6   1   81.49    9.80
   6 -11   1   94.19    8.40
   6 -11   1   90.29    8.60
  11   6   1  105.09   11.00
 -11  -6   1   79.99    7.50
 -11  -6   1   88.49    8.20
   6 -11   1   88.69    7.30
  -6  11   1   94.79    8.50
 -11  -4  -1   96.79    5.30
   4 -11  -1   94.99    8.70
  11   4  -1   76.99    9.00
 -11  -4  -1   83.69    4.80
 -11  -4  -1   90.99    6.20
   4 -11  -1   96.39    7.40
  11   4  -1   81.89    8.70
   4 -11  -1   75.99    6.30
   4 -11  -1   84.79    7.60
   4 -11  -1   86.59    7.50
 -11  -4  -1   85.39    5.50
  -4  11  -1   92.59    8.20
 -11  -4  -1   88.39    7.60
  -4  11  -1   88.99    6.20
  11   4  -1   72.69    8.60
  -4  11  -1   84.79    8.00
  -4  11  -1   83.99    6.50
  -4  11  -1   76.49    6.40
 -11  -4  -1   89.79    7.40
  -4  11  -1  104.79    8.80
   4 -11   1   85.69    7.00
 -11  -4   1   85.59    7.50
  -4  11   1   91.99    6.90
  -4  11   1   88.39    7.80
 -11  -4   1   83.29    7.30
   4 -11   1   85.09    7.60
 -11  -4   1   93.69    6.40
  11   4   1   96.29   10.00
  11   4   1   83.19    9.00
 -11  -4   1   92.49    4.60
  -4  11   1   78.29    6.20
   4 -11   1   74.79    7.80
  11   4   1   85.89    8.60
 -11  -4   1   82.39    5.10
  -4  11   1  100.89    8.90
 -11  -4   1   90.39    7.80
  -4  11   1   94.89    8.10
 -11  -2  -1  156.18    8.60
   2 -11  -1  128.59    8.00
  -2  11  -1  133.09    7.60
  11   2  -1  140.79   10.90
  -2  11  -1  139.59    9.80
  11   2  -1  138.79   11.60
  -2  11  -1  134.29    7.70
   2 -11  -1  110.99    9.20
  -2  11  -1  118.69   10.00
  -2  11  -1  125.29    8.60
   2 -11  -1  132.49    8.40
 -11  -2  -1  127.69    9.50
  11   2  -1  146.39    7.30
 -11  -2  -1  139.39    9.10
   2 -11  -1  132.29    9.50
   2 -11  -1  122.49    9.30
  -2  11  -1  138.19   10.10
 -11  -2   1  126.89    9.30
  -2  11   1  141.89    9.80
   2 -11   1  141.89    9.20
 -11  -2   1  136.89    7.10
  -2  11   1  146.19    8.20
 -11  -2   1  121.09    9.20
   2 -11   1  134.99   10.20
   2 -11   1  144.19    7.30
  11   2   1  130.09   10.80
  -2  11   1  144.39    8.70
  -2  11   1  126.39   10.10
  11   2   1  138.59   10.60
   2 -11   1  146.89    9.20
  -2  11   1  145.29   10.50
 -11   0  -1  221.38   11.90
   0 -11  -1  195.78   11.60
   0 -11  -1  210.08   12.40
  11   0  -1  213.78   10.50
   0  11  -1  196.68   12.50
  11   0  -1  201.78   13.70
   0  11  -1  196.68   12.30
   0  11  -1  206.08    9.80
   0  11  -1  213.58   11.80
   0  11  -1  207.28   13.50
   0  11  -1  195.28   10.70
  11   0  -1  197.78   13.30
   0 -11  -1  197.68   10.20
 -11   0  -1  205.48   12.00
   0 -11  -1  174.98   11.80
   0 -11  -1  203.08   11.10
   0 -11  -1  207.58   11.70
 -11   0  -1  220.68   11.60
  11   0   1  182.68   13.00
   0  11   1  220.58   10.40
 -11   0   1  194.28   11.70
   0 -11   1  212.28   11.80
   0  11   1  221.08   12.80
   0 -11   1  209.28   10.20
   0 -11   1  225.08   12.00
   0  11   1  226.88   11.50
   0 -11   1  203.48   13.30
   0  11   1  227.78   10.70
   0 -11   1  173.78   11.00
  11   0   1  188.78   12.90
  11   0   1  198.58   12.60
   0  11   1  212.98   13.50
   0 -11   1  241.48   10.50
 -11   0   1  182.98   12.20
   0  11   1  244.18   13.50
 -11   0   1  205.28   10.20
   2  11  -1  134.19   11.00
 -11   2  -1  157.38   10.80
 -11   2  -1  143.59    9.00
  -2 -11  -1  125.59    9.50
  11  -2  -1  144.49    9.60
   2  11  -1  136.19   10.10
   2  11  -1  135.19    9.90
  11  -2  -1  137.89    8.40
 -11   2  -1  148.89    9.20
   2  11  -1  141.39    7.00
  11  -2  -1  143.89   11.00
  -2 -11  -1  138.59    9.20
   2  11  -1  142.79    9.40
   2  11  -1  140.59    8.10
  -2 -11  -1  131.69    8.70
 -11   2  -1  151.08    9.90
   2  11  -1  149.69    9.30
  -2 -11  -1  136.49    8.70
  -2 -11  -1  126.09    9.90
  -2 -11   1  141.09    9.50
 -11   2   1  137.49   10.30
  -2 -11   1  147.89    8.30
   2  11   1  130.99   10.00
  11  -2   1  133.09    9.80
   2  11   1  134.99   10.40
  -2 -11   1  129.79   10.00
 -11   2   1  134.69    8.80
 -11   2   1  131.19    8.30
   2  11   1  149.69    7.60
 -11   2   1  146.19    9.70
  11  -2   1  121.59   10.10
   2  11   1  150.28    8.90
  -2 -11   1  111.29    8.30
   2  11   1  143.49    8.90
   2  11   1  139.59   10.80
  -2 -11   1  148.99    9.70
  11  -2   1  139.99    9.50
  -4 -11  -1  103.59    7.20
   4  11  -1  103.19    8.40
  -4 -11  -1   88.19    7.50
  -4 -11  -1   95.19    8.10
 -11   4  -1   94.69    7.50
  11  -4  -1   97.09    8.00
  -4 -11  -1   84.29    8.60
  -4 -11  -1   86.39    7.50
   4  11  -1   98.79    7.70
   4  11  -1   87.59    8.50
 -11   4  -1   83.99    8.30
  11  -4  -1   94.49    7.00
 -11   4  -1   85.19    6.50
   4  11  -1   93.39    5.60
  -4 -11   1   85.69    7.90
  -4 -11   1   97.09    8.40
   4  11   1   81.49    8.80
   4  11   1   78.79    7.60
  -4 -11   1   89.39    7.00
 -11   4   1   94.59    7.80
 -11   4   1   87.19    6.60
  11  -4   1   85.99    8.70
  -4 -11   1   84.49    6.90
  -4 -11   1   94.29    8.00
   4  11   1   93.09    8.80
   4  11   1  100.39    9.50
   4  11   1   83.09    5.20
 -11   4   1   84.99    7.10
  11  -4   1   99.69    7.80
  11  -6  -1   90.49    9.00
 -11   6  -1   99.09    9.00
  -6 -11  -1   97.09    9.60
 -11   6  -1   92.09    4.50
   6  11  -1   82.49    8.50
   6  11  -1   89.99    9.70
   6  11  -1   72.39    8.40
 -11   6  -1   95.59    6.90
 -11   6  -1  100.19    7.80
 -11   6  -1   98.29    5.60
 -11   6  -1   96.49    7.90
  -6 -11  -1   77.89    7.90
  -6 -11  -1   91.99    7.00
  -6 -11  -1   81.79    7.50
   6  11   1  101.39    9.90
  -6 -11   1   96.79    7.10
  11  -6   1   93.99    7.20
 -11   6   1   83.79    8.20
  -6 -11   1   89.99    8.80
 -11   6   1   86.99    7.60
  11  -6   1   68.79    8.70
   6  11   1   88.99    9.00
   6  11   1   93.99    9.20
 -11   6   1   94.09    6.70
 -11   6   1   92.09    7.80
  -6 -11   1   89.49    7.60
  -6 -11   1   85.69    7.80
   8  11  -1  114.19   10.60
   8  11  -1  105.99   12.50
   8  11  -1  116.79   11.10
 -11   8  -1  139.59    9.80
  -8 -11  -1  131.19    8.70
 -11   8  -1  129.09   11.60
 -11   8  -1  160.78   10.00
 -11   8  -1  143.89   10.00
  11  -8  -1  136.69   10.90
  -8 -11  -1  127.39   10.30
   8  11   1  129.49   11.90
 -11   8   1  123.69   10.90
  -8 -11   1  142.99   10.40
   8  11   1  134.09   13.40
  -8 -11   1  143.99    9.40
 -11   8   1  117.39   10.10
  11  -8   1  137.39   12.60
  10  11  -1   71.39    9.70
 -11  10  -1  102.09   11.80
 -10 -11  -1   76.09   10.40
  10  11  -1   66.09    9.70
 -11  10  -1   94.49    9.10
 -10 -11  -1   68.79    9.90
  11 -10  -1   97.79   10.30
 -11  10   1   64.99   11.10
 -10 -11   1   84.99    8.80
 -10 -11   1  101.79   10.00
  10  11   1   79.19   14.80
  10  11   1   83.29   10.90
  11 -10   1   92.79   14.40
 -11  10   1   77.69    9.20
  12   9  -1   52.19    6.80
  12   9  -1   39.00    7.30
 -12  -9  -1   27.00    6.10
  12   9  -1   26.20    8.50
   9 -12  -1   34.20    8.70
   9 -12  -1   33.90    6.60
  -9  12  -1   57.99    8.10
 -12  -9   1   25.20    5.50
  12   9   1   41.10    6.50
   9 -12   1   42.20    5.20
   9 -12   1   37.30    7.40
  12   9   1   36.70    9.50
  12   9   1   49.00    7.40
  -9  12   1   39.50    7.30
 -12  -9   1   46.20    7.80
  -9  12   1   31.90    5.80
  -7  12  -1   98.59    9.80
   7 -12  -1   68.49    8.90
 -12  -7  -1   76.59    8.70
  -7  12  -1   60.19    7.20
  12   7  -1   75.79   11.90
   7 -12  -1   68.89   10.50
   7 -12  -1   77.29    8.30
 -12  -7  -1   74.89    6.40
  12   7   1   73.49   11.70
 -12  -7   1   65.79    7.90
   7 -12   1   58.49   10.10
 -12  -7   1   71.39    8.30
  -7  12   1   86.39    8.00
   7 -12   1   71.49    7.10
  -7  12   1   56.49    9.80
 -12  -5  -1  122.89    7.70
   5 -12  -1  133.59   11.70
  12   5  -1   94.99   11.10
   5 -12  -1  116.59    9.80
   5 -12  -1  129.49   12.00
   5 -12  -1  130.59   10.40
 -12  -5  -1  107.39    9.90
  -5  12  -1  114.79   14.70
  -5  12  -1  115.89   10.30
   5 -12  -1  144.39    8.80
  -5  12  -1  122.09    8.40
  -5  12  -1  143.29    7.40
  12   5   1  124.49   12.40
  -5  12   1  124.39   10.30
 -12  -5   1  120.89   10.30
 -12  -5   1  119.69    9.50
  -5  12   1  131.59    9.00
   5 -12   1  115.39    9.10
   5 -12   1  107.39   10.10
  12   5   1  113.49   11.10
  -3  12  -1  123.99   10.10
  -3  12  -1  114.79    8.10
 -12  -3  -1  110.99    7.80
 -12  -3  -1  110.69    6.40
   3 -12  -1  119.29    8.20
 -12  -3  -1  107.99    9.00
  -3  12  -1  109.59   10.30
   3 -12  -1  112.29    7.70
 -12  -3  -1  122.19    7.10
  -3  12  -1  122.59    9.90
  -3  12  -1  111.59    7.50
  12   3  -1  111.39    6.40
  -3  12  -1  127.09    7.30
  12   3  -1  104.99   10.50
 -12  -3  -1  109.19    6.10
   3 -12  -1  112.39    9.10
 -12  -3  -1  114.89    9.80
 -12  -3  -1   99.49    6.00
   3 -12  -1  113.59    9.30
   3 -12  -1  124.09    9.90
   3 -12   1   97.69    6.50
 -12  -3   1  113.09    8.60
  -3  12   1  104.49    9.60
   3 -12   1  111.39    8.40
 -12  -3   1  121.79    6.50
 -12  -3   1  113.59    9.00
 -12  -3   1  109.39    9.30
 -12  -3   1  111.89    5.80
 -12  -3   1  124.49    6.80
  -3  12   1  103.39    7.70
  12   3   1  116.99   11.10
  12   3   1  119.59   10.60
  -3  12   1  116.39    7.90
  -3  12   1  100.39   10.40
   3 -12   1   95.39    9.00
   3 -12   1   98.29    8.70
  12   1  -1   96.89    6.30
  -1  12  -1  111.89    9.40
   1 -12  -1   91.09    6.40
   1 -12  -1  101.59    8.50
 -12  -1  -1   93.49    8.50
  12   1  -1   79.09    8.60
  -1  12  -1  114.29    9.90
   1 -12  -1  103.29    7.90
  12   1  -1   94.09    9.80
  -1  12  -1  103.59    9.40
 -12  -1  -1   96.59    7.90
 -12  -1  -1   89.59    7.70
   1 -12  -1   93.79    8.30
   1 -12  -1   96.29    8.70
  -1  12  -1  103.69    8.00
  -1  12  -1  102.59    6.60
  -1  12  -1   99.99    7.30
  -1  12   1   95.79    8.90
  -1  12   1   97.99    7.10
   1 -12   1   89.49    7.60
  -1  12   1   87.69    7.10
  -1  12   1   93.39    9.90
  12   1   1  106.09    9.00
   1 -12   1   95.79    6.50
  12   1   1   97.19    9.30
  12   1   1   95.99    9.30
   1 -12   1   91.09    8.30
 -12  -1   1  113.39    8.80
 -12  -1   1  110.09    9.40
 -12  -1   1  101.89    6.40
   1 -12   1   85.79    8.50
  12  -1  -1   87.19    8.60
 -12   1  -1   84.89    8.10
 -12   1  -1   97.89    8.50
   1  12  -1  106.79    8.40
   1  12  -1  116.69    7.50
 -12   1  -1  100.79    7.80
  -1 -12  -1   92.59    7.50
  12  -1  -1   90.59    6.60
  -1 -12  -1  101.39    7.90
   1  12  -1  112.29    8.00
   1  12  -1   93.89    9.10
   1  12  -1  103.99    6.20
 -12   1  -1   82.79    9.60
   1  12  -1   98.69    8.80
  -1 -12  -1  108.09    9.50
  12  -1  -1   88.29    9.00
  -1 -12  -1  103.69    8.40
  -1 -12  -1   93.49    8.60
  12  -1   1  103.79    8.60
   1  12   1  101.09    9.30
   1  12   1   94.59    7.60
  -1 -12   1  102.59    7.80
  -1 -12   1   89.79    8.40
  -1 -12   1  101.99    7.30
   1  12   1  110.59    9.70
  12  -1   1   93.89    8.90
  -1 -12   1  101.69    8.60
   1  12   1   93.69    7.50
 -12   1   1   94.29    8.80
  -1 -12   1   90.99    6.70
 -12   1   1  101.99    7.00
  12  -1   1  103.19    9.10
   1  12   1   96.69    6.80
 -12   1   1   96.09    9.50
 -12   1   1   90.09    8.10
   3  12  -1  128.79    9.20
   3  12  -1  108.69    6.20
  12  -3  -1   99.89    7.60
   3  12  -1  120.29    7.30
 -12   3  -1  111.99    8.00
   3  12  -1  118.59    9.80
  -3 -12  -1  106.39    8.90
 -12   3  -1  123.29    9.00
   3  12  -1  124.79    9.70
  12  -3  -1   93.19    9.20
  12  -3  -1  107.49    9.00
  -3 -12  -1  122.79   10.40
   3  12  -1  111.79    9.60
  -3 -12  -1  122.29    8.50
 -12   3  -1   96.89    9.80
  -3 -12  -1  113.59    8.50
 -12   3   1  117.79    8.30
   3  12   1  116.39    8.90
   3  12   1  139.99   11.00
   3  12   1  105.39    6.70
  -3 -12   1  110.69    9.10
   3  12   1  115.29    8.80
  -3 -12   1  111.29    9.40
  12  -3   1  115.59    9.40
 -12   3   1  118.99   10.40
 -12   3   1  118.09    8.50
  -3 -12   1  110.29    8.30
   3  12   1  109.19   10.40
 -12   3   1  116.39    9.60
  -3 -12   1  117.79    7.80
  12  -3   1  112.29    9.80
  -5 -12  -1  147.09   11.70
  12  -5  -1  104.99    9.80
 -12   5  -1  118.39    8.60
  -5 -12  -1  129.59    9.60
  -5 -12  -1  134.19    9.00
   5  12  -1  114.59   11.30
   5  12  -1  139.59   10.70
  -5 -12  -1  128.49    9.30
   5  12  -1  122.99   10.50
 -12   5  -1  122.09   11.10
 -12   5  -1  120.19    9.30
   5  12   1  122.89   12.40
  -5 -12   1  110.59    9.40
 -12   5   1  127.69   10.20
  -5 -12   1  113.69    8.80
   5  12   1  106.09   11.00
 -12   5   1  126.29    8.70
  12  -5   1  140.59   11.20
 -12   5   1  134.09    9.50
  12  -5   1  123.99    9.20
   5  12   1  112.39    9.90
  -5 -12   1  114.29    8.30
  -5 -12   1  123.89   10.50
 -12   7  -1   80.29   10.60
  12  -7  -1   76.39    9.30
   7  12  -1   72.19    9.60
 -12   7  -1   68.09    8.00
   7  12  -1   78.29   10.10
 -12   7  -1   74.89    7.40
   7  12  -1   70.29   11.90
  -7 -12  -1   81.89    7.40
 -12   7  -1   76.99    8.50
  -7 -12  -1   83.79    8.70
   7  12   1   70.69   12.10
  -7 -12   1   67.49    8.10
 -12   7   1   62.49   13.60
 -12   7   1   84.29    9.30
 -12   7   1   87.99    8.80
   7  12   1   70.59   10.80
 -12   7   1   75.29   12.40
  -7 -12   1   71.19    7.90
  12  -9  -1   26.80    6.60
 -12   9  -1   38.10    6.00
  -9 -12  -1   50.39    7.70
   9  12  -1   36.20    8.70
 -12   9  -1   40.60    7.90
   9  12  -1   53.69    9.60
  -9 -12  -1   43.20    6.90
  -9 -12   1   34.30    6.00
 -12   9   1   46.20    8.00
   9  12   1   28.50    7.90
  -9 -12   1   31.70    5.40
   9  12   1   46.50    8.00
 -12   9   1   56.59    8.70
   6 -13  -1   45.50    8.30
  -6  13  -1   64.69    7.30
   6 -13  -1   56.79    8.50
  -6  13  -1   57.09    9.40
 -13  -6  -1   68.69    9.40
 -13  -6  -1   69.59   11.30
   6 -13   1   55.89   10.30
 -13  -6   1   71.99    8.80
  -6  13   1   76.09    8.10
   6 -13   1   66.39    7.80
  -6  13   1   56.09    8.10
  13   6   1   52.19    9.20
 -13  -6   1   59.19    8.30
  -4  13  -1   70.39   10.10
 -13  -4  -1   64.49    8.30
   4 -13  -1   67.19   10.50
   4 -13  -1   76.19    7.90
  -4  13  -1   67.39    9.20
 -13  -4  -1  100.39   10.20
   4 -13  -1   80.49    8.20
  -4  13  -1   66.59    6.80
 -13  -4  -1   91.79    7.30
   4 -13  -1   61.39    9.00
  13   4   1   62.49    9.60
 -13  -4   1   67.19    8.30
 -13  -4   1   68.39    8.60
  -4  13   1   90.29   10.00
  13   4   1   73.19    9.10
  -4  13   1   67.59    7.90
   4 -13   1   71.79    8.80
   4 -13   1   78.49    8.70
 -13  -2  -1   86.19    6.30
  -2  13  -1   83.19    7.40
  -2  13  -1   93.09   10.50
   2 -13  -1   98.79    9.10
   2 -13  -1   65.79    7.60
 -13  -2  -1   95.69    8.10
 -13  -2  -1   92.69    8.90
  -2  13  -1   82.09    9.30
  -2  13  -1   84.69    6.90
 -13  -2  -1   86.69    9.00
   2 -13  -1   79.19    9.10
  13   2  -1   86.69    6.00
   2 -13  -1   80.09    7.50
  -2  13  -1   79.29    7.40
   2 -13  -1   70.19    6.40
 -13  -2   1   76.89    6.30
   2 -13   1   85.09    6.50
  -2  13   1   90.99    7.10
   2 -13   1   91.29    8.80
  -2  13   1   83.49   11.00
  13   2   1   70.89    9.30
  -2  13   1   93.89    9.60
  -2  13   1   87.19    7.40
 -13  -2   1   87.39    9.20
 -13  -2   1   81.39    8.60
   2 -13   1   96.69    8.70
   0  13  -1   79.49    6.10
   0  13  -1   66.49    7.60
 -13   0  -1   75.69    7.60
   0 -13  -1   82.39    7.90
 -13   0  -1   86.09    6.40
   0  13  -1   90.99    9.50
 -13   0  -1   73.49    8.70
   0 -13  -1   93.19    8.50
   0 -13  -1   66.19    8.70
  13   0  -1   79.59    6.30
   0  13  -1   76.29    7.40
   0  13  -1   62.59    9.10
   0  13   1   91.69    9.80
   0 -13   1   79.79    6.60
 -13   0   1   74.99    6.70
   0 -13   1   72.39    7.60
  13   0   1   60.69    8.20
 -13   0   1   70.29    9.60
 -13   0   1   74.99    8.70
   0  13   1   84.59    6.80
   0  13   1   80.29    7.10
 -13   0   1   75.19    8.70
   0  13   1   98.39   10.60
   0 -13   1   75.19    8.50
  -2 -13  -1   72.39    7.90
 -13   2  -1   90.69   10.10
  -2 -13  -1   81.69    9.90
  -2 -13  -1   72.19    7.90
 -13   2  -1   82.29    7.70
 -13   2  -1   76.39    8.50
  13  -2  -1   84.69    6.80
   2  13  -1   70.29    9.40
   2  13  -1   73.89    9.40
   2  13  -1   78.19    7.20
 -13   2  -1   95.49    7.30
   2  13  -1   87.29    8.20
   2  13  -1   93.59    8.80
  -2 -13  -1   71.19    8.50
   2  13  -1   81.29    5.80
 -13   2   1   93.19    8.60
   2  13   1   87.69   10.80
   2  13   1   95.99    8.30
  -2 -13   1   91.69    7.00
   2  13   1  100.79    8.60
 -13   2   1   80.19    8.30
 -13   2   1   93.99   10.30
   2  13   1   95.29    6.90
 -13   2   1   93.19    8.90
   2  13   1   86.39   10.50
  13  -2   1   78.59    8.60
 -13   2   1   79.09    7.50
  -2 -13   1   86.19    7.80
  -2 -13   1   83.69    8.90
  -2 -13   1  103.39    7.90
  -2 -13   1   82.79    9.60
 -13   4  -1   75.49    8.00
   4  13  -1   64.29   10.10
  -4 -13  -1   72.09    7.90
 -13   4  -1   58.99   10.30
 -13   4  -1   70.79    8.30
  13  -4  -1   69.59    8.30
  -4 -13  -1   75.89   10.90
  -4 -13  -1   75.29    7.60
 -13   4  -1   86.39    7.90
  -4 -13  -1   65.99    7.50
   4  13  -1   65.89    9.40
   4  13  -1   74.99    8.90
 -13   4   1   72.79    7.90
   4  13   1   70.89    8.50
  13  -4   1   75.49    8.40
 -13   4   1   73.19   10.90
  -4 -13   1   74.69    7.20
 -13   4   1   70.59    7.70
 -13   4   1   77.09    8.50
 -13   4   1   78.79    8.90
   4  13   1   70.59   11.10
  -4 -13   1   74.49    7.80
  -4 -13   1   72.59    8.00
   4  13   1   90.39   11.00
   6  13  -1   83.79   10.60
 -13   6  -1   70.39    7.80
 -13   6  -1   46.30   11.60
  -6 -13  -1   55.29    8.20
 -13   6  -1   79.49   10.90
 -13   6  -1   69.49    7.70
   6  13  -1   60.79   10.00
 -13   6  -1   63.99    9.00
  -6 -13  -1   53.59   17.10
  -6 -13  -1   56.99    7.80
   6  13  -1   86.59   11.50
  13  -6  -1   69.99    8.90
 -13   6   1   59.89    9.10
 -13   6   1   43.20    8.50
 -13   6   1   48.60    8.00
   6  13   1   93.69   12.20
  -6 -13   1   69.99   18.90
  -6 -13   1   61.59    7.90
 -13   6   1   71.59    9.90
  -6 -13   1   75.49    8.20
 -13   6   1   60.99    8.20
   6  13   1   60.59   11.10
  -5  14  -1  166.28   10.90
   5 -14  -1  129.79   12.30
  -5  14  -1  151.98   13.50
 -14  -5  -1  142.79   13.70
   5 -14  -1  156.88   15.70
 -14  -5  -1  147.89   12.70
  14   5   1  122.79   16.30
  -5  14   1  152.68   13.50
   5 -14   1  151.88   13.00
   5 -14   1  147.09   11.50
 -14  -5   1  155.28   12.40
 -14  -5   1  164.58   12.10
  -5  14   1  157.18   11.40
   3 -14  -1  111.99   10.70
 -14  -3  -1  103.69   11.60
  -3  14  -1   99.39    8.40
 -14  -3  -1   93.49   10.00
 -14  -3  -1   99.79   10.20
  -3  14  -1  108.19   11.40
   3 -14  -1   87.19   11.60
   3 -14  -1  109.89   10.00
   3 -14   1   96.69   10.10
  -3  14   1   87.39    8.70
   3 -14   1   91.29   10.30
 -14  -3   1   95.79   10.20
  -3  14   1  110.69   11.50
 -14  -3   1  122.39   10.70
 -14  -1  -1   34.60    5.90
   1 -14  -1   31.50    6.30
   1 -14  -1   27.90    5.70
  14   1  -1   37.90    5.50
 -14  -1  -1   45.60    6.60
  -1  14  -1   35.00    4.60
  -1  14  -1   29.00    5.60
  -1  14  -1   46.40    7.40
 -14  -1  -1   46.70    6.30
 -14  -1  -1   47.30    8.70
  -1  14  -1   41.10    7.60
 -14  -1   1   51.89    9.50
 -14  -1   1   49.00    6.70
  14   1   1   44.90    7.90
 -14  -1   1   52.19    7.50
  -1  14   1   51.09    9.50
  -1  14   1   55.09    9.10
   1 -14   1   41.70    6.50
  -1  14   1   39.40    6.70
   1 -14   1   62.29    8.10
 -14  -1   1   32.40    6.40
  -1  14   1   49.90    6.00
 -14   1  -1   41.70    6.80
 -14   1  -1   36.00    6.10
  -1 -14  -1   25.00    5.70
   1  14  -1   41.90    6.20
   1  14  -1   49.20    7.50
  14  -1  -1   49.70    5.00
   1  14  -1   36.00    6.70
 -14   1  -1   49.50    8.20
  -1 -14  -1   49.50    7.60
   1  14  -1   30.70    6.20
  -1 -14  -1   31.70    6.10
 -14   1  -1   54.39    6.70
   1  14  -1   35.70    7.60
   1  14  -1   40.80    5.70
 -14   1  -1   51.29    9.10
 -14   1   1   34.50    7.20
 -14   1   1   46.40    8.30
   1  14   1   41.60    8.50
  -1 -14   1   25.10    4.80
   1  14   1   35.80    6.60
  14  -1   1   32.10    6.20
   1  14   1   42.90    6.70
  -1 -14   1   46.60    7.20
 -14   1   1   40.70    6.80
 -14   1   1   35.30    6.20
 -14   1   1   32.50    6.00
  -3 -14  -1  117.99   12.20
 -14   3  -1   84.09    9.20
  -3 -14  -1   94.29    9.60
   3  14  -1  109.09   11.60
  -3 -14  -1   99.39    9.90
   3  14  -1  108.29   10.40
 -14   3  -1  119.39   12.70
  -3 -14  -1   90.09    9.80
 -14   3  -1   92.49    9.10
   3  14  -1  102.89   12.00
 -14   3  -1   88.99   10.10
 -14   3  -1   87.59   12.10
 -14   3   1  121.69   11.40
  -3 -14   1   85.59    8.00
  -3 -14   1  102.29   11.30
 -14   3   1  107.79    9.20
  -3 -14   1   89.49    8.50
 -14   3   1   97.89   12.70
 -14   3   1  112.89   10.80
   3  14   1   99.59   12.90
  -3 -14   1   86.29    9.90
 -14   3   1   99.19    9.80
  -3 -14   1  103.59    9.00
   5  14  -1  158.88   15.00
  -5 -14  -1  144.79   11.30
 -14   5  -1  139.49   12.50
 -14   5  -1  151.98   15.40
  14  -5  -1  125.49   11.30
   5  14  -1  159.18   14.60
  -5 -14  -1  145.39   25.50
  -5 -14  -1  153.18   11.50
 -14   5  -1  142.19   11.40
 -14   5  -1  133.89   14.00
  -5 -14  -1  159.28   11.70
   5  14  -1  156.18   13.10
   5  14   1  154.68   12.20
 -14   5   1  176.98   15.80
  14  -5   1  158.98   11.30
 -14   5   1  160.68   16.40
  -5 -14   1  139.59   11.00
 -14   5   1  175.38   12.90
 -14   5   1  151.18   13.30
  -5 -14   1  136.09   19.80
   5  14   1  143.59   15.40
   5  14   1  167.28   16.40
 -14   5   1  143.99   11.70
  -5 -14   1  130.29   10.80
 -15  -2  -1   38.00    6.80
   2 -15  -1   42.60    8.10
   2 -15  -1   30.80    6.70
  -2  15  -1   31.70    7.00
 -15  -2   1   38.00    7.30
   2 -15   1   25.70    6.00
  -2  15   1   39.10    7.90
 -15   0  -1   34.10    6.80
   0 -15  -1   34.80    6.30
   0  15  -1   25.90    7.10
 -15   0  -1   37.10    5.80
   0  15  -1   29.30    6.60
   0  15  -1   23.20   11.20
 -15   0  -1   15.30    7.90
 -15   0  -1   27.50    6.30
   0 -15  -1   34.60    7.20
   0  15  -1   33.40    5.20
 -15   0  -1   37.50   12.70
 -15   0   1   22.90    7.50
   0  15   1   24.50    5.50
 -15   0   1   30.00    6.20
   0  15   1   36.80    6.10
 -15   0   1   24.50    7.40
 -15   0   1   32.70    6.00
   0  15   1   45.40    8.10
   0  15   1   34.20   16.00
   0 -15   1   17.60    5.50
   0 -15   1   24.80    6.10
 -15   0   1   18.60    6.00
  -2 -15  -1   37.50    9.10
   2  15  -1   44.30    8.10
   2  15  -1   28.50    6.40
 -15   2  -1   45.20    7.30
 -15   2  -1   45.40    9.40
  -2 -15  -1   28.80    6.50
 -15   2   1   37.30    8.00
 -15   2   1   26.10    6.30
 -15   2   1   45.70    9.10
  -2 -15   1   32.60    7.40
   2  15   1   29.40    7.90
   0   0  -2 6742.03  244.08
   0   0  -2 7267.57  243.88
   0   0  -2 7223.78  243.98
   0   0   2 6665.73  243.78
   0   0   2 6694.73  244.58
   0   0   2 6735.03  243.68
  -1  -1  -2   11.40    1.40
  -1   1  -2    9.20    1.30
   1  -1  -2    9.20    1.60
   1  -1  -2    8.70    1.50
   1   1  -2    7.90    1.40
   1  -1  -2    9.90    1.00
  -1   1  -2    9.30    1.40
   1  -1  -2   10.30    1.30
  -1   1  -2    9.50    1.40
   1   1  -2    9.00    1.30
   1   1  -2   10.70    1.50
  -1  -1  -2    7.80    1.30
   1  -1  -2   10.70    1.50
   1   1  -2    8.10    1.40
  -1  -1  -2    7.80    1.20
   1   1  -2    9.40    1.50
   1   1  -2   10.20    1.70
  -1  -1  -2    9.60    1.40
  -1   1  -2    8.60    1.40
  -1  -1   2   11.20    1.30
   1   1   2   10.20    1.60
  -1   1   2    9.00    1.60
  -1  -1   2   10.30    1.30
  -1   1   2    8.60    1.00
  -1   1   2    8.80    1.30
  -1  -1   2    8.70    1.40
   1  -1   2   10.20    1.80
   1  -1   2   13.00    1.80
  -1   1   2    7.10    1.20
  -1   1   2    8.10    1.30
   1   1   2    9.10    1.30
   1   1   2   10.70    1.20
  -1  -1   2    8.70    1.30
  -1  -1   2   10.50    1.70
   1   1   2   10.90    1.50
   1  -1   2    9.10    1.30
   1   1   2    8.30    1.50
   1   1   2    8.80    1.40
   1   1   2    7.70    1.20
   1  -1   2   10.80    1.30
   1  -1   2    7.50    1.30
   1  -1   2   10.20    1.20
  -2   0  -2    0.90    0.90
   0   2  -2    1.80    0.80
  -2   0  -2    1.40    0.70
   0   2  -2    1.30    0.60
   0   2  -2    3.40    1.20
  -2   0  -2    1.70    0.70
   2   0  -2    2.10    0.60
   0  -2  -2    2.60    0.90
   2   0  -2    1.50    0.80
  -2   0  -2    1.90    0.60
  -2   0  -2    2.10    0.80
   2   0  -2    2.30    0.70
   0   2  -2    2.70    1.00
   0  -2  -2    2.50    0.90
   2   0  -2    1.50    0.80
   2   0  -2    1.90    1.10
   0  -2  -2    1.40    0.90
  -2   0   2    3.60    1.00
   0   2   2    1.40    0.60
   2   0   2    3.10    0.80
   0  -2   2    3.10    1.20
   0  -2   2    1.30    0.90
   2   0   2    1.80    0.90
   2   0   2    3.60    1.20
   0  -2   2   -0.30    1.30
   0   2   2    2.90    0.90
   0  -2   2    1.40    0.70
   0   2   2    2.40    1.00
   0  -2   2    2.60    1.00
  -2   0   2    3.40    0.80
   0   2   2    1.20    0.60
   0  -2   2    1.40    0.70
   2   0   2    2.30    0.80
   2   0   2    3.60    1.30
  -2   0   2    1.40    1.10
  -2   0   2    2.20    1.10
  -2   2  -2  946.81   36.60
  -2   2  -2 1057.29   35.30
  -2   2  -2  967.50   36.10
   2  -2  -2 1030.30   36.50
   2  -2  -2  938.61   36.80
  -2   2  -2  841.62   36.30
  -2  -2  -2  959.70   36.50
  -2  -2  -2  921.11   36.20
  -2  -2  -2  960.20   36.20
   2  -2  -2  999.00   35.20
  -2   2  -2  989.60   36.60
  -2   2  -2  991.70   36.00
  -2  -2  -2 1016.00   36.10
   2   2  -2  960.00   36.40
   2   2  -2  995.80   36.30
   2   2  -2 1003.50   36.00
   2   2  -2 1027.20   37.60
   2   2  -2  897.41   36.50
   2  -2  -2  992.10   36.60
   2   2  -2 1003.30   36.50
   2  -2   2  976.00   36.30
   2  -2   2 1021.10   35.50
   2  -2   2  951.50   36.10
   2  -2   2 1000.50   35.10
  -2  -2   2  984.50   37.70
  -2   2   2  994.50   37.00
   2  -2   2  984.30   37.30
   2   2   2  990.00   35.90
  -2  -2   2  994.70   36.50
  -2  -2   2  964.00   36.30
   2   2   2 1034.70   35.70
   2  -2   2  950.90   35.50
   2  -2   2  982.50   36.50
   2   2   2  968.10   36.80
  -2   2   2  937.91   36.20
  -2   2   2  986.80   36.00
  -2  -2   2  979.90   36.70
   2   2   2  950.10   36.80
  -2  -2   2  964.20   35.80
   2   2   2  974.60   37.00
  -2   2   2  983.50   35.80
   2   2   2  939.61   36.00
   1  -3  -2  208.08    8.50
   3   1  -2  197.78    8.60
   1  -3  -2  201.68    8.80
  -1   3  -2  204.48    8.90
   3   1  -2  201.48   10.20
  -3  -1  -2  209.48    8.80
   3   1  -2  190.28    8.90
   1  -3  -2  198.08    7.90
  -1   3  -2  195.08    9.10
  -3  -1  -2  204.88    8.30
   1  -3  -2  202.98    9.30
   3   1  -2  194.78    9.20
  -3  -1  -2  203.98    8.90
   1  -3  -2  192.88    9.10
   3   1  -2  165.68    8.50
  -1   3  -2  192.18    9.10
  -1   3  -2  193.18    8.90
   1  -3  -2  194.98    9.00
  -1   3  -2  212.78    8.80
  -3  -1  -2  194.28    8.50
  -3  -1  -2  193.28    9.00
  -3  -1   2  201.38    8.50
   3   1   2  194.48    9.60
  -3  -1   2  181.98    9.20
   1  -3   2  199.08    8.50
   1  -3   2  192.88    8.50
   1  -3   2  205.18    9.00
  -1   3   2  186.48    8.70
   1  -3   2  210.48    9.30
  -3  -1   2  202.28    8.50
   3   1   2  206.98    9.70
   3   1   2  192.88    9.00
   1  -3   2  212.08    8.90
   3   1   2  214.78    8.20
  -1   3   2  197.38    8.50
  -3  -1   2  189.68    8.40
  -3  -1   2  203.78    8.60
  -1   3   2  209.88    9.40
   3   1   2  189.58    8.50
   3   1   2  182.58    9.30
  -1   3   2  217.78    9.10
   1   3  -2  191.58    9.00
   1   3  -2  194.08    9.20
   3  -1  -2  189.28    8.30
  -1  -3  -2  199.88    8.50
   3  -1  -2  200.08    8.70
  -1  -3  -2  209.48    8.60
   3  -1  -2  204.18    9.00
  -1  -3  -2  210.78    8.80
   3  -1  -2  195.28    9.90
  -3   1  -2  195.38    9.00
  -1  -3  -2  192.88    9.10
  -3   1  -2  206.58    9.00
   1   3  -2  187.38    8.40
   1   3  -2  211.48    9.00
   1   3  -2  193.28    8.50
  -3   1  -2  206.78    8.20
   3  -1  -2  166.08    8.90
  -3   1  -2  197.48    8.20
   1   3  -2  216.18    9.70
  -3   1   2  198.08    8.20
   1   3   2  186.48    8.60
   3  -1   2  202.08    9.20
   1   3   2  210.88    8.50
  -1  -3   2  188.18    8.80
   1   3   2  196.48    9.30
  -1  -3   2  197.38    9.60
   3  -1   2  196.58    9.70
   3  -1   2  188.38    8.60
  -1  -3   2  197.68    9.30
  -3   1   2  202.98    9.70
   1   3   2  206.18    9.30
  -3   1   2  190.78    8.60
  -3   1   2  204.08    8.10
  -3   1   2  182.38    9.30
  -1  -3   2  200.58    8.30
   1   3   2  196.98    9.10
  -3   3  -2 1448.56   50.19
   3  -3  -2 1375.96   50.49
  -3   3  -2 1371.16   51.09
   3   3  -2 1414.26   52.49
  -3   3  -2 1350.46   49.80
   3  -3  -2 1375.26   50.49
  -3  -3  -2 1316.17   50.49
   3   3  -2 1414.06   49.70
  -3  -3  -2 1401.26   49.70
  -3  -3  -2 1362.16   50.29
  -3   3  -2 1410.66   49.60
   3   3  -2 1273.17   50.79
   3   3  -2 1339.37   49.70
   3   3  -2 1374.16   50.59
   3   3  -2 1375.66   50.09
  -3   3  -2 1354.66   50.79
   3  -3  -2 1346.77   51.09
  -3  -3  -2 1333.37   50.79
   3   3   2 1450.95   50.59
  -3   3   2 1364.76   49.90
  -3  -3   2 1315.57   50.39
   3  -3   2 1354.96   49.90
  -3  -3   2 1294.87   50.79
   3   3   2 1302.07   49.80
  -3   3   2 1408.86   49.80
   3  -3   2 1428.66   50.39
  -3   3   2 1420.86   50.89
   3  -3   2 1394.06   50.39
   3   3   2 1439.36   51.59
  -3  -3   2 1387.06   49.50
  -3  -3   2 1361.26   51.09
  -3   3   2 1351.66   50.39
   3  -3   2 1369.16   51.89
   3  -3   2 1362.76   49.99
   3   3   2 1355.76   50.99
   3   3   2 1351.66   51.49
  -3   3   2 1295.87   49.50
   3   3   2 1370.96   51.59
  -2   4  -2 1281.17   50.29
  -2   4  -2 1308.67   49.90
   4   2  -2 1319.07   49.70
  -4  -2  -2 1416.56   49.70
  -2   4  -2 1385.56   49.99
  -4  -2  -2 1335.27   49.70
   2  -4  -2 1362.76   50.79
   2  -4  -2 1342.17   50.89
  -4  -2  -2 1404.96   49.30
   2  -4  -2 1403.26   49.10
   2  -4  -2 1327.77   50.39
  -4  -2  -2 1353.36   50.49
   4   2  -2 1421.16   50.89
   4   2  -2 1374.66   52.39
  -2   4  -2 1332.17   50.49
   2  -4  -2 1420.06   49.30
  -4  -2  -2 1325.87   50.29
   2  -4  -2 1359.96   50.09
   4   2  -2 1419.76   49.80
   4   2  -2 1256.37   50.29
   4   2   2 1331.47   51.49
  -4  -2   2 1340.27   49.60
   4   2   2 1370.56   51.49
  -2   4   2 1306.87   49.70
   4   2   2 1315.07   51.19
  -4  -2   2 1368.36   49.30
   2  -4   2 1346.67   49.80
   2  -4   2 1344.07   49.80
  -2   4   2 1321.77   50.09
  -2   4   2 1407.56   49.99
  -2   4   2 1345.97   51.09
   2  -4   2 1346.17   49.90
   2  -4   2 1384.76   51.69
   4   2   2 1340.07   49.50
  -4  -2   2 1381.16   50.29
   4   2   2 1324.77   50.29
   4   2   2 1464.95   50.09
  -4  -2   2 1309.57   50.89
  -4  -2   2 1437.26   49.60
   2  -4   2 1389.16   49.99
   4   0  -2 2632.34   95.59
   0   4  -2 2669.33   93.89
   0   4  -2 2638.34   93.79
  -4   0  -2 2731.83   93.59
   0   4  -2 2664.13   94.09
   0  -4  -2 2446.06   93.89
   0  -4  -2 2607.84   94.09
   0   4  -2 2494.35   93.39
   4   0  -2 2535.65   94.19
   4   0  -2 2652.33   93.49
   0  -4  -2 2579.64   92.99
   0  -4  -2 2648.44   93.19
  -4   0  -2 2701.43   92.29
  -4   0  -2 2567.44   92.49
   0  -4  -2 2614.24   93.09
   0   4  -2 2693.03   94.19
  -4   0  -2 2488.85   93.09
   0   4  -2 2684.03   94.19
   4   0  -2 2497.75   93.19
   4   0  -2 2564.44   92.69
   0  -4  -2 2569.94   93.29
  -4   0  -2 2554.74   93.79
   4   0   2 2598.14   94.59
   0  -4   2 2559.94   92.79
   4   0   2 2501.35   93.09
  -4   0   2 2586.74   94.69
   0   4   2 2584.84   93.19
   0   4   2 2502.95   93.49
   4   0   2 2638.64   95.09
  -4   0   2 2622.64   92.59
  -4   0   2 2652.13   92.19
   0   4   2 2476.85   93.19
  -4   0   2 2572.84   92.29
   4   0   2 2669.73   94.59
   0  -4   2 2529.15   93.29
   0   4   2 2541.55   93.59
  -4   0   2 2533.35   92.99
   4   0   2 2531.05   93.09
   4   0   2 2705.83   92.39
   0  -4   2 2652.03   93.89
   0  -4   2 2726.63   94.99
   0   4   2 2556.34   93.99
   0  -4   2 2562.14   93.59
   4  -2  -2 1407.76   49.20
  -4   2  -2 1310.57   50.89
   4  -2  -2 1318.27   50.09
   2   4  -2 1378.36   50.59
  -4   2  -2 1424.96   49.10
   2   4  -2 1275.47   50.49
  -4   2  -2 1364.26   48.90
   4  -2  -2 1319.37   49.50
   2   4  -2 1343.07   51.69
  -4   2  -2 1372.66   50.39
  -2  -4  -2 1408.66   49.30
   2   4  -2 1465.15   50.19
   4  -2  -2 1313.17   50.69
  -2  -4  -2 1360.66   49.90
  -2  -4  -2 1346.87   49.99
  -2  -4  -2 1484.15   49.30
   2   4  -2 1270.67   49.60
   4  -2  -2 1391.76   51.99
   2   4  -2 1449.06   50.29
  -2  -4  -2 1349.47   50.59
  -4   2  -2 1427.56   48.70
  -2  -4   2 1309.57   50.19
   4  -2   2 1382.56   49.40
  -4   2   2 1376.16   48.80
   2   4   2 1374.86   49.50
   4  -2   2 1371.76   49.30
  -4   2   2 1337.37   48.90
  -4   2   2 1328.57   49.90
  -4   2   2 1150.78   48.50
  -2  -4   2 1350.56   50.59
  -4   2   2 1410.06   51.09
   2   4   2 1394.86   50.89
  -2  -4   2 1313.67   50.99
   4  -2   2 1334.17   49.90
  -2  -4   2 1367.06   49.00
   2   4   2 1302.67   50.79
   2   4   2 1330.47   49.60
   2   4   2 1382.16   50.69
   2   4   2 1329.47   50.79
   4  -2   2 1356.26   50.49
   4  -2   2 1365.06   51.79
   4   4  -2  345.57   14.50
  -4   4  -2  355.16   14.40
   4  -4  -2  358.56   15.10
   4   4  -2  334.07   15.20
   4  -4  -2  381.76   15.70
  -4   4  -2  358.56   14.20
  -4   4  -2  343.67   15.00
  -4   4  -2  338.97   15.40
   4  -4  -2  330.87   14.50
  -4  -4  -2  377.36   13.70
  -4  -4  -2  350.36   15.00
  -4  -4  -2  351.56   14.60
   4  -4  -2  372.76   13.80
   4  -4  -2  356.16   16.00
   4   4  -2  334.37   16.80
   4   4  -2  364.26   14.10
  -4   4  -2  337.57   14.00
  -4  -4  -2  357.06   15.30
   4   4  -2  345.77   14.80
  -4  -4   2  354.06   15.00
   4  -4   2  345.77   16.50
  -4  -4   2  336.27   15.20
  -4   4   2  352.96   14.10
   4   4   2  342.17   15.30
   4  -4   2  361.36   14.80
  -4  -4   2  347.27   15.60
   4   4   2  359.96   15.40
  -4   4   2  353.46   14.10
  -4   4   2  334.37   14.80
   4   4   2  347.17   16.10
  -4   4   2  337.17   14.10
   4  -4   2  348.77   14.00
   4   4   2  339.97   13.90
  -4   4   2  338.17   14.80
   4   4   2  332.67   13.50
   4  -4   2  302.67   14.20
   4   4   2  347.47   16.20
   4  -4   2  350.06   14.50
   3  -5  -2 1748.93   63.49
   5   3  -2 1695.43   62.79
  -5  -3  -2 1698.03   63.69
   3  -5  -2 1680.73   63.49
  -5  -3  -2 1720.43   63.99
  -3   5  -2 1699.93   63.99
  -5  -3  -2 1627.44   62.69
   3  -5  -2 1685.43   64.39
   5   3  -2 1759.72   66.39
   3  -5  -2 1784.22   62.49
   5   3  -2 1692.13   62.79
   5   3  -2 1761.82   62.49
  -5  -3  -2 1748.33   62.39
  -3   5  -2 1770.52   63.59
  -3   5  -2 1591.54   62.69
   5   3  -2 1667.83   63.79
  -3   5  -2 1789.72   63.39
  -5  -3  -2 1821.92   62.39
   3  -5  -2 1736.63   63.89
  -5  -3   2 1711.53   62.79
   3  -5   2 1741.43   62.79
  -5  -3   2 1749.92   61.89
   5   3   2 1669.53   65.09
   5   3   2 1733.53   62.29
   5   3   2 1668.53   64.69
  -5  -3   2 1730.93   63.99
   3  -5   2 1688.93   62.99
   3  -5   2 1758.32   65.59
  -3   5   2 1631.54   63.19
   5   3   2 1679.13   64.79
   5   3   2 1724.53   63.59
   3  -5   2 1784.72   62.49
   5   3   2 1827.32   63.99
  -5  -3   2 1728.83   64.19
  -3   5   2 1668.13   62.99
  -3   5   2 1762.82   62.59
  -3   5   2 1712.93   62.69
  -5  -3   2 1794.32   62.79
  -3   5   2 1681.43   64.49
   3  -5   2 1654.43   62.99
   5   1  -2  215.68    9.30
   1  -5  -2  215.08    9.40
  -1   5  -2  208.28   10.00
  -5  -1  -2  223.28    9.50
   1  -5  -2  218.98    9.50
  -5  -1  -2  224.98    8.50
   1  -5  -2  210.58   10.30
  -5  -1  -2  199.48   10.00
   1  -5  -2  217.98   10.20
  -1   5  -2  214.48   10.20
   1  -5  -2  203.68    9.90
   5   1  -2  206.48    9.00
   1  -5  -2  213.38    9.30
   5   1  -2  207.88    8.80
   5   1  -2  210.58    9.80
  -1   5  -2  196.78    9.90
  -1   5  -2  213.68   10.10
  -5  -1  -2  208.48    8.70
   5   1  -2  206.18   10.20
  -5  -1  -2  201.58    9.60
  -1   5  -2  208.18    9.80
   1  -5   2  202.28   10.80
   5   1   2  206.48    9.20
  -5  -1   2  211.38    8.50
  -1   5   2  196.58    9.50
  -5  -1   2  211.58   10.60
   1  -5   2  211.18    9.60
   1  -5   2  202.78    9.60
  -5  -1   2  208.48    9.00
   1  -5   2  210.58    9.70
  -5  -1   2  215.58    9.40
   1  -5   2  208.18    9.20
   1  -5   2  212.88    9.80
   5   1   2  201.38   10.80
   5   1   2  222.18    9.50
  -1   5   2  190.48    9.60
   5   1   2  218.28   11.20
   5   1   2  207.18    9.20
  -5  -1   2  229.98    8.60
  -1   5   2  210.38    9.40
   5   1   2  207.28   10.90
  -1   5   2  191.28   10.20
  -1   5   2  219.38    9.50
   5  -1  -2  201.88    9.50
   5  -1  -2  207.38    8.40
   5  -1  -2  204.58   11.30
  -1  -5  -2  209.48    9.60
   1   5  -2  219.78   10.10
   1   5  -2  199.98    9.50
   1   5  -2  189.08    9.90
   5  -1  -2  207.18    8.30
  -1  -5  -2  199.88   10.00
  -5   1  -2  221.08    8.10
   1   5  -2  214.68    9.70
   5  -1  -2  207.68   10.40
  -5   1  -2  209.68    9.10
  -5   1  -2  200.08    9.80
  -5   1  -2  217.58    8.10
  -1  -5  -2  222.78    9.10
   1   5  -2  199.78   10.70
  -1  -5  -2  210.98    9.50
  -1  -5  -2  199.38   10.00
  -1  -5  -2  202.18    9.20
   5  -1  -2  207.38    9.20
   1   5  -2  210.18   10.20
  -1  -5  -2  214.18    9.10
   1   5   2  203.08   10.40
  -1  -5   2  207.28    8.80
   1   5   2  211.88   10.30
  -1  -5   2  212.38   10.20
  -1  -5   2  204.78    9.70
  -5   1   2  199.28   10.60
   1   5   2  201.28    9.30
  -5   1   2  203.58    9.30
  -1  -5   2  209.78    9.00
   5  -1   2  209.68    8.60
  -1  -5   2  200.38   10.60
  -1  -5   2  217.88   10.50
  -1  -5   2  200.88    9.50
   5  -1   2  210.18    8.50
   1   5   2  218.08   10.00
   1   5   2  218.98    9.50
   5  -1   2  213.48    9.50
   1   5   2  207.08   10.20
   5  -1   2  227.58    8.80
   5  -1   2  213.48   10.50
   5  -1   2  208.88    8.90
   5  -1   2  202.08   11.10
  -3  -5  -2 1729.03   63.59
   5  -3  -2 1732.83   61.39
   5  -3  -2 1688.63   61.79
  -5   3  -2 1654.33   62.89
   3   5  -2 1841.22   62.89
   5  -3  -2 1641.34   62.99
   5  -3  -2 1798.92   61.69
   3   5  -2 1684.73   63.19
  -5   3  -2 1633.84   61.29
   5  -3  -2 1700.73   63.69
   3   5  -2 1761.92   62.29
   5  -3  -2 1676.53   64.99
  -3  -5  -2 1767.72   61.49
   3   5  -2 1573.24   63.29
   5  -3  -2 1753.22   61.49
  -5   3  -2 1715.63   63.99
  -5   3  -2 1792.52   61.69
  -3  -5  -2 1672.93   61.49
  -5   3  -2 1780.82   61.49
  -3  -5  -2 1665.13   62.69
   3   5  -2 1597.64   62.49
   3   5  -2 1759.02   65.49
   5  -3   2 1697.83   61.39
   5  -3   2 1804.32   63.29
  -3  -5   2 1664.83   62.69
   3   5   2 1819.82   62.29
   3   5   2 1685.83   63.99
  -5   3   2 1630.84   61.29
   3   5   2 1766.32   63.99
  -5   3   2 1732.23   61.19
  -5   3   2 1709.43   63.59
   3   5   2 1654.13   63.99
   5  -3   2 1737.13   62.79
   3   5   2 1661.13   63.59
   5  -3   2 1649.23   64.89
   5  -3   2 1724.93   61.99
  -3  -5   2 1716.93   61.19
  -5   3   2 1689.13   62.79
   3   5   2 1673.03   61.99
   5  -3   2 1733.93   62.49
  -5   3   2 1748.03   61.99
  -3  -5   2 1661.73   64.19
  -3  -5   2 1666.83   62.99
  -3  -5   2 1679.53   63.39
   5  -5  -2 2122.39   77.89
   5  -5  -2 2197.98   76.29
   5  -5  -2 2078.49   76.59
   5   5  -2 2038.90   76.89
  -5  -5  -2 2087.09   77.79
  -5   5  -2 2183.38   76.69
  -5  -5  -2 2065.29   76.89
  -5   5  -2 1973.00   75.89
   5   5  -2 2078.49   77.19
  -5   5  -2 2115.59   78.19
   5  -5  -2 1934.71   78.69
   5   5  -2 2045.20   77.89
   5  -5  -2 2077.09   77.49
  -5  -5  -2 2191.08   75.19
  -5   5  -2 2079.39   77.29
  -5   5  -2 2212.78   76.59
   5  -5  -2 2182.38   76.29
   5   5  -2 2087.99   80.59
   5   5  -2 2180.48   75.79
  -5  -5  -2 2205.08   74.99
   5  -5   2 2341.67   76.69
  -5   5   2 2008.80   77.19
   5  -5   2 2116.99   75.79
   5  -5   2 2071.19   77.09
   5  -5   2 2051.49   79.69
   5   5   2 2061.49   77.79
  -5   5   2 2077.99   76.59
   5  -5   2 2164.28   76.99
   5  -5   2 2092.39   77.09
  -5   5   2 2101.99   76.09
  -5   5   2 2292.97   77.09
   5   5   2 2045.90   79.19
   5   5   2 2069.79   75.59
  -5   5   2 1980.50   75.89
  -5  -5   2 2140.79   77.49
   5   5   2 2121.59   78.39
  -5  -5   2 2095.89   77.49
   5   5   2 1939.21   78.69
  -5  -5   2 2019.90   77.39
  -5  -5   2 2079.39   78.49
   4  -6  -2  127.79    7.80
  -6  -4  -2  131.69    7.80
   4  -6  -2  130.29    7.30
  -4   6  -2  130.39    7.90
  -4   6  -2  120.59    6.70
  -4   6  -2  132.09    7.40
  -6  -4  -2  130.69    6.90
   6   4  -2  129.29    6.90
   6   4  -2  119.89    7.10
   4  -6  -2  134.69    6.90
   4  -6  -2  120.69    8.10
  -6  -4  -2  146.79    6.20
   6   4  -2  123.09    7.80
   4  -6  -2  128.49    7.40
   6   4  -2  124.29    9.40
   6   4  -2  138.39    6.20
  -6  -4  -2  128.79    7.80
  -4   6  -2  129.69    7.40
  -4   6   2  126.79    7.10
   6   4   2  132.19    8.10
  -6  -4   2  129.79    7.80
   4  -6   2  145.79    6.40
  -6  -4   2  131.69    8.00
   6   4   2  125.79    8.50
  -4   6   2  125.39    8.20
   4  -6   2  130.09    8.90
   6   4   2  126.59    6.10
   4  -6   2  131.29    7.20
   4  -6   2  129.69    6.70
   4  -6   2  122.39    7.10
  -4   6   2  125.79    6.60
  -4   6   2  117.99    7.20
  -6  -4   2  122.69    7.20
  -6  -4   2  125.09    6.90
   6   4   2  122.69    7.20
   6   4   2  122.89    8.60
  -4   6   2  131.29    6.40
   6   2  -2  877.91   32.10
  -6  -2  -2  902.41   32.20
   6   2  -2  834.72   32.20
  -2   6  -2  836.02   33.00
  -6  -2  -2  866.51   33.20
  -6  -2  -2  811.12   31.70
   6   2  -2  836.62   33.30
   2  -6  -2  806.62   33.40
   2  -6  -2  833.52   32.00
   6   2  -2  858.71   31.60
  -2   6  -2  836.82   33.40
  -6  -2  -2  849.02   33.50
  -6  -2  -2  900.91   31.50
  -2   6  -2  861.01   33.20
   6   2  -2  823.82   35.80
   2  -6  -2  857.71   32.50
   2  -6  -2  866.01   32.80
   2  -6  -2  849.22   33.70
   6   2  -2  869.21   32.10
   2  -6  -2  805.82   33.30
  -2   6  -2  829.12   33.40
   2  -6   2  831.02   32.70
   2  -6   2  859.01   32.70
  -2   6   2  840.52   32.80
   2  -6   2  848.82   34.90
  -6  -2   2  874.31   31.80
  -6  -2   2  897.91   31.70
   6   2   2  910.81   33.40
  -2   6   2  835.92   34.10
  -2   6   2  847.62   32.40
  -2   6   2  838.12   33.00
  -6  -2   2  833.22   31.50
  -6  -2   2  837.12   34.00
   6   2   2  826.42   31.40
   6   2   2  875.41   32.00
   6   2   2  842.62   34.90
   2  -6   2  876.81   32.00
   2  -6   2  865.61   32.40
  -2   6   2  933.91   32.10
   6   2   2  830.02   34.60
  -6  -2   2  853.61   32.90
   6   2   2  799.22   34.40
   6   0  -2 2357.06   84.59
   0  -6  -2 2289.77   84.99
   0   6  -2 2297.07   85.39
   0  -6  -2 2343.47   85.69
  -6   0  -2 2203.88   84.49
   0  -6  -2 2337.67   84.99
   0  -6  -2 2436.76   83.59
   0   6  -2 2329.17   86.39
  -6   0  -2 2379.96   84.79
   0   6  -2 2259.17   85.09
   0   6  -2 2413.86   85.39
   6   0  -2 2165.38   87.39
  -6   0  -2 2233.78   85.19
   6   0  -2 2261.57   85.79
   6   0  -2 2373.46   84.89
   0  -6  -2 2424.36   84.39
   0  -6  -2 2223.48   85.39
   0  -6  -2 2399.96   84.79
   0   6  -2 2295.57   85.59
   0   6  -2 2260.17   85.09
   0  -6   2 2358.96   83.99
   6   0   2 2356.06   86.69
   0  -6   2 2454.45   85.49
   0  -6   2 2386.86   84.99
  -6   0   2 2343.87   84.29
   0   6   2 2230.88   85.39
   0  -6   2 2230.78   84.69
   0  -6   2 2395.46   83.49
   0   6   2 2423.56   84.79
   0  -6   2 2306.97   86.89
   6   0   2 2348.47   83.19
   6   0   2 2274.77   82.89
   6   0   2 2402.06   87.39
   6   0   2 2397.46   84.49
   6   0   2 2480.85   84.59
   0   6   2 2317.87   86.19
   0   6   2 2290.07   84.59
  -6   0   2 2292.77   86.49
   0   6   2 2294.37   84.59
   0   6   2 2325.67   86.19
   0  -6   2 2429.36   85.59
  -2  -6  -2  832.42   33.50
  -6   2  -2  846.62   32.20
  -2  -6  -2  880.61   33.30
  -6   2  -2  834.32   33.40
   6  -2  -2  870.81   32.40
   2   6  -2  875.21   33.80
   6  -2  -2  886.81   34.20
   6  -2  -2  917.11   32.40
   2   6  -2  819.92   33.20
  -2  -6  -2  861.11   33.90
  -2  -6  -2  888.21   32.60
   2   6  -2  887.31   33.10
   2   6  -2  887.91   33.70
   6  -2  -2  832.32   33.30
   6  -2  -2  797.12   35.30
  -2  -6  -2  916.01   32.00
   2   6  -2  891.61   35.70
  -2  -6  -2  849.81   33.90
   2   6  -2  860.51   33.90
   6  -2   2  862.61   34.10
  -6   2   2  843.92   32.90
   2   6   2  878.01   34.60
   2   6   2  816.32   32.40
  -2  -6   2  828.52   34.70
   6  -2   2  833.92   35.40
  -2  -6   2  855.71   31.70
  -2  -6   2  863.21   33.20
   6  -2   2  860.41   31.10
   6  -2   2  877.71   31.00
  -6   2   2  860.91   32.10
   6  -2   2  875.41   33.00
   6  -2   2  867.81   32.80
   2   6   2  839.42   34.40
   2   6   2  910.61   34.10
  -2  -6   2  848.02   34.00
  -2  -6   2  893.41   32.70
  -2  -6   2  820.82   33.10
   2   6   2  849.52   34.20
   2   6   2  873.61   32.80
   6  -4  -2  134.19    6.00
   6  -4  -2  125.89    7.40
   6  -4  -2  135.59    6.80
  -4  -6  -2  138.09    6.30
   4   6  -2  125.49    7.50
  -6   4  -2  131.99    5.90
  -6   4  -2  130.79    6.70
   4   6  -2  121.99    7.10
  -4  -6  -2  132.29    8.00
   4   6  -2  127.89    9.40
  -6   4  -2  132.99    6.40
  -4  -6  -2  136.39    5.70
   4   6  -2  130.19    7.80
  -4  -6  -2  134.09    7.30
   6  -4  -2  136.39    7.90
   4   6  -2  134.39    6.50
   6  -4  -2  131.19    5.70
  -6   4  -2  123.79    7.40
  -6   4  -2  120.29    7.90
  -4  -6  -2  129.99    7.90
  -4  -6   2  126.39    7.20
  -4  -6   2  123.99    7.70
  -6   4   2  130.99    6.80
   6  -4   2  124.19    7.30
   6  -4   2  134.89    7.30
   6  -4   2  131.69    5.70
   4   6   2  126.79    8.20
  -6   4   2  121.19    7.20
   6  -4   2  124.79    6.20
   4   6   2  130.09    8.50
   6  -4   2  129.79    7.20
   4   6   2  131.79    8.10
   4   6   2  131.69    6.30
  -4  -6   2  124.29    8.30
  -6   4   2  124.89    6.00
  -4  -6   2  121.29    7.20
   6  -4   2  127.19    8.90
  -6   4   2  136.49    6.10
  -6   4   2  137.69    7.90
   4   6   2  129.89    8.50
  -6   6  -2    5.80    2.30
   6   6  -2    9.40    1.50
   6  -6  -2    7.00    2.40
  -6   6  -2   12.30    3.20
  -6  -6  -2    9.40    2.50
  -6  -6  -2    8.60    1.40
  -6   6  -2    4.80    2.20
  -6  -6  -2    6.40    2.20
   6   6  -2    4.70    2.20
   6   6  -2    6.70    1.90
   6  -6  -2    4.70    1.50
  -6   6  -2    8.20    1.80
   6  -6  -2    7.70    2.50
   6  -6  -2    8.20    2.10
   6   6  -2    4.70    3.20
   6  -6  -2    6.40    2.40
  -6   6  -2    6.50    1.90
   6   6  -2    6.60    2.20
   6  -6  -2    9.90    2.30
   6  -6   2    4.10    2.60
  -6  -6   2    5.00    2.20
  -6  -6   2    9.80    2.50
   6   6   2    6.80    2.50
  -6  -6   2    7.20    2.20
   6   6   2    7.60    1.30
  -6   6   2    8.90    2.40
   6  -6   2    6.60    2.00
   6  -6   2   10.30    2.20
   6   6   2   10.70    3.40
   6  -6   2    5.50    2.00
   6   6   2    7.20    2.60
  -6   6   2    5.40    2.00
   6   6   2    4.70    2.50
   6  -6   2    7.90    1.60
  -6   6   2    7.60    1.90
   6  -6   2   11.00    2.40
  -6  -6   2    6.90    2.20
  -6   6   2    7.20    3.00
   5  -7  -2  343.67   17.80
   5  -7  -2  347.47   15.90
   5  -7  -2  364.26   15.40
   7   5  -2  387.46   14.20
  -5   7  -2  351.36   16.90
  -7  -5  -2  360.76   13.90
   7   5  -2  359.86   17.10
  -5   7  -2  352.06   15.60
  -7  -5  -2  356.46   16.80
   5  -7  -2  367.56   15.90
   7   5  -2  355.06   16.20
   5  -7  -2  395.36   16.90
  -5   7  -2  366.26   16.10
  -5   7  -2  374.66   16.40
   5  -7  -2  365.46   16.40
   7   5  -2  354.26   16.10
   7   5  -2  340.37   19.40
   7   5  -2  351.76   15.40
  -7  -5  -2  348.87   15.60
  -5   7   2  368.66   16.10
   5  -7   2  367.46   15.30
   7   5   2  344.97   16.10
  -5   7   2  382.46   14.40
  -5   7   2  352.96   16.30
   7   5   2  360.66   14.20
   5  -7   2  387.86   14.20
  -7  -5   2  342.97   15.90
  -5   7   2  344.77   15.30
   7   5   2  369.56   15.30
  -5   7   2  364.56   17.80
   5  -7   2  345.67   16.30
   7   5   2  358.26   17.60
   5  -7   2  367.16   16.10
  -7  -5   2  362.66   16.70
   7   5   2  331.57   17.90
  -7  -5   2  346.67   17.20
  -7  -5   2  351.36   16.60
   5  -7   2  357.46   18.40
   7   5   2  349.67   18.70
   7   3  -2  488.65   21.90
   7   3  -2  497.35   19.80
  -7  -3  -2  499.25   22.10
  -7  -3  -2  501.25   20.40
   3  -7  -2  512.15   22.70
  -7  -3  -2  560.14   20.20
  -3   7  -2  513.95   21.90
   7   3  -2  540.55   20.10
  -3   7  -2  522.85   21.40
  -7  -3  -2  522.95   19.90
   7   3  -2  495.95   21.00
  -3   7  -2  504.25   21.20
   7   3  -2  497.25   24.40
  -3   7  -2  515.05   22.20
   3  -7  -2  527.15   21.10
   3  -7  -2  515.15   21.20
   3  -7  -2  523.55   21.80
  -7  -3  -2  496.45   21.60
   3  -7  -2  516.45   21.90
   7   3   2  509.75   22.20
   7   3   2  509.35   19.80
   3  -7   2  485.35   23.20
  -3   7   2  505.25   21.40
  -3   7   2  544.55   19.70
  -3   7   2  502.15   20.80
   7   3   2  519.65   23.40
  -3   7   2  485.15   22.50
   3  -7   2  524.45   21.40
  -7  -3   2  509.65   21.80
  -7  -3   2  501.35   20.10
   3  -7   2  502.85   20.80
   7   3   2  517.65   20.70
   7   3   2  522.65   20.00
  -7  -3   2  522.75   19.70
   7   3   2  494.25   23.10
  -3   7   2  509.15   21.30
  -7  -3   2  487.65   22.10
   3  -7   2  510.75   20.80
  -7  -3   2  526.55   20.30
   7   3   2  500.55   23.50
   3  -7   2  544.35   19.60
   1  -7  -2  553.04   22.40
   7   1  -2  511.85   25.20
  -1   7  -2  506.85   22.30
  -7  -1  -2  561.14   21.80
  -1   7  -2  536.55   22.90
  -7  -1  -2  552.24   23.00
   1  -7  -2  596.74   22.20
  -1   7  -2  533.35   22.60
  -1   7  -2  546.85   23.00
   1  -7  -2  503.55   22.60
  -7  -1  -2  548.95   22.50
   1  -7  -2  557.34   23.20
  -7  -1  -2  538.75   20.40
   1  -7  -2  564.94   22.00
   7   1  -2  560.04   22.70
   1  -7  -2  544.85   22.90
   7   1  -2  571.74   21.80
  -7  -1  -2  560.34   20.90
  -7  -1  -2  576.84   20.20
  -1   7  -2  545.95   23.60
  -1   7   2  520.75   22.60
   1  -7   2  571.14   22.60
  -1   7   2  548.25   23.90
  -7  -1   2  541.85   21.30
  -1   7   2  556.34   23.50
   7   1   2  547.95   24.20
   7   1   2  539.05   24.20
  -7  -1   2  547.65   22.20
   7   1   2  545.85   20.00
   1  -7   2  522.35   22.10
  -1   7   2  542.75   22.00
   7   1   2  541.35   20.20
   7   1   2  518.55   24.20
   1  -7   2  537.35   24.50
   7   1   2  547.55   21.50
   1  -7   2  573.64   22.50
  -1   7   2  528.05   22.10
   1  -7   2  545.65   21.50
  -7  -1   2  522.75   23.40
   1  -7   2  507.25   21.70
   7   1   2  576.94   22.80
  -1   7   2  584.24   21.70
  -1  -7  -2  561.94   22.50
  -1  -7  -2  578.54   21.50
   1   7  -2  561.74   23.00
   7  -1  -2  562.24   22.10
   7  -1  -2  536.65   23.20
   1   7  -2  548.95   23.10
  -7   1  -2  555.04   22.90
   7  -1  -2  545.35   25.10
  -1  -7  -2  548.25   23.00
   7  -1  -2  559.14   22.40
  -1  -7  -2  567.24   23.40
   1   7  -2  544.25   22.40
   1   7  -2  518.05   24.10
  -7   1  -2  540.75   21.90
  -1  -7  -2  537.35   22.70
  -1  -7  -2  553.04   22.30
   1   7  -2  545.75   22.80
   1   7  -2  545.55   22.80
   1   7   2  572.84   22.70
  -7   1   2  551.54   21.90
   1   7   2  531.75   21.80
   7  -1   2  558.44   22.10
  -7   1   2  541.35   24.10
  -1  -7   2  562.84   21.20
   7  -1   2  547.45   21.90
  -7   1   2  563.74   21.60
   1   7   2  515.55   23.60
   1   7   2  527.75   23.70
  -1  -7   2  560.44   21.40
  -1  -7   2  556.14   23.20
   1   7   2  536.55   23.20
   1   7   2  568.64   22.30
  -1  -7   2  515.85   24.00
   7  -1   2  536.85   23.80
  -1  -7   2  519.45   22.20
  -1  -7   2  556.34   22.50
   7  -1   2  540.15   24.70
  -1  -7   2  570.74   23.30
   3   7  -2  522.45   20.60
   3   7  -2  494.35   21.70
   7  -3  -2  523.25   20.50
   7  -3  -2  492.25   23.50
   7  -3  -2  516.65   21.40
   3   7  -2  488.95   21.30
  -3  -7  -2  505.85   20.30
   7  -3  -2  538.75   22.30
  -7   3  -2  507.45   22.50
   3   7  -2  522.35   21.50
   3   7  -2  506.55   22.00
  -3  -7  -2  511.25   21.90
  -3  -7  -2  495.05   21.90
  -7   3  -2  511.05   19.90
  -7   3  -2  501.85   21.20
   3   7  -2  484.85   23.80
  -3  -7  -2  496.25   21.20
  -3  -7  -2  513.05   22.00
   7  -3   2  520.65   21.20
   3   7   2  505.25   20.10
  -3  -7   2  521.55   19.20
   7  -3   2  509.25   21.10
  -3  -7   2  511.65   22.20
  -7   3   2  492.55   21.00
  -7   3   2  511.85   20.40
   3   7   2  533.75   20.70
  -3  -7   2  513.65   23.10
   3   7   2  519.75   22.70
  -3  -7   2  522.65   20.90
   7  -3   2  508.55   23.60
   3   7   2  499.25   22.60
   3   7   2  498.35   22.60
   3   7   2  502.05   22.10
   7  -3   2  534.45   22.00
  -7   5  -2  362.76   14.50
  -5  -7  -2  370.26   17.00
  -7   5  -2  333.47   16.90
   7  -5  -2  390.66   15.70
   7  -5  -2  359.16   16.50
   5   7  -2  351.56   16.50
  -5  -7  -2  347.07   16.00
  -5  -7  -2  381.86   14.80
  -5  -7  -2  349.96   17.10
   5   7  -2  382.26   14.50
  -5  -7  -2  352.16   16.70
   5   7  -2  361.96   16.60
   5   7  -2  350.86   19.50
  -7   5  -2  346.67   15.30
  -7   5  -2  353.96   16.10
   7  -5  -2  359.06   16.90
   5   7  -2  352.96   17.00
  -7   5  -2  378.16   15.10
  -7   5   2  349.67   14.50
   7  -5   2  360.56   14.00
   5   7   2  347.87   17.90
  -5  -7   2  356.46   16.20
   5   7   2  355.96   14.20
   7  -5   2  349.77   13.60
   5   7   2  366.76   17.30
  -7   5   2  377.16   14.70
  -7   5   2  361.26   16.20
   7  -5   2  343.57   18.40
  -7   5   2  358.16   13.80
  -5  -7   2  350.16   16.90
  -7   5   2  357.76   15.60
  -5  -7   2  347.37   17.80
   7  -5   2  358.96   16.50
   7  -5   2  377.36   15.80
  -7   5   2  334.47   16.10
   7  -5   2  363.06   16.10
  -5  -7   2  359.66   16.10
   5   7   2  346.77   17.80
   5   7   2  349.07   17.70
  -7  -7  -2  149.79    7.10
  -7   7  -2  135.99   14.00
   7  -7  -2  153.48    7.30
   7  -7  -2  139.09   10.30
   7  -7  -2  156.48    9.30
  -7  -7  -2  140.39    8.50
   7  -7  -2  154.18    7.60
  -7   7  -2  143.29    9.80
  -7   7  -2  156.68    9.00
  -7  -7  -2  163.48    9.70
  -7   7  -2  138.79    7.60
   7  -7  -2  158.08    8.90
   7   7  -2  137.69    9.60
   7   7  -2  137.59   11.40
   7   7  -2  143.49    8.60
   7  -7  -2  146.09    9.20
  -7  -7  -2  132.59    9.50
  -7   7  -2  148.09    8.70
   7   7  -2  140.39    9.20
  -7  -7   2  137.29    9.70
   7  -7   2  163.98    7.30
   7   7   2  138.69    9.30
   7  -7   2  152.58    9.40
   7  -7   2  131.59   10.40
  -7   7   2  142.69    7.60
   7  -7   2  152.58    7.90
   7   7   2  153.68   11.20
   7  -7   2  156.98    7.10
  -7  -7   2  159.08    9.10
  -7  -7   2  144.29    8.90
  -7   7   2  145.79    8.70
   7   7   2  143.09   10.50
  -7   7   2  136.09    9.80
  -7   7   2  146.09    9.50
   7   7   2  146.79   11.30
  -7   7   2  125.89    7.50
  -7   7   2  151.68    9.10
  -7  -7   2  142.89    9.00
  -8  -6  -2  101.79    7.80
   8   6  -2  106.79   10.10
   8   6  -2  104.59    8.00
   8   6  -2  102.29    7.50
   6  -8  -2  101.09    7.20
  -6   8  -2  112.89    7.30
   6  -8  -2  104.49    7.00
  -8  -6  -2  104.79    5.20
   8   6  -2  113.69    7.90
   6  -8  -2  103.59    8.60
   6  -8  -2  100.29    7.20
  -8  -6  -2   99.09    6.40
   8   6  -2   93.59    6.30
  -6   8  -2  103.69    7.30
  -6   8  -2  101.39    6.40
  -6   8  -2  104.29    8.20
   6  -8  -2  104.79    6.50
   6  -8  -2  109.49    7.20
   8   6   2   93.19    8.80
  -8  -6   2   99.19    6.80
   8   6   2  106.89    4.90
   6  -8   2  101.29    6.20
  -6   8   2  109.39    7.40
  -8  -6   2   93.99    7.80
   8   6   2   87.49    9.10
  -8  -6   2  108.39    7.60
   6  -8   2   95.49    8.70
  -6   8   2  108.39    7.40
  -8  -6   2  101.89    7.50
   8   6   2  101.49    7.20
  -6   8   2  108.39    8.30
  -6   8   2   89.79    6.00
   6  -8   2  111.59    7.80
   8   6   2   93.19    8.50
   6  -8   2   99.59    7.50
   8   6   2  100.89    6.60
  -4   8  -2  201.68   10.50
  -4   8  -2  209.38   11.30
   4  -8  -2  203.78   10.60
   8   4  -2  199.68    9.00
  -4   8  -2  192.58   11.00
   4  -8  -2  199.98   11.90
   4  -8  -2  200.18   10.30
   8   4  -2  205.88   11.50
  -8  -4  -2  211.78    8.80
   8   4  -2  188.18   13.60
  -8  -4  -2  199.58   11.20
   4  -8  -2  211.68   11.00
  -4   8  -2  200.48   10.50
   8   4  -2  215.18    8.90
   8   4  -2  203.98   10.80
  -8  -4  -2  213.18   11.60
  -8  -4  -2  210.48    9.60
   4  -8  -2  199.58   11.00
  -8  -4  -2  202.48    8.30
  -8  -4  -2  190.18    9.60
  -4   8   2  199.68   10.60
  -8  -4   2  195.18   10.00
  -4   8   2  188.88    9.80
  -4   8   2  177.78   11.30
  -8  -4   2  193.58   11.10
  -8  -4   2  199.68   11.30
   8   4   2  180.98   12.50
   8   4   2  196.08    9.10
   4  -8   2  199.68   10.60
  -8  -4   2  196.18   11.10
   4  -8   2  179.88   12.20
   8   4   2  211.38   11.90
  -4   8   2  206.58   10.70
   4  -8   2  205.08   10.10
   4  -8   2  215.48   10.50
   8   4   2  202.68    8.90
  -8  -4   2  197.88    9.70
  -8  -4   2  201.18    8.40
   8   4   2  187.88   12.50
   8   4   2  200.98    9.80
   2  -8  -2   18.30    3.00
   8   2  -2   15.10    3.80
   2  -8  -2   14.50    2.60
   2  -8  -2   12.60    2.30
   8   2  -2   17.00    3.20
  -8  -2  -2    9.40    2.20
  -8  -2  -2   16.00    2.20
  -2   8  -2    9.10    2.70
   2  -8  -2   12.60    2.10
   2  -8  -2   11.40    2.70
  -8  -2  -2   13.40    1.90
  -2   8  -2   12.40    3.00
   8   2  -2   10.30    2.60
  -8  -2  -2   14.30    2.40
  -2   8  -2   13.90    2.50
   2  -8  -2    9.40    2.70
  -2   8  -2   12.40    3.10
  -8  -2  -2   11.20    2.00
  -2   8  -2   15.90    2.80
   8   2  -2   14.80    2.40
  -8  -2  -2   15.90    2.90
   8   2   2   11.50    2.80
  -2   8   2   14.80    3.00
  -8  -2   2   15.40    2.30
  -2   8   2   14.20    2.40
   8   2   2   21.40    4.00
   8   2   2   13.50    3.50
   8   2   2   14.10    3.90
  -8  -2   2   12.80    1.80
   2  -8   2   17.80    3.30
   8   2   2   14.40    1.60
   2  -8   2   13.80    2.70
   2  -8   2   12.80    2.50
  -8  -2   2   11.20    2.70
   2  -8   2   11.00    2.10
   2  -8   2    9.00    2.70
  -8  -2   2   14.10    2.70
   8   2   2   14.70    2.50
  -8  -2   2   13.90    2.50
  -2   8   2   11.90    2.50
  -2   8   2   17.00    3.40
  -2   8   2   13.90    2.70
  -2   8   2   13.80    2.40
   0  -8  -2    3.60    1.70
   0  -8  -2    2.10    2.30
  -8   0  -2    2.10    1.40
   8   0  -2    1.40    1.50
   0  -8  -2    0.60    1.60
   0   8  -2   -0.60    1.80
   0  -8  -2    4.30    2.00
   0   8  -2    7.70    2.20
   8   0  -2   -0.20    1.40
   0  -8  -2    0.80    1.70
   0  -8  -2    2.60    1.00
   0   8  -2    0.20    1.70
  -8   0  -2    2.10    1.60
   0   8  -2    3.30    2.10
   0  -8  -2    1.40    1.50
   0   8  -2    0.20    2.30
   8   0  -2    0.90    2.60
   0   8  -2    7.50    2.40
   0  -8   2    1.30    1.30
   0   8   2    4.80    1.90
  -8   0   2    3.20    1.90
  -8   0   2    3.80    1.50
   8   0   2    5.30    2.30
   0   8   2    3.30    1.40
   0   8   2   -0.40    1.90
   0  -8   2   -0.20    1.70
   0  -8   2    2.60    1.90
   0  -8   2    2.40    2.40
   0   8   2   -0.20    2.40
   0  -8   2   -2.10    1.70
   8   0   2    2.80    2.30
   8   0   2    0.50    2.00
   0  -8   2   -0.60    1.20
   8   0   2    1.30    1.40
   0   8   2    0.90    1.80
  -8   2  -2   11.40    2.10
   2   8  -2   19.40    3.70
   8  -2  -2   17.40    2.90
  -2  -8  -2   15.40    3.00
   8  -2  -2   13.70    2.50
   2   8  -2   15.00    3.10
  -2  -8  -2   13.60    2.30
   2   8  -2   13.40    2.60
   2   8  -2   15.90    3.90
  -8   2  -2   13.00    2.80
  -2  -8  -2   17.90    3.50
   2   8  -2   15.50    3.00
  -2  -8  -2   12.30    2.30
   2   8  -2   16.10    2.80
  -2  -8  -2   12.10    2.80
  -2  -8  -2   15.90    3.00
   8  -2  -2   12.10    3.00
   2   8   2   10.30    2.30
   2   8   2   16.60    2.90
  -8   2   2   14.70    3.10
   8  -2   2   15.20    3.30
   2   8   2   12.80    2.90
   2   8   2   16.00    3.70
  -2  -8   2   12.90    2.00
   2   8   2   15.80    3.10
  -2  -8   2   19.10    3.50
  -2  -8   2    9.80    2.60
   8  -2   2   20.70    3.20
  -8   2   2   11.60    2.30
   2   8   2   15.20    2.50
   8  -2   2   17.60    3.90
  -2  -8   2   13.80    2.40
  -2  -8   2   19.00    3.70
  -2  -8   2   14.20    2.70
  -8   2   2   16.80    2.70
   4   8  -2  194.18   13.20
  -4  -8  -2  196.38   11.40
  -4  -8  -2  192.98   10.50
  -8   4  -2  192.58    8.10
   4   8  -2  204.58   10.70
  -4  -8  -2  210.78    8.30
   8  -4  -2  212.18   10.10
  -4  -8  -2  207.68    9.60
   8  -4  -2  201.58   11.00
  -8   4  -2  199.98    9.00
  -8   4  -2  198.48    9.70
   4   8  -2  192.18   11.20
  -4  -8  -2  199.78   11.40
   4   8  -2  204.68    9.40
  -8   4  -2  204.18    8.40
   8  -4  -2  201.08   10.70
   4   8  -2  193.18   10.70
  -8   4  -2  192.98   11.60
  -8   4  -2  194.78   10.50
  -4  -8  -2  200.48   11.10
   4   8  -2  191.98   11.10
  -4  -8   2  193.78   12.00
   8  -4   2  217.68   11.00
   4   8   2  194.28    9.00
   4   8   2  196.58   11.60
  -8   4   2  188.18   10.30
  -8   4   2  200.38   10.00
  -4  -8   2  200.38   11.20
  -4  -8   2  192.08   10.60
   8  -4   2  187.78   12.40
   8  -4   2  208.98   10.50
  -4  -8   2  192.08   10.00
   4   8   2  202.08   12.10
   8  -4   2  198.28   10.70
  -8   4   2  199.18   11.30
   4   8   2  197.88   11.90
   4   8   2  217.48   10.00
  -4  -8   2  198.78   10.30
   4   8   2  200.68   12.10
  -6  -8  -2  105.79    7.90
   6   8  -2   97.49    8.10
  -6  -8  -2  100.99    7.80
   6   8  -2  107.79    7.90
  -6  -8  -2  110.99    8.30
  -8   6  -2  102.19    5.70
  -8   6  -2  112.79    8.20
  -8   6  -2  109.59    7.10
  -6  -8  -2   98.09    7.00
   8  -6  -2  111.19    7.60
  -8   6  -2  112.29    7.00
   8  -6  -2  114.99    7.40
   6   8  -2   87.09    9.20
   6   8  -2  110.39    7.60
  -6  -8  -2  112.39    6.10
   8  -6  -2  103.59    7.40
  -8   6  -2  108.49    7.40
  -6  -8   2  104.89    7.70
  -8   6   2  104.89    6.70
   6   8   2   99.59    8.50
  -6  -8   2  110.39    7.20
  -8   6   2   96.39    5.60
   8  -6   2  100.09    7.80
  -8   6   2  112.39    7.40
  -8   6   2  105.79    7.20
   6   8   2  106.89    8.40
   8  -6   2   94.69    8.70
   6   8   2   98.19    8.60
   6   8   2  101.49    9.00
   6   8   2  110.89    5.00
  -8   6   2  100.19    7.30
  -6  -8   2  120.29    8.00
  -6  -8   2  100.79    8.50
   8  -6   2  118.19    6.70
  -6  -8   2  102.89    7.20
   8   8  -2   17.80    5.10
   8  -8  -2   31.00    2.90
   8  -8  -2   25.70    3.80
  -8  -8  -2   22.40    4.00
   8  -8  -2   29.30    4.40
   8  -8  -2   27.20    5.60
   8  -8  -2   38.40    5.60
  -8   8  -2   23.00    3.70
   8   8  -2   31.00    4.70
   8   8  -2   33.80    4.60
  -8   8  -2   29.70    5.20
   8   8  -2   35.50    6.10
  -8  -8  -2   29.30    3.80
   8   8  -2   40.10    6.50
  -8   8  -2   29.60    3.20
  -8   8  -2   32.60    5.00
  -8  -8  -2   23.20    4.70
   8  -8  -2   24.00    3.10
  -8  -8  -2   28.70    3.60
   8   8   2   30.20    5.90
   8  -8   2   25.20    5.80
   8   8   2   40.70    7.40
  -8  -8   2   33.90    4.90
   8  -8   2   30.90    3.80
   8   8   2   29.80    5.00
  -8  -8   2   25.90    4.90
  -8   8   2   26.50    3.10
  -8   8   2   22.30    4.60
  -8  -8   2   22.20    4.20
  -8   8   2   39.80    5.50
   8  -8   2   27.10    2.90
  -8  -8   2   24.00    4.10
   8  -8   2   30.90    5.80
  -8   8   2   27.80    4.50
   8   8   2   24.10    4.90
   9   7  -2  158.48    8.90
   9   7  -2  151.78   10.90
  -9  -7  -2  147.79   10.30
   9   7  -2  161.38   10.70
   7  -9  -2  162.68   10.50
   9   7  -2  135.39   12.80
  -7   9  -2  162.38    9.50
   7  -9  -2  155.58    8.70
   7  -9  -2  151.98    8.90
   7  -9  -2  134.29    9.40
   7  -9  -2  160.58   10.20
   9   7  -2  180.08   10.20
  -9  -7  -2  157.58    7.50
   7  -9  -2  160.78   12.30
  -7   9  -2  166.48   11.00
  -7   9  -2  163.78   10.00
   7  -9   2  130.69   11.00
   7  -9   2  172.78    9.40
  -9  -7   2  165.58   10.20
  -9  -7   2  159.08   10.80
   9   7   2  141.79   11.70
  -7   9   2  148.09   10.00
   7  -9   2  154.18    8.20
   9   7   2  148.79    9.10
   9   7   2  154.08   12.20
  -7   9   2  156.48   10.00
   9   7   2  159.08   11.80
   7  -9   2  159.38   10.60
  -7   9   2  148.09   10.50
  -9  -7   2  154.58   10.00
   9   7   2  157.18    9.90
   9   5  -2   16.60    3.40
  -5   9  -2   30.30    4.20
  -5   9  -2   23.00    4.40
  -9  -5  -2   22.20    3.30
   5  -9  -2   18.00    3.70
   5  -9  -2   19.00    3.40
   9   5  -2   23.70    3.00
  -9  -5  -2   23.80    4.40
   5  -9  -2   28.70    4.40
   9   5  -2   19.00    5.40
  -9  -5  -2   21.20    4.00
   9   5  -2   24.90    3.70
   5  -9  -2   20.40    3.90
  -5   9  -2   25.90    4.70
   9   5  -2   33.60    5.40
   5  -9  -2   21.50    3.80
  -5   9  -2   22.10    3.40
  -9  -5  -2   20.30    2.50
   9   5  -2   25.00    3.00
  -5   9   2   25.60    4.70
   9   5   2   24.50    3.40
   9   5   2   29.70    5.20
   5  -9   2   23.80    4.50
   9   5   2   17.00    4.10
  -9  -5   2   26.10    4.50
   5  -9   2   13.90    4.00
  -5   9   2   16.90    3.50
  -5   9   2   21.00    4.20
   9   5   2   28.00    5.10
  -9  -5   2   21.90    4.00
   9   5   2   27.30    2.80
  -9  -5   2   29.10    4.80
  -9  -5   2   20.60    3.20
   9   5   2   23.90    3.40
   5  -9   2   20.40    3.70
  -5   9   2   20.00    3.10
   3  -9  -2   60.49    5.40
   3  -9  -2   52.49    5.40
  -9  -3  -2   65.99    6.00
  -9  -3  -2   59.39    4.40
  -9  -3  -2   54.89    4.10
  -9  -3  -2   60.49    3.70
   3  -9  -2   58.69    6.00
   9   3  -2   48.90    7.00
  -3   9  -2   72.99    6.30
  -3   9  -2   53.89    5.00
   3  -9  -2   61.29    6.30
  -3   9  -2   63.19    5.60
  -3   9  -2   61.99    6.10
  -9  -3  -2   58.19    4.40
   3  -9  -2   58.79    4.90
   9   3  -2   63.19    4.20
   9   3  -2   55.29    5.50
   9   3  -2   54.39    5.70
  -3   9  -2   59.99    6.10
  -9  -3  -2   58.09    5.70
   9   3   2   57.39    6.90
  -3   9   2   61.59    5.20
   3  -9   2   53.49    6.30
  -3   9   2   53.69    4.60
  -9  -3   2   61.99    6.00
   9   3   2   61.29    7.10
  -9  -3   2   62.79    5.50
  -9  -3   2   47.50    4.00
  -9  -3   2   56.79    4.00
  -9  -3   2   62.39    4.80
  -3   9   2   53.89    5.90
   9   3   2   60.09    4.40
   3  -9   2   60.39    5.40
   9   3   2   51.09    6.40
  -3   9   2   58.69    5.70
  -9  -3   2   64.39    5.90
   3  -9   2   55.39    5.30
   9   3   2   54.49    6.50
  -9  -1  -2  314.67   14.80
   1  -9  -2  290.47   14.70
   1  -9  -2  318.57   13.90
   1  -9  -2  298.77   15.20
   9   1  -2  320.27   13.70
   1  -9  -2  335.57   14.60
  -9  -1  -2  299.27   15.20
  -1   9  -2  332.47   14.80
  -9  -1  -2  308.07   13.30
   1  -9  -2  304.97   14.90
   9   1  -2  312.77   14.90
  -1   9  -2  311.57   16.40
  -1   9  -2  297.17   15.50
  -1   9  -2  317.17   15.30
  -1   9  -2  291.07   14.80
   9   1  -2  299.97   17.50
  -9  -1  -2  317.77   14.00
   1  -9  -2  301.47   15.40
   1  -9   2  305.67   12.50
   9   1   2  299.07   16.70
   1  -9   2  311.17   14.70
   1  -9   2  327.07   13.60
  -9  -1   2  299.57   14.50
  -9  -1   2  304.87   15.90
  -1   9   2  315.47   14.30
   9   1   2  303.17   17.00
   1  -9   2  312.27   14.50
  -9  -1   2  310.27   13.40
   9   1   2  314.37   15.30
   9   1   2  326.37   13.80
   1  -9   2  297.67   16.80
   1  -9   2  327.07   14.80
  -1   9   2  315.17   15.50
  -1   9   2  301.17   14.30
  -1   9   2  303.17   16.20
  -1   9   2  290.27   15.90
  -1   9   2  321.07   13.40
  -1  -9  -2  289.67   14.90
   1   9  -2  329.57   14.90
  -1  -9  -2  318.77   15.40
   1   9  -2  304.37   14.40
   9  -1  -2  326.27   14.40
   1   9  -2  321.87   15.80
   9  -1  -2  289.37   17.00
   9  -1  -2  319.37   14.30
  -9   1  -2  299.27   15.00
  -1  -9  -2  302.47   14.50
   1   9  -2  279.37   16.40
   1   9  -2  303.97   15.00
  -9   1  -2  313.57   14.30
   1   9  -2  312.97   15.20
  -1  -9  -2  323.07   15.80
  -1  -9  -2  317.07   13.30
  -1  -9  -2  309.57   14.70
  -1  -9   2  319.77   15.00
   1   9   2  317.47   14.40
  -1  -9   2  305.17   14.50
  -1  -9   2  302.37   15.20
  -9   1   2  302.07   16.30
  -1  -9   2  315.77   13.30
  -9   1   2  311.37   13.90
   9  -1   2  311.07   14.40
   1   9   2  290.57   15.40
   1   9   2  309.47   16.50
   1   9   2  284.37   15.80
   1   9   2  325.97   14.70
   9  -1   2  294.67   16.60
  -1  -9   2  297.17   16.50
   9  -1   2  306.97   14.10
  -9   1   2  312.87   13.90
  -1  -9   2  309.47   14.60
   1   9   2  305.57   13.70
   9  -1   2  322.87   16.60
   3   9  -2   62.89    5.70
   3   9  -2   61.09    4.70
  -3  -9  -2   58.19    5.30
  -9   3  -2   50.39    4.40
   3   9  -2   46.90    5.70
  -3  -9  -2   53.89    5.20
  -9   3  -2   56.69    6.70
   9  -3  -2   62.39    5.10
  -3  -9  -2   59.09    4.90
  -3  -9  -2   64.09    6.40
   3   9  -2   56.89    6.10
  -9   3  -2   58.79    5.50
   9  -3  -2   54.29    6.40
   3   9  -2   58.39    7.00
  -3  -9  -2   67.59    3.90
   9  -3  -2   55.39    5.60
  -3  -9  -2   51.49    5.20
   9  -3  -2   60.29    5.30
   3   9  -2   62.19    5.90
   3   9   2   56.09    6.00
   9  -3   2   67.09    6.00
   3   9   2   65.89    5.10
   9  -3   2   51.19    6.60
   3   9   2   64.69    6.50
  -9   3   2   62.69    5.00
  -3  -9   2   56.09    4.70
  -3  -9   2   58.99    5.00
   3   9   2   52.69    6.40
  -3  -9   2   52.89    6.10
   3   9   2   54.69    4.50
   3   9   2   56.89    5.80
  -9   3   2   54.19    4.90
  -3  -9   2   51.39    5.60
  -3  -9   2   55.39    5.70
   9  -3   2   65.09    5.40
   5   9  -2   19.60    3.70
  -5  -9  -2   20.70    4.00
   9  -5  -2   20.00    3.90
  -5  -9  -2   25.30    3.90
   5   9  -2   12.50    4.70
  -9   5  -2   25.90    4.80
  -5  -9  -2   28.40    4.60
  -9   5  -2   18.90    2.20
  -5  -9  -2   27.90    3.50
  -9   5  -2   26.10    3.90
   5   9  -2   24.60    3.30
   5   9  -2   17.50    3.70
   9  -5  -2   31.70    4.50
  -9   5  -2   29.20    3.50
  -5  -9  -2   23.90    4.30
   5   9  -2   29.70    5.40
  -9   5  -2   21.40    3.00
   9  -5  -2   31.70    4.80
  -9   5  -2   20.90    3.50
  -5  -9   2   24.40    3.80
   9  -5   2   31.80    5.00
   5   9   2   20.60    4.50
  -5  -9   2   24.00    4.30
  -9   5   2   22.50    2.40
   5   9   2   19.60    3.00
  -5  -9   2   22.10    4.50
  -9   5   2   20.30    2.90
   5   9   2   24.90    5.10
  -9   5   2   28.20    4.30
  -9   5   2   21.90    4.60
  -9   5   2   22.00    3.10
  -5  -9   2   21.20    3.80
   9  -5   2   22.60    5.10
   9  -5   2   24.60    4.20
   5   9   2   24.50    5.00
  -9   5   2   13.60    2.90
   5   9   2   17.40    4.10
  -5  -9   2   21.40    3.70
  -9   7  -2  164.48    9.50
   7   9  -2  167.08   10.20
  -9   7  -2  163.28   10.00
   7   9  -2  159.88   10.90
  -7  -9  -2  153.78   10.40
   7   9  -2  157.28   11.00
  -9   7  -2  160.38   11.10
  -9   7  -2  152.38    8.00
   9  -7  -2  173.68    9.80
   9  -7  -2  163.28   10.20
  -7  -9  -2  167.08   11.30
  -7  -9  -2  153.28    9.60
  -7  -9  -2  167.28    8.30
  -7  -9  -2  149.39   10.40
  -7  -9   2  164.28    9.60
  -9   7   2  151.18    9.10
   7   9   2  141.59   10.60
  -7  -9   2  155.98    9.90
  -7  -9   2  153.68   10.10
  -9   7   2  154.88    9.60
  -9   7   2  137.99   10.70
  -9   7   2  140.29    9.70
   9  -7   2  168.98   10.80
   7   9   2  141.99   11.10
  -7  -9   2  158.68   11.50
  -7  -9   2  151.88   10.30
   7   9   2  170.18   12.90
   7   9   2  132.79   11.20
   9  -7   2  169.18    8.50
   9  -7   2  145.09   11.70
   9  -9  -2  308.57   15.70
   9   9  -2  284.47   15.20
  -9   9  -2  309.37   17.20
  -9  -9  -2  291.67   16.50
   9   9  -2  292.57   17.20
  -9  -9  -2  299.27   13.20
  -9   9  -2  302.07   15.10
   9   9  -2  296.27   17.00
   9  -9  -2  313.67   15.90
   9   9  -2  278.47   16.80
  -9   9  -2  305.67   15.50
   9   9   2  283.17   16.50
  -9   9   2  311.97   16.10
   9   9   2  279.67   16.60
   9   9   2  296.67   19.40
  -9  -9   2  306.07   15.40
  -9  -9   2  284.37   15.90
  -9   9   2  293.37   15.90
   9  -9   2  300.87   17.30
   8 -10  -2    6.60    5.00
   8 -10  -2    2.40    3.30
   8 -10  -2   -3.00    4.90
  10   8  -2    2.70    4.30
  10   8  -2    2.50    5.00
  10   8  -2    2.50    4.30
   8 -10  -2   -4.90    4.30
  10   8  -2    2.70    3.10
 -10  -8  -2    3.50    2.20
   8 -10  -2    1.40    3.00
 -10  -8  -2   -2.50    3.60
  -8  10  -2    4.20    3.80
  -8  10  -2   -6.70    4.00
  10   8   2    0.30    3.90
  -8  10   2   -1.80    3.60
   8 -10   2    0.70    2.40
 -10  -8   2    1.70    3.50
  -8  10   2    0.00    3.70
   8 -10   2    1.40    3.40
   8 -10   2   10.50    4.80
  10   8   2    0.00    4.30
  10   8   2    3.40    5.80
 -10  -8   2   -3.10    3.20
  10   8   2    7.60    3.50
   6 -10  -2   70.79    6.80
  10   6  -2   67.69    4.80
  -6  10  -2   62.49    7.00
   6 -10  -2   72.29    6.50
   6 -10  -2   61.19    8.20
   6 -10  -2   74.89    6.90
  10   6  -2   69.79    8.10
 -10  -6  -2   59.59    4.20
 -10  -6  -2   69.49    7.40
  -6  10  -2   62.89    7.60
  -6  10  -2   71.49    6.50
   6 -10  -2   79.49    7.00
 -10  -6  -2   65.29    7.60
  10   6  -2   55.29    7.60
 -10  -6   2   61.29    7.10
  10   6   2   61.89    5.50
   6 -10   2   60.39    7.50
  -6  10   2   69.19    7.20
   6 -10   2   53.49    7.80
   6 -10   2   66.79    7.00
   6 -10   2   61.69    5.60
  10   6   2   77.89    9.60
  10   6   2   63.89    7.70
  10   6   2   78.59    5.20
 -10  -6   2   59.09    6.50
  -6  10   2   63.59    6.90
  10   4  -2   87.39    9.70
 -10  -4  -2  106.09    5.90
  -4  10  -2   96.09    7.10
 -10  -4  -2  106.39    8.50
  -4  10  -2  100.19    8.10
  10   4  -2  103.49    8.20
  -4  10  -2  110.09    7.50
 -10  -4  -2   97.29    6.20
   4 -10  -2  103.49    8.10
  10   4  -2  109.19    5.60
  -4  10  -2   93.49    8.20
  10   4  -2  103.49    7.90
   4 -10  -2  105.89    7.70
   4 -10  -2   96.29    7.00
   4 -10  -2  103.99    7.50
 -10  -4  -2  101.59    8.00
 -10  -4  -2  103.99    5.20
   4 -10  -2   90.69    9.00
  -4  10   2   98.49    6.80
 -10  -4   2   94.39    6.10
 -10  -4   2  106.49    8.30
  10   4   2   77.79    8.90
  -4  10   2   93.79    8.10
 -10  -4   2  100.59    8.00
   4 -10   2  109.69    7.20
 -10  -4   2  103.09    5.30
  10   4   2   95.69    9.10
  -4  10   2  103.79    7.40
  -4  10   2   93.99    8.20
 -10  -4   2  110.29    9.90
 -10  -4   2   92.69    7.50
   4 -10   2   92.49    9.00
  10   4   2   97.89    9.10
   4 -10   2  100.99    7.50
 -10  -2  -2   -0.90    1.70
 -10  -2  -2    3.50    2.30
  -2  10  -2    1.00    2.30
   2 -10  -2   -0.20    2.30
 -10  -2  -2    2.80    2.30
 -10  -2  -2    1.70    1.50
  -2  10  -2    3.30    3.10
   2 -10  -2   -0.70    2.60
  -2  10  -2   -1.30    2.20
  10   2  -2    4.60    2.20
 -10  -2  -2    0.70    1.70
   2 -10  -2    1.30    1.90
   2 -10  -2    2.60    2.50
  -2  10  -2   -1.80    2.50
   2 -10  -2    3.30    2.90
  10   2  -2    5.30    4.10
  10   2  -2    1.10    2.40
  -2  10  -2    1.80    2.90
 -10  -2  -2    4.80    2.60
 -10  -2   2    0.50    2.20
  -2  10   2    1.60    2.30
  -2  10   2    3.20    2.20
   2 -10   2    1.40    2.40
 -10  -2   2    0.80    1.20
  10   2   2   -4.30    2.60
  10   2   2    4.00    3.60
  10   2   2   -0.80    3.20
  -2  10   2   -2.20    2.30
  10   2   2    0.30    1.80
  -2  10   2   -0.80    2.80
 -10  -2   2    6.00    2.10
  -2  10   2    2.20    1.90
  -2  10   2    8.20    2.90
   2 -10   2   -2.90    2.30
  10   2   2    0.50    2.50
 -10  -2   2    2.60    2.70
 -10  -2   2    1.20    1.90
   2 -10   2    2.00    1.80
   0  10  -2   53.19    4.90
 -10   0  -2   38.30    5.30
   0 -10  -2   49.60    5.20
   0  10  -2   52.89    5.30
  10   0  -2   45.80    4.40
   0 -10  -2   46.20    4.30
   0  10  -2   50.89    6.30
   0 -10  -2   44.60    6.10
   0  10  -2   41.80    6.40
  10   0  -2   40.50    6.60
   0 -10  -2   44.10    5.10
   0 -10  -2   43.50    5.40
   0 -10  -2   45.90    3.60
   0  10  -2   45.50    5.10
   0  10  -2   44.70    5.40
   0 -10  -2   36.70    5.10
 -10   0  -2   46.80    4.80
 -10   0  -2   50.19    5.00
   0 -10   2   37.40    5.70
   0 -10   2   50.09    4.80
 -10   0   2   51.39    5.10
   0 -10   2   47.20    4.70
   0 -10   2   42.90    3.70
  10   0   2   55.69    5.80
  10   0   2   44.40    4.60
   0  10   2   44.80    4.50
 -10   0   2   48.40    4.60
   0  10   2   49.60    4.80
   0 -10   2   38.90    5.60
   0 -10   2   38.50    5.30
  10   0   2   39.20    5.90
   0  10   2   41.30    5.70
   0  10   2   41.70    5.90
   0  10   2   47.70    4.60
   0  10   2   53.09    6.60
 -10   0   2   49.99    6.40
  10   0   2   44.00    6.10
   2  10  -2   -2.50    2.90
  -2 -10  -2   -0.60    2.10
   2  10  -2   -0.90    2.30
 -10   2  -2    3.10    2.20
  10  -2  -2    1.20    2.60
  -2 -10  -2    2.70    2.80
   2  10  -2    0.30    2.20
   2  10  -2    4.10    2.60
 -10   2  -2   -1.80    2.70
  -2 -10  -2   -1.30    1.90
  10  -2  -2   -0.40    2.00
  -2 -10  -2   -1.10    2.20
  -2 -10  -2   -2.10    2.70
  -2 -10  -2    1.80    2.10
 -10   2  -2    1.00    2.00
   2  10  -2    2.60    3.20
   2  10  -2    6.40    3.20
   2  10   2   -5.00    2.80
  10  -2   2   -1.40    2.80
  10  -2   2    2.60    2.90
 -10   2   2    2.40    2.30
  -2 -10   2   -2.80    1.90
   2  10   2    0.80    2.60
  -2 -10   2    0.40    2.20
   2  10   2   -0.80    1.90
  -2 -10   2   -0.60    1.80
   2  10   2   -0.20    2.50
  -2 -10   2    3.70    3.10
   2  10   2    5.70    4.00
 -10   2   2   -0.30    2.80
  -2 -10   2   -2.50    2.30
 -10   2   2   -1.30    2.10
   2  10   2    5.00    2.90
  -2 -10   2    1.10    2.70
  -4 -10  -2  107.39    7.10
  -4 -10  -2  103.09    7.60
   4  10  -2  105.19    8.10
  -4 -10  -2   99.49    8.00
  -4 -10  -2  111.89    5.20
   4  10  -2  106.19    4.70
 -10   4  -2   76.69    8.40
  10  -4  -2   97.29    7.20
  10  -4  -2   93.99    7.20
   4  10  -2  106.99    8.50
   4  10  -2  107.79    6.30
  -4 -10  -2  108.79    8.80
 -10   4  -2  105.29    6.30
  -4 -10  -2   94.99    7.90
   4  10  -2  106.29    8.40
 -10   4  -2  111.59    7.00
 -10   4  -2  103.19    7.80
   4  10  -2  108.49    8.90
  -4 -10   2   94.09    8.70
 -10   4   2   88.19    7.20
   4  10   2   93.69    8.80
  10  -4   2  113.79    8.00
  -4 -10   2  104.99    8.10
   4  10   2  107.89    8.40
 -10   4   2   92.99    7.20
   4  10   2   92.49    6.10
   4  10   2  103.49    7.40
  -4 -10   2  101.19    7.00
  -4 -10   2   96.79    7.20
   4  10   2  112.19    9.40
 -10   4   2  100.09    6.50
  -4 -10   2  106.39    7.80
   4  10   2   89.09    9.20
  10  -4   2  101.89    9.60
   6  10  -2   66.79    6.90
  -6 -10  -2   62.79    6.30
  10  -6  -2   72.29    6.30
  -6 -10  -2   61.19    6.60
  -6 -10  -2   71.49    7.00
 -10   6  -2   68.79    7.00
 -10   6  -2   74.39    6.00
 -10   6  -2   56.09    7.90
  10  -6  -2   76.09    6.80
  -6 -10  -2   71.39    5.40
   6  10  -2   49.50    7.30
  -6 -10  -2   68.09    8.40
 -10   6  -2   74.19    6.20
 -10   6  -2   63.39    4.60
   6  10  -2   72.39    7.80
 -10   6  -2   58.89    4.20
 -10   6   2   57.99    4.20
  -6 -10   2   59.89    5.70
   6  10   2   55.29    7.10
   6  10   2   57.79    7.20
 -10   6   2   70.69    6.80
  10  -6   2   61.79    7.50
 -10   6   2   57.99    4.70
  -6 -10   2   64.09    6.30
 -10   6   2   66.89    5.60
 -10   6   2   65.09    6.60
   6  10   2   78.19    8.30
  -6 -10   2   65.59    6.70
  -6 -10   2   74.39    7.70
  10  -6   2   74.49    5.90
   6  10   2   58.69    9.00
 -10   6   2   72.59    6.80
  10  -6   2   51.29    8.00
 -10   8  -2   -2.50    3.60
   8  10  -2   -4.00    4.10
   8  10  -2    5.40    4.70
  10  -8  -2    0.30    3.90
 -10   8  -2   -1.00    4.50
 -10   8  -2   -0.90    3.70
  10  -8  -2    0.20    4.20
  -8 -10  -2    4.30    2.80
  -8 -10  -2   -9.20    7.50
   8  10  -2   -3.30    3.60
  -8 -10  -2   -0.70    3.80
  -8 -10   2   -6.00    8.40
   8  10   2    2.10    5.10
  10  -8   2    1.30    4.60
 -10   8   2   -5.40    3.80
  -8 -10   2    4.60    3.10
  -8 -10   2    3.80    3.10
   8  10   2    0.80    4.50
 -10   8   2   -4.80    3.20
 -10  10  -2    9.30    5.60
  10  10  -2    1.60    4.20
 -10  10  -2    0.60    6.70
  10 -10  -2    6.80    5.00
  10  10  -2   -2.80    5.00
  10  10  -2   -8.10    6.50
 -10 -10  -2    4.00    4.80
  10 -10  -2   12.30    6.20
 -10  10  -2   -1.90    4.60
  10 -10   2   -3.50    5.80
 -10  10   2   10.40    4.60
  10  10   2   11.00    8.10
 -10 -10   2    2.90    4.10
  10  10   2    6.10    5.20
 -10 -10   2    2.10    4.20
 -10  10   2   -3.70    5.10
 -11  -9  -2  146.49   12.40
   9 -11  -2  175.28   12.00
  11   9  -2  148.29   10.00
  11   9  -2  174.18   14.50
  11   9  -2  215.18   26.20
  11   9  -2  141.39   13.30
 -11  -9  -2  164.58   13.30
   9 -11  -2  153.88   12.60
   9 -11  -2  152.98   14.90
  -9  11  -2  143.49   11.50
  -9  11  -2  152.38   13.70
 -11  -9   2  157.88   12.00
   9 -11   2  142.79   14.10
  -9  11   2  136.69   12.50
 -11  -9   2  144.89   11.00
   9 -11   2  166.58    8.30
  11   9   2  143.59   16.20
  -9  11   2  163.88   12.30
  11   9   2  148.89   10.80
   7 -11  -2  151.58   13.70
   7 -11  -2  153.08   10.80
   7 -11  -2  156.38    9.90
 -11  -7  -2  158.78    8.00
  -7  11  -2  170.28   10.00
  11   7  -2  166.08   12.50
  -7  11  -2  143.19   11.60
  11   7  -2  154.48    8.20
   7 -11  -2  143.99   10.40
 -11  -7  -2  141.19   11.80
  11   7  -2  147.99   12.10
   7 -11  -2  157.88   10.90
  -7  11  -2  152.38   11.10
 -11  -7  -2  148.89   11.50
  11   7   2  164.08    8.50
  -7  11   2  161.88   11.00
  11   7   2  124.39   14.60
   7 -11   2  155.48    9.60
  -7  11   2  138.19   11.10
 -11  -7   2  169.18   11.00
   7 -11   2  166.28   11.70
  11   7   2  145.79   12.00
 -11  -7   2  136.09   11.20
  11   7   2  139.69    8.80
   7 -11   2  147.29   11.80
  11   5  -2   71.29    7.50
 -11  -5  -2   58.99    7.30
   5 -11  -2   48.00    7.00
  -5  11  -2   60.49    7.20
  -5  11  -2   62.29    6.80
  -5  11  -2   49.80    7.20
 -11  -5  -2   59.79    4.20
   5 -11  -2   50.09    8.40
  11   5  -2   51.69    7.50
   5 -11  -2   63.89    7.20
 -11  -5  -2   66.89    7.90
   5 -11  -2   40.70    6.60
   5 -11  -2   56.49    6.90
 -11  -5   2   60.19    7.10
  -5  11   2   68.39    7.50
  11   5   2   55.19    8.90
 -11  -5   2   65.59    7.10
   5 -11   2   61.99    6.90
  -5  11   2   69.69    6.60
  11   5   2   62.39    9.00
   5 -11   2   57.49    6.30
 -11  -5   2   58.19    6.30
  -3  11  -2   77.89    6.90
 -11  -3  -2   83.89    6.20
  11   3  -2   83.19    5.40
   3 -11  -2   84.39    7.40
  -3  11  -2   81.39    7.10
   3 -11  -2   81.69    8.30
   3 -11  -2   79.79    7.00
   3 -11  -2   82.09    8.20
 -11  -3  -2   91.79    8.30
 -11  -3  -2   78.09    7.40
  11   3  -2   78.59    9.10
 -11  -3  -2   88.19    5.30
  -3  11  -2   90.39    7.90
 -11  -3  -2   87.99    5.90
 -11  -3  -2   71.39    5.20
  -3  11  -2   75.79    8.60
  -3  11  -2   78.29    8.00
   3 -11  -2   78.39    6.30
  11   3  -2   94.79    8.10
 -11  -3   2   79.39    5.60
 -11  -3   2   80.69    7.90
  -3  11   2   82.89    9.20
  11   3   2   84.29    9.40
  11   3   2   84.29    8.30
  11   3   2   86.79    8.60
  -3  11   2   75.29    6.20
   3 -11   2   82.89    6.90
 -11  -3   2   82.89    6.40
   3 -11   2   87.69    8.40
 -11  -3   2   77.19    5.10
 -11  -3   2   80.19    7.70
 -11  -3   2   78.69    7.10
  -3  11   2   82.39    6.90
   3 -11   2   80.49    7.20
  -3  11   2   88.59    7.90
  -1  11  -2  221.08   12.30
  -1  11  -2  234.38   14.40
   1 -11  -2  225.58   12.50
  11   1  -2  210.48   15.00
 -11  -1  -2  226.88   11.30
   1 -11  -2  206.18   12.30
   1 -11  -2  228.98   13.10
   1 -11  -2  243.98   13.50
  -1  11  -2  217.38   13.70
  -1  11  -2  214.08   12.60
 -11  -1  -2  221.18   10.90
  11   1  -2  224.58   10.90
 -11  -1  -2  225.98   12.40
 -11  -1  -2  197.08   12.60
  -1  11  -2  229.28   13.00
  -1  11  -2  248.58   12.10
   1 -11  -2  206.68   11.10
  11   1   2  202.48   14.20
   1 -11   2  213.38    9.70
 -11  -1   2  209.98   10.60
   1 -11   2  213.68   14.10
   1 -11   2  233.98   12.40
  -1  11   2  210.48   11.60
  11   1   2  225.88   13.10
  -1  11   2  217.08   14.00
  -1  11   2  215.18   13.80
  -1  11   2  230.28   10.50
 -11  -1   2  220.28   12.20
  11   1   2  203.68   13.80
 -11  -1   2  203.48   13.30
   1 -11   2  214.48   12.00
  -1  11   2  231.08   11.60
   1 -11   2  219.48   10.10
  -1  11   2  223.48   13.40
  -1 -11  -2  211.88   12.80
   1  11  -2  228.98   13.10
  -1 -11  -2  221.68   10.50
  -1 -11  -2  227.18   13.60
 -11   1  -2  224.68   13.10
  11  -1  -2  201.38   14.30
  -1 -11  -2  222.28   10.60
  11  -1  -2  215.18   11.50
   1  11  -2  248.78   12.30
   1  11  -2  215.48   12.20
   1  11  -2  203.68   14.50
  -1 -11  -2  236.08   12.50
  -1 -11  -2  233.38   12.70
   1  11  -2  222.78   13.80
 -11   1  -2  223.98   11.90
  -1 -11  -2  237.28   12.80
 -11   1  -2  220.28   11.90
   1  11  -2  230.08   13.00
  -1 -11   2  211.58   14.20
 -11   1   2  212.98   11.40
  -1 -11   2  222.48   12.00
  -1 -11   2  221.28   12.60
  11  -1   2  211.78   14.30
 -11   1   2  233.58   14.50
   1  11   2  221.58   14.40
   1  11   2  236.18   12.00
  -1 -11   2  234.88   12.10
  11  -1   2  223.78   14.00
   1  11   2  226.28   13.80
   1  11   2  219.18   11.70
 -11   1   2  224.48   11.90
   1  11   2  223.98   11.30
  11  -1   2  230.38   12.40
  -1 -11   2  216.78   10.60
  -1 -11   2  238.88   13.20
   1  11   2  218.08   14.10
   3  11  -2   81.29    7.70
 -11   3  -2   79.69    7.50
   3  11  -2   88.39    8.10
   3  11  -2   94.19    8.70
  -3 -11  -2   80.29    6.90
 -11   3  -2   90.69    8.50
  -3 -11  -2   97.39    5.40
   3  11  -2   81.79    8.00
   3  11  -2   76.79    8.80
  11  -3  -2   79.19    6.60
  -3 -11  -2   75.89    7.00
  11  -3  -2   82.19    8.40
  -3 -11  -2   90.89    8.90
  -3 -11  -2   70.69    7.20
   3  11  -2   85.69    4.90
   3  11  -2   89.39    6.10
  -3 -11  -2   84.49    7.50
 -11   3  -2   79.39    6.20
  11  -3   2   70.49    7.30
 -11   3   2   83.89    6.80
   3  11   2   79.39    8.20
 -11   3   2   91.59    9.30
   3  11   2   85.79    8.90
 -11   3   2   76.49    6.70
  -3 -11   2   86.59    6.40
   3  11   2   84.39    9.10
   3  11   2   86.39    7.60
   3  11   2   83.09    6.10
  -3 -11   2   79.49    7.30
  11  -3   2   88.89    8.70
  -3 -11   2   80.49    6.60
  -3 -11   2   92.69    7.90
   3  11   2   82.59    7.20
 -11   5  -2   58.59    7.10
 -11   5  -2   57.09    8.30
 -11   5  -2   54.39    3.50
 -11   5  -2   64.59    4.60
 -11   5  -2   57.89    6.10
  11  -5  -2   61.69    6.50
   5  11  -2   51.39    7.50
   5  11  -2   69.69    7.30
  -5 -11  -2   58.89    6.90
   5  11  -2   59.79    7.60
  -5 -11  -2   56.99    8.70
 -11   5  -2   62.99    5.40
  -5 -11  -2   54.59    6.40
  -5 -11  -2   51.99    5.90
   5  11   2   58.29    4.60
   5  11   2   63.29    8.60
 -11   5   2   59.79    7.00
   5  11   2   55.89    7.10
 -11   5   2   71.39    5.60
  11  -5   2   59.49    6.20
  -5 -11   2   71.09    6.30
 -11   5   2   61.89    6.70
  -5 -11   2   68.29    7.80
   5  11   2   67.29    8.80
 -11   5   2   57.59    6.90
  11  -5   2   54.89    7.50
  -5 -11   2   49.80    6.90
  -5 -11   2   61.49    6.20
  -7 -11  -2  144.09   11.10
   7  11  -2  160.78   12.70
 -11   7  -2  155.38   10.80
  11  -7  -2  177.08   11.00
   7  11  -2  140.19   11.90
 -11   7  -2  154.38   10.00
  -7 -11  -2  140.29   13.50
 -11   7  -2  156.28   12.30
   7  11  -2  145.69   11.40
  -7 -11  -2  162.78    9.30
 -11   7   2  151.98   10.60
  -7 -11   2  149.29   10.10
   7  11   2  147.39   14.40
  -7 -11   2  140.79   13.10
  11  -7   2  176.08    9.90
  -7 -11   2  164.78   10.70
   7  11   2  136.29   12.60
  11  -7   2  163.78   12.20
 -11   7   2  147.59   11.00
 -11   7   2  152.98   10.90
  11  -9  -2  202.78   19.10
 -11   9  -2  146.39   13.70
   9  11  -2  164.58   14.20
   9  11  -2  156.28   12.00
 -11   9  -2  161.68   11.20
 -11   9  -2  158.88   12.00
  -9 -11  -2  150.48   12.20
   9  11  -2  174.58   14.10
 -11   9   2  156.48   12.50
   9  11   2  143.09   13.90
 -11   9   2  182.48   12.30
  -9 -11   2  157.28   11.00
  11  -9   2  149.39   14.60
  -9 -11   2  137.59   11.40
   9  11   2  123.79   16.00
 -12  -8  -2   14.20    6.10
   8 -12  -2    6.30    7.20
   8 -12  -2    3.20    6.10
  12   8  -2   10.90    7.30
  -8  12  -2    3.30    6.30
   8 -12  -2   18.60    4.60
 -12  -8  -2    6.30    4.90
  12   8  -2    2.90    5.70
  -8  12   2   17.80    5.00
  -8  12   2    4.90    5.70
   8 -12   2    5.10    6.30
   8 -12   2   10.80    3.70
 -12  -8   2   13.40    4.80
  12   8   2    7.80    8.10
 -12  -8   2    9.90    4.80
  12   8   2   16.90    3.70
  12   6  -2   21.80    5.60
  -6  12  -2   34.20    4.90
   6 -12  -2   18.90    5.00
 -12  -6  -2   22.70    5.60
   6 -12  -2   26.00    5.20
 -12  -6  -2   26.30    5.30
  12   6  -2   17.80    4.90
   6 -12  -2   38.70    7.40
  -6  12  -2   20.50    5.90
  12   6   2   28.10    6.90
  -6  12   2   40.20    7.00
  -6  12   2   35.30    6.30
 -12  -6   2   24.50    4.80
   6 -12   2   33.10    6.20
   6 -12   2   18.70    5.30
  12   6   2   37.50    7.50
 -12  -6   2   36.10    5.90
  -4  12  -2   36.00    6.40
  -4  12  -2   22.10    5.60
   4 -12  -2   27.90    4.70
  12   4  -2   25.00    5.00
  12   4  -2   30.60    3.80
  12   4  -2   19.40    5.00
 -12  -4  -2   22.80    5.20
 -12  -4  -2   24.00    3.10
   4 -12  -2   29.50    5.70
  -4  12  -2   23.00    4.90
   4 -12  -2   23.10    5.80
   4 -12  -2   22.60    4.70
 -12  -4  -2   15.50    4.30
  -4  12  -2   24.30    5.40
 -12  -4   2   26.50    5.50
 -12  -4   2   23.70    4.10
  -4  12   2   20.00    4.00
 -12  -4   2   17.30    4.50
  12   4   2   30.40    6.30
  -4  12   2   16.50    5.90
  12   4   2   15.70    5.50
 -12  -4   2   19.20    4.20
   4 -12   2   20.00    4.00
   4 -12   2   21.80    4.40
  -4  12   2   27.00    5.50
 -12  -2  -2   16.10    2.90
   2 -12  -2   15.80    3.30
  -2  12  -2   18.30    3.80
  -2  12  -2   19.40    4.50
 -12  -2  -2   22.60    3.80
   2 -12  -2   16.30    5.00
  -2  12  -2   12.80    3.70
  -2  12  -2   28.00    5.70
   2 -12  -2   14.40    3.40
  -2  12  -2   13.30    4.90
 -12  -2  -2   13.40    3.50
  12   2  -2   21.60    3.30
   2 -12  -2   17.90    4.10
 -12  -2  -2   20.00    3.30
   2 -12  -2   11.60    4.30
 -12  -2  -2   22.30    4.30
  -2  12   2   21.80    4.90
  -2  12   2   18.60    3.60
  -2  12   2   12.00    5.20
   2 -12   2   16.50    3.90
 -12  -2   2   23.00    3.70
  12   2   2   21.90    5.10
  -2  12   2   13.30    3.40
 -12  -2   2   17.10    4.20
 -12  -2   2   12.10    4.10
 -12  -2   2   16.00    3.40
 -12  -2   2   15.00    4.20
   2 -12   2   14.40    3.50
 -12  -2   2   12.60    2.20
  12   0  -2    6.80    2.60
   0  12  -2   -2.10    3.50
 -12   0  -2   13.20    3.50
   0  12  -2    2.60    2.90
   0 -12  -2    7.00    3.30
   0  12  -2    6.00    3.30
   0 -12  -2    9.90    3.60
   0  12  -2    0.40    3.80
   0  12  -2    8.30    3.80
   0 -12  -2   10.20    4.50
  12   0  -2    1.10    3.70
 -12   0  -2    9.30    3.30
   0 -12  -2    8.30    3.30
   0 -12  -2    2.10    1.90
   0  12  -2    8.50    4.50
   0 -12  -2    4.00    2.70
 -12   0  -2    6.50    3.10
 -12   0  -2    4.50    3.20
   0 -12   2   11.80    2.40
   0 -12   2    3.90    3.40
   0  12   2    5.90    3.00
  12   0   2    5.50    3.70
 -12   0   2    8.70    3.60
   0 -12   2    6.00    2.90
   0  12   2    6.30    4.40
   0  12   2   11.70    3.80
  12   0   2   11.70    3.70
 -12   0   2    3.90    2.80
   0 -12   2   10.00    3.20
 -12   0   2   12.90    4.40
   0  12   2    5.40    3.60
   0  12   2    6.30    3.10
   2  12  -2   23.70    5.60
   2  12  -2   19.50    4.00
  -2 -12  -2   18.30    3.90
 -12   2  -2   21.00    4.60
  12  -2  -2   12.40    3.10
  -2 -12  -2   12.40    3.40
   2  12  -2   15.40    4.30
   2  12  -2   23.70    5.80
  -2 -12  -2   11.80    5.20
 -12   2  -2   15.90    4.20
  -2 -12  -2   19.70    4.60
   2  12  -2   18.00    3.70
 -12   2  -2   16.40    5.30
  -2 -12  -2    9.70    3.10
  -2 -12  -2   23.40    3.90
 -12   2  -2   15.90    3.80
  -2 -12   2   19.90    5.20
   2  12   2   22.20    4.30
 -12   2   2   16.50    3.70
  12  -2   2   11.20    4.30
 -12   2   2   28.50    6.10
 -12   2   2   13.10    3.90
  -2 -12   2   11.80    3.50
   2  12   2   12.40    5.10
  -2 -12   2   15.20    3.10
   2  12   2   26.50    5.40
  -2 -12   2   26.00    4.80
  -2 -12   2   13.50    3.10
   2  12   2    9.80    4.50
   4  12  -2   19.40    4.40
   4  12  -2   28.80    5.30
  -4 -12  -2   24.50    5.00
  -4 -12  -2   23.00    6.00
   4  12  -2   24.60    5.20
 -12   4  -2   19.20    4.60
 -12   4  -2   28.60    4.90
 -12   4  -2   25.80    5.70
  -4 -12  -2   26.70    4.30
   4  12  -2   31.80    5.70
 -12   4  -2   26.50    4.10
  -4 -12  -2   26.60    4.60
  12  -4   2   29.20    5.70
 -12   4   2   30.80    5.40
   4  12   2   17.80    5.70
 -12   4   2   15.90    5.30
 -12   4   2   41.30    6.50
   4  12   2   20.20    5.10
   4  12   2   28.90    5.60
   4  12   2   35.00    4.80
  -4 -12   2   23.70    4.10
  -4 -12   2   26.40    6.00
 -12   4   2   27.00    4.70
  -4 -12   2   19.90    4.60
   6  12  -2   22.60    6.00
 -12   6  -2   12.10    5.50
 -12   6  -2   26.00    5.10
  -6 -12  -2   24.90    6.40
  -6 -12  -2   25.60    4.60
   6  12  -2   22.00    5.90
   6  12  -2   17.00    4.80
 -12   6  -2   30.80    5.90
  -6 -12  -2   20.50    5.10
  12  -6  -2   33.50    6.70
 -12   6   2   27.10    5.60
 -12   6   2   28.70    5.20
 -12   6   2   30.80    5.90
  -6 -12   2   25.20    4.40
 -12   6   2   32.10    9.40
  -6 -12   2   32.70    5.90
   6  12   2   18.00    6.80
   6  12   2   20.30    6.80
  12  -6   2   19.40    5.00
 -12   6   2   26.40    4.50
  -6 -12   2   29.90    6.50
  -8 -12  -2   22.10    5.20
   8  12  -2   13.10    6.90
 -12   8  -2   15.40    5.00
  -8 -12  -2    5.90    5.80
  12  -8  -2   41.40   18.60
 -12   8  -2   17.90    5.50
   8  12  -2   13.30    6.00
 -12   8  -2   13.00    6.40
   8  12  -2   15.30    5.20
  12  -8   2    8.80    6.60
  -8 -12   2   16.30    4.40
  -8 -12   2    3.30    4.30
   8  12   2   11.60    8.50
 -12   8   2    2.80    5.50
   8  12   2   28.00    7.10
 -12   8   2   11.90    5.30
 -13  -7  -2  129.49   12.60
 -13  -7  -2  152.08   13.80
   7 -13  -2  131.99   15.50
   7 -13  -2  154.38   11.80
  13   7  -2  132.09   14.50
   7 -13  -2  114.69   11.20
  -7  13  -2  141.89   10.60
  -7  13  -2  130.89   12.90
  -7  13   2  130.79   13.60
 -13  -7   2  149.19   12.60
  -7  13   2  149.19   11.90
   7 -13   2  135.59   10.20
 -13  -7   2  150.18   12.10
   7 -13   2  120.19   13.10
  13   7   2  126.59   16.90
 -13  -5  -2  276.97   17.30
   5 -13  -2  269.57   14.90
 -13  -5  -2  264.57   16.30
   5 -13  -2  244.28   15.50
   5 -13  -2  264.57   18.50
  -5  13  -2  273.07   16.60
  -5  13  -2  256.47   18.50
  13   5  -2  266.57   17.10
   5 -13  -2  256.17   15.20
  13   5   2  251.97   16.80
   5 -13   2  248.58   14.60
 -13  -5   2  296.87   16.10
  -5  13   2  271.47   15.30
  -5  13   2  281.97   17.10
 -13  -5   2  264.07   15.80
  13   5   2  251.77   18.50
   5 -13   2  256.27   16.20
   3 -13  -2  176.08   12.10
   3 -13  -2  182.98   12.50
  -3  13  -2  194.48   13.80
  13   3  -2  197.88    9.70
  -3  13  -2  207.08   19.50
 -13  -3  -2  183.18   13.20
 -13  -3  -2  184.08   12.50
  -3  13  -2  199.28   10.80
  -3  13  -2  196.08   11.40
   3 -13  -2  193.98   14.00
 -13  -3  -2  196.28   13.50
   3 -13  -2  177.28   14.30
 -13  -3  -2  189.88   13.70
   3 -13   2  188.08   12.50
 -13  -3   2  182.98   11.20
  -3  13   2  190.38   11.90
  -3  13   2  221.58   26.40
  -3  13   2  183.18   13.70
 -13  -3   2  198.08   13.70
 -13  -3   2  192.98   13.30
  13   3   2  195.68   13.80
   3 -13   2  190.98   12.40
 -13  -1  -2   75.39    9.20
  -1  13  -2   80.29    7.90
   1 -13  -2   61.99    9.60
  -1  13  -2   73.79    9.00
   1 -13  -2   68.89    7.40
  -1  13  -2   75.69    7.20
  -1  13  -2   68.29    7.70
 -13  -1  -2   83.09    5.10
   1 -13  -2   90.29    9.40
   1 -13  -2   82.79    8.20
   1 -13  -2   69.49    6.20
 -13  -1  -2   77.49    8.60
  -1  13  -2   84.59   10.30
 -13  -1  -2   70.29    6.90
  13   1  -2   75.39    6.50
  -1  13  -2   89.99    6.30
 -13  -1  -2   94.09    7.80
 -13  -1   2   73.19    8.70
  -1  13   2   95.39   11.60
  13   1   2   79.69    8.40
  -1  13   2   80.39    7.60
  -1  13   2   70.09    6.80
 -13  -1   2   77.59    8.70
 -13  -1   2   77.69    7.10
  -1  13   2   67.69    9.70
   1 -13   2   89.09    7.50
 -13  -1   2   81.69    7.80
   1 -13   2   66.59    8.00
 -13  -1   2   74.49    9.80
   1 -13   2   79.79    8.80
 -13   1  -2   67.89   10.50
   1  13  -2   68.39    8.20
 -13   1  -2   71.59    8.50
  13  -1  -2   69.59    6.50
   1  13  -2   65.99    8.80
  -1 -13  -2   64.29    6.10
   1  13  -2   74.69    8.40
   1  13  -2   82.09    5.90
  -1 -13  -2   86.99   10.10
 -13   1  -2   74.89    7.00
  -1 -13  -2   74.09    8.20
   1  13  -2   73.89    7.20
  -1 -13  -2   80.29    8.60
   1  13  -2   88.89   10.80
 -13   1  -2   63.79    8.80
 -13   1  -2   71.99    7.80
  -1 -13  -2   72.19    5.70
  -1 -13   2   74.79    7.80
  13  -1   2   81.29    8.10
  -1 -13   2   81.39    8.10
   1  13   2   72.99    6.80
   1  13   2   64.29   10.90
  -1 -13   2   74.29    6.30
 -13   1   2   76.59    8.20
 -13   1   2   61.69    6.90
   1  13   2   79.09    7.60
 -13   1   2   70.99   10.20
   1  13   2   72.29   10.30
   1  13   2   76.09    6.90
  -1 -13   2   61.69    8.40
 -13   1   2   80.29    9.10
   3  13  -2  192.28   10.70
  -3 -13  -2  183.88   12.70
   3  13  -2  176.98   13.70
  -3 -13  -2  200.28   12.50
   3  13  -2  202.68   13.80
  -3 -13  -2  201.38   14.90
  -3 -13  -2  191.28   12.20
   3  13  -2  219.98   12.50
 -13   3  -2  187.08   11.80
 -13   3  -2  200.18   13.20
 -13   3  -2  190.78   14.70
 -13   3  -2  170.08   12.50
   3  13  -2  187.28   13.00
   3  13   2  180.98   14.50
 -13   3   2  190.08   11.90
 -13   3   2  198.08   12.10
   3  13   2  188.68   10.40
   3  13   2  162.48   12.20
 -13   3   2  195.98   15.00
 -13   3   2  184.68   11.70
   3  13   2  186.48   14.80
  13  -3   2  194.78   12.80
  -3 -13   2  186.28   10.80
  -3 -13   2  193.28   12.50
  -3 -13   2  203.78   13.30
  -3 -13   2  184.08   11.80
  -3 -13   2  188.58   13.20
 -13   5  -2  258.27   14.20
  -5 -13  -2  249.48   15.50
 -13   5  -2  242.18   17.10
   5  13  -2  281.27   16.70
  -5 -13  -2  282.37   15.70
 -13   5  -2  250.27   14.20
 -13   5  -2  259.37   15.60
   5  13  -2  267.17   16.90
  -5 -13  -2  265.27   18.20
   5  13  -2  254.67   17.10
  -5 -13  -2  273.57   14.80
  -5 -13   2  256.87   14.20
  -5 -13   2  249.88   14.40
  13  -5   2  278.77   15.40
  -5 -13   2  270.07   16.20
   5  13   2  286.47   18.90
 -13   5   2  220.58   14.90
 -13   5   2  256.37   14.00
  -5 -13   2  268.67   16.60
 -13   5   2  245.38   15.80
 -13   5   2  259.47   15.50
   5  13   2  264.77   18.90
 -13   5   2  271.27   18.50
   5  13   2  272.67   16.00
 -13   7  -2  145.19   10.70
   7  13  -2  155.58   13.70
  -7 -13  -2  152.08   11.70
   7  13  -2  130.19   13.90
  -7 -13  -2  128.49   12.10
 -13   7  -2  151.58   14.00
   7  13  -2  137.69   15.20
 -13   7  -2  159.58   13.10
 -13   7   2  138.69   12.30
   7  13   2  121.59   16.70
 -13   7   2  150.98   12.90
  -7 -13   2  143.39   11.50
  -7 -13   2  166.68   11.90
   7  13   2  174.28   16.20
   4 -14  -2   -7.50    5.70
 -14  -4  -2   -0.50    5.50
  -4  14  -2   -2.90    3.90
 -14  -4  -2    6.40    5.00
   4 -14  -2   -3.60    6.30
  -4  14  -2    4.10    6.00
   4 -14  -2    0.20    6.80
  -4  14   2   -6.40    6.20
  -4  14   2   -3.70    4.80
 -14  -4   2   -1.00    5.90
   4 -14   2    4.90    5.10
 -14  -4   2   -7.00    5.10
  14   4   2    0.90    7.20
   4 -14   2   -5.80    4.90
 -14  -2  -2   59.69    9.20
   2 -14  -2   67.89   11.30
  -2  14  -2   73.59    8.90
   2 -14  -2   49.30    6.70
  14   2  -2   65.69    6.00
   2 -14  -2   59.49   11.00
 -14  -2  -2   65.59    7.50
 -14  -2  -2   46.90    7.10
 -14  -2  -2   65.99   10.40
  -2  14  -2   65.19   10.60
  -2  14  -2   65.29    6.70
 -14  -2   2   78.39   10.00
   2 -14   2   76.49    9.30
   2 -14   2   67.99    9.60
 -14  -2   2   69.39   11.30
  14   2   2   66.29    9.90
  -2  14   2   57.19    8.30
  -2  14   2   77.99   10.80
   0 -14  -2  132.89   13.70
   0 -14  -2  146.79   12.00
   0  14  -2  149.88   11.60
   0  14  -2  157.18   11.60
 -14   0  -2  146.79   10.00
   0  14  -2  160.98   13.10
   0  14  -2  179.68   15.20
   0  14  -2  155.48   10.50
   0 -14  -2  154.08    9.60
 -14   0  -2  139.79   12.20
 -14   0  -2  130.59   19.20
   0 -14  -2  162.48   12.90
  14   0  -2  163.08    9.40
 -14   0  -2  162.18   12.00
   0  14  -2  154.18    9.20
   0 -14   2  150.88   11.40
   0  14   2  169.98   14.60
 -14   0   2  170.48   14.50
 -14   0   2  142.29   10.40
  14   0   2  147.99   11.60
 -14   0   2  157.88   10.30
 -14   0   2  152.88   12.30
   0 -14   2  150.88   12.70
   0  14   2  162.58   15.60
 -14   0   2  154.68   12.20
   0  14   2  162.18   10.70
   0  14   2  144.89   10.30
  -2 -14  -2   67.99    9.40
  -2 -14  -2   92.29   12.00
  -2 -14  -2   64.19    9.40
   2  14  -2   58.49    7.20
   2  14  -2   63.59    9.90
 -14   2  -2   72.19    9.00
 -14   2  -2   51.69    8.90
   2  14  -2   88.89   10.70
 -14   2  -2   75.59   10.80
 -14   2  -2   54.59   10.20
   2  14  -2   66.89   10.80
  -2 -14   2   69.99   10.50
  -2 -14   2   78.39    7.40
 -14   2   2   66.49    9.50
   2  14   2  104.69   14.00
 -14   2   2   79.09   10.40
   2  14   2   86.59   13.10
  -2 -14   2   67.99    8.50
   2  14   2   78.79   14.40
 -14   2   2   67.69    8.70
 -14   2   2   63.19   10.10
   2  14   2   70.19   11.70
 -14   2   2   54.79    7.30
 -14   4  -2   19.80    7.00
   4  14  -2    4.10    6.40
  -4 -14  -2    6.50    5.10
 -14   4  -2   -9.60    5.30
  -4 -14  -2    5.10    5.50
 -14   4  -2    4.60    6.80
  -4 -14  -2    1.10    6.60
   4  14  -2   -9.80    5.30
 -14   4  -2   -1.00    5.00
  -4 -14  -2    5.70    5.10
  -4 -14  -2    4.60    4.70
   4  14  -2   -6.20    6.20
   4  14   2   -8.30    8.50
 -14   4   2    3.20    4.70
  -4 -14   2   -4.40    5.20
  -4 -14   2    2.90    6.30
  -4 -14   2    7.70    6.40
   4  14   2   -3.30    5.30
 -14   4   2   18.00    5.60
  -4 -14   2    4.20    4.30
 -14   4   2    2.10    5.30
   4  14   2    7.60    7.80
  -4 -14   2    3.50    4.30
 -14   4   2   -4.50    7.60
   0  -1  -3  983.40   36.30
   1   0  -3  797.62   36.00
  -1   0  -3  904.41   35.80
   0   1  -3 1006.30   35.40
  -1   0  -3  919.41   36.20
   0   1  -3  961.20   36.30
   0   1  -3 1018.20   36.20
   1   0  -3  909.91   36.20
   1   0  -3  856.81   35.80
   0   1  -3  986.60   36.00
  -1   0  -3  917.01   36.30
   0   1  -3  940.01   36.60
   0  -1  -3  960.80   36.70
  -1   0  -3  945.11   36.00
   0   1  -3 1033.20   36.00
   0  -1  -3 1028.60   35.90
   1   0  -3  967.70   35.70
   0  -1  -3  953.60   36.30
   0   1  -3 1051.89   36.70
   1   0  -3  846.82   36.00
   0  -1  -3  939.41   35.90
   0  -1   3  902.71   36.50
   0   1   3  915.21   35.60
   0   1   3  879.41   35.80
   1   0   3  994.40   36.90
   1   0   3 1053.19   35.80
   0   1   3  958.60   35.50
   0   1   3  950.90   36.90
   0   1   3  929.91   36.80
   0   1   3  913.51   35.40
   0  -1   3  912.71   37.10
   0  -1   3  940.31   35.90
   1   0   3 1017.00   35.20
  -1   0   3  973.90   36.10
  -1   0   3  983.30   37.50
   1   0   3  966.70   36.70
   1   0   3 1001.70   36.00
   0  -1   3  889.41   35.70
  -1   0   3  969.50   36.00
   0  -1   3  909.21   35.50
  -1   0   3 1020.00   35.40
  -1   0   3 1019.80   36.10
   1   0   3 1026.30   36.40
  -2  -1  -3  967.90   36.30
  -1   2  -3  904.61   35.50
  -2  -1  -3 1029.00   36.70
   2   1  -3 1017.30   37.70
   1  -2  -3  909.41   36.30
   2   1  -3  916.01   36.40
  -1   2  -3  938.51   36.70
   1  -2  -3  921.11   35.70
   1  -2  -3  915.61   36.70
   2   1  -3  987.20   36.60
  -1   2  -3  934.81   36.30
  -1   2  -3  948.41   35.50
   2   1  -3  933.61   36.60
  -1   2  -3  920.31   36.60
   2   1  -3  959.50   36.60
  -2  -1  -3  948.11   36.30
   2   1  -3 1041.50   35.80
   1  -2  -3  974.30   35.60
   1  -2  -3  884.81   36.70
  -1   2  -3  910.71   36.00
  -2  -1  -3 1027.60   36.50
  -2  -1   3  981.70   35.70
   2   1   3  921.31   36.60
   2   1   3  920.91   36.90
   1  -2   3 1000.60   37.20
   1  -2   3 1026.30   36.20
   2   1   3  923.11   36.90
  -2  -1   3  901.31   35.80
   1  -2   3  945.51   36.60
  -2  -1   3  928.61   37.70
  -2  -1   3  892.51   36.50
  -1   2   3 1061.79   34.90
   2   1   3  972.40   34.90
   2   1   3  981.80   35.40
  -1   2   3  968.70   36.50
   1  -2   3  962.00   36.10
  -1   2   3  969.00   36.40
   2   1   3  908.21   36.00
  -1   2   3  998.70   36.10
   1  -2   3  973.70   35.50
   1  -2   3 1017.30   37.20
  -1   2   3 1018.90   37.30
   2   1   3  971.10   36.90
  -2  -1   3  932.81   36.30
   1   2  -3  972.60   35.10
  -2   1  -3  965.80   36.70
   2  -1  -3  890.11   36.70
   2  -1  -3 1022.30   36.70
   2  -1  -3  950.00   36.00
   2  -1  -3  915.71   36.60
  -1  -2  -3  968.90   36.30
   1   2  -3  920.31   36.00
   1   2  -3  879.11   36.50
  -2   1  -3  982.60   36.20
   1   2  -3  958.60   36.20
  -1  -2  -3  909.01   35.90
   2  -1  -3  995.20   34.40
   2  -1  -3 1044.70   37.50
  -1  -2  -3  903.21   36.40
  -1  -2  -3  953.50   36.90
  -2   1  -3  967.80   35.60
   1   2  -3  895.31   36.60
   1   2  -3  895.61   36.50
  -2   1  -3  897.31   36.40
   1   2  -3  929.31   36.70
  -1  -2  -3  994.30   36.30
  -2   1   3  968.20   34.50
   1   2   3  977.90   36.30
   2  -1   3  944.61   36.90
  -1  -2   3 1050.49   36.60
   2  -1   3  926.41   34.90
   1   2   3  986.90   37.20
   2  -1   3  892.41   35.90
   2  -1   3  897.71   36.60
   1   2   3 1020.70   36.20
  -2   1   3  874.61   36.60
   2  -1   3  960.90   35.40
  -2   1   3  965.40   37.60
   1   2   3 1032.10   35.80
   1   2   3 1001.00   35.70
  -1  -2   3  989.80   36.00
  -1  -2   3  987.90   36.50
  -1  -2   3  949.11   36.20
  -1  -2   3 1023.60   38.00
   1   2   3  945.51   36.10
  -1  -2   3 1038.50   37.00
  -2   1   3  929.61   36.20
   2  -1   3  959.20   37.20
  -2   1   3  919.31   36.00
   1   2   3 1003.40   37.00
  -3  -2  -3  543.65   21.70
   3   2  -3  533.75   21.90
   3   2  -3  500.65   21.70
   3   2  -3  556.64   20.60
   2  -3  -3  524.15   21.60
  -2   3  -3  544.95   21.70
  -2   3  -3  532.95   21.70
  -2   3  -3  543.35   22.20
  -2   3  -3  533.35   22.10
  -3  -2  -3  551.64   21.50
   2  -3  -3  504.25   22.10
   2  -3  -3  540.85   22.30
  -3  -2  -3  529.65   21.50
   3   2  -3  501.35   21.50
   2  -3  -3  552.14   20.50
   3   2  -3  551.34   21.60
  -2   3  -3  578.94   20.70
   3   2  -3  500.25   23.00
  -3  -2  -3  540.75   21.80
   3   2   3  532.25   21.30
   2  -3   3  563.74   20.90
   3   2   3  520.85   22.10
  -2   3   3  528.85   22.20
  -2   3   3  517.85   21.60
  -3  -2   3  514.45   22.10
   3   2   3  540.35   22.60
  -2   3   3  526.85   21.30
   2  -3   3  510.65   21.30
   2  -3   3  516.15   20.60
   2  -3   3  556.94   23.00
   2  -3   3  539.75   21.90
   3   2   3  550.24   22.40
   3   2   3  556.74   22.40
  -3  -2   3  548.05   21.10
   2  -3   3  523.75   21.70
   3   2   3  549.15   20.60
  -3  -2   3  572.04   21.60
  -3  -2   3  533.95   21.70
  -2   3   3  554.64   20.60
  -3   0  -3  580.94   22.20
   3   0  -3  543.65   22.60
   0  -3  -3  574.74   23.30
   0   3  -3  538.45   21.70
   0  -3  -3  573.24   22.60
   3   0  -3  588.54   24.20
   0  -3  -3  588.54   22.30
  -3   0  -3  542.75   22.60
  -3   0  -3  594.44   22.60
   3   0  -3  549.45   22.30
   3   0  -3  558.84   22.60
   0   3  -3  555.64   23.10
   0   3  -3  588.24   22.90
   0   3  -3  500.95   22.80
   0  -3  -3  564.84   22.00
   0   3  -3  556.94   23.10
  -3   0  -3  587.34   22.90
   0  -3  -3  563.34   23.10
   3   0  -3  556.94   23.10
   0   3  -3  554.64   22.00
   3   0   3  554.84   23.60
   0   3   3  583.54   22.40
   0  -3   3  557.14   22.10
   0  -3   3  538.95   22.80
   3   0   3  583.14   21.10
  -3   0   3  538.45   22.20
   0   3   3  542.25   23.20
   0   3   3  593.14   22.70
   0   3   3  578.04   22.60
   0   3   3  584.54   23.10
   0  -3   3  561.24   22.10
  -3   0   3  603.14   21.40
   3   0   3  564.14   22.40
   3   0   3  562.84   23.30
   3   0   3  584.74   23.40
   0  -3   3  602.24   23.50
  -3   0   3  560.34   22.40
  -3   0   3  546.85   23.20
   3   0   3  543.25   22.90
   0   3   3  610.34   22.40
   0  -3   3  603.24   22.90
  -3   0   3  523.55   23.80
   0  -3   3  607.24   23.90
   3  -2  -3  515.55   20.60
   3  -2  -3  523.95   21.70
  -3   2  -3  521.25   21.20
   2   3  -3  502.45   21.70
  -3   2  -3  516.55   21.90
   2   3  -3  556.84   23.00
   2   3  -3  500.85   21.20
  -3   2  -3  539.35   22.00
  -2  -3  -3  553.74   21.40
   3  -2  -3  482.85   22.00
   2   3  -3  544.25   21.70
  -2  -3  -3  566.64   21.30
  -2  -3  -3  543.65   21.50
   3  -2  -3  533.55   21.60
   2   3  -3  576.94   21.50
   3  -2  -3  509.55   22.70
  -3   2  -3  512.25   21.90
   2   3  -3  548.35   22.10
  -2  -3  -3  569.24   22.20
  -2  -3  -3  494.75   21.90
   2   3  -3  526.05   20.30
  -3   2  -3  534.15   20.30
   3  -2   3  535.55   21.50
  -2  -3   3  518.95   23.20
   2   3   3  520.55   22.00
   2   3   3  557.14   21.90
   2   3   3  506.95   21.20
  -3   2   3  550.64   21.20
  -2  -3   3  526.05   21.80
   2   3   3  527.35   22.30
   3  -2   3  535.35   22.90
   2   3   3  556.34   20.80
   3  -2   3  547.95   21.90
   3  -2   3  520.05   21.20
   3  -2   3  543.05   20.20
  -2  -3   3  554.84   22.10
  -3   2   3  527.95   22.30
   2   3   3  538.95   21.10
  -2  -3   3  532.95   20.80
   2   3   3  538.45   22.40
  -3   2   3  568.74   21.70
  -2  -3   3  541.75   21.80
  -3   2   3  555.34   22.80
  -4  -3  -3  602.14   23.70
   4   3  -3  596.74   24.30
  -4  -3  -3  638.74   24.30
  -3   4  -3  591.44   24.30
  -4  -3  -3  608.54   24.30
  -3   4  -3  564.64   24.50
  -4  -3  -3  648.44   23.60
  -3   4  -3  613.64   22.80
   4   3  -3  612.54   24.40
   4   3  -3  602.84   23.90
   3  -4  -3  563.84   24.10
  -3   4  -3  578.34   23.70
   3  -4  -3  577.54   24.70
  -3   4  -3  556.04   24.20
   4   3  -3  633.24   26.50
   4   3  -3  633.84   22.40
   3  -4  -3  553.64   23.70
   4   3  -3  609.84   23.70
   3  -4   3  591.74   23.60
   4   3   3  561.14   23.10
  -4  -3   3  573.44   24.40
   4   3   3  565.64   24.40
   3  -4   3  650.93   24.10
   3  -4   3  564.04   23.40
   4   3   3  594.34   23.30
   3  -4   3  608.44   25.70
  -4  -3   3  579.54   24.10
   4   3   3  576.94   24.80
   4   3   3  506.05   22.00
   4   3   3  549.85   24.90
  -3   4   3  629.14   22.90
  -3   4   3  588.74   24.00
  -4  -3   3  589.44   22.90
   4   3   3  584.74   25.00
  -3   4   3  593.64   23.40
  -4  -3   3  559.64   26.00
  -3   4   3  639.74   24.50
  -4  -3   3  580.64   24.00
   3  -4   3  589.54   22.90
   4   1  -3  614.84   25.10
  -1   4  -3  650.63   25.20
   1  -4  -3  648.94   26.00
   1  -4  -3  686.33   24.60
  -4  -1  -3  603.34   25.00
   1  -4  -3  651.33   24.00
  -1   4  -3  670.93   25.70
  -1   4  -3  651.53   25.90
  -4  -1  -3  585.74   25.30
  -1   4  -3  615.54   25.60
  -1   4  -3  725.53   25.50
   1  -4  -3  671.83   25.30
  -1   4  -3  648.64   25.80
  -4  -1  -3  596.04   24.80
  -4  -1  -3  632.84   25.30
   1  -4  -3  681.13   23.80
   4   1  -3  564.14   25.60
   4   1  -3  581.64   25.00
   4   1  -3  589.74   27.10
   4   1  -3  602.04   24.90
   1  -4  -3  653.23   26.10
   4   1   3  650.83   26.70
   4   1   3  654.63   25.00
   1  -4   3  622.04   26.50
  -1   4   3  612.64   25.40
   1  -4   3  582.94   25.20
  -4  -1   3  673.23   25.00
   4   1   3  650.93   26.50
  -1   4   3  615.74   24.80
   1  -4   3  593.24   24.60
   1  -4   3  643.14   25.90
   4   1   3  637.04   26.40
  -4  -1   3  655.53   26.20
  -4  -1   3  695.33   24.70
   1  -4   3  603.84   24.70
  -1   4   3  611.44   24.70
   4   1   3  656.03   25.60
   1  -4   3  650.93   25.10
  -4  -1   3  656.53   25.00
  -4  -1   3  669.83   24.90
   4   1   3  715.03   23.80
  -1   4   3  599.64   25.60
  -1   4   3  595.24   25.20
  -1  -4  -3  654.13   24.30
  -1  -4  -3  645.24   25.80
   1   4  -3  654.13   26.10
   4  -1  -3  596.94   24.20
   4  -1  -3  583.74   24.50
  -4   1  -3  600.04   23.90
   1   4  -3  611.94   25.40
  -4   1  -3  602.94   24.30
  -1  -4  -3  676.63   24.70
  -4   1  -3  614.74   25.20
   1   4  -3  621.84   24.20
  -4   1  -3  622.14   24.30
   1   4  -3  616.74   24.20
   1   4  -3  661.73   25.70
   4  -1  -3  621.74   25.00
  -1  -4  -3  663.83   24.70
   1   4  -3  581.64   25.00
   4  -1  -3  600.94   25.60
  -1  -4  -3  675.03   25.80
  -4   1  -3  572.04   24.90
  -1  -4  -3  652.23   24.30
   4  -1  -3  586.74   26.40
   1   4  -3  674.73   25.60
   4  -1   3  662.93   26.80
   4  -1   3  620.94   24.70
  -4   1   3  648.04   26.60
   1   4   3  623.34   25.60
  -1  -4   3  577.24   25.00
  -1  -4   3  627.64   26.30
   4  -1   3  655.13   24.80
  -1  -4   3  635.14   26.00
  -4   1   3  682.43   25.00
   4  -1   3  646.14   25.70
  -1  -4   3  583.54   24.60
   1   4   3  595.64   25.80
   1   4   3  606.04   24.70
   1   4   3  635.14   25.30
   1   4   3  631.14   24.40
  -4   1   3  654.73   24.40
   1   4   3  599.44   24.90
  -4   1   3  632.64   26.10
  -4   1   3  681.13   24.30
  -1  -4   3  619.24   25.30
  -1  -4   3  600.24   24.10
  -3  -4  -3  590.54   23.90
   3   4  -3  592.34   26.10
  -4   3  -3  596.54   24.80
   3   4  -3  568.64   23.90
   4  -3  -3  613.94   24.30
  -4   3  -3  607.94   24.90
  -3  -4  -3  594.04   24.10
   3   4  -3  612.64   23.70
  -4   3  -3  621.44   23.70
  -3  -4  -3  634.74   23.60
   3   4  -3  576.84   23.00
  -4   3  -3  619.24   24.60
  -3  -4  -3  576.74   24.60
   3   4  -3  573.94   24.60
   4  -3  -3  613.54   25.20
   3   4  -3  575.24   24.30
   4  -3  -3  591.04   24.10
   4  -3  -3  621.54   22.60
  -3  -4   3  588.04   24.50
   3   4   3  609.04   23.70
   3   4   3  617.74   25.20
   4  -3   3  595.94   26.10
  -4   3   3  588.74   23.40
   4  -3   3  570.94   22.90
   3   4   3  633.44   23.10
  -4   3   3  597.14   22.40
  -3  -4   3  617.04   25.00
  -4   3   3  579.04   24.10
   4  -3   3  568.64   23.70
  -3  -4   3  601.94   23.00
   4  -3   3  579.94   24.30
  -3  -4   3  623.54   26.40
   3   4   3  644.64   25.60
  -4   3   3  555.34   23.30
  -3  -4   3  613.64   24.50
  -4   3   3  585.44   25.00
   3   4   3  626.24   25.40
   3   4   3  631.94   24.20
   4  -3   3  566.24   23.50
   4  -5  -3  783.12   30.50
  -4   5  -3  803.72   31.00
  -5  -4  -3  728.33   29.80
   5   4  -3  749.33   33.30
  -5  -4  -3  746.73   30.40
   5   4  -3  715.93   28.80
   5   4  -3  706.63   30.50
  -4   5  -3  791.82   30.00
   4  -5  -3  759.72   31.10
  -4   5  -3  797.02   30.70
   5   4  -3  747.23   29.40
   4  -5  -3  769.72   30.20
   5   4  -3  722.93   29.70
  -4   5  -3  789.12   31.30
  -5  -4  -3  768.62   29.00
  -5  -4  -3  740.23   30.60
   4  -5   3  709.73   29.60
   5   4   3  796.92   30.10
  -4   5   3  739.03   29.00
   5   4   3  802.02   31.90
   5   4   3  755.02   32.00
  -4   5   3  750.62   30.10
   4  -5   3  759.42   29.60
  -5  -4   3  741.73   30.20
  -4   5   3  729.53   30.10
  -5  -4   3  793.42   30.90
   4  -5   3  715.53   29.20
  -5  -4   3  811.22   28.70
   4  -5   3  722.73   29.20
  -5  -4   3  785.12   31.00
  -4   5   3  717.93   29.40
   4  -5   3  679.53   31.80
   5   4   3  794.52   31.00
   5   4   3  799.02   29.20
   5   2  -3  409.06   18.40
   5   2  -3  438.66   18.00
   5   2  -3  404.36   17.70
  -2   5  -3  447.06   18.20
   2  -5  -3  419.96   18.10
   2  -5  -3  435.66   19.00
  -2   5  -3  446.96   19.20
   5   2  -3  419.36   18.80
   2  -5  -3  446.66   16.70
   5   2  -3  409.56   20.70
  -2   5  -3  423.06   18.50
   2  -5  -3  421.66   18.90
  -5  -2  -3  450.05   18.10
  -5  -2  -3  431.06   18.40
  -5  -2  -3  429.26   18.00
   2  -5  -3  417.96   19.00
  -5  -2  -3  443.76   18.80
  -2   5  -3  424.26   18.80
  -2   5  -3  436.86   18.60
   2  -5   3  421.36   18.10
   2  -5   3  419.36   17.60
   2  -5   3  452.05   17.80
   5   2   3  424.96   19.80
  -5  -2   3  453.85   18.30
  -5  -2   3  434.06   19.30
   2  -5   3  449.66   18.40
   2  -5   3  447.06   20.10
   5   2   3  460.45   17.50
  -5  -2   3  438.86   17.60
   5   2   3  421.26   17.60
  -5  -2   3  426.16   18.00
   5   2   3  433.66   19.80
   2  -5   3  421.76   17.80
  -2   5   3  420.26   18.30
   5   2   3  444.16   19.80
  -2   5   3  424.46   17.80
  -5  -2   3  433.36   17.90
  -2   5   3  428.86   17.80
  -2   5   3  445.96   19.30
  -2   5   3  452.55   18.30
   0   5  -3  459.75   20.50
   0  -5  -3  499.55   19.20
   0  -5  -3  484.85   19.60
  -5   0  -3  513.55   20.30
   5   0  -3  478.35   19.90
   5   0  -3  493.45   19.80
   0   5  -3  479.95   20.60
   0  -5  -3  475.75   20.70
   5   0  -3  478.85   22.30
   0   5  -3  469.65   20.70
  -5   0  -3  494.55   19.40
   0  -5  -3  472.65   18.80
   0   5  -3  485.35   19.80
  -5   0  -3  485.05   20.40
   0  -5  -3  474.45   19.90
   0  -5  -3  495.25   19.60
   5   0  -3  492.35   19.30
   0   5  -3  466.75   20.30
   5   0  -3  442.96   20.60
  -5   0  -3  516.95   19.70
   0   5  -3  491.95   20.80
   0  -5  -3  451.65   20.60
   0  -5   3  482.15   19.30
  -5   0   3  488.05   19.70
   0   5   3  506.75   20.40
   0   5   3  520.05   20.40
  -5   0   3  442.16   20.90
  -5   0   3  468.15   19.20
   0  -5   3  465.05   19.60
  -5   0   3  455.35   21.80
  -5   0   3  504.85   18.90
   0  -5   3  511.75   21.10
   5   0   3  453.85   19.50
   0  -5   3  472.15   20.00
   5   0   3  453.65   19.60
   0   5   3  504.15   19.70
   0   5   3  491.25   20.00
   0  -5   3  537.45   20.70
   5   0   3  464.75   21.70
   0  -5   3  503.45   21.50
   0   5   3  489.85   21.10
  -5   0   3  504.95   19.30
   5   0   3  472.65   21.20
   0   5   3  504.75   20.70
  -2  -5  -3  413.76   19.00
  -5   2  -3  444.66   18.90
  -2  -5  -3  441.76   18.00
   5  -2  -3  408.46   19.10
  -2  -5  -3  458.45   17.70
  -2  -5  -3  438.66   17.40
   2   5  -3  442.46   17.80
   5  -2  -3  439.76   17.40
  -5   2  -3  456.45   17.60
   2   5  -3  433.16   19.00
   5  -2  -3  440.56   17.30
  -5   2  -3  426.46   18.60
   5  -2  -3  399.66   17.50
   5  -2  -3  438.26   18.40
  -2  -5  -3  436.96   18.20
   2   5  -3  432.16   20.10
   2   5  -3  431.56   18.80
  -5   2  -3  432.66   17.00
  -2  -5  -3  445.66   19.30
  -5   2  -3  427.66   17.50
   2   5  -3  443.76   18.60
   2   5  -3  464.05   18.70
  -5   2   3  425.76   19.60
   5  -2   3  443.86   19.10
   5  -2   3  423.06   18.10
  -5   2   3  442.16   18.30
   2   5   3  443.06   19.50
   5  -2   3  416.76   17.40
   5  -2   3  442.66   20.40
   2   5   3  422.86   18.60
  -2  -5   3  412.36   18.40
  -5   2   3  418.66   17.40
  -5   2   3  454.25   17.40
  -2  -5   3  417.46   17.10
  -2  -5   3  430.26   20.00
  -2  -5   3  428.26   18.30
   5  -2   3  443.26   17.00
  -5   2   3  436.86   19.80
  -2  -5   3  420.26   19.40
   2   5   3  449.86   19.40
  -2  -5   3  426.26   18.90
   2   5   3  451.95   17.80
   2   5   3  435.46   19.20
   2   5   3  425.56   17.90
  -5   4  -3  704.43   29.60
  -5   4  -3  721.73   30.80
   5  -4  -3  716.33   29.90
   4   5  -3  807.52   29.60
  -5   4  -3  730.83   30.00
   4   5  -3  780.62   29.60
   4   5  -3  788.92   31.30
   4   5  -3  785.12   30.80
   4   5  -3  773.52   29.90
   5  -4  -3  831.32   31.80
   4   5  -3  803.02   33.70
  -5   4  -3  759.82   28.60
  -4  -5  -3  788.22   31.30
  -4  -5  -3  857.41   29.40
  -4  -5  -3  774.72   30.30
   5  -4  -3  763.72   29.40
  -5   4  -3  673.43   30.90
  -4  -5  -3  832.82   30.80
  -5   4  -3  721.73   31.20
   5  -4  -3  734.93   30.50
  -4  -5   3  725.63   30.70
   4   5   3  753.02   30.80
  -4  -5   3  728.53   31.00
  -5   4   3  848.82   31.60
   4   5   3  717.43   31.30
  -5   4   3  783.92   29.00
   5  -4   3  786.22   33.10
   5  -4   3  780.12   30.30
  -4  -5   3  760.82   28.80
  -5   4   3  788.02   29.70
   5  -4   3  779.72   29.50
   4   5   3  746.03   32.00
   5  -4   3  796.82   29.40
   4   5   3  706.83   29.40
   4   5   3  739.33   31.90
  -5   4   3  793.82   30.80
  -4  -5   3  748.93   31.60
   5  -4   3  802.92   30.60
  -5   4   3  801.42   29.70
   5  -6  -3  323.87   15.80
   6   5  -3  347.97   15.10
  -6  -5  -3  352.06   15.60
  -5   6  -3  333.87   16.50
  -5   6  -3  344.87   15.10
  -5   6  -3  304.97   15.00
   6   5  -3  345.97   16.50
   5  -6  -3  313.07   16.30
   6   5  -3  355.76   14.70
  -5   6  -3  338.97   16.10
   6   5  -3  344.97   15.60
  -6  -5  -3  395.96   14.40
  -6  -5  -3  372.56   16.80
  -6  -5  -3  372.26   16.60
   5  -6  -3  332.77   15.80
   6   5  -3  333.77   18.90
   5  -6   3  350.96   15.30
  -5   6   3  368.06   17.60
  -5   6   3  350.36   15.10
   6   5   3  328.37   16.10
  -6  -5   3  345.87   16.90
   6   5   3  328.97   17.50
   6   5   3  334.17   16.40
   6   5   3  324.27   14.40
   6   5   3  323.17   17.50
  -5   6   3  371.76   15.50
  -6  -5   3  324.67   13.60
  -6  -5   3  314.67   16.00
   5  -6   3  343.87   18.30
   5  -6   3  378.86   15.20
   5  -6   3  342.07   15.50
   5  -6   3  358.26   14.80
  -6  -5   3  326.97   16.00
  -5   6   3  348.07   16.10
   3  -6  -3  437.66   16.70
  -6  -3  -3  435.26   18.00
  -6  -3  -3  431.46   18.90
  -6  -3  -3  466.55   17.80
   3  -6  -3  414.56   18.20
  -3   6  -3  393.76   19.10
   6   3  -3  415.76   17.50
   6   3  -3  441.66   17.10
  -3   6  -3  418.06   18.80
  -3   6  -3  388.86   18.30
   3  -6  -3  394.86   19.00
   3  -6  -3  394.06   18.80
   6   3  -3  435.36   18.90
  -3   6  -3  421.46   18.10
   3  -6  -3  394.66   19.20
  -3   6  -3  404.16   18.60
   6   3  -3  435.06   21.60
   6   3  -3  448.86   17.80
  -6  -3  -3  455.95   18.90
  -6  -3   3  420.26   18.10
  -6  -3   3  427.36   18.70
  -3   6   3  426.56   17.70
   6   3   3  417.06   20.00
   3  -6   3  459.25   20.90
  -3   6   3  478.85   18.10
   6   3   3  400.76   19.80
   6   3   3  410.86   18.50
  -3   6   3  442.66   18.00
  -3   6   3  435.86   18.60
  -6  -3   3  414.56   17.10
   6   3   3  411.56   17.30
   3  -6   3  434.76   18.00
   3  -6   3  420.56   17.80
   3  -6   3  412.36   17.80
   6   3   3  404.56   20.10
   3  -6   3  454.85   17.90
   6   3   3  429.16   18.10
  -6  -3   3  387.66   18.00
  -6  -3   3  397.96   19.10
  -3   6   3  433.06   19.60
   6   1  -3  356.46   15.50
  -6  -1  -3  371.36   15.90
  -1   6  -3  363.96   16.70
   6   1  -3  359.86   15.10
  -1   6  -3  363.46   16.10
   1  -6  -3  355.36   15.50
   1  -6  -3  365.56   16.50
   1  -6  -3  360.46   16.80
  -6  -1  -3  384.56   16.10
   6   1  -3  345.57   18.40
   1  -6  -3  380.76   15.50
   6   1  -3  363.76   16.00
  -6  -1  -3  360.16   16.50
  -6  -1  -3  380.46   14.90
   1  -6  -3  382.26   16.80
  -1   6  -3  380.16   16.80
  -6  -1  -3  363.46   15.30
  -1   6  -3  347.07   16.30
   6   1  -3  345.87   14.80
   6   1  -3  351.36   16.70
  -1   6  -3  335.67   16.40
   1  -6  -3  369.76   15.10
  -1   6  -3  356.56   16.60
   1  -6   3  352.66   15.90
   1  -6   3  367.86   16.20
   1  -6   3  341.57   15.20
   1  -6   3  383.26   17.90
  -1   6   3  356.16   16.70
   6   1   3  346.87   14.60
  -6  -1   3  397.56   15.30
  -1   6   3  369.96   16.10
   1  -6   3  373.16   16.10
   6   1   3  383.06   14.80
   6   1   3  355.36   17.50
   6   1   3  366.26   17.90
   6   1   3  354.06   15.50
  -1   6   3  358.16   15.50
  -6  -1   3  354.36   17.10
  -1   6   3  386.86   16.00
  -1   6   3  371.96   16.10
  -6  -1   3  352.36   15.10
  -6  -1   3  385.56   15.50
   1  -6   3  358.16   15.60
   6   1   3  351.46   17.50
  -6  -1   3  366.56   15.30
   6   1   3  340.17   15.20
   6  -1  -3  360.46   15.30
  -6   1  -3  357.46   14.80
   1   6  -3  349.17   17.20
   1   6  -3  369.36   16.30
   1   6  -3  364.96   16.50
  -1  -6  -3  349.96   16.50
  -6   1  -3  382.16   16.30
   6  -1  -3  353.36   18.10
   6  -1  -3  322.77   16.50
  -1  -6  -3  360.66   15.50
  -1  -6  -3  365.76   15.10
  -6   1  -3  337.57   16.00
   6  -1  -3  358.46   15.70
  -1  -6  -3  370.46   15.60
   1   6  -3  357.86   15.60
  -1  -6  -3  372.76   15.50
   1   6  -3  361.76   16.30
   6  -1  -3  343.97   14.40
  -6   1  -3  364.56   15.10
  -1  -6  -3  370.86   15.00
   6  -1  -3  361.26   14.40
   1   6  -3  346.67   16.30
  -1  -6   3  341.97   14.60
  -6   1   3  354.86   17.70
   6  -1   3  362.06   17.10
   1   6   3  350.96   15.50
   6  -1   3  363.96   17.90
  -1  -6   3  348.37   14.70
  -1  -6   3  361.86   15.70
   6  -1   3  359.16   15.50
  -1  -6   3  361.76   16.50
   6  -1   3  375.46   14.40
   1   6   3  354.36   16.20
  -1  -6   3  347.17   16.00
   6  -1   3  341.17   14.70
   1   6   3  366.16   15.40
   1   6   3  370.66   17.20
  -6   1   3  359.16   15.50
  -1  -6   3  374.16   17.10
  -1  -6   3  373.36   17.70
  -6   1   3  382.86   14.30
   6  -1   3  355.46   14.50
  -6   1   3  378.26   14.60
   1   6   3  379.86   16.70
   1   6   3  361.26   16.60
  -6   1   3  348.17   17.20
  -6   1   3  362.46   14.70
   6  -3  -3  444.26   16.80
  -6   3  -3  474.15   17.70
  -3  -6  -3  399.96   19.00
  -3  -6  -3  416.36   18.20
   6  -3  -3  429.76   17.20
  -3  -6  -3  423.96   18.10
   6  -3  -3  438.76   17.00
  -3  -6  -3  413.16   18.60
   3   6  -3  413.96   19.00
  -6   3  -3  427.76   18.80
  -6   3  -3  455.65   16.60
   6  -3  -3  412.66   19.20
   3   6  -3  415.86   18.80
   3   6  -3  412.96   17.80
  -3  -6  -3  438.56   17.20
  -6   3  -3  430.86   19.20
   3   6  -3  430.16   18.30
   6  -3  -3  435.96   18.60
  -6   3  -3  438.76   17.40
  -3  -6  -3  417.06   19.40
   3   6  -3  429.76   20.90
  -3  -6  -3  413.56   17.10
   6  -3  -3  442.76   20.80
   3   6  -3  411.66   18.10
  -6   3  -3  411.76   19.40
  -6   3   3  401.56   18.20
   6  -3   3  411.66   17.30
  -3  -6   3  436.26   16.80
  -3  -6   3  423.16   20.50
   3   6   3  427.66   19.10
  -6   3   3  410.56   16.50
  -6   3   3  406.26   19.40
   3   6   3  454.45   17.90
  -3  -6   3  434.96   19.30
  -6   3   3  430.86   17.10
  -3  -6   3  430.56   18.40
   3   6   3  443.56   20.00
  -3  -6   3  427.66   18.60
  -3  -6   3  442.76   18.00
  -3  -6   3  441.76   20.00
   3   6   3  447.76   17.60
   3   6   3  450.05   19.80
   3   6   3  447.56   19.90
  -6   3   3  410.56   17.20
   6  -3   3  399.06   18.10
   6  -3   3  423.86   16.90
   6  -3   3  403.86   17.30
   6  -3   3  397.86   20.40
   6  -3   3  396.86   18.70
  -5  -6  -3  347.57   16.10
   5   6  -3  336.77   14.70
  -6   5  -3  362.36   17.10
   6  -5  -3  343.67   16.00
  -6   5  -3  351.76   15.00
   5   6  -3  321.37   16.20
  -5  -6  -3  341.47   13.50
   6  -5  -3  362.06   14.40
   5   6  -3  320.97   15.10
   5   6  -3  317.77   18.50
   5   6  -3  328.87   15.80
  -5  -6  -3  361.96   14.00
   6  -5  -3  334.17   16.50
  -5  -6  -3  327.17   15.40
  -6   5  -3  355.96   15.70
   6  -5  -3  356.06   15.10
  -6   5  -3  368.06   16.50
  -5  -6  -3  328.57   16.30
  -6   5  -3  309.77   14.20
  -6   5   3  325.77   15.90
  -6   5   3  324.57   14.60
   6  -5   3  342.17   15.50
   5   6   3  350.16   16.50
  -6   5   3  339.17   14.60
   5   6   3  341.57   16.90
  -6   5   3  338.17   15.10
  -5  -6   3  352.06   15.80
   6  -5   3  334.37   15.20
   6  -5   3  335.07   15.60
   5   6   3  366.96   14.70
   5   6   3  361.46   17.70
   6  -5   3  319.17   18.10
  -6   5   3  338.47   16.10
   6  -5   3  336.57   14.20
  -5  -6   3  363.86   13.60
   6  -5   3  335.47   15.20
  -5  -6   3  353.66   16.50
  -5  -6   3  366.46   17.30
  -5  -6   3  366.66   16.30
   5   6   3  357.26   17.80
  -6   7  -3  191.38   11.20
  -7  -6  -3  175.28   10.80
   6  -7  -3  185.38   10.10
   7   6  -3  180.68    9.90
  -7  -6  -3  169.98    9.70
   6  -7  -3  166.38   10.10
  -6   7  -3  185.98   10.60
   7   6  -3  179.38   11.00
  -7  -6  -3  171.78   10.70
  -6   7  -3  194.28    9.90
   6  -7  -3  170.78   10.60
   7   6  -3  169.98    9.90
   7   6  -3  164.38   13.00
   6  -7  -3  190.58    9.50
  -7  -6  -3  190.68    7.80
  -6   7  -3  174.88    9.70
   6  -7  -3  199.38    8.70
   7   6  -3  179.18    8.50
  -6   7   3  160.58    9.10
   6  -7   3  181.38    8.90
  -6   7   3  182.88    9.80
   6  -7   3  168.28    9.90
   7   6   3  195.78   11.00
   6  -7   3  167.28    9.80
  -6   7   3  156.48   11.00
   7   6   3  176.18    8.40
  -7  -6   3  183.98    7.50
  -7  -6   3  185.68   10.60
  -7  -6   3  181.38   10.60
  -6   7   3  172.88   10.30
  -6   7   3  180.58    9.40
   7   6   3  168.58   11.70
  -7  -6   3  185.18   10.60
   6  -7   3  163.88    9.90
   6  -7   3  153.68   11.90
  -7  -6   3  181.68   11.30
   6  -7   3  174.38    8.80
   7   6   3  175.08   11.00
   7   6   3  189.78   12.50
   4  -7  -3  325.67   15.50
   7   4  -3  292.67   13.00
  -7  -4  -3  298.87   15.10
  -4   7  -3  304.67   14.40
  -7  -4  -3  300.47   13.00
   4  -7  -3  306.17   15.90
   7   4  -3  288.87   13.30
  -4   7  -3  312.87   15.70
  -7  -4  -3  279.27   14.50
   4  -7  -3  301.67   14.30
   7   4  -3  282.07   13.30
  -4   7  -3  324.07   14.60
  -4   7  -3  310.17   15.10
   7   4  -3  291.27   14.80
   7   4  -3  278.77   17.20
  -4   7  -3  322.77   14.90
   7   4  -3  289.67   14.00
   4  -7  -3  312.37   14.90
   4  -7  -3  329.27   13.00
  -7  -4  -3  279.97   13.70
  -4   7   3  274.57   13.50
  -7  -4   3  321.97   15.40
  -4   7   3  276.97   15.30
   4  -7   3  290.37   13.60
  -4   7   3  304.07   14.00
  -7  -4   3  317.17   12.60
   7   4   3  310.77   14.50
   7   4   3  308.27   16.60
  -4   7   3  293.97   14.50
   4  -7   3  277.27   13.80
  -4   7   3  295.07   13.20
  -7  -4   3  292.47   14.10
   4  -7   3  282.97   16.40
   7   4   3  302.97   16.50
   4  -7   3  276.47   13.80
  -7  -4   3  323.07   15.10
   7   4   3  323.07   14.90
   4  -7   3  307.97   13.10
   7   4   3  304.77   13.00
   2  -7  -3  261.77   13.40
   7   2  -3  233.58   15.00
  -2   7  -3  244.08   12.90
  -7  -2  -3  246.28   12.40
  -2   7  -3  261.17   12.90
   7   2  -3  247.18   11.00
   2  -7  -3  257.77   13.30
   7   2  -3  262.17   11.50
  -7  -2  -3  253.37   11.80
   7   2  -3  255.47   10.90
   2  -7  -3  246.98   12.10
   2  -7  -3  259.47   13.10
  -2   7  -3  256.87   13.00
   2  -7  -3  269.97   11.50
  -7  -2  -3  237.28   12.70
  -7  -2  -3  247.78   11.70
   7   2  -3  253.37   12.70
   7   2  -3  252.17   11.70
  -7  -2  -3  260.47   11.40
  -2   7  -3  262.97   12.90
  -2   7  -3  248.48   12.90
  -2   7  -3  250.07   12.90
  -7  -2   3  270.07   11.90
   7   2   3  276.17   12.20
   7   2   3  259.37   11.90
  -2   7   3  248.58   13.30
   2  -7   3  248.68   12.10
   2  -7   3  266.87   12.10
   7   2   3  247.78   14.00
  -7  -2   3  273.17   12.50
  -2   7   3  257.97   12.60
   2  -7   3  256.07   11.90
  -2   7   3  246.78   11.90
  -2   7   3  251.07   13.40
   2  -7   3  241.28   14.10
   7   2   3  262.57   14.40
  -7  -2   3  258.07   13.60
   2  -7   3  249.08   11.80
   7   2   3  247.98   14.20
   7   2   3  250.97   10.90
   7   2   3  254.97   11.50
   2  -7   3  238.48   11.80
  -7  -2   3  274.17   11.60
  -2   7   3  264.07   11.90
  -2   7   3  252.97   12.40
  -7  -2   3  257.47   11.60
  -7   0  -3  271.67   13.70
   0  -7  -3  296.77   12.90
   0   7  -3  287.07   13.40
   0  -7  -3  311.67   13.20
   0  -7  -3  293.17   14.10
   0   7  -3  290.17   13.90
   0   7  -3  273.07   14.50
  -7   0  -3  274.97   12.60
   7   0  -3  278.57   12.90
   0  -7  -3  287.07   11.60
   7   0  -3  257.47   13.80
   7   0  -3  283.47   11.20
   0  -7  -3  284.37   13.50
   7   0  -3  263.57   15.60
  -7   0  -3  286.37   11.70
  -7   0  -3  271.07   12.00
   7   0  -3  259.87   12.60
  -7   0  -3  282.47   13.10
   7   0  -3  262.27   11.10
   0  -7  -3  286.17   12.60
   0   7  -3  284.07   13.80
   0   7  -3  292.07   13.80
   0  -7  -3  282.47   14.20
   0   7  -3  271.67   13.80
   7   0   3  267.37   11.20
   0   7   3  280.27   12.80
   7   0   3  268.07   14.50
   7   0   3  274.47   12.70
  -7   0   3  286.47   12.70
   0   7   3  277.17   13.80
   0   7   3  274.77   13.00
   0  -7   3  261.07   12.10
  -7   0   3  290.97   14.80
  -7   0   3  294.07   12.30
   0   7   3  258.27   14.20
   7   0   3  280.57   11.70
  -7   0   3  301.97   11.80
   0   7   3  270.17   14.10
   0  -7   3  290.37   13.80
   7   0   3  274.27   15.20
   0  -7   3  279.37   15.20
   0   7   3  266.97   13.00
   0  -7   3  255.47   12.90
   0  -7   3  277.27   11.40
  -7   0   3  271.77   11.70
   7   0   3  304.87   11.60
   0  -7   3  280.17   13.70
   0  -7   3  250.27   12.60
  -7   2  -3  253.17   11.30
  -2  -7  -3  272.87   11.90
  -2  -7  -3  263.57   12.50
   7  -2  -3  251.87   13.20
   2   7  -3  267.77   12.50
  -2  -7  -3  264.27   11.30
   7  -2  -3  252.37   14.70
   2   7  -3  254.87   14.60
  -2  -7  -3  263.97   12.60
   7  -2  -3  257.37   10.10
  -7   2  -3  249.38   11.00
  -7   2  -3  241.98   12.80
   2   7  -3  262.77   13.10
   7  -2  -3  249.58   12.40
  -2  -7  -3  250.17   13.40
   7  -2  -3  248.68   10.10
  -7   2  -3  247.38   12.80
  -2  -7  -3  271.67   13.90
  -2  -7  -3  262.37   12.00
   2   7  -3  271.97   13.10
   7  -2  -3  263.97   11.70
  -7   2  -3  265.67   11.20
   2   7  -3  273.47   13.30
   2   7  -3  255.97   12.60
  -2  -7   3  258.27   14.20
   2   7   3  260.57   13.70
   7  -2   3  262.37   13.50
  -7   2   3  256.17   10.50
  -2  -7   3  266.17   11.60
   2   7   3  254.87   12.00
  -7   2   3  275.57   10.80
  -2  -7   3  259.97   13.40
   7  -2   3  243.08   12.10
  -7   2   3  258.27   14.10
  -2  -7   3  252.57   13.80
  -2  -7   3  244.28   11.00
   7  -2   3  266.37   11.60
   2   7   3  243.88   13.00
  -2  -7   3  250.77   12.50
  -7   2   3  241.18   13.80
  -7   2   3  261.77   12.30
   2   7   3  258.27   13.90
   7  -2   3  256.27   10.50
  -7   2   3  248.18   10.90
   2   7   3  253.07   13.40
   7  -2   3  258.97   10.50
  -7   2   3  275.87   10.70
   2   7   3  260.87   12.00
   7  -2   3  266.17   14.90
   4   7  -3  327.37   14.30
  -4  -7  -3  316.37   15.00
  -7   4  -3  283.27   14.60
  -4  -7  -3  314.07   12.50
   4   7  -3  314.27   13.80
   4   7  -3  295.67   14.00
   7  -4  -3  287.97   14.40
   4   7  -3  306.37   15.10
  -7   4  -3  283.67   15.30
  -7   4  -3  311.77   12.50
  -7   4  -3  271.87   12.80
  -7   4  -3  302.77   11.90
  -7   4  -3  305.17   13.50
   7  -4  -3  307.47   12.10
  -4  -7  -3  318.47   14.50
   7  -4  -3  296.07   15.40
   4   7  -3  327.07   15.10
   4   7  -3  305.17   17.50
  -4  -7  -3  335.67   15.50
  -4  -7  -3  309.57   15.50
   7  -4  -3  283.67   12.20
  -4  -7  -3  310.67   13.00
  -4  -7  -3  302.57   14.20
   4   7   3  287.97   15.50
   4   7   3  286.77   15.10
  -4  -7   3  282.77   15.70
   7  -4   3  312.87   12.20
  -4  -7   3  274.57   14.10
   4   7   3  300.37   13.20
  -4  -7   3  288.07   12.10
  -7   4   3  307.37   14.50
   7  -4   3  309.07   14.30
   7  -4   3  312.57   12.70
  -7   4   3  304.77   12.80
  -7   4   3  291.17   12.90
   4   7   3  284.97   13.20
   7  -4   3  329.27   14.90
  -7   4   3  320.17   13.10
  -4  -7   3  285.97   15.10
   4   7   3  292.87   15.70
   4   7   3  268.27   15.60
   7  -4   3  321.07   13.90
  -7   4   3  314.77   15.30
  -4  -7   3  298.57   14.00
  -4  -7   3  289.87   14.30
   7  -4   3  300.47   16.90
  -6  -7  -3  175.78   10.90
  -6  -7  -3  188.38   10.70
   6   7  -3  182.68   11.00
   6   7  -3  193.88   10.10
   6   7  -3  184.18    8.70
  -7   6  -3  161.98    9.10
  -7   6  -3  180.78    9.30
  -6  -7  -3  182.78    8.00
   7  -6  -3  162.28    9.90
  -7   6  -3  171.58   10.80
  -7   6  -3  187.08   10.70
  -6  -7  -3  190.38   11.00
   6   7  -3  164.98   13.00
  -6  -7  -3  192.28    7.60
   7  -6  -3  169.58    8.80
  -6  -7  -3  174.08    9.80
   6   7  -3  180.28   10.30
   7  -6  -3  176.98   11.00
   7  -6  -3  172.08    8.20
  -6  -7  -3  179.48   11.30
  -6  -7   3  173.68   10.80
  -7   6   3  162.28   13.10
  -6  -7   3  172.98   10.10
   7  -6   3  191.28    9.30
   7  -6   3  177.18   12.60
   6   7   3  158.98   11.20
   6   7   3  161.68   10.80
  -7   6   3  174.78   10.40
   7  -6   3  179.78    9.90
   7  -6   3  174.98   10.00
   7  -6   3  184.18    8.30
  -6  -7   3  173.78   11.40
   6   7   3  156.68   11.70
  -7   6   3  175.48    9.00
   7  -6   3  192.98    9.70
  -7   6   3  185.88    9.30
   6   7   3  173.88    8.50
  -6  -7   3  170.08   10.10
  -7   6   3  202.18   10.50
   6   7   3  167.68   11.20
  -8  -7  -3  139.49    9.80
   8   7  -3  133.99    9.00
   7  -8  -3  127.79    7.30
  -8  -7  -3  127.19    9.50
  -8  -7  -3  131.39    8.20
  -7   8  -3  129.79    8.50
   7  -8  -3  136.49    7.80
   8   7  -3  143.19    9.90
   7  -8  -3  114.99    8.20
  -7   8  -3  115.39    7.80
   8   7  -3  133.19    6.40
   8   7  -3  125.69   11.80
  -7   8  -3  121.09    9.10
   7  -8  -3  120.79    9.50
   8   7  -3  127.89    8.10
  -7   8  -3  126.19    9.50
   7  -8  -3  120.89    7.80
   8   7  -3  117.69    9.70
   7  -8   3  140.49    7.00
   8   7   3  121.39    6.50
   8   7   3  120.79    9.40
   7  -8   3  133.89    7.20
  -7   8   3  129.49    7.50
  -7   8   3  142.19    8.70
  -8  -7   3  121.89    9.70
  -8  -7   3  109.49    8.50
  -7   8   3  121.19    9.40
   7  -8   3  130.19    8.60
   7  -8   3  126.29    8.80
   7  -8   3  129.89    8.40
   8   7   3  108.99   10.90
  -7   8   3  139.39    9.20
   8   7   3  111.09    9.60
  -8  -7   3  120.19    8.90
   8   7   3  110.09   10.10
   7  -8   3  126.59   10.90
  -8  -7   3  123.29    9.00
   8   7   3  133.59    8.30
  -7   8   3  141.79    7.60
   5  -8  -3  132.99    8.50
  -8  -5  -3  144.29    9.60
  -5   8  -3  144.19    9.10
   5  -8  -3  122.59   10.10
  -5   8  -3  130.89    9.50
   8   5  -3  124.59    7.50
  -8  -5  -3  138.39    9.10
   5  -8  -3  110.59    9.60
   8   5  -3  139.29    8.30
   8   5  -3  147.39    9.70
  -5   8  -3  143.49    8.80
   8   5  -3  135.79    7.10
   5  -8  -3  148.39    7.80
   8   5  -3  130.19    8.60
  -5   8  -3  134.39    8.50
  -8  -5  -3  146.99    7.00
   5  -8  -3  136.29    9.10
  -8  -5  -3  129.49    8.00
   5  -8  -3  124.19    9.20
   8   5  -3  121.29   11.20
   5  -8   3  131.99   10.70
   8   5   3  147.79    9.60
   5  -8   3  146.29    6.90
   5  -8   3  133.99    8.30
   8   5   3  139.09    7.10
  -5   8   3  138.59    8.60
  -8  -5   3  140.49    9.40
   8   5   3  139.19   10.70
  -8  -5   3  136.99    6.50
  -5   8   3  133.59    9.70
  -8  -5   3  147.69    9.50
  -5   8   3  149.09    9.20
  -5   8   3  131.39    7.90
   8   5   3  137.49    7.80
   5  -8   3  137.29    8.50
   8   5   3  133.39   10.20
  -5   8   3  146.19    7.40
  -8  -5   3  133.89    8.90
   5  -8   3  141.19    7.80
  -8  -5   3  131.59    8.40
   8   5   3  131.99    8.40
  -3   8  -3  194.08   11.10
  -8  -3  -3  186.78   11.00
   8   3  -3  195.08    9.20
  -3   8  -3  179.98   10.50
   8   3  -3  195.68    9.10
  -8  -3  -3  180.88    9.50
   8   3  -3  191.78    9.40
  -3   8  -3  181.18   10.90
   8   3  -3  189.68    8.60
   8   3  -3  173.38   12.90
  -3   8  -3  176.88   11.00
   3  -8  -3  190.98   11.20
   3  -8  -3  183.48   11.40
  -8  -3  -3  194.08   10.70
  -3   8  -3  172.38   10.50
  -8  -3  -3  205.58    9.70
   3  -8  -3  197.08    9.50
   3  -8  -3  178.78   10.00
  -8  -3  -3  194.28    9.90
  -3   8  -3  195.38   10.80
   8   3  -3  186.88   10.60
   3  -8  -3  166.08   10.60
   8   3   3  184.68    9.10
   3  -8   3  192.78   10.00
  -3   8   3  204.48    9.30
   3  -8   3  188.08    9.80
   8   3   3  195.68   12.30
  -8  -3   3  190.28   10.10
   3  -8   3  203.08    9.10
  -3   8   3  193.48   10.40
  -3   8   3  182.58    9.70
  -8  -3   3  191.48    9.00
   8   3   3  168.38   12.00
   8   3   3  169.48   11.70
   3  -8   3  181.28   12.20
   8   3   3  186.18    8.70
  -8  -3   3  174.68    9.40
  -8  -3   3  195.68   10.60
   3  -8   3  185.08   10.00
  -8  -3   3  192.28   11.40
  -3   8   3  181.58   11.30
   8   3   3  188.88   10.40
   8   3   3  179.88    9.40
  -3   8   3  202.98   10.70
  -1   8  -3  253.57   13.30
  -8  -1  -3  275.97   11.80
   8   1  -3  270.37   12.30
  -1   8  -3  230.18   13.50
  -1   8  -3  263.07   13.30
   1  -8  -3  229.88   13.30
   1  -8  -3  255.07   13.40
   8   1  -3  274.27   13.00
  -1   8  -3  255.97   13.20
   1  -8  -3  257.87   12.20
   1  -8  -3  258.07   12.20
  -1   8  -3  247.38   13.30
   8   1  -3  241.78   15.50
  -8  -1  -3  273.07   12.50
  -8  -1  -3  288.27   11.50
  -1   8  -3  242.68   13.30
   1  -8  -3  252.07   13.90
  -8  -1  -3  258.27   13.50
  -8  -1  -3  276.87   13.00
   1  -8  -3  261.17   12.30
   8   1  -3  267.67   10.10
   8   1   3  243.88   14.60
   8   1   3  250.97   10.40
  -8  -1   3  251.67   12.30
   8   1   3  248.28   14.80
   1  -8   3  267.77   12.00
   1  -8   3  265.57   12.70
  -1   8   3  279.97   14.70
   8   1   3  270.47   12.20
  -8  -1   3  244.68   14.10
  -1   8   3  277.27   14.50
   1  -8   3  256.37   12.60
   1  -8   3  248.18   14.60
   8   1   3  247.58   12.00
   1  -8   3  274.87   12.70
  -1   8   3  276.47   12.30
  -8  -1   3  260.57   12.00
   1  -8   3  294.17   13.10
  -1   8   3  275.87   13.40
  -8  -1   3  245.28   11.30
  -1   8   3  262.37   12.50
   8   1   3  247.68   14.60
  -1   8   3  262.37   12.70
  -8  -1   3  273.97   11.70
   8   1   3  250.97   10.80
   1   8  -3  252.67   13.40
   1   8  -3  255.97   13.50
  -1  -8  -3  263.87   12.80
   1   8  -3  261.47   13.50
  -8   1  -3  268.57   11.30
  -8   1  -3  266.47   13.00
   1   8  -3  252.97   13.20
   1   8  -3  247.88   14.80
  -1  -8  -3  262.27   11.70
   8  -1  -3  260.37   13.80
   8  -1  -3  281.27   12.60
  -8   1  -3  285.07   11.10
   8  -1  -3  259.07   12.70
   1   8  -3  263.97   13.10
  -1  -8  -3  257.57   14.20
   8  -1  -3  243.38   15.30
  -1  -8  -3  262.27   11.90
  -1  -8  -3  259.37   12.90
  -8   1  -3  279.17   12.30
  -8   1  -3  264.67   13.40
  -1  -8  -3  245.08   13.50
  -1  -8  -3  256.47   12.80
   1   8   3  259.57   14.10
   1   8   3  271.97   12.60
   1   8   3  279.07   14.20
  -1  -8   3  267.07   11.40
   8  -1   3  246.48   15.00
  -8   1   3  235.68   14.30
  -1  -8   3  261.07   11.60
  -8   1   3  244.68   10.80
   8  -1   3  251.87   14.20
  -8   1   3  266.47   11.70
  -1  -8   3  283.77   13.80
  -8   1   3  258.87   15.20
   8  -1   3  249.88   12.30
  -1  -8   3  282.87   13.80
  -8   1   3  253.47   11.00
  -1  -8   3  265.47   12.70
  -1  -8   3  283.27   13.20
  -8   1   3  267.07   10.90
   1   8   3  277.47   14.80
   1   8   3  271.27   12.50
   1   8   3  276.17   13.20
  -8   1   3  260.07   12.40
  -1  -8   3  273.97   15.20
  -3  -8  -3  203.38   10.00
   3   8  -3  188.18   10.20
  -8   3  -3  192.78    8.90
   3   8  -3  187.48   10.70
  -3  -8  -3  199.98   11.80
   8  -3  -3  184.48   11.20
  -3  -8  -3  188.28   11.10
  -3  -8  -3  180.38   10.60
  -3  -8  -3  193.18    8.80
  -8   3  -3  183.48   11.50
  -8   3  -3  188.18   10.70
   3   8  -3  196.78   11.10
   3   8  -3  178.48   10.80
  -8   3  -3  189.88    8.80
  -8   3  -3  203.58    9.10
   8  -3  -3  179.38   12.50
  -3  -8  -3  192.88    9.70
   3   8  -3  190.98   10.10
   8  -3  -3  202.58    9.10
   8  -3  -3  183.88   10.30
   3   8  -3  177.58   12.60
  -8   3  -3  188.68   11.00
  -3  -8  -3  192.58   10.40
  -8   3  -3  205.68    8.40
  -8   3   3  198.18    8.70
  -8   3   3  187.88   12.00
  -3  -8   3  196.18   12.20
  -3  -8   3  200.48   12.10
   8  -3   3  195.58   11.20
  -8   3   3  189.68   10.40
   8  -3   3  175.28   12.50
  -8   3   3  181.68    8.80
  -8   3   3  179.38    8.60
  -3  -8   3  191.88   10.20
  -3  -8   3  182.38    8.50
   3   8   3  193.38   11.20
  -3  -8   3  190.78    9.50
   8  -3   3  186.78   10.10
   3   8   3  200.58    9.60
   8  -3   3  205.88    9.90
   3   8   3  193.08   12.00
   3   8   3  164.98    9.50
   3   8   3  188.48   11.60
  -8   3   3  184.88   11.50
   3   8   3  188.98   11.70
  -3  -8   3  195.48   11.30
  -3  -8   3  194.38   10.60
  -8   5  -3  137.39    9.70
  -5  -8  -3  138.39    7.30
   5   8  -3  137.19    7.60
   5   8  -3  120.09   11.00
  -5  -8  -3  146.89    6.50
  -5  -8  -3  149.19    9.70
  -5  -8  -3  133.89    9.10
  -8   5  -3  136.29    9.00
   5   8  -3  133.49    8.50
  -8   5  -3  152.28    7.50
  -5  -8  -3  131.39    8.70
  -8   5  -3  132.39    7.40
   8  -5  -3  130.99    8.60
   5   8  -3  138.29    9.20
  -5  -8  -3  135.79    8.50
   5   8  -3  130.39    9.30
  -5  -8  -3  147.79   10.10
  -8   5  -3  140.19    9.10
   8  -5  -3  129.79    9.50
  -8   5   3  136.59    7.60
  -8   5   3  129.99    9.10
  -8   5   3  134.39    8.90
  -5  -8   3  134.89   10.00
  -5  -8   3  134.19    6.00
   5   8   3  139.09    7.40
  -5  -8   3  144.09    8.30
   8  -5   3  131.69    8.60
   8  -5   3  136.19    5.90
  -5  -8   3  139.09    9.40
   8  -5   3  144.99    8.70
  -8   5   3  140.19    7.90
   5   8   3  142.69   10.70
   5   8   3  150.08   10.50
   8  -5   3  144.29    6.20
   5   8   3  130.59    9.80
  -5  -8   3  135.89    8.70
   5   8   3  126.89    9.70
   8  -5   3  142.89    8.60
  -5  -8   3  138.29    8.50
  -8   5   3  134.19    7.30
   8  -5   3  120.59   10.20
  -7  -8  -3  132.89   10.40
  -8   7  -3  135.39    9.90
  -7  -8  -3  115.49    8.10
   7   8  -3  125.49    9.60
  -8   7  -3  134.29    9.30
   7   8  -3  118.19    8.50
   7   8  -3  133.49    9.20
   8  -7  -3  139.59   10.70
   8  -7  -3  129.59    8.60
   8  -7  -3  138.99    7.30
  -7  -8  -3  123.69    6.60
   8  -7  -3  137.19    6.60
   7   8  -3  114.79   11.50
  -7  -8  -3  123.39    9.30
  -8   7  -3  122.29    7.60
   7   8  -3  134.09    6.50
   8  -7  -3  126.29    6.20
  -7  -8  -3  125.29    9.30
  -8   7  -3  144.29    8.50
  -7  -8  -3  118.49    9.20
  -8   7   3  117.09    9.10
   8  -7   3  128.29    7.60
   7   8   3  133.89   10.60
  -8   7   3  117.89    9.50
  -7  -8   3  131.49    8.70
  -8   7   3  129.49    8.20
   8  -7   3  129.29    8.90
  -7  -8   3  121.59    8.80
   8  -7   3  122.49    6.40
   7   8   3  119.09   10.00
  -8   7   3  127.99    8.20
   7   8   3  139.99   11.40
  -7  -8   3  130.59   10.10
   8  -7   3  121.09   10.80
   7   8   3  115.29    9.60
  -7  -8   3  128.39    9.30
   8  -7   3  136.69    8.70
   7   8   3  129.49    6.70
   8  -7   3  126.99    7.00
   9   8  -3  125.39   11.50
   8  -9  -3  159.38   11.50
   8  -9  -3  140.59    7.70
   8  -9  -3  137.99    8.20
  -9  -8  -3  119.69   10.20
   9   8  -3  132.49   10.50
   9   8  -3  125.79    8.70
  -8   9  -3  145.29   11.40
  -8   9  -3  146.89    9.80
  -8   9  -3  137.89   10.10
   9   8  -3  129.19   10.90
  -9  -8  -3  142.49   10.90
  -8   9   3  132.79   10.20
   8  -9   3  129.69   10.00
  -8   9   3  127.49    9.50
   8  -9   3  133.79    7.50
   9   8   3  156.18    9.60
   9   8   3  138.89   11.30
  -9  -8   3  141.39   10.00
  -9  -8   3  141.29    9.80
   9   8   3  155.58   13.80
   8  -9   3  133.19    8.60
   9   8   3  130.39   10.60
   6  -9  -3   87.79    7.00
  -6   9  -3   96.19    8.00
   6  -9  -3  103.89    7.00
  -9  -6  -3   91.99    8.10
   9   6  -3   95.29    6.30
   6  -9  -3   93.19    7.20
  -9  -6  -3   88.29    8.10
   9   6  -3   94.09    8.60
   6  -9  -3   90.49    7.40
   9   6  -3   86.19    5.30
   6  -9  -3   88.59    9.20
   9   6  -3   94.79    7.40
  -6   9  -3   77.49    6.70
  -6   9  -3   90.69    8.30
   9   6  -3  100.19    8.00
   6  -9  -3   94.09    8.30
  -6   9  -3   97.69    7.80
   9   6   3   91.99    5.50
   9   6   3   88.29    7.00
  -9  -6   3   81.89    7.60
  -6   9   3   96.19    7.80
   6  -9   3   95.69    7.50
   9   6   3   81.49    6.50
  -9  -6   3   88.59    7.70
   6  -9   3   84.79    8.80
  -6   9   3   93.09    7.80
  -9  -6   3   98.09    7.90
   6  -9   3   90.99    7.50
   6  -9   3   82.29    6.10
   6  -9   3   89.19    7.30
   9   6   3   67.29    8.10
   9   6   3   91.39    8.60
  -6   9   3   90.39    5.70
   9   6   3   90.49   10.40
  -9  -4  -3  119.89    6.70
   9   4  -3  118.99    7.40
  -9  -4  -3   92.79    8.50
   4  -9  -3  113.59    8.90
   9   4  -3  110.19    8.50
  -4   9  -3  113.49    8.60
   4  -9  -3  105.59    8.50
   9   4  -3  109.19    6.30
   9   4  -3  108.39    5.80
   4  -9  -3  117.79    7.20
   4  -9  -3  107.29    7.60
   4  -9  -3  102.79    9.40
  -9  -4  -3  106.89    7.10
  -4   9  -3  113.59    8.30
   9   4  -3  100.49   10.40
  -4   9  -3  105.59    8.60
  -4   9  -3  106.59    8.40
   9   4  -3  111.69    6.50
  -4   9  -3  106.69    7.80
  -9  -4  -3  113.19    8.40
   9   4   3  112.39    6.20
  -4   9   3  101.29    8.40
   4  -9   3  115.59    7.50
  -9  -4   3  119.89    8.40
   4  -9   3  116.09    5.90
   9   4   3  108.89    8.50
   9   4   3   84.39    9.70
   4  -9   3  121.79    7.80
   9   4   3  110.59    6.90
  -9  -4   3  121.89    8.80
  -4   9   3  126.49    8.30
   4  -9   3  118.69    9.90
  -4   9   3  119.99    8.30
   4  -9   3  108.19    7.30
  -9  -4   3  112.59    6.20
   9   4   3   93.99    8.80
  -9  -4   3  110.89    7.20
  -4   9   3  105.49    7.00
   9   4   3  114.09    6.50
  -4   9   3  121.99    6.40
   2  -9  -3  221.98   12.60
   2  -9  -3  219.18   12.20
  -2   9  -3  221.18   12.80
   2  -9  -3  210.98   10.80
  -2   9  -3  208.08   11.90
   9   2  -3  198.98   10.20
  -9  -2  -3  215.08   10.70
  -9  -2  -3  190.98   10.10
   9   2  -3  202.78   14.50
  -2   9  -3  209.28   11.90
  -2   9  -3  219.68   11.80
  -9  -2  -3  203.88   10.00
  -9  -2  -3  204.48   11.40
  -2   9  -3  206.48   11.90
  -2   9  -3  228.58   12.30
   2  -9  -3  220.18   10.80
  -9  -2  -3  189.88   11.80
   2  -9  -3  216.88   12.70
   9   2  -3  213.58   11.80
   9   2   3  218.78   10.40
   9   2   3  217.48    8.80
  -9  -2   3  219.78   12.80
   9   2   3  233.98   11.70
   9   2   3  225.68   13.70
   2  -9   3  194.38   10.30
  -9  -2   3  203.18   10.00
   9   2   3  217.08    8.50
  -2   9   3  191.78   10.60
  -2   9   3  203.68   10.20
  -9  -2   3  231.78   10.60
  -2   9   3  200.88   11.70
   2  -9   3  201.28   11.10
   2  -9   3  200.78   10.10
  -2   9   3  188.68   12.90
   2  -9   3  184.28   12.90
  -9  -2   3  226.08   11.50
  -2   9   3  202.88   11.30
   9   2   3  206.08   13.30
  -2   9   3  186.08   12.40
   2  -9   3  195.18   11.00
   9   2   3  213.08   13.40
  -9  -2   3  228.28   10.30
   0  -9  -3  486.95   22.00
   0   9  -3  458.75   22.30
  -9   0  -3  411.26   17.50
   0   9  -3  466.85   20.40
   0   9  -3  476.45   20.70
   0   9  -3  476.45   21.10
   0  -9  -3  470.15   21.10
   0  -9  -3  477.35   17.70
  -9   0  -3  417.86   20.40
   0  -9  -3  488.95   20.00
   0  -9  -3  472.15   20.10
   9   0  -3  432.16   19.30
  -9   0  -3  404.66   17.90
   9   0  -3  439.96   19.70
  -9   0  -3  432.06   17.60
   0  -9  -3  477.25   19.00
   0   9  -3  472.25   20.60
  -9   0  -3  423.56   19.40
   9   0  -3  408.66   23.10
   0  -9  -3  475.15   20.70
   0   9  -3  452.05   20.90
  -9   0  -3  428.76   19.70
  -9   0   3  463.35   22.00
  -9   0   3  442.66   17.70
   0   9   3  409.86   19.10
   0   9   3  431.36   20.90
   0  -9   3  426.16   17.50
  -9   0   3  466.05   19.10
   9   0   3  451.55   22.90
   0  -9   3  408.46   22.30
   0  -9   3  425.56   19.60
   0  -9   3  434.96   20.30
   0   9   3  393.96   21.20
   9   0   3  486.95   18.70
   9   0   3  486.15   19.40
  -9   0   3  473.75   19.10
   0  -9   3  420.86   19.80
   0   9   3  431.76   19.50
   0   9   3  408.06   21.60
  -9   0   3  482.95   17.80
   0  -9   3  437.06   20.00
   0   9   3  440.26   19.40
  -9   0   3  476.05   18.00
   9   0   3  423.46   21.70
   0  -9   3  437.66   18.50
   2   9  -3  202.48   12.10
  -9   2  -3  193.68   11.50
  -2  -9  -3  216.08    9.80
   9  -2  -3  210.38   10.50
   2   9  -3  202.98   13.90
  -2  -9  -3  220.08   11.50
   9  -2  -3  210.18   12.20
  -2  -9  -3  236.58   10.50
  -9   2  -3  189.78    9.20
  -9   2  -3  203.18   10.20
  -2  -9  -3  205.88   11.20
  -2  -9  -3  226.88   13.00
  -9   2  -3  193.48   11.50
   2   9  -3  212.78   11.90
  -9   2  -3  205.38   12.70
   9  -2  -3  197.28   11.00
   2   9  -3  227.18   11.40
   2   9  -3  231.38   12.30
   9  -2  -3  181.58   13.20
   2   9  -3  201.88   11.60
  -2  -9  -3  236.28   12.50
  -2  -9  -3  232.88   12.00
   9  -2   3  227.28   11.20
  -9   2   3  222.38   11.10
  -2  -9   3  201.18   12.10
  -2  -9   3  184.28   12.80
  -2  -9   3  208.48   10.00
  -9   2   3  223.58    9.10
   2   9   3  199.48   12.80
   9  -2   3  220.18   12.60
  -2  -9   3  216.18   12.60
   2   9   3  196.08   11.50
   2   9   3  198.88   10.70
   9  -2   3  225.28   14.10
  -9   2   3  221.28   13.40
  -2  -9   3  194.68   11.30
  -9   2   3  214.38   10.00
  -2  -9   3  204.58    9.50
  -2  -9   3  192.88   10.90
  -9   2   3  209.78    9.10
   2   9   3  200.98   12.60
   2   9   3  203.78   13.30
  -9   2   3  212.68   13.30
   2   9   3  197.38   10.60
  -9   2   3  206.78    9.50
   4   9  -3  113.39    8.90
  -4  -9  -3  113.19    7.60
  -4  -9  -3  110.69    5.80
   4   9  -3  114.59    8.60
  -9   4  -3  121.09    6.40
  -9   4  -3  110.49    6.00
  -4  -9  -3  116.99    9.40
  -9   4  -3   94.29    8.80
  -4  -9  -3  118.49    7.20
   4   9  -3  111.69    8.80
  -4  -9  -3  117.49    8.70
   4   9  -3  100.69    7.90
  -4  -9  -3   92.49    7.60
   4   9  -3  104.89   10.10
  -9   4  -3  116.09    8.30
  -9   4  -3  122.59    7.10
   4   9  -3  109.49    7.00
  -9   4  -3  105.89    6.10
   9  -4  -3  106.79    8.40
   9  -4  -3  105.29    7.50
  -4  -9  -3  110.79    7.70
  -9   4   3  115.09    6.40
  -4  -9   3  115.69    8.30
  -4  -9   3  112.09    8.60
  -4  -9   3  105.19    5.50
   4   9   3  112.99    8.60
   4   9   3  119.89   10.00
  -4  -9   3  102.59    9.00
   4   9   3  110.49    6.90
   4   9   3  100.69    9.90
   9  -4   3  108.89    7.80
   4   9   3  110.19    8.90
  -9   4   3  116.99    8.80
  -4  -9   3  116.89    7.10
  -9   4   3  117.89    8.10
  -4  -9   3  113.29    9.30
  -9   4   3  111.69    6.60
  -4  -9   3  100.69    7.50
   9  -4   3  118.79    8.20
  -9   4   3  102.69    9.40
   9  -4   3  101.29    7.60
   4   9   3  121.99    7.30
   9  -4   3   98.19    9.60
  -9   4   3   98.59    6.00
  -6  -9  -3   91.79    7.80
  -9   6  -3   96.49    8.70
   6   9  -3   83.89    7.70
  -6  -9  -3   87.59    7.50
   6   9  -3   87.19    8.40
  -6  -9  -3   91.39    9.40
   9  -6  -3   84.29    7.80
  -6  -9  -3   88.29    7.00
   6   9  -3   84.49    5.60
  -9   6  -3   82.19    5.70
  -6  -9  -3   96.59    6.40
  -9   6  -3   94.69    8.10
  -9   6  -3  100.59    6.70
   9  -6  -3   84.69    7.00
   6   9  -3   83.49    9.40
  -6  -9  -3   83.49    8.00
   6   9  -3   85.59    7.60
   6   9   3   90.69    9.30
   6   9   3   85.09    8.50
   9  -6   3   86.19    7.90
  -6  -9   3   83.39    6.90
   9  -6   3   86.59    7.30
  -9   6   3   83.99    5.50
  -9   6   3   89.69    7.50
  -6  -9   3   81.89    8.10
  -6  -9   3   81.59    7.50
  -9   6   3   96.59    8.00
  -6  -9   3   91.89    7.10
  -9   6   3  101.29    6.70
   9  -6   3   98.29    7.00
   6   9   3   89.99    5.60
   6   9   3   91.69    9.90
   6   9   3   74.09    7.80
   9  -6   3   72.79    8.70
  -6  -9   3   83.09    8.30
  -8  -9  -3  148.79   10.70
  -8  -9  -3  131.39   10.40
   8   9  -3  137.59   10.70
  -8  -9  -3  129.99   12.80
  -8  -9  -3  138.89    7.50
   9  -8  -3  113.79   10.20
  -9   8  -3  144.29    9.30
  -9   8  -3  128.59   10.20
   8   9  -3  142.29   11.20
  -9   8  -3  120.29   10.90
   8   9  -3  131.69    9.30
  -8  -9   3  121.39    9.50
  -9   8   3  144.09    9.40
   8   9   3  113.59   10.30
   8   9   3  129.09   11.00
   9  -8   3  142.99   10.20
  -8  -9   3  123.69    9.00
  -8  -9   3  128.69   12.30
  -9   8   3  154.48    9.40
  -9   8   3  133.99   10.40
   9  -8   3  144.29   13.10
   8   9   3  114.89   12.10
 -10  -9  -3   90.29   10.20
  10   9  -3  124.39   11.30
  -9  10  -3   98.19    9.30
  10   9  -3  111.19    8.70
   9 -10  -3   94.79    9.90
  10   9  -3  102.09   11.40
  -9  10  -3   87.49   11.00
 -10  -9  -3  102.79   10.90
  -9  10  -3  101.59   11.10
 -10  -9   3   85.89    9.50
   9 -10   3   97.29   10.90
  10   9   3   81.49   14.90
  -9  10   3  107.99   10.50
  -9  10   3  119.09   10.50
  10   9   3   79.89    9.50
   9 -10   3  105.69    5.90
 -10  -9   3   98.49    9.30
   9 -10   3  105.39    6.80
 -10  -7  -3   84.39    8.60
   7 -10  -3   68.49    6.40
  10   7  -3   67.29    9.10
   7 -10  -3   76.99   10.40
  10   7  -3   88.59    9.00
  -7  10  -3   76.99    8.50
  -7  10  -3   70.99    8.80
   7 -10  -3   71.89    8.50
  10   7  -3   67.29    6.20
 -10  -7  -3   75.89    8.80
   7 -10  -3   68.29    7.50
   7 -10  -3   86.29    8.90
  -7  10  -3   68.89    7.70
   7 -10   3   80.69    7.90
  10   7   3   60.59    5.30
 -10  -7   3   71.69    7.90
  10   7   3   77.39    6.90
  -7  10   3   63.09    8.20
   7 -10   3   92.89    9.30
  10   7   3   72.39    7.40
   7 -10   3   66.99    6.30
 -10  -7   3   72.09    7.70
  10   7   3   68.99    8.20
  -7  10   3   75.09    8.10
  10   7   3   76.09   11.80
  -5  10  -3   91.69    8.80
  -5  10  -3   88.89    8.10
   5 -10  -3   91.09    7.30
  10   5  -3   71.19    7.90
  10   5  -3   98.59    7.70
   5 -10  -3   89.09    8.40
   5 -10  -3  104.29   10.50
  -5  10  -3   90.19    8.30
  10   5  -3   85.09    5.80
   5 -10  -3   86.89    6.90
 -10  -5  -3   73.49    8.30
 -10  -5  -3   94.39    6.50
 -10  -5  -3   87.79    8.20
  10   5  -3   87.09    5.50
  10   5  -3   81.99    5.10
   5 -10  -3   95.79    8.40
  10   5   3   86.69    6.00
  10   5   3   87.39   10.20
  10   5   3   79.29    8.50
 -10  -5   3   88.19    7.80
   5 -10   3   86.69    7.40
 -10  -5   3   80.49    8.00
  -5  10   3   84.39    7.80
   5 -10   3   73.59    6.40
 -10  -5   3   83.29    8.30
  -5  10   3   97.89    8.40
  10   5   3   81.79    5.60
  10   5   3   94.69    6.30
   3 -10  -3  106.69    9.10
  -3  10  -3  109.89    8.30
 -10  -3  -3  109.09    6.90
  10   3  -3  115.89    6.70
  10   3  -3   96.29    8.30
   3 -10  -3  109.39    7.50
   3 -10  -3   92.89    9.30
  -3  10  -3  108.59    8.70
   3 -10  -3  108.59    7.50
 -10  -3  -3  118.49    7.20
  -3  10  -3  110.69    8.60
   3 -10  -3  102.69    8.20
  -3  10  -3  117.89    9.20
  -3  10  -3  102.39    8.00
 -10  -3  -3  114.89    8.60
  -3  10  -3  113.29    9.40
 -10  -3  -3  117.39    8.70
  10   3  -3  100.39   10.50
  10   3   3  110.49    8.70
   3 -10   3  109.89    7.70
  -3  10   3  125.99    6.80
   3 -10   3  107.59    7.60
  -3  10   3  120.19    9.00
  10   3   3   97.59    9.50
 -10  -3   3   99.59    6.70
  10   3   3  100.09   10.00
  10   3   3  114.79    7.10
 -10  -3   3  115.09    8.40
  -3  10   3  106.29    7.30
 -10  -3   3  114.29    6.70
  10   3   3  111.49    9.40
   3 -10   3  118.39    5.90
 -10  -3   3   97.69    8.90
   3 -10   3  109.89    9.40
   3 -10   3   98.49    7.70
  -3  10   3  118.09    9.20
  -3  10   3  121.09    8.30
  -3  10   3  113.39   10.60
  -1  10  -3  295.37   15.90
  -1  10  -3  318.57   15.60
   1 -10  -3  310.47   15.60
   1 -10  -3  295.27   14.60
 -10  -1  -3  330.67   14.80
  -1  10  -3  302.47   15.60
  -1  10  -3  285.77   15.50
  10   1  -3  315.77   15.30
  -1  10  -3  261.67   16.40
 -10  -1  -3  320.27   16.20
  -1  10  -3  277.47   15.50
  10   1  -3  323.17   14.40
   1 -10  -3  285.97   14.00
  10   1  -3  307.37   18.90
   1 -10  -3  286.17   15.50
 -10  -1  -3  326.57   15.40
   1 -10  -3  298.97   16.60
 -10  -1  -3  332.67   13.30
 -10  -1  -3  302.97   13.50
   1 -10  -3  292.97   16.20
  10   1   3  308.97   14.60
  -1  10   3  324.17   14.20
  10   1   3  291.97   14.00
   1 -10   3  332.07   15.40
  -1  10   3  301.87   14.60
  -1  10   3  317.27   15.10
   1 -10   3  298.07   17.40
  -1  10   3  314.97   16.00
 -10  -1   3  267.57   12.90
 -10  -1   3  277.87   13.40
   1 -10   3  333.27   14.30
   1 -10   3  321.87   11.90
 -10  -1   3  278.87   16.40
   1 -10   3  328.67   15.30
  10   1   3  276.57   17.20
 -10  -1   3  297.37   14.70
  10   1   3  270.37   17.20
 -10  -1   3  281.37   13.40
 -10  -1   3  291.57   13.80
  -1  10   3  323.37   17.60
  -1  10   3  303.17   16.90
   1 -10   3  307.67   15.00
   1 -10   3  316.27   14.00
  -1 -10  -3  295.87   17.00
  10  -1  -3  312.47   14.70
 -10   1  -3  307.67   12.90
   1  10  -3  289.57   15.90
 -10   1  -3  334.47   16.40
   1  10  -3  305.97   15.50
  -1 -10  -3  297.37   13.40
  -1 -10  -3  317.77   15.30
  -1 -10  -3  302.37   16.00
   1  10  -3  307.17   15.60
  10  -1  -3  333.27   14.90
 -10   1  -3  313.07   13.90
   1  10  -3  291.07   15.20
 -10   1  -3  315.47   15.20
   1  10  -3  262.57   17.20
 -10   1  -3  338.37   14.90
  -1 -10  -3  303.37   13.70
  10  -1  -3  297.07   18.20
  -1 -10  -3  283.27   15.50
  -1 -10  -3  302.47   15.40
 -10   1  -3  318.27   12.70
   1  10  -3  303.17   16.40
   1  10   3  323.17   15.30
  10  -1   3  288.07   17.70
   1  10   3  321.17   14.70
  10  -1   3  281.67   16.60
  -1 -10   3  290.47   17.60
  -1 -10   3  313.97   15.00
 -10   1   3  299.37   14.00
 -10   1   3  295.27   12.30
   1  10   3  328.27   18.00
  -1 -10   3  312.07   15.50
   1  10   3  323.67   14.80
  -1 -10   3  327.47   13.40
 -10   1   3  277.87   14.30
 -10   1   3  277.27   12.40
  -1 -10   3  310.77   13.60
  -1 -10   3  338.67   15.90
   1  10   3  311.17   16.80
  -1 -10   3  325.07   16.20
   1  10   3  297.57   16.80
 -10   1   3  276.87   13.10
  10  -1   3  301.47   14.60
  10  -3  -3  117.99    9.00
 -10   3  -3  112.69    6.00
   3  10  -3  114.59    8.40
 -10   3  -3  116.39    6.40
  -3 -10  -3  112.89    8.00
   3  10  -3   88.89    9.90
 -10   3  -3  119.59    6.50
  -3 -10  -3  110.39    6.40
  -3 -10  -3  119.89    7.50
 -10   3  -3  106.29    9.50
 -10   3  -3  106.69    8.60
   3  10  -3  115.89    9.10
 -10   3  -3  113.09    8.40
  10  -3  -3  118.59   10.00
  10  -3  -3  117.89    7.80
   3  10  -3  113.59    7.50
  -3 -10  -3  114.39    8.90
  -3 -10  -3  107.99    9.90
  -3 -10  -3  105.49    7.90
   3  10  -3  114.19    8.70
   3  10  -3  112.29    9.40
  -3 -10  -3   93.89    7.90
 -10   3  -3  113.99    7.00
  -3 -10   3  117.29    7.80
  -3 -10   3  113.19    9.30
   3  10   3  113.99    8.70
   3  10   3  119.49    7.60
 -10   3   3  102.99    9.60
  10  -3   3  110.29   10.00
  10  -3   3  110.59    8.80
 -10   3   3  105.49    9.20
   3  10   3  120.89    9.40
 -10   3   3   96.09    6.60
   3  10   3  119.49   10.70
 -10   3   3  112.19    6.00
  10  -3   3  106.39    7.90
  -3 -10   3  114.59    9.10
 -10   3   3  103.89    5.80
  -3 -10   3  123.29    8.90
  -3 -10   3  109.69    6.90
   3  10   3  122.09    7.40
   3  10   3  109.69   10.00
  -3 -10   3  105.49    8.40
 -10   3   3  118.89    8.20
  -5 -10  -3   87.29    7.20
 -10   5  -3   81.29    5.50
  -5 -10  -3   97.39   10.10
  -5 -10  -3   97.69    6.80
  -5 -10  -3   79.99    7.40
 -10   5  -3   74.59    8.70
  -5 -10  -3  100.39    8.30
   5  10  -3   84.79    8.40
  -5 -10  -3   88.49    7.70
  -5 -10  -3   93.09    7.00
 -10   5  -3   88.69    6.40
  10  -5  -3   78.59    7.90
 -10   5  -3   85.09    5.10
   5  10  -3   90.79    8.20
 -10   5  -3   73.19    8.00
   5  10  -3   88.99    8.20
   5  10  -3   92.89    6.30
 -10   5   3   88.69    5.80
   5  10   3   78.89    9.90
 -10   5   3   88.79    7.80
  10  -5   3   86.99    8.60
  -5 -10   3   90.79    6.70
  10  -5   3   95.09    7.60
   5  10   3   74.69    7.90
 -10   5   3   83.49    5.40
  -5 -10   3   88.89    8.10
 -10   5   3   82.99    7.40
  -5 -10   3   82.29    7.10
  -5 -10   3   82.29    8.90
   5  10   3   83.09    9.70
 -10   5   3   96.99    8.20
 -10   5   3   86.99    6.70
   5  10   3   94.49    6.30
   5  10   3   74.39    7.80
  10  -5   3   81.99    7.40
  -5 -10   3   99.89    8.50
   7  10  -3   74.49    9.40
  -7 -10  -3   69.69    6.40
   7  10  -3   76.19    9.00
 -10   7  -3   82.19    7.20
 -10   7  -3   75.49    9.10
  10  -7  -3   77.49    8.40
 -10   7  -3   58.29    8.20
   7  10  -3   76.49    8.30
  -7 -10  -3   66.99    8.00
  -7 -10  -3   78.29    7.90
  -7 -10  -3   69.19   11.00
  -7 -10   3   68.89    7.20
  -7 -10   3   68.09    9.90
   7  10   3   70.19   10.80
 -10   7   3   59.19    7.20
  -7 -10   3   81.39    6.90
 -10   7   3   62.39    8.20
  10  -7   3   68.79    8.10
 -10   7   3   89.89    7.70
   7  10   3   69.79   10.40
  10  -7   3   77.99    6.80
 -10   9  -3  120.69    9.50
 -10   9  -3  108.89   10.40
   9  10  -3   95.89    9.20
  10  -9  -3   99.79   10.50
  -9 -10  -3   81.49   10.80
 -10   9  -3  104.69   11.50
   9  10  -3   97.39   11.20
  -9 -10  -3   90.99   10.20
   9  10  -3   92.79   11.30
  10  -9   3   82.89   10.50
  -9 -10   3  107.19    9.20
   9  10   3  104.69   15.30
 -10   9   3   92.19   10.00
 -10   9   3  105.09   10.00
  -9 -10   3   94.69    9.20
   9  10   3  107.39   11.40
  11   8  -3   89.49    7.60
 -11  -8  -3  103.59   10.80
  11   8  -3  117.69   11.70
   8 -11  -3   94.49    8.70
   8 -11  -3  122.19   11.60
  -8  11  -3  103.69   10.60
  -8  11  -3  114.29   11.60
  -8  11  -3  115.59   10.10
 -11  -8  -3   91.29   11.30
   8 -11  -3  100.99    8.50
  11   8   3  105.49   15.00
  -8  11   3  122.89   11.10
 -11  -8   3  124.19   10.40
  -8  11   3   87.59   10.00
  11   8   3  106.09    9.50
   8 -11   3   98.19    7.80
   8 -11   3   93.19   10.30
 -11  -8   3  103.79   10.30
   6 -11  -3   62.19   11.10
 -11  -6  -3   68.99    8.70
   6 -11  -3   97.09    8.30
   6 -11  -3   61.79    8.50
  -6  11  -3   84.39    8.70
  -6  11  -3   87.89    9.40
  11   6  -3   72.09    5.40
  -6  11  -3   89.09    8.70
  11   6  -3   79.29    8.80
  11   6  -3   77.19    4.90
 -11  -6  -3   70.99    9.00
  11   6  -3   89.69    9.50
   6 -11  -3   88.39    9.10
  11   6   3   81.29    5.50
  -6  11   3   78.89    8.80
   6 -11   3   85.39    7.20
   6 -11   3   73.29    8.20
 -11  -6   3   73.19    8.80
  -6  11   3   70.89    8.30
  11   6   3   87.49   11.80
 -11  -6   3   72.39    8.10
  11   6   3   92.69    9.90
  11   6   3   76.79    6.30
 -11  -4  -3   77.39    6.30
 -11  -4  -3   72.59    8.00
   4 -11  -3   81.49    8.20
   4 -11  -3   70.59    9.20
   4 -11  -3   80.59    6.90
  -4  11  -3   83.69    8.50
   4 -11  -3   79.39    8.70
 -11  -4  -3   69.69    8.20
  -4  11  -3   53.79    9.40
  -4  11  -3   68.89    8.20
  -4  11  -3   85.09    7.70
  11   4  -3   69.89    8.20
  11   4  -3   79.39    7.90
  11   4  -3   77.49    5.40
 -11  -4   3   71.29    5.70
  11   4   3   68.39   10.20
   4 -11   3   73.99    7.20
 -11  -4   3   75.19    8.20
  11   4   3   80.79    8.30
 -11  -4   3   83.89    7.60
  -4  11   3   78.59   10.90
  11   4   3   83.89    6.20
   4 -11   3   76.19    7.00
 -11  -4   3   68.49    8.10
  -4  11   3   65.59    8.50
  -4  11   3   83.99    7.60
 -11  -2  -3   79.89    8.50
 -11  -2  -3   82.69    8.00
  -2  11  -3  112.59   10.00
   2 -11  -3  105.99    8.60
  -2  11  -3  103.69    8.10
   2 -11  -3   97.69    7.60
 -11  -2  -3  103.29    7.20
   2 -11  -3   92.69    6.90
   2 -11  -3   98.79    9.20
  -2  11  -3  107.69    8.70
  11   2  -3   88.39    6.50
  -2  11  -3   94.29    8.00
  11   2  -3   83.89    8.00
   2 -11  -3   93.69    9.30
  -2  11  -3   87.69    8.80
  -2  11  -3  106.49    8.80
 -11  -2  -3   88.89    6.30
   2 -11   3   92.79    5.90
   2 -11   3   99.09    7.70
  -2  11   3   98.09    9.00
  11   2   3  114.19    8.40
  11   2   3  109.79    7.10
 -11  -2   3   99.79    7.80
   2 -11   3   86.29    7.50
  -2  11   3   83.39    7.20
  -2  11   3  108.19    6.80
  -2  11   3   99.89   10.90
 -11  -2   3  109.59    6.90
 -11  -2   3  102.89   12.10
 -11  -2   3   95.29    9.20
 -11  -2   3   94.69    6.00
  -2  11   3   84.39    6.90
   0 -11  -3  128.19    7.80
   0 -11  -3  132.39    9.10
   0 -11  -3  105.69    9.30
 -11   0  -3  117.39    7.30
   0  11  -3  137.79   10.60
  11   0  -3  123.29    8.80
 -11   0  -3  122.99    6.90
 -11   0  -3  127.89    8.50
   0  11  -3  132.19    9.50
   0 -11  -3  139.69    6.50
   0 -11  -3  128.09   11.10
   0 -11  -3  116.99    9.70
  11   0  -3  114.59    7.90
   0  11  -3  143.59   10.30
   0 -11  -3  130.59   10.10
 -11   0  -3  106.69    6.60
 -11   0  -3  117.59    8.70
   0  11  -3  131.19    9.40
 -11   0  -3  121.09    9.60
   0  11  -3  122.69    8.80
   0  11  -3  119.59   10.60
 -11   0   3  135.79   11.30
   0  11   3  119.69   11.90
   0  11   3  133.69    8.50
 -11   0   3  136.39    8.30
  11   0   3  141.19    8.30
  11   0   3  145.19    8.70
 -11   0   3  123.39    6.40
   0 -11   3  112.49    8.30
   0  11   3  128.19    8.40
   0 -11   3  108.59    6.40
   0  11   3  112.79    8.00
 -11   0   3  137.99    7.80
   0 -11   3  136.19    8.30
   0 -11   3  116.59    9.10
   0 -11   3  115.69    9.60
 -11   0   3  126.79    8.30
  11   0   3  121.89   10.10
 -11   0   3  144.59    7.10
   0  11   3  137.99   10.60
  -2 -11  -3   93.49    7.70
   2  11  -3   99.09    8.80
 -11   2  -3   96.19    7.30
   2  11  -3  107.39    7.60
   2  11  -3   88.39    9.40
   2  11  -3  106.39   10.10
   2  11  -3  100.29    8.50
   2  11  -3   89.59    8.00
 -11   2  -3   85.19    8.20
  -2 -11  -3  101.79   10.30
 -11   2  -3   89.99    7.60
 -11   2  -3   95.99    9.80
  11  -2  -3   87.39    6.80
  -2 -11  -3  105.09    6.80
  -2 -11  -3   98.39    8.50
  -2 -11  -3  103.29    6.30
 -11   2  -3   87.49    5.30
  -2 -11  -3  102.99    8.60
  -2 -11  -3   97.69    8.20
  11  -2   3   91.69    8.70
   2  11   3   84.69    9.90
 -11   2   3  107.39    7.00
   2  11   3  100.59    7.10
 -11   2   3  104.89    6.70
   2  11   3   91.99    7.90
   2  11   3   98.59   11.30
 -11   2   3  101.79   10.40
  -2 -11   3   89.19    8.50
  11  -2   3  108.39    7.80
  -2 -11   3  105.59    6.60
 -11   2   3   98.69    9.40
  -2 -11   3   92.79    8.00
   2  11   3  101.19    7.30
  -2 -11   3   88.39    8.40
  -2 -11   3   91.49    7.50
 -11   2   3   94.39    7.60
   4  11  -3   76.49    8.20
 -11   4  -3   71.69    6.00
 -11   4  -3   71.09    7.80
  -4 -11  -3   85.79    7.40
  -4 -11  -3   78.29    7.00
   4  11  -3   77.89    7.50
  -4 -11  -3   77.09    7.10
   4  11  -3   80.09    6.60
 -11   4  -3   74.19   10.10
   4  11  -3   89.59    8.90
  -4 -11  -3   88.39    8.20
 -11   4  -3   78.79    6.00
  -4 -11  -3   76.49   10.20
  -4 -11  -3   71.29    5.30
  -4 -11  -3   66.49    7.10
 -11   4  -3   75.49    9.40
 -11   4   3   66.19    4.70
  -4 -11   3   71.19    7.80
  -4 -11   3   73.79    6.50
   4  11   3   59.59    9.80
   4  11   3   74.99    7.90
  11  -4   3   72.69    7.50
   4  11   3   66.29   10.20
 -11   4   3   72.19    5.70
 -11   4   3   79.49    6.60
   4  11   3   80.69    6.30
 -11   4   3   83.29    7.70
 -11   4   3   66.59    7.50
  -4 -11   3   70.19    6.80
  -4 -11   3   77.39    8.60
 -11   4   3   72.39    9.60
  -4 -11   3   85.09    8.50
 -11   6  -3   62.59    8.70
  11  -6  -3   89.39    8.80
   6  11  -3   86.99    9.80
   6  11  -3   85.09    9.00
  -6 -11  -3   80.89    8.60
 -11   6  -3   57.49    9.50
   6  11  -3   85.69    9.20
  -6 -11  -3   61.29   11.20
  -6 -11  -3   81.29    7.30
  -6 -11  -3   97.29    8.60
  -6 -11  -3   71.79    7.50
 -11   6  -3   91.39    8.00
  -6 -11   3   71.69    9.70
 -11   6   3   87.09    7.90
  11  -6   3   96.59    9.50
 -11   6   3   75.39    8.80
  11  -6   3   85.39    7.50
 -11   6   3   84.49    8.80
  -6 -11   3   80.99    7.10
   6  11   3   79.89   11.60
  -6 -11   3   76.69    7.30
 -11   6   3   81.29    8.80
   6  11   3   88.59   10.80
   8  11  -3  131.19   11.90
  11  -8  -3   89.59   10.50
 -11   8  -3   83.29   15.50
  -8 -11  -3  101.59   10.60
 -11   8  -3   96.29   11.80
   8  11  -3  113.49   10.30
   8  11  -3   99.79   12.10
 -11   8  -3   83.89   11.00
  -8 -11  -3   97.99   10.30
   8  11   3   81.89   13.60
   8  11   3   97.69   14.10
  -8 -11   3   88.79    9.00
 -11   8   3   94.29   10.20
  -8 -11   3  110.09    9.40
 -11   8   3  103.09   10.20
  11  -8   3  111.09   12.20
  12   7  -3   58.39    8.10
   7 -12  -3   55.59    9.50
  -7  12  -3   55.39   10.10
 -12  -7  -3   61.99    9.90
  -7  12  -3   63.69    9.20
   7 -12  -3   63.99   12.30
   7 -12  -3   59.79    7.80
 -12  -7  -3   80.29   11.10
  12   7  -3   80.79   10.80
  -7  12  -3   52.69   10.00
  12   7   3   78.79   13.80
  -7  12   3   70.49   10.50
 -12  -7   3   77.49    9.30
  -7  12   3   62.19    9.60
   7 -12   3   53.49    9.40
 -12  -7   3   66.29    9.00
   7 -12   3   84.99    7.70
  -5  12  -3   81.39   10.00
  -5  12  -3   87.99    9.60
   5 -12  -3   73.69   10.00
 -12  -5  -3   98.69   10.00
  12   5  -3  101.19   10.50
   5 -12  -3   89.09    8.60
  12   5  -3  110.19   10.10
   5 -12  -3   80.89    9.30
  -5  12  -3  111.19    9.80
 -12  -5  -3   94.29   10.90
   5 -12  -3   87.49   12.20
  12   5   3   81.99   12.50
  -5  12   3   97.49    9.10
   5 -12   3  101.89    8.50
  -5  12   3   97.69   10.70
 -12  -5   3   93.99    9.80
   5 -12   3  109.29    9.80
  12   5   3  106.19   10.10
 -12  -5   3   97.99   10.00
  -3  12  -3   91.59    9.50
  -3  12  -3   83.99    8.80
  -3  12  -3   75.19    9.00
   3 -12  -3   88.89   10.40
  12   3  -3  101.99    6.80
   3 -12  -3   85.49    9.60
   3 -12  -3  107.79   10.20
 -12  -3  -3  105.09    9.50
 -12  -3  -3  110.99    7.50
   3 -12  -3   77.69    7.70
  -3  12  -3   94.79   11.20
  12   3  -3   95.79    9.10
 -12  -3  -3   91.89    9.50
  12   3   3   85.59    9.10
 -12  -3   3   73.69    9.40
  -3  12   3   93.59   13.10
  -3  12   3  101.29    9.90
   3 -12   3   83.49    8.00
 -12  -3   3   78.89    8.00
 -12  -3   3   99.09    7.10
   3 -12   3   89.19    8.10
  -3  12   3  105.89    9.00
 -12  -3   3   81.89    9.30
  12   1  -3   78.39    6.20
 -12  -1  -3   77.49    6.90
  -1  12  -3   77.09    7.40
  -1  12  -3   78.09    8.40
   1 -12  -3   83.09    7.90
   1 -12  -3   92.89    9.80
  -1  12  -3   73.89    8.50
  -1  12  -3   78.69    8.20
   1 -12  -3   78.59    6.30
   1 -12  -3   93.79   10.20
  12   1  -3   75.69    7.80
  -1  12  -3   73.49   10.00
 -12  -1  -3   85.89    8.10
 -12  -1  -3   75.29    8.60
   1 -12  -3   74.29    7.20
  -1  12  -3   83.19    8.30
  -1  12   3   79.69    7.60
  -1  12   3   80.39    9.50
   1 -12   3   76.89    7.50
 -12  -1   3   83.29    7.10
 -12  -1   3   87.29    7.10
 -12  -1   3   77.39   10.90
   1 -12   3   72.09    8.40
  12   1   3   66.29    7.10
  -1  12   3   80.79    7.70
  -1  12   3   92.79   12.00
  12   1   3   79.49    7.70
 -12  -1   3   77.29    9.50
 -12  -1   3   79.59    7.00
  -1  12   3   76.99    6.60
  -1 -12  -3   73.29   10.20
   1  12  -3   90.89    7.80
  -1 -12  -3   71.79    7.30
   1  12  -3   87.29    8.70
  -1 -12  -3   65.59   10.10
 -12   1  -3   72.09    7.00
 -12   1  -3   85.49    7.60
   1  12  -3   87.69   10.10
  -1 -12  -3   73.09    6.00
  -1 -12  -3   75.79    8.50
 -12   1  -3   76.89    7.70
  -1 -12  -3   72.59    5.80
 -12   1  -3   78.99    9.00
 -12   1  -3   81.69    6.20
   1  12  -3   77.09    7.90
  12  -1  -3   71.89    6.50
  -1 -12  -3   76.79    9.10
   1  12  -3   81.39    8.60
  -1 -12   3   90.79    9.20
  -1 -12   3   78.29    7.30
 -12   1   3   80.79    7.20
  -1 -12   3   81.49    5.80
   1  12   3   81.79    7.80
  -1 -12   3   84.59    8.80
 -12   1   3   80.59   10.00
 -12   1   3   64.99    6.60
   1  12   3   76.99    6.80
   1  12   3   68.39   11.50
 -12   1   3   68.19    7.70
 -12   1   3   77.09    5.20
   1  12   3   93.99    7.30
  -1 -12   3   75.19    7.20
   1  12   3   87.29   10.40
   3  12  -3   99.29    9.60
   3  12  -3   89.49    9.40
  -3 -12  -3   91.89    6.40
 -12   3  -3   94.49   11.30
  -3 -12  -3   90.59    8.20
   3  12  -3   89.19    7.50
 -12   3  -3   98.69   10.60
 -12   3  -3   91.19    9.30
 -12   3  -3   70.59    9.90
   3  12  -3   89.59   10.00
 -12   3  -3   99.39    7.60
  -3 -12  -3   77.99    8.60
  -3 -12  -3   86.69    7.40
  -3 -12  -3   62.49   10.80
  -3 -12  -3   71.69    8.60
   3  12   3   89.59   11.60
   3  12   3  102.49   12.30
  12  -3   3   79.29    8.40
 -12   3   3   80.29    8.20
   3  12   3   94.49    7.50
 -12   3   3   99.89    7.70
  -3 -12   3  106.09    9.60
  -3 -12   3  103.89    9.10
 -12   3   3   82.89    8.80
  -3 -12   3   95.59    8.30
 -12   3   3   95.99    5.80
  -3 -12   3   87.09    9.50
   3  12   3   95.09    8.30
 -12   3   3   85.09   10.70
  -3 -12   3   96.79    7.10
 -12   3   3   94.29    7.20
  -5 -12  -3   93.89   13.00
  -5 -12  -3   74.19    8.20
   5  12  -3  108.59   11.10
   5  12  -3  100.09   10.60
  -5 -12  -3   96.29    9.60
 -12   5  -3  107.19    9.90
  -5 -12  -3   95.99    8.80
 -12   5  -3   99.49   11.30
   5  12  -3   89.99   10.50
 -12   5   3   88.49   12.30
 -12   5   3   91.29    7.80
   5  12   3   92.69   12.80
  -5 -12   3   99.29    7.70
  -5 -12   3   86.59    8.60
 -12   5   3   88.39    9.20
  -5 -12   3   95.49    9.30
  -5 -12   3  100.79    9.30
 -12   5   3  101.49    8.80
   5  12   3   82.59   12.40
  -5 -12   3  117.69   11.10
  12  -5   3   91.19    8.60
 -12   5   3  110.49    9.80
   5  12   3   89.19    9.30
  -7 -12  -3   50.49    9.10
   7  12  -3   72.49   11.00
 -12   7  -3   78.29   11.20
 -12   7  -3   62.99   10.40
   7  12  -3   57.59    9.30
  -7 -12  -3   51.59    9.20
   7  12  -3   59.79    9.10
   7  12   3   80.99   14.40
 -12   7   3   75.29    9.60
  -7 -12   3   68.09    7.80
 -12   7   3   53.99   11.40
 -12   7   3   49.40    7.00
  12  -7   3   77.49   10.60
   7  12   3   67.79   10.50
  -7 -12   3   63.19    8.50
 -13  -6  -3   47.00    7.70
  13   6  -3   38.30    7.50
   6 -13  -3   44.90    9.30
   6 -13  -3   47.10    7.00
  -6  13  -3   44.70    8.20
   6 -13  -3   39.10    7.40
 -13  -6   3   66.29   10.00
   6 -13   3   48.10    9.10
   6 -13   3   43.20    7.70
  -6  13   3   47.60    7.20
 -13  -6   3   52.89    8.20
  -6  13   3   39.10    7.30
  13   6   3   42.70    9.90
 -13  -4  -3   58.19    9.70
 -13  -4  -3   58.89    9.70
  -4  13  -3   77.09    9.90
   4 -13  -3   83.99   12.00
  -4  13  -3   66.69    8.10
   4 -13  -3   58.29    7.60
  13   4  -3   62.79    8.30
   4 -13  -3   59.89   10.80
  -4  13   3   67.19   10.70
   4 -13   3   60.29    8.60
   4 -13   3   79.69    8.90
  13   4   3   61.49   10.00
  13   4   3   47.90   10.50
  -4  13   3   65.09    8.70
 -13  -4   3   54.89   10.10
   2 -13  -3   61.09    9.10
   2 -13  -3   73.39    7.90
  13   2  -3   65.29    6.30
  -2  13  -3   84.59    8.90
   2 -13  -3   52.59    8.90
 -13  -2  -3   71.79    9.40
 -13  -2  -3   65.69    6.80
   2 -13  -3   68.39   10.60
  -2  13  -3   64.39    9.50
  -2  13  -3   78.89   11.30
   2 -13   3   66.39    8.60
 -13  -2   3   88.39   10.60
   2 -13   3   57.39    8.50
 -13  -2   3   85.59    7.70
  -2  13   3   56.09    8.50
 -13  -2   3   95.09   11.00
  13   2   3   83.69    9.30
  -2  13   3   75.99    8.40
 -13  -2   3   78.79    9.40
 -13  -2   3   76.49    7.50
  -2  13   3   52.29   11.00
  13   0  -3   63.09    6.30
 -13   0  -3   60.89    9.60
   0  13  -3   84.59    8.60
   0 -13  -3   69.89   11.10
   0  13  -3   84.39   11.10
 -13   0  -3   54.79    6.70
   0 -13  -3   68.99   10.80
   0  13  -3   65.89    7.80
   0 -13  -3   72.69    6.50
 -13   0  -3   65.09    8.40
   0  13  -3   67.79    9.30
   0  13  -3   54.29    9.00
   0 -13  -3   65.69    7.30
   0 -13  -3   81.19    9.60
   0  13   3   62.59    7.90
 -13   0   3   64.99   10.60
   0  13   3   94.99   13.70
   0  13   3   65.09    6.90
 -13   0   3   67.69    9.30
 -13   0   3   66.79    7.90
   0 -13   3   74.89    9.20
 -13   0   3   78.09    8.80
   0 -13   3   62.49    7.60
   0  13   3   64.69   10.90
 -13   0   3   73.09    7.60
   2  13  -3   68.59    5.80
 -13   2  -3   66.89    9.30
  -2 -13  -3   72.89    9.40
  -2 -13  -3   75.69    9.80
  -2 -13  -3   62.29   11.70
   2  13  -3   75.69    7.60
 -13   2  -3   76.09    9.50
   2  13  -3   81.99    9.80
 -13   2  -3   64.59   11.30
 -13   2  -3   72.69    8.40
   2  13  -3   66.19    9.50
   2  13  -3   71.99   10.90
  -2 -13  -3   69.29    6.20
 -13   2   3   77.19    8.20
 -13   2   3   79.59   10.50
   2  13   3   69.79    8.10
   2  13   3   67.59    8.10
   2  13   3   63.69   11.50
 -13   2   3   81.69    7.80
 -13   2   3   83.89   11.90
  -2 -13   3   87.19   11.80
  -2 -13   3   78.99    8.50
  -2 -13   3   72.59    6.70
   2  13   3   67.29    8.10
   2  13   3   85.59   13.30
  -2 -13   3   63.19    7.50
  -2 -13   3   55.99    9.70
 -13   4  -3   73.89   11.60
  -4 -13  -3   83.49    8.00
  -4 -13  -3   49.20    8.80
  -4 -13  -3   73.09    9.30
 -13   4  -3   79.99   10.50
   4  13  -3   67.29   10.60
   4  13  -3   57.39    9.60
  -4 -13  -3   57.29    7.70
   4  13  -3   67.09    9.80
 -13   4   3   53.79   11.90
  -4 -13   3   52.99    8.00
  -4 -13   3   53.49    8.10
   4  13   3   71.79   12.60
  13  -4   3   43.10    7.70
  -4 -13   3   59.09    7.40
 -13   4   3   73.39    8.40
  -4 -13   3   60.09    8.70
 -13   4   3   57.19    7.90
  -4 -13   3   63.39    8.90
 -13   4   3   71.09   12.50
   4  13   3   72.29    8.50
   4  13   3   82.99   13.60
 -13   6  -3   43.90    7.90
   6  13  -3   35.40    7.80
 -13   6  -3   41.50    7.90
   6  13  -3   72.59   11.00
   6  13  -3   57.99    9.20
  -6 -13  -3   51.09    6.70
  -6 -13  -3   61.49    9.90
   6  13   3   42.10    9.60
  -6 -13   3   43.70    6.40
  13  -6   3   51.19    8.10
 -13   6   3   52.69    7.60
   6  13   3   64.49   10.30
 -13   6   3   74.09   13.60
  -6 -13   3   43.50    6.70
 -13   6   3   51.39    8.90
   3 -14  -3   78.59   12.40
   3 -14  -3   73.39    8.30
 -14  -3  -3   81.79   11.90
   3 -14  -3   58.19   10.30
  -3  14  -3   89.79   10.70
   3 -14  -3   66.49   11.50
 -14  -3  -3   89.09   11.80
  -3  14  -3   80.09   11.20
   3 -14   3   88.49   10.30
 -14  -3   3   73.59   11.60
  -3  14   3  102.09   12.60
 -14  -3   3   63.59    9.70
   3 -14   3   85.69   10.40
  -3  14   3   96.99   10.40
  14   3   3   66.39   13.20
  -1  14  -3   45.10    6.70
  14   1  -3   31.90    5.80
   1 -14  -3   45.10    6.80
  -1  14  -3   41.80    7.50
 -14  -1  -3   63.79   10.60
 -14  -1  -3   46.80    7.00
  -1  14  -3   34.20   20.00
   1 -14  -3   41.10    8.20
   1 -14  -3   38.50    7.40
 -14  -1  -3   30.50    6.70
 -14  -1   3   50.29    9.00
  -1  14   3   43.00    8.50
 -14  -1   3   50.19    7.50
   1 -14   3   32.10    6.10
 -14  -1   3   54.29   10.00
   1 -14   3   28.00    5.10
  -1  14   3   43.30    6.10
 -14  -1   3   50.69    7.50
   1  14  -3   44.30    9.10
   1  14  -3   48.80    7.20
 -14   1  -3   40.00    8.60
  -1 -14  -3   39.20    6.00
 -14   1  -3   47.80    8.00
  -1 -14  -3   50.39    8.30
  -1 -14  -3   59.79    9.80
   1  14  -3   44.80    6.80
   1  14  -3   54.79    9.90
  -1 -14  -3   40.60    7.50
   1  14  -3   50.79    7.60
   1  14  -3   25.80   11.50
 -14   1  -3   58.89    9.90
  -1 -14   3   30.50    6.60
  -1 -14   3   44.50    8.00
   1  14   3   39.60    5.70
   1  14   3   43.00   10.40
 -14   1   3   32.40    8.50
 -14   1   3   48.10    7.70
   1  14   3   48.40    8.90
 -14   1   3   44.30    6.30
   1  14   3   48.80    7.10
  -3 -14  -3   57.49   10.80
  -3 -14  -3   98.59   15.30
   3  14  -3   63.79   11.10
 -14   3  -3   56.79    9.40
   3  14  -3   90.09   11.60
   3  14  -3   83.59   13.30
  -3 -14  -3   79.39   12.10
 -14   3  -3   83.19   11.80
  -3 -14   3   82.99   11.50
 -14   3   3   60.49    8.00
   3  14   3   79.09    9.40
 -14   3   3   60.49   10.50
  -3 -14   3   69.39    9.20
   3  14   3   57.59   11.50
  -3 -14   3   66.49    9.50
 -14   3   3   77.69   14.30
   0   0  -4 9999.00  340.87
   0   0  -4 9156.18  341.17
   0   0  -4 9633.44  340.37
   0   0  -4 9229.38  340.87
   0   0  -4 9684.63  341.77
   0   0  -4 9431.56  340.77
   0   0   4 9919.71  341.97
   0   0   4 9646.74  340.57
   0   0   4 9773.32  340.47
   0   0   4 9525.65  340.67
   0   0   4 9538.55  340.17
   1   1  -4  303.47   14.20
  -1  -1  -4  311.67   14.10
   1  -1  -4  286.17   14.10
  -1   1  -4  301.07   13.20
  -1  -1  -4  302.07   14.50
   1   1  -4  308.77   13.40
  -1   1  -4  327.77   12.80
   1   1  -4  314.47   12.20
  -1   1  -4  290.97   14.40
   1   1  -4  317.37   14.20
   1  -1  -4  311.07   14.60
  -1  -1  -4  321.47   14.10
   1   1  -4  302.27   14.30
   1  -1  -4  295.87   14.00
  -1   1  -4  289.37   14.20
  -1   1  -4  296.57   13.30
  -1   1  -4  286.97   14.00
   1  -1  -4  334.87   14.30
   1   1  -4  284.57   13.80
   1  -1  -4  323.27   13.40
   1   1  -4  315.67   13.90
  -1   1  -4  299.17   13.70
  -1  -1  -4  289.07   13.80
  -1  -1  -4  302.67   13.70
   1  -1  -4  301.17   13.50
   1  -1   4  305.67   14.10
  -1  -1   4  285.87   13.40
  -1  -1   4  319.37   13.50
   1  -1   4  310.47   14.80
  -1   1   4  319.07   12.70
   1  -1   4  299.27   14.40
  -1   1   4  298.27   14.90
   1   1   4  291.77   14.40
  -1  -1   4  308.97   13.80
   1  -1   4  298.57   12.70
  -1  -1   4  295.87   13.50
   1   1   4  304.07   13.70
   1   1   4  305.37   13.60
  -1  -1   4  277.37   14.80
   1   1   4  291.37   12.60
  -1   1   4  295.07   13.70
   1   1   4  303.77   13.50
   1  -1   4  295.77   13.50
   1  -1   4  307.27   13.30
  -1   1   4  304.67   13.80
   1   1   4  292.17   14.60
  -1   1   4  307.97   13.60
   0   2  -4 3588.84  127.09
   0  -2  -4 3297.27  125.69
   0   2  -4 3517.65  125.09
   2   0  -4 3547.15  126.89
  -2   0  -4 3456.75  125.89
  -2   0  -4 3325.87  126.39
   0   2  -4 3340.07  126.49
   0  -2  -4 3554.74  127.29
  -2   0  -4 3608.44  127.29
  -2   0  -4 3457.35  126.29
   0  -2  -4 3401.06  126.39
   0   2  -4 3525.05  125.79
   0  -2  -4 3391.16  126.69
   0   2  -4 3340.27  126.79
   2   0  -4 3533.05  126.89
   0   2  -4 3491.25  126.29
   2   0  -4 3269.57  126.09
   0  -2  -4 3407.06  125.59
   2   0  -4 3541.35  127.19
   2   0  -4 3673.73  125.39
   0   2  -4 3743.43  126.29
  -2   0  -4 3496.25  126.79
   2   0  -4 3540.75  126.69
   2   0   4 3511.55  125.99
   0   2   4 3365.26  126.09
   2   0   4 3489.65  126.89
   0   2   4 3521.55  127.49
   2   0   4 3484.65  127.19
   0   2   4 3521.75  125.69
   2   0   4 3486.85  124.29
   2   0   4 3696.13  123.99
   0  -2   4 3486.65  126.59
   0  -2   4 3619.64  126.19
  -2   0   4 3551.94  124.79
  -2   0   4 3471.05  128.19
   0  -2   4 3405.96  125.39
  -2   0   4 3349.86  126.39
   0   2   4 3658.43  125.19
   0   2   4 3502.05  125.39
  -2   0   4 3446.96  125.99
   0  -2   4 3519.15  125.89
   0   2   4 3520.15  125.69
   0   2   4 3336.97  126.99
  -2   0   4 3415.56  125.99
   2   0   4 3421.16  127.19
   0  -2   4 3403.36  127.69
   0  -2   4 3498.55  126.99
   2   0   4 3733.33  125.29
   2   2  -4 1613.24   61.09
  -2   2  -4 1608.14   60.79
  -2   2  -4 1639.04   59.69
  -2  -2  -4 1608.54   60.69
  -2  -2  -4 1565.34   60.89
  -2  -2  -4 1628.34   60.79
   2  -2  -4 1532.85   60.79
   2   2  -4 1622.54   60.69
   2   2  -4 1604.54   61.09
   2  -2  -4 1689.53   59.39
  -2   2  -4 1660.63   61.69
   2   2  -4 1677.03   62.09
  -2  -2  -4 1650.53   61.89
   2  -2  -4 1529.05   61.49
   2   2  -4 1679.73   60.19
   2  -2  -4 1590.54   59.99
   2   2  -4 1594.44   61.19
  -2   2  -4 1560.64   61.19
  -2   2  -4 1704.93   61.49
   2  -2  -4 1640.94   61.59
  -2   2  -4 1666.63   60.69
  -2   2  -4 1728.03   58.69
  -2  -2  -4 1636.64   60.59
  -2   2   4 1595.94   60.39
   2  -2   4 1626.64   61.99
  -2   2   4 1595.04   60.79
   2   2   4 1721.93   59.69
  -2   2   4 1674.83   62.19
  -2  -2   4 1643.84   62.99
   2   2   4 1645.84   60.89
  -2  -2   4 1636.94   60.29
   2  -2   4 1599.74   60.39
  -2  -2   4 1641.54   60.99
   2   2   4 1373.26   58.99
   2  -2   4 1572.94   61.49
   2   2   4 1570.64   60.39
   2   2   4 1677.63   62.19
  -2  -2   4 1633.94   61.49
   2   2   4 1648.83   61.79
   2  -2   4 1738.63   59.89
   2  -2   4 1613.44   59.09
   2  -2   4 1611.44   60.99
  -2  -2   4 1709.13   60.59
   2   2   4 1617.44   60.89
  -2  -2   4 1642.04   60.99
  -2   2   4 1575.34   61.09
   1  -3  -4   56.49    5.10
  -3  -1  -4   54.69    4.60
   3   1  -4   50.49    4.40
  -1   3  -4   57.59    4.40
  -3  -1  -4   56.09    4.60
   3   1  -4   56.29    4.60
  -1   3  -4   62.69    4.40
   1  -3  -4   59.89    4.70
   1  -3  -4   58.99    4.10
   3   1  -4   63.79    5.00
  -1   3  -4   56.99    5.00
  -1   3  -4   61.29    4.70
   1  -3  -4   66.09    5.60
   3   1  -4   60.69    4.90
   3   1  -4   58.79    5.60
  -3  -1  -4   51.69    4.70
  -1   3  -4   58.59    5.00
   1  -3  -4   56.99    4.20
  -1   3  -4   59.29    5.00
  -3  -1  -4   58.89    4.60
  -1   3  -4   58.39    4.10
   1  -3   4   61.39    4.40
   3   1   4   64.59    3.80
  -3  -1   4   58.79    4.50
  -3  -1   4   48.70    3.90
  -1   3   4   55.59    4.10
   3   1   4   56.39    5.10
   3   1   4   59.59    5.20
  -1   3   4   54.49    4.20
   1  -3   4   58.09    3.90
   1  -3   4   55.39    4.90
  -1   3   4   56.59    4.50
  -3  -1   4   62.19    5.90
   1  -3   4   60.79    5.10
  -1   3   4   52.09    5.20
   3   1   4   59.89    3.30
  -3  -1   4   55.79    4.40
   3   1   4   57.39    4.40
   1  -3   4   56.49    5.20
  -3  -1   4   60.19    4.90
  -1   3   4   54.69    4.50
  -1   3   4   58.19    5.00
   3   1   4   57.99    5.00
   3   1   4   62.29    5.30
   1  -3   4   57.59    4.30
   3  -1  -4   60.39    4.90
  -3   1  -4   59.59    5.00
   1   3  -4   51.39    4.30
  -3   1  -4   57.19    4.80
   1   3  -4   59.69    3.80
   3  -1  -4   57.29    5.30
   3  -1  -4   56.49    4.60
  -1  -3  -4   54.69    4.30
   1   3  -4   55.89    4.90
   3  -1  -4   54.99    4.20
   1   3  -4   59.59    4.90
  -3   1  -4   52.19    4.00
  -3   1  -4   56.19    4.50
   1   3  -4   58.89    4.70
  -1  -3  -4   59.29    4.60
  -1  -3  -4   58.79    4.50
   3  -1  -4   58.19    3.80
   1   3  -4   56.89    5.10
  -1  -3  -4   58.69    5.40
  -1  -3  -4   52.39    4.90
   3  -1  -4   52.29    4.80
   1   3  -4   58.39    4.90
   3  -1   4   56.19    4.40
  -1  -3   4   60.59    4.80
  -3   1   4   56.59    5.40
  -3   1   4   58.99    4.60
   3  -1   4   60.49    3.20
   1   3   4   53.69    4.40
   1   3   4   55.09    4.00
   3  -1   4   54.39    4.70
  -3   1   4   60.99    4.50
  -1  -3   4   56.69    4.30
   3  -1   4   58.29    5.40
   1   3   4   60.49    4.40
  -3   1   4   62.69    5.00
   1   3   4   55.39    4.60
   1   3   4   55.49    4.20
  -1  -3   4   55.99    5.40
  -1  -3   4   61.09    4.30
  -1  -3   4   58.19    4.80
   3  -1   4   63.59    5.10
  -1  -3   4   59.29    5.00
   1   3   4   55.09    4.90
   1   3   4   62.29    4.20
   3   3  -4   50.99    4.40
  -3  -3  -4   42.20    4.10
  -3   3  -4   43.50    3.40
   3  -3  -4   41.60    4.50
  -3   3  -4   45.70    4.50
   3  -3  -4   40.40    3.30
  -3   3  -4   39.60    3.80
   3  -3  -4   43.40    4.70
   3   3  -4   45.90    4.50
  -3  -3  -4   46.40    4.20
  -3   3  -4   46.70    4.60
   3   3  -4   40.20    2.70
   3   3  -4   50.69    4.50
  -3  -3  -4   42.80    5.00
  -3  -3  -4   44.40    4.30
  -3   3  -4   46.30    4.30
   3   3  -4   45.80    4.10
   3   3  -4   43.50    4.20
  -3  -3  -4   45.70    4.30
   3  -3  -4   46.00    4.10
   3   3  -4   43.60    5.20
  -3   3   4   40.80    4.30
   3  -3   4   41.60    4.10
  -3  -3   4   51.89    4.40
   3   3   4   45.70    3.50
   3   3   4   43.40    4.40
   3  -3   4   38.80    3.80
  -3  -3   4   42.30    4.10
  -3  -3   4   44.70    4.30
   3   3   4   43.60    4.50
   3  -3   4   43.80    3.20
   3   3   4   46.70    4.80
   3   3   4   42.00    3.50
   3  -3   4   38.10    4.90
   3   3   4   39.60    3.80
  -3  -3   4   40.10    3.80
  -3   3   4   44.20    4.70
  -3   3   4   43.00    3.80
   3  -3   4   47.20    4.50
  -3   3   4   39.80    3.00
  -3  -3   4   42.70    4.50
   3   3   4   40.80    4.60
  -3  -3   4   46.20    5.30
  -3   3   4   40.60    3.90
  -2   4  -4  724.23   27.20
  -4  -2  -4  727.13   29.40
   4   2  -4  756.22   29.20
   4   2  -4  703.13   29.20
  -2   4  -4  759.72   28.30
  -2   4  -4  719.73   29.50
  -2   4  -4  709.93   29.80
   2  -4  -4  768.52   27.90
   4   2  -4  736.63   29.80
   2  -4  -4  753.12   30.30
  -4  -2  -4  691.83   29.00
  -2   4  -4  686.03   30.10
  -4  -2  -4  718.63   29.40
  -2   4  -4  750.52   29.10
  -4  -2  -4  739.63   29.20
   2  -4  -4  708.73   29.20
   4   2  -4  701.23   29.30
   2  -4  -4  687.23   27.60
  -2   4  -4  755.02   29.90
   2  -4  -4  740.73   30.30
   4   2  -4  698.73   31.40
   2  -4   4  703.53   27.90
  -2   4   4  682.33   29.10
  -2   4   4  747.63   29.90
   4   2   4  703.33   30.30
   4   2   4  712.73   30.20
   2  -4   4  744.13   29.30
   4   2   4  720.33   28.70
  -4  -2   4  711.93   29.90
  -4  -2   4  715.43   29.30
   2  -4   4  693.73   28.60
  -4  -2   4  781.12   28.90
  -2   4   4  725.43   28.00
  -4  -2   4  706.93   28.50
  -2   4   4  749.13   30.50
   2  -4   4  759.82   28.40
  -2   4   4  716.33   28.60
   4   2   4  740.53   27.10
   4   2   4  729.83   30.30
   4   2   4  795.52   27.40
   2  -4   4  718.43   30.80
   2  -4   4  709.33   29.60
  -4  -2   4  664.83   31.30
   0   4  -4  532.05   21.90
  -4   0  -4  504.45   21.80
  -4   0  -4  512.75   20.90
   4   0  -4  490.25   21.10
   0  -4  -4  514.55   21.30
  -4   0  -4  502.35   21.30
   4   0  -4  507.65   21.50
   0  -4  -4  524.55   20.80
  -4   0  -4  495.55   21.80
   0   4  -4  501.15   22.10
   0  -4  -4  510.85   22.40
   0   4  -4  526.35   20.70
   4   0  -4  503.35   23.20
   4   0  -4  515.85   21.50
   4   0  -4  504.15   22.20
   0  -4  -4  511.45   20.70
   0   4  -4  530.35   20.40
   0   4  -4  513.35   21.70
   0  -4  -4  490.25   22.10
   0   4  -4  492.85   22.20
   0   4  -4  517.65   22.10
   0  -4   4  495.45   20.70
  -4   0   4  554.44   19.70
   4   0   4  484.95   22.30
  -4   0   4  489.05   21.10
   0   4   4  529.55   22.10
   0   4   4  489.35   22.50
   0  -4   4  515.25   22.90
   0   4   4  510.35   21.10
  -4   0   4  517.75   23.50
   4   0   4  505.95   21.80
   4   0   4  509.15   21.20
  -4   0   4  507.05   22.40
   0   4   4  511.15   20.90
   0  -4   4  506.95   20.80
   0  -4   4  521.75   21.50
   4   0   4  495.45   22.70
  -4   0   4  513.75   21.20
   0  -4   4  514.15   22.50
   0  -4   4  522.35   21.90
   0   4   4  513.55   21.40
   0   4   4  490.95   21.40
   2   4  -4  721.73   29.60
   4  -2  -4  718.93   27.90
  -4   2  -4  689.13   29.30
   4  -2  -4  669.73   29.60
  -4   2  -4  712.23   28.80
   2   4  -4  739.03   28.90
   2   4  -4  767.42   28.60
   2   4  -4  712.63   29.30
  -2  -4  -4  746.43   28.80
   2   4  -4  736.43   30.60
  -2  -4  -4  714.13   28.50
   2   4  -4  679.43   29.10
   4  -2  -4  722.03   30.70
   2   4  -4  710.43   27.40
  -4   2  -4  718.23   29.60
   4  -2  -4  719.93   29.20
  -2  -4  -4  696.73   29.80
  -4   2  -4  722.03   27.50
  -2  -4  -4  690.23   29.50
   4  -2  -4  707.03   29.00
  -2  -4  -4  742.73   28.60
   4  -2   4  708.43   28.80
  -2  -4   4  719.33   29.40
  -4   2   4  698.23   28.40
   2   4   4  726.23   27.40
   2   4   4  775.92   28.00
   4  -2   4  712.13   30.70
  -4   2   4  688.53   28.70
   2   4   4  730.83   30.30
   2   4   4  724.33   28.40
  -4   2   4  706.33   30.60
  -2  -4   4  742.53   29.90
   4  -2   4  706.03   28.60
  -2  -4   4  707.63   30.90
  -2  -4   4  695.83   28.70
  -4   2   4  725.13   30.10
   4  -2   4  737.93   26.90
   2   4   4  711.13   28.60
  -2  -4   4  738.73   28.10
   4  -2   4  715.73   29.50
   2   4   4  693.83   29.40
  -2  -4   4  722.83   29.30
   2   4   4  711.13   29.90
   4   4  -4  794.72   30.80
  -4  -4  -4  841.32   33.90
   4  -4  -4  828.42   32.90
  -4  -4  -4  768.62   32.50
  -4  -4  -4  830.92   32.10
   4   4  -4  820.12   33.50
   4   4  -4  832.22   33.10
   4   4  -4  831.22   35.70
   4  -4  -4  821.22   30.70
   4   4  -4  845.02   31.50
  -4   4  -4  784.62   32.70
  -4  -4  -4  830.22   33.60
   4  -4  -4  831.92   33.40
  -4   4  -4  808.62   33.30
   4  -4  -4  805.92   34.10
  -4   4  -4  830.62   33.50
   4   4  -4  826.02   32.70
   4   4  -4  838.02   33.10
  -4   4  -4  771.92   33.70
  -4  -4  -4  832.02   33.00
  -4   4   4  835.92   30.80
  -4  -4   4  847.92   33.50
   4   4   4  807.62   34.00
   4   4   4  805.82   34.10
   4   4   4  838.12   34.60
  -4   4   4  804.72   32.30
   4   4   4  823.32   32.30
   4  -4   4  826.22   32.50
  -4  -4   4  844.82   36.20
   4  -4   4  827.62   32.40
   4  -4   4  830.32   33.00
   4  -4   4  840.32   31.50
   4   4   4  860.21   33.90
  -4  -4   4  822.52   31.60
  -4  -4   4  807.12   33.40
  -4  -4   4  804.72   33.20
   4   4   4  828.72   32.00
  -4   4   4  798.12   33.10
  -4   4   4  827.12   33.90
   3  -5  -4   71.29    6.60
  -5  -3  -4   85.49    6.10
   3  -5  -4   91.19    7.10
  -3   5  -4   85.29    6.70
  -3   5  -4   82.69    6.60
   5   3  -4   90.79    8.20
   5   3  -4   88.09    6.50
  -5  -3  -4   91.09    6.50
  -5  -3  -4   89.49    6.00
   5   3  -4   86.89    6.10
  -3   5  -4   83.99    5.80
  -5  -3  -4   90.19    6.60
  -3   5  -4   93.09    6.40
  -3   5  -4   84.69    6.40
   3  -5  -4   88.89    6.20
   3  -5  -4   89.29    4.50
   5   3  -4   92.89    6.10
   5   3  -4   93.39    6.60
   3  -5   4   98.59    6.20
  -3   5   4   83.39    5.60
  -3   5   4   93.49    6.50
  -5  -3   4   81.19    6.60
   3  -5   4   83.79    5.30
  -5  -3   4   92.19    8.10
   3  -5   4   93.39    6.10
   5   3   4   87.29    7.00
   3  -5   4   89.79    6.20
   5   3   4   83.19    6.90
  -3   5   4   88.29    6.90
   5   3   4   87.79    7.50
  -5  -3   4   89.39    5.80
   5   3   4   95.69    5.40
  -3   5   4   87.69    6.40
  -5  -3   4   85.39    6.20
   3  -5   4   88.59    5.50
  -5  -3   4   90.49    6.40
   5   3   4   88.89    5.90
   3  -5   4   87.19    7.50
   5   3   4   88.39    6.90
  -1   5  -4   28.90    3.80
   5   1  -4   34.50    4.10
  -5  -1  -4   27.70    3.50
  -1   5  -4   30.80    2.70
   1  -5  -4   29.90    4.10
   1  -5  -4   32.80    2.60
   5   1  -4   33.00    3.60
   1  -5  -4   26.30    4.30
   5   1  -4   32.70    3.70
  -5  -1  -4   31.90    4.20
   1  -5  -4   29.00    3.00
  -1   5  -4   29.10    3.50
  -5  -1  -4   32.30    3.70
  -1   5  -4   30.80    3.70
   1  -5  -4   31.80    3.30
   5   1  -4   34.30    5.00
   1  -5  -4   30.70    3.50
   5   1  -4   30.20    4.00
  -1   5  -4   28.30    4.00
  -1   5  -4   24.40    4.00
  -5  -1  -4   31.50    3.60
  -1   5  -4   33.00    4.40
  -1   5   4   30.40    3.70
  -1   5   4   31.80    3.30
  -5  -1   4   26.70    3.40
   5   1   4   24.50    4.30
   5   1   4   37.10    4.50
   1  -5   4   33.80    3.90
  -5  -1   4   22.20    4.00
   5   1   4   23.80    3.70
  -1   5   4   28.50    4.60
   1  -5   4   32.70    4.10
  -5  -1   4   22.60    4.20
   1  -5   4   33.30    4.50
  -5  -1   4   30.10    3.40
  -5  -1   4   33.70    3.30
   5   1   4   34.20    3.50
   1  -5   4   31.60    3.30
  -1   5   4   30.80    3.60
  -1   5   4   31.70    3.80
  -1   5   4   34.80    3.90
   1  -5   4   35.30    3.90
   1  -5   4   29.60    3.20
   5   1   4   29.20    4.30
   1   5  -4   30.30    3.90
   1   5  -4   25.80    3.80
  -1  -5  -4   30.60    3.60
  -1  -5  -4   31.40    4.50
  -5   1  -4   33.20    3.80
  -1  -5  -4   29.50    4.00
   5  -1  -4   28.00    3.40
  -5   1  -4   32.80    3.30
   5  -1  -4   26.50    3.30
  -1  -5  -4   30.60    3.30
  -5   1  -4   34.70    4.10
   5  -1  -4   34.00    4.80
   1   5  -4   34.50    3.30
   5  -1  -4   33.60    4.30
   1   5  -4   27.80    3.90
   5  -1  -4   28.00    3.40
  -5   1  -4   27.90    3.10
   1   5  -4   34.10    4.60
  -1  -5  -4   33.20    3.40
   1   5  -4   22.90    4.00
  -5   1   4   30.30    4.30
  -5   1   4   29.70    3.40
   5  -1   4   33.10    3.50
  -1  -5   4   30.40    4.10
  -1  -5   4   33.10    4.30
   1   5   4   31.90    3.90
   5  -1   4   26.30    4.70
   1   5   4   29.60    3.70
   5  -1   4   32.00    2.20
   1   5   4   35.40    3.30
   1   5   4   24.60    4.60
   5  -1   4   31.10    3.60
   1   5   4   30.30    4.20
   5  -1   4   26.20    3.80
  -1  -5   4   34.10    4.40
   1   5   4   29.40    3.40
  -1  -5   4   25.10    3.70
  -1  -5   4   34.20    3.30
  -5   1   4   33.40    4.60
  -1  -5   4   32.50    3.40
  -5   1   4   30.60    3.30
   3   5  -4   75.39    5.00
  -3  -5  -4   83.29    5.90
  -5   3  -4   84.89    6.50
  -5   3  -4   88.29    6.00
   5  -3  -4   86.29    6.10
   3   5  -4   92.89    6.30
  -3  -5  -4   81.99    6.60
  -3  -5  -4   89.09    6.00
  -3  -5  -4   82.49    7.40
   5  -3  -4   86.39    7.00
   3   5  -4   91.59    6.70
  -5   3  -4   88.39    4.90
  -5   3  -4   90.89    6.80
  -3  -5  -4   85.89    5.60
   5  -3  -4   99.69    6.40
   3   5  -4   87.79    7.70
   3   5  -4   94.89    6.50
  -5   3  -4   90.49    6.70
   5  -3  -4   86.29    5.10
   3   5  -4   78.99    6.60
   3   5   4   87.59    5.40
   3   5   4   84.59    6.00
  -3  -5   4   85.79    6.80
  -3  -5   4   84.89    6.50
   5  -3   4   92.39    4.90
  -3  -5   4   90.29    6.80
  -3  -5   4   85.69    5.40
   5  -3   4   87.79    6.10
  -5   3   4   92.49    7.20
   5  -3   4   88.79    7.60
  -3  -5   4   88.79    6.20
   3   5   4   85.79    6.00
  -3  -5   4   86.99    7.50
   3   5   4   87.39    7.10
   5  -3   4   92.79    5.80
  -5   3   4   88.29    7.10
  -5   3   4   84.59    5.60
   3   5   4   83.99    6.70
  -5   3   4   86.39    6.20
   3   5   4   90.39    7.40
   5  -3   4   88.39    6.30
  -5   5  -4  168.08   10.30
   5   5  -4  161.68    9.00
  -5  -5  -4  173.38   10.70
   5   5  -4  170.38    9.50
  -5   5  -4  173.58    7.70
   5   5  -4  169.78   12.10
  -5  -5  -4  158.38    9.60
  -5   5  -4  153.18    9.20
   5  -5  -4  165.38    9.70
  -5  -5  -4  161.48    9.30
  -5  -5  -4  169.28    8.70
   5  -5  -4  153.88    9.30
  -5   5  -4  158.48   10.20
   5   5  -4  158.98    8.20
  -5  -5  -4  161.48   10.00
   5  -5  -4  164.98   10.60
  -5   5  -4  149.59   10.10
   5   5  -4  161.08   10.10
  -5  -5   4  164.08    9.90
   5   5   4  165.48    9.20
   5   5   4  171.88   11.10
  -5  -5   4  172.78    8.30
  -5   5   4  168.68    8.10
  -5   5   4  174.78   10.10
   5   5   4  167.88   11.00
   5  -5   4  166.08    8.80
  -5  -5   4  161.38   11.70
   5   5   4  161.28    8.70
   5  -5   4  165.78    9.30
  -5   5   4  163.88    9.80
  -5  -5   4  170.48   10.30
  -5   5   4  163.18    8.90
  -5  -5   4  159.78    9.90
   5  -5   4  166.38    9.20
   5  -5   4  171.08    8.60
   5   5   4  168.18   10.50
  -6  -4  -4  629.14   27.40
  -6  -4  -4  668.03   26.00
   4  -6  -4  638.04   26.90
   6   4  -4  635.24   26.20
   4  -6  -4  703.83   28.80
  -6  -4  -4  673.73   27.70
   6   4  -4  630.44   27.40
  -4   6  -4  691.83   25.90
  -6  -4  -4  635.24   26.90
  -4   6  -4  627.34   27.30
  -4   6  -4  629.14   27.20
  -4   6  -4  638.14   27.60
   4  -6  -4  643.94   27.80
   6   4  -4  629.24   24.70
   6   4  -4  637.14   26.50
  -4   6  -4  649.74   28.50
   6   4  -4  600.94   30.30
  -4   6   4  635.94   27.40
   4  -6   4  664.13   26.00
   6   4   4  651.83   28.60
   6   4   4  625.14   29.10
   6   4   4  667.63   26.30
   4  -6   4  671.93   26.40
  -6  -4   4  604.24   30.20
  -4   6   4  643.14   26.80
   4  -6   4  657.03   26.50
   6   4   4  673.73   28.10
  -4   6   4  623.74   26.30
   6   4   4  633.44   25.90
  -6  -4   4  610.24   27.60
   4  -6   4  664.73   26.50
   4  -6   4  607.94   29.30
  -4   6   4  613.54   28.20
  -4   6   4  662.03   25.80
  -6  -4   4  667.33   25.50
  -6  -4   4  614.24   27.20
   6   4   4  656.73   29.20
  -6  -4   4  660.73   27.60
   2  -6  -4  431.96   19.00
   6   2  -4  425.76   18.90
  -6  -2  -4  474.25   19.50
   6   2  -4  441.46   19.50
  -6  -2  -4  433.16   19.30
   2  -6  -4  465.35   20.70
  -2   6  -4  417.26   19.70
  -2   6  -4  449.46   19.30
  -2   6  -4  440.06   19.40
   2  -6  -4  439.56   20.60
   6   2  -4  406.86   19.90
  -6  -2  -4  433.66   19.80
  -6  -2  -4  420.66   18.90
   2  -6  -4  451.85   16.90
  -2   6  -4  411.56   20.00
  -2   6  -4  435.86   19.90
   6   2  -4  428.36   22.40
   2  -6  -4  442.66   17.00
  -2   6  -4  450.65   20.10
   6   2  -4  435.16   18.60
  -6  -2   4  430.16   22.10
   6   2   4  439.56   18.60
  -6  -2   4  465.75   19.00
  -6  -2   4  434.16   18.50
   6   2   4  412.06   20.80
   6   2   4  427.06   21.00
   2  -6   4  455.25   18.80
  -6  -2   4  417.26   19.10
   2  -6   4  438.46   19.40
  -2   6   4  444.66   20.90
   6   2   4  416.96   19.30
   2  -6   4  419.86   18.30
  -2   6   4  420.06   18.70
  -2   6   4  426.66   19.50
   2  -6   4  465.95   19.40
  -6  -2   4  435.76   20.40
   2  -6   4  466.15   18.70
  -2   6   4  429.46   20.10
  -2   6   4  439.76   18.90
  -2   6   4  444.16   19.20
   6   2   4  468.05   17.60
   6   2   4  430.36   21.00
   6   0  -4  135.59    7.90
   0   6  -4  137.19    9.00
  -6   0  -4  139.49    7.70
   0  -6  -4  133.19    7.00
   0  -6  -4  134.99    7.60
   0   6  -4  129.19    7.70
  -6   0  -4  132.29    7.80
   6   0  -4  126.49    9.80
  -6   0  -4  131.09    8.40
  -6   0  -4  129.69    8.20
   0  -6  -4  126.69    8.90
   0   6  -4  125.29    8.40
   6   0  -4  141.19    7.80
   0  -6  -4  138.99    9.10
   0  -6  -4  136.59    7.60
   0   6  -4  133.29    8.40
   6   0  -4  137.79    8.80
   6   0  -4  139.09    7.50
   0   6  -4  137.59    8.90
   0   6  -4  146.69    8.90
   6   0  -4  140.69    7.40
   0  -6  -4  140.59    7.10
  -6   0   4  134.49    9.20
   0   6   4  129.59    8.10
   0   6   4  134.09    8.30
   0   6   4  131.69    8.40
   6   0   4  134.79    7.80
  -6   0   4  117.89    9.30
   0   6   4  139.79    8.50
   0   6   4  134.79    7.50
  -6   0   4  133.79    7.70
   0  -6   4  148.19    8.60
   0  -6   4  138.69    9.50
   6   0   4  125.69    9.50
   0  -6   4  132.89    7.30
   6   0   4  123.69    7.50
   0  -6   4  139.19    8.30
  -6   0   4  149.19    6.80
   0  -6   4  128.89    7.60
   0   6   4  135.29    9.60
  -6   0   4  125.99    9.10
   0  -6   4  141.89    9.00
  -6   0   4  125.89    7.60
   6   0   4  131.89    9.00
  -6   2  -4  435.46   19.90
   2   6  -4  443.56   18.40
   2   6  -4  447.06   19.80
   6  -2  -4  441.66   18.00
  -6   2  -4  414.36   18.60
   6  -2  -4  443.66   19.30
   6  -2  -4  456.75   18.20
  -2  -6  -4  440.56   20.60
   2   6  -4  450.95   19.70
   2   6  -4  438.46   20.10
  -6   2  -4  437.76   20.40
   6  -2  -4  407.46   21.30
   2   6  -4  434.76   21.20
  -2  -6  -4  454.85   18.50
   6  -2  -4  429.36   18.40
  -2  -6  -4  440.56   18.90
  -6   2  -4  434.76   17.80
   2   6  -4  418.46   19.60
  -2  -6  -4  445.06   18.80
  -2  -6  -4  449.56   18.60
   6  -2  -4  399.96   20.00
  -2  -6  -4  430.06   20.20
  -6   2  -4  434.56   19.90
  -2  -6   4  434.76   19.10
  -2  -6   4  440.36   21.20
  -2  -6   4  421.76   20.80
   6  -2   4  439.16   17.20
   2   6   4  443.26   20.90
  -6   2   4  415.56   20.80
   6  -2   4  428.06   20.20
  -6   2   4  439.26   21.20
   2   6   4  473.95   18.60
  -6   2   4  423.66   18.70
   2   6   4  439.76   20.30
  -2  -6   4  431.36   19.40
  -2  -6   4  444.66   18.00
  -2  -6   4  425.56   19.90
   2   6   4  434.56   19.70
  -6   2   4  427.86   19.10
   2   6   4  428.86   19.00
   2   6   4  429.26   20.10
  -6   2   4  430.76   18.60
   6  -2   4  434.76   18.90
   6  -2   4  441.06   18.30
   6  -2   4  437.96   18.30
   6  -2   4  436.96   21.70
  -4  -6  -4  653.33   28.10
  -6   4  -4  645.34   28.10
  -4  -6  -4  652.43   28.40
  -4  -6  -4  674.33   27.10
   6  -4  -4  598.54   27.90
   4   6  -4  653.23   25.70
   6  -4  -4  643.74   26.40
  -6   4  -4  635.64   28.20
   4   6  -4  633.94   26.60
  -6   4  -4  639.34   27.70
   6  -4  -4  638.54   24.50
  -6   4  -4  619.34   26.40
  -4  -6  -4  662.23   25.60
   6  -4  -4  615.44   27.00
   4   6  -4  634.44   30.20
  -4  -6  -4  626.94   26.60
   6  -4  -4  674.73   25.60
   4   6  -4  640.94   27.30
   4   6  -4  628.84   27.80
   6  -4   4  590.34   29.30
   4   6   4  653.13   27.20
  -6   4   4  668.03   28.50
  -4  -6   4  658.33   25.10
  -4  -6   4  633.64   28.40
  -4  -6   4  657.43   30.20
   6  -4   4  672.43   25.70
   4   6   4  650.03   26.20
   6  -4   4  669.73   25.60
  -4  -6   4  622.44   27.00
   4   6   4  691.13   25.50
  -4  -6   4  654.23   27.10
  -4  -6   4  644.94   28.10
  -6   4   4  624.84   27.10
   6  -4   4  667.53   26.80
  -6   4   4  629.24   26.20
   4   6   4  636.14   28.50
  -6   4   4  669.03   24.40
   6  -4   4  658.03   26.50
   6  -4   4  644.24   27.30
   4   6   4  637.04   28.60
  -6   4   4  632.24   28.80
   4   6   4  638.14   28.70
  -6   6  -4  773.22   28.20
  -6   6  -4  699.43   30.30
   6   6  -4  744.23   29.50
  -6   6  -4  732.93   31.20
   6   6  -4  728.43   30.10
  -6  -6  -4  726.03   31.30
   6  -6  -4  709.03   30.60
  -6   6  -4  675.03   31.80
   6  -6  -4  765.12   29.20
   6   6  -4  742.03   29.10
   6   6  -4  713.93   34.80
  -6   6  -4  737.63   31.40
   6  -6  -4  691.93   31.40
   6  -6  -4  716.13   30.10
  -6  -6  -4  764.02   28.60
  -6  -6  -4  706.13   30.10
   6   6  -4  723.83   31.30
  -6  -6  -4  736.53   31.80
  -6  -6  -4  786.52   31.40
  -6  -6   4  669.53   31.10
  -6   6   4  687.63   29.50
  -6   6   4  750.12   28.80
  -6  -6   4  756.52   32.20
   6   6   4  707.13   32.60
   6   6   4  750.62   30.80
   6   6   4  737.23   33.00
   6  -6   4  762.42   30.20
   6   6   4  736.63   31.80
  -6   6   4  757.52   30.80
  -6   6   4  743.83   31.10
   6   6   4  736.03   29.00
  -6  -6   4  768.02   28.00
  -6  -6   4  718.93   34.40
  -6  -6   4  710.83   30.80
   6  -6   4  735.73   30.10
   6  -6   4  727.03   29.40
   6  -6   4  742.63   30.30
   6  -6   4  734.93   28.90
   5  -7  -4    4.10    2.00
  -7  -5  -4    5.40    2.70
   5  -7  -4    5.70    3.00
   5  -7  -4    7.10    2.80
   7   5  -4    3.70    2.50
  -5   7  -4    6.90    2.50
  -7  -5  -4   11.80    2.70
   7   5  -4    2.80    3.30
  -7  -5  -4   10.30    2.90
   7   5  -4    7.90    2.50
  -5   7  -4    3.30    2.50
  -5   7  -4    5.80    3.10
   7   5  -4    5.40    2.40
  -5   7  -4    3.90    2.70
  -5   7  -4   11.60    3.50
  -7  -5  -4    7.70    2.70
   7   5  -4    9.50    2.30
   5  -7   4    7.50    2.50
   7   5   4   12.80    3.40
  -7  -5   4   10.40    2.80
   7   5   4    5.30    2.90
  -7  -5   4    6.60    2.30
  -5   7   4    9.40    3.10
  -5   7   4    7.70    2.20
   5  -7   4    6.60    2.50
   7   5   4    5.30    3.00
  -7  -5   4    6.10    3.10
   5  -7   4    7.50    2.10
  -5   7   4    8.20    2.60
  -7  -5   4    0.30    3.40
  -5   7   4    4.60    2.60
   7   5   4    6.20    4.50
   7   5   4   10.90    2.50
   5  -7   4    2.70    2.10
  -7  -5   4    3.40    2.70
   5  -7   4    4.60    3.20
  -5   7   4    5.30    2.60
  -7  -3  -4    0.90    1.80
   3  -7  -4    3.10    1.90
  -3   7  -4    6.80    3.00
  -7  -3  -4    0.90    2.00
   7   3  -4    2.50    1.90
  -3   7  -4    2.30    2.40
  -3   7  -4    0.90    2.40
  -7  -3  -4    2.90    2.20
   3  -7  -4    1.40    2.50
  -7  -3  -4   -1.80    2.30
  -3   7  -4   -2.10    2.10
   7   3  -4    4.00    2.30
  -3   7  -4    2.00    2.40
   7   3  -4    1.10    1.80
   7   3  -4    2.20    3.50
   3  -7  -4    2.80    1.70
   7   3  -4    1.50    2.00
  -3   7  -4    3.70    2.90
   3  -7  -4    4.30    2.70
  -7  -3   4    1.10    1.80
   3  -7   4   -0.20    2.00
   3  -7   4    1.90    2.00
   3  -7   4    0.90    1.60
  -7  -3   4    2.10    2.40
  -7  -3   4    0.20    2.50
  -3   7   4    1.60    2.30
   3  -7   4    0.80    2.00
   7   3   4    0.70    1.70
   7   3   4    2.50    2.30
  -3   7   4    0.40    3.40
  -3   7   4    2.70    2.40
   7   3   4    1.60    3.20
  -7  -3   4    4.10    2.30
  -3   7   4   -0.50    1.60
   3  -7   4    0.00    2.40
   7   3   4    2.80    1.70
  -3   7   4   -0.10    2.30
  -3   7   4    0.70    2.30
   7   3   4    1.70    2.30
  -7  -3   4    3.30    1.90
   7   3   4    2.90    2.60
   7   3   4    5.20    2.30
   7   1  -4    0.40    1.60
   1  -7  -4    4.60    2.30
   7   1  -4   -0.70    1.80
   1  -7  -4    1.40    1.30
   7   1  -4   -4.00    2.60
  -7  -1  -4    0.90    1.90
   1  -7  -4    1.20    2.60
  -1   7  -4    1.10    2.20
  -1   7  -4    4.80    2.30
   1  -7  -4    1.10    2.50
  -7  -1  -4    0.70    2.00
  -1   7  -4   -3.30    1.90
  -7  -1  -4    0.40    1.70
  -7  -1  -4    5.60    2.10
   1  -7  -4    1.40    2.10
  -1   7  -4    5.90    2.70
  -1   7  -4    3.10    2.80
   7   1  -4    1.60    1.60
   1  -7  -4    0.60    1.70
  -1   7  -4    0.30    2.10
   7   1  -4    0.30    2.00
   7   1  -4    1.30    2.00
  -1   7   4   -0.30    2.90
  -7  -1   4    1.50    2.10
   7   1   4    2.70    2.20
   1  -7   4    1.90    2.20
  -7  -1   4    2.80    2.00
   7   1   4    1.00    2.40
   1  -7   4    0.70    2.10
   1  -7   4   -1.30    3.00
  -7  -1   4    3.50    2.20
   1  -7   4    2.10    1.10
  -1   7   4    2.00    2.30
   7   1   4    1.20    1.70
  -7  -1   4    1.00    2.50
   1  -7   4    3.40    2.30
   7   1   4    1.10    1.80
   7   1   4   -0.30    1.50
  -1   7   4    1.90    2.00
  -1   7   4    2.10    1.60
   1  -7   4    1.90    1.70
   1  -7   4   -1.00    1.40
  -7  -1   4    3.90    2.90
  -1   7   4    3.00    2.10
  -7  -1   4    0.80    3.90
  -1   7   4    0.60    1.80
   7  -1  -4    0.60    1.60
   1   7  -4    0.40    2.00
  -7   1  -4   -0.40    2.10
   1   7  -4    4.90    3.00
  -7   1  -4    1.70    1.90
  -1  -7  -4    3.80    2.20
  -1  -7  -4    4.90    2.00
   1   7  -4    2.20    2.40
   7  -1  -4   -0.10    1.70
  -7   1  -4    4.10    3.80
  -1  -7  -4    2.20    1.70
   7  -1  -4    1.30    1.70
  -7   1  -4    2.80    1.80
  -7   1  -4    1.50    2.10
   7  -1  -4   -1.60    2.50
   7  -1  -4    2.00    1.50
   1   7  -4    2.20    2.30
   1   7  -4    4.40    2.00
  -1  -7  -4    4.90    2.40
  -1  -7  -4    3.10    2.70
   7  -1  -4   -0.70    2.50
   1   7  -4    4.00    3.00
  -1  -7  -4    3.70    2.10
  -7   1   4    1.60    2.20
   7  -1   4    3.10    1.80
   7  -1   4    1.10    1.50
   1   7   4    0.70    1.80
   1   7   4   -0.70    1.80
  -1  -7   4    5.30    2.50
  -7   1   4    3.60    4.00
   1   7   4   -0.20    3.20
   1   7   4    0.70    2.00
  -1  -7   4    5.30    2.60
   7  -1   4    1.80    1.70
  -7   1   4    0.90    2.60
  -1  -7   4   -1.40    1.60
  -1  -7   4    0.90    1.50
  -1  -7   4    4.00    2.40
  -7   1   4    2.60    1.90
  -1  -7   4    2.40    1.50
   1   7   4    1.50    2.40
   7  -1   4   -1.20    1.30
  -7   1   4    4.30    1.80
   7  -1   4   -0.40    2.50
   1   7   4    2.00    1.90
  -7   1   4   -0.20    2.50
  -1  -7   4   -1.30    2.70
   7  -1   4    3.00    2.00
  -7   3  -4    3.60    2.40
  -3  -7  -4    1.00    2.00
  -7   3  -4   -2.20    2.40
   7  -3  -4    3.50    1.40
   7  -3  -4    3.10    2.00
  -3  -7  -4    0.70    2.00
   3   7  -4   -2.20    3.30
  -3  -7  -4    3.10    1.80
   3   7  -4    3.90    2.40
   3   7  -4    1.20    1.70
   7  -3  -4    7.50    2.80
  -3  -7  -4    3.80    2.40
  -7   3  -4    0.50    2.00
   3   7  -4    8.00    2.50
  -3  -7  -4    1.00    2.90
   7  -3  -4    3.60    1.50
   3   7  -4    1.60    2.90
   7  -3  -4    2.90    1.70
  -7   3  -4   -0.40    1.60
   3   7  -4    2.30    2.30
  -3  -7  -4    2.60    2.00
  -7   3  -4   -4.40   10.90
  -3  -7  -4   -2.00    1.80
  -7   3  -4    0.80    1.70
   7  -3  -4    2.00    2.40
   7  -3   4    3.20    3.00
   3   7   4   -1.00    2.00
  -3  -7   4    2.80    2.60
   3   7   4    3.60    3.30
  -3  -7   4    2.30    2.60
  -7   3   4    1.20    2.80
   7  -3   4    2.90    1.80
  -7   3   4    2.20    2.10
  -3  -7   4    3.20    2.20
   3   7   4    0.30    2.30
   3   7   4    1.40    2.90
   3   7   4    1.30    2.30
  -3  -7   4   -1.40    1.60
   7  -3   4    2.60    2.20
  -7   3   4    2.20    1.80
   3   7   4    3.60    2.40
  -7   3   4    2.40    2.80
  -3  -7   4   -0.90    1.80
   7  -3   4    1.00    1.50
  -7   3   4    2.40    3.70
   7  -3   4    2.40    1.80
  -3  -7   4   -0.70    1.50
  -3  -7   4    1.30    2.40
   7  -3   4    1.60    2.20
   5   7  -4    4.60    2.70
   7  -5  -4    7.20    2.80
   5   7  -4    3.90    2.50
  -5  -7  -4    9.10    2.80
   7  -5  -4    9.10    2.30
  -5  -7  -4    6.20    2.60
  -7   5  -4    8.30    2.50
  -5  -7  -4   11.20    2.90
  -5  -7  -4    6.60    2.00
   5   7  -4   10.60    2.60
  -7   5  -4    4.50    2.80
  -7   5  -4    3.90    3.30
  -5  -7  -4    9.40    3.60
   5   7  -4   11.00    2.80
   5   7  -4    4.10    3.90
  -7   5  -4    3.80    2.60
   7  -5  -4    9.30    2.20
   7  -5  -4   12.80    3.80
   7  -5   4    8.50    2.00
  -5  -7   4    5.40    1.90
  -5  -7   4    7.20    3.30
  -7   5   4    7.50    2.20
   7  -5   4    9.60    2.90
  -5  -7   4    6.90    2.40
   5   7   4   10.90    3.30
   7  -5   4   13.30    2.60
   5   7   4    7.50    2.70
   7  -5   4    3.20    3.10
  -5  -7   4    8.30    3.20
  -5  -7   4    4.10    3.20
  -5  -7   4    4.00    2.50
   7  -5   4    7.50    2.50
  -7   5   4    5.50    2.00
   5   7   4    2.30    3.40
  -7   5   4   11.80    3.60
  -7   5   4    9.00    2.90
  -5  -7   4    5.50    2.70
   5   7   4    5.20    2.90
   7  -5   4    6.30    2.60
   5   7   4   10.10    3.40
  -7  -7  -4   19.60    5.00
   7   7  -4   21.70    4.00
  -7   7  -4   36.60    6.40
   7  -7  -4   33.90    4.80
  -7   7  -4   37.00    5.10
   7  -7  -4   30.80    5.70
   7  -7  -4   21.40    3.90
  -7   7  -4   25.90    4.80
   7   7  -4   29.50    4.40
  -7  -7  -4   27.70    4.90
  -7  -7  -4   31.10    4.20
   7   7  -4   32.10    4.90
  -7   7  -4   19.40    4.30
   7   7  -4   28.10    7.00
  -7  -7  -4   29.70    3.60
  -7  -7  -4   21.80    4.40
   7   7  -4   26.80    4.80
   7  -7  -4   31.50    4.90
   7  -7   4   29.80    6.60
  -7  -7   4   25.70    4.60
  -7   7   4   23.30    4.60
   7  -7   4   27.60    4.30
   7  -7   4   33.90    4.70
  -7  -7   4   28.40    5.30
  -7   7   4   33.80    5.40
   7   7   4   28.00    6.40
  -7  -7   4   25.70    3.30
   7  -7   4   32.70    4.70
  -7  -7   4   28.50    4.60
  -7   7   4   34.50    4.90
   7  -7   4   27.10    4.20
  -7   7   4   31.20    4.90
   7   7   4   30.90    5.40
   7   7   4   30.50    5.20
  -7  -7   4   31.60    5.00
   7   7   4   28.00    5.20
   7   7   4   25.50    4.20
  -7  -7   4   31.20    6.00
  -6   8  -4  271.87   13.70
  -6   8  -4  224.58   14.10
  -8  -6  -4  275.97   12.30
  -8  -6  -4  251.27   13.80
   8   6  -4  276.87   13.50
   6  -8  -4  291.67   13.80
   8   6  -4  283.67   15.80
  -8  -6  -4  296.47   15.50
   6  -8  -4  283.87   16.10
   8   6  -4  287.37   15.20
   8   6  -4  278.47   13.90
  -6   8  -4  290.67   15.50
  -6   8  -4  285.27   15.50
  -8  -6  -4  280.77   15.50
   6  -8  -4  279.77   14.70
   8   6  -4  283.47   12.90
   6  -8   4  281.27   13.30
  -8  -6   4  288.27   15.70
   6  -8   4  280.17   13.90
   8   6   4  298.87   13.80
  -8  -6   4  279.67   11.80
  -8  -6   4  276.97   14.80
   6  -8   4  279.67   15.30
   6  -8   4  296.97   13.20
  -6   8   4  288.07   15.50
  -8  -6   4  230.78   17.70
  -8  -6   4  267.57   15.10
  -6   8   4  286.97   14.00
   8   6   4  279.37   15.20
  -6   8   4  275.77   13.40
   8   6   4  254.87   17.50
   6  -8   4  281.67   14.40
   8   6   4  283.57   12.80
   8   6   4  282.77   15.20
  -4   8  -4  349.67   16.40
  -4   8  -4  313.97   16.70
   8   4  -4  336.67   15.80
  -8  -4  -4  348.27   15.20
  -4   8  -4  323.97   17.70
  -4   8  -4  353.56   17.20
  -8  -4  -4  346.77   17.10
   8   4  -4  302.17   19.80
  -4   8  -4  331.77   17.10
   8   4  -4  336.77   15.20
   8   4  -4  339.17   17.10
  -8  -4  -4  313.57   15.80
   8   4  -4  335.67   15.10
   4  -8  -4  345.57   16.40
   4  -8  -4  341.27   17.80
  -8  -4  -4  341.97   17.40
   8   4  -4  345.07   14.40
   4  -8  -4  337.57   17.50
  -4   8  -4  345.17   17.20
  -8  -4   4  306.97   19.70
   8   4   4  347.87   15.00
   4  -8   4  322.17   19.00
  -8  -4   4  343.07   14.70
   8   4   4  339.87   16.40
   8   4   4  319.47   18.20
   8   4   4  344.57   16.00
   8   4   4  341.57   15.00
  -4   8   4  327.87   16.80
  -4   8   4  322.07   15.60
  -8  -4   4  323.77   16.40
  -8  -4   4  356.96   17.20
   4  -8   4  340.27   15.10
   8   4   4  310.37   18.40
  -4   8   4  334.27   16.00
   8   4   4  350.56   19.20
   4  -8   4  345.87   15.80
   4  -8   4  343.37   15.80
  -4   8   4  353.96   15.40
  -4   8   4  305.87   17.30
   4  -8   4  343.97   15.90
  -2   8  -4  846.52   34.70
  -8  -2  -4  819.32   34.80
  -8  -2  -4  827.22   33.50
   8   2  -4  826.72   34.00
  -8  -2  -4  811.62   33.80
   8   2  -4  791.12   37.70
   2  -8  -4  831.52   35.20
  -2   8  -4  831.12   34.00
  -2   8  -4  815.52   34.80
  -2   8  -4  815.02   35.20
   2  -8  -4  788.22   33.20
   2  -8  -4  807.42   34.90
   2  -8  -4  858.61   35.60
   8   2  -4  825.52   31.60
   2  -8  -4  849.91   31.90
   8   2  -4  839.42   33.10
  -2   8  -4  871.11   34.90
  -2   8  -4  855.51   34.90
  -8  -2  -4  775.22   33.00
   8   2  -4  845.52   32.20
  -2   8   4  866.01   34.20
   2  -8   4  847.62   33.50
   2  -8   4  841.02   32.90
   8   2   4  845.72   32.90
  -8  -2   4  783.22   33.10
  -2   8   4  815.92   34.00
  -8  -2   4  819.62   35.40
   2  -8   4  854.61   33.00
   2  -8   4  821.52   33.00
  -8  -2   4  815.52   37.80
  -8  -2   4  846.62   32.70
  -2   8   4  783.52   33.00
   8   2   4  901.91   32.10
  -2   8   4  863.11   33.20
   8   2   4  845.62   31.70
   8   2   4  785.42   36.30
   2  -8   4  792.12   36.50
  -8  -2   4  853.51   33.40
  -2   8   4  822.52   35.70
   2  -8   4  845.72   33.30
  -2   8   4  777.42   35.10
   8   2   4  782.32   36.20
   8   2   4  845.82   32.80
   8   2   4  830.72   36.30
   8   0  -4 1080.09   42.00
   0   8  -4 1005.30   41.50
   8   0  -4 1063.09   39.90
  -8   0  -4  988.40   40.40
   0  -8  -4 1013.70   39.20
  -8   0  -4  926.41   39.00
  -8   0  -4 1017.30   39.50
   0  -8  -4 1046.60   39.60
   8   0  -4  988.50   39.50
   0   8  -4 1054.49   41.10
   0   8  -4  974.40   42.00
  -8   0  -4  996.10   39.70
   0  -8  -4 1040.80   39.20
   0  -8  -4 1007.40   40.50
  -8   0  -4  969.40   40.60
   0   8  -4  997.50   41.20
   8   0  -4 1053.19   37.60
   0   8  -4  984.00   39.80
   8   0  -4 1000.80   44.20
   8   0  -4 1013.90   37.50
   0  -8  -4  991.70   41.90
   0  -8  -4 1024.50   38.00
   0  -8  -4 1006.40   41.50
   0   8  -4 1028.70   41.20
   0   8   4 1079.09   40.60
   8   0   4 1027.80   39.50
   0   8   4  989.60   41.40
   0   8   4  976.90   40.00
  -8   0   4  991.10   42.10
   0  -8   4 1020.30   41.20
   8   0   4  959.50   42.90
   0  -8   4 1051.59   38.90
  -8   0   4  943.81   43.10
   0   8   4 1019.10   42.50
   0  -8   4 1052.29   40.70
   0   8   4 1011.00   41.00
   8   0   4 1002.00   37.50
  -8   0   4  934.31   38.90
  -8   0   4 1037.80   38.30
   0  -8   4  972.80   42.70
   0  -8   4 1017.20   39.60
  -8   0   4 1027.20   39.20
   0  -8   4 1009.50   40.10
   0   8   4 1008.60   39.50
   8   0   4 1019.50   38.20
   0  -8   4 1048.20   37.50
  -8   0   4  975.40   39.40
   8   0   4  984.70   42.30
   2   8  -4  818.52   37.10
  -2  -8  -4  846.22   34.00
   8  -2  -4  815.62   34.00
  -2  -8  -4  854.11   36.00
   2   8  -4  894.11   35.10
  -8   2  -4  816.52   34.60
  -8   2  -4  822.52   34.20
   8  -2  -4  847.12   35.70
   8  -2  -4  862.71   32.90
  -2  -8  -4  860.51   32.70
   2   8  -4  846.22   35.00
   2   8  -4  859.81   34.90
  -2  -8  -4  863.91   33.60
  -2  -8  -4  841.52   32.90
   8  -2  -4  847.42   31.10
   2   8  -4  793.92   34.40
  -8   2  -4  825.72   34.80
  -2  -8  -4  849.61   35.70
  -8   2  -4  828.92   32.30
   8  -2  -4  874.21   31.00
  -8   2  -4  838.42   36.00
  -8   2  -4  770.12   32.80
   2   8  -4  813.32   33.50
   8  -2  -4  778.92   37.20
  -2  -8  -4  832.82   33.80
  -8   2   4  838.22   36.70
  -2  -8   4  849.02   32.20
  -2  -8   4  822.22   35.20
   8  -2   4  782.62   37.10
  -8   2   4  832.32   34.00
  -8   2   4  764.62   32.50
   2   8   4  818.42   33.50
   2   8   4  841.12   36.70
   8  -2   4  838.82   31.40
  -2  -8   4  854.21   36.30
   2   8   4  837.82   35.00
  -2  -8   4  864.21   34.30
  -8   2   4  809.92   36.60
  -2  -8   4  822.52   33.80
   2   8   4  844.32   35.80
   2   8   4  849.61   33.20
   2   8   4  844.62   35.40
   8  -2   4  871.11   33.80
   8  -2   4  859.41   32.10
  -8   2   4  870.21   33.00
   8  -2   4  821.92   35.60
   8  -2   4  855.51   31.50
  -2  -8   4  873.11   32.50
  -2  -8   4  826.22   36.80
  -4  -8  -4  364.96   18.20
   8  -4  -4  327.57   16.60
  -8   4  -4  339.47   17.20
  -8   4  -4  320.17   17.30
   4   8  -4  328.17   16.90
   4   8  -4  345.97   16.00
   8  -4  -4  340.37   13.80
   8  -4  -4  350.06   14.30
  -4  -8  -4  321.37   16.10
   4   8  -4  342.67   15.80
  -4  -8  -4  340.87   14.40
   8  -4  -4  357.36   13.60
   4   8  -4  293.47   16.80
  -4  -8  -4  355.26   16.30
  -4  -8  -4  352.56   15.10
   4   8  -4  320.17   21.90
  -4  -8  -4  334.17   16.60
   8  -4  -4  346.47   17.90
  -8   4  -4  318.07   15.40
   4   8  -4  317.47   19.70
  -8   4  -4  334.27   18.10
  -8   4  -4  341.67   13.70
  -4  -8  -4  343.27   18.20
   8  -4   4  361.56   17.30
   4   8   4  325.87   17.10
   4   8   4  342.97   15.60
  -8   4   4  338.77   16.70
   4   8   4  324.17   18.40
   8  -4   4  352.36   13.90
   4   8   4  372.46   15.40
  -8   4   4  326.17   13.60
   8  -4   4  351.26   15.40
  -8   4   4  347.47   18.10
  -4  -8   4  330.37   19.00
  -4  -8   4  341.77   16.30
  -8   4   4  325.67   18.40
   4   8   4  348.57   18.90
  -4  -8   4  354.36   16.70
  -8   4   4  314.07   15.10
  -4  -8   4  359.06   14.30
   8  -4   4  318.47   16.10
  -4  -8   4  328.57   18.40
   4   8   4  347.27   18.00
   8  -4   4  348.37   14.30
   8  -4   4  303.87   18.90
  -4  -8   4  358.76   15.90
  -4  -8   4  326.47   17.60
   6   8  -4  269.57   18.20
   8  -6  -4  266.47   12.40
  -6  -8  -4  269.27   15.00
  -6  -8  -4  277.77   14.50
  -8   6  -4  274.57   15.30
  -6  -8  -4  283.87   15.00
   6   8  -4  284.57   13.40
   6   8  -4  303.87   15.30
   6   8  -4  265.37   13.90
   6   8  -4  267.07   15.60
  -6  -8  -4  275.77   16.70
   8  -6  -4  296.77   16.60
   8  -6  -4  305.87   12.20
  -8   6  -4  270.27   15.70
  -6  -8  -4  288.77   11.90
  -6  -8  -4  289.57   15.90
  -6  -8   4  274.27   11.50
   8  -6   4  275.87   13.90
  -6  -8   4  281.47   14.60
  -6  -8   4  265.97   15.50
   6   8   4  273.77   16.20
   8  -6   4  306.47   13.10
   8  -6   4  296.57   14.60
   6   8   4  266.17   16.30
   8  -6   4  292.57   12.20
   8  -6   4  297.87   14.90
   6   8   4  272.77   17.30
  -6  -8   4  256.77   17.10
   6   8   4  278.67   15.50
  -8   6   4  281.87   15.10
   6   8   4  281.97   13.00
  -8   6   4  262.97   14.90
  -6  -8   4  267.37   16.20
  -6  -8   4  306.07   14.80
  -8   6   4  275.87   12.90
  -6  -8   4  272.57   14.80
  -8  -8  -4  232.48   17.60
  -8  -8  -4  235.18   14.60
   8  -8  -4  228.78   10.80
   8   8  -4  218.28   13.00
  -8   8  -4  236.78   12.90
   8   8  -4  215.58   16.00
   8   8  -4  227.78   14.80
  -8   8  -4  212.18   14.60
   8   8  -4  233.98   10.80
   8  -8  -4  233.88   14.70
  -8  -8  -4  242.68   14.10
  -8   8  -4  236.68   14.30
   8   8  -4  221.98   12.90
   8  -8  -4  223.98   11.60
   8   8   4  217.68   16.90
   8   8   4  235.58   14.50
   8  -8   4  221.88   13.10
   8   8   4  212.08   14.20
   8  -8   4  233.78   10.90
   8  -8   4  237.18   13.20
  -8  -8   4  230.28   13.40
  -8  -8   4  231.48   13.70
   8   8   4  236.08   11.00
  -8   8   4  219.68   13.90
   8  -8   4  236.18   11.80
  -8   8   4  218.58   12.20
  -8   8   4  232.98   12.50
   8  -8   4  232.78   12.10
  -7   9  -4    2.90    4.60
   9   7  -4    2.90    4.10
   7  -9  -4    3.40    3.80
   9   7  -4    6.90    3.10
  -7   9  -4    7.90    4.60
  -9  -7  -4    6.60    4.00
   7  -9  -4   11.30    4.70
  -7   9  -4   14.90    4.90
  -9  -7  -4    3.80    3.50
   9   7  -4    6.60    2.80
   9   7  -4   13.30    4.50
   7  -9  -4    8.90    3.50
   7  -9   4    4.80    3.60
   9   7   4    4.30    3.80
   9   7   4   -2.90    6.20
  -7   9   4    7.30    3.90
  -9  -7   4    7.80    4.10
   9   7   4    4.10    4.60
   9   7   4   10.60    4.10
   7  -9   4   10.20    4.50
  -9  -7   4    7.80    3.70
  -7   9   4    8.20    3.70
  -9  -7   4    3.90    3.70
   7  -9   4    8.30    3.40
   9   7   4   15.50    3.00
   7  -9   4    1.10    2.90
  -7   9   4    7.70    3.80
   9   5  -4  101.39    8.60
   9   5  -4   96.19    7.10
  -9  -5  -4   82.69    8.10
  -9  -5  -4   88.29    6.30
   9   5  -4   89.49    7.30
  -5   9  -4   91.09    8.70
   5  -9  -4   82.49    8.20
   9   5  -4   85.89    6.20
  -9  -5  -4   67.69    8.00
  -5   9  -4   67.29    6.80
  -5   9  -4   85.49    8.40
   5  -9  -4   76.39    8.30
  -5   9  -4   94.49    7.70
   9   5  -4   81.49    5.80
   5  -9   4   78.89    6.90
  -5   9   4   76.59    7.90
   9   5   4   82.19    7.50
   9   5   4   79.29    6.10
   5  -9   4   84.79    7.50
  -9  -5   4   79.69    7.90
  -5   9   4   93.09    6.50
   5  -9   4   82.59    5.80
  -9  -5   4   79.09    8.00
   5  -9   4   82.09    6.90
   9   5   4   74.19    6.40
  -5   9   4   76.19    7.90
   9   5   4   86.49    9.80
   9   5   4   87.69    7.70
  -9  -5   4   88.79    5.80
   9   3  -4   94.89   10.10
   3  -9  -4   94.19    8.70
  -9  -3  -4   90.59    6.70
   3  -9  -4   81.19    6.60
   9   3  -4   88.99    5.40
  -3   9  -4   88.59    7.80
   3  -9  -4   90.19    8.60
   9   3  -4   83.09    5.90
   9   3  -4   94.09    6.10
  -9  -3  -4   78.39    6.30
  -3   9  -4   91.09    8.00
  -3   9  -4   89.39    8.10
  -3   9  -4   83.09    7.60
  -3   9  -4   87.19    8.10
  -9  -3  -4   94.19    7.70
   9   3  -4   92.49    7.90
  -9  -3  -4   92.39    8.00
   3  -9  -4   79.99    5.80
   3  -9  -4   91.69    8.90
  -3   9  -4   88.89    7.70
  -9  -3   4   90.89    9.70
  -3   9   4   88.09    7.50
   9   3   4   81.59    9.10
   3  -9   4   80.79    8.10
  -3   9   4   87.79    8.00
  -3   9   4   89.69    9.60
   9   3   4   89.29    7.20
  -3   9   4   82.79    6.10
   9   3   4   81.59    8.20
   3  -9   4   78.49    6.40
   3  -9   4   76.99    7.10
   3  -9   4   89.09    6.80
   9   3   4   79.69    6.30
  -9  -3   4   85.69    6.50
  -3   9   4   96.79    6.60
   3  -9   4   85.59    6.20
   9   3   4   88.39    5.80
   9   3   4   88.49    6.30
  -3   9   4  101.89    8.20
   9   3   4   82.59    8.50
  -9  -3   4   87.29    6.50
  -9  -3   4   93.39    7.50
  -9  -3   4   85.69    7.90
  -9  -1  -4   35.30    5.00
   1  -9  -4   24.70    4.30
   9   1  -4   23.10    3.50
  -9  -1  -4   17.90    3.40
   1  -9  -4   25.40    5.70
  -1   9  -4   34.50    5.60
   9   1  -4   19.50    2.30
   9   1  -4   25.10    2.30
  -1   9  -4   17.10    3.80
   1  -9  -4   19.30    3.90
  -9  -1  -4   28.90    5.30
   9   1  -4   24.70    6.50
   1  -9  -4   23.60    4.60
   9   1  -4   21.40    3.60
  -1   9  -4   25.30    4.80
   1  -9  -4   24.30    3.50
  -1   9  -4   21.40    5.10
   1  -9  -4   24.40    4.10
  -1   9  -4   20.80    4.10
  -1   9  -4   34.30    5.50
  -9  -1  -4   28.30    4.20
  -1   9   4   23.60    4.00
  -1   9   4   36.40    6.30
   1  -9   4   32.50    4.60
  -9  -1   4   23.70    4.20
   9   1   4   14.20    3.40
   9   1   4   25.80    3.00
   9   1   4   24.30    3.80
  -1   9   4   18.90    4.30
  -1   9   4   22.20    3.50
  -9  -1   4   17.50    4.30
   1  -9   4   15.90    3.30
   1  -9   4   26.00    4.00
   9   1   4   15.90    3.90
  -9  -1   4   20.40    3.40
  -1   9   4   29.70    4.40
   1  -9   4   21.20    4.50
  -1   9   4   28.20    4.80
  -9  -1   4   25.60    4.50
  -9  -1   4   15.60    3.80
   9   1   4   25.10    3.10
   1  -9   4   25.20    4.30
   1   9  -4   17.50    4.60
   1   9  -4   22.80    4.20
  -1  -9  -4   20.80    3.90
  -1  -9  -4   22.10    3.40
   9  -1  -4   17.90    4.30
  -1  -9  -4   23.60    4.70
  -9   1  -4   22.00    4.50
   1   9  -4   25.60    4.70
  -1  -9  -4   24.40    4.00
   9  -1  -4   25.70    5.80
  -9   1  -4   17.60    3.40
   9  -1  -4   23.50    3.20
  -9   1  -4   31.20    4.30
   1   9  -4   21.80    4.30
  -1  -9  -4   26.60    3.90
  -1  -9  -4   36.20    6.90
  -9   1  -4   19.50    3.70
   1   9  -4   21.60    4.20
  -1  -9  -4   17.00    3.60
   9  -1  -4   23.00    3.60
  -9   1   4   19.80    3.90
  -9   1   4   21.30    4.90
  -9   1   4   21.40    4.80
   9  -1   4   16.00    3.90
   9  -1   4   28.60    2.30
  -1  -9   4   25.30    5.10
  -1  -9   4   26.00    4.60
  -1  -9   4   17.00    3.90
  -1  -9   4   26.30    4.20
   1   9   4   21.40    4.30
   1   9   4   31.40    5.70
  -1  -9   4   23.90    3.90
  -1  -9   4   21.90    3.10
   1   9   4   21.40    4.60
   9  -1   4   26.20    4.50
  -9   1   4   19.20    3.00
   1   9   4   23.80    3.80
  -9   1   4   27.50    5.50
   1   9   4   24.30    3.90
  -1  -9   4   24.20    3.20
   1   9   4   25.40    4.70
  -9   1   4   21.20    3.40
   9  -1   4   26.70    2.30
   3   9  -4   86.09    7.10
  -3  -9  -4   92.59    5.80
  -3  -9  -4   89.99    6.90
   3   9  -4   92.39    8.30
  -9   3  -4   78.29    7.90
  -3  -9  -4   88.29    8.20
  -9   3  -4   85.49    8.60
   9  -3  -4   88.59    8.30
  -3  -9  -4   84.89    6.70
  -3  -9  -4   92.19    6.80
   3   9  -4   93.89    8.10
  -9   3  -4   83.79    7.20
   9  -3  -4  100.99    6.10
  -9   3  -4   79.89    5.90
   3   9  -4   87.99    7.90
  -3  -9  -4   97.29    7.00
   3   9  -4   80.19    9.20
  -3  -9  -4   91.29    9.40
   9  -3  -4   83.59    8.30
  -9   3  -4   86.19    5.80
   3   9  -4   89.09    7.10
   9  -3  -4   81.19    6.70
  -3  -9   4   90.09    5.90
  -3  -9   4   87.39    7.80
  -3  -9   4   82.89    6.60
  -3  -9   4   84.59    8.20
  -3  -9   4   93.19    5.70
   3   9   4  105.39    7.00
   9  -3   4   93.79    7.10
   3   9   4   98.79    9.70
   3   9   4   88.59    6.80
  -9   3   4   86.09    9.00
   9  -3   4   69.29    8.30
   9  -3   4   75.99    7.40
  -9   3   4   88.79    6.00
  -9   3   4   90.09    8.40
  -3  -9   4   80.69    8.00
   3   9   4   78.09    7.60
   9  -3   4   96.39    6.40
  -9   3   4   83.69    7.10
  -3  -9   4   96.59    7.90
   3   9   4   86.59    8.00
   3   9   4   86.09   10.00
   5   9  -4   75.99    8.20
   5   9  -4   81.59    7.00
   9  -5  -4   91.29    8.80
   5   9  -4   68.69    9.30
  -9   5  -4   92.49    8.80
  -5  -9  -4   81.39    6.80
  -5  -9  -4   72.49    6.90
  -5  -9  -4   95.29    5.60
   5   9  -4   79.19    6.50
  -9   5  -4   77.09    8.10
  -5  -9  -4   79.39    6.30
   5   9  -4   76.69    7.90
  -5  -9  -4   87.99   10.00
  -5  -9  -4   88.29    7.60
  -5  -9  -4   85.39    8.40
   9  -5   4   87.99    4.20
  -9   5   4   84.19    5.80
   5   9   4   81.49    6.60
  -5  -9   4   84.39    8.50
   9  -5   4   82.39    7.10
  -5  -9   4   86.69    7.20
  -9   5   4   91.79    8.10
   5   9   4   79.39    9.90
  -5  -9   4   84.89    5.20
   9  -5   4   80.19    7.40
   9  -5   4   90.29    4.20
  -9   5   4   84.89    9.40
   5   9   4   84.19    8.20
   9  -5   4   84.19    7.50
  -5  -9   4   80.19    6.60
  -5  -9   4   98.09    8.40
   5   9   4   82.19    8.20
  -5  -9   4   79.29    8.80
  -9   5   4   93.69    8.30
  -5  -9   4   84.79    8.20
   5   9   4   89.99   10.30
   9  -7  -4   14.80    5.00
  -9   7  -4    9.80    4.40
   7   9  -4   15.90    3.30
  -7  -9  -4    6.60    4.10
   7   9  -4    3.60    4.20
  -9   7  -4   11.90    4.30
  -7  -9  -4   25.40    7.20
   7   9  -4   11.70    4.00
   7   9  -4    9.20    4.30
  -7  -9  -4   11.20    3.70
  -7  -9   4    3.70    3.50
  -9   7   4   12.70    3.70
   7   9   4    6.50    4.60
  -7  -9   4   11.10    3.30
   9  -7   4    4.20    3.60
   7   9   4   10.90    3.10
   9  -7   4   10.80    4.10
  -9   7   4    4.30    3.70
   9  -7   4   11.50    2.30
   9  -7   4    7.90    3.90
   7   9   4    7.70    6.20
   9  -7   4    9.70    2.00
  -7  -9   4   13.40    5.10
   7   9   4    5.50    3.80
  -9   7   4    8.50    3.90
  -9  -9  -4    8.80    4.80
  -9   9  -4    8.70    4.90
   9   9  -4    3.70    5.30
   9   9  -4    5.10    4.70
  -9  -9  -4    3.10    4.70
   9   9  -4    0.60    3.70
   9  -9  -4   18.00    7.40
  -9   9  -4   12.30    5.30
   9   9   4    6.70    5.60
   9  -9   4    4.90    3.60
   9   9   4   12.30    7.90
  -9   9   4    9.10    4.70
  -9  -9   4    6.20    4.10
  -9   9   4    6.20    5.00
   9  -9   4    1.90    5.00
   9  -9   4    4.60    2.50
  10   8  -4  217.98   14.30
   8 -10  -4  198.48   11.30
  -8  10  -4  199.98   14.50
  -8  10  -4  192.88   14.70
  10   8  -4  204.38   11.90
 -10  -8  -4  206.58   14.20
 -10  -8  -4  204.38   14.40
  -8  10  -4  209.48   15.80
   8 -10  -4  205.88   12.00
  10   8  -4  206.48   15.00
   8 -10  -4  223.18   15.50
  10   8   4  201.58   18.50
  -8  10   4  221.78   13.60
   8 -10   4  203.98   11.00
  10   8   4  208.18   14.40
  -8  10   4  208.38   14.60
   8 -10   4  189.98   13.50
  10   8   4  203.88   13.90
 -10  -8   4  190.28   13.20
 -10  -8   4  208.58   13.80
 -10  -6  -4  160.88   11.90
  10   6  -4  178.28   10.20
  10   6  -4  152.58   12.40
   6 -10  -4  175.48   12.30
   6 -10  -4  151.18   13.40
  10   6  -4  177.38   11.30
  -6  10  -4  169.48   11.30
  10   6  -4  157.28    9.00
   6 -10  -4  148.59   11.70
  -6  10  -4  176.58   12.20
 -10  -6  -4  149.79   12.20
  -6  10  -4  141.19   11.70
  10   6  -4  179.88    8.80
   6 -10   4  168.68   11.00
  10   6   4  184.18    9.80
 -10  -6   4  167.88   12.00
  10   6   4  171.18   10.90
 -10  -6   4  167.58   11.60
  -6  10   4  163.98   11.50
   6 -10   4  156.88   10.00
  10   6   4  169.78   11.90
  -6  10   4  158.18   12.20
   6 -10   4  157.48   10.80
 -10  -6   4  156.68   11.70
  10   6   4  164.98    9.10
  10   6   4  138.59   14.20
 -10  -4  -4  214.48   13.30
   4 -10  -4  200.58   13.60
  10   4  -4  232.68   13.70
   4 -10  -4  210.58   14.10
  10   4  -4  210.08    9.70
  10   4  -4  219.98   11.00
   4 -10  -4  223.38   11.20
 -10  -4  -4  214.28   14.00
  -4  10  -4  206.88   13.30
 -10  -4  -4  221.58   11.30
  -4  10  -4  215.78   13.10
   4 -10  -4  214.68   14.60
  -4  10  -4  202.38   14.10
  -4  10  -4  213.08   13.30
  10   4  -4  244.18   10.50
  10   4   4  224.98   11.20
  10   4   4  220.38   15.70
  -4  10   4  226.88   11.10
  10   4   4  221.08   10.20
  -4  10   4  225.78   13.30
  10   4   4  235.68   13.40
   4 -10   4  219.88   10.40
 -10  -4   4  225.18   13.30
  10   4   4  216.08   11.00
   4 -10   4  215.28   12.30
   4 -10   4  217.68   12.00
  -4  10   4  217.88   13.00
 -10  -4   4  207.78   13.90
  -4  10   4  198.88   15.60
   4 -10   4  228.78   12.20
 -10  -4   4  218.38   10.80
 -10  -2  -4  519.55   22.90
   2 -10  -4  517.95   22.20
  10   2  -4  518.05   23.70
  -2  10  -4  483.45   24.60
  10   2  -4  523.15   22.50
   2 -10  -4  518.55   24.90
 -10  -2  -4  518.65   23.80
  -2  10  -4  517.75   24.00
  -2  10  -4  494.15   25.20
   2 -10  -4  546.45   25.50
  -2  10  -4  561.84   24.40
  -2  10  -4  511.35   24.70
   2 -10  -4  511.85   22.70
 -10  -2  -4  531.65   24.90
  -2  10  -4  524.65   24.60
   2 -10  -4  535.95   25.80
  -2  10   4  498.45   22.90
  10   2   4  530.85   22.30
 -10  -2   4  531.75   22.20
  -2  10   4  505.15   26.20
 -10  -2   4  501.15   25.20
   2 -10   4  507.85   23.20
  -2  10   4  543.85   25.00
  10   2   4  525.75   19.70
   2 -10   4  534.85   23.40
  10   2   4  543.35   21.90
  10   2   4  532.55   20.00
  -2  10   4  540.55   23.90
   2 -10   4  533.75   22.50
   2 -10   4  514.05   22.00
 -10  -2   4  533.75   23.20
  -2  10   4  544.05   22.60
   0  10  -4  758.02   33.70
   0 -10  -4  791.92   29.20
   0  10  -4  798.42   33.60
 -10   0  -4  797.72   32.00
 -10   0  -4  751.82   31.10
   0  10  -4  670.83   32.60
   0 -10  -4  795.52   31.90
 -10   0  -4  753.42   33.30
   0 -10  -4  788.42   34.90
  10   0  -4  749.53   31.80
  10   0  -4  816.52   32.20
   0 -10  -4  768.22   31.60
   0 -10  -4  805.12   31.40
 -10   0  -4  768.62   32.50
   0 -10  -4  741.03   33.70
   0  10  -4  750.12   35.30
   0 -10  -4  794.92   33.40
   0  10  -4  755.22   32.50
   0  10  -4  778.62   33.90
   0 -10   4  816.62   29.10
   0  10   4  743.13   34.30
   0  10   4  671.83   33.30
 -10   0   4  780.32   30.80
   0  10   4  769.32   31.60
   0  10   4  774.32   32.20
 -10   0   4  709.03   35.60
  10   0   4  741.83   34.90
 -10   0   4  758.12   31.50
   0 -10   4  810.42   32.70
 -10   0   4  765.92   34.90
   0 -10   4  792.02   32.70
   0 -10   4  825.42   33.00
  10   0   4  806.82   31.60
   0 -10   4  812.72   32.30
 -10   0   4  723.73   30.70
   0  10   4  782.02   35.40
   0 -10   4  781.92   30.70
   0  10   4  804.12   32.30
  -2 -10  -4  541.05   21.90
   2  10  -4  537.75   23.70
   2  10  -4  539.25   24.30
  10  -2  -4  525.65   22.20
 -10   2  -4  495.55   23.90
  -2 -10  -4  532.25   26.20
  10  -2  -4  501.65   23.20
  -2 -10  -4  511.35   23.20
 -10   2  -4  529.35   22.00
   2  10  -4  487.05   23.80
  -2 -10  -4  519.35   23.40
  -2 -10  -4  512.45   25.00
  10  -2  -4  522.75   24.90
  -2 -10  -4  512.45   23.50
   2  10  -4  527.65   24.80
 -10   2  -4  511.95   24.30
   2  10  -4  492.55   27.10
 -10   2  -4  520.65   25.60
  -2 -10  -4  546.65   21.90
   2  10  -4  523.35   24.70
   2  10   4  523.85   23.00
 -10   2   4  525.35   26.40
 -10   2   4  502.35   23.20
  -2 -10   4  547.05   25.30
 -10   2   4  494.15   21.70
 -10   2   4  527.85   21.20
  -2 -10   4  538.65   21.30
   2  10   4  508.85   25.40
  -2 -10   4  545.95   21.60
   2  10   4  517.85   25.50
   2  10   4  540.55   26.80
   2  10   4  521.85   24.20
  -2 -10   4  513.55   23.70
  10  -2   4  519.95   25.40
   2  10   4  556.44   22.90
  -2 -10   4  535.35   24.80
  10  -2   4  549.05   23.30
  -2 -10   4  533.65   23.30
 -10   2   4  494.35   26.20
 -10   4  -4  208.38   10.00
  10  -4  -4  237.98   14.00
  -4 -10  -4  223.88   12.10
  -4 -10  -4  222.48   12.00
  -4 -10  -4  202.48   12.70
  -4 -10  -4  203.28   15.20
 -10   4  -4  231.38   15.00
 -10   4  -4  215.48   13.40
  -4 -10  -4  202.08   13.40
  -4 -10  -4  208.58   12.30
   4  10  -4  224.68   13.50
   4  10  -4  228.38   12.60
  -4 -10  -4  219.88   10.30
   4  10  -4  196.78   13.40
   4  10  -4  210.28   11.70
 -10   4   4  195.98   14.90
   4  10   4  202.18   13.30
  10  -4   4  221.48   11.80
 -10   4   4  208.98    9.90
 -10   4   4  210.98   12.70
   4  10   4  215.58   14.00
   4  10   4  216.48   11.60
  -4 -10   4  225.38    9.90
  -4 -10   4  207.38   14.70
  -4 -10   4  211.88   12.10
   4  10   4  228.58   15.80
   4  10   4  199.28   15.80
  10  -4   4  223.38   13.30
  10  -4   4  220.98   12.50
 -10   4   4  205.28   13.70
  -4 -10   4  217.98   11.20
  -4 -10   4  206.68   13.10
  -4 -10   4  223.38   14.00
  10  -6  -4  162.08   12.40
   6  10  -4  170.28    9.20
  -6 -10  -4  180.98   11.60
  -6 -10  -4  158.88    9.60
  -6 -10  -4  143.89   10.20
  -6 -10  -4  156.48   12.00
 -10   6  -4  171.18   12.60
   6  10  -4  155.58   12.10
 -10   6  -4  142.49   12.60
  -6 -10  -4  165.08   14.30
   6  10  -4  165.78   12.50
   6  10  -4  170.98   11.40
 -10   6   4  163.38   11.60
  10  -6   4  157.18   10.90
  10  -6   4  155.18   11.00
  -6 -10   4  171.38   10.30
  -6 -10   4  169.78   12.50
  10  -6   4  161.48   10.70
 -10   6   4  165.58   12.00
 -10   6   4  180.78    9.50
 -10   6   4  163.78   13.90
   6  10   4  153.58   14.70
   6  10   4  164.68   14.40
   6  10   4  158.68    9.10
  -6 -10   4  154.68   10.50
  10  -8  -4  177.28   14.20
   8  10  -4  196.58   14.80
 -10   8  -4  214.88   15.50
   8  10  -4  207.98   14.20
  -8 -10  -4  185.58   13.90
   8  10  -4  210.38   13.30
 -10   8  -4  199.18   15.30
  -8 -10  -4  219.38   14.20
 -10   8   4  204.28   16.90
  -8 -10   4  218.78   13.20
  10  -8   4  214.78   14.00
 -10   8   4  214.18   13.10
   8  10   4  191.78   17.90
 -10   8   4  195.18   14.00
  -8 -10   4  193.38   13.20
   8  10   4  229.68   16.30
  -7  11  -4    5.00    5.70
  -7  11  -4    0.40    5.40
 -11  -7  -4   -6.50    4.60
   7 -11  -4   -5.80    5.10
  -7  11  -4    2.60    5.80
   7 -11  -4    5.50    6.00
  11   7  -4   -4.20    4.50
  11   7  -4   -3.70    3.20
 -11  -7  -4    0.50    5.20
   7 -11   4    0.60    3.50
   7 -11   4   -2.90    4.50
  -7  11   4   -2.60    5.40
  11   7   4   -0.40    4.40
 -11  -7   4    1.90    4.90
  -7  11   4    1.40    4.70
  11   7   4    0.40    5.70
  11   7   4  -12.30    7.30
  -5  11  -4   22.80    4.60
   5 -11  -4   12.60    5.10
   5 -11  -4   18.50    5.60
   5 -11  -4   24.10    5.90
 -11  -5  -4   17.90    5.20
  11   5  -4   18.00    4.90
  -5  11  -4   23.00    5.60
 -11  -5  -4   17.20    4.50
  -5  11  -4   16.80    5.30
  11   5  -4   29.00    4.40
  -5  11   4   17.50    4.70
  11   5   4   36.60    6.00
  11   5   4   24.20    7.20
   5 -11   4   20.70    4.40
  -5  11   4   24.60    5.70
  11   5   4   29.60    4.50
  11   5   4   23.90    3.50
 -11  -5   4   20.10    5.20
 -11  -5   4   33.30    6.80
  11   5   4   29.00    6.60
   5 -11   4   17.70    4.50
 -11  -5   4   20.30    5.60
 -11  -3  -4   29.60    5.40
   3 -11  -4   29.20    4.20
   3 -11  -4   47.30    8.80
  -3  11  -4   40.70    6.90
  -3  11  -4   22.90    5.30
   3 -11  -4   29.90    5.80
   3 -11  -4   27.60    6.40
  -3  11  -4   21.90    5.90
  -3  11  -4   25.70    5.20
  11   3  -4   19.10    4.30
 -11  -3  -4   30.90    5.20
  -3  11  -4   20.30    4.80
  11   3  -4   30.00    4.30
 -11  -3  -4   31.20    6.00
 -11  -3   4   26.10    3.70
  11   3   4   34.10    5.70
 -11  -3   4   27.30    5.00
  -3  11   4   28.50    5.40
  -3  11   4   23.40    5.10
  11   3   4   27.00    7.80
   3 -11   4   21.10    4.50
   3 -11   4   28.50    4.80
   3 -11   4   26.60    4.40
  11   3   4   25.30    3.80
 -11  -3   4   19.30    4.70
 -11  -3   4   29.10    4.30
  -3  11   4   37.60    5.70
  -3  11   4   27.20    7.90
  -1  11  -4    2.70    4.60
   1 -11  -4    9.40    3.30
   1 -11  -4    3.70    2.70
  -1  11  -4    7.60    4.70
  11   1  -4    1.90    3.40
  11   1  -4   10.00    2.90
   1 -11  -4    1.20    5.00
   1 -11  -4    0.00    3.60
   1 -11  -4   10.40    4.30
  -1  11  -4    2.70    4.10
  -1  11  -4    2.80    3.60
  -1  11  -4   -1.30    3.60
 -11  -1  -4   -1.10    3.40
 -11  -1  -4    3.50    3.50
  -1  11  -4    3.00    3.90
 -11  -1  -4    3.30    3.20
  -1  11   4    9.10    3.80
  -1  11   4   -1.80    4.60
 -11  -1   4    4.80    3.50
 -11  -1   4    3.50    4.40
  -1  11   4    5.20    3.40
 -11  -1   4    5.70    3.30
   1 -11   4   10.00    3.90
   1 -11   4    7.30    2.90
   1 -11   4    1.40    3.70
   1 -11   4    4.70    3.20
  -1  11   4    8.50    6.60
  -1  11   4   10.20    3.40
  11   1   4   10.70    3.20
  -1 -11  -4    7.40    2.80
   1  11  -4    6.40    4.20
  11  -1  -4   10.00    2.80
  11  -1  -4    9.60    3.10
 -11   1  -4    2.50    3.70
  -1 -11  -4    6.30    3.20
  -1 -11  -4    4.20    4.00
 -11   1  -4    5.50    3.30
 -11   1  -4    6.90    3.70
  -1 -11  -4    3.80    4.50
   1  11  -4   12.00    3.50
   1  11  -4    5.10    3.40
  -1 -11  -4   -5.20    5.10
   1  11  -4    4.40    4.90
   1  11  -4   11.10    3.90
  -1 -11  -4    5.40    3.90
  -1 -11  -4    3.10    2.60
  -1 -11   4    5.40    4.20
  -1 -11   4    6.80    2.90
  -1 -11   4    9.20    2.50
   1  11   4    1.60    3.30
  11  -1   4    1.30    3.60
  -1 -11   4    1.60    3.80
 -11   1   4    5.90    4.00
   1  11   4    8.20    3.40
 -11   1   4    5.30    3.70
 -11   1   4    0.70    4.60
   1  11   4    4.40    5.30
   1  11   4    5.30    6.40
   1  11   4   11.00    3.90
  -1 -11   4   -3.10    5.10
  11  -1   4    4.00    3.30
  -1 -11   4    1.50    2.80
 -11   1   4    6.80    3.50
  -3 -11  -4   26.20    7.70
  -3 -11  -4   28.10    5.00
  -3 -11  -4   38.30    6.80
  11  -3  -4   31.00    5.40
  -3 -11  -4   31.10    4.50
   3  11  -4   28.50    5.80
   3  11  -4   21.00    4.50
   3  11  -4   32.60    5.20
   3  11  -4   29.70    5.50
 -11   3  -4   27.60    6.00
  -3 -11  -4   26.50    4.20
 -11   3  -4   21.80    4.60
 -11   3  -4   38.60    5.20
   3  11   4   24.80    5.40
  -3 -11   4   27.90    5.40
 -11   3   4   18.40    5.50
  -3 -11   4   25.80    5.30
   3  11   4   42.40   13.40
 -11   3   4   28.10    4.60
  -3 -11   4   29.30    5.40
 -11   3   4   30.00    6.20
  11  -3   4   23.50    4.70
   3  11   4   33.50    7.30
 -11   3   4   26.50    3.30
   3  11   4   37.10    7.30
  11  -3   4   37.80    6.50
  -3 -11   4   21.70    4.10
   3  11   4   26.80    4.60
  -3 -11   4   38.10    4.80
  -5 -11  -4   34.70    5.40
  -5 -11  -4   14.60    7.40
  -5 -11  -4   22.60    5.00
  11  -5  -4   45.70    8.50
   5  11  -4   23.80    6.00
   5  11  -4   28.00    6.40
   5  11  -4   34.40    5.60
 -11   5  -4   25.70    7.00
  -5 -11  -4   28.10    5.80
 -11   5  -4   29.20    5.80
   5  11  -4   33.10    5.80
  -5 -11  -4   29.90    4.90
 -11   5   4   19.40    5.40
 -11   5   4   20.30    5.80
 -11   5   4   27.70    4.80
 -11   5   4   30.50    7.90
  -5 -11   4   18.90    3.70
  11  -5   4   26.50    5.20
  11  -5   4   26.60    4.70
   5  11   4   16.70    7.20
   5  11   4   26.30    4.20
  -5 -11   4   24.70    5.60
 -11   5   4   41.90    7.20
  -5 -11   4   24.90    4.50
   5  11   4   26.60    7.50
  11  -5   4   30.20    5.20
 -11   7  -4   -2.10    5.90
   7  11  -4    5.10    5.80
 -11   7  -4   -1.10    5.20
  -7 -11  -4    3.10    5.10
  -7 -11  -4    0.60    4.70
   7  11  -4    3.80    5.30
   7  11  -4   -1.20    5.00
  11  -7   4   -4.30    5.90
 -11   7   4   -2.00    4.80
 -11   7   4    2.90    5.40
  11  -7   4   -1.90    5.20
   7  11   4   -5.00    6.70
   7  11   4   -4.40    7.60
  -7 -11   4    5.50    4.00
  -7 -11   4   -6.80    4.00
  -6  12  -4   67.59   11.30
   6 -12  -4   70.49   11.10
   6 -12  -4   79.29   11.00
  -6  12  -4   87.69   10.30
  -6  12  -4   92.99   11.50
  12   6  -4   99.19   11.40
 -12  -6  -4   74.59   11.60
 -12  -6  -4   95.39   11.30
   6 -12   4   87.59    8.60
  -6  12   4   91.29   11.20
 -12  -6   4   84.29   10.30
  12   6   4  105.89   15.40
  12   6   4   88.49   11.10
  -6  12   4  100.59   11.80
 -12  -6   4   89.19   11.00
   6 -12   4   86.79   10.10
  -4  12  -4  133.39   12.00
  12   4  -4  142.89    8.60
 -12  -4  -4  141.39   12.10
  12   4  -4  131.99   11.60
   4 -12  -4  140.69   12.50
   4 -12  -4  141.19   13.40
  -4  12  -4  133.69   12.10
   4 -12  -4  141.39   14.40
 -12  -4  -4  143.19   13.20
  -4  12  -4  133.29   11.90
  12   4   4  136.69   16.00
 -12  -4   4  138.39   12.20
   4 -12   4  135.49   10.80
 -12  -4   4  139.19   10.70
  12   4   4  159.68    9.80
   4 -12   4  139.49   10.60
 -12  -4   4  150.88   12.10
  -4  12   4  135.49   12.30
  12   4   4  132.09   18.80
  -4  12   4  153.08   11.80
  -2  12  -4  186.78   14.20
 -12  -2  -4  173.08   13.70
   2 -12  -4  192.98   15.00
  -2  12  -4  178.18   12.80
  12   2  -4  186.48   10.60
  -2  12  -4  163.28   15.00
  -2  12  -4  200.38   12.80
  -2  12  -4  186.08   12.80
   2 -12  -4  181.78   13.40
 -12  -2  -4  176.58   11.10
   2 -12  -4  198.88   15.30
  12   2  -4  184.78   12.60
 -12  -2  -4  178.18   12.80
   2 -12  -4  191.38   11.50
 -12  -2   4  191.08   11.30
 -12  -2   4  178.68   14.30
  -2  12   4  183.58   14.40
  -2  12   4  201.78   12.80
  -2  12   4  206.38   17.50
  12   2   4  188.28   11.20
 -12  -2   4  181.38   11.80
   2 -12   4  176.88   11.80
   2 -12   4  194.48   12.50
   0  12  -4  222.98   14.10
   0 -12  -4  217.98   13.30
  12   0  -4  239.08   13.80
  12   0  -4  236.18   12.70
 -12   0  -4  226.88   13.70
   0  12  -4  253.67   16.50
   0 -12  -4  236.78   12.40
   0  12  -4  223.08   14.90
   0 -12  -4  225.08   15.00
 -12   0  -4  229.18   13.90
   0 -12  -4  237.78   16.80
 -12   0  -4  216.88   15.00
   0  12  -4  267.17   15.10
   0 -12  -4  244.68   15.60
   0  12  -4  232.18   14.80
   0 -12   4  239.08   13.20
   0  12   4  241.58   18.70
   0 -12   4  241.68   14.50
   0  12   4  242.88   13.10
   0  12   4  237.98   13.20
  12   0   4  272.57   13.60
 -12   0   4  249.28   17.00
   0  12   4  257.07   13.90
 -12   0   4  244.78   13.60
   0  12   4  243.48   16.70
 -12   0   4  232.98   12.80
   0 -12   4  226.28   13.60
  -2 -12  -4  198.38   11.00
  -2 -12  -4  176.38   14.00
  -2 -12  -4  184.78   11.90
   2  12  -4  199.98   14.50
 -12   2  -4  194.78   11.40
 -12   2  -4  175.58   14.90
   2  12  -4  198.38   13.90
  -2 -12  -4  198.08   15.80
   2  12  -4  238.58   20.30
  -2 -12  -4  179.68   12.60
  -2 -12  -4  198.28   13.70
   2  12  -4  182.68   12.10
 -12   2  -4  174.38   13.60
   2  12  -4  206.88   13.30
  -2 -12  -4  190.68   10.30
 -12   2   4  207.38   12.70
   2  12   4  174.88   15.20
   2  12   4  175.28   16.90
  -2 -12   4  205.18   10.30
  -2 -12   4  199.68   13.80
 -12   2   4  198.98   15.80
  -2 -12   4  184.68   11.90
  12  -2   4  213.28   12.30
  -2 -12   4  167.68   12.20
   2  12   4  209.58   12.10
   2  12   4  197.38   11.60
  -2 -12   4  199.58   13.50
   2  12   4  191.68   12.70
 -12   4  -4  130.89   13.10
   4  12  -4  136.39   11.50
 -12   4  -4  141.59   12.60
  -4 -12  -4  119.79   10.00
   4  12  -4  128.29   12.00
   4  12  -4  125.89    9.70
  -4 -12  -4  157.58   12.40
  -4 -12  -4  148.79   11.40
  -4 -12  -4  158.28   10.40
  -4 -12  -4  106.79   14.30
   4  12  -4  155.88   13.60
 -12   4   4  157.28   14.50
   4  12   4  145.09   15.10
  -4 -12   4  128.79    9.50
  -4 -12   4  134.89   11.50
   4  12   4  143.39   16.30
  12  -4   4  147.89   11.20
  -4 -12   4  136.19   11.60
 -12   4   4  148.59   11.70
  -4 -12   4  136.89   13.30
   4  12   4  153.48   10.00
  -4 -12   4  142.19   10.60
   6  12  -4   85.99   12.20
 -12   6  -4   94.19   12.50
 -12   6  -4   99.89   11.30
   6  12  -4   82.29   11.30
   6  12  -4   83.89   11.60
  -6 -12  -4   83.09   10.30
  -6 -12  -4   82.09   11.20
  -6 -12   4   80.69    9.10
 -12   6   4   82.89    9.60
   6  12   4  100.59   16.40
 -12   6   4   76.79   12.90
   6  12   4   83.69   14.50
  -6 -12   4   88.99    8.80
 -12   6   4   84.09   11.00
  12  -6   4   82.19    9.00
 -13  -3  -4    3.60    7.60
   3 -13  -4   -3.00    7.00
 -13  -3  -4    5.00    6.30
  -3  13  -4    0.10    5.30
   3 -13  -4    7.50    6.30
  13   3  -4    3.60    5.20
 -13  -3  -4    3.30    5.50
   3 -13  -4    2.10    7.30
  13   3  -4    2.30    3.90
 -13  -3   4   12.60    5.80
 -13  -3   4   10.60    5.90
 -13  -3   4   -4.30    4.60
  -3  13   4   11.70    7.10
   3 -13   4   -5.10    4.70
  13   3   4    2.10    4.60
   3 -13   4    8.70    4.30
  13   1  -4    4.10    5.00
  -1  13  -4    6.40    5.30
  -1  13  -4    9.80    5.40
   1 -13  -4   -1.70    5.40
   1 -13  -4   11.10    4.50
 -13  -1  -4   15.80    5.70
   1 -13  -4   10.80    6.70
  13   1  -4    0.30    5.30
   1 -13  -4    4.00    7.10
  -1  13  -4    3.60    4.90
 -13  -1  -4   11.20    5.40
  -1  13  -4   12.80    7.80
 -13  -1  -4   10.30    4.20
 -13  -1   4   10.90    6.90
  -1  13   4   17.50   11.20
  -1  13   4    1.30    4.20
   1 -13   4    6.70    4.40
 -13  -1   4    8.40    5.10
 -13  -1   4    4.40    4.60
  -1  13   4    7.10    7.30
   1 -13   4   -0.30    5.00
  -1  13   4   21.40    5.20
  13   1   4    4.10    4.30
   1  13  -4    2.60    6.80
 -13   1  -4   12.90    5.20
   1  13  -4    9.70    5.20
   1  13  -4    8.90    4.30
  -1 -13  -4   21.40    6.50
   1  13  -4    2.90    4.70
  -1 -13  -4    2.70    7.80
  -1 -13  -4    3.40    6.00
  -1 -13  -4    6.40    4.30
 -13   1  -4    9.30    5.40
   1  13  -4    5.10    6.60
  -1 -13  -4    6.00    3.50
 -13   1  -4   10.50    7.70
   1  13   4    4.20    5.00
 -13   1   4    3.70    5.00
  -1 -13   4   17.30    4.80
   1  13   4   16.40    8.10
  -1 -13   4    8.20    4.20
  13  -1   4    1.10    4.60
   1  13   4   15.90    4.50
   1  13   4   13.60    8.20
 -13   1   4    7.20    6.70
   1  13   4    7.50    4.90
  -1 -13   4   19.80    6.40
   3  13  -4   -7.00    6.60
  -3 -13  -4    9.20    5.80
   3  13  -4   -2.90    5.30
   3  13  -4   -1.40    5.00
  -3 -13  -4    1.90    8.10
  -3 -13  -4   11.00    6.20
 -13   3  -4   12.40    6.00
   3  13  -4    0.90    5.10
 -13   3  -4    0.00    7.30
   3  13   4   -2.20    9.50
 -13   3   4   -5.40    7.00
   3  13   4    7.60    5.80
  -3 -13   4    1.50    4.60
   3  13   4   -3.20    7.40
  -3 -13   4   -1.00   14.00
  -3 -13   4    0.90    7.00
  -3 -13   4   -2.10    6.20
   0  -1  -5  748.83   32.10
  -1   0  -5  823.12   32.50
   1   0  -5  837.42   29.80
  -1   0  -5  812.82   33.10
   0   1  -5  750.02   32.50
   0  -1  -5  735.83   31.70
   1   0  -5  784.82   32.00
   0   1  -5  771.82   31.70
   0   1  -5  774.52   31.60
   0  -1  -5  816.22   31.60
  -1   0  -5  777.62   32.50
   0   1  -5  705.43   31.80
  -1   0  -5  825.72   32.00
   1   0  -5  813.32   32.40
   1   0  -5  810.32   32.50
   0  -1  -5  784.92   32.20
   1   0  -5  825.22   32.10
   1   0  -5  797.02   32.90
  -1   0  -5  804.92   31.90
   0   1  -5  795.92   31.30
   0   1  -5  683.43   32.00
   0   1  -5  789.42   30.40
   1   0   5  738.33   31.50
   1   0   5  763.92   30.30
   1   0   5  826.72   31.30
  -1   0   5  752.92   31.50
  -1   0   5  736.63   33.40
   0   1   5  824.82   31.50
   0  -1   5  823.22   31.00
   0  -1   5  816.32   33.10
   0   1   5  821.32   31.10
   0   1   5  808.82   33.30
   1   0   5  766.42   32.90
  -1   0   5  768.02   31.40
   0  -1   5  807.32   31.70
   0  -1   5  833.72   31.70
   0   1   5  833.32   31.10
  -1   0   5  796.92   30.90
   0   1   5  804.92   32.00
   0  -1   5  792.32   33.40
  -1   0   5  732.13   31.50
   0  -1   5  834.52   32.00
  -1   0   5  764.82   33.10
   1   0   5  773.82   31.90
   0   1   5  811.92   33.20
  -1   2  -5  614.24   24.20
   2   1  -5  546.85   24.80
  -1   2  -5  580.34   25.20
   1  -2  -5  625.94   23.80
   2   1  -5  591.44   23.80
   1  -2  -5  589.04   25.80
  -1   2  -5  599.14   24.90
  -2  -1  -5  569.44   25.70
   1  -2  -5  586.34   24.20
   2   1  -5  578.14   25.50
  -2  -1  -5  532.15   24.70
  -1   2  -5  652.73   23.60
  -2  -1  -5  556.24   24.60
   2   1  -5  562.94   25.20
  -1   2  -5  578.84   25.50
  -1   2  -5  617.54   23.90
   1  -2  -5  592.94   25.20
   2   1  -5  576.24   24.90
   1  -2  -5  589.44   25.40
  -2  -1  -5  537.25   24.80
  -1   2  -5  587.84   25.60
  -2  -1  -5  549.74   24.50
   2   1  -5  544.15   24.80
  -2  -1   5  624.24   27.30
   2   1   5  591.94   25.70
  -2  -1   5  613.54   24.60
   2   1   5  623.14   23.50
   2   1   5  606.14   25.10
   1  -2   5  586.74   24.10
   1  -2   5  555.24   25.30
  -2  -1   5  612.34   24.80
   2   1   5  615.54   22.60
   2   1   5  603.54   25.90
  -2  -1   5  620.64   26.00
   1  -2   5  536.35   23.00
  -1   2   5  559.54   24.20
  -1   2   5  554.54   22.90
  -2  -1   5  600.94   24.80
   1  -2   5  552.44   25.20
   2   1   5  608.34   22.60
  -1   2   5  562.84   25.80
  -1   2   5  564.44   24.60
  -2  -1   5  641.14   24.00
   1  -2   5  543.75   24.10
   2   1   5  589.84   24.50
   1  -2   5  559.54   25.70
  -1   2   5  586.34   26.10
  -1   2   5  574.54   22.70
  -1   2   5  567.54   24.30
  -2   1  -5  554.74   24.10
   1   2  -5  635.04   24.70
   2  -1  -5  584.14   23.30
  -1  -2  -5  622.84   24.70
  -1  -2  -5  605.74   24.80
   1   2  -5  598.44   24.50
  -1  -2  -5  597.04   25.90
   2  -1  -5  537.95   25.30
   1   2  -5  592.84   25.50
  -2   1  -5  565.94   24.70
  -2   1  -5  571.34   25.70
  -2   1  -5  547.15   25.20
   2  -1  -5  559.54   24.20
  -1  -2  -5  620.14   25.10
  -2   1  -5  569.04   25.20
   1   2  -5  609.44   22.70
   1   2  -5  614.54   25.60
   2  -1  -5  562.84   25.20
  -1  -2  -5  614.04   25.30
   1   2  -5  632.84   25.30
  -2   1  -5  580.44   24.10
   1   2  -5  588.84   25.20
   2  -1  -5  572.84   25.20
   2  -1  -5  576.34   25.10
  -2   1   5  608.74   26.00
   1   2   5  578.64   24.00
   1   2   5  533.65   24.30
   2  -1   5  585.74   25.80
   1   2   5  553.44   23.10
   1   2   5  586.04   23.80
  -1  -2   5  561.74   24.00
  -2   1   5  615.84   24.90
  -1  -2   5  572.94   24.50
  -2   1   5  597.34   24.80
   1   2   5  533.75   25.50
   2  -1   5  651.13   23.70
   2  -1   5  587.64   25.50
  -1  -2   5  538.85   25.20
   1   2   5  585.44   23.40
  -1  -2   5  543.95   24.00
   2  -1   5  604.54   22.70
  -2   1   5  604.94   24.60
   2  -1   5  601.04   25.60
   1   2   5  576.74   24.20
  -1  -2   5  572.34   24.50
   2  -1   5  596.94   24.50
  -1  -2   5  485.65   25.80
  -2   1   5  641.74   22.80
   3   2  -5  380.96   15.50
   2  -3  -5  337.17   15.50
  -2   3  -5  342.47   17.30
   3   2  -5  350.26   16.70
  -2   3  -5  350.96   17.60
  -3  -2  -5  372.86   16.70
   3   2  -5  332.57   16.70
  -3  -2  -5  365.36   16.90
  -3  -2  -5  378.46   17.00
  -2   3  -5  345.67   15.40
   3   2  -5  365.66   18.20
  -2   3  -5  313.27   16.70
  -2   3  -5  335.97   16.70
  -2   3  -5  359.96   16.10
   3   2  -5  360.86   17.00
   2  -3  -5  348.87   17.50
  -3  -2  -5  377.76   18.00
   2  -3  -5  324.47   17.30
  -2   3  -5  364.36   14.80
   3   2  -5  354.96   16.90
   2  -3  -5  360.26   15.10
   2  -3  -5  352.26   16.70
  -3  -2  -5  362.16   16.90
  -3  -2   5  354.16   16.10
  -3  -2   5  348.47   16.80
   3   2   5  339.57   16.80
  -2   3   5  375.16   14.90
   3   2   5  358.76   14.60
   3   2   5  349.07   17.60
   2  -3   5  396.36   15.80
   2  -3   5  352.36   16.90
  -2   3   5  360.56   16.80
   2  -3   5  349.77   14.90
  -2   3   5  361.86   16.30
   2  -3   5  367.86   17.60
   3   2   5  332.77   16.10
   3   2   5  357.86   15.00
  -2   3   5  379.86   17.90
  -2   3   5  368.06   18.00
   3   2   5  336.97   16.90
  -3  -2   5  327.67   17.10
   3   2   5  343.47   17.60
  -2   3   5  352.76   16.90
   2  -3   5  365.96   18.00
  -3  -2   5  339.67   16.60
  -3  -2   5  353.36   15.90
   2  -3   5  356.06   16.20
   3   0  -5  335.67   16.00
   3   0  -5  319.27   15.10
   0   3  -5  319.37   15.30
   0   3  -5  326.17   16.00
   0   3  -5  301.67   15.80
   0   3  -5  315.07   16.10
  -3   0  -5  326.57   15.60
   0   3  -5  327.07   14.10
   0  -3  -5  298.77   14.60
   0  -3  -5  320.67   15.50
   0   3  -5  311.67   14.60
   3   0  -5  323.97   15.70
   0  -3  -5  312.47   16.30
  -3   0  -5  330.97   15.10
  -3   0  -5  322.47   15.90
   0  -3  -5  303.07   15.80
   0   3  -5  318.87   15.40
   3   0  -5  313.07   15.70
   3   0  -5  328.97   16.50
   0  -3  -5  320.47   14.60
  -3   0  -5  322.57   15.80
   0  -3   5  339.37   15.30
   0   3   5  328.17   16.70
  -3   0   5  300.07   16.90
  -3   0   5  315.57   15.60
   3   0   5  296.27   14.80
   0   3   5  353.06   14.10
  -3   0   5  321.07   16.30
   0   3   5  329.57   15.40
   0   3   5  333.37   16.30
   0  -3   5  329.77   14.40
   3   0   5  301.37   16.00
   0  -3   5  332.27   16.00
   0   3   5  348.77   14.90
   0  -3   5  332.07   16.10
  -3   0   5  304.37   15.00
   0   3   5  343.77   14.90
  -3   0   5  317.77   15.10
   3   0   5  308.97   15.80
   3   0   5  327.57   13.70
   0  -3   5  320.47   14.80
   0   3   5  338.67   14.90
  -3   0   5  334.57   13.80
   0  -3   5  336.57   16.90
   3   0   5  304.37   12.70
   3   0   5  315.37   16.10
   0   3   5  336.67   14.70
  -2  -3  -5  333.17   17.60
   2   3  -5  340.57   16.80
   2   3  -5  329.27   16.70
   3  -2  -5  355.96   15.70
   3  -2  -5  368.66   14.70
  -3   2  -5  373.06   16.70
   2   3  -5  336.67   14.20
  -2  -3  -5  346.27   16.40
  -3   2  -5  362.96   16.80
  -3   2  -5  366.86   15.50
   2   3  -5  360.06   16.10
   2   3  -5  341.17   16.20
  -2  -3  -5  339.37   16.90
   3  -2  -5  336.07   17.20
   2   3  -5  355.76   17.70
  -3   2  -5  353.96   17.60
  -2  -3  -5  352.06   16.40
  -3   2  -5  347.27   17.00
   3  -2  -5  358.06   17.30
  -3   2  -5  346.67   17.00
  -2  -3  -5  340.77   16.20
   2   3  -5  329.17   16.80
   3  -2  -5  357.36   16.70
  -3   2   5  335.57   17.80
   2   3   5  374.96   16.90
  -3   2   5  327.87   16.30
   2   3   5  373.56   14.60
   2   3   5  385.96   15.50
  -2  -3   5  368.76   16.10
   3  -2   5  325.77   16.90
   2   3   5  368.96   16.50
   3  -2   5  328.47   15.90
  -3   2   5  335.87   16.80
  -2  -3   5  346.97   17.20
  -2  -3   5  351.76   18.70
   3  -2   5  332.37   14.30
   2   3   5  380.96   18.30
  -3   2   5  336.17   16.10
  -2  -3   5  357.46   16.30
   3  -2   5  336.87   17.60
  -2  -3   5  382.96   16.80
   2   3   5  369.06   17.60
  -2  -3   5  374.06   17.00
   2   3   5  401.56   15.60
   2   3   5  373.86   16.40
   3  -2   5  335.87   16.70
   4   3  -5  294.77   14.00
   4   3  -5  308.17   17.30
  -3   4  -5  319.87   16.30
  -3   4  -5  326.37   16.30
  -4  -3  -5  295.17   16.40
  -4  -3  -5  305.57   15.80
   4   3  -5  291.77   15.30
  -3   4  -5  342.07   15.60
   3  -4  -5  333.77   16.50
  -3   4  -5  318.37   13.40
   4   3  -5  285.77   15.20
   3  -4  -5  331.27   15.70
   4   3  -5  311.87   15.70
  -4  -3  -5  307.37   15.10
   3  -4  -5  319.17   13.80
  -4  -3  -5  302.17   15.10
  -3   4  -5  315.37   16.40
  -4  -3  -5  308.77   15.40
  -3   4  -5  324.97   15.80
   4   3  -5  300.07   15.30
   3  -4  -5  320.97   16.60
  -4  -3   5  346.17   16.30
  -4  -3   5  343.77   15.40
   3  -4   5  311.47   14.90
   3  -4   5  302.97   15.20
   4   3   5  349.07   16.30
   3  -4   5  321.87   13.70
  -4  -3   5  337.87   16.00
  -3   4   5  291.77   15.40
  -3   4   5  312.97   13.40
   3  -4   5  310.37   17.10
  -4  -3   5  346.27   14.90
  -3   4   5  310.77   16.20
   4   3   5  346.47   13.70
   4   3   5  330.17   15.10
  -3   4   5  303.27   15.90
  -3   4   5  303.07   16.30
   3  -4   5  287.07   15.40
  -4  -3   5  318.67   17.90
  -4  -3   5  327.47   15.80
  -3   4   5  292.17   14.70
   3  -4   5  311.57   13.70
   4   3   5  310.97   16.40
   4   3   5  338.07   16.70
  -1   4  -5  246.48   12.80
   1  -4  -5  228.68   13.00
  -1   4  -5  219.78   10.90
  -1   4  -5  224.98   12.90
  -4  -1  -5  222.88   12.00
  -1   4  -5  240.18   11.60
   1  -4  -5  249.18   11.30
  -4  -1  -5  234.98   12.70
   4   1  -5  246.68   14.20
   4   1  -5  231.08   12.20
   1  -4  -5  245.28   12.20
  -4  -1  -5  239.58   13.10
  -4  -1  -5  237.18   12.60
  -4  -1  -5  242.18   12.30
  -1   4  -5  250.47   13.20
   4   1  -5  222.78   12.60
   1  -4  -5  237.48   13.40
  -1   4  -5  245.78   12.00
  -1   4  -5  231.18   13.10
   4   1  -5  242.08   12.60
   4   1  -5  220.68   12.10
   1  -4  -5  232.78   11.30
   4   1   5  227.18   13.20
   4   1   5  229.78   13.00
   1  -4   5  243.58   13.60
   1  -4   5  228.08   12.40
   4   1   5  233.48   13.20
  -1   4   5  225.48   13.40
  -4  -1   5  244.68   12.10
   1  -4   5  235.98   11.20
   1  -4   5  240.88   11.80
  -4  -1   5  253.37   11.10
  -4  -1   5  236.08   12.40
  -4  -1   5  233.88   12.70
  -1   4   5  230.38   12.40
  -1   4   5  229.78   11.40
  -1   4   5  238.98   12.90
   4   1   5  235.58   10.30
  -1   4   5  237.48   12.20
   4   1   5  223.38   11.80
   1  -4   5  238.48   13.20
  -1   4   5  236.28   12.20
  -4  -1   5  235.78   14.30
   1  -4   5  230.78   12.00
  -1   4   5  243.18   11.80
  -1  -4  -5  239.88   11.80
   1   4  -5  232.38   13.00
   1   4  -5  236.98   13.00
  -1  -4  -5  246.98   13.80
   4  -1  -5  242.88   13.80
   1   4  -5  228.28   11.50
   1   4  -5  243.88   10.90
   4  -1  -5  226.68   12.30
  -4   1  -5  241.08   13.00
  -4   1  -5  243.38   11.70
   1   4  -5  216.88   12.70
   4  -1  -5  228.48   11.60
  -1  -4  -5  246.48   12.30
  -1  -4  -5  233.98   12.90
   1   4  -5  226.08   12.70
   1   4  -5  235.38   12.30
   4  -1  -5  237.58   12.60
   4  -1  -5  227.48   12.80
  -4   1  -5  230.38   12.20
  -4   1  -5  242.58   13.10
  -1  -4  -5  249.48   12.10
  -4   1   5  248.28   14.20
   4  -1   5  243.48   13.70
  -1  -4   5  244.78   13.00
   4  -1   5  223.38   11.80
   1   4   5  245.38   11.70
   1   4   5  243.98   13.60
   4  -1   5  243.98    9.80
  -4   1   5  232.88   12.20
   4  -1   5  235.18   13.00
  -1  -4   5  236.88   12.40
  -4   1   5  235.38   12.00
  -1  -4   5  243.38   11.70
  -1  -4   5  226.98   11.60
   1   4   5  232.58   12.20
   1   4   5  241.88   11.30
  -1  -4   5  226.38   12.60
   1   4   5  223.48   12.70
  -1  -4   5  235.98   13.90
   4  -1   5  225.38   12.50
   1   4   5  227.48   12.20
  -4   1   5  237.88   13.10
   1   4   5  238.18   11.50
  -3  -4  -5  346.67   15.40
  -4   3  -5  305.17   15.40
  -4   3  -5  312.97   13.80
   4  -3  -5  320.27   16.60
  -3  -4  -5  361.46   15.80
   3   4  -5  321.47   13.10
   3   4  -5  306.77   15.10
   3   4  -5  353.06   15.00
  -3  -4  -5  323.97   16.70
  -3  -4  -5  326.97   16.30
   3   4  -5  335.07   15.90
   3   4  -5  331.27   15.80
  -4   3  -5  285.37   16.00
   4  -3  -5  300.57   13.80
   4  -3  -5  286.27   15.20
   4  -3  -5  306.27   15.70
  -4   3  -5  307.07   16.00
  -3  -4  -5  315.37   15.10
   3   4  -5  326.57   17.50
  -4   3  -5  305.57   15.70
   3   4  -5  327.27   16.20
  -3  -4   5  309.47   14.30
  -3  -4   5  320.67   15.70
  -3  -4   5  303.97   17.60
   3   4   5  311.77   16.10
   4  -3   5  332.87   16.10
   4  -3   5  323.67   13.30
  -3  -4   5  284.97   15.30
   3   4   5  309.37   15.40
  -4   3   5  322.57   15.10
  -3  -4   5  299.97   15.20
   4  -3   5  323.97   15.40
  -4   3   5  341.37   16.70
   3   4   5  306.57   16.50
   3   4   5  286.77   14.80
  -3  -4   5  303.77   15.80
   3   4   5  321.07   13.90
   4  -3   5  344.07   15.30
  -4   3   5  334.97   17.10
  -4   3   5  335.97   15.90
   4  -3   5  337.57   17.60
   3   4   5  304.57   14.20
   3   4   5  291.87   16.10
   5   4  -5  391.26   18.30
   5   4  -5  386.66   17.90
   4  -5  -5  364.66   15.20
   5   4  -5  366.56   20.70
  -5  -4  -5  418.66   17.60
  -4   5  -5  351.76   18.00
   4  -5  -5  347.37   19.00
  -5  -4  -5  376.86   17.70
  -4   5  -5  333.67   18.70
  -4   5  -5  340.67   17.80
   5   4  -5  382.86   17.70
   4  -5  -5  355.56   17.60
   5   4  -5  398.66   18.50
  -4   5  -5  332.87   18.30
  -5  -4  -5  405.16   18.70
  -5  -4  -5  407.56   18.50
   5   4  -5  407.46   14.80
  -4   5  -5  355.96   17.80
   4  -5  -5  367.06   18.60
  -5  -4  -5  393.56   19.20
   5   4   5  354.46   19.20
   5   4   5  363.46   18.90
  -4   5   5  421.96   16.10
   4  -5   5  408.56   16.30
  -5  -4   5  383.16   18.20
   5   4   5  341.47   16.80
   5   4   5  370.16   18.60
   4  -5   5  359.96   20.10
  -5  -4   5  372.96   17.90
  -5  -4   5  351.36   18.10
   4  -5   5  391.56   17.50
  -4   5   5  381.26   18.10
  -4   5   5  365.36   17.10
   4  -5   5  389.96   18.10
   5   4   5  350.66   19.10
  -5  -4   5  347.67   18.10
   4  -5   5  417.56   17.70
  -5  -4   5  329.77   20.10
  -5  -4   5  362.16   16.60
  -4   5   5  413.56   18.90
  -4   5   5  397.26   19.10
   5   4   5  369.96   16.20
   2  -5  -5  206.88   10.20
  -5  -2  -5  229.88   12.20
   2  -5  -5  211.58   11.50
  -5  -2  -5  233.58   11.90
   5   2  -5  217.38   11.80
   5   2  -5  214.78   11.50
  -2   5  -5  206.38   11.30
  -5  -2  -5  228.48   12.00
   5   2  -5  215.78   12.30
  -2   5  -5  208.38   11.90
   5   2  -5  220.58   14.00
   5   2  -5  221.58   11.80
   2  -5  -5  216.78   10.40
   2  -5  -5  216.68   12.90
  -5  -2  -5  220.98   11.80
  -2   5  -5  194.88   12.30
   2  -5  -5  204.18   12.60
  -2   5  -5  192.78   12.40
  -2   5  -5  192.98   12.20
  -2   5  -5  216.98   11.10
  -2   5  -5  204.58    9.70
  -2   5   5  231.98   12.30
   5   2   5  195.58   12.30
  -5  -2   5  203.28   11.60
  -5  -2   5  226.38   11.00
   2  -5   5  244.48   11.10
  -2   5   5  233.18   12.40
   5   2   5  224.68    9.20
  -5  -2   5  197.08   13.50
   2  -5   5  226.48   12.10
   5   2   5  201.88   12.20
  -2   5   5  223.78   13.30
  -2   5   5  243.68   12.50
  -2   5   5  229.48   12.20
   2  -5   5  221.38   13.30
   2  -5   5  215.88   11.10
   5   2   5  200.78   12.60
   5   2   5  202.88   11.00
   5   2   5  205.68   12.80
  -2   5   5  233.88   11.40
   2  -5   5  221.58   10.60
  -5  -2   5  213.58   11.10
  -2   5   5  230.98   11.00
   2  -5   5  224.88   12.30
  -5  -2   5  208.28   12.20
   0   5  -5  172.88   11.10
  -5   0  -5  175.98   10.30
  -5   0  -5  206.98   10.50
   0  -5  -5  194.08   11.70
   0  -5  -5  181.48   10.30
   5   0  -5  178.98   10.50
   5   0  -5  191.18   12.40
   0  -5  -5  188.48    9.90
   5   0  -5  187.88   11.50
   0  -5  -5  189.48   12.00
   0   5  -5  169.88   11.00
   0   5  -5  180.78   10.80
   0  -5  -5  188.18    9.80
   0   5  -5  190.68    9.80
   5   0  -5  188.48   10.60
   0   5  -5  175.98    9.40
   0  -5  -5  204.78    8.90
   5   0  -5  188.68   10.20
  -5   0  -5  198.68   11.30
   0   5  -5  183.38   11.40
   0   5  -5  190.78   11.20
  -5   0  -5  208.38   11.70
   0  -5   5  190.28    9.80
   0   5   5  200.88   10.40
  -5   0   5  181.18   10.40
  -5   0   5  179.38   10.50
   0   5   5  193.38   12.30
   0   5   5  200.78   11.40
  -5   0   5  185.68   11.20
   5   0   5  177.38   10.10
   0  -5   5  196.38   10.10
   0   5   5  193.98   10.60
  -5   0   5  199.58    8.60
   0   5   5  195.58   10.00
   0  -5   5  194.28   11.80
   5   0   5  179.08   10.70
   5   0   5  193.38   12.20
   0   5   5  205.78   10.70
   0   5   5  197.58   10.90
   0  -5   5  201.28   12.10
   5   0   5  172.08   11.10
   0  -5   5  195.28   11.00
  -5   0   5  171.78   12.30
   0  -5   5  204.68   10.80
   5  -2  -5  230.28   13.70
   5  -2  -5  220.48   10.70
  -5   2  -5  219.08   12.50
  -5   2  -5  221.58   12.60
   2   5  -5  218.88   12.30
  -5   2  -5  222.48   11.80
  -5   2  -5  233.58   12.60
  -2  -5  -5  221.58   11.30
   2   5  -5  219.08   12.50
  -5   2  -5  223.08   10.70
  -2  -5  -5  208.68   11.20
   2   5  -5  213.08   10.10
   2   5  -5  205.68   10.90
   2   5  -5  221.88   11.80
   5  -2  -5  210.38   11.80
   2   5  -5  213.18   13.10
   5  -2  -5  210.98   11.70
  -2  -5  -5  204.38   13.00
  -2  -5  -5  205.88   12.40
   2   5  -5  203.08   11.90
  -2  -5  -5  229.18   11.60
   5  -2  -5  218.38   12.90
  -2  -5   5  230.48   12.40
   5  -2   5  209.08   13.60
   2   5   5  217.58   11.60
  -2  -5   5  234.48   12.40
   2   5   5  230.48   10.70
   2   5   5  234.28   10.50
   2   5   5  232.88   13.50
  -2  -5   5  224.48   13.70
   5  -2   5  202.48   12.30
  -5   2   5  201.68   11.30
  -5   2   5  206.68   13.20
   5  -2   5  210.88   11.60
   5  -2   5  206.78   11.30
  -2  -5   5  232.08   11.60
   2   5   5  223.88   12.50
   5  -2   5  211.78    9.40
   2   5   5  224.68   11.30
  -2  -5   5  234.48   12.90
   2   5   5  212.08   12.40
  -2  -5   5  223.08   11.00
  -5   2   5  205.08   11.70
  -5   2   5  205.88   12.60
   5  -4  -5  367.86   17.70
  -4  -5  -5  332.87   18.90
   4   5  -5  321.47   19.50
  -5   4  -5  382.56   18.10
   5  -4  -5  385.66   19.20
   4   5  -5  376.06   18.10
   4   5  -5  332.17   19.70
   5  -4  -5  393.76   15.60
   4   5  -5  360.46   17.60
  -5   4  -5  403.36   18.50
  -4  -5  -5  346.97   17.20
  -5   4  -5  400.16   15.20
   4   5  -5  351.46   15.30
   5  -4  -5  392.46   18.20
  -4  -5  -5  365.96   17.70
  -4  -5  -5  342.57   18.30
  -5   4  -5  406.96   18.90
  -5   4  -5  380.76   19.30
  -4  -5  -5  383.36   17.20
   4   5  -5  376.36   18.30
   4   5   5  394.86   19.40
  -4  -5   5  403.96   18.30
   5  -4   5  375.86   17.30
   4   5   5  395.16   17.40
   5  -4   5  356.76   17.00
  -4  -5   5  388.86   18.70
   4   5   5  402.36   17.10
  -4  -5   5  407.76   16.70
   4   5   5  405.16   19.60
   5  -4   5  339.57   19.70
  -5   4   5  354.46   18.80
  -4  -5   5  398.36   18.90
   5  -4   5  353.76   17.90
   4   5   5  410.86   16.10
  -5   4   5  331.77   16.80
  -4  -5   5  382.06   18.20
  -5   4   5  347.17   18.80
  -5   4   5  357.26   17.90
   4   5   5  369.86   19.20
  -4  -5   5  402.16   21.10
   5  -4   5  361.66   15.70
  -5   6  -5  231.88   13.30
   6   5  -5  170.78   14.20
  -6  -5  -5  214.08   10.90
  -5   6  -5  211.98   12.30
   5  -6  -5  199.88   11.50
   6   5  -5  197.58   11.10
  -6  -5  -5  190.78   11.30
  -6  -5  -5  204.18   13.80
   6   5  -5  210.78   12.40
  -5   6  -5  206.98   12.10
   5  -6  -5  179.38   12.60
   6   5  -5  203.48    9.40
  -5   6  -5  208.18   12.70
   5  -6  -5  214.78   12.50
   6   5  -5  207.58   11.50
  -6  -5  -5  204.38   12.10
  -6  -5  -5  167.48   12.00
   6   5   5  217.78   11.00
   6   5   5  194.68   13.20
   5  -6   5  206.48   11.50
  -6  -5   5  221.98   12.70
   5  -6   5  206.28   11.40
   5  -6   5  204.28   14.20
  -6  -5   5  182.88   14.10
  -6  -5   5  198.38   12.20
   5  -6   5  202.68   11.00
  -5   6   5  200.68   12.30
   6   5   5  205.88   14.00
  -5   6   5  200.68   12.20
  -6  -5   5  219.48   10.50
  -5   6   5  176.48   12.30
  -6  -5   5  208.98   12.10
  -5   6   5  206.48   10.20
   5  -6   5  199.68   10.20
  -6  -5   5  189.18   12.10
   6   5   5  224.08   11.10
   6   5   5  179.58   12.70
  -6  -3  -5  245.38   13.90
  -3   6  -5  271.47   14.60
  -3   6  -5  265.27   14.00
   6   3  -5  239.98   12.90
  -3   6  -5  267.87   13.60
  -6  -3  -5  226.68   12.90
   3  -6  -5  269.37   14.90
  -3   6  -5  274.77   12.70
   6   3  -5  255.27   13.00
   6   3  -5  241.08   13.70
   6   3  -5  239.18   15.90
   6   3  -5  254.27   13.50
   3  -6  -5  284.17   15.30
   3  -6  -5  260.57   13.30
  -3   6  -5  266.27   15.10
  -3   6  -5  268.37   14.20
  -6  -3  -5  252.77   13.10
  -6  -3  -5  257.17   13.90
   3  -6  -5  251.57   10.80
   3  -6   5  236.78   13.10
  -3   6   5  241.48   13.60
  -3   6   5  245.18   13.50
  -6  -3   5  260.67   13.80
  -3   6   5  247.98   12.50
   3  -6   5  238.58   12.00
  -6  -3   5  270.67   14.50
   6   3   5  255.17   14.50
  -3   6   5  230.48   12.50
   6   3   5  274.57   11.50
  -3   6   5  224.98   14.50
  -6  -3   5  280.07   12.90
  -3   6   5  221.18   13.60
  -6  -3   5  265.87   16.40
   6   3   5  235.28   14.40
   6   3   5  276.27   14.40
   3  -6   5  237.68   12.90
  -6  -3   5  286.57   13.40
   3  -6   5  243.28   12.70
   3  -6   5  222.38   14.90
   6   3   5  259.87   12.80
   6   3   5  286.17   15.80
   6   1  -5  204.38   10.90
  -6  -1  -5  206.48   12.00
  -1   6  -5  215.78   11.10
   1  -6  -5  215.18    9.20
  -6  -1  -5  199.68   11.10
   1  -6  -5  218.58   13.00
   1  -6  -5  224.78   10.60
   6   1  -5  194.18   11.20
  -1   6  -5  214.58   12.20
  -6  -1  -5  190.18   11.40
  -6  -1  -5  192.08   11.60
   1  -6  -5  223.18   12.90
  -1   6  -5  217.28   12.70
  -1   6  -5  222.98   12.70
   6   1  -5  198.48   11.20
   1  -6  -5  202.28    9.90
  -1   6  -5  229.68   12.30
   1  -6  -5  210.88   11.10
  -1   6  -5  217.78   12.00
   6   1  -5  194.98   13.50
   6   1  -5  197.28   12.00
  -6  -1   5  198.48   11.30
  -6  -1   5  227.88   10.10
  -1   6   5  200.38   13.10
  -1   6   5  199.68   11.60
   6   1   5  203.28   12.90
   1  -6   5  218.38   11.40
   6   1   5  195.78   12.70
   1  -6   5  184.58   10.40
   1  -6   5  189.48   11.30
   6   1   5  213.38   11.80
  -6  -1   5  223.68   11.30
  -6  -1   5  213.28   13.80
   1  -6   5  194.48   11.70
   1  -6   5  192.28   10.30
   6   1   5  218.18   11.00
  -6  -1   5  223.68   12.80
  -1   6   5  187.68   10.50
   1  -6   5  181.18   12.50
  -1   6   5  201.08   11.60
  -1   6   5  197.38   11.30
  -1   6   5  195.38   11.60
   1   6  -5  212.58   12.40
   6  -1  -5  178.48   12.80
   6  -1  -5  192.18   10.40
   6  -1  -5  198.18   11.20
  -1  -6  -5  211.28   10.90
  -1  -6  -5  217.98   11.00
  -1  -6  -5  224.38   10.80
   1   6  -5  223.08   12.20
  -6   1  -5  195.48   12.00
   6  -1  -5  208.68   11.00
  -6   1  -5  215.58   10.80
   1   6  -5  211.68   12.30
   6  -1  -5  196.08   10.70
  -1  -6  -5  206.18   12.40
  -1  -6  -5  220.58   13.40
   6  -1  -5  213.58   12.90
  -6   1  -5  202.48   12.20
  -6   1  -5  184.48   11.10
   1   6  -5  210.08   12.30
  -1  -6  -5  215.58   10.20
   1   6  -5  208.08   12.80
   1   6  -5  222.48   10.60
  -1  -6   5  194.28   10.40
  -1  -6   5  201.48   10.70
   6  -1   5  206.88   11.00
  -1  -6   5  194.38   11.60
   1   6   5  189.68   11.60
   6  -1   5  197.88   13.00
  -6   1   5  200.78   13.40
   1   6   5  189.38   11.20
  -6   1   5  224.78   11.70
   6  -1   5  225.88    8.60
   1   6   5  197.58   11.90
  -1  -6   5  198.88   11.70
   6  -1   5  209.38   12.50
   1   6   5  196.08   13.10
  -6   1   5  232.58   13.20
   6  -1   5  215.28   11.20
   1   6   5  196.98   10.40
   1   6   5  199.38   11.40
  -1  -6   5  194.98   12.60
  -6   1   5  199.98   11.10
  -1  -6   5  202.98   12.70
  -3  -6  -5  263.87   13.00
  -3  -6  -5  269.97   14.80
  -6   3  -5  241.38   11.50
  -6   3  -5  231.18   14.10
   6  -3  -5  258.07   14.80
   3   6  -5  264.67   15.80
  -6   3  -5  239.18   14.00
   3   6  -5  268.17   12.00
   6  -3  -5  251.27   13.00
  -6   3  -5  230.48   13.00
   6  -3  -5  248.68   11.70
  -3  -6  -5  272.47   12.70
  -6   3  -5  249.08   14.20
   6  -3  -5  244.38   13.30
  -3  -6  -5  283.77   13.30
   3   6  -5  275.17   13.60
  -3  -6  -5  272.37   15.30
   6  -3  -5  243.18   12.10
   3   6  -5  256.57   13.70
   3   6  -5  256.67   14.40
   3   6  -5  276.57   14.10
   3   6   5  248.58   13.10
  -6   3   5  271.07   15.20
  -3  -6   5  247.38   13.90
   6  -3   5  270.67   12.80
   6  -3   5  263.77   13.30
  -3  -6   5  251.07   13.80
   6  -3   5  249.68   15.70
   3   6   5  230.88   12.80
  -3  -6   5  247.98   12.10
   3   6   5  238.48   14.50
   3   6   5  239.38   14.40
   6  -3   5  257.27   13.90
   3   6   5  250.97   15.10
  -6   3   5  263.37   15.00
  -6   3   5  267.07   13.70
   6  -3   5  267.87   11.20
  -3  -6   5  237.18   14.20
  -3  -6   5  231.78   15.10
  -6   3   5  254.67   13.00
   3   6   5  261.67   12.10
  -3  -6   5  241.38   13.00
   3   6   5  256.87   11.40
   6  -5  -5  215.78    9.10
  -5  -6  -5  224.48   13.20
   5   6  -5  210.58   11.70
   6  -5  -5  195.48   11.60
   6  -5  -5  210.88   13.30
  -5  -6  -5  242.58   12.40
  -6   5  -5  185.48   12.40
   6  -5  -5  193.08   10.40
   6  -5  -5  183.48   11.40
   5   6  -5  209.68   10.20
  -5  -6  -5  232.68   11.10
   5   6  -5  211.98   12.70
   5   6  -5  215.78   14.90
  -6   5  -5  187.88   12.60
  -5  -6  -5  207.28   11.60
  -6   5  -5  188.58   12.80
  -5  -6  -5  208.38   13.70
   5   6  -5  218.48   12.20
  -6   5  -5  184.38   11.60
  -5  -6   5  207.58   12.00
  -5  -6   5  210.68   13.00
   5   6   5  198.48   13.00
   5   6   5  213.28   11.50
  -6   5   5  219.58   12.70
  -5  -6   5  206.58   10.40
  -5  -6   5  179.48   13.90
   6  -5   5  211.68   11.50
  -6   5   5  224.28    9.30
  -5  -6   5  206.08   12.40
  -6   5   5  223.38   13.00
  -6   5   5  200.68   13.50
  -6   5   5  205.48   11.20
   5   6   5  186.58   12.80
   6  -5   5  210.88   10.20
  -5  -6   5  184.38   12.30
   5   6   5  200.68   11.20
   6  -5   5  214.88   11.90
   6  -5   5  214.38   14.40
   5   6   5  210.18   14.30
   6  -5   5  215.68   10.90
   6  -7  -5  129.29    9.60
   6  -7  -5  118.79    8.60
   7   6  -5  140.69    9.30
   7   6  -5  137.59   10.50
  -7  -6  -5  139.19   12.50
  -7  -6  -5  149.39   10.70
   7   6  -5  147.79    8.10
  -7  -6  -5  138.29    9.20
  -7  -6  -5  156.98    8.40
  -6   7  -5  134.79   10.20
   6  -7  -5  125.29   10.60
  -6   7  -5  135.29   10.40
   7   6  -5  134.79    8.50
  -7  -6  -5  152.58   10.50
   6  -7   5  133.69    8.50
   7   6   5  122.19   12.60
   7   6   5  138.39    9.30
  -6   7   5  149.88    9.60
   6  -7   5  138.49    8.50
   6  -7   5  135.39    9.50
   6  -7   5  135.49    8.90
  -7  -6   5  130.29   10.40
   7   6   5  123.29   10.60
  -6   7   5  147.39    8.60
  -7  -6   5  128.29    7.70
   6  -7   5  132.19    9.90
  -7  -6   5  134.79    9.90
   7   6   5  126.39    8.40
  -6   7   5  132.29   10.10
   4  -7  -5  209.78   13.70
  -4   7  -5  212.58   13.00
  -7  -4  -5  244.38   13.50
   7   4  -5  232.88   16.10
   4  -7  -5  214.98   13.50
  -7  -4  -5  254.57   12.30
  -4   7  -5  203.78   13.50
   7   4  -5  218.28   11.80
  -4   7  -5  213.48   12.70
  -7  -4  -5  243.98   13.60
   7   4  -5  229.98   12.00
  -4   7  -5  220.38   13.80
  -4   7  -5  218.08   13.50
   7   4  -5  235.28   13.20
  -4   7  -5  233.08   11.80
   4  -7  -5  207.58   12.10
  -7  -4  -5  234.68   12.60
   4  -7   5  239.78   12.20
   4  -7   5  215.08   14.80
   4  -7   5  222.38   12.10
   7   4   5  229.48   11.30
  -7  -4   5  211.28   13.00
  -4   7   5  227.38   11.80
   4  -7   5  230.08   12.20
   7   4   5  216.28   11.50
  -4   7   5  224.18   13.70
  -7  -4   5  197.58   12.40
   4  -7   5  240.28   11.60
  -7  -4   5  209.78   11.30
  -4   7   5  252.17   12.20
  -4   7   5  231.18   13.40
   7   4   5  211.18   14.10
  -4   7   5  242.88   14.60
  -7  -4   5  234.18   12.80
   7   4   5  210.88   13.70
   7   4   5  228.08   13.30
  -4   7   5  235.98   12.50
   7   4   5  208.38   14.60
  -7  -4   5  202.68   15.20
  -2   7  -5  164.78   11.00
  -2   7  -5  162.98   10.70
   2  -7  -5  162.38    7.80
  -7  -2  -5  187.58   10.50
   7   2  -5  175.08   10.30
  -7  -2  -5  175.58   11.30
   2  -7  -5  159.48   11.50
  -2   7  -5  169.38   11.40
   2  -7  -5  163.58   11.60
   7   2  -5  177.18   13.10
   7   2  -5  150.58    9.20
   7   2  -5  172.08   11.20
   7   2  -5  158.98    9.50
   2  -7  -5  162.48    9.80
  -2   7  -5  158.98   11.30
  -7  -2  -5  195.78   11.00
  -2   7  -5  171.68   10.50
  -2   7  -5  168.28   10.20
   7   2  -5  163.18   10.10
  -7  -2  -5  166.98   10.00
   2  -7   5  183.68   11.00
   7   2   5  168.78   12.40
  -2   7   5  182.88   11.10
   2  -7   5  167.78   10.20
   7   2   5  142.89   10.00
  -2   7   5  172.08   10.30
  -7  -2   5  153.98   12.60
  -2   7   5  161.18    9.40
   7   2   5  149.79   11.40
  -2   7   5  160.28   12.00
  -7  -2   5  164.58    9.40
  -7  -2   5  133.79   10.70
   7   2   5  162.38   11.60
   2  -7   5  171.58   12.30
  -2   7   5  181.28   10.80
  -7  -2   5  152.18   10.00
   2  -7   5  174.48    9.30
   2  -7   5  181.28    9.80
  -7  -2   5  165.78    9.90
   2  -7   5  175.08   10.50
   7   2   5  158.98    9.30
  -2   7   5  184.88   10.60
   0  -7  -5  186.68    9.20
   0   7  -5  177.18   11.30
   0  -7  -5  184.68   10.10
   0  -7  -5  182.78   10.20
   0   7  -5  193.98   12.20
  -7   0  -5  206.38   10.70
  -7   0  -5  189.58   10.70
   7   0  -5  184.98   11.90
   0   7  -5  182.88   11.60
   0  -7  -5  171.98   12.60
   0   7  -5  177.78   11.60
  -7   0  -5  192.78   11.40
   7   0  -5  177.28    9.70
   0   7  -5  189.78   10.40
   7   0  -5  185.68   10.40
   7   0  -5  170.08   12.80
   7   0  -5  188.18   10.60
   0  -7  -5  179.08   12.10
   0   7  -5  164.78   11.40
   7   0  -5  187.58   10.20
  -7   0  -5  194.18   11.50
   0  -7  -5  179.48    9.50
   0  -7   5  191.88   12.60
  -7   0   5  195.18    8.60
   7   0   5  190.38    9.70
   0   7   5  207.28   11.40
  -7   0   5  167.08   10.20
   0   7   5  198.48   11.30
   0  -7   5  185.78   10.10
   7   0   5  178.08   12.70
   0  -7   5  195.08   11.30
   0   7   5  194.68   11.80
   0  -7   5  213.48   11.40
   7   0   5  176.48   10.30
   0   7   5  193.78   10.10
   0  -7   5  202.98   12.30
   7   0   5  174.78   11.80
   0   7   5  206.98   13.10
   0   7   5  190.48   11.40
   0  -7   5  202.38   10.40
  -7   0   5  168.08   12.60
  -7   0   5  176.98   12.00
   7   0   5  178.98   10.20
  -7   0   5  186.18   10.60
   2   7  -5  181.48   11.50
   7  -2  -5  171.68   10.20
   7  -2  -5  174.38    8.90
  -7   2  -5  165.68    9.90
  -2  -7  -5  166.18    9.80
  -7   2  -5  173.38   11.50
   2   7  -5  170.18   12.20
  -2  -7  -5  156.28   11.90
   7  -2  -5  151.38    9.30
   7  -2  -5  158.58   11.80
   7  -2  -5  179.58    9.30
  -7   2  -5  172.88   11.50
  -7   2  -5  190.48    9.40
  -2  -7  -5  178.88    9.90
   2   7  -5  168.88   11.10
   2   7  -5  172.78   10.80
   7  -2  -5  186.88   12.80
  -2  -7  -5  145.09   11.10
   2   7  -5  169.48   10.80
  -2  -7  -5  180.58    9.50
  -7   2  -5  183.28   11.40
   2   7  -5  171.38    9.40
  -2  -7  -5  162.98    9.40
   2   7   5  178.98   10.60
  -2  -7   5  173.98   10.70
   7  -2   5  158.98   12.20
  -7   2   5  159.08   10.10
   2   7   5  186.38   10.20
   7  -2   5  151.38    9.00
  -7   2   5  151.98    9.50
   7  -2   5  164.88    9.20
  -2  -7   5  173.48    9.20
   7  -2   5  176.18   10.00
  -2  -7   5  175.58   11.80
   2   7   5  169.68   11.00
  -7   2   5  158.68   11.90
   2   7   5  166.58   12.50
  -2  -7   5  171.68    9.90
  -2  -7   5  157.08   11.60
   2   7   5  189.18    9.70
  -7   2   5  163.78   11.80
   7  -2   5  147.59   10.60
   2   7   5  164.68   11.70
  -2  -7   5  176.98   10.80
   7  -2   5  168.18    8.00
   7  -4  -5  227.48   14.00
  -7   4  -5  223.88   13.60
  -7   4  -5  250.97   10.10
   7  -4  -5  249.18   11.10
  -7   4  -5  247.08   14.10
  -4  -7  -5  215.18   12.00
   4   7  -5  217.18   12.80
  -4  -7  -5  209.68   14.80
  -7   4  -5  227.28   12.40
   4   7  -5  216.58   11.00
  -4  -7  -5  226.68   11.30
   7  -4  -5  238.68   10.40
  -7   4  -5  217.68   13.30
   4   7  -5  220.48   13.20
  -4  -7  -5  214.18   12.40
   4   7  -5  208.38   15.00
   4   7  -5  194.08   12.20
   7  -4  -5  216.18   11.70
  -4  -7  -5  226.18   13.70
   7  -4  -5  215.38   12.40
   4   7   5  233.58    9.90
  -7   4   5  218.08   12.90
   4   7   5  240.68   12.20
  -4  -7   5  228.68   13.00
  -4  -7   5  235.38   12.50
   7  -4   5  210.58   12.10
   7  -4   5  216.78   11.70
  -7   4   5  209.48   14.10
  -4  -7   5  238.28   13.80
  -4  -7   5  220.68   14.80
  -7   4   5  208.08   13.60
  -4  -7   5  243.08   14.40
  -7   4   5  203.08   11.50
   7  -4   5  206.78   10.80
   4   7   5  243.98   15.00
  -4  -7   5  236.98   11.00
   4   7   5  220.48   13.90
   7  -4   5  209.18   12.70
   7  -4   5  188.38   14.40
   7  -4   5  214.08   10.70
   4   7   5  238.28   12.70
   4   7   5  237.38   14.90
   6   7  -5  120.19    8.40
   6   7  -5  131.09    8.20
  -6  -7  -5  139.49    8.00
  -6  -7  -5  123.39    8.80
  -6  -7  -5  123.99    9.70
  -6  -7  -5  130.79   12.80
   7  -6  -5  155.68   11.40
   7  -6  -5  143.29    8.10
  -6  -7  -5  139.39   10.80
   6   7  -5  132.79    9.80
  -7   6  -5  140.09   10.50
   6   7  -5  133.59   10.30
   7  -6  -5  143.59    9.20
  -7   6  -5  129.49   10.60
   6   7  -5  115.59   12.30
  -6  -7   5  132.79    9.90
   6   7   5  153.68   13.20
   7  -6   5  128.89    8.90
  -7   6   5  137.29    7.60
  -6  -7   5  130.39   10.40
  -7   6   5  127.79    9.80
  -7   6   5  118.99   10.00
  -6  -7   5  141.39    9.80
   6   7   5  151.38    9.70
   6   7   5  141.69    8.80
   7  -6   5  137.09    8.50
   7  -6   5  132.69    8.00
   7  -6   5  136.59    9.50
   7  -6   5  132.09    9.50
  -6  -7   5  139.89   10.50
   6   7   5  159.18   11.50
  -6  -7   5  146.09    7.80
  -7   6   5  135.29   11.30
  -7   8  -5   90.49    9.90
  -8  -7  -5   89.99    6.40
   7  -8  -5  101.89    8.10
   8   7  -5   87.19    6.50
  -8  -7  -5   71.69   21.00
  -7   8  -5  104.29   10.50
   8   7  -5   78.49    9.50
  -8  -7  -5   99.49    9.90
   8   7  -5   81.49    7.80
   7  -8  -5   96.29   10.70
   8   7  -5   75.39    8.30
   7  -8  -5   83.59    8.50
  -8  -7  -5   80.49    9.30
   7  -8   5   83.19    7.50
  -8  -7   5   71.89    9.10
   7  -8   5   96.89   10.60
  -8  -7   5  100.39    6.30
   8   7   5   80.99    8.30
   7  -8   5   81.59    6.90
   7  -8   5   77.09    8.60
   8   7   5  101.39    7.40
  -7   8   5   81.29    9.00
   8   7   5   89.69   13.10
   8   7   5   81.39   10.30
  -7   8   5   92.79    7.90
   7  -8   5   85.99    7.20
  -7   8   5   91.99    8.60
  -8  -7   5   93.19    9.20
  -8  -7   5   85.79    8.70
  -5   8  -5   92.19    9.80
   8   5  -5   94.89    7.70
   8   5  -5   99.59    8.70
  -5   8  -5  100.09    9.00
   8   5  -5  101.59    9.10
   5  -8  -5  102.39    9.60
   8   5  -5   87.99    5.90
  -5   8  -5  103.29    9.60
  -8  -5  -5   98.79    8.80
  -8  -5  -5  104.09    9.40
  -8  -5  -5  100.79    7.40
   5  -8  -5  105.99    9.50
  -5   8  -5  100.59    8.50
   8   5  -5   94.89    7.00
  -5   8   5  111.49    8.40
   8   5   5  104.19    7.50
   5  -8   5  109.89    8.20
   8   5   5  107.79    9.40
  -5   8   5   97.29    7.40
   8   5   5   96.39    7.30
   5  -8   5   81.89    7.20
   5  -8   5   88.99    7.40
  -8  -5   5   99.29    8.70
   8   5   5  112.19    8.20
  -8  -5   5  112.29    9.30
   5  -8   5  110.99    7.40
   8   5   5  100.49   11.30
  -8  -5   5  101.09    7.40
  -5   8   5  105.09    9.10
   3  -8  -5  143.79   11.20
  -8  -3  -5  139.99    9.00
  -8  -3  -5  131.59    9.80
   8   3  -5  132.19    8.10
  -3   8  -5  146.89   10.10
  -3   8  -5  153.78   10.80
   8   3  -5  120.89   11.40
  -3   8  -5  137.39   10.10
   3  -8  -5  135.89   10.50
   8   3  -5  132.89    8.50
   8   3  -5  130.89    9.10
  -3   8  -5  140.49   10.70
  -3   8  -5  129.69    9.80
   3  -8  -5  135.99    9.00
  -8  -3  -5  137.19    9.90
  -8  -3  -5  123.99    8.70
   8   3  -5  135.09    9.60
  -3   8  -5  130.29   10.00
  -8  -3   5  146.09    8.90
   3  -8   5  137.49    8.90
  -8  -3   5  154.48   12.40
   3  -8   5  126.99   10.90
  -3   8   5  129.19    8.40
  -8  -3   5  149.88    9.20
   8   3   5  147.19    9.50
  -8  -3   5  133.09    9.20
   8   3   5  156.48    8.60
   8   3   5  131.69   10.30
   8   3   5  134.39    8.00
   3  -8   5  135.99    8.60
   8   3   5  132.79   10.50
   8   3   5  142.59   11.90
  -3   8   5  132.29    9.00
  -3   8   5  131.69   11.90
  -3   8   5  128.19    9.70
   3  -8   5  133.89    8.80
   8   3   5  144.09    8.60
  -8  -3   5  152.28   10.70
  -3   8   5  139.79    9.70
   3  -8   5  134.29    8.70
  -3   8   5  135.89   10.00
  -1   8  -5  218.88   12.90
   8   1  -5  193.28   11.10
   1  -8  -5  234.18   12.60
  -8  -1  -5  183.08   11.40
  -1   8  -5  220.08   12.70
  -1   8  -5  193.68   12.30
   1  -8  -5  211.08    9.60
   8   1  -5  191.28   14.20
   1  -8  -5  210.28   13.10
   8   1  -5  185.58   10.70
   1  -8  -5  199.28    9.10
   1  -8  -5  192.68   10.80
   8   1  -5  187.58   12.20
  -8  -1  -5  175.28   10.80
  -1   8  -5  202.68   12.70
  -8  -1  -5  190.68   12.20
   8   1  -5  182.38    9.80
  -1   8  -5  202.88   11.40
  -8  -1  -5  182.28   11.20
   8   1  -5  194.38   10.30
  -1   8  -5  179.98   12.00
   1  -8  -5  212.58   14.00
   1  -8   5  180.18   13.20
  -1   8   5  176.38   10.40
   1  -8   5  190.58    8.30
  -8  -1   5  185.68   12.60
   8   1   5  200.18   10.80
   1  -8   5  174.68   10.50
   8   1   5  193.28   13.20
   1  -8   5  190.28   11.40
   1  -8   5  181.78   11.40
  -1   8   5  190.28   11.60
  -8  -1   5  196.28   11.10
  -8  -1   5  184.18   14.00
  -1   8   5  186.08   12.20
   8   1   5  196.78    9.80
  -8  -1   5  223.18   11.40
  -1   8   5  197.58   11.90
   1  -8   5  203.98   10.70
  -8  -1   5  207.58   10.20
   1  -8   5  189.98   11.40
   8   1   5  211.98   10.90
  -1   8   5  185.68   11.90
  -1   8   5  200.18   14.00
   8   1   5  194.88   13.00
   1   8  -5  212.48   12.70
  -8   1  -5  199.08   12.50
  -8   1  -5  166.98   10.60
   1   8  -5  207.98   12.50
  -1  -8  -5  196.48   10.90
  -1  -8  -5  207.88   13.80
  -1  -8  -5  196.88   10.50
   8  -1  -5  194.98    9.50
   8  -1  -5  178.78    9.60
   8  -1  -5  206.78   10.90
   1   8  -5  201.08   13.70
  -1  -8  -5  216.98   10.50
  -8   1  -5  186.18   10.40
  -1  -8  -5  201.38   13.10
  -8   1  -5  173.78   11.50
   1   8  -5  217.68   12.50
   8  -1  -5  177.18   10.80
   1   8  -5  193.58   12.60
   1   8  -5  209.08   11.00
   8  -1  -5  192.78   12.70
   8  -1  -5  172.48   13.50
  -1  -8  -5  211.68   10.50
  -1  -8   5  196.68   12.10
  -8   1   5  188.78   13.70
   8  -1   5  208.98   10.30
   8  -1   5  192.78   13.60
   1   8   5  200.88   10.60
   1   8   5  184.88   11.90
  -1  -8   5  180.58   10.60
  -1  -8   5  177.98   12.90
   8  -1   5  193.18   12.60
  -8   1   5  211.88   13.50
   1   8   5  195.98   14.10
  -1  -8   5  174.28   12.20
  -1  -8   5  202.58   10.50
  -1  -8   5  184.18   11.70
  -8   1   5  211.38   11.50
  -1  -8   5  198.78    9.60
   8  -1   5  194.58   11.10
   8  -1   5  198.38    9.80
   1   8   5  180.38   11.70
   1   8   5  199.38   11.60
   1   8   5  209.78   13.00
  -8   1   5  194.68   10.80
  -3  -8  -5  159.88    9.40
  -3  -8  -5  160.58   12.40
  -3  -8  -5  139.49    8.90
   8  -3  -5  120.89   10.00
   8  -3  -5  136.19    7.80
  -8   3  -5  128.49    8.70
  -8   3  -5  127.49    9.90
   8  -3  -5  137.29   11.20
  -3  -8  -5  150.58    9.20
   3   8  -5  158.38    8.80
   8  -3  -5  124.99    8.80
  -8   3  -5  144.79    8.00
  -3  -8  -5  143.69    8.20
   3   8  -5  140.69   10.20
   8  -3  -5  145.59    8.00
   3   8  -5  142.79   12.10
  -3  -8  -5  159.68   11.20
   3   8  -5  156.58   10.60
  -8   3  -5  128.69   10.30
  -8   3  -5  124.19    9.90
   3   8  -5  135.79    9.50
   3   8  -5  145.29   10.40
   8  -3  -5  144.69    7.30
  -3  -8   5  123.49    8.10
   3   8   5  131.59   10.20
   8  -3   5  140.89    8.10
  -8   3   5  136.79    8.50
  -3  -8   5  137.19   10.10
   3   8   5  138.69    9.10
   3   8   5  126.59    9.40
  -3  -8   5  142.49    8.40
   3   8   5  107.09   11.30
   8  -3   5  127.69   11.10
  -3  -8   5  136.59    9.10
  -3  -8   5  137.69   10.80
  -3  -8   5  128.19   10.80
   8  -3   5  144.19    7.90
   8  -3   5  144.79    9.20
  -8   3   5  140.99   11.50
   3   8   5  152.48   12.30
   3   8   5  138.59    8.40
  -8   3   5  145.49   10.00
  -8   3   5  142.59   11.00
  -3  -8   5  135.79   10.20
   8  -3   5  136.99    9.80
   8  -3   5  140.49    7.80
  -5  -8  -5  116.19    8.60
   8  -5  -5   98.69    6.70
  -8   5  -5   99.99    9.40
   8  -5  -5  104.29   10.80
  -5  -8  -5  110.29    6.70
  -8   5  -5  100.49    9.40
  -5  -8  -5   92.19    7.70
   8  -5  -5   99.59    5.80
   5   8  -5  106.19    7.40
   5   8  -5  107.69    8.80
  -5  -8  -5   91.89   11.90
   5   8  -5  104.19    9.50
   5   8  -5   91.19   10.50
  -5  -8  -5  100.79    9.60
   8  -5  -5   98.59    6.20
  -5  -8  -5  103.69    7.90
   5   8  -5   93.89    7.70
  -8   5   5  116.29   10.10
  -5  -8   5   91.19    9.30
  -8   5   5  106.79    9.30
   8  -5   5  100.99    8.30
   5   8   5   98.99    9.00
  -5  -8   5  102.79    8.00
   8  -5   5   91.79    6.30
  -5  -8   5   90.49    8.90
   5   8   5  101.49    7.90
   8  -5   5  106.99    7.30
   5   8   5   88.79   10.40
   5   8   5  103.59    8.70
   8  -5   5  117.29    7.30
  -8   5   5  101.59    8.60
  -5  -8   5   98.89    8.00
   5   8   5   90.49   10.80
  -5  -8   5  101.19    9.30
   8  -5   5  102.39    8.50
  -5  -8   5   98.89    6.80
  -5  -8   5  107.29    9.90
   7   8  -5   82.99    9.40
   7   8  -5   84.39    7.00
  -7  -8  -5   77.69    9.70
  -7  -8  -5   99.59    9.20
  -7  -8  -5   94.49    6.30
   7   8  -5   88.39    9.20
  -7  -8  -5  100.39   12.90
   8  -7  -5   85.79   10.40
  -8   7  -5   86.79   10.00
   7   8  -5  105.69    8.30
   8  -7  -5   98.39    7.20
  -8   7  -5   80.19    9.70
   8  -7  -5   84.99    7.30
  -7  -8   5   84.39    6.20
  -8   7   5   86.39    9.70
  -8   7   5   89.29   11.30
   7   8   5   97.39    7.30
  -8   7   5   78.99    8.80
   8  -7   5   93.19    8.70
  -7  -8   5   65.89    8.20
  -7  -8   5   79.49   11.30
   7   8   5   85.19   10.30
   8  -7   5  105.09    7.90
   8  -7   5   97.49    8.20
   8  -7   5   97.19    7.80
   7   8   5   92.59    8.60
   8  -7   5   92.19    6.50
  -8   7   5   97.09    7.80
  -7  -8   5   91.59    8.30
   9   8  -5   83.79    8.70
   9   8  -5   98.29    9.20
  -8   9  -5   80.19   10.70
  -9  -8  -5   94.79   11.30
  -8   9  -5   94.89   12.00
  -9  -8  -5  102.59   11.10
   8  -9  -5   81.99    8.00
   8  -9  -5   68.49   11.80
   9   8  -5   88.59   11.20
  -8   9   5   95.59   10.60
   8  -9   5  105.49    9.10
  -8   9   5   71.89   14.40
  -9  -8   5   92.19    9.50
   8  -9   5   66.09    9.20
   9   8   5   84.59    9.40
   8  -9   5   83.29    7.50
  -9  -8   5   83.59    9.70
   9   8   5   85.49   10.90
   9   8   5  105.59   15.00
  -8   9   5   87.49   10.50
   9   6  -5   70.49   10.90
  -6   9  -5   62.49   13.80
  -9  -6  -5   71.69    6.50
   9   6  -5   70.49    7.00
  -6   9  -5   72.49    9.60
   9   6  -5   68.59    9.40
   6  -9  -5   64.99    9.60
   6  -9  -5   74.69    9.00
  -9  -6  -5   68.29    8.90
  -6   9  -5   62.29    9.30
  -9  -6  -5   69.99    9.20
   9   6  -5   66.09    5.90
   6  -9   5   58.39    7.00
   9   6   5   77.69    6.80
  -9  -6   5   58.09    8.10
   9   6   5   82.59   12.20
  -6   9   5   88.59    9.00
  -9  -6   5   61.09    8.30
   6  -9   5   59.29    6.80
   9   6   5   65.59    8.80
   9   6   5   70.99    8.10
   6  -9   5   59.49    7.90
  -6   9   5   60.79    8.90
   6  -9   5   74.89    6.50
  -6   9   5   68.99    6.90
  -9  -6   5   78.79    6.10
   9   4  -5   84.59    6.90
   9   4  -5   98.29    8.60
  -4   9  -5  109.19   10.40
  -4   9  -5   96.49    9.20
   9   4  -5   86.29    6.80
  -9  -4  -5   95.09    9.20
  -4   9  -5   82.99    8.70
  -9  -4  -5   89.19    9.20
  -9  -4  -5  104.49    8.00
   9   4  -5  102.39    9.30
   4  -9  -5   99.19   10.40
  -4   9  -5   99.59    9.30
   4  -9  -5   78.79    9.60
   9   4   5   98.79    8.70
   9   4   5   90.59    7.10
  -4   9   5  104.69    9.30
   4  -9   5   95.79    7.30
   4  -9   5   90.09    7.70
  -4   9   5   84.99   12.20
  -4   9   5   92.29    9.20
   9   4   5  100.59    7.50
   4  -9   5  100.39    7.00
  -9  -4   5   97.79    9.60
  -9  -4   5   98.09    8.30
  -4   9   5   93.29    7.50
   4  -9   5   85.59    7.80
  -9  -4   5   95.39    7.50
   9   4   5   81.39   11.00
   9   4   5   89.59    8.10
   2  -9  -5  159.18    8.10
   2  -9  -5  146.09   11.30
  -2   9  -5  147.69   10.80
   9   2  -5  148.39   10.60
  -2   9  -5  138.99   10.00
   2  -9  -5  133.19    9.00
   9   2  -5  145.09    9.20
  -2   9  -5  130.09   10.20
  -2   9  -5  140.99   10.80
  -2   9  -5  131.09   10.80
  -9  -2  -5  159.88   10.50
   9   2  -5  162.58    8.80
   2  -9  -5  133.29   11.90
  -9  -2  -5  142.89   11.10
  -9  -2  -5  155.28   10.00
   9   2  -5  157.68    8.10
  -2   9  -5  149.99   11.60
  -9  -2   5  160.18    9.50
  -2   9   5  160.38   11.80
   2  -9   5  151.08   10.00
  -9  -2   5  140.49   11.30
  -2   9   5  152.48    9.70
   2  -9   5  163.08    9.80
   9   2   5  144.39    9.20
   2  -9   5  156.58    9.70
  -2   9   5  159.38   10.40
   9   2   5  142.89    9.20
  -2   9   5  146.99   13.60
  -2   9   5  141.79    9.00
  -9  -2   5  154.28    9.80
   9   2   5  150.18    8.20
   2  -9   5  157.78    9.40
   0  -9  -5  234.48   16.40
   0  -9  -5  250.67   11.70
   9   0  -5  290.07   15.90
  -9   0  -5  253.67   14.40
  -9   0  -5  277.27   15.20
   0  -9  -5  253.97   13.30
   0  -9  -5  220.18   15.20
   0  -9  -5  255.57   12.60
  -9   0  -5  267.37   13.70
   9   0  -5  274.47   11.40
   9   0  -5  250.97   13.40
   0   9  -5  258.47   13.90
   0   9  -5  247.88   15.00
   0   9  -5  244.78   15.90
   9   0  -5  268.07   11.30
   0   9  -5  236.68   14.90
   0  -9  -5  245.58   13.00
   9   0  -5  264.17   13.60
   0   9  -5  264.97   15.40
   9   0   5  251.07   13.40
  -9   0   5  223.78   16.30
   0  -9   5  277.37   11.20
   9   0   5  224.88   15.10
   0  -9   5  262.47   13.50
  -9   0   5  262.67   14.10
   0   9   5  256.17   14.40
  -9   0   5  245.08   15.60
   9   0   5  243.98   12.00
   0  -9   5  270.07   13.00
   0   9   5  262.77   17.50
   0   9   5  267.37   14.30
   0   9   5  284.87   16.20
   0  -9   5  274.57   14.50
   9   0   5  249.68   11.60
   0  -9   5  283.87   14.40
   0  -9   5  276.77   15.10
   0   9   5  275.37   13.50
   0   9   5  252.87   14.70
  -9   2  -5  137.49   11.10
   9  -2  -5  146.99    9.50
   9  -2  -5  154.98    9.00
   9  -2  -5  153.98    7.00
  -2  -9  -5  140.79   11.40
   9  -2  -5  158.48   11.60
   2   9  -5  135.89   10.90
  -9   2  -5  155.18   12.10
   2   9  -5  142.89   12.40
   2   9  -5  139.49    9.60
  -2  -9  -5  152.68   13.70
  -2  -9  -5  147.09    8.70
  -9   2  -5  154.28    9.00
  -2  -9  -5  138.09    9.00
   2   9  -5  131.29   10.20
  -2  -9  -5  149.49    9.10
  -9   2  -5  151.88   10.50
   2   9  -5  148.19   11.40
   2   9  -5  140.99   11.10
   9  -2  -5  158.08    7.00
  -2  -9  -5  149.29    9.60
   2   9   5  159.68    9.40
  -9   2   5  134.79   10.10
   2   9   5  168.38   10.30
  -2  -9   5  157.98   10.50
   2   9   5  162.78   13.60
  -2  -9   5  161.68    9.70
   2   9   5  150.28   10.80
  -2  -9   5  162.18   11.00
  -2  -9   5  168.68    8.50
  -9   2   5  127.79   11.20
   9  -2   5  148.19    7.70
   9  -2   5  139.29   10.80
   2   9   5  154.78   10.80
   9  -2   5  136.29    9.60
  -2  -9   5  161.18    8.80
   2   9   5  159.58   12.20
  -2  -9   5  156.58   11.60
   9  -2   5  141.79    7.50
  -9   2   5  143.59   12.00
  -9   4  -5  100.99   10.20
  -4  -9  -5   99.49    9.90
  -4  -9  -5   97.69   12.20
  -9   4  -5   90.39    6.10
   9  -4  -5   84.49    5.10
   9  -4  -5   92.49    9.30
   9  -4  -5   97.89    5.10
  -4  -9  -5   89.39    8.00
  -4  -9  -5   89.99    7.50
   4   9  -5   92.69    7.70
   9  -4  -5  102.19    6.30
   4   9  -5   92.79    9.50
  -9   4  -5   87.29    9.10
   4   9  -5   80.99    9.20
   4   9  -5   82.59    8.10
  -4  -9  -5   93.09    6.30
  -4  -9  -5   86.09    7.30
   9  -4   5   84.39    5.60
  -4  -9   5  102.09    9.20
   9  -4   5   92.89    5.50
  -4  -9   5   90.39    8.80
   9  -4   5   97.59    8.20
  -9   4   5   88.19   10.20
   4   9   5  108.99   11.50
   9  -4   5   83.39    8.30
   4   9   5  106.79   11.60
  -4  -9   5  103.59    7.30
  -4  -9   5   92.19    9.70
  -4  -9   5  100.89    7.70
  -9   4   5   97.69    9.00
   4   9   5   91.19    8.70
  -9   4   5   87.99    8.90
  -4  -9   5   94.09    6.70
   4   9   5   90.39    8.00
   4   9   5   82.49    8.10
   9  -4   5   95.99    7.00
  -6  -9  -5   60.39    8.30
   9  -6  -5   55.89    5.20
  -9   6  -5   65.99    9.50
  -6  -9  -5   78.49    5.70
   6   9  -5   67.79    7.70
  -6  -9  -5   96.49   13.30
  -9   6  -5   70.69    9.50
  -6  -9  -5   66.39    9.10
   9  -6  -5   76.79    4.70
   6   9  -5   68.79    9.10
   6   9  -5   61.19    6.30
   6   9  -5   61.79    8.90
   9  -6  -5   57.59    9.80
   6   9   5   83.09   12.30
   6   9   5   72.79    6.80
  -6  -9   5   77.79    5.80
  -9   6   5   67.89    7.50
  -6  -9   5   73.99    7.30
  -9   6   5   61.79    8.50
   9  -6   5   56.69    7.20
   9  -6   5   69.29    7.70
   9  -6   5   73.09    5.70
   6   9   5   66.49    7.70
   9  -6   5   58.79    8.10
   9  -6   5   62.49    5.20
  -6  -9   5   65.79    7.60
   6   9   5   73.99   10.90
  -9   6   5   61.69   10.20
  -6  -9   5   82.09    9.60
   9  -8  -5   91.19    6.40
  -9   8  -5  101.39   12.20
   8   9  -5  102.99    9.50
  -9   8  -5   92.99   11.60
   9  -8  -5   74.59    6.30
   8   9  -5   86.39   11.70
   8   9  -5   90.39    9.10
  -8  -9  -5   80.09   10.70
   9  -8  -5   85.99   11.10
  -8  -9  -5   59.69   10.10
  -9   8   5   70.49    8.70
  -8  -9   5   80.89    9.20
   9  -8   5   82.69    8.00
   9  -8   5   85.59    6.10
   8   9   5   83.99    9.10
  -9   8   5  106.79   13.50
   9  -8   5   74.09    9.20
   9  -8   5   75.79    7.80
   9  -8   5   87.49    9.40
  -8  -9   5   87.19    9.10
   8   9   5   83.69   11.90
   8   9   5   99.79   12.00
  -9   8   5   64.99   10.50
  10   7  -5   54.79    7.10
  -7  10  -5   48.40    8.00
  -7  10  -5   40.00    7.70
 -10  -7  -5   37.80    7.40
  10   7  -5   39.50    6.60
  10   7  -5   41.10    6.70
   7 -10  -5   35.80    7.80
 -10  -7  -5   46.90    7.70
   7 -10  -5   50.39    7.30
   7 -10   5   39.00    6.40
 -10  -7   5   40.20    6.70
   7 -10   5   49.90    8.30
  10   7   5   26.20   15.10
  10   7   5   50.99    8.70
  10   7   5   44.40   10.10
   7 -10   5   38.60    6.90
  -7  10   5   27.50    7.00
  10   7   5   46.90    7.20
 -10  -7   5   53.49    9.00
  10   5  -5   60.39    5.90
 -10  -5  -5   55.49    9.40
  -5  10  -5   71.29    9.20
 -10  -5  -5   67.89    6.90
 -10  -5  -5   51.29    8.50
  10   5  -5   63.69    8.90
   5 -10  -5   64.89    9.70
  10   5  -5   49.50    5.40
   5 -10  -5   51.09    7.60
  10   5  -5   57.89    7.90
  -5  10  -5   54.69    8.80
   5 -10   5   58.29    6.60
   5 -10   5   65.59    7.30
 -10  -5   5   60.59    8.20
  10   5   5   59.99    6.80
  10   5   5   43.70    7.20
  10   5   5   73.19   11.70
 -10  -5   5   67.39    8.90
  -5  10   5   52.79    9.30
 -10  -5   5   64.89    7.40
  -5  10   5   67.39    6.80
   5 -10   5   54.89    7.20
   5 -10   5   58.29    7.80
  10   5   5   75.89    7.40
  -5  10   5   59.49    8.70
  10   3  -5   85.69    6.80
   3 -10  -5  101.99   10.40
 -10  -3  -5   79.09    9.80
   3 -10  -5  111.69   11.30
  10   3  -5   98.89    9.30
 -10  -3  -5  103.39    9.50
  -3  10  -5   86.29    8.60
  10   3  -5   90.59    5.80
  -3  10  -5  105.19    9.20
  10   3  -5   81.29    6.60
  -3  10  -5  105.69   10.10
  -3  10  -5   78.09   10.00
 -10  -3  -5   84.89    7.70
   3 -10   5   88.39    8.00
   3 -10   5   92.69    8.80
  10   3   5  102.89    7.00
  -3  10   5   82.99   10.00
  -3  10   5   99.79    7.80
   3 -10   5   86.59    7.80
  -3  10   5  109.19    9.60
  10   3   5   96.09    7.40
   3 -10   5   94.99    7.20
  10   3   5   95.89    7.80
 -10  -3   5   93.79   10.20
 -10  -3   5   99.89    9.00
  -3  10   5   85.29   14.60
 -10  -3   5  115.89    8.30
   1 -10  -5  202.28   10.30
   1 -10  -5  189.08   10.90
   1 -10  -5  178.28   13.30
 -10  -1  -5  163.38   13.00
  -1  10  -5  193.28   13.30
 -10  -1  -5  165.28   11.20
  10   1  -5  179.58   11.50
  -1  10  -5  220.78   12.30
  -1  10  -5  181.28   12.80
  -1  10  -5  212.48   13.90
   1 -10  -5  199.18   15.00
  -1  10  -5  191.68   14.10
  10   1  -5  178.88   10.70
 -10  -1  -5  173.68   11.80
   1 -10   5  171.78   10.30
 -10  -1   5  203.28   13.90
  -1  10   5  183.98   12.10
  -1  10   5  188.08   13.50
   1 -10   5  179.18   11.80
  10   1   5  200.58    9.20
  10   1   5  199.08   11.10
  10   1   5  184.98    8.70
   1 -10   5  171.08   10.80
 -10  -1   5  223.38   11.90
  -1  10   5  182.58   11.10
 -10  -1   5  216.48   11.00
   1 -10   5  184.18   12.00
  -1  10   5  148.89   16.20
  -1  10   5  161.48   10.50
   1  10  -5  202.18   13.20
 -10   1  -5  179.18   11.10
  -1 -10  -5  194.58   10.60
  -1 -10  -5  204.98   16.10
   1  10  -5  220.28   13.60
  -1 -10  -5  192.28   11.00
  -1 -10  -5  218.68   10.20
  -1 -10  -5  202.08   11.60
  10  -1  -5  171.88   12.80
   1  10  -5  205.88   13.20
  -1 -10  -5  191.78   13.70
  10  -1  -5  190.48   11.00
   1  10  -5  199.88   12.70
   1  10  -5  195.78   14.60
 -10   1  -5  171.48   11.70
 -10   1  -5  169.58   12.60
   1  10  -5  202.78   11.90
   1  10   5  170.98   11.80
  -1 -10   5  166.98   12.10
 -10   1   5  180.18   11.40
  10  -1   5  200.18    8.10
 -10   1   5  194.98   14.70
  -1 -10   5  172.68   12.20
  10  -1   5  199.48   11.40
  -1 -10   5  182.78   10.30
   1  10   5  189.78   14.60
  -1 -10   5  168.18   11.00
   1  10   5  176.28   15.70
  -1 -10   5  189.58    9.30
   1  10   5  165.98   11.80
  -1 -10   5  174.38   12.10
  10  -1   5  202.08    8.10
   1  10   5  187.48   10.90
  -3 -10  -5   95.89    7.70
  -3 -10  -5  104.49   10.70
  -3 -10  -5  101.09    8.10
 -10   3  -5   96.39   10.90
  10  -3  -5   90.39    7.00
   3  10  -5   98.69   10.00
  -3 -10  -5   98.99    6.80
   3  10  -5  105.39   10.20
  10  -3  -5  103.49    9.80
 -10   3  -5   88.89    9.80
 -10   3  -5   87.39    7.30
  -3 -10  -5  102.19    8.20
  -3 -10  -5  119.29   13.20
   3  10  -5   84.39    8.40
   3  10  -5  102.79    8.50
  -3 -10   5   86.09    6.90
 -10   3   5   88.39    9.70
   3  10   5   92.19    8.50
  -3 -10   5   89.99    9.00
   3  10   5   91.09   12.60
 -10   3   5  103.69    9.50
 -10   3   5  112.19   11.30
  10  -3   5   80.99    8.30
  -3 -10   5   97.49    9.70
  -3 -10   5   83.49    9.30
  -3 -10   5   97.19    8.20
  -3 -10   5   92.59    7.00
   3  10   5   86.59    8.80
   3  10   5   98.29   12.10
  10  -3   5  101.99    8.60
   5  10  -5   61.59    6.90
  -5 -10  -5   73.09    5.70
 -10   5  -5   60.39    9.80
  -5 -10  -5   63.09    6.70
   5  10  -5   53.89    9.20
  10  -5  -5   43.90    7.20
  -5 -10  -5   60.09    9.30
 -10   5  -5   61.39   10.30
   5  10  -5   74.39    7.90
  -5 -10  -5   76.99    8.00
   5  10  -5   60.29    9.00
  -5 -10  -5   57.09    9.40
 -10   5   5   62.09   11.20
 -10   5   5   54.19    8.10
  -5 -10   5   67.19    6.60
  -5 -10   5   76.19   10.00
   5  10   5   78.59   12.30
  -5 -10   5   50.39    7.00
   5  10   5   73.19   12.70
   5  10   5   57.19    7.50
  -5 -10   5   51.49    6.00
  10  -5   5   56.89    7.60
 -10   5   5   57.09    8.30
  10  -5   5   46.20    8.00
  -5 -10   5   65.99    7.70
   7  10  -5   37.70    7.30
 -10   7  -5   65.49   11.30
   7  10  -5   63.89   10.80
   7  10  -5   47.10    7.40
  10  -7  -5   37.90    6.70
  -7 -10  -5   47.60    6.90
  -7 -10  -5   57.09    9.90
 -10   7  -5   34.00    7.20
   7  10  -5   26.20    6.90
  -7 -10   5   38.10    5.70
  10  -7   5   47.90    6.30
   7  10   5   41.00    8.40
 -10   7   5   40.00    7.90
  -7 -10   5   44.90    7.90
   7  10   5   25.30    9.00
  10  -7   5   34.30    5.80
 -10   7   5   49.30    8.10
  10  -7   5   43.40    7.60
 -10   7   5   27.80    7.70
  -6  11  -5   47.70    8.00
  11   6  -5   57.69    6.50
  11   6  -5   35.70    7.20
  11   6  -5   54.19    5.70
   6 -11  -5   39.70    7.20
   6 -11  -5   49.10    8.20
  -6  11  -5   43.50    7.70
 -11  -6  -5   59.49   10.00
  11   6   5   46.80   10.00
   6 -11   5   52.59    8.30
   6 -11   5   45.90    6.70
  -6  11   5   69.89   10.70
  11   6   5   46.00    8.10
   6 -11   5   57.79    7.70
 -11  -6   5   40.80    7.10
  -6  11   5   67.19   11.70
 -11  -6   5   48.80    8.10
 -11  -4  -5   46.30    7.10
 -11  -4  -5   59.69   10.20
  11   4  -5   52.69    4.20
  -4  11  -5   49.70    9.30
   4 -11  -5   45.00    8.10
  -4  11  -5   37.70    7.10
  11   4  -5   58.39    9.40
  11   4  -5   39.40    5.40
  -4  11  -5   43.30    9.10
 -11  -4  -5   57.29    7.80
   4 -11  -5   39.30    7.70
   4 -11   5   56.99    8.30
 -11  -4   5   41.10    8.30
  11   4   5   45.60    5.40
 -11  -4   5   62.79    9.00
  11   4   5   46.60    5.50
 -11  -4   5   40.20    7.10
   4 -11   5   38.40    7.30
  -4  11   5   54.29    8.40
  11   4   5   47.40    9.30
  -4  11   5   40.20    6.50
  -4  11   5   61.09   10.70
  11   4   5   55.29    7.10
   4 -11   5   44.30    7.90
  -2  11  -5   78.89    8.40
   2 -11  -5   69.49   11.30
  -2  11  -5   79.29    8.90
 -11  -2  -5   71.69    8.60
 -11  -2  -5   63.39    7.40
   2 -11  -5   70.19   10.10
  -2  11  -5   61.59    9.60
 -11  -2  -5   69.69    9.50
  11   2  -5   73.39    9.00
  -2  11  -5   89.49   11.20
  -2  11  -5   70.39   10.60
  11   2  -5   72.69    6.40
 -11  -2   5   57.99    7.80
   2 -11   5   68.69    9.00
   2 -11   5   85.99    7.00
   2 -11   5   64.89    7.50
  -2  11   5   76.89    8.50
 -11  -2   5   89.69    8.50
 -11  -2   5   85.89   10.40
  -2  11   5   92.49   15.70
  11   2   5   85.09    7.60
   2 -11   5   78.99    8.00
  -2  11   5   68.69    7.60
  -2  11   5   65.59   11.20
 -11   0  -5   88.29    9.00
   0 -11  -5   99.99    7.80
   0 -11  -5   97.39   13.30
   0  11  -5   93.19    9.30
   0  11  -5   70.19   10.90
 -11   0  -5   91.29    8.00
  11   0  -5  102.99    8.70
   0  11  -5   77.69    9.20
   0  11  -5   95.89   10.10
   0 -11  -5   83.09    7.00
   0  11  -5   90.19   10.70
 -11   0  -5   91.19   10.60
 -11   0   5   94.79    8.80
   0  11   5  111.79   15.30
 -11   0   5   77.29   10.70
   0 -11   5   97.49    8.70
   0  11   5   98.39    8.70
  11   0   5   92.29    8.40
   0 -11   5  101.89    7.80
   0  11   5   91.99    7.60
   0 -11   5   98.39   10.00
   0  11   5   92.99   11.50
   0 -11   5   93.69    8.40
   0  11   5   88.69    9.20
  -2 -11  -5   67.19    7.20
  -2 -11  -5   53.39   10.00
   2  11  -5   82.59    8.50
   2  11  -5   73.49    9.70
 -11   2  -5   73.29   10.00
   2  11  -5   66.59    7.40
  -2 -11  -5   75.69    6.30
   2  11  -5   96.39   10.50
 -11   2  -5   90.39    8.30
 -11   2  -5   64.39   11.20
  11  -2  -5   80.59    7.50
  -2 -11  -5   76.59    8.50
  -2 -11  -5   94.59   13.70
  -2 -11  -5   80.49    7.40
  11  -2  -5   52.99    9.40
  -2 -11   5   74.49    6.30
   2  11   5   86.99   12.20
   2  11   5   75.49    8.00
  -2 -11   5   59.79    9.70
  -2 -11   5   80.09    7.80
   2  11   5   72.69    8.50
   2  11   5   79.69    8.80
 -11   2   5   58.39   11.10
  -2 -11   5   71.49    8.90
   2  11   5   77.59   11.40
  -2 -11   5   84.39    7.00
  11  -2   5   68.39    7.90
  -2 -11   5   73.09    8.30
 -11   2   5   76.59    8.80
  -4 -11  -5   66.29   11.40
   4  11  -5   73.29   10.50
  -4 -11  -5   37.10    7.10
  -4 -11  -5   44.50    6.00
 -11   4  -5   47.30    8.10
   4  11  -5   53.69    8.30
 -11   4  -5   45.20    7.50
  11  -4  -5   70.19    9.80
  -4 -11  -5   40.00    5.70
  -4 -11  -5   39.30    7.00
   4  11  -5   48.00    7.00
 -11   4   5   63.09   11.70
  11  -4   5   40.60    6.40
   4  11   5   38.80    8.00
  -4 -11   5   58.09    8.60
  -4 -11   5   62.29   10.40
   4  11   5   37.20    9.80
  -4 -11   5   52.99    6.40
   4  11   5   51.09    6.60
  -4 -11   5   53.99    7.20
 -11   4   5   61.29    9.10
  -4 -11   5   48.90    6.60
  -6 -11  -5   36.40    6.20
  -6 -11  -5   39.60    7.90
   6  11  -5   52.49   10.00
   6  11  -5   40.30    6.70
   6  11  -5   45.70    8.00
  11  -6  -5   25.50    6.70
 -11   6  -5   56.69    8.70
 -11   6  -5   36.70    7.00
   6  11   5   44.00    9.40
 -11   6   5   31.00    7.00
  11  -6   5   36.60    5.50
  -6 -11   5   43.60    7.40
  11  -6   5   31.00    6.00
 -11   6   5   39.80    9.60
 -11   6   5   47.80    7.70
   6  11   5   59.79   10.20
  12   3  -5   58.69    7.90
 -12  -3  -5   51.49    7.30
  -3  12  -5   51.39    7.80
   3 -12  -5   78.09   11.10
  12   3  -5   51.99    5.80
  -3  12  -5   54.89   10.20
  -3  12  -5   59.69   10.40
 -12  -3  -5   47.90    8.20
   3 -12  -5   63.29   10.10
 -12  -3  -5   71.99    9.70
  -3  12   5   80.49   10.40
 -12  -3   5   72.69    9.20
 -12  -3   5   65.29   11.10
   3 -12   5   48.10    7.80
 -12  -3   5   69.99   13.50
  12   3   5   62.09    8.40
  -3  12   5   57.29   10.20
   3 -12   5   48.00    8.70
   3 -12   5   64.99    9.40
 -12  -1  -5   36.00    6.60
   1 -12  -5   64.39   11.30
   1 -12  -5   55.59    7.60
  -1  12  -5   36.90    6.90
 -12  -1  -5   54.19    8.90
  -1  12  -5   50.49    8.50
  12   1  -5   37.20    5.90
 -12  -1  -5   44.30    6.90
   1 -12  -5   62.99   10.50
  -1  12   5   35.60    6.00
   1 -12   5   32.30    5.50
  -1  12   5   52.09    8.10
  -1  12   5   54.99    9.50
   1 -12   5   30.60    6.70
  -1  12   5   46.80    9.10
   1 -12   5   38.60    5.50
   1 -12   5   49.40    7.30
 -12  -1   5   64.09   10.90
  12   1   5   49.99    8.10
  -1  12   5   59.59   12.20
   1  12  -5   46.00    8.10
   1  12  -5   51.59    9.10
   1  12  -5   61.89   11.30
  -1 -12  -5   59.09    7.20
  -1 -12  -5   48.60    7.60
 -12   1  -5   44.10    6.50
  -1 -12  -5   55.29   11.20
 -12   1  -5   33.80    6.80
   1  12  -5   46.30    7.20
  -1 -12   5   43.40    7.50
 -12   1   5   59.09    9.10
  -1 -12   5   37.40    5.20
  -1 -12   5   42.40    7.30
   1  12   5   40.10    8.60
   1  12   5   46.00    6.50
  -1 -12   5   50.59    7.30
 -12   1   5   46.70    8.40
   1  12   5   56.09    7.60
   1  12   5   52.09    9.00
  12  -1   5   38.50    6.10
   1  12   5   50.09   10.80
 -12   3  -5   54.79    8.50
  -3 -12  -5   98.29   16.10
  -3 -12  -5   72.09   11.40
   3  12  -5   65.49   10.60
   3  12  -5   59.79    9.10
  12  -3  -5   67.09   11.50
  -3 -12  -5   70.39   11.30
   3  12  -5   53.09    7.40
   3  12  -5   73.39    7.70
  -3 -12  -5   59.19    6.50
  -3 -12   5   50.29    9.80
  12  -3   5   51.59    9.20
   3  12   5   42.80    9.30
   3  12   5   70.79   12.80
 -12   3   5   70.09   10.20
  -3 -12   5   69.29   11.20
 -12   3   5   45.40    9.90
   3  12   5   50.99    9.00
  -3 -12   5   59.99    7.90
   0   0  -6  307.87   16.10
   0   0  -6  319.37   14.10
   0   0  -6  322.67   15.20
   0   0  -6  295.17   15.70
   0   0  -6  305.87   16.70
   0   0  -6  323.67   16.10
   0   0   6  312.87   14.30
   0   0   6  340.77   17.40
   0   0   6  315.87   14.90
   0   0   6  321.57   15.20
   0   0   6  303.57   15.50
   0   0   6  309.27   17.00
   1   1  -6   28.70    3.20
   1   1  -6   32.60    4.90
   1  -1  -6   27.50    4.70
   1  -1  -6   29.10    4.40
  -1   1  -6   32.50    4.50
   1   1  -6   33.70    5.20
  -1  -1  -6   28.40    4.80
  -1   1  -6   33.70    4.20
  -1   1  -6   25.00    4.10
   1   1  -6   33.00    4.80
  -1  -1  -6   27.80    4.40
   1   1  -6   25.10    4.20
  -1   1  -6   37.70    4.60
  -1  -1  -6   31.80    6.00
  -1   1  -6   23.50    4.40
   1  -1  -6   35.00    5.10
   1   1  -6   31.20    5.20
   1  -1  -6   33.00    4.50
  -1  -1  -6   31.60    4.40
  -1  -1  -6   27.50    5.10
   1   1  -6   31.90    5.30
  -1   1  -6   31.30    5.20
  -1   1   6   27.70    4.30
   1   1   6   32.10    3.50
   1   1   6   28.00    5.40
   1  -1   6   32.80    3.70
  -1   1   6   28.50    3.90
  -1  -1   6   30.40    4.50
  -1  -1   6   32.80    4.10
   1  -1   6   30.70    3.90
   1   1   6   35.10    4.90
   1   1   6   29.10    4.40
  -1   1   6   35.80    4.30
   1  -1   6   26.30    4.80
  -1  -1   6   26.40    4.00
   1   1   6   37.40    3.70
   1  -1   6   33.30    5.00
  -1  -1   6   34.60    4.90
   1  -1   6   33.30    4.50
  -1  -1   6   32.90    4.80
  -1   1   6   30.80    4.60
  -1   1   6   29.30    5.40
   1   1   6   27.90    4.70
   2   0  -6    7.30    2.90
   2   0  -6   11.30    3.10
   2   0  -6   14.30    3.70
  -2   0  -6    8.70    2.80
   0   2  -6    8.50    3.10
  -2   0  -6    6.00    3.10
   0  -2  -6   13.50    3.40
   2   0  -6    5.00    2.70
   2   0  -6    4.10    2.40
   0  -2  -6    7.60    2.90
   0   2  -6   12.60    2.70
   0  -2  -6    9.80    3.00
   0   2  -6    7.60    2.50
   0  -2  -6    6.40    2.50
  -2   0  -6   12.40    3.10
   0   2  -6   12.00    3.30
   0   2  -6   11.80    2.20
   0  -2  -6   11.90    3.00
  -2   0  -6   14.30    3.90
   0   2  -6   12.70    3.40
   0   2  -6   12.40    3.80
  -2   0  -6    9.60    3.00
   0  -2   6    8.30    3.20
   0  -2   6    5.00    2.40
   0  -2   6    6.30    3.10
   0  -2   6    5.90    2.00
   0  -2   6    3.90    2.40
   0   2   6    9.50    2.30
   0   2   6    5.60    2.30
   2   0   6   11.20    3.10
   0   2   6    8.40    3.60
  -2   0   6   13.10    3.00
  -2   0   6   11.80    3.10
   0   2   6    7.90    2.60
   0   2   6    7.90    3.10
   2   0   6    9.00    2.10
   2   0   6   12.70    2.10
   2   0   6    8.20    2.70
   2   0   6    8.50    3.10
  -2   0   6   12.60    2.90
   2   0   6    9.30    2.90
  -2   0   6    5.50    2.60
  -2   0   6   10.40    2.70
   2   0   6   10.20    2.70
   0  -2   6    8.60    3.00
   0   2   6    7.70    2.60
   2   2  -6  153.18    8.90
  -2  -2  -6  138.59    9.20
   2   2  -6  126.19    9.20
   2   2  -6  146.29   10.10
  -2   2  -6  160.68   10.80
  -2  -2  -6  144.99    9.50
  -2   2  -6  148.49    8.90
  -2   2  -6  144.09   10.00
  -2  -2  -6  141.99    9.00
   2   2  -6  139.89    9.50
  -2   2  -6  142.09    9.40
  -2  -2  -6  141.29    9.60
   2  -2  -6  151.88   10.50
   2  -2  -6  144.59   10.30
  -2   2  -6  142.39   10.10
   2   2  -6  140.69    6.70
  -2  -2  -6  151.28   10.60
   2  -2  -6  144.69    8.10
  -2   2  -6  143.09    9.00
   2  -2  -6  142.29    8.90
   2   2  -6  144.09    9.50
   2  -2  -6  132.29    9.20
   2   2  -6  156.38   10.30
   2   2   6  137.19   10.00
   2  -2   6  147.19    7.50
   2  -2   6  157.68    8.40
   2   2   6  136.99   10.50
   2   2   6  148.39    8.10
  -2   2   6  145.89    9.30
   2  -2   6  147.49   10.20
  -2  -2   6  135.59   10.80
  -2  -2   6  148.89    9.10
  -2  -2   6  144.59   10.60
  -2  -2   6  143.19    9.30
   2   2   6  140.09    9.20
  -2   2   6  141.99   10.40
   2  -2   6  147.09   10.10
  -2   2   6  143.49   10.90
   2   2   6  143.99    9.30
   2  -2   6  132.49    9.70
   2   2   6  151.48    7.70
   2  -2   6  145.79    9.00
  -2   2   6  146.09    8.90
  -2   2   6  152.38    7.10
   2   2   6  139.99    7.20
  -2  -2   6  152.08    9.40
  -2   2   6  146.39    9.40
  -2  -2   6  141.29    9.00
   3   1  -6  194.78   11.20
  -1   3  -6  189.98   12.20
  -1   3  -6  203.38   10.10
   3   1  -6  198.88   10.10
   1  -3  -6  178.18   12.00
   1  -3  -6  190.68   12.50
   1  -3  -6  188.48   10.50
  -3  -1  -6  181.38   11.00
  -1   3  -6  178.68   11.80
  -3  -1  -6  176.08   11.20
  -3  -1  -6  190.78   11.60
  -1   3  -6  191.98   10.00
   1  -3  -6  191.68    9.90
  -1   3  -6  196.28   10.50
  -3  -1  -6  183.68   12.40
  -3  -1  -6  188.28   11.10
   3   1  -6  186.58   11.50
   3   1  -6  185.88   12.00
  -1   3  -6  192.38   11.40
   3   1  -6  196.28   11.80
   3   1  -6  173.58   11.10
   1  -3  -6  174.28   10.90
  -1   3  -6  194.78   12.20
   1  -3   6  185.88    9.40
   3   1   6  187.48    8.10
  -1   3   6  188.58    9.90
  -1   3   6  206.68   11.00
   1  -3   6  189.48   11.80
   3   1   6  191.08   10.80
   3   1   6  176.48   11.60
  -3  -1   6  185.88   11.00
  -3  -1   6  186.28   11.00
  -1   3   6  191.28   11.00
   3   1   6  204.28    9.60
   1  -3   6  210.98   10.60
  -3  -1   6  185.08   11.00
   1  -3   6  178.98   12.00
   1  -3   6  202.28   12.30
  -3  -1   6  180.58   12.80
  -1   3   6  180.18   11.90
  -1   3   6  185.58   11.20
   3   1   6  184.08   11.30
   3   1   6  195.58    8.30
   3   1   6  195.38   12.30
   1  -3   6  193.98   10.80
  -3  -1   6  194.38   10.00
  -1  -3  -6  181.28   11.10
   1   3  -6  189.88   11.80
  -1  -3  -6  189.68   12.60
  -3   1  -6  191.58   11.50
   1   3  -6  191.88   11.10
   3  -1  -6  187.98   10.70
   1   3  -6  187.98   11.80
  -3   1  -6  192.88   11.00
  -1  -3  -6  198.38   11.40
  -3   1  -6  194.38   12.10
   1   3  -6  197.88   12.10
   3  -1  -6  202.48   12.20
  -3   1  -6  189.48   10.80
   1   3  -6  199.58   11.70
  -3   1  -6  188.68   11.80
   3  -1  -6  194.58   11.90
  -3   1  -6  178.58   12.20
   1   3  -6  187.48   10.90
   3  -1  -6  189.48   10.70
   3  -1  -6  201.98   12.10
  -1  -3  -6  197.78   10.70
   3  -1  -6  176.48   11.20
   1   3  -6  191.08    9.20
  -1  -3  -6  197.18   12.00
  -3   1   6  198.18   11.60
  -1  -3   6  193.48   10.40
   1   3   6  198.18   10.30
  -1  -3   6  182.38   12.50
   1   3   6  193.38   10.00
  -1  -3   6  191.28   11.40
   1   3   6  210.38   11.30
   3  -1   6  183.48   11.80
  -3   1   6  202.08    8.80
  -1  -3   6  201.98   12.10
   1   3   6  195.88   11.40
   1   3   6  198.88    9.80
   3  -1   6  198.88    8.80
  -3   1   6  188.28   11.10
   3  -1   6  194.08   11.00
   1   3   6  201.18   10.50
  -1  -3   6  186.78   10.90
   3  -1   6  189.08   12.20
   3  -1   6  205.18    9.60
  -1  -3   6  199.18   10.90
  -3   1   6  186.68   12.60
  -3   1   6  176.08   10.60
   3  -1   6  183.48   11.90
   1   3   6  195.88   12.10
   3  -3  -6  447.76   19.50
   3   3  -6  443.86   19.60
  -3  -3  -6  454.05   20.70
   3   3  -6  454.45   22.40
   3  -3  -6  440.06   21.70
   3   3  -6  466.85   21.00
  -3   3  -6  459.05   19.50
  -3   3  -6  416.46   21.00
  -3  -3  -6  447.86   22.40
   3   3  -6  421.06   21.00
   3  -3  -6  457.15   22.20
   3   3  -6  439.16   17.00
   3   3  -6  464.05   21.60
  -3   3  -6  457.75   20.40
   3   3  -6  443.76   21.30
  -3   3  -6  408.56   21.90
  -3  -3  -6  468.75   21.30
  -3  -3  -6  464.05   21.50
  -3  -3  -6  434.46   20.60
  -3   3  -6  480.95   22.10
  -3   3  -6  470.85   22.10
   3  -3  -6  418.66   20.80
  -3   3   6  433.36   20.20
  -3   3   6  450.25   21.10
  -3  -3   6  455.65   20.20
   3   3   6  468.55   22.70
   3  -3   6  448.86   20.30
  -3  -3   6  438.16   21.00
  -3  -3   6  463.35   20.70
   3   3   6  452.75   18.70
   3   3   6  419.56   22.00
   3  -3   6  455.25   21.40
  -3   3   6  450.25   21.30
   3   3   6  474.85   19.00
   3  -3   6  452.65   18.40
  -3  -3   6  427.76   23.30
   3  -3   6  434.46   21.60
   3  -3   6  435.56   22.40
   3   3   6  454.25   17.10
  -3  -3   6  460.25   21.90
   3   3   6  445.56   20.60
   3   3   6  455.45   20.80
  -3   3   6  430.76   22.20
  -3  -3   6  463.85   20.80
   3   3   6  464.95   21.50
  -2   4  -6  233.08   12.20
   2  -4  -6  216.28   12.70
  -2   4  -6  218.18   14.00
  -4  -2  -6  226.28   12.80
   4   2  -6  248.08   13.50
  -2   4  -6  245.38   11.70
  -4  -2  -6  230.68   13.40
  -4  -2  -6  235.88   13.20
  -2   4  -6  256.77   14.40
  -4  -2  -6  235.08   13.20
  -2   4  -6  221.08   13.10
   2  -4  -6  233.88   11.80
  -4  -2  -6  222.58   14.00
   2  -4  -6  238.08   11.40
   4   2  -6  254.17   13.60
   2  -4  -6  219.88   14.20
  -2   4  -6  229.28   11.20
   2  -4  -6  250.57   14.40
  -2   4  -6  222.68   13.70
   4   2  -6  219.08   13.00
   4   2  -6  220.88   12.90
   4   2  -6  242.58   14.80
  -4  -2   6  220.08   15.00
   4   2   6  246.38   10.00
   2  -4   6  224.28   12.30
  -4  -2   6  237.18   12.50
   4   2   6  236.28   14.00
   2  -4   6  241.38   11.20
  -2   4   6  237.38   15.00
   4   2   6  214.18   13.60
   4   2   6  231.88   13.40
   2  -4   6  227.88   13.70
  -2   4   6  214.08   13.50
  -4  -2   6  239.08   11.90
  -2   4   6  241.98   13.00
   2  -4   6  243.68   11.90
   2  -4   6  233.78   13.20
  -2   4   6  231.08   12.90
   2  -4   6  221.18   14.10
  -4  -2   6  213.48   12.70
  -2   4   6  225.48   11.00
  -2   4   6  236.68   13.20
   4   2   6  231.68   12.60
  -4  -2   6  242.18   14.20
  -4  -2   6  222.58   13.10
   0   4  -6  303.07   15.90
   4   0  -6  292.37   15.40
   0   4  -6  295.67   15.00
   0   4  -6  276.37   15.70
   0   4  -6  299.57   15.20
  -4   0  -6  284.57   14.50
  -4   0  -6  280.77   14.90
   0  -4  -6  284.17   14.90
   0   4  -6  287.87   16.10
  -4   0  -6  292.27   15.90
   4   0  -6  275.37   15.00
   0  -4  -6  282.67   15.90
   0  -4  -6  279.07   14.30
   0   4  -6  287.27   13.40
   4   0  -6  284.77   16.20
  -4   0  -6  326.27   16.60
   0  -4  -6  284.67   16.30
   0  -4  -6  293.27   13.90
  -4   0  -6  279.77   15.50
   0   4  -6  305.87   14.10
   4   0  -6  283.97   14.50
   4   0  -6  290.07   15.90
   0   4   6  300.37   14.20
  -4   0   6  297.57   12.60
   0  -4   6  295.17   13.80
   0   4   6  298.17   14.40
   0   4   6  294.57   14.30
   4   0   6  287.37   16.10
   0  -4   6  305.87   15.90
   0   4   6  291.87   16.70
   0  -4   6  260.67   15.80
   0   4   6  289.97   14.00
  -4   0   6  290.77   14.90
   0  -4   6  289.27   15.80
  -4   0   6  285.17   16.10
  -4   0   6  256.97   16.60
   4   0   6  290.67   11.50
   4   0   6  288.67   16.10
   0  -4   6  307.17   15.00
   0   4   6  279.67   15.00
   4   0   6  287.67   14.50
  -4   0   6  278.07   15.20
   0  -4   6  293.87   14.50
   4   0   6  292.17   15.90
   0   4   6  295.07   15.80
  -4   0   6  258.07   14.50
   2   4  -6  240.98   14.50
  -2  -4  -6  238.58   13.00
   4  -2  -6  233.98   12.00
  -4   2  -6  235.28   14.00
   2   4  -6  243.78   13.80
  -2  -4  -6  232.08   12.40
  -2  -4  -6  249.38   13.40
  -2  -4  -6  243.08   14.80
  -4   2  -6  231.88   14.00
  -4   2  -6  227.48   14.00
   4  -2  -6  245.58   13.90
   2   4  -6  223.88   10.50
   2   4  -6  220.78   13.30
  -2  -4  -6  251.67   14.30
   4  -2  -6  199.78   12.60
   2   4  -6  233.18   12.60
   2   4  -6  239.38   12.70
   4  -2  -6  233.78   14.00
  -4   2  -6  239.48   13.20
   2   4  -6  249.38   13.90
  -4   2  -6  208.38   12.70
  -4   2  -6  250.17   12.20
  -2  -4   6  236.58   13.20
  -4   2   6  217.58   14.10
   4  -2   6  240.38   13.40
  -2  -4   6  246.68   12.50
  -2  -4   6  254.47   14.20
   4  -2   6  235.58   10.40
  -4   2   6  239.68   13.80
  -2  -4   6  236.28   15.00
  -4   2   6  232.48   13.10
   2   4   6  242.08   11.70
   2   4   6  241.48   11.80
  -2  -4   6  227.18   13.30
   2   4   6  236.98   13.00
   2   4   6  239.88   10.80
   2   4   6  238.38   14.10
  -2  -4   6  239.78   12.40
   4  -2   6  211.68   13.30
   2   4   6  248.98   13.60
   4  -2   6  244.48   14.90
   2   4   6  252.07   14.90
  -4   2   6  217.48   12.40
   4  -2   6  233.58   12.60
  -4   4  -6  168.28   12.00
   4   4  -6  202.08   12.30
  -4  -4  -6  206.68   12.70
  -4   4  -6  191.48   11.50
   4   4  -6  194.58   11.80
   4   4  -6  221.68   11.90
   4  -4  -6  186.48   12.60
  -4   4  -6  170.58   11.40
  -4  -4  -6  188.08   11.10
  -4  -4  -6  181.08   11.10
   4   4  -6  175.38   11.40
  -4  -4  -6  200.68   13.70
   4  -4  -6  200.48    9.90
   4   4  -6  188.88   13.40
  -4  -4  -6  202.38   12.00
   4  -4  -6  172.88   11.80
  -4   4  -6  177.28   12.30
   4   4  -6  188.68    7.90
  -4   4  -6  190.08   12.80
   4  -4  -6  180.88   11.10
  -4   4  -6  182.98    9.50
  -4   4   6  194.18   12.50
  -4  -4   6  195.18   11.60
  -4  -4   6  200.58   10.80
   4   4   6  190.58   11.60
   4  -4   6  174.38   11.60
  -4   4   6  201.48   12.70
  -4   4   6  191.78   11.80
   4  -4   6  184.78   13.30
  -4  -4   6  193.48   11.90
  -4   4   6  195.18   13.60
   4   4   6  169.68   12.00
   4   4   6  195.68   11.50
   4   4   6  188.48    9.80
  -4   4   6  177.48   10.70
   4  -4   6  186.78   11.50
  -4  -4   6  167.78   13.10
   4   4   6  202.58   12.90
  -4  -4   6  183.28   12.30
   4  -4   6  178.38   10.80
   4  -4   6  199.48    9.30
  -5  -3  -6  460.15   23.60
  -3   5  -6  472.15   22.90
  -3   5  -6  475.95   23.10
   5   3  -6  447.16   21.90
   3  -5  -6  463.15   19.60
  -5  -3  -6  455.75   21.50
  -5  -3  -6  498.55   22.80
  -5  -3  -6  477.65   22.60
  -3   5  -6  493.45   19.20
  -3   5  -6  501.75   21.60
  -3   5  -6  461.35   22.40
  -3   5  -6  425.36   23.20
   5   3  -6  457.85   22.10
   3  -5  -6  484.55   23.40
   5   3  -6  398.56   21.20
   5   3  -6  478.25   22.20
   5   3  -6  462.05   24.30
  -5  -3  -6  470.65   21.90
   3  -5  -6  466.95   21.70
   3  -5  -6  461.25   23.40
   3  -5   6  487.45   22.10
  -3   5   6  454.35   19.50
   3  -5   6  470.85   21.10
   3  -5   6  475.95   19.70
   5   3   6  466.85   23.20
  -3   5   6  470.35   22.40
  -5  -3   6  484.35   21.20
  -5  -3   6  442.46   24.70
  -5  -3   6  475.05   21.00
  -3   5   6  492.05   23.00
   3  -5   6  472.65   24.50
  -5  -3   6  495.35   23.00
  -5  -3   6  490.45   22.50
   5   3   6  452.25   22.30
  -3   5   6  469.65   22.50
   3  -5   6  459.95   22.40
  -3   5   6  448.76   21.00
  -3   5   6  446.86   22.30
   5   3   6  507.45   23.60
  -5  -3   6  433.96   22.00
   5   3   6  458.05   23.50
  -3   5   6  448.46   23.50
   5   3   6  486.65   21.50
   5   3   6  510.65   18.80
  -5  -1  -6  260.77   15.40
   5   1  -6  252.37   14.60
   1  -5  -6  241.88   13.50
   1  -5  -6  272.87   12.60
   1  -5  -6  214.48   14.50
  -1   5  -6  210.88   14.20
  -1   5  -6  227.48   14.60
  -1   5  -6  257.77   14.30
  -5  -1  -6  250.37   13.70
   5   1  -6  249.88   13.80
  -1   5  -6  277.57   13.90
   1  -5  -6  270.57   10.70
  -1   5  -6  268.97   15.20
   5   1  -6  264.37   14.10
  -1   5  -6  266.37   12.90
  -5  -1  -6  252.27   14.50
   5   1  -6  242.58   15.40
  -5  -1  -6  248.38   14.00
   5   1  -6  240.18   13.40
  -1   5  -6  266.97   12.40
   1  -5  -6  264.47   12.70
   1  -5  -6  258.47   15.40
  -5  -1  -6  251.67   13.80
  -1   5   6  245.88   14.20
  -5  -1   6  247.58   16.20
  -5  -1   6  269.77   12.00
   5   1   6  240.88   14.90
  -1   5   6  260.37   13.20
   1  -5   6  257.27   12.50
  -1   5   6  250.17   12.90
  -5  -1   6  273.27   15.20
   1  -5   6  237.58   14.60
  -1   5   6  251.47   13.60
   1  -5   6  258.47   14.10
   5   1   6  260.77   14.70
   1  -5   6  267.77   13.30
   1  -5   6  244.58   15.00
   1  -5   6  256.77   13.20
  -1   5   6  263.17   13.90
   5   1   6  268.27   13.60
  -1   5   6  258.67   15.70
  -1   5   6  248.88   14.20
  -5  -1   6  252.57   13.50
  -5  -1   6  243.08   13.70
  -5  -1   6  251.37   14.50
   5   1   6  248.88   14.80
   5  -1  -6  267.57   14.20
   5  -1  -6  242.28   12.80
  -5   1  -6  258.87   12.90
   1   5  -6  245.38   14.40
  -1  -5  -6  264.07   13.00
   1   5  -6  237.08   14.20
   1   5  -6  250.27   14.60
   1   5  -6  267.57   14.90
   5  -1  -6  239.18   14.80
  -1  -5  -6  254.67   15.70
   5  -1  -6  222.58   14.70
   1   5  -6  267.37   14.10
   1   5  -6  263.87   12.00
  -5   1  -6  257.87   14.70
   5  -1  -6  239.18   13.70
  -5   1  -6  257.17   15.00
  -5   1  -6  217.48   14.40
  -1  -5  -6  258.27   13.10
  -1  -5  -6  250.77   13.50
  -1  -5  -6  208.08   14.30
   1   5  -6  257.37   12.80
  -5   1  -6  243.38   13.70
  -1  -5   6  245.78   14.60
  -5   1   6  250.87   13.80
   5  -1   6  268.27   10.40
  -1  -5   6  248.78   15.40
   5  -1   6  242.78   14.60
   1   5   6  275.97   14.20
   1   5   6  258.27   15.70
   1   5   6  256.57   13.10
   1   5   6  260.27   12.60
  -5   1   6  241.48   13.40
  -1  -5   6  251.87   12.80
  -5   1   6  250.97   14.60
   1   5   6  261.57   14.80
   1   5   6  252.07   13.80
   5  -1   6  259.27   14.00
  -1  -5   6  260.77   13.80
   5  -1   6  246.28   15.20
   5  -1   6  255.87   13.40
  -1  -5   6  259.07   14.50
   1   5   6  271.57   12.70
  -5   1   6  239.48   15.50
  -1  -5   6  258.97   13.00
  -5   3  -6  517.05   20.50
   3   5  -6  448.76   22.20
  -3  -5  -6  484.95   21.50
  -3  -5  -6  448.46   21.20
  -3  -5  -6  463.95   21.80
   3   5  -6  435.56   23.60
   3   5  -6  495.55   22.70
   3   5  -6  471.85   21.40
  -3  -5  -6  475.45   23.20
   5  -3  -6  464.15   22.00
   3   5  -6  489.55   21.60
  -5   3  -6  453.75   23.20
  -5   3  -6  503.35   22.80
   5  -3  -6  491.05   23.50
   5  -3  -6  482.35   22.40
   3   5  -6  463.25   22.80
  -3  -5  -6  478.05   24.10
  -5   3  -6  478.25   23.00
  -5   3  -6  480.75   23.10
   3   5  -6  455.25   19.00
  -5   3  -6  439.86   22.10
   5  -3  -6  478.85   20.20
   3   5   6  505.55   18.50
   3   5   6  479.65   24.30
   3   5   6  443.76   22.90
  -5   3   6  466.35   22.20
  -3  -5   6  488.75   22.70
  -3  -5   6  481.25   20.80
   5  -3   6  468.85   24.60
  -5   3   6  473.45   23.20
   5  -3   6  499.15   19.10
   3   5   6  509.65   20.30
   5  -3   6  462.05   22.90
  -5   3   6  443.46   21.40
  -3  -5   6  399.86   21.10
  -3  -5   6  442.36   24.60
  -5   3   6  468.15   23.70
  -3  -5   6  464.05   22.60
   3   5   6  484.75   20.80
   5  -3   6  496.65   21.50
   3   5   6  454.85   22.70
   5  -3   6  484.05   21.80
  -3  -5   6  465.65   22.60
   3   5   6  476.85   21.70
   5   5  -6  469.15   18.40
   5   5  -6  462.75   25.40
  -5   5  -6  481.15   18.40
  -5   5  -6  473.15   23.50
  -5   5  -6  483.25   23.30
   5   5  -6  430.66   21.80
  -5   5  -6  500.95   22.60
   5   5  -6  498.35   23.10
  -5  -5  -6  442.96   21.60
   5  -5  -6  478.05   22.90
  -5  -5  -6  480.15   24.50
   5   5  -6  489.05   22.50
  -5   5  -6  453.95   22.50
  -5  -5  -6  393.36   21.90
   5  -5  -6  484.05   19.30
  -5  -5  -6  460.35   23.40
  -5  -5  -6  482.85   21.70
   5  -5  -6  474.95   24.10
   5   5   6  502.65   24.70
  -5  -5   6  484.25   20.90
  -5   5   6  466.75   22.90
   5  -5   6  499.65   22.00
   5   5   6  496.65   20.60
   5  -5   6  444.16   24.70
   5  -5   6  485.75   21.60
  -5  -5   6  500.85   23.10
  -5  -5   6  467.65   22.30
  -5   5   6  465.45   21.60
  -5   5   6  464.65   23.10
   5  -5   6  457.85   22.50
   5   5   6  456.45   21.20
  -5   5   6  483.35   23.80
   5   5   6  496.65   24.30
  -5  -5   6  445.26   22.70
  -5  -5   6  479.55   22.80
   5  -5   6  495.65   20.00
   4  -6  -6  105.09    9.60
  -4   6  -6   86.19    8.10
  -4   6  -6   85.19    8.40
   4  -6  -6  103.09    9.90
  -6  -4  -6  111.69    8.80
  -6  -4  -6   85.39    7.70
   6   4  -6   97.39    8.80
   6   4  -6   90.89   10.30
  -6  -4  -6  114.79    9.10
  -6  -4  -6   87.19   10.80
  -4   6  -6   93.79   10.00
   6   4  -6   89.29    8.60
   6   4  -6   90.19    7.40
  -6  -4  -6   86.29    7.30
   4  -6  -6   95.19    5.90
   6   4  -6  102.69    8.30
  -4   6  -6  106.19    9.70
   4  -6   6   94.09    8.00
   6   4   6   97.79    8.60
   6   4   6   91.09   10.20
   6   4   6  105.39    6.60
  -6  -4   6   98.89    7.80
  -6  -4   6  100.89    9.50
  -6  -4   6   94.09    7.90
  -4   6   6  102.69   10.70
  -4   6   6   96.69    8.50
   6   4   6  100.69    9.90
  -4   6   6   90.89    8.30
   4  -6   6   91.99    7.70
  -6  -4   6   90.09    8.40
   4  -6   6  104.59    6.80
  -4   6   6   94.29    7.20
   4  -6   6   76.69    8.80
  -4   6   6  100.39    7.30
   4  -6   6  108.59    8.10
  -6  -4   6   89.69    8.00
  -4   6   6   84.19    9.00
   6   4   6   97.89    7.60
  -4   6   6   92.79    8.90
   2  -6  -6  187.98   13.10
   6   2  -6  185.38   11.60
  -2   6  -6  176.88   12.40
  -2   6  -6  189.78   12.00
   2  -6  -6  186.78   11.10
   6   2  -6  187.88   13.80
   6   2  -6  174.38   11.10
  -6  -2  -6  176.78   11.40
  -2   6  -6  184.48   12.70
  -2   6  -6  190.68   11.20
  -6  -2  -6  180.48   11.20
  -2   6  -6  208.78   11.40
   6   2  -6  199.98   12.60
  -2   6  -6  206.28   13.00
   6   2  -6  183.18   11.10
  -6  -2  -6  181.78   13.20
  -6  -2  -6  176.28   11.80
   2  -6  -6  184.88    9.70
   2  -6  -6  211.28   13.30
  -6  -2  -6  184.68   12.30
   2  -6   6  194.88   10.20
   6   2   6  183.38   12.10
  -2   6   6  183.48   11.70
  -6  -2   6  200.08   12.40
   2  -6   6  182.68   10.80
   2  -6   6  185.18   12.00
   2  -6   6  213.28   12.00
   6   2   6  183.08   12.60
  -6  -2   6  178.68   11.50
   6   2   6  191.28   12.80
  -6  -2   6  194.28   10.40
  -2   6   6  193.88   13.80
  -2   6   6  180.78   11.70
  -6  -2   6  181.58   13.90
  -2   6   6  200.08   11.90
  -2   6   6  185.58   11.70
   2  -6   6  176.58   13.00
   6   2   6  197.58   11.30
  -6  -2   6  197.18   11.30
  -2   6   6  184.18   10.70
  -2   6   6  203.58   11.00
   0  -6  -6  420.16   16.50
   6   0  -6  373.06   20.00
   0   6  -6  412.26   17.90
   0  -6  -6  396.96   18.00
   6   0  -6  390.06   18.30
  -6   0  -6  386.06   19.80
   0   6  -6  405.86   20.30
   0  -6  -6  396.56   21.30
   0  -6  -6  376.76   18.60
   0   6  -6  393.96   19.70
  -6   0  -6  374.76   19.20
   0   6  -6  415.66   20.20
   0   6  -6  370.76   20.20
  -6   0  -6  386.16   20.00
   0   6  -6  414.46   20.00
   0  -6  -6  407.16   17.90
   0  -6  -6  424.16   21.00
   6   0  -6  398.16   18.70
  -6   0  -6  399.76   18.60
   6   0  -6  359.56   18.80
   6   0  -6  380.56   21.30
   6   0   6  404.26   19.60
   6   0   6  414.76   18.70
   0   6   6  378.36   17.90
   0  -6   6  421.36   18.30
  -6   0   6  397.16   19.00
   0  -6   6  390.76   20.70
   0  -6   6  406.46   19.60
   0   6   6  416.66   18.70
   0   6   6  395.96   19.10
   6   0   6  369.06   20.80
   0   6   6  372.26   18.80
   0   6   6  380.86   19.40
   0   6   6  383.96   21.20
   6   0   6  377.56   20.30
   0   6   6  394.96   19.90
  -6   0   6  401.16   20.20
   0  -6   6  387.76   20.70
  -6   0   6  355.76   21.40
   0  -6   6  435.16   19.30
  -6   0   6  376.46   18.80
   0  -6   6  392.66   17.90
  -6   2  -6  176.78   11.40
   2   6  -6  201.58   12.90
   2   6  -6  183.08   12.00
  -2  -6  -6  196.78   13.90
  -6   2  -6  198.58   12.80
  -6   2  -6  181.98   12.60
  -2  -6  -6  199.68   11.10
   6  -2  -6  186.18   11.20
   6  -2  -6  174.68   12.60
  -6   2  -6  197.88   10.60
  -2  -6  -6  202.78   11.30
  -2  -6  -6  186.48   12.50
   6  -2  -6  177.18   11.00
  -2  -6  -6  184.98   10.80
   2   6  -6  189.78    9.60
  -6   2  -6  188.28   12.40
   2   6  -6  208.18   12.30
   2   6  -6  191.88   12.40
   2   6  -6  177.48   13.30
   6  -2  -6  185.58   13.20
   6  -2  -6  185.68   10.30
   2   6   6  185.98   10.90
  -2  -6   6  186.78   12.30
   2   6   6  180.68   12.90
  -6   2   6  180.88   12.90
   6  -2   6  194.48    8.50
  -2  -6   6  194.88   10.50
   6  -2   6  174.98   13.20
   6  -2   6  199.78   11.10
   6  -2   6  199.38   11.30
   2   6   6  181.18   11.70
   2   6   6  196.28   10.00
  -2  -6   6  178.38   12.90
   2   6   6  177.48   13.10
   2   6   6  183.98   12.30
  -2  -6   6  180.98   11.80
  -6   2   6  188.18   11.20
  -2  -6   6  187.58   10.80
  -2  -6   6  183.88   12.40
   2   6   6  193.58   10.30
   6  -2   6  183.48   11.90
  -6   2   6  191.68   11.80
  -6   2   6  173.28   12.90
  -4  -6  -6  109.29   11.40
  -6   4  -6   99.39    9.80
   6  -4  -6  118.09    6.60
   4   6  -6  116.99    9.50
  -4  -6  -6   99.29    7.50
   4   6  -6   97.59    6.20
  -4  -6  -6   96.29    7.40
  -6   4  -6   97.09    8.90
   6  -4  -6  103.69    7.70
  -4  -6  -6  110.29    8.70
   4   6  -6  106.09    8.90
  -4  -6  -6  102.19    9.70
   4   6  -6   87.69    8.10
   4   6  -6   80.89   10.00
   6  -4  -6  114.19   10.50
  -6   4  -6  102.49    6.40
   6  -4  -6   99.69    8.30
   4   6   6   85.99    9.90
  -4  -6   6   82.69    8.20
  -6   4   6   96.89    9.20
   6  -4   6  101.09    7.70
  -6   4   6  103.39    9.70
   4   6   6   98.69    8.10
   4   6   6  101.29    7.60
   4   6   6   87.79    8.30
  -4  -6   6  111.09    7.80
  -6   4   6  109.69    9.20
   4   6   6   90.39   10.70
   6  -4   6  103.89    8.30
  -4  -6   6   94.99    9.40
  -4  -6   6  109.59    9.60
   6  -4   6  113.89    6.40
  -4  -6   6   94.29    8.70
  -4  -6   6  101.39    8.10
   6  -4   6   88.69    8.10
  -6  -6  -6   12.50    3.30
   6  -6  -6   19.50    3.80
   6   6  -6   10.90    3.20
  -6  -6  -6   16.60    4.30
  -6   6  -6   15.60    5.40
   6   6  -6   10.90    3.50
   6   6  -6    8.90    3.90
   6  -6  -6   14.10    2.20
   6  -6  -6   14.30    5.00
  -6   6  -6   13.90    5.50
  -6   6  -6   17.40    4.80
   6  -6  -6   13.60    3.70
  -6  -6  -6   14.30    3.60
   6   6  -6   17.70    2.90
  -6  -6  -6   14.60    5.20
  -6  -6  -6   12.50    6.00
  -6  -6   6   13.00    3.40
   6  -6   6   15.70    3.10
  -6  -6   6    3.90    5.20
  -6   6   6   16.20    4.80
  -6   6   6    8.50    4.80
   6  -6   6   22.40    4.60
  -6  -6   6   18.60    4.50
   6   6   6   14.00    3.80
  -6   6   6   20.10    3.20
   6  -6   6   12.30    3.70
   6   6   6   19.20    5.40
   6  -6   6   12.30    3.90
  -6   6   6   13.00    4.20
  -6  -6   6    9.80    4.00
   6   6   6   20.00    4.10
   6   6   6   11.50    5.50
   5  -7  -6  132.09   11.00
  -5   7  -6  139.79   10.50
   7   5  -6  141.29   11.20
  -7  -5  -6  137.49   13.70
   7   5  -6  137.79    9.70
  -5   7  -6  147.89   12.30
  -7  -5  -6  126.09    9.00
  -7  -5  -6  144.59   11.30
   7   5  -6  124.49    9.00
  -5   7  -6  152.58   11.90
   5  -7  -6  127.59   11.40
  -7  -5  -6  129.29   11.10
  -7  -5   6  138.69   10.20
   7   5   6  122.99   13.00
  -7  -5   6  148.99   12.40
   7   5   6  130.59    9.20
  -7  -5   6  142.59    9.00
   5  -7   6  137.99    9.80
   7   5   6  130.89   11.60
  -5   7   6  136.19   10.90
   7   5   6  140.09    8.80
   5  -7   6  127.69    9.70
   5  -7   6  124.89    9.30
   5  -7   6  132.09    8.50
  -5   7   6  124.29    9.70
  -5   7   6  144.29   11.70
  -5   7   6  139.19   14.30
  -7  -5   6  126.79   10.30
  -5   7   6  138.39    9.30
   7   3  -6  196.58   13.00
   7   3  -6  192.58   11.20
  -7  -3  -6  194.28   12.80
   3  -7  -6  180.38   13.80
  -3   7  -6  195.58   11.40
  -3   7  -6  189.28   11.80
  -7  -3  -6  190.88   11.80
  -3   7  -6  201.28   13.40
   7   3  -6  177.58   11.20
  -3   7  -6  196.88   13.60
   3  -7  -6  189.58    8.90
  -7  -3  -6  167.38   13.80
   3  -7  -6  179.18   13.50
  -7  -3  -6  203.18   12.70
  -3   7  -6  182.38   12.40
   7   3  -6  189.98   12.30
  -7  -3   6  192.68   11.30
  -3   7   6  183.58   14.60
   7   3   6  175.58   12.80
   3  -7   6  195.98   11.50
   7   3   6  195.38   11.00
   3  -7   6  195.48   10.50
   7   3   6  185.98   14.30
  -7  -3   6  190.98   13.00
  -3   7   6  184.48   11.60
  -3   7   6  183.68   12.60
   3  -7   6  201.38   11.90
  -3   7   6  188.58   12.60
  -3   7   6  181.98   10.80
   3  -7   6  185.88   11.60
  -3   7   6  193.08   12.10
  -3   7   6  189.68   12.20
   7   3   6  198.88   12.80
  -7  -3   6  193.18   11.10
   7   1  -6  252.97   13.20
   1  -7  -6  242.68   11.50
   1  -7  -6  214.68   15.40
  -7  -1  -6  236.48   14.40
   7   1  -6  256.67   12.90
   1  -7  -6  219.58   14.60
   7   1  -6  252.17   14.80
  -7  -1  -6  230.78   13.30
  -1   7  -6  216.68   14.30
   7   1  -6  234.48   16.00
  -1   7  -6  237.38   14.60
   7   1  -6  209.98   12.60
  -1   7  -6  230.88   14.10
  -1   7  -6  239.58   12.80
   1  -7  -6  228.88   12.70
  -1   7  -6  247.68   14.80
  -7  -1  -6  219.28   13.50
  -1   7  -6  234.58   14.00
   7   1  -6  235.28   13.10
   1  -7  -6  235.88   10.40
   1  -7   6  215.18   14.80
  -7  -1   6  240.98   11.40
   1  -7   6  243.58   13.80
   7   1   6  242.78   13.60
  -1   7   6  234.48   16.00
   7   1   6  222.08   12.70
  -1   7   6  228.78   12.30
  -1   7   6  237.98   13.60
   1  -7   6  209.48   13.60
  -7  -1   6  243.78   13.00
   1  -7   6  237.38   12.20
  -1   7   6  225.38   13.70
  -7  -1   6  214.08   14.30
   1  -7   6  234.38   12.60
  -1   7   6  225.28   13.60
   1  -7   6  226.28   14.10
   7   1   6  215.78   14.60
  -1   7   6  237.68   13.50
  -1   7   6  229.58   13.70
   1   7  -6  245.98   15.10
  -7   1  -6  223.98   13.90
   7  -1  -6  236.28   12.60
   7  -1  -6  232.98   12.40
  -1  -7  -6  237.78   12.50
   1   7  -6  246.78   14.60
  -1  -7  -6  234.68   16.10
  -1  -7  -6  234.68   12.80
   7  -1  -6  225.18   12.90
   1   7  -6  227.28   13.70
   7  -1  -6  238.78   15.60
   1   7  -6  240.58   14.50
   1   7  -6  235.08   12.30
  -7   1  -6  244.08   12.60
  -7   1  -6  225.68   14.20
   1   7  -6  214.28   14.00
   7  -1  -6  250.07   14.90
  -1  -7  -6  231.98   15.00
  -1  -7  -6  231.68   11.40
  -1  -7  -6  231.08   12.50
   7  -1  -6  247.28   12.90
  -1  -7   6  248.28   14.20
  -7   1   6  220.28   13.40
   7  -1   6  231.98   12.30
   1   7   6  248.38   12.80
  -1  -7   6  229.38   13.70
   7  -1   6  244.48   13.00
   7  -1   6  214.48   14.90
   7  -1   6  237.68   13.10
   1   7   6  225.78   13.20
  -7   1   6  224.78   15.60
   1   7   6  242.48   14.60
   1   7   6  248.18   12.40
  -1  -7   6  231.08   14.90
   1   7   6  260.97   16.50
   1   7   6  239.48   14.10
  -1  -7   6  225.48   12.30
  -7   1   6  227.98   14.70
  -1  -7   6  246.48   12.40
   7  -1   6  225.08   14.50
  -1  -7   6  228.78   14.90
   1   7   6  243.78   13.70
  -3  -7  -6  166.88   13.20
   7  -3  -6  196.18   14.10
   3   7  -6  171.98   12.80
   3   7  -6  199.08   14.40
  -7   3  -6  178.78   12.90
  -7   3  -6  177.58   12.80
  -7   3  -6  199.88   10.30
  -3  -7  -6  199.78   14.70
  -3  -7  -6  180.08   10.60
   7  -3  -6  197.18   10.70
  -3  -7  -6  173.38   11.10
   7  -3  -6  178.58   10.80
  -3  -7  -6  186.68   10.60
   3   7  -6  176.28   12.10
   7  -3  -6  190.58   10.10
  -3  -7  -6  205.28   11.90
   3   7  -6  194.58   10.00
   3   7  -6  184.38   13.00
   7  -3   6  198.48    9.10
   3   7   6  211.38   11.70
  -3  -7   6  190.58   12.60
  -3  -7   6  179.38   12.70
   7  -3   6  195.08   11.00
  -7   3   6  181.88   12.60
   3   7   6  193.78   12.70
  -3  -7   6  194.68   12.70
   3   7   6  185.88   11.50
   7  -3   6  182.28   11.30
   3   7   6  180.98   14.10
  -7   3   6  199.08   13.70
  -3  -7   6  182.18   11.00
  -3  -7   6  194.48   10.50
   3   7   6  186.98    9.70
  -3  -7   6  192.78   13.60
   7  -3   6  182.28   11.20
   3   7   6  186.18   14.00
  -7   3   6  185.88   13.20
   7  -3   6  175.88   12.10
   3   7   6  193.58   11.80
   7  -5  -6  137.49    9.70
   7  -5  -6  124.89   11.90
   5   7  -6  137.79    8.20
  -7   5  -6  145.29   11.80
   7  -5  -6  139.29    8.60
  -5  -7  -6  121.99    9.20
  -5  -7  -6  133.49    8.60
   5   7  -6  126.79   10.80
  -5  -7  -6  164.28   14.20
  -5  -7  -6  135.99   11.70
   5   7  -6  108.59    9.00
   7  -5  -6  141.49    7.30
  -7   5  -6  124.09   10.90
   5   7  -6  137.99   10.50
  -5  -7  -6  155.78   10.70
  -7   5   6  132.99   10.70
   7  -5   6  129.99   10.70
  -5  -7   6  120.39   11.50
   5   7   6  139.59    9.80
  -5  -7   6  121.09   10.10
   7  -5   6  128.49    9.60
  -7   5   6  120.59   11.90
   5   7   6  142.39   12.40
   7  -5   6  132.49    8.90
  -5  -7   6  131.89   10.00
   7  -5   6  139.89    8.10
   7  -5   6  125.69    9.90
   5   7   6  136.89   13.40
  -5  -7   6  129.49   11.00
  -7   5   6  134.79   10.90
  -5  -7   6  138.59    8.60
   5   7   6  142.89   10.20
   7   7  -6   45.80    8.70
  -7   7  -6   61.29    9.40
   7   7  -6   56.49    9.10
   7   7  -6   61.99    6.60
   7  -7  -6   57.29    7.80
  -7  -7  -6   57.29   10.00
  -7   7  -6   67.29   10.50
  -7  -7  -6   56.09    7.40
   7  -7  -6   83.49   10.90
  -7  -7  -6   79.29    6.40
   7   7   6   71.39    7.70
   7  -7   6   64.19    8.40
   7  -7   6   60.79    7.00
  -7   7   6   63.29    7.30
   7   7   6   61.39   10.90
  -7   7   6   78.69    9.40
  -7   7   6   73.69   11.40
  -7  -7   6   56.39    8.10
  -7  -7   6   65.29    7.90
   7   7   6   61.79    7.50
   7  -7   6   56.39    6.90
   7   7   6   54.99    8.90
   7  -7   6   62.99    6.70
  -8  -6  -6   23.80    5.90
   8   6  -6   28.10    5.20
  -6   8  -6   30.40    6.10
   6  -8  -6   36.10    7.10
  -6   8  -6   32.50    6.00
  -8  -6  -6   25.60    5.80
   8   6  -6   28.70    5.80
   8   6  -6   24.40    4.30
  -8  -6  -6   28.50    5.00
   6  -8  -6   27.80    6.00
  -8  -6   6   17.40    4.60
   8   6   6   28.10    6.60
   8   6   6   30.40    7.30
   6  -8   6   26.80    4.40
   8   6   6   39.80    8.80
  -8  -6   6   33.90    4.90
  -6   8   6   34.60   11.00
  -6   8   6   29.90    5.80
   8   6   6   27.00    4.70
   6  -8   6   30.40    4.60
  -6   8   6   23.10    6.50
   6  -8   6   32.00    5.70
  -6   8   6   29.60    5.80
  -8  -6   6   23.00    5.40
   6  -8   6   27.80    5.10
   8   4  -6   44.00    5.20
  -8  -4  -6   47.20    8.40
  -8  -4  -6   37.00    6.00
   8   4  -6   44.00    6.40
   4  -8  -6   45.80    7.50
  -4   8  -6   37.70    6.80
  -4   8  -6   59.09    7.70
  -4   8  -6   48.10    7.60
  -8  -4  -6   49.80    7.60
   8   4  -6   34.70    7.50
   4  -8  -6   32.90    6.20
   8   4  -6   49.20    7.80
   4  -8   6   48.50    6.90
  -4   8   6   58.19    8.20
   8   4   6   34.80    6.20
   4  -8   6   53.89    5.70
  -8  -4   6   30.20    5.60
  -4   8   6   43.30    6.50
  -8  -4   6   40.70    6.90
   8   4   6   41.50    6.40
  -4   8   6   57.19    8.90
  -8  -4   6   47.50    7.00
  -4   8   6   50.69    6.50
   4  -8   6   39.00    5.70
  -4   8   6   36.50    7.90
   4  -8   6   46.40    6.80
   8   4   6   40.80    7.50
   2  -8  -6    1.30    4.40
  -2   8  -6    6.90    3.70
  -2   8  -6    9.30    5.30
   8   2  -6    3.80    2.80
   8   2  -6    6.00    4.20
  -2   8  -6    2.30    3.90
  -2   8  -6    4.50    4.30
   2  -8  -6    1.80    4.40
  -8  -2  -6    7.10    3.40
   8   2  -6    5.20    3.30
   8   2  -6    8.30    4.80
   8   2  -6    7.80    2.90
  -2   8  -6    5.90    4.90
   2  -8  -6    6.40    2.30
  -8  -2  -6   -1.90    3.40
   2  -8   6    5.90    3.20
  -2   8   6    9.60    6.90
  -8  -2   6    4.10    3.90
   2  -8   6    8.10    3.70
  -2   8   6    7.30    2.90
  -8  -2   6    5.60    3.70
  -2   8   6    8.80    4.60
  -2   8   6    8.30    3.30
  -8  -2   6    4.00    3.60
   8   2   6    6.00    3.10
  -2   8   6   -0.40    3.10
   8   2   6    3.70    3.40
   2  -8   6    6.80    2.70
  -2   8   6   13.70    3.80
   8   2   6    9.30    3.40
   2  -8   6    9.60    4.00
   0   8  -6    8.70    3.60
  -8   0  -6    5.90    3.20
   8   0  -6    1.60    3.70
   0   8  -6    6.20    4.80
   8   0  -6    1.70    3.40
   0  -8  -6    5.70    2.70
   0  -8  -6   -2.40    4.40
   8   0  -6    3.20    2.50
   0  -8  -6    0.30    3.00
   8   0  -6    6.90    3.10
  -8   0  -6   10.70    3.90
   0  -8  -6   20.80    8.30
   0  -8  -6    6.80    2.70
   0  -8  -6    2.70    4.30
  -8   0  -6    0.80    3.40
   0   8  -6    7.00    4.00
   0   8  -6    5.00    5.30
   8   0  -6    6.80    3.10
   0   8  -6    4.00    3.80
   0  -8   6   -0.70    5.10
   0   8   6   11.90    5.10
  -8   0   6   -3.70    3.80
   0   8   6    2.00    2.90
   0  -8   6   -0.20    3.50
   0   8   6    6.50    5.10
   0   8   6    7.20    4.00
   0   8   6    5.30    3.20
   0  -8   6    2.20    4.00
   8   0   6    8.90    3.40
   8   0   6    1.90    3.00
   0   8   6    1.60    3.80
   8   0   6    1.10    3.00
   0  -8   6    5.70    2.70
   0  -8   6    6.10    2.50
   0   8   6    1.80    2.90
   0  -8   6    0.80    2.90
  -8   0   6    2.90    3.70
   8  -2  -6    8.90    3.10
  -2  -8  -6    6.10    4.10
   2   8  -6    3.90    4.10
  -2  -8  -6    7.00    3.70
  -8   2  -6    7.90    4.50
   2   8  -6    1.60    5.20
  -2  -8  -6    7.10    3.10
   2   8  -6    5.10    3.10
  -2  -8  -6    6.20    2.70
   8  -2  -6    6.00    4.30
   2   8  -6    8.50    3.80
   8  -2  -6    7.30    3.10
   2   8  -6    7.20    4.20
  -2  -8  -6    4.90    3.20
  -2  -8  -6   10.10    6.30
   2   8  -6    3.60    5.00
  -8   2  -6    5.90    3.20
  -8   2  -6    2.60    3.70
   8  -2  -6    7.10    3.00
  -2  -8   6   -0.90    3.40
  -2  -8   6    9.50    5.10
   2   8   6    6.80    5.60
   8  -2   6    5.30    3.00
   8  -2   6   10.30    3.30
  -2  -8   6    3.00    3.30
   8  -2   6    7.60    3.40
   2   8   6    2.30    3.50
  -8   2   6    0.30    3.80
  -2  -8   6    7.90    4.10
   2   8   6    1.60    3.40
   2   8   6    3.10    3.60
   8  -2   6    2.60    2.90
  -8   2   6    8.70    4.50
  -2  -8   6    7.70    4.10
   2   8   6    4.20    3.60
  -8   2   6    8.20    4.90
   2   8   6    5.20    5.00
   2   8   6    7.80    3.30
   4   8  -6   44.70    6.10
   4   8  -6   49.10    8.60
  -8   4  -6   38.00    7.30
   8  -4  -6   52.99    8.70
  -4  -8  -6   46.80    5.10
   4   8  -6   47.00    6.20
   4   8  -6   38.80    7.00
   8  -4  -6   52.49    5.40
  -4  -8  -6   42.00    7.30
  -4  -8  -6   36.20    5.40
   8  -4  -6   44.90    6.40
  -4  -8  -6   54.39    9.60
  -8   4  -6   36.40    5.90
  -4  -8  -6   42.70    5.80
   8  -4  -6   45.90    5.20
  -8   4  -6   40.10    7.20
  -4  -8  -6   40.50    7.50
   8  -4   6   39.90    6.50
   8  -4   6   49.80    5.70
  -4  -8   6   39.40    6.40
   4   8   6   29.40    7.00
   8  -4   6   40.70    5.80
   8  -4   6   47.70    5.80
  -4  -8   6   40.50    7.00
  -4  -8   6   56.99    8.70
  -8   4   6   41.50    6.70
   4   8   6   40.60    5.80
  -4  -8   6   36.60    6.20
  -8   4   6   44.70    7.50
   8  -4   6   29.30    4.80
   4   8   6   43.60    6.30
   4   8   6   50.29    8.40
  -8   4   6   47.60    7.60
  -4  -8   6   47.60    6.00
  -6  -8  -6   28.90   10.80
  -8   6  -6   36.00    7.10
  -6  -8  -6   24.60    5.90
   6   8  -6   29.50    5.30
   8  -6  -6   22.80    4.40
   6   8  -6   22.80    4.50
   6   8  -6   24.00    5.50
   8  -6  -6   35.50    6.20
  -8   6  -6   26.80    6.60
   6   8  -6   22.20    5.60
   8  -6  -6   28.80    6.10
  -6  -8  -6   26.40    4.40
  -6  -8  -6   25.10    5.10
  -6  -8   6   27.80    5.20
  -8   6   6   19.30    6.60
   6   8   6   24.50    4.60
   8  -6   6   24.40    4.00
   8  -6   6   26.70    4.80
  -8   6   6   30.90    6.50
   6   8   6   28.80    8.10
  -8   6   6   33.80    6.70
  -6  -8   6   26.20    4.60
   8  -6   6   20.10    4.40
  -6  -8   6   37.30    6.20
   6   8   6   25.40    5.40
  -6  -8   6   38.40   17.80
   8  -6   6   28.60    4.30
   6   8   6   35.20    7.60
  -8   8  -6   26.00    6.60
   8   8  -6   21.10    5.80
   8  -8  -6   16.80    5.30
  -8  -8  -6   14.10    5.90
   8   8  -6   20.20    4.40
  -8   8  -6   22.20    6.60
  -8  -8  -6   22.50    7.00
   8   8  -6   13.00    5.90
   8  -8   6    9.20    5.40
   8   8   6   33.20    8.40
   8  -8   6   21.50    5.20
   8   8   6   18.70    5.90
   8  -8   6   18.60    4.90
  -8   8   6   13.60    5.20
  -8  -8   6   12.40    5.00
  -8   8   6   13.30    6.30
  -8   8   6    7.10    7.70
   8   8   6   11.00    8.40
  -8  -8   6    7.30    5.40
   8  -8   6   15.70    4.30
  -7   9  -6   84.39   12.80
  -7   9  -6   67.99   11.60
   9   7  -6   68.09   11.60
  -9  -7  -6   82.39   12.30
  -9  -7  -6   71.89   11.40
   9   7  -6   68.49    8.80
   9   7  -6   78.19    6.80
   7  -9  -6   57.09    9.50
   7  -9  -6   69.59   12.70
  -7   9   6   73.69    8.80
  -7   9   6   79.49   13.40
  -9  -7   6   57.69   10.40
   7  -9   6   48.70    8.60
   9   7   6   74.29   11.60
   7  -9   6   82.49    7.70
  -9  -7   6   76.39   10.80
  -7   9   6   56.99    9.40
   9   7   6   66.39   11.40
   9   7   6   85.89    8.80
   7  -9   6   71.89    8.10
   7  -9   6   93.09   10.20
   9   5  -6   23.50    5.30
  -9  -5  -6   39.80    6.20
   9   5  -6   35.90    5.30
  -5   9  -6   33.80    7.50
  -9  -5  -6   21.30    6.30
  -5   9  -6   31.10    6.40
  -9  -5  -6   34.60    6.30
   5  -9  -6   38.50    7.20
   9   5  -6   34.60    5.10
   5  -9  -6   36.60    6.50
   9   5   6   24.80    8.90
  -9  -5   6   44.60    7.90
  -5   9   6   23.70    5.70
  -9  -5   6   41.70    5.50
   5  -9   6   33.10    5.70
   9   5   6   34.20    4.70
   9   5   6   34.70    6.30
  -5   9   6   36.30    6.80
   5  -9   6   37.10    6.00
  -5   9   6   37.00    5.90
   5  -9   6   31.80    5.10
  -9  -5   6   39.90    7.00
   5  -9   6   38.10    6.50
  -3   9  -6   23.80    6.20
  -9  -3  -6   26.40    5.50
  -9  -3  -6   25.20    5.60
  -9  -3  -6   30.70    5.90
   3  -9  -6   37.80    7.00
   9   3  -6   25.80    4.50
   9   3  -6   30.40    5.60
   9   3  -6   38.00    5.80
   3  -9  -6   25.80    6.60
  -3   9  -6   34.90    5.90
   9   3  -6   43.80    6.50
  -3   9  -6   49.20    7.90
   3  -9   6   23.40    4.50
  -3   9   6   43.90    6.90
  -3   9   6   39.20    6.90
   9   3   6   30.70    5.10
  -3   9   6   31.50    8.60
  -3   9   6   29.20    5.50
  -9  -3   6   45.10    7.40
   3  -9   6   46.10    7.10
   9   3   6   37.00    6.40
  -9  -3   6   45.50    6.90
  -9  -3   6   44.60    8.50
   3  -9   6   28.80    4.80
   3  -9   6   31.90    5.90
   9   1  -6   60.29    8.90
   9   1  -6   57.79    5.60
   9   1  -6   61.49    6.60
  -1   9  -6   53.99    8.00
  -9  -1  -6   63.49    7.80
  -1   9  -6   72.59    7.70
  -9  -1  -6   65.39    7.10
   1  -9  -6   69.99   10.10
   9   1  -6   62.49    7.60
  -1   9  -6   61.79    9.20
   1  -9  -6   70.99   10.90
  -1   9  -6   58.29    9.70
  -1   9  -6   68.89    9.50
   1  -9  -6   66.59    7.00
   9   1   6   70.49    7.30
  -9  -1   6   61.69    9.50
  -1   9   6   57.59    9.60
  -1   9   6   60.69    9.60
   1  -9   6   61.99    8.30
   1  -9   6   69.49    7.60
   1  -9   6   55.09    6.70
  -1   9   6   50.99    6.00
  -9  -1   6   52.69    8.20
   9   1   6   62.89    6.80
   9   1   6   51.89    6.40
  -1   9   6   59.19    6.90
   1  -9   6   67.99    7.70
  -1   9   6   50.39    8.00
   1   9  -6   54.19    7.50
  -1  -9  -6   55.99    6.00
  -1  -9  -6   75.59    9.00
   1   9  -6   51.89    9.00
   9  -1  -6   58.89    5.50
   9  -1  -6   52.99    7.70
   1   9  -6   52.59    9.40
  -9   1  -6   51.69    8.80
   1   9  -6   71.49    9.60
  -9   1  -6   55.09    7.60
  -9   1  -6   60.49   10.40
  -1  -9  -6   65.89    6.80
  -1  -9  -6   57.59   11.00
  -1  -9  -6   62.89    9.70
   1   9  -6   74.99    9.30
   9  -1  -6   59.59    7.10
  -1  -9  -6   56.69    5.70
   9  -1  -6   65.19    5.80
  -1  -9   6   57.69    8.50
   1   9   6   61.19    8.30
  -1  -9   6   71.99    8.90
  -1  -9   6   54.69    7.20
  -1  -9   6   55.89    6.60
   1   9   6   65.49    7.20
   1   9   6   69.19   10.70
  -9   1   6   64.89    8.40
   1   9   6   56.09    9.20
  -1  -9   6   58.59    7.10
  -9   1   6   57.89    9.90
   9  -1   6   68.19    6.40
   1   9   6   65.99    6.60
   9  -1   6   56.39    7.50
  -1  -9   6   75.59    5.60
   9  -1   6   58.49    6.20
   3   9  -6   37.40    5.70
  -3  -9  -6   28.90    8.00
  -9   3  -6   35.70    7.30
  -3  -9  -6   36.50    5.00
  -3  -9  -6   36.80    5.40
   9  -3  -6   36.90    4.50
  -9   3  -6   23.50    5.00
  -9   3  -6   38.20    6.40
  -3  -9  -6   24.50    6.00
   9  -3  -6   37.20    4.90
   3   9  -6   45.70    6.60
   3   9  -6   38.20    6.60
   9  -3  -6   51.69    9.50
  -3  -9  -6   50.49    6.50
   9  -3  -6   47.10    6.00
   9  -3   6   30.20    4.90
  -3  -9   6   33.00    5.90
   3   9   6   39.20    8.20
   3   9   6   43.10    9.20
  -3  -9   6   32.90    4.70
  -3  -9   6   38.30    5.80
   9  -3   6   32.50    5.50
  -9   3   6   39.50    7.80
   9  -3   6   26.50    5.00
   3   9   6   37.50    5.90
  -9   3   6   32.10    5.70
  -3  -9   6   36.50    5.00
   3   9   6   47.60    7.50
  -3  -9   6   32.90    6.00
   3   9   6   35.70    5.20
  -5  -9  -6   33.70    5.90
  -5  -9  -6   59.49   10.60
   5   9  -6   30.90    5.20
  -5  -9  -6   37.10    5.90
   9  -5  -6   35.00    6.10
   5   9  -6   33.90    5.80
   5   9  -6   38.50    6.50
  -5  -9  -6   33.10    6.60
  -9   5  -6   35.70    5.90
   9  -5  -6   48.20    5.40
  -5  -9  -6   42.10    5.40
   5   9  -6   33.60    7.30
  -9   5  -6   34.10    6.60
   9  -5  -6   25.10    6.10
   9  -5   6   41.30    5.40
  -5  -9   6   39.20    8.70
   5   9   6   33.60    7.00
   5   9   6   37.80    9.00
  -9   5   6   31.80    7.20
   5   9   6   37.60    5.70
   5   9   6   39.30    8.70
  -5  -9   6   50.49    6.70
   9  -5   6   37.20    6.70
  -9   5   6   48.90    8.60
   9  -5   6   41.80    6.40
  -5  -9   6   51.89    8.10
  -5  -9   6   43.00    7.40
   9  -5   6   33.10    6.10
   9  -7  -6   82.99    7.30
  -9   7  -6   53.49    8.50
   9  -7  -6   83.59   15.20
   7   9  -6   48.30    7.50
  -9   7  -6   92.69   13.10
  -7  -9  -6   74.79   11.40
   7   9  -6   72.19   10.40
  -7  -9  -6   58.49    9.10
   7   9  -6   60.69    7.20
   9  -7   6   67.09    7.10
  -7  -9   6   76.99    8.80
   7   9   6   83.89   13.60
   7   9   6   58.59   11.60
   9  -7   6   62.69    8.00
   9  -7   6   85.79   10.60
  -9   7   6   67.89   11.20
   7   9   6   69.49    8.70
  -7  -9   6   59.39    8.00
  -9   7   6   69.79   11.10
   9  -7   6   57.59    9.70
  10   6  -6   13.70    4.70
   6 -10  -6    9.90    6.90
 -10  -6  -6    6.40    7.10
   6 -10  -6    9.60    7.20
  -6  10  -6   19.10    6.90
 -10  -6  -6   24.10    6.70
  10   6  -6   17.50    4.10
  -6  10  -6   18.50    6.30
  10   6  -6   16.20    5.90
  -6  10   6   12.80    5.00
   6 -10   6   12.20    5.10
   6 -10   6   22.30    5.20
  -6  10   6   19.50    7.30
  10   6   6   12.30    5.20
 -10  -6   6   13.40    5.50
   6 -10   6   11.90    5.10
  10   6   6   21.70    9.50
  10   6   6   15.10    5.90
  -4  10  -6    7.30    6.10
  -4  10  -6   18.80    5.90
 -10  -4  -6   24.90    5.20
  10   4  -6   18.90    5.50
 -10  -4  -6   19.40    6.00
 -10  -4  -6   12.90    6.10
   4 -10  -6   18.80    6.80
   4 -10  -6   16.00    7.00
  10   4  -6   22.30    4.10
   4 -10   6   16.80    5.30
  10   4   6    7.20    5.00
   4 -10   6   10.20    4.30
 -10  -4   6   19.50    5.30
   4 -10   6   15.80    4.50
   4 -10   6   20.30    5.30
  -4  10   6   26.50    5.20
 -10  -4   6   27.50    6.00
  10   4   6   14.20    4.40
 -10  -4   6   20.20    5.40
  -4  10   6   21.00    5.80
  -4  10   6    7.10    6.60
 -10  -2  -6   -6.80    4.80
 -10  -2  -6   -2.40    4.60
  -2  10  -6    3.40    6.40
  -2  10  -6   -4.40    4.50
   2 -10  -6    5.00    6.10
  10   2  -6   -3.60    3.00
  -2  10  -6    4.50    5.00
  -2  10  -6    6.80    5.10
  10   2  -6    2.00    4.40
 -10  -2  -6   -0.80    3.70
  -2  10  -6    1.50    5.40
  10   2  -6    5.40    3.60
   2 -10  -6   -2.80    6.60
  10   2   6    5.40    4.20
  -2  10   6    5.90    3.70
   2 -10   6    2.80    4.00
 -10  -2   6   12.80    4.80
   2 -10   6    0.50    4.00
  -2  10   6    5.00    6.20
  -2  10   6   14.70    9.70
  10   2   6    1.10    3.60
   2 -10   6    5.50    3.60
  10   2   6    0.00    3.50
 -10  -2   6   -3.20    4.70
  -2  10   6    6.80    5.20
   2 -10   6    8.80    5.10
   0 -10  -6    2.50    5.40
 -10   0  -6   -0.50    4.80
   0 -10  -6   -2.60    6.60
   0  10  -6    5.60    4.10
   0  10  -6   -4.90    5.90
   0  10  -6   -3.20    5.80
 -10   0  -6    5.40    4.60
  10   0  -6    3.50    2.40
  10   0  -6   -0.30    4.10
  10   0  -6   -2.30    2.50
   0  10  -6   -3.90    4.40
   0 -10  -6    2.10    4.50
   0  10  -6    5.80    5.20
   0 -10   6    1.80    4.10
   0  10   6   -4.30    6.60
  10   0   6    2.00    2.90
   0  10   6   -4.40    4.70
 -10   0   6    4.60    4.70
   0 -10   6   -8.80    4.90
   0  10   6   -1.10    3.60
   0  10   6    7.70    3.60
  10   0   6    3.70    2.90
  10   0   6    2.70    4.00
 -10   0   6   -9.10    5.30
   0  10   6    7.80    5.90
   0 -10   6    4.70    3.80
  10  -2  -6    1.20    3.70
   2  10  -6    1.70    5.10
   2  10  -6   -6.30    4.20
  -2 -10  -6    8.00    5.20
  -2 -10  -6   -6.10    5.40
  -2 -10  -6   -2.20    2.90
  -2 -10  -6   -1.80    7.20
 -10   2  -6   -8.30    5.70
 -10   2  -6    4.80    4.70
  -2 -10  -6    3.50    3.90
  -2 -10  -6   -1.30    3.60
   2  10  -6   -3.50    5.10
 -10   2  -6    7.70    4.60
  10  -2  -6    2.00    5.20
  -2 -10   6   -0.20    6.40
 -10   2   6    3.00    5.30
  10  -2   6    2.60    2.80
  -2 -10   6    7.90    3.90
   2  10   6    8.00    7.20
  -2 -10   6    1.20    3.50
  10  -2   6    5.10    2.60
  -2 -10   6    3.60    3.50
   2  10   6    2.60    4.80
   2  10   6   -3.70    7.90
  10  -2   6   -3.50    3.80
  -2 -10   6    0.70    5.20
  -4 -10  -6   19.40    4.20
 -10   4  -6   13.80    6.80
  -4 -10  -6   13.00    6.50
  -4 -10  -6   17.50    4.90
   4  10  -6   20.80    6.10
  -4 -10  -6   14.50    4.80
   4  10  -6   10.50    4.70
 -10   4  -6    7.10    5.60
  10  -4  -6   11.10    6.30
  -4 -10  -6    6.30    8.30
   4  10  -6   24.80    6.40
  -4 -10   6   24.70    5.00
  10  -4   6   25.10    4.30
 -10   4   6   11.60    5.50
   4  10   6   20.10    8.60
  -4 -10   6   19.90    4.30
   4  10   6   15.00    5.20
  -4 -10   6   26.20    4.70
  10  -4   6   19.80    3.30
  -4 -10   6   20.60    6.50
   4  10   6   12.80    8.90
  10  -4   6   17.20    4.90
  -4 -10   6   25.80    6.10
 -10   4   6    5.50    6.50
  -6 -10  -6   15.10    6.00
   6  10  -6   11.20    4.60
  10  -6  -6   28.20    7.10
 -10   6  -6    0.00    6.70
   6  10  -6   15.60    5.80
  -6 -10  -6   13.90    6.90
 -10   6  -6   25.40    7.80
   6  10  -6   11.90    6.30
  -6 -10   6   16.80    5.20
  10  -6   6   16.30    5.80
   6  10   6   36.40   10.30
 -10   6   6   11.50    6.50
  10  -6   6   19.10    3.00
   6  10   6   20.20   10.70
  10  -6   6   16.20    3.30
 -10   6   6   18.40    7.80
  -6 -10   6   10.60    4.80
   6  10   6   21.90    6.00
  11   3  -6   29.40    6.10
  11   3  -6   44.90    4.30
  -3  11  -6   39.80    7.10
   3 -11  -6   50.19    8.90
 -11  -3  -6   42.40    8.00
  -3  11  -6   45.00    7.70
 -11  -3  -6   41.40    7.90
  11   3  -6   39.50    5.10
 -11  -3  -6   48.80    7.10
  -3  11  -6   49.80    9.90
   3 -11  -6   39.40    8.60
   3 -11   6   38.80    7.20
   3 -11   6   52.19    9.80
  -3  11   6   43.90    7.70
  11   3   6   43.40    6.50
  -3  11   6   45.20    7.40
  11   3   6   32.20    5.50
 -11  -3   6   35.60    7.50
  -3  11   6   53.69    9.40
   3 -11   6   44.30    6.90
 -11  -3   6   53.69    9.50
   3 -11   6   35.80    6.00
  -1  11  -6   65.19   11.30
   1 -11  -6   80.89   11.80
 -11  -1  -6   78.69   11.30
  -1  11  -6   64.19   10.00
  -1  11  -6   87.09   12.00
 -11  -1  -6   67.29    9.80
  -1  11  -6   62.89    9.40
   1 -11  -6   57.39   10.60
  -1  11  -6   56.79    8.70
  -1  11   6   51.09   15.10
  11   1   6   75.79    5.80
  -1  11   6   72.79    8.10
 -11  -1   6   59.29   11.30
  -1  11   6   58.09   10.00
  -1  11   6   86.39   10.30
  11   1   6   53.39    8.50
   1 -11   6   66.49    8.50
   1 -11   6   56.39    7.80
   1 -11   6   49.99    8.40
  11   1   6   56.49    5.20
   1 -11   6   67.29    7.60
  -1  11   6   44.40    6.50
 -11  -1   6   68.49   10.40
 -11   1  -6   51.49    7.30
 -11   1  -6   48.30    9.10
  -1 -11  -6   73.49   12.70
   1  11  -6   84.79   12.10
  -1 -11  -6   63.99    7.70
   1  11  -6   84.59    9.40
 -11   1  -6   68.89   10.90
  -1 -11  -6   64.19   11.50
   1  11  -6   63.19    9.10
  11  -1  -6   63.29   11.60
  -1 -11   6   71.69    8.50
   1  11   6   66.69   10.70
  11  -1   6   51.39    8.90
   1  11   6   62.39   10.40
  -1 -11   6   70.49   10.90
 -11   1   6   54.59    9.80
  -1 -11   6   64.09    8.20
   1  11   6   66.09    7.90
   1  11   6   54.89   10.00
 -11   1   6   71.59   11.70
   3  11  -6   35.50    6.20
   3  11  -6   66.79   11.20
  -3 -11  -6   35.70   10.20
 -11   3  -6   38.80    7.30
   3  11  -6   53.59    8.70
  -3 -11  -6   48.20    8.40
 -11   3  -6   42.40    8.00
  11  -3  -6   36.40    7.20
  -3 -11  -6   36.90    5.70
  -3 -11  -6   34.70    5.70
   3  11   6   39.20   10.20
  -3 -11   6   27.70    7.60
   3  11   6   47.00   11.00
  -3 -11   6   27.70    5.80
  -3 -11   6   41.50    7.90
 -11   3   6   51.99   10.20
   3  11   6   55.59    9.50
 -11   3   6   38.90    6.90
  -3 -11   6   41.00    7.20
  11  -3   6   60.29    8.70
   0  -1  -7  105.09   10.00
   1   0  -7  100.09    6.20
   1   0  -7  100.19    9.90
  -1   0  -7  100.79    7.40
   1   0  -7  103.19    8.30
  -1   0  -7   93.99    8.90
   0   1  -7  101.79    8.40
  -1   0  -7  118.69    8.90
   0  -1  -7  103.99    7.90
  -1   0  -7   97.59    8.20
   0   1  -7  119.49    7.10
  -1   0  -7  100.99    9.60
   0   1  -7  106.99    8.80
   1   0  -7  114.69    8.00
   0   1  -7   96.69    9.10
   1   0  -7  111.29    9.00
   0  -1  -7  104.19    9.00
   0  -1  -7  100.09    8.20
  -1   0  -7  102.39    8.10
   0   1  -7  108.39   10.10
   0  -1  -7  112.69    7.10
   1   0  -7   99.19    9.00
   0  -1  -7  111.59    8.90
   0   1  -7  103.79    8.40
   1   0   7  106.49   10.00
   0  -1   7   97.89    9.40
   0  -1   7  103.99    7.60
   0   1   7  111.79   10.20
   0  -1   7   87.59    7.00
  -1   0   7  102.79   10.50
   0   1   7  105.59    8.40
   1   0   7  120.69    6.80
   0   1   7   94.39    7.50
   0  -1   7  113.89    8.60
  -1   0   7  116.69    8.00
   1   0   7   97.69    8.60
   1   0   7  106.99    8.30
  -1   0   7  103.89    9.50
   1   0   7  111.89    8.60
   0   1   7   95.09    8.50
   1   0   7  102.19    6.70
   0  -1   7   86.99    8.60
   0  -1   7   97.69    8.30
  -1   0   7  114.49    7.70
   0   1   7  102.39    7.00
  -1   0   7  103.19    7.70
  -1   0   7  102.89    8.50
   2   1  -7  177.28   11.30
   2   1  -7  169.38   12.00
   2   1  -7  160.38   11.40
  -1   2  -7  163.78   12.30
  -2  -1  -7  174.88   11.40
   1  -2  -7  149.29   10.40
  -1   2  -7  145.99   10.40
  -1   2  -7  159.98   10.60
   2   1  -7  190.88   10.30
   2   1  -7  187.08   11.60
   2   1  -7  160.28   11.10
  -1   2  -7  147.29    9.50
  -1   2  -7  142.69   10.70
   2   1  -7  166.18    7.10
  -2  -1  -7  166.28   11.30
   1  -2  -7  162.88    9.80
   1  -2  -7  170.38   12.10
   1  -2  -7  151.18   10.60
  -2  -1  -7  169.58   11.60
  -1   2  -7  146.09   11.30
  -2  -1  -7  173.98   10.70
  -2  -1  -7  171.28   12.60
  -2  -1   7  160.98   11.90
  -1   2   7  178.38   13.40
   2   1   7  169.28   10.80
   1  -2   7  164.28   10.60
   1  -2   7  162.88   11.40
   2   1   7  161.58    8.20
   1  -2   7  162.38    8.90
  -1   2   7  164.88   12.00
   2   1   7  158.48    8.20
   1  -2   7  176.48   12.50
  -2  -1   7  139.79    9.90
   1  -2   7  172.98   10.00
   2   1   7  160.48    9.40
   2   1   7  150.78   10.50
  -1   2   7  176.08    9.30
  -2  -1   7  151.48   10.10
   2   1   7  158.58   11.50
  -1   2   7  165.98   10.00
   2   1   7  162.28   12.80
  -2  -1   7  160.78   10.10
  -2  -1   7  151.98   10.70
  -1   2   7  180.48   10.40
   1  -2   7  161.08   11.70
  -1   2   7  159.38   10.90
  -2   1  -7  187.78   12.50
   2  -1  -7  161.58   10.70
   2  -1  -7  155.78   10.60
  -1  -2  -7  147.69   11.50
   1   2  -7  181.78   11.10
  -2   1  -7  161.58   10.80
  -1  -2  -7  164.48   10.20
  -2   1  -7  166.08   11.60
  -2   1  -7  176.48   10.20
  -1  -2  -7  154.88   11.10
  -1  -2  -7  153.18   10.90
   1   2  -7  153.68   10.50
   1   2  -7  155.88   11.80
  -2   1  -7  146.69   10.70
   1   2  -7  158.18    8.10
   2  -1  -7  185.38   12.20
   1   2  -7  162.28   10.60
   2  -1  -7  162.48   11.70
   1   2  -7  145.49   10.90
  -1  -2  -7  152.68   12.30
  -2   1  -7  166.48   10.60
   1   2  -7  153.28   11.00
  -1  -2   7  176.98   10.80
   1   2   7  175.58   10.20
   2  -1   7  153.98    8.10
  -1  -2   7  163.98   12.20
   2  -1   7  139.79   11.40
  -1  -2   7  163.28   11.00
  -1  -2   7  159.48   12.50
  -2   1   7  150.78   10.10
  -1  -2   7  187.68   10.70
   2  -1   7  145.39   11.40
   2  -1   7  156.88    7.60
   2  -1   7  157.78   11.40
  -1  -2   7  170.68    9.90
   1   2   7  158.28    9.40
   2  -1   7  141.89    9.30
  -2   1   7  172.38   12.90
   1   2   7  156.88   11.20
   1   2   7  179.38    9.10
  -2   1   7  153.28   10.50
  -2   1   7  151.18   11.70
   2  -1   7  160.88   10.40
  -2   1   7  165.88    9.00
   1   2   7  182.28   12.70
   1   2   7  164.68   11.00
   1   2   7  183.48    9.20
  -2   1   7  138.99    9.70
   3   2  -7  137.19   10.80
   3   2  -7  137.29   11.20
  -3  -2  -7  148.79   10.90
  -2   3  -7  144.99   11.60
   2  -3  -7  151.28   11.80
   3   2  -7  123.19   10.90
   2  -3  -7  143.89    9.70
   3   2  -7  139.99   10.60
   3   2  -7  128.69    9.70
  -3  -2  -7  144.89   12.20
  -2   3  -7  145.29    9.40
  -2   3  -7  153.68   10.70
  -3  -2  -7  145.49   10.00
   2  -3  -7  131.69   11.20
  -3  -2  -7  130.69   10.90
  -2   3  -7  146.09    9.60
  -3  -2  -7  135.99   10.00
  -2   3  -7  155.08   11.70
  -2   3   7  153.98   10.20
   3   2   7  141.89   12.00
   3   2   7  154.98    7.50
  -3  -2   7  137.09    9.80
   2  -3   7  162.98   10.00
   2  -3   7  137.79   10.50
   3   2   7  133.29   10.00
   2  -3   7  129.09   10.90
   2  -3   7  134.79    8.00
   2  -3   7  149.49   11.00
  -3  -2   7  134.99    9.70
  -2   3   7  142.59   10.80
  -3  -2   7  159.78   12.20
  -3  -2   7  151.18   10.20
  -2   3   7  135.79   10.30
  -2   3   7  132.39   12.40
   3   2   7  147.79    6.70
  -3  -2   7  150.48    9.80
   3   2   7  145.29   10.00
  -3   0  -7  148.49   10.10
   3   0  -7  129.19   10.60
   3   0  -7  146.59    9.90
   0   3  -7  130.29   11.30
   0  -3  -7  140.79    9.10
   3   0  -7  141.69   10.60
  -3   0  -7  150.28   10.70
   0   3  -7  133.29   10.70
   0   3  -7  156.48    9.60
   0  -3  -7  137.29   11.60
   0  -3  -7  126.69   10.90
   0   3  -7  142.79   10.70
   0   3  -7  136.09    9.70
   0   3  -7  146.19    8.30
   0  -3  -7  122.59    9.30
  -3   0  -7  142.79   10.40
  -3   0  -7  137.79    9.90
   3   0  -7  135.29   10.90
   3   0  -7  138.49    9.90
  -3   0  -7  140.49   11.50
  -3   0  -7  136.39   10.80
   0  -3  -7  142.09   10.10
   0   3  -7  151.38    9.90
   0  -3   7  148.69    9.30
  -3   0   7  129.69    9.30
  -3   0   7  144.99   10.00
  -3   0   7  123.69   10.90
  -3   0   7  143.59    8.60
  -3   0   7  141.09   12.20
   3   0   7  139.69   11.10
   3   0   7  140.79    6.90
  -3   0   7  139.49    9.90
   0   3   7  148.49    8.40
   0  -3   7  139.89    9.40
   0   3   7  144.89   10.70
   3   0   7  140.99   10.10
   3   0   7  130.09   10.40
   0  -3   7  145.79   10.70
   0  -3   7  135.89   10.90
   0   3   7  131.99   12.60
   0  -3   7  146.29   11.10
   0   3   7  148.09    8.90
   0  -3   7  132.99    8.30
   0   3   7  136.69    8.70
   0   3   7  135.09   10.50
   3   0   7  128.49   10.20
   0   3   7  138.99    8.70
   2   3  -7  141.89   11.60
   3  -2  -7  148.59    9.70
  -3   2  -7  150.08   10.60
   2   3  -7  153.18   10.80
  -3   2  -7  141.79   12.40
  -2  -3  -7  158.88   10.10
  -3   2  -7  145.19    9.90
   2   3  -7  160.48   10.80
   3  -2  -7  137.49   11.50
  -3   2  -7  147.89    9.90
  -2  -3  -7  139.79   12.00
  -3   2  -7  162.28   11.80
   2   3  -7  162.98   10.90
  -2  -3  -7  156.38   11.60
   2   3  -7  156.88   11.00
   2   3  -7  143.49    7.10
  -2  -3  -7  142.39   10.20
   2   3  -7  148.99   10.60
   3  -2  -7  146.19   11.40
  -2  -3  -7  157.18   11.00
  -3   2   7  144.09   10.50
  -2  -3   7  146.09    9.70
  -3   2   7  157.28    9.80
   2   3   7  146.29   12.60
   3  -2   7  125.29   10.90
   2   3   7  152.88    9.90
   3  -2   7  145.09    7.70
   2   3   7  155.08    8.50
  -2  -3   7  150.88    9.80
   2   3   7  154.98    8.90
   3  -2   7  144.09   11.40
   3  -2   7  143.09   10.60
  -2  -3   7  131.59   11.50
   3  -2   7  151.08   10.00
  -2  -3   7  140.19   10.10
  -3   2   7  143.49   11.50
  -2  -3   7  137.19   11.40
   2   3   7  143.69    7.80
   2   3   7  140.99   10.30
  -2  -3   7  153.38   10.50
  -3   2   7  159.78   10.70
   3  -4  -7  131.69    9.10
   4   3  -7  157.18   12.50
   3  -4  -7  138.29   11.30
  -4  -3  -7  145.49   10.30
   4   3  -7  148.69   11.10
  -3   4  -7  133.99   10.50
  -4  -3  -7  146.29   11.30
  -4  -3  -7  155.08   10.30
   4   3  -7  143.39   11.00
  -3   4  -7  149.39   11.90
   4   3  -7  147.59   11.10
  -3   4  -7  160.18   12.70
  -4  -3  -7  159.88   11.70
  -4  -3  -7  158.48   13.20
  -3   4  -7  142.79    9.40
   3  -4  -7  142.29   11.30
  -3   4  -7  155.38   10.20
  -4  -3   7  154.78   10.50
  -4  -3   7  157.68   10.20
   4   3   7  146.89   10.30
  -4  -3   7  124.49   12.10
   3  -4   7  154.18   10.30
   4   3   7  143.19   10.40
   4   3   7  150.28    8.10
   3  -4   7  163.38   11.00
  -4  -3   7  143.69   10.40
  -3   4   7  163.58   11.60
  -4  -3   7  142.69   10.50
  -3   4   7  153.88   11.40
   3  -4   7  149.09    8.40
  -3   4   7  157.88   11.40
   3  -4   7  143.69   11.80
   3  -4   7  141.49   10.60
  -1   4  -7  127.09   11.00
   4   1  -7  147.89   10.70
  -1   4  -7  146.29    9.10
  -4  -1  -7  145.69   10.90
   4   1  -7  131.79   10.70
   1  -4  -7  155.38   12.30
  -4  -1  -7  147.39   10.50
  -1   4  -7  153.98   10.80
  -4  -1  -7  146.79   12.40
  -1   4  -7  135.29    9.50
  -4  -1  -7  128.69   10.60
   4   1  -7  167.78   10.90
  -4  -1  -7  146.99   10.10
  -1   4  -7  159.68   11.90
   1  -4  -7  145.29   12.20
  -1   4  -7  148.29    9.20
   4   1  -7  140.99   11.30
   1  -4  -7  151.18    9.80
  -1   4   7  144.29    9.20
  -4  -1   7  144.89   12.30
  -4  -1   7  144.29   10.10
   1  -4   7  140.19    9.80
   4   1   7  146.79   11.50
   4   1   7  139.99   10.10
  -4  -1   7  159.38    9.50
  -1   4   7  152.08    9.70
   1  -4   7  142.89    9.40
   1  -4   7  132.29   11.00
   1  -4   7  131.99   10.40
   1  -4   7  143.19   11.30
  -4  -1   7  127.79    9.60
  -1   4   7  144.59    9.60
  -4  -1   7  157.08   10.80
  -1   4   7  151.28    9.90
  -1   4   7  135.09   10.70
  -1   4   7  136.79   10.70
   1  -4   7  145.59    8.50
   4   1   7  151.58   11.10
   4  -1  -7  156.68   10.00
   1   4  -7  124.49   11.60
   1   4  -7  158.48   10.50
  -4   1  -7  133.49   12.40
  -4   1  -7  150.98   10.30
  -1  -4  -7  149.69   10.00
   1   4  -7  160.28    8.40
   1   4  -7  160.08   11.00
   1   4  -7  146.89   10.00
   4  -1  -7  145.29   11.00
   4  -1  -7  144.39   11.50
   1   4  -7  146.39   11.00
  -1  -4  -7  156.98   12.00
  -4   1  -7  159.58   10.70
  -1  -4  -7  164.08    9.80
  -4   1  -7  138.09   11.30
  -1  -4  -7  141.39   12.80
  -4   1  -7  137.99   10.20
  -1  -4  -7  158.88   10.60
  -4   1   7  141.79    9.70
   1   4   7  132.39   10.30
  -4   1   7  148.69   12.70
   1   4   7  158.28    8.80
   4  -1   7  149.88   10.20
  -4   1   7  159.98   10.90
   1   4   7  144.89    8.90
  -1  -4   7  146.99   10.10
   4  -1   7  139.29   11.00
  -1  -4   7  150.48   11.60
  -1  -4   7  151.18    9.80
   1   4   7  145.29   10.60
  -4   1   7  131.79   10.50
   4  -1   7  149.29    7.20
   1   4   7  147.19    9.10
  -1  -4   7  136.29   10.70
   4  -1   7  148.29   11.40
  -1  -4   7  133.99   10.90
  -1  -4   7  153.28    9.30
   3   4  -7  156.08   11.40
  -3  -4  -7  143.69   10.00
   3   4  -7  142.99    7.00
   3   4  -7  123.99   10.80
   3   4  -7  142.89   11.70
  -4   3  -7  135.49   10.40
   4  -3  -7  148.09   11.90
  -3  -4  -7  148.89   11.80
  -3  -4  -7  142.69   11.10
  -3  -4  -7  162.58   13.40
  -4   3  -7  161.28   12.00
  -4   3  -7  156.28   12.70
  -4   3  -7  154.18    9.70
   3   4  -7  145.99   10.60
  -4   3  -7  148.99   10.50
   4  -3  -7  164.68    9.90
   4  -3  -7  160.38   11.90
  -3  -4  -7  151.68   10.00
  -4   3   7  140.09   13.10
   4  -3   7  146.09    8.00
   3   4   7  163.88   10.60
   4  -3   7  138.79   10.90
  -3  -4   7  138.39   10.20
  -4   3   7  154.28   11.40
   3   4   7  118.89   13.00
  -3  -4   7  148.69   10.20
   3   4   7  154.48   10.60
  -4   3   7  134.79    9.50
   4  -3   7  140.09   10.50
   4  -3   7  137.69   10.00
  -3  -4   7  156.68   10.20
   3   4   7  147.39    6.80
   3   4   7  158.58    8.90
  -3  -4   7  145.79   12.20
   3   4   7  156.28   12.10
  -4   3   7  161.38   11.20
  -3  -4   7  164.18   11.20
   4  -3   7  139.69   11.60
   4  -5  -7  138.89    8.80
   5   4  -7  143.49   10.80
  -4   5  -7  149.79   13.20
   4  -5  -7  128.99   11.60
   4  -5  -7  146.09   11.40
   5   4  -7  134.99   11.00
  -5  -4  -7  130.39   10.90
  -5  -4  -7  143.19   11.80
  -4   5  -7  143.59    8.30
  -4   5  -7  138.39   10.40
   5   4  -7  121.89   11.70
  -4   5  -7  136.69   12.50
  -5  -4  -7  146.29   14.30
  -4   5  -7  144.19   10.50
   5   4  -7  139.99   11.40
  -5  -4  -7  122.89    9.50
  -5  -4  -7  140.69   10.00
  -5  -4   7  127.99   10.20
   5   4   7  139.79   10.00
   5   4   7  134.59   10.60
  -4   5   7  117.49   11.00
  -5  -4   7  142.39   10.60
  -5  -4   7  160.48   10.80
   4  -5   7  130.89   10.40
   5   4   7  161.18   13.10
   5   4   7  156.98   13.30
  -4   5   7  125.59   11.00
   4  -5   7  122.69    9.70
   4  -5   7  119.99    7.90
  -5  -4   7  128.59   12.30
  -4   5   7  133.09   14.60
  -5  -4   7  138.99   10.00
   2  -5  -7  133.79    9.10
  -5  -2  -7  140.79   11.10
   5   2  -7  109.59   10.30
   2  -5  -7  121.79   11.90
   5   2  -7  141.99   10.40
  -5  -2  -7  128.19    9.70
  -5  -2  -7  124.89    9.30
  -2   5  -7  140.09   11.80
   5   2  -7  140.69   11.00
  -5  -2  -7  126.09   10.80
  -2   5  -7  130.99    9.20
  -2   5  -7  132.59    8.60
  -2   5  -7  149.29   12.20
   5   2  -7  130.39    9.90
  -2   5  -7  138.59   11.30
  -5  -2  -7  121.49   12.10
   2  -5  -7  119.29   11.30
  -2   5  -7  121.09   10.00
  -2   5   7  145.29   10.50
  -2   5   7  121.89    8.60
   5   2   7  128.49   10.50
  -5  -2   7  135.09   10.20
   2  -5   7  133.79   10.70
   2  -5   7  136.89    9.50
  -2   5   7  147.79   13.50
  -5  -2   7  138.19    8.90
  -5  -2   7  137.19    9.80
  -2   5   7  121.19    9.40
   5   2   7  142.59   11.50
   2  -5   7  127.29   10.90
   2  -5   7  122.69    9.90
   5   2   7  130.59    9.70
   2  -5   7  131.59    8.00
  -2   5   7  124.39    9.00
  -5  -2   7  123.59    9.50
  -2   5   7  134.39   11.00
  -5  -2   7  124.69   12.70
  -2   5   7  122.29   10.10
   5   0  -7  130.69   11.20
  -5   0  -7  154.18   10.80
   0  -5  -7  149.79   13.00
   0   5  -7  156.98   12.00
   0   5  -7  145.19    9.60
   5   0  -7  153.48   11.10
   0  -5  -7  164.98    7.90
  -5   0  -7  142.99   12.20
   0  -5  -7  155.48    9.70
  -5   0  -7  157.48   11.50
   0   5  -7  162.38   11.10
   0   5  -7  158.08    9.20
   0  -5  -7  146.79   12.30
   0   5  -7  156.68   12.00
  -5   0  -7  133.19   10.00
   5   0  -7  137.39   12.20
   5   0  -7  132.99   10.20
   0  -5  -7  152.98   10.10
   0   5  -7  149.49   11.00
  -5   0   7  152.48   10.70
   0  -5   7  129.89   11.00
   0   5   7  177.98   10.00
   0  -5   7  137.89    9.80
   0   5   7  153.28   13.50
   0   5   7  148.89    9.50
   0   5   7  142.39   10.80
  -5   0   7  146.29    9.90
  -5   0   7  139.29   13.10
   5   0   7  135.29   11.10
   0  -5   7  141.99   11.40
   0  -5   7  136.59    9.10
   0  -5   7  147.19   11.60
   5   0   7  153.98   10.20
   0   5   7  141.39    9.50
  -5   0   7  133.09   10.90
   5   0   7  152.48   11.30
   0   5   7  145.69   10.80
   0  -5   7  147.19    9.90
  -5   2  -7  132.29   12.90
   2   5  -7  124.39    7.40
  -5   2  -7  120.79    9.50
  -2  -5  -7  120.19    9.10
   5  -2  -7  119.89   10.40
   5  -2  -7  131.49    9.00
  -5   2  -7  130.09    9.90
  -5   2  -7  143.19   10.80
   2   5  -7  120.79   11.20
   5  -2  -7  144.59   11.60
   2   5  -7  123.99    9.60
  -2  -5  -7  136.39   12.60
  -2  -5  -7  141.39   10.40
   2   5  -7  136.89   11.40
  -2  -5  -7  144.29   11.50
   2   5  -7  140.19   10.90
  -5   2  -7  148.49   12.10
   2   5  -7  161.98   17.90
  -2  -5  -7  138.79    9.10
   2   5   7  138.29    8.60
   5  -2   7  137.19   10.00
  -5   2   7  134.59   10.80
   2   5   7  131.29   10.20
  -5   2   7  125.89   12.70
  -5   2   7  141.39   11.00
   5  -2   7  132.19    6.90
   2   5   7  137.79   11.40
  -2  -5   7  127.19    8.80
   5  -2   7  126.89   10.40
   2   5   7  138.69    7.90
   5  -2   7  129.49   11.00
  -2  -5   7  129.89   11.40
  -2  -5   7  131.39    9.10
   2   5   7  136.09    8.90
  -2  -5   7  133.29   10.70
  -2  -5   7  128.79   10.10
  -5   4  -7  132.59    9.00
   4   5  -7  135.29   10.40
  -4  -5  -7  154.08   10.90
  -5   4  -7  140.39   10.70
   5  -4  -7  141.89    8.70
   4   5  -7  148.99   12.50
   5  -4  -7  136.09   11.80
   4   5  -7  142.99   11.90
  -4  -5  -7  162.48   12.20
  -4  -5  -7  134.29    9.80
  -5   4  -7  125.89   11.90
   4   5  -7  145.69    7.10
  -4  -5  -7  140.39    9.70
   5  -4  -7  115.29   11.90
   4   5  -7  147.59   11.60
  -4  -5  -7  145.29   14.00
  -5   4  -7  107.69   12.80
   5  -4   7  146.89    8.00
   5  -4   7  140.79   10.10
  -5   4   7  150.18   11.50
  -4  -5   7  121.09    9.50
  -5   4   7  164.68   12.00
  -4  -5   7  116.29   10.30
   5  -4   7  155.88   10.70
   4   5   7  147.59    8.80
   4   5   7  127.49   13.80
  -4  -5   7  134.89   12.10
   4   5   7  121.29   10.50
   4   5   7  107.79   12.00
  -4  -5   7  136.89   10.40
  -4  -5   7  128.59   10.30
  -5   4   7  140.89   15.00
   5  -6  -7   68.19    9.50
  -5   6  -7   82.49   11.10
  -6  -5  -7   75.69    9.90
  -6  -5  -7   75.99    7.40
  -6  -5  -7   87.19   15.10
  -6  -5  -7   57.39   10.20
   5  -6  -7   54.29   10.30
   6   5  -7   66.89    9.70
   6   5  -7   67.89    8.90
  -5   6  -7   71.69    9.20
   6   5   7   59.69   10.80
  -6  -5   7   62.19    7.80
  -5   6   7   65.09    9.20
  -5   6   7   81.99   10.60
  -6  -5   7   71.89    8.60
   5  -6   7   70.89    8.50
   5  -6   7   76.99    6.30
   6   5   7   67.69    8.20
   6   5   7   75.49   11.20
   5  -6   7   53.89    8.20
  -6  -5   7   67.89    8.50
  -6  -5   7   48.30   17.40
  -3   6  -7  103.09    9.40
   3  -6  -7  103.69   11.20
   6   3  -7  107.69   10.20
   6   3  -7  101.29   10.00
  -3   6  -7  104.19   11.10
  -6  -3  -7  122.59    9.10
   3  -6  -7  100.89    7.50
  -3   6  -7  104.19   11.80
  -6  -3  -7  120.29   11.20
   3  -6  -7  106.49   11.20
  -6  -3  -7  106.99   10.40
   6   3  -7  115.39   10.00
  -3   6  -7  112.69    9.00
  -6  -3  -7   82.99   13.20
  -6  -3   7  111.99   10.10
  -3   6   7  106.19   10.70
  -3   6   7  117.49    8.00
  -3   6   7  111.49   10.70
  -3   6   7  132.69    8.70
   3  -6   7  107.19    9.20
   6   3   7  107.09    9.00
  -6  -3   7   91.79   12.60
   3  -6   7  102.49    8.90
   6   3   7   96.89   10.80
   3  -6   7  112.39    9.90
   6   3   7   98.19    9.70
  -6  -3   7  104.99    8.60
   3  -6   7   92.89    7.60
  -3   6   7  102.19   14.30
  -6  -3   7  112.89    9.50
  -1   6  -7  145.69   12.10
  -1   6  -7  123.89   10.20
  -6  -1  -7  119.09   12.80
   6   1  -7  119.09    9.80
  -6  -1  -7  129.89   11.40
   1  -6  -7  138.29   12.00
  -1   6  -7  143.49    9.30
  -1   6  -7  118.19   10.00
  -1   6  -7  109.09   11.00
   6   1  -7  148.99   11.70
  -1   6  -7  132.49    8.40
   6   1  -7  133.09    9.90
  -6  -1  -7  129.19   10.80
   1  -6  -7  128.89    9.00
   1  -6  -7  119.69   12.00
  -1   6   7  127.59   10.20
   6   1   7  128.69    9.60
  -1   6   7  152.18   10.60
  -1   6   7  139.09   10.90
  -1   6   7  133.59   14.00
   1  -6   7  127.79    8.20
   1  -6   7  129.79   10.50
  -6  -1   7  120.19   10.80
  -6  -1   7  131.39   10.30
  -6  -1   7  108.79   13.60
  -1   6   7  115.29    9.10
   6   1   7  112.69   10.40
   1  -6   7  140.69    9.60
   6   1   7  127.39   10.70
  -1   6   7  130.59    9.00
  -6   1  -7  127.39   11.00
  -1  -6  -7  132.49    7.90
  -6   1  -7  129.49   10.10
   6  -1  -7  126.49   12.50
   1   6  -7  140.39   11.30
   1   6  -7  120.69   10.90
  -6   1  -7  128.39   12.90
   1   6  -7  124.19   11.10
   1   6  -7  129.09   11.70
  -1  -6  -7  129.29    9.40
  -1  -6  -7  122.39   11.70
  -1  -6  -7  152.38   10.50
  -1  -6  -7  132.09   12.90
   1   6  -7  135.19    8.30
   6  -1  -7  139.79   10.40
   6  -1  -7  118.69    9.30
  -6   1  -7  134.49   11.70
   6  -1   7  111.69    9.30
  -1  -6   7  138.09    9.10
  -1  -6   7  115.69   10.70
  -6   1   7  135.89   10.60
   1   6   7  152.38    9.50
  -6   1   7  131.29   13.10
  -1  -6   7  127.79    9.30
   6  -1   7  120.49   10.20
   1   6   7  146.39   13.50
  -6   1   7  150.98   11.30
  -1  -6   7  123.89   11.10
  -1  -6   7  146.09   10.20
   1   6   7  146.19   11.20
   1   6   7  143.69    9.50
   1   6   7  139.89    8.70
   1   6   7  118.19   10.40
   6  -3  -7  112.29   11.60
   3   6  -7  117.79    7.10
  -6   3  -7  120.79   11.60
   6  -3  -7  101.39    9.50
  -6   3  -7  108.79    8.70
  -3  -6  -7  102.99    8.60
  -6   3  -7  118.49   10.20
  -3  -6  -7  109.09   11.40
  -6   3  -7  135.39   15.10
  -3  -6  -7  125.89   13.00
   3   6  -7   92.49   10.80
  -3  -6  -7  123.59   10.40
   3   6  -7  113.09   10.90
  -3  -6  -7  111.49    8.50
   3   6  -7   97.79   11.50
   6  -3  -7  115.89    7.90
  -3  -6   7   92.89   11.10
  -3  -6   7  120.29    8.90
  -6   3   7   97.29   10.60
  -3  -6   7  105.29    8.60
  -3  -6   7  109.59   10.00
  -3  -6   7  119.59   10.10
   6  -3   7  120.79    9.40
   6  -3   7  119.89    6.60
   3   6   7   99.99   11.70
   3   6   7   99.49   12.90
   3   6   7  112.79    8.30
   6  -3   7  105.99    9.10
  -6   3   7  114.19   19.80
  -6   3   7  100.59   10.90
   3   6   7  132.09   10.20
  -5  -6  -7   63.79   10.30
  -5  -6  -7   61.79    6.70
  -5  -6  -7   49.70    9.50
   5   6  -7   60.89    9.80
   6  -5  -7   73.99    6.60
   5   6  -7   66.19    9.20
  -6   5  -7   76.19    9.80
   6  -5  -7   76.99    9.20
   6  -5  -7   60.19    8.80
  -5  -6  -7   51.09    9.50
  -6   5  -7   59.79   10.50
  -5  -6  -7   68.59    7.00
  -5  -6   7   76.89    8.90
  -5  -6   7   69.79    8.40
   6  -5   7   75.69    8.00
   5   6   7   74.09    8.50
  -5  -6   7   84.49    7.80
  -6   5   7   50.79    9.00
   6  -5   7   58.19    6.20
   5   6   7   82.39    7.40
  -6   5   7   73.69   10.70
  -5  -6   7   94.39   11.70
   6  -5   7   69.69    8.10
   5   6   7   84.89   12.30
   7   6  -7   64.59   10.80
   6  -7  -7   66.49   12.20
  -6   7  -7   60.59    9.60
   7   6  -7   61.09    9.40
  -6   7  -7   40.80    7.10
  -7  -6  -7   44.80    6.40
  -7  -6  -7   45.10    7.40
   6  -7  -7   43.80    7.40
  -7  -6  -7   69.09   11.80
   7   6   7   47.20    8.30
   7   6   7   55.49    6.90
  -6   7   7   36.90    7.20
  -7  -6   7   48.20    8.70
  -7  -6   7   67.09    8.30
   6  -7   7   58.19    7.60
   6  -7   7   38.50    4.90
   7   6   7   77.29   14.20
   6  -7   7   40.60    5.90
  -7  -6   7   63.29    9.00
  -4   7  -7   99.89   17.40
  -4   7  -7   79.19   11.40
   4  -7  -7   89.99   10.60
  -4   7  -7   81.09    9.30
  -7  -4  -7   65.39    9.90
  -7  -4  -7   56.79    7.20
   7   4  -7   60.89    9.70
   7   4  -7   73.29    8.20
   4  -7  -7   74.79   10.80
  -7  -4  -7   67.49   10.70
   4  -7   7   67.79    7.00
   7   4   7   88.69   11.10
  -7  -4   7   75.79    9.20
  -7  -4   7   92.19    8.70
  -4   7   7   61.99    9.90
  -4   7   7   88.99   10.60
   7   4   7  107.49   14.30
   4  -7   7   64.69    8.70
  -7  -4   7   92.59    9.70
   7   4   7   84.69    8.60
   4  -7   7   71.09    8.80
  -2   7  -7   88.29   14.40
   7   2  -7   62.59    9.50
  -7  -2  -7   81.49    9.60
   7   2  -7   60.59    8.70
   2  -7  -7   67.69   11.20
   2  -7  -7   77.69   11.40
  -2   7  -7   94.89    8.20
   2  -7  -7   82.69    6.90
  -7  -2  -7   67.09    9.80
   7   2  -7   66.69    8.40
  -2   7  -7   72.59   10.80
  -2   7  -7   81.69    8.70
  -2   7  -7   75.89   10.20
  -7  -2   7   68.59    9.60
  -2   7   7   76.99    9.60
   7   2   7   82.49    8.30
  -7  -2   7   86.09    9.10
   2  -7   7   70.39    6.60
  -2   7   7   67.89    9.50
   7   2   7   74.59    9.10
   2  -7   7   78.29    9.20
  -2   7   7   66.99    6.60
  -2   7   7   76.19   11.50
  -2   7   7   62.59    9.80
   2  -7   7   66.89    8.40
   0  -7  -7  103.89   11.40
  -7   0  -7   76.49   10.20
   7   0  -7   79.49    8.40
   7   0  -7   84.89    8.70
   0   7  -7   93.09    8.00
  -7   0  -7   97.99    9.20
   0   7  -7   88.79   10.90
   7   0  -7   79.59   10.60
  -7   0  -7   60.19   16.80
   0  -7  -7   94.09   11.80
   0   7  -7   74.89    9.80
   0   7  -7   63.59   10.10
   0  -7  -7   98.19    8.20
   0   7  -7   79.39    9.30
   7   0   7   94.39    8.50
   0   7   7  105.79   10.70
   0   7   7   77.09    9.10
  -7   0   7   83.69   10.10
   0   7   7   93.29    7.80
   0  -7   7   90.89    9.80
   0   7   7   98.09    9.00
   0   7   7   98.99   13.10
   0  -7   7   89.99    8.10
   7   0   7   77.09    9.10
   0  -7   7   91.09    7.20
  -7   0   7   73.99    9.00
   0   7   7   83.89    7.10
  -2  -7  -7   79.29   10.80
  -7   2  -7   64.19    9.50
  -2  -7  -7   81.09    6.80
   2   7  -7   82.19   10.30
   7  -2  -7   91.29    7.80
   7  -2  -7   75.69   11.60
   7  -2  -7   64.29    8.10
  -2  -7  -7   92.99    7.90
   2   7  -7   74.69   10.30
  -7   2  -7   80.49   10.10
  -2  -7  -7   80.89   12.60
  -7   2  -7   94.39    8.70
  -2  -7  -7   88.29    9.00
   2   7  -7   80.89    7.00
   2   7  -7   72.29    9.90
   2   7   7   91.59    9.60
   2   7   7   70.09   11.40
   7  -2   7   69.89    8.20
   2   7   7   87.69   12.30
   7  -2   7   65.09    8.40
  -2  -7   7   74.69    7.70
   2   7   7   75.49    7.40
  -7   2   7   73.19    9.20
   2   7   7   95.39    7.70
  -2  -7   7   77.49    7.60
  -2  -7   7   67.59    8.30
  -7   2   7   81.09   10.20
  -2  -7   7   73.99   10.00
   7  -4  -7   79.39    7.10
   4   7  -7   65.89   10.00
  -7   4  -7   85.59   10.30
   7  -4  -7   54.99    8.60
  -4  -7  -7   87.79   14.90
  -7   4  -7   59.79    9.00
  -4  -7  -7   68.89    6.90
  -4  -7  -7  104.79   11.30
   7  -4  -7   59.29    8.20
   4   7  -7   79.09   10.60
  -4  -7  -7   88.59    8.20
  -4  -7  -7   94.09    9.60
   4   7   7   78.19   12.80
  -4  -7   7   62.59    7.80
   7  -4   7   82.69    9.10
  -7   4   7   74.99   10.30
  -4  -7   7   87.69   11.70
   7  -4   7   76.99    7.80
  -4  -7   7   79.39    9.00
  -7   4   7   89.49   11.40
   4   7   7   89.99    9.30
  -4  -7   7   75.19    8.30
   4   7   7   66.19   10.00
   7  -4   7   81.89    8.10
   4   7   7   69.99    7.40
  -6  -7  -7   49.80    7.40
   7  -6  -7   38.40    8.00
   6   7  -7   55.49   10.20
   6   7  -7   57.29   10.50
   7  -6  -7   52.69    9.70
  -6  -7  -7   52.59    9.40
  -7   6  -7   48.70    8.50
  -6  -7  -7   54.99    6.50
  -7   6  -7   45.30    7.20
   6   7   7   62.29    7.70
   6   7   7   35.60    8.60
   7  -6   7   48.50    7.70
  -7   6   7   45.80    8.40
   6   7   7   53.49    7.10
   7  -6   7   50.39    9.00
  -6  -7   7   46.50    7.90
   7  -6   7   62.59    7.50
  -6  -7   7   68.69    8.80
  -7   6   7   31.50    8.50
   5  -8  -7   51.39    8.70
   8   5  -7   35.80    6.20
  -8  -5  -7   40.90    8.80
  -5   8  -7   32.80    7.50
   8   5  -7   48.10    6.50
   5  -8  -7   43.80    8.20
  -8  -5  -7   34.90    7.10
  -5   8  -7   63.89   10.20
   5  -8   7   33.70    6.00
  -8  -5   7   58.59   10.00
   5  -8   7   51.09    8.80
   8   5   7   44.00    9.60
  -5   8   7   44.60    8.40
  -8  -5   7   50.19    7.00
  -8  -5   7   40.20    6.90
  -5   8   7   48.50    8.70
   5  -8   7   42.60    6.90
   8   5   7   45.20    6.20
   8   5   7   58.89   11.00
  -8  -3  -7   53.89    8.60
   8   3  -7   52.39    7.60
   3  -8  -7   42.80    8.60
  -3   8  -7   73.09   11.20
   3  -8  -7   64.39   11.00
  -8  -3  -7   56.89    9.80
  -3   8  -7   55.19   12.40
   8   3  -7   51.59    9.30
  -3   8  -7   54.89    8.70
  -8  -3   7   66.69    8.90
   8   3   7   45.20    7.70
  -3   8   7   61.39   10.30
  -8  -3   7   57.89    9.70
  -3   8   7   70.19   12.50
   8   3   7   58.19    9.30
   3  -8   7   54.69    7.00
   3  -8   7   59.79    9.60
   3  -8   7   60.59    8.40
  -3   8   7   71.19   11.00
  -8  -3   7   43.50   12.30
   1  -8  -7   67.49   12.00
   8   1  -7   69.39    9.80
  -1   8  -7   77.59    8.30
  -1   8  -7   47.50    9.90
   1  -8  -7   45.50    8.20
   1  -8  -7   91.99   10.50
  -1   8  -7   56.19    8.70
  -1   8  -7   70.69    9.90
  -8  -1  -7   59.39    9.80
  -1   8  -7   65.09    9.90
   8   1  -7   71.49    7.10
  -8  -1  -7   81.09    9.30
   8   1  -7   73.89    8.30
   1  -8   7   66.69    6.90
  -1   8   7   84.19   14.00
  -1   8   7   61.19    6.40
  -8  -1   7   69.29    9.00
   1  -8   7   57.49    9.60
  -1   8   7   71.69   10.10
   1  -8   7   65.59    8.40
  -1   8   7   78.09   11.10
   8   1   7   49.40    8.40
   8   1   7   48.00    7.70
  -8  -1   7   59.39    9.40
  -1   8   7   62.09    9.80
   8  -1  -7   56.09    9.90
   1   8  -7   58.19    7.20
  -1  -8  -7   69.49   12.50
   1   8  -7   56.09    9.90
  -8   1  -7   55.39   10.20
  -1  -8  -7   73.49   10.60
  -8   1  -7   69.09    8.90
   1   8  -7   72.19   12.70
   8  -1  -7   59.19    7.50
  -8   1  -7   51.29    9.40
   1   8  -7   55.19    9.90
  -1  -8  -7   75.49    8.60
   1   8  -7   67.99   10.60
   8  -1  -7   54.89    7.60
  -1  -8  -7   51.29    6.80
  -8   1   7   39.80    7.40
  -1  -8   7   69.19    8.40
   8  -1   7   61.69    8.20
   1   8   7   42.40    7.60
   1   8   7   67.19    7.60
   1   8   7   77.29    9.00
  -1  -8   7   73.89   10.50
  -1  -8   7   71.99   10.20
  -1  -8   7   59.29    7.10
   1   8   7   62.79    9.00
   1   8   7   68.59   11.80
   8  -1   7   42.60    7.10
  -8   1   7   56.89    8.20
  -3  -8  -7   51.79    9.10
   8  -3  -7   76.09    7.50
  -8   3  -7   39.90   12.00
  -3  -8  -7   51.79    8.40
   3   8  -7   57.79    7.30
   3   8  -7   44.20    7.10
  -3  -8  -7   66.59    7.40
   8  -3  -7   53.39    8.50
   8  -3  -7   48.60    8.80
  -3  -8  -7   38.30    9.90
  -3  -8  -7   59.19    6.60
  -8   3  -7   66.19   10.30
  -8   3  -7   72.49   10.80
   8  -3   7   60.89    8.70
  -3  -8   7   65.29    7.30
   8  -3   7   46.50    7.20
  -3  -8   7   58.69    9.00
   3   8   7   54.39    9.10
  -3  -8   7   60.89    7.80
  -8   3   7   37.00    7.00
   3   8   7   65.59    8.80
  -5  -8  -7   35.40    6.60
  -8   5  -7   40.60    8.00
  -8   5  -7   52.29    8.80
   5   8  -7   41.90    8.00
   8  -5  -7   57.49    9.20
  -5  -8  -7   40.50    8.20
   5   8  -7   68.99   10.90
   8  -5  -7   60.29    8.70
   5   8   7   33.90    9.00
   5   8   7   64.09    8.80
   8  -5   7   46.70    7.40
   8  -5   7   37.40    6.80
  -8   5   7   63.29   10.60
  -5  -8   7   42.00    6.50
   5   8   7   53.59    8.10
   5   8   7   77.69   14.50
  -5  -8   7   49.80    8.10
   4  -9  -7   40.30    8.90
  -9  -4  -7   25.50    7.70
   4  -9  -7   45.70    9.20
  -4   9  -7   31.00    7.00
   9   4  -7   50.59    7.70
   9   4  -7   35.40    6.60
  -9  -4  -7   28.00    7.10
  -9  -4   7   29.20   14.70
   9   4   7   28.90    6.40
  -4   9   7   50.29    8.20
   4  -9   7   36.00    6.10
  -9  -4   7   55.39    9.60
   9   4   7   41.70    6.10
   4  -9   7   48.00    7.50
  -4   9   7   40.10    8.00
  -9  -4   7   32.80    7.20
   4  -9   7   25.10    5.60
   9   2  -7   43.00    6.50
   9   2  -7   59.49    8.90
  -2   9  -7   55.09    9.50
  -2   9  -7   69.89   11.40
  -9  -2  -7   48.30    8.20
   2  -9  -7   43.20    8.30
   9   2  -7   67.19    7.30
  -2   9  -7   73.49   11.70
  -9  -2  -7   45.00    8.30
   2  -9  -7   52.19    8.30
  -2   9   7   74.29   12.60
   9   2   7   50.49    8.70
   2  -9   7   57.59    7.20
   2  -9   7   55.39    9.90
  -9  -2   7   66.39    9.80
   2  -9   7   52.19    7.00
  -9  -2   7   48.90    7.60
   9   2   7   39.00    6.40
  -2   9   7   64.89   10.80
  -2   9   7   51.89    8.20
   0   9  -7   84.59    8.80
   0  -9  -7   92.39   13.00
  -9   0  -7   59.69    9.70
   0   9  -7   79.99   12.10
   9   0  -7   91.19    9.50
   9   0  -7   77.99    7.10
   0   9  -7   65.99   10.20
   0   9  -7  100.59   12.20
   0   9  -7   52.39   11.00
   0  -9  -7   82.39   12.00
  -9   0  -7   59.19    9.10
   9   0  -7   83.39   11.00
   9   0   7   82.59    8.90
  -9   0   7   93.19   11.50
   9   0   7   83.59    8.40
   0   9   7   71.79   12.90
   0   9   7   71.79   10.80
  -9   0   7   77.09   10.80
   0  -9   7   73.69    9.20
   0   9   7   72.79    7.80
   0  -9   7   55.89    7.60
   0  -9   7   68.79   10.80
   0   9   7   95.89   10.00
   0   9   7   92.69   13.70
   9  -2  -7   56.99    7.90
  -2  -9  -7   60.59   11.30
   2   9  -7   55.09    8.40
  -2  -9  -7   56.09    6.50
  -2  -9  -7   59.79    9.50
  -9   2  -7   58.29    9.30
  -2  -9  -7   78.69   10.20
   2   9  -7   69.69   11.80
  -9   2  -7   43.30   13.90
   9  -2  -7   70.29   11.00
  -9   2  -7   48.90    8.20
   2   9  -7   74.89   11.00
   9  -2  -7   44.60    7.10
   2   9   7   54.19   10.10
   2   9   7   46.10    8.80
  -2  -9   7   56.49   10.50
  -9   2   7   56.89    8.90
   9  -2   7   51.79    7.30
  -9   2   7   67.99   10.30
  -2  -9   7   49.99    7.50
   2   9   7   55.29    9.60
   9  -2   7   64.79    9.10
  -2  -9   7   57.19    8.70
  -2  -9   7   61.99   11.60
  -9   4  -7   30.40    7.60
  -9   4  -7   34.30    8.20
  -4  -9  -7   41.00    7.20
   9  -4  -7   22.80    6.80
   9  -4  -7   40.70    7.20
  -4  -9  -7   35.20    7.60
  -4  -9  -7   37.50   11.60
   4   9  -7   32.20    8.00
  -4  -9  -7   37.10    6.40
   4   9  -7   21.70    6.40
  -4  -9   7   45.70    8.50
  -4  -9   7   41.50    6.20
   9  -4   7   27.30    5.80
   4   9   7   35.20    9.80
  -4  -9   7   18.60   18.40
  -4  -9   7   34.70    5.70
   4   9   7   47.60    9.70
  -9   4   7   22.00    8.10
  -9   4   7   33.80    7.00
   9  -4   7   36.80    6.80
   4   9   7   34.50    6.40
  -1  10  -7   84.19   12.40
 -10  -1  -7   37.60    8.40
 -10  -1  -7   64.49   11.90
  10   1  -7   59.09   10.10
  -1  10  -7   78.09   10.80
  -1  10  -7   67.79   14.50
   1 -10  -7   51.59   11.30
  -1  10  -7   45.50    8.20
  10   1  -7   89.39   12.50
   1 -10  -7   51.19    9.40
  10   1  -7   60.09    6.50
  -1  10  -7   72.89    9.90
 -10  -1   7   74.59   11.70
  -1  10   7   95.49   15.70
   1 -10   7   51.39    9.00
   1 -10   7   73.09    8.70
  10   1   7   54.09    9.60
 -10  -1   7   63.39   10.90
  10   1   7   58.99    7.60
   1 -10   7   54.39   10.50
  -1  10   7   80.49   11.80
 -10   1  -7   71.39   12.00
  -1 -10  -7   50.19   12.30
  10  -1  -7   73.49    6.20
  10  -1  -7   68.49    9.50
  -1 -10  -7   41.10    9.00
 -10   1  -7   65.79   10.30
   1  10  -7   59.39    9.40
   1  10  -7   74.99    9.40
   1  10   7   57.39   11.90
 -10   1   7   42.90    8.20
   1  10   7   73.79   11.20
   1  10   7   73.29    9.40
  -1 -10   7   63.79    8.70
  10  -1   7   51.99    7.10
  -1 -10   7   66.09   11.80
  10  -1   7   64.69   10.00
  -1 -10   7   71.99    9.80
 -10   1   7   44.90    7.80
   0   0  -8 1251.57   52.89
   0   0  -8 1310.67   48.90
   0   0  -8 1308.77   53.29
   0   0  -8 1268.27   51.39
   0   0  -8 1334.87   54.69
   0   0   8 1302.47   54.69
   0   0   8 1290.07   49.90
   0   0   8 1274.27   52.29
   0   0   8 1259.27   51.09
  -1  -1  -8  182.98   13.20
   1  -1  -8  156.98   13.10
  -1   1  -8  163.18   13.40
  -1   1  -8  168.68   11.70
  -1   1  -8  175.88   12.50
   1   1  -8  164.58    8.60
  -1  -1  -8  178.48   11.30
   1  -1  -8  169.18   12.50
   1   1  -8  192.18   13.30
  -1  -1  -8  171.68   10.70
   1   1  -8  168.48   13.00
  -1  -1  -8  168.68   12.90
   1  -1  -8  166.08    9.10
  -1  -1  -8  186.98   14.10
   1   1  -8  131.89   21.00
  -1   1  -8  189.58   10.70
   1  -1  -8  165.48   14.00
   1   1  -8  179.68   14.40
  -1   1  -8  214.88   15.40
  -1  -1   8  183.08   12.60
  -1   1   8  175.88   10.60
  -1  -1   8  171.88   11.30
   1  -1   8  158.18   11.80
  -1   1   8  167.48   12.60
   1  -1   8  164.08    9.50
   1   1   8  167.38   10.40
   1   1   8  166.78    9.50
  -1  -1   8  174.68   14.60
   1   1   8  163.68   12.30
   1  -1   8  175.88    9.80
  -1   1   8  177.28   11.10
  -1  -1   8  190.78   11.20
   1  -1   8  142.39   14.70
  -1   1   8  182.08   15.20
   1   1   8  174.78   15.30
   1   1   8  186.48    9.50
  -1  -1   8  196.98   11.90
   1  -1   8  167.68   12.00
   1   1   8  162.08   11.80
   0   2  -8  550.94   26.00
  -2   0  -8  535.25   25.50
  -2   0  -8  551.04   28.20
   0   2  -8  564.94   27.80
   0  -2  -8  540.85   23.30
   0   2  -8  550.84   22.70
  -2   0  -8  552.14   26.30
   0  -2  -8  557.64   24.80
   0  -2  -8  544.45   27.40
   0  -2  -8  461.05   27.40
  -2   0  -8  534.95   26.70
   0  -2  -8  562.34   26.10
   0   2  -8  556.64   27.30
   2   0  -8  564.94   26.90
   2   0  -8  563.14   27.80
   2   0  -8  522.75   25.50
   0   2  -8  511.95   25.10
  -2   0  -8  568.74   24.40
   0   2   8  548.95   23.70
  -2   0   8  565.94   23.60
   2   0   8  563.84   22.20
   2   0   8  524.15   25.50
   0  -2   8  547.35   24.80
   0  -2   8  541.25   25.80
   2   0   8  549.54   27.70
   2   0   8  542.55   25.90
  -2   0   8  547.75   24.90
   0  -2   8  552.34   25.60
   0   2   8  560.94   24.00
   0  -2   8  544.85   23.60
  -2   0   8  562.14   28.70
   0   2   8  559.74   23.70
   0   2   8  564.64   24.70
  -2   0   8  528.95   25.10
  -2   0   8  527.35   25.90
   0   2   8  535.15   28.60
   0  -2   8  549.25   27.70
   0   2   8  539.85   26.10
  -2   2  -8  290.67   18.40
  -2   2  -8  296.17   16.00
   2   2  -8  270.87   16.00
   2  -2  -8  262.37   17.60
  -2   2  -8  275.17   16.40
   2   2  -8  287.67   17.60
  -2   2  -8  278.67   14.80
   2   2  -8  291.77   16.80
   2   2  -8  266.77   16.70
  -2   2  -8  261.67   17.50
   2  -2  -8  263.57   15.60
  -2  -2  -8  297.47   17.70
  -2  -2  -8  295.07   19.10
   2  -2  -8  296.47   18.60
  -2  -2  -8  300.67   17.10
  -2  -2  -8  277.57   15.50
   2   2   8  284.27   13.30
   2  -2   8  281.57   17.60
  -2  -2   8  261.47   15.80
   2   2   8  257.27   16.00
  -2  -2   8  303.67   19.00
  -2  -2   8  275.77   15.40
   2   2   8  268.47   15.60
  -2   2   8  264.07   16.60
  -2   2   8  270.37   15.70
  -2  -2   8  275.17   15.10
   2  -2   8  289.27   17.10
  -2   2   8  264.87   14.90
   2  -2   8  258.87   15.60
   2  -2   8  283.87   13.00
   2   2   8  295.07   12.60
  -2  -2   8  270.77   15.70
   2   2   8  267.57   18.20
   1  -3  -8   31.10    5.80
  -1   3  -8   12.30    5.50
  -3  -1  -8   21.80    5.40
   1  -3  -8   23.00    5.80
   3   1  -8   24.40    6.00
  -3  -1  -8   19.50    5.90
   1  -3  -8   31.50    5.40
  -3  -1  -8   28.00    5.50
  -1   3  -8   38.30    6.60
   3   1  -8   23.40    4.70
  -1   3  -8   27.60    5.30
  -3  -1  -8   27.60    5.50
   3   1  -8   16.40    5.60
   1  -3  -8   27.70    6.60
   3   1  -8   29.30    7.00
  -1   3  -8   26.10    6.70
  -3  -1  -8   26.90    6.00
  -1   3  -8   32.90    6.10
  -1   3   8   30.30    5.50
   3   1   8   24.20    5.60
  -3  -1   8   38.10    7.90
  -3  -1   8   27.90    6.10
   1  -3   8   29.30    6.90
   3   1   8   18.00    4.90
  -1   3   8   28.90    5.80
   3   1   8   21.50    3.90
  -3  -1   8   21.00    4.20
   1  -3   8   28.30    5.90
  -3  -1   8   32.10    5.70
   1  -3   8   25.10    4.90
   1  -3   8   23.70    3.60
  -1   3   8   30.00    4.90
  -3  -1   8   41.00    5.90
  -1   3   8   13.80    5.10
   3   1   8   25.40    6.50
  -1   3   8   28.90    7.30
   1   3  -8   18.40    4.90
   1   3  -8   33.60    6.00
   3  -1  -8   21.40    5.60
   1   3  -8   32.80    5.40
  -3   1  -8   19.20    5.70
  -3   1  -8   19.80    4.90
  -3   1  -8   42.00    7.60
  -3   1  -8   34.90    6.20
  -1  -3  -8   37.00    7.30
  -1  -3  -8   17.00    6.00
  -1  -3  -8   30.30    5.30
  -3   1  -8   25.50    4.90
  -1  -3  -8   16.60    5.00
   3  -1  -8   21.80    4.70
   3  -1  -8   30.00    6.50
   1   3  -8   35.80    6.10
   1   3  -8   21.50    5.60
   3  -1   8   30.40    5.80
  -3   1   8   27.80    8.30
   1   3   8   20.80    6.70
  -1  -3   8   29.20    5.40
   1   3   8   31.50    5.10
  -1  -3   8   30.10    4.40
   1   3   8   24.40    5.00
  -3   1   8   28.00    5.70
   3  -1   8   32.00    6.90
   1   3   8   27.70    4.80
   3  -1   8   20.80    4.80
  -3   1   8   19.60    4.50
  -1  -3   8   37.70    7.40
   1   3   8   30.60    4.20
  -3   1   8   31.40    5.10
  -1  -3   8   31.30    6.80
  -1  -3   8   33.30    5.70
   3  -1   8   28.70    4.20
   1   3   8   25.80    5.60
  -3  -3  -8    1.50    5.30
   3   3  -8    7.10    4.50
   3   3  -8   -0.30    4.90
   3   3  -8    0.60    5.70
  -3  -3  -8    0.30    4.30
  -3   3  -8   -1.20    5.10
   3   3  -8    6.10    4.70
  -3   3  -8   -7.90    5.70
  -3   3  -8   -3.20    4.50
   3  -3  -8    0.80    5.10
  -3  -3  -8    0.60    7.70
   3  -3  -8    2.60    4.20
  -3   3  -8    1.80    4.30
   3  -3  -8    1.40    5.80
  -3   3  -8   -6.70    4.40
  -3   3   8   -5.20    4.10
   3  -3   8    4.30    4.10
  -3   3   8    3.40    5.40
  -3  -3   8    1.70    4.70
   3   3   8   -2.20    6.80
  -3  -3   8   -0.70    3.80
   3   3   8    2.30    3.90
  -3  -3   8    5.10    4.10
   3  -3   8    5.10    5.50
  -3  -3   8   -4.50    6.70
  -3  -3   8    1.10    4.10
  -3   3   8   -3.30    4.70
   3   3   8    3.40    4.20
   3  -3   8   -2.20    2.80
  -2   4  -8  158.28   10.40
  -4  -2  -8  132.89   10.30
   2  -4  -8  155.68   13.60
   2  -4  -8  146.69   13.30
   4   2  -8  144.59   12.10
  -2   4  -8  160.68   14.40
  -4  -2  -8  146.19   12.90
   4   2  -8  149.79   12.30
   4   2  -8  148.39   13.10
  -2   4  -8  155.58   11.40
  -4  -2  -8  138.59   13.70
  -2   4  -8  146.19   13.40
  -4  -2  -8  139.09   12.90
   2  -4  -8  150.58   10.80
  -2   4  -8  143.69   11.80
   4   2  -8  134.89   12.50
   2  -4   8  163.38    9.20
   2  -4   8  161.38   13.10
  -4  -2   8  152.88   11.80
  -4  -2   8  172.08   11.30
   4   2   8  154.18   12.00
  -2   4   8  137.29   10.00
  -2   4   8  140.09    9.90
   2  -4   8  139.59   11.10
   4   2   8  162.48   11.80
  -2   4   8  140.29   11.10
  -2   4   8  125.49   16.10
  -4  -2   8  144.19   15.50
  -4  -2   8  155.58   11.70
   4   2   8  171.58   15.00
  -2   4   8  155.68   12.20
   0  -4  -8  179.68   15.30
   0   4  -8  173.18   15.40
   0   4  -8  181.58   12.70
   4   0  -8  149.79   13.50
  -4   0  -8  177.78   15.50
   0  -4  -8  194.58   12.80
  -4   0  -8  161.18   11.70
   0  -4  -8  185.18   15.20
  -4   0  -8  187.48   12.90
   0   4  -8  190.48   10.20
  -4   0  -8  183.98   14.10
   0   4  -8  176.98   12.40
   4   0  -8  194.18   12.90
   0   4  -8  173.78   14.00
   0   4  -8  186.38   11.80
   4   0  -8  183.18   13.90
  -4   0  -8  175.28   12.70
   0  -4   8  166.78   12.10
   0   4   8  171.28   10.80
  -4   0   8  178.98   12.80
   0  -4   8  159.48   13.30
   0   4   8  184.48   11.30
   0  -4   8  164.68   11.80
   4   0   8  197.88   11.60
   0  -4   8  172.18   14.20
   4   0   8  168.78   14.30
  -4   0   8  183.58   15.80
  -4   0   8  179.18   12.60
   4   0   8  166.38   12.20
   4   0   8  182.98   12.80
   0   4   8  168.18   12.90
   0   4   8  174.78   10.60
   0  -4   8  170.68   10.60
   0   4   8  183.98   16.40
   2   4  -8  173.98   12.10
  -2  -4  -8  156.48   14.80
  -4   2  -8  162.88   13.30
   2   4  -8  152.48   13.00
  -4   2  -8  167.08   11.50
  -2  -4  -8  173.38   12.80
  -2  -4  -8  136.49   10.50
   2   4  -8  146.09   11.90
   4  -2  -8  135.39   13.60
  -4   2  -8  166.18   15.30
   2   4  -8  174.58   14.10
  -4   2  -8  147.89   11.30
   4  -2  -8  152.48   11.10
  -2  -4  -8  155.28   14.00
   4  -2  -8  154.88   13.90
  -2  -4   8  158.98   10.60
   4  -2   8  150.58   12.80
   2   4   8  156.48   12.40
  -4   2   8  135.29   12.20
   4  -2   8  144.29   11.10
  -2  -4   8  152.78   14.20
   2   4   8  161.48   15.30
  -2  -4   8  154.58   11.10
   2   4   8  145.29    9.50
  -4   2   8  193.78   17.30
  -4   2   8  151.08   11.90
  -2  -4   8  126.99   11.60
  -2  -4   8  151.98   11.00
   4  -2   8  154.48    8.20
   4  -4  -8  109.49   12.20
  -4   4  -8  100.39    9.80
  -4   4  -8  107.09   19.10
  -4  -4  -8  100.29    8.90
   4  -4  -8   83.09   12.10
  -4  -4  -8   67.49   11.00
   4  -4  -8  100.69    9.20
  -4  -4  -8   99.79   12.20
   4   4  -8   67.99   11.30
  -4  -4  -8  125.89   15.20
   4   4  -8   88.09   10.90
   4   4  -8   97.39   11.00
  -4   4  -8   73.49   11.90
  -4   4  -8  108.69   10.00
   4   4   8   88.89   10.10
   4  -4   8   93.69    6.80
  -4  -4   8   88.09   14.20
  -4   4   8   96.59   11.00
  -4  -4   8   85.19    9.70
   4  -4   8   84.89   10.70
  -4  -4   8   97.89    9.30
  -4  -4   8   97.39    9.40
  -4   4   8   90.39   10.60
   4  -4   8   93.29    9.60
   4   4   8   77.39   12.70
  -3   5  -8   -9.00    8.60
   3  -5  -8    3.60    6.60
   5   3  -8    3.00    5.50
  -3   5  -8   10.30    5.50
   3  -5  -8    4.40    4.20
  -5  -3  -8   -3.50   19.30
  -3   5  -8    1.40    4.70
   5   3  -8   11.80    5.50
  -5  -3  -8   -7.20    5.10
  -3   5  -8    4.10    5.10
   3  -5  -8   17.10    7.20
   5   3  -8   -5.10    5.10
  -3   5  -8    7.90    8.20
   3  -5   8    4.20    3.40
  -3   5   8   12.00   19.20
  -3   5   8    3.30    5.60
   5   3   8    1.70    6.70
  -5  -3   8    1.30    4.70
  -3   5   8   -1.70    5.40
  -5  -3   8    4.40    5.20
   5   3   8    5.90    4.80
   3  -5   8    2.00    4.50
  -5  -3   8    6.60    5.40
   3  -5   8   -3.70    5.40
  -1   5  -8   -4.10    4.10
   5   1  -8   10.10    5.60
   1  -5  -8   -0.30    4.70
   1  -5  -8    6.50    6.20
  -1   5  -8    6.60    4.70
  -1   5  -8    3.40    5.80
  -5  -1  -8   12.80    5.40
   1  -5  -8   16.00    7.50
  -1   5  -8   -3.70    4.70
   5   1  -8    1.60    4.60
   5   1  -8    3.20    5.50
  -5  -1  -8   10.20    5.50
  -1   5  -8    5.20    6.10
  -5  -1  -8   17.80    7.80
  -5  -1   8    0.90    4.70
  -1   5   8   -0.50    4.80
  -1   5   8   -1.00    3.70
   5   1   8   -9.50    5.90
   1  -5   8    2.10    5.70
  -1   5   8    2.20    3.60
   1  -5   8    1.70    3.20
   1  -5   8    1.90    4.00
  -1   5   8   12.20    9.20
   5   1   8   -0.30    4.30
  -5  -1   8    1.30    4.60
   1   5  -8   13.20    6.40
   5  -1  -8   -5.30    5.30
   5  -1  -8   -2.10    5.90
   1   5  -8    5.60    5.30
   1   5  -8    5.40    3.70
   1   5  -8    7.80    5.20
  -5   1  -8   -1.20    4.90
  -5   1  -8    2.50   17.00
  -5   1  -8   -5.40    5.80
  -5   1  -8   -6.80    5.30
  -1  -5  -8    5.30    7.00
   1   5  -8    5.10    4.70
  -1  -5  -8   -4.60    5.60
   5  -1  -8    7.30    4.60
  -1  -5  -8   -1.40    4.60
  -1  -5   8   -0.90    4.40
  -1  -5   8    1.50    3.60
  -1  -5   8    1.40    5.80
   1   5   8    2.70    6.00
   1   5   8    1.20    3.70
   1   5   8    7.30    4.40
   5  -1   8   -1.10    4.50
   1   5   8    3.00    7.00
  -5   1   8   -1.70    4.90
  -1  -5   8    0.70    5.00
   1   5   8   -5.20    4.20
  -1  -5   8    4.80    4.30
  -5   1   8   -7.20    5.00
   5  -1   8    5.10    5.00
   3   5  -8    6.40    6.30
   5  -3  -8    4.30    5.90
   5  -3  -8   -3.00    5.90
   3   5  -8    6.70    4.90
  -3  -5  -8    5.60    5.20
  -5   3  -8    8.90    6.40
   3   5  -8   13.20    6.00
  -3  -5  -8    2.40    4.30
  -3  -5  -8   -0.60    6.10
   3   5  -8    4.00    6.30
  -5   3  -8    2.60    5.20
  -3  -5  -8    8.40    7.90
   5  -3  -8    8.80    4.40
  -5   3  -8    0.20    5.10
   3   5   8   -2.90    6.70
  -3  -5   8    2.10    4.00
  -5   3   8    8.60    5.60
  -5   3   8   -3.70    5.30
  -3  -5   8   -4.50    4.40
   3   5   8   -2.70    5.10
  -3  -5   8    9.90    5.30
  -3  -5   8    7.80    5.80
   5  -3   8   -3.60    5.10
   5  -3   8    0.00    4.30
   3   5   8    2.60    4.30
  -3  -5   8   -4.90    5.10
  -5   5  -8    3.30    5.90
  -5  -5  -8    7.90    5.70
  -5   5  -8    4.20    6.50
   5   5  -8    8.00    5.80
   5  -5  -8   14.50    6.70
   5  -5  -8    1.90    7.00
   5   5  -8   -2.10    5.40
  -5  -5  -8   -4.30    6.20
   5  -5   8    1.80    4.10
   5   5   8   -8.60    5.00
  -5   5   8   -1.70    6.20
  -5   5   8   -0.30    7.00
  -5  -5   8    4.60    5.70
   5  -5   8   -3.10    5.20
  -5  -5   8    3.10    5.10
   5  -5   8    7.50    5.40
   5   5   8   15.20    9.00
  -5  -5   8   11.80    5.40
   4  -6  -8   97.19   12.50
  -4   6  -8   96.79   13.20
   4  -6  -8   88.59   13.10
  -6  -4  -8   83.29   12.90
   6   4  -8   81.59   11.90
   6   4  -8   84.09   10.80
  -6  -4  -8  105.59   13.30
   6   4  -8  110.09   11.80
  -4   6  -8   85.89   10.70
  -6  -4   8   76.09   11.30
  -4   6   8   92.59   12.60
   6   4   8   91.79   10.20
   4  -6   8   72.49   10.60
   6   4   8  115.09   13.50
  -6  -4   8   90.59   10.30
   4  -6   8   98.39   11.50
  -6  -4   8  121.09   10.90
  -4   6   8   81.39   10.40
   4  -6   8  104.89    8.30
   2  -6  -8  104.39   14.20
  -2   6  -8  105.69   10.50
   6   2  -8  112.49   11.10
  -2   6  -8  100.29   12.30
   6   2  -8   91.69   11.60
   2  -6  -8  102.09    9.50
  -6  -2  -8   86.59   11.90
  -2   6  -8   93.49    9.70
  -2   6  -8   92.79   14.00
  -6  -2  -8   83.29   11.60
   6   2  -8  102.09   11.10
   2  -6  -8   96.99   12.60
   2  -6   8  102.69    9.90
   6   2   8   89.29   11.60
   2  -6   8  104.69    8.10
  -2   6   8  118.79   11.80
  -6  -2   8   84.59   10.40
  -6  -2   8  106.29   11.50
   6   2   8   93.59    9.90
   2  -6   8   93.09   11.60
  -2   6   8  116.09   11.50
   0   6  -8   47.40    7.70
   0  -6  -8   49.00    8.40
   6   0  -8   42.20    6.10
   0   6  -8   44.50    8.50
  -6   0  -8   57.09    7.90
  -6   0  -8   46.10    8.20
   0   6  -8   50.99    9.20
   0   6  -8   60.09   10.60
   6   0  -8   46.50    7.60
   0   6  -8   54.79    8.40
   0   6  -8   69.59   11.80
  -6   0  -8   43.70    7.00
   0  -6  -8   37.80    6.40
   0  -6  -8   62.19   10.50
   0  -6   8   55.69   10.60
   0  -6   8   56.59    7.10
   0   6   8   54.09    6.30
   0   6   8   55.49    7.80
   0   6   8   36.80    6.40
   0   6   8   52.59    6.60
  -6   0   8   34.20    6.70
  -6   0   8   44.00    7.00
   0  -6   8   64.29    8.20
   0   6   8   59.99    9.60
   6   0   8   40.20    6.60
   6   0   8   54.09    8.30
  -2  -6  -8   80.69    9.10
   2   6  -8  104.39   13.00
   2   6  -8   88.29   12.40
   6  -2  -8  106.99   11.30
  -2  -6  -8  102.49    7.50
   2   6  -8   67.29   10.90
   6  -2  -8   79.59    9.20
  -6   2  -8  110.29   10.80
  -2  -6  -8  102.99   11.40
  -6   2  -8  107.39   11.60
  -2  -6  -8  112.69   13.60
  -2  -6  -8   94.69   15.10
   6  -2  -8  120.49   14.20
  -6   2  -8   84.19   13.50
  -2  -6   8   79.89    8.60
   2   6   8   97.99   12.30
   6  -2   8   82.19    9.60
  -6   2   8   98.19   11.80
  -6   2   8   74.99   10.90
   2   6   8   96.39    8.10
   6  -2   8  102.09   11.10
   2   6   8   98.89   11.10
  -2  -6   8  104.79   12.90
  -2  -6   8   94.19   10.00
   2   6   8  104.89   16.60
  -2  -6   8   93.99   10.70
   6  -4  -8   95.99   11.40
  -6   4  -8   93.79   12.80
  -4  -6  -8   80.59    8.40
  -4  -6  -8  116.79   17.70
   4   6  -8  126.59   12.90
   4   6  -8  102.89   12.20
  -4  -6  -8  100.39   11.90
   6  -4  -8  134.39   21.90
   6  -4  -8  102.59   13.60
  -6   4  -8   72.29   12.30
   4   6   8   95.29   15.50
   6  -4   8   73.69   10.40
  -6   4   8  104.39   12.80
  -4  -6   8   90.29    9.60
  -4  -6   8   99.59   10.30
   4   6   8   67.59   11.40
   4   6   8   91.69   10.80
  -6   4   8  104.09   12.70
   6  -4   8   99.59   10.60
  -3   7  -8    7.70    6.60
   7   3  -8    7.20    5.50
  -7  -3  -8   -1.90    6.60
   3  -7  -8   12.60    7.90
  -3   7  -8   10.80    5.70
   7   3  -8   11.50    5.80
   3  -7  -8   10.90    7.10
   7   3  -8   12.50    6.60
  -7  -3  -8    3.00    6.30
   3  -7   8   14.40    5.60
   3  -7   8   -6.80    5.70
  -7  -3   8   17.60    6.40
   3  -7   8    5.80    3.90
  -3   7   8   -3.90    6.20
   7   3   8    7.70    5.50
  -7  -3   8    5.80    6.10
   7   3   8    5.30    6.80
  -3   7   8    7.30    7.30
  -1   7  -8   11.70    7.00
   7   1  -8    1.90    5.70
  -1   7  -8   -1.60    4.50
   1  -7  -8   -8.60    7.20
   7   1  -8   14.70    6.20
   7   1  -8   12.70    5.30
  -7  -1  -8    5.90    6.30
   1  -7  -8   13.40    8.10
  -1   7  -8   12.80    6.30
  -1   7  -8   -2.20    7.20
  -7  -1  -8   -2.50    5.50
   1  -7   8    2.20    4.00
  -1   7   8   -2.40    3.90
  -7  -1   8    3.40    5.80
   7   1   8  -10.30    5.60
   1  -7   8   -8.40    6.40
  -7  -1   8   16.10    6.00
  -1   7   8   -0.30    6.50
  -1   7   8    0.30   11.60
  -1   7   8   -7.10    5.90
   7   1   8   -3.40    4.80
   1  -7   8    5.40    5.00
  -7   1  -8    3.00    6.00
   7  -1  -8   -5.00    4.90
  -1  -7  -8   14.20    5.30
  -7   1  -8   13.60    6.60
   7  -1  -8   16.20    6.80
   7  -1  -8    9.70    5.70
  -7   1  -8   20.80    6.60
   1   7  -8   14.60    7.20
  -1  -7  -8   -7.00    7.50
   1   7  -8   -1.00    6.20
   1   7  -8    3.80    6.80
  -1  -7  -8   12.80    7.70
   7  -1   8   10.40    5.10
   1   7   8   -8.20    9.80
  -1  -7   8   -5.00    4.00
  -1  -7   8    6.40    7.00
  -1  -7   8   -3.70    4.70
  -7   1   8    8.00    5.80
  -7   1   8   -2.50    6.20
   7  -1   8    4.50    5.50
   1   7   8   -5.90    7.00
   1   7   8   -3.20    5.90
  -3  -7  -8   10.90    4.20
   7  -3  -8    6.70    7.70
  -3  -7  -8   -0.60    9.20
   3   7  -8   22.80    7.00
  -7   3  -8   13.60    6.70
  -3  -7  -8   -0.30    6.20
  -7   3  -8   -5.60    6.20
  -3  -7  -8   12.20    7.80
  -3  -7  -8    9.60    5.50
   7  -3  -8    6.50    5.90
   3   7  -8   -2.10    6.70
  -7   3   8   14.80    7.30
  -7   3   8    8.60    6.30
  -3  -7   8    3.60    5.50
  -3  -7   8   11.00    8.60
   7  -3   8    5.90    5.10
   7  -3   8    3.70    5.20
   3   7   8   20.00    6.30
  -3  -7   8    5.30    6.20
   3   7   8   12.50    5.10
   3   7   8    9.20    8.60
  -3  -7   8    3.00    4.70
   0  -1  -9  156.38   14.20
  -1   0  -9  132.99   13.80
   0  -1  -9  153.28   14.30
   1   0  -9  157.48   14.20
   1   0  -9  129.49   13.20
   1   0  -9  130.49   15.30
   0   1  -9  163.88   14.20
   0   1  -9  141.59   15.40
  -1   0  -9  138.49   14.00
  -1   0  -9  150.08   17.40
   0   1  -9  139.59   14.20
   0  -1  -9  160.78   17.00
   0  -1   9  148.49   12.80
  -1   0   9  148.69   10.60
   0  -1   9  134.49   11.90
   1   0   9  132.39   10.00
   0   1   9  183.98   17.00
   0   1   9  143.99   19.10
  -1   0   9  157.68   16.70
  -1   0   9  109.99   12.50
   0   1   9  151.68   10.20
   0  -1   9  151.78   16.30
   0  -1   9  153.98   10.00
   1   0   9  116.99   15.80
   1   0   9  123.89   12.00
   0   1   9  148.19   10.70
   1   0   9  129.99   11.90
   0   1   9  148.69   12.80
  -2  -1  -9  106.29   16.30
  -2  -1  -9  121.79   13.90
  -1   2  -9  126.39   13.10
  -1   2  -9  131.99   14.00
   1  -2  -9  111.69   12.90
   1  -2  -9  125.99   15.40
  -2  -1  -9  129.59   13.70
  -2  -1  -9  120.19   10.60
   2   1  -9  106.19   12.40
   1  -2  -9  121.59   14.00
   2   1  -9  106.89   13.00
  -1   2  -9  124.19   15.70
   2   1  -9   88.19   15.10
  -1   2  -9  134.19   13.40
  -1   2   9  109.49   16.50
   1  -2   9  121.09   11.60
  -2  -1   9  110.19   12.00
  -1   2   9  101.89    9.50
  -2  -1   9  133.69   10.00
  -1   2   9   99.19    9.10
   2   1   9  149.79   12.60
  -1   2   9  103.79   10.10
   2   1   9  121.59   11.20
   1  -2   9  106.69   12.10
  -2  -1   9  116.39   10.50
  -2  -1   9  112.39   16.70
  -1   2   9  122.69   12.90
   2   1   9  136.49   15.20
   1  -2   9   89.69   14.80
   1  -2   9  122.59    8.70
   2  -1  -9  108.99   12.40
   2  -1  -9   82.69   13.80
   1   2  -9  138.19   13.30
  -2   1  -9  126.79   13.90
   2  -1  -9  112.99   15.00
   1   2  -9  100.89   15.10
   1   2  -9  128.99   13.80
  -1  -2  -9  131.49   13.80
  -1  -2  -9  113.59   13.50
  -2   1  -9   97.29   12.90
  -2   1  -9  109.79   11.20
  -2   1  -9  122.39   15.70
  -1  -2  -9  129.69   15.70
  -2   1   9  143.29   13.50
  -1  -2   9  109.89    9.50
  -2   1   9  116.29   17.90
  -2   1   9  132.39   11.10
   2  -1   9  108.19   15.50
   2  -1   9  132.19   12.00
   1   2   9  119.19   12.30
  -1  -2   9   99.59   11.60
  -1  -2   9   96.29   10.00
  -1  -2   9  133.19   15.90
  -1  -2   9  111.89   12.20
   1   2   9  109.69   16.30
   1   2   9  120.09   12.40
   3   2  -9   67.19    9.60
  -2   3  -9   78.69   11.90
  -3  -2  -9   80.39    9.60
   2  -3  -9   59.19   10.70
  -3  -2  -9   58.29    8.80
  -3  -2  -9   57.89   14.20
  -2   3  -9   91.59   13.80
  -2   3  -9   97.89   16.90
   3   2  -9   63.69    9.00
   3   2  -9   65.29   10.60
  -3  -2  -9   89.99   14.60
  -3  -2  -9   83.69   11.10
  -2   3  -9   67.99    9.60
   2  -3  -9   92.99   13.60
   2  -3  -9   59.29   10.90
   2  -3   9   81.99    8.60
  -3  -2   9   60.99    9.80
   3   2   9   58.89    9.40
  -3  -2   9   83.19   10.70
  -2   3   9   77.19   11.50
   2  -3   9   75.89   13.60
  -2   3   9   59.39   26.00
   3   2   9   74.29   11.40
   3   2   9   58.49    9.10
   2  -3   9   61.89   10.40
  -3   0  -9   70.79   11.80
  -3   0  -9   66.69    8.80
   0  -3  -9   75.09   12.30
   0   3  -9   78.99   14.50
   0  -3  -9   54.29   10.70
  -3   0  -9   63.09    9.60
  -3   0  -9   78.39   16.20
   3   0  -9   63.19    8.90
   3   0  -9   79.39   11.20
   3   0  -9   78.79   13.20
   0  -3  -9   69.69   12.60
   0   3  -9   95.19   13.20
   0   3  -9   94.99   12.50
  -3   0   9   54.39    8.50
  -3   0   9   78.49   10.30
   3   0   9   67.79   11.00
   3   0   9   57.39   10.80
   0  -3   9   70.79   10.40
   0  -3   9   49.80   10.00
   0   3   9   87.09   15.70
   0   3   9   82.59   12.30
   0   3   9   83.39    7.50
   0  -3   9   79.19    8.30
   0  -3   9   81.49   10.50
   2   3  -9   74.19   12.40
   2   3  -9   69.39   10.40
   2   3  -9   82.09   12.30
  -3   2  -9   67.99   10.40
  -2  -3  -9   68.69   12.60
   3  -2  -9   60.59    7.40
  -3   2  -9   94.09   12.80
  -3   2  -9   66.79   10.30
   3  -2  -9  105.99   15.50
   3  -2  -9   88.99   13.80
  -2  -3  -9   96.49   15.50
  -2  -3  -9   59.49    9.90
  -2  -3  -9   65.69   11.40
  -2  -3   9   81.69    9.10
  -3   2   9   67.29   10.60
  -3   2   9   84.69   11.70
  -2  -3   9   86.99   10.60
  -2  -3   9   67.09   11.00
  -2  -3   9   61.99   11.00
   3  -2   9   59.49   10.60
   3  -2   9   63.39   10.30
  -2  -3   9   73.09    9.40
   2   3   9   67.59   12.20
   2   3   9   62.59   10.60
   4   1  -9   49.20    9.40
   4   1  -9   35.10    8.10
   1  -4  -9   23.70    7.70
   4   1  -9   47.50    7.80
  -4  -1  -9   76.09   13.10
  -1   4  -9   34.80    7.80
  -1   4  -9   54.09    8.10
  -4  -1  -9   37.80    9.50
  -4  -1  -9   44.30    7.20
   1  -4  -9   37.90    7.40
  -1   4   9   47.10    7.40
   1  -4   9   42.40    6.80
  -4  -1   9   50.29    8.00
   1  -4   9   41.00    9.00
  -1   4   9   68.09   11.90
  -4  -1   9   62.59    9.70
   4   1   9   44.70    9.80
   4   1   9   44.30    7.20
   1  -4   9   58.79    7.60
  -1  -4  -9   37.20    8.20
  -1  -4  -9   34.60    9.40
   4  -1  -9   61.09   11.10
   4  -1  -9   58.69   10.20
  -1  -4  -9   74.29   12.20
   1   4  -9   70.09   12.50
   1   4  -9   28.80    8.40
   1   4  -9   43.50    8.50
  -4   1  -9   52.19    8.30
  -4   1  -9   68.39   12.00
   4  -1  -9   47.20    9.00
  -4   1  -9   60.09   10.50
  -1  -4   9   71.39    8.30
   4  -1   9   45.10    7.90
   4  -1   9   61.59   10.50
  -1  -4   9   55.59   10.50
  -4   1   9   47.40    7.50
  -4   1   9   47.20    7.80
  -1  -4   9   52.29    8.40
   1   4   9   63.59   12.90
   0   0   0    0.00    0.00

_computing_structure_solution     'SHELXT 2014/5 (Sheldrick, 2014)'
;
_shelx_hkl_checksum              98499
_olex2_submission_special_instructions 'No special instructions were received'
loop_
_space_group_symop_operation_xyz
'x, y, z'
'-x, -y, z'
'y, -x, -z'
'-y, x, -z'
'x+1/2, y+1/2, z+1/2'
'-x+1/2, -y+1/2, z+1/2'
'y+1/2, -x+1/2, -z+1/2'
'-y+1/2, x+1/2, -z+1/2'
loop_
_atom_site_label
_atom_site_type_symbol
_atom_site_fract_x
_atom_site_fract_y
_atom_site_fract_z
_atom_site_U_iso_or_equiv
_atom_site_adp_type
_atom_site_occupancy
_atom_site_site_symmetry_order
_atom_site_calc_flag
_atom_site_refinement_flags_posn
_atom_site_refinement_flags_adp
_atom_site_refinement_flags_occupancy
_atom_site_disorder_assembly
_atom_site_disorder_group
Co1 Co 0.000000 0.500000 0.250000 0.01848(14) Uani 1 4 d S T P . .
C1 C 0.0278(10) 0.3936(5) 0.4980(18) 0.0210(11) Uani 0.5 1 d . . . A -1
C2 C 0.1039(4) 0.4995(11) 0.4965(18) 0.0202(11) Uani 0.5 1 d . . . A -1
H2 H 0.191744 0.499237 0.496984 0.024 Uiso 0.5 1 calc R . . A -1
C3 C 0.0281(10) 0.6065(5) 0.4942(19) 0.0207(11) Uani 0.5 1 d . . . A -1
C4 C -0.0962(7) 0.5659(13) 0.4907(17) 0.0314(14) Uani 0.5 1 d . . . A -1
H4 H -0.167194 0.617478 0.485291 0.038 Uiso 0.5 1 calc R . . A -1
C5 C -0.0963(7) 0.4350(13) 0.497(2) 0.0322(14) Uani 0.5 1 d . . . A -1
H5 H -0.167560 0.383768 0.499397 0.039 Uiso 0.5 1 calc R . . A -1
C6 C 0.0719(7) 0.2620(4) 0.4989(9) 0.0517(15) Uani 0.5 1 d . . . A -1
H6A H 0.015256 0.210948 0.419742 0.078 Uiso 0.5 1 calc GR . . A -1
H6B H 0.074373 0.231341 0.637063 0.078 Uiso 0.5 1 calc GR . . A -1
H6C H 0.154966 0.257825 0.440611 0.078 Uiso 0.5 1 calc GR . . A -1
C7 C 0.0723(7) 0.7380(4) 0.4987(9) 0.0505(14) Uani 0.5 1 d . . . A -1
H7A H 0.154714 0.742935 0.438256 0.076 Uiso 0.5 1 calc GR . . A -1
H7B H 0.076236 0.766721 0.637839 0.076 Uiso 0.5 1 calc GR . . A -1
H7C H 0.014858 0.790196 0.422997 0.076 Uiso 0.5 1 calc GR . . A -1
P1 P 0.500000 0.500000 0.500000 0.01798(18) Uani 1 4 d S T P . .
F1 F 0.39511(12) 0.39520(11) 0.5001(3) 0.0382(3) Uani 1 1 d . . . . .
F2 F 0.500000 0.500000 0.2614(5) 0.0465(4) Uani 1 2 d S T P . .
loop_
_atom_site_aniso_label
_atom_site_aniso_U_11
_atom_site_aniso_U_22
_atom_site_aniso_U_33
_atom_site_aniso_U_23
_atom_site_aniso_U_13
_atom_site_aniso_U_12
Co1 0.02168(16) 0.02168(16) 0.01208(19) 0.000 0.000 0.000
C1 0.026(3) 0.023(2) 0.013(2) 0.004(2) -0.011(6) -0.003(4)
C2 0.020(2) 0.024(3) 0.017(3) -0.010(6) 0.000(2) 0.002(3)
C3 0.026(3) 0.022(2) 0.014(2) -0.005(2) 0.009(5) 0.002(4)
C4 0.024(4) 0.057(5) 0.014(2) 0.003(6) 0.001(3) 0.017(4)
C5 0.021(4) 0.058(5) 0.017(2) 0.010(7) 0.001(3) -0.013(4)
C6 0.105(5) 0.0219(19) 0.028(2) 0.0037(18) -0.007(3) 0.003(2)
C7 0.103(5) 0.0219(19) 0.027(2) -0.0038(18) -0.006(3) -0.005(2)
P1 0.0145(2) 0.0145(2) 0.0250(4) 0.000 0.000 0.000
F1 0.0214(5) 0.0214(5) 0.0720(10) -0.0022(7) 0.0022(7) -0.0068(4)
F2 0.0526(11) 0.0597(12) 0.0271(9) 0.000 0.000 0.0004(9)
loop_
_atom_type_symbol
_atom_type_description
_atom_type_scat_dispersion_real
_atom_type_scat_dispersion_imag
_atom_type_scat_source
C C 0.0033 0.0016 'International Tables Vol C Tables 4.2.6.8 and 6.1.1.4'
H H 0.0000 0.0000 'International Tables Vol C Tables 4.2.6.8 and 6.1.1.4'
Co Co 0.3494 0.9721 'International Tables Vol C Tables 4.2.6.8 and 6.1.1.4'
F F 0.0171 0.0103 'International Tables Vol C Tables 4.2.6.8 and 6.1.1.4'
P P 0.1023 0.0942 'International Tables Vol C Tables 4.2.6.8 and 6.1.1.4'
loop_
_geom_angle_atom_site_label_1
_geom_angle_atom_site_label_2
_geom_angle_atom_site_label_3
_geom_angle
_geom_angle_site_symmetry_1
_geom_angle_site_symmetry_3
C1 Co1 C4 68.5(3) . .
C1 Co1 C5 40.3(4) . .
C2 Co1 C1 41.0(3) . .
C2 Co1 C3 41.4(3) . .
C2 Co1 C4 68.8(3) . .
C2 Co1 C5 68.1(3) . .
C3 Co1 C1 69.2(3) . .
C3 Co1 C4 40.7(4) . .
C3 Co1 C5 68.1(4) . .
C4 Co1 C5 40.3(4) . .
C2 C1 Co1 67.8(6) . .
C2 C1 C5 107.3(6) . .
C2 C1 C6 125.8(10) . .
C5 C1 Co1 71.1(6) . .
C5 C1 C6 127.0(8) . .
C6 C1 Co1 125.8(7) . .
Co1 C2 H2 124.5 . .
C1 C2 Co1 71.3(6) . .
C1 C2 H2 125.5 . .
C1 C2 C3 108.9(4) . .
C3 C2 Co1 70.3(7) . .
C3 C2 H2 125.5 . .
C2 C3 Co1 68.3(6) . .
C2 C3 C7 126.0(10) . .
C4 C3 Co1 70.5(7) . .
C4 C3 C2 107.3(5) . .
C4 C3 C7 126.7(8) . .
C7 C3 Co1 127.2(7) . .
Co1 C4 H4 126.0 . .
C3 C4 Co1 68.7(6) . .
C3 C4 H4 126.0 . .
C3 C4 C5 108.1(6) . .
C5 C4 Co1 70.9(7) . .
C5 C4 H4 126.0 . .
Co1 C5 H5 128.4 . .
C1 C5 Co1 68.6(6) . .
C1 C5 C4 108.4(6) . .
C1 C5 H5 125.8 . .
C4 C5 Co1 68.8(7) . .
C4 C5 H5 125.8 . .
C1 C6 H6A 109.5 . .
C1 C6 H6B 109.5 . .
C1 C6 H6C 109.5 . .
H6A C6 H6B 109.5 . .
H6A C6 H6C 109.5 . .
H6B C6 H6C 109.5 . .
C3 C7 H7A 109.5 . .
C3 C7 H7B 109.5 . .
C3 C7 H7C 109.5 . .
H7A C7 H7B 109.5 . .
H7A C7 H7C 109.5 . .
H7B C7 H7C 109.5 . .
F1 P1 F1 90.0 3_566 .
F1 P1 F1 89.999(1) 4_656 .
F1 P1 F1 90.0 2_665 3_566
F1 P1 F1 179.97(15) 4_656 3_566
F1 P1 F1 179.97(15) 2_665 .
F1 P1 F1 90.0 2_665 4_656
F2 P1 F1 89.99(7) 3_566 2_665
F2 P1 F1 89.99(7) . 3_566
F2 P1 F1 90.01(7) 3_566 3_566
F2 P1 F1 89.99(7) 3_566 .
F2 P1 F1 90.01(7) 3_566 4_656
F2 P1 F1 89.99(7) . 4_656
F2 P1 F1 90.01(7) . 2_665
F2 P1 F1 90.01(7) . .
F2 P1 F2 180.0 3_566 .
loop_
_geom_bond_atom_site_label_1
_geom_bond_atom_site_label_2
_geom_bond_distance
_geom_bond_site_symmetry_2
Co1 C1 2.038(10) .
Co1 C2 1.993(10) .
Co1 C3 2.019(11) .
Co1 C4 2.042(10) .
Co1 C5 2.071(11) .
C1 C2 1.411(10) .
C1 C5 1.415(12) .
C1 C6 1.502(9) .
C2 H2 0.9500 .
C2 C3 1.419(10) .
C3 C4 1.414(12) .
C3 C7 1.502(8) .
C4 H4 0.9500 .
C4 C5 1.417(15) .
C5 H5 0.9500 .
C6 H6A 0.9800 .
C6 H6B 0.9800 .
C6 H6C 0.9800 .
C7 H7A 0.9800 .
C7 H7B 0.9800 .
C7 H7C 0.9800 .
P1 F1 1.6041(11) 4_656
P1 F1 1.6041(11) .
P1 F1 1.6041(11) 2_665
P1 F1 1.6041(11) 3_566
P1 F2 1.593(4) 3_566
P1 F2 1.593(4) .
loop_
_geom_torsion_atom_site_label_1
_geom_torsion_atom_site_label_2
_geom_torsion_atom_site_label_3
_geom_torsion_atom_site_label_4
_geom_torsion
Co1 C1 C2 C3 60.4(9)
Co1 C1 C5 C4 -57.3(10)
Co1 C2 C3 C4 60.0(9)
Co1 C2 C3 C7 -121.1(12)
Co1 C3 C4 C5 60.3(10)
Co1 C4 C5 C1 57.2(10)
C1 C2 C3 Co1 -61.0(9)
C1 C2 C3 C4 -1.0(15)
C1 C2 C3 C7 177.9(11)
C2 C1 C5 Co1 58.4(9)
C2 C1 C5 C4 1.1(17)
C2 C3 C4 Co1 -58.6(9)
C2 C3 C4 C5 1.6(16)
C3 C4 C5 Co1 -58.9(10)
C3 C4 C5 C1 -1.7(17)
C5 C1 C2 Co1 -60.5(9)
C5 C1 C2 C3 0.0(15)
C6 C1 C2 Co1 119.0(12)
C6 C1 C2 C3 179.5(11)
C6 C1 C5 Co1 -121.1(12)
C6 C1 C5 C4 -178.4(11)
C7 C3 C4 Co1 122.5(12)
C7 C3 C4 C5 -177.2(12)
loop_
_twin_individual_id
_twin_individual_mass_fraction_refined
1 0.83(3)
2 0.17(3)
