#------------------------------------------------------------------------------
#$Date: 2020-02-04 05:13:16 +0200 (Tue, 04 Feb 2020) $
#$Revision: 247531 $
#$URL: file:///home/coder/svn-repositories/cod/cif/4/13/39/4133972.cif $
#------------------------------------------------------------------------------
#
# This file is available in the Crystallography Open Database (COD),
# http://www.crystallography.net/
#
# All data on this site have been placed in the public domain by the
# contributors.
#
data_4133972
loop_
_publ_author_name
'Bear, Joseph C.'
'Cockcroft, Jeremy K.'
'Williams, Jeffrey H.'
_publ_section_title
;
 Influence of Solvent in Crystal Engineering: A Significant Change to the
 Order-Disorder Transition in Ferrocene.
;
_journal_issue                   4
_journal_name_full               'Journal of the American Chemical Society'
_journal_page_first              1731
_journal_page_last               1734
_journal_paper_doi               10.1021/jacs.9b11895
_journal_volume                  142
_journal_year                    2020
_chemical_formula_moiety         'C10 H10 Fe, 2(C3 F3)'
_chemical_formula_sum            'C16 H10 F6 Fe'
_chemical_formula_weight         372.09
_chemical_name_systematic        Ferrocene:hexafluorobenzene
_space_group_crystal_system      triclinic
_space_group_IT_number           2
_space_group_name_Hall           '-P 1'
_space_group_name_H-M_alt        'P -1'
_atom_sites_solution_hydrogens   difmap
_atom_sites_solution_primary     dual
_audit_creation_date             2019-04-25
_audit_creation_method
;
Olex2 1.2
(compiled 2018.05.29 svn.r3508 for OlexSys, GUI svn.r5506)
;
_cell_angle_alpha                77.501(5)
_cell_angle_beta                 77.039(5)
_cell_angle_gamma                84.118(5)
_cell_formula_units_Z            2
_cell_length_a                   7.2072(5)
_cell_length_b                   9.1517(5)
_cell_length_c                   11.5869(6)
_cell_measurement_reflns_used    5353
_cell_measurement_temperature    265
_cell_measurement_theta_max      27.4850
_cell_measurement_theta_min      4.2540
_cell_volume                     725.96(8)
_computing_cell_refinement       'CrysAlisPro 1.171.39.46 (Rigaku OD, 2018)'
_computing_data_collection       'CrysAlisPro 1.171.39.46 (Rigaku OD, 2018)'
_computing_data_reduction        'CrysAlisPro 1.171.39.46 (Rigaku OD, 2018)'
_computing_molecular_graphics    'Olex2 (Dolomanov et al., 2009)'
_computing_publication_material  'Olex2 (Dolomanov et al., 2009)'
_computing_structure_refinement  'ShelXL (Sheldrick, 2015)'
_computing_structure_solution    'ShelXT (Sheldrick, 2015)'
_diffrn_ambient_environment      N~2~
_diffrn_ambient_temperature      265
_diffrn_detector                 'CCD plate'
_diffrn_detector_area_resol_mean 5.2031
_diffrn_detector_type            Atlas
_diffrn_measured_fraction_theta_full 0.997
_diffrn_measured_fraction_theta_max 0.997
_diffrn_measurement_details
;
List of Runs (angles in degrees, time in seconds):

  # Type    Start    End  Width  t~exp~   \w     \q     \k     \f   Frames
--------------------------------------------------------------------------
  1  \w    -19.00  87.00   1.00    3.00    --   11.17  77.00  90.00  106
  2  \w    -13.00  83.00   1.00    3.00    --   11.17  38.00   0.00   96
  3  \w    -17.00  52.00   1.00    3.00    --   11.17 -99.00 -60.00   69
  4  \w    -44.00  39.00   1.00    3.00    --   11.17 -57.00-180.00   83
  5  \w    -30.00  91.00   1.00    3.00    --   11.17  19.00 -90.00  121
  6  \w    -13.00  52.00   1.00    3.00    --   11.17 -99.00 150.00   65
  7  \w      5.00  68.00   1.00    3.00    --   11.17-126.00  85.72   63
;
_diffrn_measurement_device       'four-circle diffractometer'
_diffrn_measurement_device_type  'SuperNova, Dual, Cu at home/near, Atlas'
_diffrn_measurement_method       '\w scans'
_diffrn_orient_matrix_type
'CrysAlisPro convention (1999,Acta A55,543-557)'
_diffrn_orient_matrix_UB_11      -0.0543224000
_diffrn_orient_matrix_UB_12      0.0270207000
_diffrn_orient_matrix_UB_13      0.0509884000
_diffrn_orient_matrix_UB_21      0.0810883000
_diffrn_orient_matrix_UB_22      0.0342522000
_diffrn_orient_matrix_UB_23      0.0048905000
_diffrn_orient_matrix_UB_31      -0.0265592000
_diffrn_orient_matrix_UB_32      0.0664764000
_diffrn_orient_matrix_UB_33      -0.0385458000
_diffrn_radiation_monochromator  mirror
_diffrn_radiation_probe          x-ray
_diffrn_radiation_type           MoK\a
_diffrn_radiation_wavelength     0.71073
_diffrn_reflns_av_R_equivalents  0.0505
_diffrn_reflns_av_unetI/netI     0.0376
_diffrn_reflns_Laue_measured_fraction_full 0.997
_diffrn_reflns_Laue_measured_fraction_max 0.997
_diffrn_reflns_limit_h_max       9
_diffrn_reflns_limit_h_min       -9
_diffrn_reflns_limit_k_max       11
_diffrn_reflns_limit_k_min       -11
_diffrn_reflns_limit_l_max       14
_diffrn_reflns_limit_l_min       -14
_diffrn_reflns_number            11178
_diffrn_reflns_point_group_measured_fraction_full 0.997
_diffrn_reflns_point_group_measured_fraction_max 0.997
_diffrn_reflns_theta_full        25.242
_diffrn_reflns_theta_max         26.369
_diffrn_reflns_theta_min         3.207
_diffrn_source                   'micro-focus sealed X-ray tube'
_diffrn_source_type              'SuperNova (Mo) X-ray Source'
_exptl_absorpt_coefficient_mu    1.099
_exptl_absorpt_correction_T_max  1.000
_exptl_absorpt_correction_T_min  0.227
_exptl_absorpt_correction_type   gaussian
_exptl_absorpt_process_details
;
CrysAlisPro 1.171.39.46 (Rigaku Oxford Diffraction, 2018)
Numerical absorption correction based on gaussian integration over
			a multifaceted crystal model
Empirical absorption correction using spherical harmonics,
 implemented in SCALE3 ABSPACK scaling algorithm.
;
_exptl_crystal_colour            'clear dark orange'
_exptl_crystal_colour_lustre     clear
_exptl_crystal_colour_modifier   dark
_exptl_crystal_colour_primary    orange
_exptl_crystal_density_diffrn    1.702
_exptl_crystal_description       plate
_exptl_crystal_F_000             372
_exptl_crystal_preparation       'Ferrocene disssolved in hot C6F6'
_exptl_crystal_recrystallization_method
'Crystals grown using C6F6 as solvent in an NMR tube stood in hot water'
_exptl_crystal_size_max          0.809
_exptl_crystal_size_mid          0.627
_exptl_crystal_size_min          0.286
_refine_diff_density_max         0.328
_refine_diff_density_min         -0.258
_refine_diff_density_rms         0.059
_refine_ls_extinction_method     none
_refine_ls_goodness_of_fit_ref   1.042
_refine_ls_hydrogen_treatment    refall
_refine_ls_matrix_type           full
_refine_ls_number_parameters     248
_refine_ls_number_reflns         2963
_refine_ls_number_restraints     0
_refine_ls_restrained_S_all      1.042
_refine_ls_R_factor_all          0.0437
_refine_ls_R_factor_gt           0.0357
_refine_ls_shift/su_max          0.000
_refine_ls_shift/su_mean         0.000
_refine_ls_structure_factor_coef Fsqd
_refine_ls_weighting_details
'w=1/[\s^2^(Fo^2^)+(0.0494P)^2^+0.0169P] where P=(Fo^2^+2Fc^2^)/3'
_refine_ls_weighting_scheme      calc
_refine_ls_wR_factor_gt          0.0900
_refine_ls_wR_factor_ref         0.0973
_reflns_Friedel_coverage         0.000
_reflns_number_gt                2490
_reflns_number_total             2963
_reflns_threshold_expression     'I > 2\s(I)'
_cod_data_source_file            ja9b11895_si_002.cif
_cod_data_source_block           exp_1282
_cod_depositor_comments
'Adding full bibliography for 4133967--4133980.cif.'
_cod_database_code               4133972
_shelx_shelxl_version_number     2014/7
_chemical_oxdiff_formula         'Fe C16 F6 H10'
_chemical_oxdiff_usercomment     'Yet another new crystal'
_shelx_space_group_comment
;
The symmetry employed for this shelxl refinement is uniquely defined
by the following loop, which should always be used as a source of
symmetry information in preference to the above space-group names.
They are only intended as comments.
;
_shelx_estimated_absorpt_t_max   0.744
_shelx_estimated_absorpt_t_min   0.470
_reflns_odcompleteness_completeness 99.83
_reflns_odcompleteness_iscentric 1
_reflns_odcompleteness_theta     26.32
_olex2_refinement_description
;
;
_shelx_res_file
;
    exp_1282.res created by SHELXL-2014/7

TITL exp_1282 in P-1
REM P-1 (#2 in standard setting)
CELL 0.71073 7.207172 9.151729 11.586875 77.5011 77.0387 84.1182
ZERR 2 0.000459 0.000514 0.000639 0.0047 0.0051 0.0049
LATT 1
SFAC C H F Fe
UNIT 32 20 12 2

L.S. 10 0 0
PLAN  1
SIZE 0.286 0.627 0.809
TEMP -8.15
BOND $H
CONF
list 4
fmap 2 53
acta
SHEL 50 0.8
OMIT -1 2 3
OMIT 0 3 6
OMIT 0 -2 3
OMIT 0 -1 3
REM <olex2.extras>
REM <HklSrc "%.\\exp_1282.hkl">
REM </olex2.extras>

WGHT    0.049400    0.016900
FVAR       7.73814
FE1   4    0.239924    0.496211    0.252120    11.00000    0.04263    0.03550 =
         0.03770   -0.00465   -0.01285    0.00102
C7    1    0.314676    0.678760    0.121251    11.00000    0.06615    0.06079 =
         0.07633    0.02326   -0.02188   -0.01252
H7    2    0.430385    0.708654    0.100564    11.00000    0.07935
C8    1    0.241438    0.572948    0.073923    11.00000    0.07990    0.06314 =
         0.03832   -0.00277   -0.01469    0.01674
H8    2    0.306047    0.528005    0.017190    11.00000    0.07329
C9    1    0.055227    0.549739    0.138070    11.00000    0.06645    0.05622 =
         0.05574   -0.00825   -0.03270    0.00265
H9    2   -0.025590    0.484066    0.126200    11.00000    0.07928
C10   1    0.012174    0.639941    0.225257    11.00000    0.05777    0.06162 =
         0.05296   -0.00799   -0.01767    0.01927
H10   2   -0.107111    0.642086    0.282052    11.00000    0.07883
C11   1    0.172350    0.719648    0.215252    11.00000    0.09300    0.03713 =
         0.06780   -0.00893   -0.03897    0.00562
H11   2    0.175966    0.781991    0.267859    11.00000    0.07365
C12   1    0.473520    0.408081    0.318222    11.00000    0.04778    0.07264 =
         0.08226    0.01280   -0.03083   -0.00275
H12   2    0.583521    0.444782    0.293845    11.00000    0.07239
C13   1    0.404459    0.302397    0.268144    11.00000    0.06918    0.05448 =
         0.05725   -0.00677   -0.01312    0.02168
H13   2    0.462693    0.266869    0.206000    11.00000    0.07052
C14   1    0.218611    0.275397    0.329990    11.00000    0.07163    0.03729 =
         0.05653   -0.00428   -0.02083   -0.00053
H14   2    0.132486    0.211518    0.315705    11.00000    0.06636
C15   1    0.169918    0.363437    0.419121    11.00000    0.06115    0.04895 =
         0.04130    0.00020   -0.01105    0.00073
H15   2    0.046031    0.369383    0.473187    11.00000    0.06928
C16   1    0.326177    0.445674    0.412527    11.00000    0.07930    0.05294 =
         0.05360   -0.00644   -0.03761    0.00217
H16   2    0.335487    0.514515    0.456621    11.00000    0.06532
F1    3    0.370751    0.999200   -0.113700    11.00000    0.05511    0.09303 =
         0.08925   -0.01622    0.00689   -0.00270
F2    3    0.135572    0.813484   -0.155939    11.00000    0.09514    0.06150 =
         0.06096   -0.02587   -0.00866    0.01154
F3    3   -0.234345    0.813840   -0.042142    11.00000    0.08475    0.08030 =
         0.10282   -0.02788   -0.02564   -0.02507
C1    1    0.187491    1.000054   -0.057983    11.00000    0.05338    0.05018 =
         0.04899   -0.00051   -0.00517    0.00447
C2    1    0.068723    0.906323   -0.079541    11.00000    0.06728    0.03966 =
         0.04142   -0.00555   -0.01264    0.00554
C3    1   -0.117922    0.905971   -0.021593    11.00000    0.06109    0.04499 =
         0.05460   -0.00340   -0.01730   -0.00510
F4    3    0.798306    0.152007    0.505551    11.00000    0.07487    0.09827 =
         0.12091   -0.01808   -0.03050   -0.03398
F5    3    0.451935    0.205155    0.642287    11.00000    0.11972    0.06407 =
         0.07404   -0.03156   -0.02855    0.00659
F6    3    0.153449    0.054008    0.636319    11.00000    0.06013    0.09180 =
         0.07335   -0.00356    0.00708    0.01274
C4    1    0.650138    0.076937    0.502454    11.00000    0.05630    0.04615 =
         0.06213    0.00194   -0.02386   -0.01042
C5    1    0.475838    0.103339    0.572366    11.00000    0.06714    0.04101 =
         0.04515   -0.00614   -0.01596    0.00432
C6    1    0.324557    0.026345    0.569792    11.00000    0.04995    0.05018 =
         0.04644    0.00418   -0.00554    0.00849
HKLF 4

REM  exp_1282 in P-1
REM R1 =  0.0357 for    2490 Fo > 4sig(Fo)  and  0.0437 for all    2963 data
REM    248 parameters refined using      0 restraints

END

WGHT      0.0493      0.0169

REM Highest difference peak  0.328,  deepest hole -0.258,  1-sigma level  0.059
Q1    1   0.2706  0.5028  0.5736  11.00000  0.05    0.33
;
_shelx_res_checksum              95957
_shelx_hkl_file
;
   0   0  -2 6967.24 361.984   4
   0   0   2 7208.69 417.369   5
   0   0  -2 6562.95 367.683   6
   0   0   2 6151.93 378.844   6
   0   0  -3 224.547 118.080   4
   0   0  -3 206.107 151.706   5
   0   0   3 649.394 220.183   5
   0   0  -3 617.576 213.725   6
   0   0   3 58.4836 30.5549   3
   0   0  -3 174.094 111.747   3
   0   0  -3 35.4789 24.2177   1
   0   0   4 9177.46 401.506   3
   0   0   4 11103.9 371.499   1
   0   0   4 8930.07 601.591   4
   0   0   4 10394.9 669.716   5
   0   0  -4 9594.24 719.231   5
   0   0  -4 10422.4 612.579   4
   0   0  -4 10429.3 476.271   3
   0   0  -4 10483.0 397.765   1
   0   0  -4 10190.8 606.723   6
   0   0   4 8412.37 643.259   6
   0   0  -5 10803.9 445.860   1
   0   0   5 12839.0 808.023   5
   0   0   5 10748.6 400.172   1
   0   0  -5 13231.6 965.480   5
   0   0   5 10605.2 1234.38   2
   0   0  -5 11581.4 722.594   6
   0   0  -5 10947.5 722.807   4
   0   0  -5 11278.1 569.218   3
   0   0   5 10014.6 801.004   6
   0   0  -6 53804.8 1989.93   4
   0   0  -6 50694.7 1571.27   3
   0   0  -6 51134.4 1391.74   1
   0   0  -6 58110.6 1946.59   6
   0   0   6 51481.2 1323.48   1
   0   0   6 45035.5 2052.95   6
   0   0   6 53262.6 1987.35   5
   0   0  -7 1191.90 319.806   4
   0   0  -7 937.271 118.312   1
   0   0  -7 677.252 140.117   3
   0   0  -7 1025.66 210.663   6
   0   0   7 1373.61 287.943   5
   0   0   7 1284.19 585.599   2
   0   0   7 1208.41 324.899   4
   0   0  -7 869.544 291.635   5
   0   0   8 25601.8 1656.07   6
   0   0  -8 27952.1 1741.67   5
   0   0  -8 28975.1 851.526   1
   0   0   8 28081.4 1442.97   5
   0   0  -8 31104.2 1456.65   6
   0   0  -8 28932.6 1594.68   4
   0   0   9 356.233 171.170   5
   0   0  -9 277.160 206.640   4
   0   0  -9 136.771 60.4958   6
   0   0   9 165.406 130.084   6
   0   0  -9 56.2396 96.4203   5
   0   0 -10 20740.6 1259.38   6
   0   0 -10 19879.6 1504.76   4
   0   0  10 18452.6 1223.77   5
   0   0 -11 1144.11 378.264   4
   0   0 -11 1193.93 297.502   6
   0   0  11 1099.22 305.901   5
   0   0  12 12242.8 1053.88   5
   0   0 -12 11716.1 1014.08   6
   0   0 -12 12862.6 1392.32   4
   0   0 -13 410.203 201.745   6
   0   0 -13 880.093 419.611   4
   0   0  13 777.488 283.489   5
   0   0 -14-20.5105 139.665   4
   0   0  14 123.271 113.835   5
   0   1 -14 2243.69 503.852   6
   0  -1  14 2026.48 462.442   5
   0   1 -13 732.925 345.798   4
   0  -1  13 732.836 275.701   5
   0   1 -13 704.101 267.530   6
   0   1 -12 5734.77 729.070   6
   0  -1  12 3929.23 584.342   5
   0   1 -12 4937.07 894.010   4
   0  -1  11 165.096 135.289   5
   0   1 -11-157.661 195.042   4
   0   1 -11 61.1643 140.865   6
   0  -1  10 7509.42 752.374   5
   0   1 -10 6690.31 894.426   4
   0  -1  10 6582.48 1324.89   2
   0   1 -10 7955.15 810.661   6
   0   1  -9 575.655 223.217   6
   0  -1   9 66.5584 122.675   2
   0  -1   9 514.416 102.282   1
   0   1  -9 443.159 220.628   4
   0  -1   9 502.391 190.026   5
   0  -1   8 307.824 159.677   6
   0   1  -8 252.655 79.1545   1
   0  -1   8 214.006 171.775   2
   0  -1   8 363.835 182.979   4
   0  -1   8 273.969 97.8050   3
   0  -1   8 344.622 144.948   5
   0   1  -8 370.203 192.803   5
   0   1  -8 498.808 201.138   4
   0  -1   8 164.195 48.9983   1
   0  -1   7 30.9639 24.1567   1
   0  -1   7 25.8534 43.0807   3
   0   1  -7 35.1840 53.0362   5
   0   1  -7 30.7944 30.7482   1
   0   1  -7 87.0957 66.1346   6
   0  -1   7 72.5273 161.508   4
   0  -1   7 39.6677 62.2591   5
   0  -1   7 1103.90 343.732   6
   0   1  -7 82.0889 62.6640   4
   0  -1   7 1322.46 568.519   2
   0   1  -6 51943.0 1922.06   4
   0  -1   6 43992.8 1837.48   4
   0  -1   6 46816.8 1354.79   1
   0  -1   6 43668.5 1494.67   3
   0   1  -6 46550.3 1405.92   1
   0   1  -6 53594.9 1966.94   6
   0  -1   6 50329.0 1962.03   5
   0  -1   5 2050.77 529.231   2
   0  -1   5 1570.49 290.816   5
   0   1  -5 2254.28 380.502   5
   0   1  -5 2381.90 365.150   6
   0   1  -5 1633.16 181.801   1
   0   1  -5 2284.53 345.272   3
   0  -1   5 1490.69 261.320   4
   0   1  -5 2137.54 309.811   4
   0  -1   5 1534.38 212.348   3
   0  -1   5 2180.88 389.230   6
   0  -1   5 1785.17 181.769   1
   0   1  -4 37149.5 1474.20   6
   0   1  -4 37084.1 1320.23   4
   0   1  -4 36281.9 1328.57   3
   0  -1   4 36345.9 1072.29   1
   0   1  -4 34949.0 1503.87   5
   0  -1   4 34457.5 1464.52   5
   0  -1   4 33133.1 1283.11   4
   0  -1   4 36017.4 1252.78   3
   0   1  -4 34119.5 1080.88   1
   0   1  -3 2909.36 331.424   3
   0  -1   3 199.885 93.8341   4
   0  -1   3 3011.58 293.128   3
   0  -1   3 4528.22 470.223   5
   0   1  -3 918.561 179.945   5
   0   1  -3 1439.58 416.961   6
   0   1  -2 557803. 12886.0   6
   0  -1   2 532451. 12489.7   1
   0  -1   2 562223. 12761.8   7
   0  -1   2 580855. 12804.7   3
   0  -1   1 66.4763 43.6743   3
   0   1   2 419115. 9905.09   6
   0  -1  -2 435146. 10081.0   4
   0  -1  -3 671.650 121.955   4
   0   1   3 853.820 171.985   5
   0   1   3 691.851 124.113   6
   0  -1  -3 870.504 122.013   6
   0   1   4 208598. 5038.78   5
   0  -1  -4 205340. 4497.56   1
   0  -1  -4 214627. 4781.43   6
   0  -1  -4 200010. 4992.14   4
   0   1   5 6603.82 1015.89   2
   0  -1  -5 6887.15 319.339   1
   0  -1  -5 8089.03 497.567   6
   0   1   5 7617.99 578.491   5
   0  -1  -5 7652.87 358.639   3
   0   1   5 6285.66 546.211   6
   0  -1  -5 7018.99 551.883   4
   0   1   6 99678.6 3314.75   6
   0  -1  -6 111968. 2670.35   3
   0   1   6 116025. 3288.86   5
   0  -1  -6 118548. 3339.43   4
   0  -1  -6 124135. 3094.92   6
   0   1   6 79027.4 4424.92   2
   0  -1  -6 95568.0 2577.83   1
   0  -1  -7 41785.7 1108.54   1
   0  -1  -7 41665.8 1765.15   4
   0  -1  -7 43066.1 1567.07   6
   0  -1  -7 38168.4 1201.50   3
   0   1   7 39661.0 1697.89   5
   0  -1  -7 37172.0 1980.09   5
   0  -1  -8 66219.5 1884.01   3
   0  -1  -8 79380.6 2434.22   6
   0  -1  -8 72013.0 2701.80   4
   0   1   8 74615.0 2591.66   5
   0  -1  -8 66007.4 2952.71   5
   0   1   9 421.474 448.926   2
   0  -1  -9-12.8956 68.4905   6
   0  -1  -9 519.751 235.760   4
   0   1   9-39.2624 115.628   6
   0   1   9 46.8871 85.7856   5
   0   1  10 6862.11 877.535   6
   0  -1 -10 9398.84 758.005   6
   0  -1 -10 9614.44 992.700   4
   0   1  10 8316.53 797.676   5
   0  -1 -11 1916.08 479.386   4
   0   1  11 1270.22 314.900   5
   0  -1 -11 1124.28 270.011   6
   0  -1 -12 6294.33 910.907   4
   0   1  12 5386.89 699.535   5
   0  -1 -12 5385.96 629.835   6
   0  -1 -13 1960.49 560.597   4
   0   1  13 1814.00 431.415   5
   0   1  14 3483.91 622.081   5
   0  -1 -14 4082.13 851.634   4
   0  -2  14-112.421 136.674   5
   0   2 -13 221.639 136.457   4
   0  -2  13 238.659 154.604   5
   0   2 -13 434.187 229.654   6
   0   2 -12 1817.11 557.271   4
   0   2 -12 2581.23 515.562   6
   0  -2  12 1999.25 411.159   5
   0  -2  11 564.418 205.801   5
   0   2 -11 614.109 308.770   4
   0   2 -11 498.114 201.942   6
   0  -2  10 9375.88 830.720   5
   0   2 -10 10526.3 979.826   6
   0  -2  10 5350.83 1161.07   2
   0  -2  10 7439.50 547.419   3
   0  -2  10 7683.71 457.370   1
   0   2 -10 9429.44 1093.53   4
   0   2  -9 86.7163 100.707   4
   0  -2   9 49.5954 101.907   5
   0  -2   9 16.2288 197.544   2
   0  -2   9 84.5595 62.1091   1
   0   2  -9-69.1054 85.7945   6
   0  -2   9-40.2552 68.4861   3
   0  -2   8 11340.9 606.119   1
   0  -2   8 11668.1 983.613   4
   0  -2   8 11102.9 721.406   3
   0  -2   8 12457.1 935.274   5
   0  -2   8 14369.4 1209.00   7
   0  -2   8 11634.4 1198.47   6
   0   2  -8 12780.1 1074.24   4
   0   2  -8 13621.4 1044.19   6
   0  -2   7 2969.08 436.192   5
   0   2  -7 3352.19 478.867   6
   0   2  -7 3081.67 316.668   1
   0  -2   7 3955.50 577.423   7
   0  -2   7 2650.22 412.524   4
   0  -2   7 2773.22 349.689   3
   0  -2   7 3166.31 300.897   1
   0  -2   7 2448.44 515.447   6
   0  -2   7 1755.35 532.042   2
   0   2  -7 3390.87 484.274   4
   0  -2   6 59380.0 2224.56   4
   0  -2   6 72169.6 2649.03   7
   0  -2   6 62289.2 2151.99   3
   0   2  -6 68665.0 2364.55   4
   0   2  -6 74111.5 2587.56   6
   0  -2   6 63376.8 2365.65   5
   0   2  -6 64497.6 1950.16   1
   0  -2   6 61495.5 1864.70   1
   0  -2   5 514.427 146.496   4
   0   2  -5 428.647 127.873   4
   0   2  -5 395.179 98.8740   1
   0  -2   5 571.531 195.076   5
   0   2  -5 309.280 85.6622   6
   0  -2   5 533.290 155.096   3
   0  -2   5 524.341 114.589   1
   0  -2   5 281.918 199.156   2
   0   2  -4 58420.5 2102.03   6
   0  -2   4 54474.7 1957.33   3
   0  -2   4 58149.9 2062.16   7
   0   2  -4 52835.3 1662.43   1
   0  -2   4 54812.0 1981.68   5
   0  -2   4 50280.1 1712.49   4
   0   2  -4 57982.2 1786.93   4
   0  -2   4 50567.8 1569.95   1
   0   2  -3 4981.80 402.811   1
   0  -2   3 7109.00 441.431   1
   0   2  -3 5833.70 821.861   6
   0  -2   3 3466.83 444.220   5
   0  -2   3 1248.18 325.317   3
   0  -2   2 389640. 9386.74   3
   0   2  -2 379830. 8809.38   4
   0   2  -2 378970. 9273.37   6
   0   2  -2 364940. 8914.53   1
   0  -2   2 369715. 8863.05   1
   0  -2   2 389439. 9192.89   7
   0  -2   2 376992. 8762.00   4
   0  -2   2 401435. 8974.89   5
   0   2  -2 383066. 9137.28   7
   0  -2   1 65.3639 27.6554   4
   0   2  -1 60.1423 37.1380   1
   0   2  -1 20.7839 32.1185   7
   0  -2   1 31.6081 56.4440   6
   0   2  -1-0.42031 65.8220   6
   0  -2   1 85.8050 45.5749   1
   0   2  -1 44.4479 24.0925   4
   0   2   0 200610. 5116.00   2
   0  -2   0 232052. 4995.17   6
   0   2   0 199218. 4976.65   7
   0  -2   0 194408. 4644.54   5
   0   2   0 219881. 4912.31   6
   0   2   0 197190. 4671.30   5
   0  -2   0 192535. 5131.47   2
   0  -2   0 229019. 4863.85   1
   0   2   1 1368.04 137.544   5
   0  -2  -1 1345.76 124.234   5
   0   2   1 1191.64 123.240   6
   0  -2  -1 1255.48 150.776   1
   0  -2  -1 1578.83 156.166   6
   0   2   1 1329.55 386.893   2
   0  -2  -2 511050. 9071.47   5
   0   2   2 529824. 9091.99   5
   0  -2  -3 601.912 151.686   5
   0  -2  -3 411.421 138.481   4
   0   2   3 525.755 127.835   5
   0   2   4 1318.17 174.287   6
   0  -2  -4 1212.73 195.152   4
   0   2   4 771.870 158.044   5
   0  -2  -4 985.523 109.221   6
   0  -2  -5 12169.2 751.143   4
   0  -2  -5 13053.6 552.842   6
   0   2   5 13186.9 764.938   5
   0   2   6 172164. 4693.48   5
   0  -2  -6 173143. 4742.24   4
   0  -2  -6 186689. 4319.09   6
   0  -2  -7 260.676 93.6155   3
   0   2   7 66.1623 218.139   2
   0  -2  -7 83.6318 75.1810   4
   0   2   7 306.739 140.159   6
   0  -2  -7 336.228 91.7681   1
   0   2   7 261.127 169.289   5
   0  -2  -7 265.159 116.540   6
   0  -2  -8 17684.0 667.681   3
   0  -2  -8 14878.8 603.939   1
   0   2   8 12370.3 1848.60   2
   0  -2  -8 20566.8 1204.85   4
   0  -2  -8 17125.7 1365.45   5
   0  -2  -8 20145.9 930.632   6
   0   2   8 18501.9 1107.87   5
   0   2   8 14645.5 1079.96   6
   0  -2  -9 1477.08 267.382   6
   0   2   9 1197.21 290.747   5
   0  -2  -9 1275.04 351.963   4
   0  -2  -9 1199.14 142.599   3
   0   2   9 803.734 523.074   2
   0  -2 -10 5254.89 521.477   6
   0  -2 -10 6280.34 777.252   4
   0   2  10 4270.31 655.345   6
   0   2  10 5341.25 644.013   5
   0   2  11-73.7937 111.112   5
   0   2  11 107.626 163.416   6
   0  -2 -11 293.866 201.000   4
   0   2  12 13256.1 1150.75   5
   0  -2 -12 15513.1 1388.56   4
   0  -2 -13 167.187 191.905   4
   0   2  13 247.341 206.081   5
   0  -2 -14 3523.46 746.557   4
   0   2  14 3937.15 679.701   5
   0   3 -13-51.4620 120.550   4
   0   3 -13 366.519 239.200   6
   0  -3  13 174.403 133.713   5
   0   3 -12 2641.26 687.084   4
   0  -3  12 3332.07 520.176   5
   0   3 -12 4635.92 733.304   6
   0   3 -11-192.470 199.665   4
   0   3 -11-164.226 168.635   6
   0  -3  11-78.6958 109.977   5
   0  -3  10 10534.6 634.460   1
   0   3 -10 12526.5 1275.64   4
   0   3 -10 13237.5 1175.25   6
   0  -3  10 11306.5 912.306   5
   0   3  -9 2407.69 448.694   6
   0  -3   9 1591.39 238.357   1
   0   3  -9 1859.88 433.647   4
   0  -3   9 1152.46 456.480   2
   0  -3   9 1390.27 306.474   5
   0  -3   9 1861.26 315.226   3
   0  -3   8 14582.8 968.302   3
   0  -3   8 14986.1 815.708   1
   0  -3   8 16290.1 1075.00   5
   0   3  -8 18351.6 1304.93   6
   0   3  -8 18509.3 1319.46   4
   0  -3   8 14575.9 1110.84   4
   0  -3   7 1470.04 370.691   7
   0  -3   7 1053.07 195.215   1
   0  -3   7 984.882 258.691   5
   0  -3   7 1066.90 261.165   4
   0  -3   7 737.088 321.841   2
   0  -3   7 1101.33 249.336   3
   0   3  -7 1020.21 312.905   6
   0  -3   7 639.313 249.682   6
   0   3  -7 1515.70 333.361   4
   0  -3   6 6360.59 631.613   5
   0   3  -6 5384.07 486.021   1
   0  -3   6 5431.30 595.829   3
   0  -3   6 6092.93 474.602   1
   0   3  -6 6005.24 593.602   4
   0  -3   6 7084.33 773.991   7
   0   3  -6 5758.21 675.902   6
   0  -3   6 5127.70 738.151   6
   0  -3   6 4878.89 518.469   4
   0  -3   5 471.310 241.338   2
   0   3  -5 783.514 185.044   1
   0   3  -5 617.457 241.913   6
   0  -3   5 624.978 164.973   4
   0   3  -5 1021.60 211.996   4
   0  -3   5 821.033 150.954   1
   0  -3   5 880.965 242.859   5
   0  -3   5 788.863 231.770   3
   0  -3   5 944.133 257.828   7
   0  -3   4 52108.2 1731.30   4
   0  -3   4 54406.0 1734.56   1
   0   3  -4 60516.4 2265.92   6
   0   3  -4 61425.1 1857.27   4
   0   3  -4 56626.9 1855.04   1
   0  -3   4 55521.1 2205.60   3
   0  -3   4 56273.3 2014.72   5
   0   3  -3 1084.20 224.544   7
   0   3  -3 876.431 232.298   6
   0  -3   3 896.959 167.097   5
   0  -3   3 1126.97 284.255   3
   0   3  -3 729.319 155.076   1
   0  -3   3 1109.39 113.148   2
   0  -3   3 849.147 140.585   4
   0  -3   3 863.377 159.469   1
   0   3  -3 872.431 154.914   4
   0   3  -2 15179.7 858.868   7
   0  -3   2 14692.2 707.703   1
   0  -3   2 15665.2 1015.25   3
   0   3  -2 14623.2 609.063   4
   0   3  -2 13721.5 871.272   6
   0  -3   2 16097.7 1000.56   6
   0  -3   2 14285.9 549.028   4
   0   3  -2 14782.9 751.128   1
   0   3  -1 349.099 98.2875   7
   0  -3   1 382.786 58.9081   4
   0  -3   1 330.992 105.832   1
   0  -3   1 353.291 114.021   6
   0   3  -1 296.459 110.782   6
   0   3  -1 422.585 104.163   1
   0   3  -1 392.155 58.7662   2
   0  -3   1 470.741 81.2101   5
   0  -3   1 308.905 104.961   2
   0  -3   1 344.510 116.543   7
   0  -3   0 78439.6 2539.72   2
   0  -3   0 74268.7 1921.13   5
   0   3   0 80607.3 2249.26   6
   0  -3   0 87734.4 2227.79   1
   0  -3   0 84536.1 2378.64   6
   0  -3   0 74511.7 1850.45   4
   0   3   0 74243.5 2373.65   7
   0   3   0 71956.6 1974.53   5
   0   3   0 74764.2 2376.13   2
   0  -3  -1 3405.33 306.419   1
   0   3   1 3149.34 245.106   6
   0   3   1 3369.10 358.208   7
   0  -3  -1 3263.39 286.412   6
   0   3   1 3590.71 270.360   5
   0  -3  -1 3354.76 226.541   5
   0   3   1 3276.35 567.158   2
   0  -3  -2 23321.7 868.381   4
   0  -3  -2 23021.2 906.333   1
   0  -3  -2 23770.5 830.623   5
   0   3   2 24587.9 903.425   5
   0  -3  -3 3475.00 330.157   4
   0   3   3 2366.59 630.851   2
   0  -3  -3 3334.89 306.029   1
   0   3   3 3197.46 305.717   5
   0  -3  -3 3204.05 302.444   5
   0  -3  -4 105046. 2937.70   4
   0   3   4 106008. 2957.01   5
   0  -3  -4 100026. 3002.93   5
   0  -3  -5 2154.02 295.123   4
   0   3   5 2065.77 295.647   5
   0   3   5 2290.88 239.795   6
   0   3   6 1977.46 293.843   6
   0  -3  -6 2398.51 371.966   4
   0   3   6 1930.54 320.470   5
   0   3   7 173.280 106.213   5
   0  -3  -7 83.2293 48.1769   4
   0  -3  -7 307.932 104.411   1
   0   3   7 276.643 166.659   6
   0  -3  -8 23457.3 1316.87   4
   0  -3  -8 21419.6 803.947   1
   0   3   8 18442.0 2342.20   2
   0   3   8 20843.2 1217.96   6
   0  -3  -8 21818.9 1567.75   5
   0  -3  -8 23035.3 825.284   1
   0   3   8 23778.7 1305.50   5
   0  -3  -9 10557.9 530.364   3
   0   3   9 10562.5 891.101   5
   0  -3  -9 10859.2 480.330   1
   0  -3  -9 10483.5 512.523   1
   0  -3  -9 11259.8 950.925   4
   0   3   9 9021.25 837.756   6
   0  -3 -10 18208.7 590.944   1
   0   3  10 17382.9 1227.08   5
   0  -3 -10 15622.9 637.282   3
   0  -3 -10 17734.0 1305.15   4
   0  -3 -10 18421.0 639.060   1
   0   3  11 1723.89 407.756   5
   0  -3 -11 2057.41 459.178   4
   0   3  11 1714.33 423.961   6
   0   3  12 8691.19 930.680   5
   0  -3 -12 9101.93 1036.79   4
   0   3  13 784.409 303.741   5
   0  -3 -13 647.187 294.092   4
   0  -3 -14 1828.00 506.918   4
   0   3  14 1683.34 444.603   5
   0   4 -13 204.568 171.064   4
   0   4 -12 1137.88 424.892   4
   0  -4  12 981.836 266.088   5
   0   4 -12 1695.57 463.937   6
   0  -4  11 98.6310 122.968   5
   0   4 -11-6.80153 68.9806   4
   0   4 -11 313.292 151.508   6
   0   4 -10 19163.1 1523.04   6
   0  -4  10 17707.9 1137.54   5
   0  -4  10 14727.9 895.086   1
   0   4 -10 20222.6 1656.91   4
   0   4  -9 310.604 180.125   4
   0  -4   9 215.556 119.784   5
   0  -4   9 159.069 90.0477   3
   0  -4   9 204.343 113.826   1
   0   4  -9 133.960 111.219   6
   0  -4   8 7439.54 769.758   3
   0   4  -8 9083.29 958.708   6
   0  -4   8 7407.92 597.023   1
   0  -4   8 8437.31 735.021   5
   0   4  -8 9266.66 930.513   4
   0  -4   7 287.630 156.498   4
   0   4  -7-115.533 194.035   6
   0  -4   7-135.126 152.728   2
   0  -4   7 101.676 107.342   5
   0   4  -7 162.969 102.026   4
   0  -4   7 55.4618 59.8958   3
   0  -4   7-83.7523 81.9326   1
   0  -4   6 18753.6 1574.13   6
   0  -4   6 20702.8 1188.32   5
   0  -4   6 20850.1 1372.03   3
   0  -4   6 20038.2 1024.97   1
   0   4  -6 24839.1 1305.33   4
   0  -4   6 18720.0 1099.40   4
   0  -4   6 18644.3 1303.53   2
   0  -4   6 24838.0 1580.45   7
   0   4  -6 23662.8 1479.61   6
   0  -4   5 97.1838 50.9007   5
   0   4  -5-12.9960 92.4190   6
   0   4  -5 107.751 82.9506   4
   0  -4   5 185.071 73.9195   1
   0  -4   5 122.768 52.8186   4
   0  -4   5 246.760 144.345   3
   0  -4   5 86.4327 96.6147   2
   0  -4   5 136.775 77.3543   7
   0  -4   5 27.5258 122.133   6
   0  -4   4 44203.8 1955.69   7
   0  -4   4 35258.6 1362.59   4
   0   4  -4 42099.1 1514.90   4
   0  -4   4 39403.9 1595.14   5
   0   4  -4 38712.4 1742.36   7
   0   4  -4 39196.7 1887.93   6
   0  -4   4 38955.2 1497.22   1
   0  -4   4 39614.0 1991.18   3
   0  -4   4 35112.8 2020.73   6
   0  -4   3 577.841 211.057   3
   0  -4   3 509.586 104.270   4
   0   4  -3 640.894 207.931   7
   0   4  -3 537.568 120.249   4
   0  -4   3 381.444 104.763   1
   0   4  -3 636.818 171.789   6
   0  -4   3 556.352 131.366   5
   0  -4   3 609.362 222.054   6
   0   4  -2 107502. 3382.52   6
   0  -4   2 110428. 3082.56   1
   0   4  -2 110087. 2799.41   4
   0  -4   2 116683. 3823.21   3
   0  -4   2 105194. 2662.62   4
   0  -4   2 103431. 3622.94   6
   0   4  -2 110379. 3411.31   7
   0  -4   2 107428. 2774.42   5
   0   4  -1 803.630 195.876   6
   0   4  -1 733.214 187.074   7
   0  -4   1 550.190 140.909   1
   0   4  -1 648.669 91.3217   2
   0  -4   1 735.397 85.5209   4
   0  -4   1 731.157 108.209   5
   0  -4   1 824.918 232.013   6
   0   4   0 88596.5 2467.94   6
   0   4   0 78783.3 2649.86   7
   0  -4   0 86464.8 2627.88   6
   0  -4   0 75604.8 2034.86   5
   0   4   0 77881.0 2525.01   2
   0  -4   0 92337.9 2466.24   1
   0   4   0 76729.7 2135.76   5
   0  -4   0 75203.5 1924.72   4
   0   4   1 42888.4 2293.45   2
   0   4   1 46974.4 1433.82   5
   0  -4  -1 42270.8 1538.53   6
   0   4   1 44358.1 1769.82   7
   0   4   1 42211.6 1394.82   6
   0  -4  -1 44845.9 1290.86   5
   0  -4  -1 42755.2 1539.23   1
   0  -4  -2 123952. 3248.39   4
   0  -4  -2 122159. 3457.10   1
   0   4   2 128697. 3086.57   6
   0   4   2 134805. 3425.43   5
   0  -4  -2 133296. 3252.75   5
   0   4   2 138732. 3892.94   7
   0  -4  -3 11659.8 623.303   4
   0   4   3 11372.0 664.892   5
   0  -4  -3 11356.2 610.989   5
   0  -4  -3 10523.0 631.493   1
   0  -4  -4 4912.75 412.412   1
   0  -4  -4 4518.39 432.909   5
   0   4   4 4504.66 437.420   5
   0  -4  -4 4753.17 418.157   4
   0   4   5 234.941 94.8519   5
   0  -4  -5 385.408 161.252   5
   0  -4  -5 451.697 147.814   4
   0  -4  -5 438.781 119.857   1
   0   4   6 27262.0 1329.59   5
   0  -4  -6 26056.1 1254.19   4
   0  -4  -6 23915.2 1399.73   5
   0  -4  -6 25737.2 1058.23   1
   0   4   7-31.2616 299.946   2
   0   4   7 616.440 211.591   5
   0  -4  -7 201.489 132.374   5
   0  -4  -7 425.131 133.045   1
   0  -4  -7 275.315 245.213   4
   0  -4  -8 48153.6 1559.16   1
   0   4   8 46586.4 2043.43   5
   0  -4  -8 48545.6 2033.65   4
   0  -4  -9 150.805 117.234   4
   0  -4  -9 35.1063 47.3513   1
   0   4   9-92.8274 89.1289   5
   0   4  10 7593.81 815.435   5
   0  -4 -10 8672.43 886.280   4
   0  -4 -10 7944.48 469.914   1
   0  -4 -10 7286.43 451.014   1
   0  -4 -11 394.407 231.381   4
   0   4  11 347.501 224.714   5
   0  -4 -11 254.971 71.7549   3
   0  -4 -11 242.737 66.6293   1
   0  -4 -12 1563.99 432.935   4
   0   4  12 1068.45 349.993   5
   0   4  13 166.339 112.744   5
   0  -4 -13 241.520 176.798   4
   0  -4 -14 2490.69 601.620   4
   0   5 -12 2759.25 699.076   4
   0   5 -11 395.508 251.789   6
   0   5 -11 25.2884 94.3640   4
   0  -5  10 2864.99 404.415   1
   0  -5  10 3328.45 459.802   5
   0   5 -10 3299.52 673.997   4
   0   5 -10 3785.45 695.924   6
   0   5  -9-83.7500 197.407   6
   0  -5   9 55.8303 81.7105   5
   0   5  -9-55.5070 81.7093   4
   0  -5   9 24.1779 42.2610   1
   0  -5   8 18241.4 1119.61   1
   0  -5   8 24884.6 986.280   2
   0  -5   8 16320.9 1314.45   3
   0   5  -8 21720.5 1483.00   4
   0  -5   8 18956.5 1120.33   5
   0   5  -8 22002.1 1623.40   6
   0  -5   7 438.520 205.045   3
   0   5  -7 891.628 263.490   4
   0  -5   7 845.298 119.503   2
   0  -5   7 867.331 229.904   5
   0  -5   7 590.507 187.322   1
   0   5  -7 932.280 324.895   6
   0  -5   7 819.980 159.220   2
   0   5  -6 14212.2 1192.48   6
   0   5  -6 14390.7 973.576   4
   0  -5   6 12249.8 858.868   5
   0  -5   6 13225.7 1163.77   3
   0  -5   6 10153.0 809.590   4
   0  -5   6 11373.8 816.236   1
   0  -5   5 1653.00 309.279   5
   0  -5   5 1687.52 285.133   1
   0  -5   5 1388.90 254.470   4
   0   5  -5 1609.24 370.733   6
   0  -5   5 1468.90 388.595   3
   0  -5   5 1356.17 356.699   7
   0   5  -5 1695.01 289.674   4
   0  -5   4 45824.5 1798.61   1
   0   5  -4 49851.8 1736.85   4
   0  -5   4 43178.5 2401.12   6
   0  -5   4 48382.4 1799.42   5
   0   5  -4 49009.0 2222.95   6
   0  -5   4 49516.2 2407.74   3
   0   5  -4 43646.6 2054.23   7
   0  -5   4 50845.8 2283.64   7
   0  -5   4 41101.5 1543.08   4
   0  -5   3 6225.24 781.824   3
   0  -5   3 5342.48 389.717   5
   0  -5   3 4685.95 694.627   6
   0  -5   3 4705.95 356.154   4
   0  -5   3 5328.70 512.169   1
   0  -5   3 6073.53 685.131   7
   0  -5   3 5320.51 447.820   5
   0   5  -3 5036.62 609.201   7
   0   5  -3 5260.49 416.845   4
   0   5  -3 5061.30 607.311   6
   0  -5   2 41252.4 2161.12   3
   0  -5   2 36430.0 1918.87   6
   0   5  -2 39278.0 1766.99   6
   0  -5   2 35963.6 1110.80   4
   0  -5   2 38720.6 1562.65   1
   0   5  -2 39107.8 1848.14   7
   0  -5   2 39298.0 1216.61   5
   0   5  -1 1025.35 130.684   2
   0  -5   1 1082.91 222.536   1
   0  -5   1 1196.90 108.526   4
   0  -5   1 1171.45 144.929   5
   0   5  -1 1182.49 250.449   6
   0  -5   1 889.414 258.176   6
   0   5  -1 978.070 239.913   7
   0   5   0 16963.4 933.165   2
   0   5   0 19128.4 961.322   6
   0  -5   0 17511.4 1064.43   6
   0   5   0 16369.7 1106.02   7
   0  -5   0 16103.3 645.685   5
   0  -5   0 20202.3 1018.41   1
   0  -5   0 15683.5 524.859   4
   0   5   0 15909.1 745.866   5
   0   5   1 6855.76 480.600   5
   0  -5  -1 6312.70 530.559   1
   0   5   1 6904.40 478.637   6
   0  -5  -1 7139.96 395.725   5
   0   5   1 6893.35 686.412   7
   0  -5  -1 6197.99 547.053   6
   0   5   1 6928.94 838.631   2
   0  -5  -2 59011.7 1759.49   4
   0   5   2 62815.4 1721.74   6
   0   5   2 65120.8 2018.97   5
   0  -5  -2 57228.4 2055.32   1
   0  -5  -2 62044.3 1798.55   5
   0   5   2 56220.3 3361.82   2
   0   5   2 65850.6 2522.70   7
   0  -5  -3 19905.4 886.968   5
   0  -5  -3 19750.9 855.813   4
   0   5   3 20459.5 1008.02   5
   0  -5  -3 18216.7 971.062   1
   0  -5  -4 132099. 3731.12   5
   0  -5  -4 130837. 3719.82   1
   0   5   4 135356. 3825.11   5
   0  -5  -4 132970. 3600.82   4
   0   5   5 1555.92 290.508   5
   0  -5  -5 1091.70 220.619   1
   0  -5  -5 1273.84 269.512   5
   0   5   5 885.022 542.404   2
   0  -5  -5 1041.08 227.897   4
   0  -5  -6 46735.8 1797.98   4
   0   5   6 45013.7 1944.53   5
   0  -5  -6 43170.7 1640.08   1
   0  -5  -6 43033.2 1977.54   5
   0  -5  -7-21.0562 58.2928   1
   0   5   7 2.53310 236.475   2
   0  -5  -7 73.9867 219.929   4
   0  -5  -7 60.6313 95.1581   5
   0   5   7-55.0772 84.1391   5
   0   5   8 11567.7 979.350   5
   0  -5  -8 11844.9 716.501   1
   0  -5  -8 12496.9 921.916   4
   0   5   9 90.9572 97.9502   5
   0  -5  -9-9.07762 28.1099   1
   0  -5 -10 1371.16 345.490   4
   0   5  10 1053.81 308.525   5
   0  -5 -10 1053.95 189.705   1
   0   5  11 656.313 272.646   5
   0  -5 -11 1113.94 361.517   4
   0  -5 -11 821.211 167.364   1
   0   5  12 5680.40 807.288   5
   0  -5 -12 5149.50 753.369   4
   0  -5 -13 478.205 252.582   4
   0   5  13 425.362 249.837   5
   0   6 -11 119.248 137.959   4
   0   6 -10 4022.04 731.796   4
   0   6 -10 4117.18 767.238   6
   0   6  -9 1151.25 406.057   6
   0  -6   9 640.966 207.101   1
   0   6  -9 631.057 260.234   4
   0   6  -8 13483.9 1148.27   4
   0  -6   8 10372.7 890.822   1
   0   6  -8 14629.2 1391.04   6
   0  -6   8 11921.9 805.490   5
   0   6  -7 3214.02 629.274   6
   0   6  -7 4110.29 571.205   4
   0  -6   7 3018.71 457.312   1
   0  -6   7 3677.68 422.356   5
   0   6  -6 24828.1 1355.58   4
   0  -6   6 21698.1 1125.79   5
   0  -6   6 20248.3 1222.00   1
   0   6  -6 22325.0 1627.40   6
   0   6  -5 270.827 146.565   6
   0  -6   5 678.650 186.762   5
   0  -6   5 445.703 146.417   4
   0   6  -5 456.683 143.886   4
   0  -6   5 506.583 167.288   1
   0  -6   4 5345.61 421.744   5
   0  -6   4 5718.62 518.599   5
   0  -6   4 5353.98 575.505   1
   0   6  -4 6081.96 505.332   4
   0   6  -4 5515.59 712.397   7
   0  -6   4 5702.80 827.887   3
   0   6  -4 5218.94 681.150   6
   0  -6   4 4637.81 428.707   4
   0  -6   3 313.821 84.6343   5
   0   6  -3 451.352 183.150   6
   0  -6   3 390.776 212.322   7
   0  -6   3 228.013 159.316   6
   0   6  -3 455.211 211.065   7
   0  -6   3 181.551 98.4587   1
   0  -6   3 308.857 96.0168   4
   0  -6   3 427.991 121.916   5
   0  -6   3 401.366 215.141   3
   0   6  -2 1470.13 326.820   6
   0  -6   2 1475.38 177.007   5
   0   6  -2 1356.43 343.161   7
   0  -6   2 1222.96 142.489   4
   0  -6   2 1614.85 351.843   7
   0  -6   2 1499.46 399.468   3
   0  -6   2 1286.08 336.131   6
   0  -6   2 1176.81 266.614   1
   0   6  -1 34.2132 37.0805   2
   0  -6   1 45.7327 125.103   6
   0  -6   1-95.6007 116.719   3
   0  -6   1 10.0838 51.6037   1
   0  -6   1 3.58023 18.2587   4
   0   6  -1-79.9002 112.483   7
   0  -6   1-10.7820 108.980   7
   0  -6   1 42.0163 22.8597   5
   0   6  -1 2.10406 68.9059   6
   0  -6   0 54084.7 1990.14   1
   0   6   0 43400.0 2157.18   7
   0  -6   0 44036.2 1363.33   5
   0  -6   0 49004.1 2102.51   6
   0  -6   0 43265.0 1967.37   7
   0   6   0 49273.0 1811.09   6
   0  -6   0 46936.2 1151.21   4
   0   6   0 44901.4 1733.50   2
   0   6   1 15663.9 1253.98   2
   0  -6  -1 13417.3 922.219   6
   0  -6  -1 12559.9 883.358   1
   0   6   1 14652.6 794.294   5
   0   6   1 13544.0 747.696   6
   0   6   1 14216.1 1137.26   7
   0  -6  -1 14353.9 628.734   5
   0  -6  -1 13764.9 524.504   4
   0  -6  -2 110137. 2938.60   5
   0   6   2 114600. 3928.56   7
   0   6   2 112804. 2909.42   6
   0  -6  -2 102372. 3324.55   1
   0   6   2 114454. 3244.92   5
   0   6   2 110129. 4891.68   2
   0  -6  -2 106216. 2790.72   4
   0  -6  -3 14647.9 935.934   1
   0  -6  -3 15787.2 740.552   4
   0  -6  -3 16141.0 818.272   5
   0   6   3 16049.4 1265.52   7
   0   6   3 16441.9 948.197   5
   0  -6  -4 43477.4 1794.36   1
   0  -6  -4 46866.0 1593.42   4
   0  -6  -4 44965.5 1730.81   5
   0   6   4 47018.6 1876.49   5
   0   6   5 393.456 164.369   5
   0  -6  -5 610.274 176.040   1
   0   6   5 78.2568 377.039   2
   0  -6  -5 460.017 163.400   5
   0  -6  -5 313.798 103.828   4
   0   6   6 8501.35 787.003   5
   0  -6  -6 8319.58 649.212   4
   0  -6  -6 7101.18 737.239   5
   0  -6  -6 7871.82 653.270   1
   0  -6  -7-116.180 155.957   5
   0  -6  -7 58.4989 92.2440   1
   0  -6  -7-24.5564 147.130   4
   0   6   7-47.4464 57.8939   5
   0   6   8 7631.50 827.981   5
   0  -6  -8 7256.81 689.871   4
   0  -6  -8 7019.85 600.537   1
   0  -6  -9 101.073 95.0859   1
   0   6   9-157.713 140.352   5
   0  -6 -10 16773.4 949.996   1
   0   6  10 16287.2 1338.94   5
   0  -6 -10 17637.0 1263.10   4
   0  -6 -11 186.013 81.5112   1
   0   6  11 44.8406 48.6134   5
   0  -6 -12 4295.27 682.875   4
   0   6  12 4617.10 747.004   5
   0   6  13-193.302 220.275   5
   0  -6 -13 220.253 183.329   4
   0  -7   9 186.379 108.867   1
   0   7  -9 390.715 233.691   6
   0   7  -8 5401.90 711.497   4
   0   7  -8 5411.10 888.887   6
   0  -7   8 4136.57 580.697   1
   0   7  -7 592.610 235.482   4
   0  -7   7 415.794 173.807   1
   0   7  -7 419.180 261.242   6
   0  -7   6 5422.88 644.686   1
   0   7  -6 7053.47 928.040   6
   0  -7   6 5805.45 469.416   5
   0   7  -6 6989.95 685.761   4
   0   7  -5 87.9385 76.4316   6
   0  -7   5 269.231 131.099   1
   0  -7   5 301.596 108.378   5
   0  -7   4 20097.3 976.692   5
   0   7  -4 20172.6 1526.21   7
   0  -7   4 21060.7 1311.28   1
   0  -7   4 21502.2 874.804   5
   0   7  -4 21921.6 1542.66   6
   0  -7   3 4795.58 331.626   5
   0  -7   3 3986.32 380.873   5
   0   7  -3 4280.78 680.976   7
   0   7  -3 4973.71 661.199   6
   0  -7   3 4275.42 558.988   1
   0  -7   2 13469.7 1010.30   1
   0   7  -2 14513.2 1256.71   7
   0   7  -2 14814.3 1099.57   6
   0  -7   2 13194.0 1255.49   6
   0  -7   2 14468.0 602.319   5
   0  -7   1 2208.22 410.050   1
   0  -7   1 2119.12 207.776   5
   0   7  -1 2267.59 232.278   2
   0   7  -1 2074.91 475.454   7
   0  -7   1 3024.70 552.030   6
   0   7  -1 2720.01 417.388   6
   0   7   0 17789.6 1014.33   6
   0  -7   0 19326.9 1188.53   1
   0   7   0 15402.6 895.290   2
   0   7   0 14971.1 1279.31   7
   0  -7   0 15610.9 663.147   5
   0  -7   0 17258.2 1239.07   6
   0  -7  -1 1180.92 376.673   3
   0  -7  -1 598.732 71.2451   4
   0  -7  -1 715.565 210.190   1
   0   7   1 582.891 220.738   7
   0   7   1 899.081 288.891   2
   0   7   1 675.607 164.361   6
   0  -7  -1 797.844 139.683   5
   0   7   1 664.889 175.866   5
   0  -7  -1 557.124 61.4088   4
   0  -7  -2 8362.36 772.117   1
   0   7   2 10424.2 1284.34   2
   0  -7  -2 9132.09 432.637   4
   0  -7  -2 9173.40 565.927   5
   0   7   2 10442.1 1080.03   7
   0   7   2 9944.34 732.418   5
   0   7   2 9895.43 563.489   6
   0   7   3 308.812 196.491   7
   0  -7  -3 285.538 123.426   5
   0  -7  -3 242.036 76.3072   4
   0   7   3 145.687 86.1434   5
   0  -7  -3 259.125 85.6119   1
   0   7   4 7628.34 976.728   7
   0   7   4 6804.02 663.374   5
   0   7   4 5417.07 1301.94   2
   0  -7  -4 6666.11 477.474   4
   0  -7  -4 6495.27 661.994   1
   0  -7  -4 6198.02 577.706   5
   0  -7  -5 9342.78 790.348   1
   0   7   5 9228.32 1110.52   7
   0  -7  -5 8736.35 772.079   5
   0   7   5 9833.69 852.808   5
   0   7   5 7863.66 1634.84   2
   0  -7  -5 9774.93 659.575   4
   0  -7  -6 8383.65 649.156   4
   0  -7  -6 8332.99 726.622   1
   0  -7  -6 6849.12 740.084   5
   0   7   6 7766.92 805.058   5
   0  -7  -7 119.876 244.933   4
   0  -7  -7 321.107 219.613   1
   0   7   7 201.552 178.363   5
   0  -7  -8 28608.3 1464.65   4
   0   7   8 26770.8 1712.22   5
   0  -7  -8 26178.0 1381.12   1
   0   7   9 39.4643 111.671   5
   0  -7  -9-28.8995 84.9448   1
   0   7  10 6316.52 861.727   5
   0  -7 -10 7951.68 692.519   1
   0  -7 -10 8999.03 879.824   4
   0   7  11-34.3635 82.8801   5
   0  -7 -11 96.8752 76.6035   1
   0  -7 -11 251.546 158.251   4
   0   7  12 2042.89 535.902   5
   0  -7 -12 2319.67 508.835   4
   0  -7 -13 134.858 160.461   4
   0  -8   9-41.6228 83.2000   1
   0  -8   8 373.390 181.059   1
   0   8  -8 261.354 173.744   6
   0   8  -7 567.527 283.061   6
   0  -8   7 376.518 169.601   1
   0   8  -6 12286.2 1312.26   6
   0  -8   6 10913.7 1007.00   1
   0   8  -5 1881.70 475.769   6
   0  -8   5 1878.46 397.717   1
   0   8  -5 1418.54 413.551   7
   0   8  -4 14632.9 1288.38   6
   0   8  -4 14017.0 1356.26   7
   0  -8   4 13420.1 1104.28   1
   0  -8   3-177.019 145.921   1
   0  -8   3 34.0785 36.4865   5
   0   8  -3-63.2853 155.779   7
   0   8  -3-200.604 173.537   6
   0   8  -2 15225.1 1154.82   6
   0  -8   2 15174.6 554.053   5
   0  -8   2 13968.3 1108.86   1
   0   8  -2 14534.9 1363.33   7
   0  -8   1 53.2651 75.8432   6
   0   8  -1 249.112 75.3796   2
   0  -8   1 95.9597 79.6416   1
   0  -8   1 176.990 52.8001   5
   0   8  -1 110.115 78.8406   7
   0   8  -1 189.653 127.911   6
   0   8   0 3854.37 411.726   2
   0   8   0 3729.69 679.742   7
   0  -8   0 3828.21 302.011   5
   0   8   0 4387.16 500.591   6
   0   8   1 127.266 141.923   7
   0  -8  -1 65.7871 49.5973   5
   0  -8  -1 108.637 70.2244   1
   0   8   1 70.2333 66.6579   6
   0   8   1 170.678 69.6360   2
   0  -8  -2 5349.37 260.892   4
   0   8   2 6185.56 898.051   7
   0   8   2 5571.43 451.505   6
   0  -8  -2 5725.64 474.328   5
   0  -8  -2 5814.67 308.955   4
   0  -8  -2 4852.40 623.697   1
   0   8   2 5615.34 567.049   5
   0  -8  -3 62.8466 47.2099   4
   0   8   3 68.1063 237.046   2
   0  -8  -3-41.3499 110.546   1
   0   8   3 75.2535 104.081   7
   0   8   3 29.3546 50.6804   5
   0  -8  -3 65.0178 70.7116   5
   0   8   4 13611.2 1440.82   7
   0  -8  -4 14711.0 1104.32   1
   0   8   4 15716.3 1090.99   5
   0  -8  -4 13768.9 954.472   5
   0  -8  -4 15504.5 746.514   4
   0   8   4 12040.3 1902.95   2
   0  -8  -5 3554.26 504.006   5
   0   8   5 4895.49 868.605   7
   0   8   5 3692.72 1114.30   2
   0  -8  -5 5494.95 649.862   1
   0   8   5 4723.41 600.944   5
   0  -8  -5 4344.38 414.748   4
   0  -8  -6 13595.2 841.623   4
   0   8   6 13075.8 1513.13   7
   0  -8  -6 11177.0 1029.28   5
   0  -8  -6 12578.5 999.947   1
   0   8   6 14336.5 1147.88   5
   0  -8  -7 152.140 118.937   1
   0  -8  -7 470.622 165.692   4
   0   8   7 199.312 168.595   5
   0   8   8 3425.47 613.447   5
   0  -8  -8 3470.14 510.956   1
   0  -8  -8 3866.40 504.357   4
   0   8   9 283.804 209.449   5
   0  -8  -9 269.705 154.338   1
   0  -8  -9 659.000 233.237   4
   0  -8 -10 1912.85 414.027   4
   0  -8 -10 1719.78 343.797   1
   0   8  10 1873.99 486.211   5
   0  -8 -11 243.339 189.598   4
   0  -8 -11 93.9815 100.688   1
   0   8  11 70.0019 127.408   5
   0  -8 -12 1852.40 447.146   4
   0   8  12 1703.80 518.236   5
   0  -8 -13 83.9924 144.184   4
   0  -9   8 1859.68 452.526   1
   0  -9   7 11.8447 54.4861   1
   0  -9   6 787.321 297.468   1
   0   9  -6 403.017 252.607   6
   0   9  -5 53.0719 191.768   7
   0  -9   5-115.972 170.414   1
   0   9  -5 60.1876 98.0877   6
   0  -9   4 8448.62 931.351   1
   0   9  -4 8781.17 1022.50   6
   0   9  -4 8926.10 1139.95   7
   0   9  -3 286.219 194.891   6
   0  -9   3 23.5694 104.160   1
   0   9  -3-25.0794 102.664   7
   0   9  -2 8519.29 878.204   6
   0  -9   2 9084.10 950.398   1
   0   9  -2 8679.96 1132.35   7
   0   9  -1 688.931 292.939   7
   0  -9   1 1071.80 319.624   1
   0   9  -1 740.926 232.829   6
   0   9   0 5374.51 577.699   6
   0   9   0 4745.37 822.084   7
   0  -9   0 5695.23 731.400   1
   0   9   1 967.515 224.053   6
   0  -9  -1 1000.61 294.963   1
   0   9   1 958.902 244.621   2
   0   9   1 613.381 313.480   7
   0  -9  -2 26081.7 1245.93   5
   0   9   2 28601.3 1451.77   5
   0   9   2 29697.7 2200.86   7
   0  -9  -2 26983.9 1682.65   1
   0  -9  -3 167.571 140.393   1
   0  -9  -3-97.4088 111.300   5
   0   9   3-17.1672 45.1127   5
   0  -9  -3-6.43018 16.4666   4
   0   9   3-108.993 125.991   7
   0  -9  -4 12289.6 1072.96   1
   0   9   4 10650.4 1729.06   2
   0  -9  -4 12135.4 620.816   4
   0  -9  -4 10413.6 887.678   5
   0   9   4 12710.2 1025.57   5
   0   9   4 12901.1 1494.01   7
   0   9   5 140.217 140.870   5
   0  -9  -5-3.12874 70.1430   5
   0  -9  -5 71.9767 67.8807   4
   0   9   5 173.138 204.749   7
   0  -9  -5 72.0473 93.5561   1
   0  -9  -6 989.987 294.059   1
   0   9   6 1058.68 442.910   7
   0   9   6 1064.55 307.063   5
   0  -9  -6 1319.27 253.039   4
   0  -9  -7 1468.47 349.414   1
   0  -9  -7 1615.10 302.425   4
   0   9   7 2587.44 738.116   7
   0   9   7 1450.82 389.293   5
   0  -9  -8 1909.57 354.151   4
   0   9   8 2003.58 679.737   7
   0   9   8 1821.66 459.620   5
   0  -9  -8 1660.79 383.646   1
   0  -9  -9 100.166 143.258   4
   0  -9  -9 77.7352 53.2224   1
   0   9   9-81.4560 145.662   5
   0  -9 -10 2505.83 464.850   4
   0  -9 -10 2716.96 467.796   1
   0   9  10 2675.18 612.752   5
   0  -9 -11 151.764 134.172   4
   0   9  11-223.700 226.510   5
   0  -9 -12 1788.61 443.211   4
   0  10  -5 478.784 264.983   6
   0 -10   5 271.185 175.229   1
   0  10  -4 2226.06 590.474   7
   0 -10   4 2373.85 526.256   1
   0  10  -4 2824.53 605.769   6
   0  10  -3 197.597 150.926   7
   0  10  -3 102.243 96.7117   6
   0 -10   3 70.1834 94.8387   1
   0 -10   2 1996.45 467.069   1
   0  10  -2 2637.95 497.967   6
   0  10  -2 1900.59 551.083   7
   0  10  -1 2.42333 217.294   7
   0  10  -1 33.6064 65.1951   6
   0 -10   1-132.622 214.246   1
   0  10   0 11674.5 1428.43   7
   0 -10   0 13938.3 1267.64   1
   0  10   0 12385.2 944.145   6
   0 -10  -1 3869.95 648.843   1
   0  10   1 3322.37 744.589   7
   0 -10  -2 3668.94 625.911   1
   0  10   2 4401.75 885.843   7
   0  10   3 2352.01 422.262   5
   0  10   3 2454.15 685.102   7
   0 -10  -3 1839.39 455.814   1
   0 -10  -4 5400.11 764.688   1
   0  10   4 7200.08 1205.50   7
   0  10   4 6118.38 736.049   5
   0  10   5-15.2080 164.764   7
   0  10   5 31.1666 39.4036   5
   0 -10  -5-98.0894 106.506   1
   0 -10  -6 4345.82 670.151   1
   0  10   6 5014.55 1086.44   7
   0  10   6 4411.04 686.131   5
   0 -10  -7 5.91086 64.8833   1
   0  10   7 286.703 251.918   7
   0  10   7 46.3768 68.6166   5
   0  10   8 3985.48 1022.82   7
   0  10   8 3257.61 645.057   5
   0 -10  -8 3390.02 574.441   1
   0  10   9 69.1108 126.616   7
   0  10   9-8.28035 67.0988   5
   0 -10  -9 200.564 174.172   1
   0  10  10 2621.21 624.770   5
   0 -10 -10 2107.87 455.074   1
   0  10  11-46.5901 182.387   5
   0  11  -4 512.919 281.413   6
   0  11  -3 472.665 236.257   6
   0  11  -2 5160.83 738.663   6
   0 -11   1 542.729 258.139   1
   0  11  -1 579.987 353.546   7
   0  11   0-25.5661 142.381   7
   0 -11   0 335.843 221.496   1
   0 -11  -1-28.7740 133.853   1
   0  11   1 128.556 202.880   7
   0  11   2 2255.81 679.427   7
   0 -11  -2 1932.82 493.080   1
   0 -11  -3 369.021 246.974   1
   0  11   3 299.514 320.288   7
   0  11   4 6167.95 1185.31   7
   0 -11  -4 5740.77 830.643   1
   0  11   5 3.59617 133.544   7
   0 -11  -5 235.035 194.164   1
   0  11   6 2503.76 789.741   7
   0 -11  -6 2666.52 566.792   1
   0 -11  -7 78.8064 124.157   1
   0  11   7 217.263 191.703   5
   0  11   8 3218.37 679.721   5
   0 -11  -8 3257.52 613.992   1
   0  11   9 239.934 163.174   5
   0 -11  -9 169.556 177.563   1
   0  11  10 1454.52 473.693   5
   0 -11 -10 1600.29 426.060   1
   1 -11  -9 1153.15 354.954   1
   1 -11  -8 166.221 145.226   1
   1 -11  -7 1702.38 441.333   1
   1 -11  -6-169.618 175.668   1
   1 -11  -5 2248.40 513.226   1
  -1  11   5 3053.69 916.270   7
  -1  11   4 120.854 202.496   7
   1 -11  -4 19.9336 74.6424   1
  -1  11   3 1265.05 545.257   7
   1 -11  -3 1348.59 400.650   1
  -1  11   2 584.144 397.677   7
   1 -11  -2 689.272 299.939   1
  -1  11   1 1073.06 442.746   7
   1 -11  -1 1515.73 431.528   1
   1 -11   0 2326.76 523.788   1
  -1  11   0 3017.57 794.902   7
  -1  10  10-150.336 185.887   5
   1 -10 -10 83.5473 108.010   1
   1 -10  -9 775.552 267.399   1
  -1  10   9 1127.90 388.409   5
   1 -10  -8-12.3508 112.683   1
  -1  10   8 112.919 108.033   7
  -1  10   8 18.3938 49.6830   5
  -1  10   7 1449.46 635.013   7
   1 -10  -7 1858.26 433.389   1
  -1  10   7 1864.41 453.375   5
  -1  10   6-20.1822 48.3904   5
  -1  10   6 107.070 272.246   7
   1 -10  -6 19.8570 94.9376   1
  -1  10   5 5151.08 677.061   5
  -1  10   5 4062.39 993.879   7
   1 -10  -5 5223.10 725.118   1
   1 -10  -4 629.839 227.784   1
  -1  10   4 504.922 199.981   5
  -1  10   4 1074.42 485.633   7
  -1  10   3 15480.4 1756.78   7
   1 -10  -3 12830.6 1190.20   1
  -1  10   2 597.376 318.105   7
   1 -10  -2 531.173 214.726   1
   1 -10  -1 5022.61 727.492   1
  -1  10   1 5075.25 942.363   7
   1 -10   0 975.677 348.180   1
  -1  10   0 1051.63 440.624   7
  -1  10  -1 1890.76 550.687   7
   1 -10   1 1595.50 406.769   1
   1 -10   2 776.668 280.378   1
  -1  10  -2 1218.49 426.234   7
   1 -10   3 3491.82 613.183   1
  -1  10  -3 3097.91 748.823   7
  -1  10  -4 147.969 188.531   7
   1 -10   4 122.010 80.1433   1
   1 -10   5 1096.27 362.541   1
   1  -9 -12 165.538 194.358   4
   1  -9 -11 1368.31 369.418   4
  -1   9  11 778.213 315.631   5
   1  -9 -10 229.409 127.815   4
  -1   9  10 214.701 125.679   5
   1  -9 -10-72.2183 109.563   1
   1  -9  -9 1671.28 358.418   4
  -1   9   9 1309.15 555.723   7
  -1   9   9 2065.58 502.204   5
   1  -9  -9 2028.61 411.513   1
  -1   9   8-250.077 291.104   7
   1  -9  -8-16.1381 53.9938   4
   1  -9  -8 23.3813 98.0433   1
  -1   9   8-231.370 191.865   5
  -1   9   7 3919.32 633.196   5
   1  -9  -7 4787.46 556.366   4
   1  -9  -7 3781.04 572.554   1
  -1   9   7 4553.22 1013.16   7
  -1   9   6-141.914 280.555   7
  -1   9   6 95.0046 97.8129   5
   1  -9  -6 122.534 109.152   1
   1  -9  -6 34.6204 55.8699   4
  -1   9   5 16773.2 1830.32   7
   1  -9  -5 15215.0 1184.10   1
  -1   9   5 16039.9 1188.31   5
   1  -9  -5 15423.4 941.831   4
   1  -9  -4 367.740 251.148   4
  -1   9   4 53.5988 58.0179   5
  -1   9   4 402.348 321.233   7
   1  -9  -4 33.5260 124.513   1
  -1   9   3 8054.35 1182.23   2
   1  -9  -3 7216.58 542.005   4
  -1   9   3 6937.76 666.601   5
  -1   9   3 7845.40 1175.72   7
   1  -9  -3 6862.42 792.856   1
  -1   9   2 423.100 223.786   2
   1  -9  -2 468.636 204.579   1
   1  -9  -2 449.875 128.291   4
  -1   9   2 616.746 322.015   7
  -1   9   2 665.856 181.931   5
  -1   9   1 4879.39 659.025   2
   1  -9  -1 3932.73 318.484   4
   1  -9  -1 3961.05 570.046   6
  -1   9   1 5997.28 958.344   7
   1  -9  -1 4342.95 635.386   1
  -1   9   0 216.269 172.834   7
   1  -9   0 147.968 134.095   6
   1  -9   0 341.999 187.450   1
   1  -9   1 8115.77 894.115   1
  -1   9  -1 10313.3 1255.17   7
  -1   9  -2 388.919 249.599   7
   1  -9   2 480.599 199.678   1
  -1   9  -3 15563.9 1566.85   7
   1  -9   3 17802.6 1340.81   1
  -1   9  -4-18.6246 102.905   7
   1  -9   4 217.098 128.397   1
  -1   9  -5 3069.17 685.227   7
   1  -9   5 2808.40 524.411   1
   1  -9   6 403.210 182.546   1
   1  -9   7 1320.87 363.064   1
   1  -9   8-152.681 168.188   1
   1  -8 -12 543.064 263.228   4
   1  -8 -11 2997.94 542.273   4
  -1   8  11 2743.44 588.733   5
   1  -8 -10-24.1331 41.3319   1
  -1   8  10-92.9032 152.048   5
   1  -8 -10 38.3676 57.3787   4
  -1   8   9 5359.94 771.885   5
   1  -8  -9 4793.47 590.888   1
   1  -8  -9 4746.75 616.583   4
  -1   8   8 42.1217 61.5065   5
   1  -8  -8-84.5009 100.338   1
   1  -8  -8 24.3299 50.5028   4
   1  -8  -7 8094.97 736.566   4
  -1   8   7 7943.81 1245.36   7
  -1   8   7 7843.94 864.895   5
   1  -8  -7 7568.91 754.856   1
   1  -8  -6-4.90274 75.5394   1
  -1   8   6-80.8248 144.803   7
   1  -8  -6 51.2106 87.3546   5
   1  -8  -6 109.125 120.489   4
  -1   8   6-51.0932 121.287   5
   1  -8  -5 901.561 257.775   1
  -1   8   5 936.043 421.009   7
   1  -8  -5 1188.63 330.446   5
   1  -8  -5 1401.26 281.049   4
  -1   8   5 990.260 264.347   5
  -1   8   4 465.268 509.775   2
   1  -8  -4 121.400 153.006   5
  -1   8   4 60.4236 43.6493   5
   1  -8  -4 13.2586 66.5852   1
  -1   8   4 541.805 342.002   7
   1  -8  -4 315.680 181.024   4
  -1   8   3 5307.79 554.709   5
  -1   8   3 5860.15 1038.03   2
   1  -8  -3 4563.37 465.746   4
   1  -8  -3 4577.62 567.788   5
   1  -8  -3 4498.09 592.232   1
  -1   8   3 5393.04 896.750   7
   1  -8  -2 3066.37 480.411   1
  -1   8   2 2963.12 628.266   7
  -1   8   2 3968.07 705.980   2
   1  -8  -2 3067.48 440.897   6
   1  -8  -2 3159.40 419.847   5
  -1   8   2 3482.42 404.203   5
  -1   8   1 10986.6 648.706   5
   1  -8  -1 8049.12 805.426   6
  -1   8   1 9861.24 1151.14   7
   1  -8  -1 9520.22 876.156   1
   1  -8  -1 9847.06 614.667   4
   1  -8  -1 10104.1 655.654   5
  -1   8   0-144.239 223.298   7
  -1   8   0-4.04854 63.3842   2
   1  -8   0 40.1702 38.7738   4
   1  -8   0 33.8035 86.2151   1
   1  -8   0 165.473 176.726   6
  -1   8  -1 27633.1 1951.37   7
  -1   8  -1 29185.0 1309.04   2
   1  -8   1 23322.7 1643.07   6
   1  -8   1 23194.7 1471.21   1
   1  -8   1 26280.2 930.305   4
   1  -8   2 2557.66 451.737   1
   1  -8   2 2842.14 244.235   4
  -1   8  -2 3231.88 634.367   7
  -1   8  -3 18098.0 1267.27   6
   1  -8   3 19456.7 1311.95   1
  -1   8  -3 15564.7 1470.03   7
  -1   8  -4 25.5501 178.398   7
   1  -8   4 80.9036 115.414   1
  -1   8  -4-31.0728 92.0656   6
  -1   8  -5 9079.38 1011.19   6
   1  -8   5 7353.91 794.771   1
  -1   8  -5 7965.50 1030.86   7
   1  -8   6-18.0835 86.7192   1
  -1   8  -6-68.7435 126.606   6
  -1   8  -7 1714.33 490.867   6
   1  -8   7 1694.30 393.455   1
  -1   8  -8-22.9114 144.748   6
   1  -8   8-91.5371 127.726   1
   1  -8   9 1219.10 337.697   1
  -1   7  12 334.739 211.045   5
   1  -7 -12 363.687 221.259   4
   1  -7 -11 2920.84 522.014   4
  -1   7  11 3279.60 617.224   5
   1  -7 -11 2877.24 409.421   1
   1  -7 -10 15.3459 53.6598   1
   1  -7 -10 55.4637 83.9466   4
  -1   7  10 190.873 145.257   5
  -1   7   9 7941.67 895.612   5
   1  -7  -9 8904.15 765.470   1
   1  -7  -9 8652.46 852.728   4
   1  -7  -8 668.195 216.981   4
   1  -7  -8 529.164 198.895   1
  -1   7   8 574.059 256.341   5
   1  -7  -8 602.296 237.458   3
  -1   7   7 707.986 228.486   5
   1  -7  -7 633.648 211.360   1
   1  -7  -7 640.511 232.394   3
   1  -7  -7 605.945 184.091   4
  -1   7   6-20.8467 64.4616   5
   1  -7  -6-50.1598 130.402   5
   1  -7  -6-21.8468 86.5137   3
   1  -7  -6 101.274 124.133   1
   1  -7  -6 2.61150 64.7516   4
   1  -7  -5 9594.84 761.827   4
   1  -7  -5 9400.01 806.876   1
   1  -7  -5 9660.39 1004.80   3
  -1   7   5 9682.20 815.698   5
  -1   7   5 10661.1 1833.07   2
  -1   7   5 9780.87 1194.09   7
   1  -7  -5 9472.24 932.648   5
   1  -7  -4 692.090 176.325   4
  -1   7   4 619.512 456.893   2
  -1   7   4 835.501 215.167   5
  -1   7   4 746.468 289.875   7
   1  -7  -4 955.619 253.112   1
   1  -7  -4 1115.53 375.784   3
   1  -7  -4 589.346 222.753   5
   1  -7  -3 29298.1 1549.80   1
   1  -7  -3 31249.7 2007.22   3
   1  -7  -3 29834.3 1560.31   5
  -1   7   3 34310.5 1468.57   5
  -1   7   3 34854.4 2166.46   7
  -1   7   3 35499.1 2633.95   2
  -1   7   2 108.194 61.9346   5
  -1   7   2-198.224 249.931   7
   1  -7  -2 115.917 102.707   1
   1  -7  -2 58.5951 177.237   3
   1  -7  -2-66.1767 60.2375   5
   1  -7  -2 59.7335 95.0413   6
  -1   7   1 22241.4 953.736   5
  -1   7   1 20681.0 1570.96   7
   1  -7  -1 18430.1 1202.63   1
   1  -7  -1 20454.5 997.012   5
   1  -7  -1 19937.5 1207.99   6
   1  -7   0 40.4486 88.2386   6
  -1   7   0 54.1427 47.7733   2
   1  -7   0 203.938 68.2234   5
   1  -7   0 213.339 79.7890   4
  -1   7   0 74.5286 95.5976   7
   1  -7   0 152.819 104.595   1
  -1   7  -1 1566.41 398.916   7
  -1   7  -1 1853.46 309.173   6
   1  -7   1 2230.14 385.348   1
   1  -7   1 1541.81 203.415   4
  -1   7  -1 1708.28 272.692   2
   1  -7   1 1663.31 492.479   2
   1  -7   1 1443.32 351.428   6
   1  -7   2 1039.95 263.588   1
  -1   7  -2 1406.98 288.222   6
  -1   7  -2 1234.09 360.630   7
   1  -7   2 868.544 290.301   6
   1  -7   2 1345.07 180.255   4
  -1   7  -3 13267.1 1022.24   6
   1  -7   3 13469.3 652.784   4
   1  -7   3 13583.0 995.386   1
   1  -7   4 267.824 97.9096   4
  -1   7  -4 179.181 155.917   7
   1  -7   4 322.215 141.399   1
  -1   7  -4 316.701 179.951   6
  -1   7  -5 10013.0 1087.66   7
   1  -7   5 10925.9 896.134   1
   1  -7   5 9903.21 669.149   4
  -1   7  -5 12627.8 1125.63   6
  -1   7  -6 1113.39 336.799   6
   1  -7   6 672.512 218.410   1
   1  -7   7 8592.45 822.815   1
  -1   7  -7 11397.9 1189.49   6
  -1   7  -8 481.279 209.767   4
   1  -7   8 285.641 156.477   1
  -1   7  -8 440.969 240.788   6
  -1   7  -9 2392.05 529.678   4
   1  -7   9 1861.75 377.708   1
  -1   7  -9 2491.35 625.027   6
   1  -6 -13 1661.90 442.201   4
  -1   6  12 409.007 234.024   5
   1  -6 -12 332.713 219.256   4
   1  -6 -11 3876.03 591.783   4
   1  -6 -11 3807.17 436.078   1
  -1   6  11 3377.92 600.509   5
   1  -6 -10-12.8579 57.7180   1
   1  -6 -10-181.403 141.705   4
  -1   6  10-40.1253 44.9715   5
   1  -6  -9 4375.58 602.975   4
   1  -6  -9 4453.67 491.442   1
  -1   6   9 3944.37 589.974   5
   1  -6  -8 1692.22 355.560   4
   1  -6  -8 1584.56 303.009   1
  -1   6   8 1812.27 379.783   5
   1  -6  -7 21803.8 1293.51   4
  -1   6   7 21794.1 1347.70   5
   1  -6  -7 22968.2 1219.60   1
  -1   6   6 190.988 126.500   5
   1  -6  -6 366.948 191.858   3
   1  -6  -6 413.364 224.077   4
   1  -6  -6 195.456 132.429   5
   1  -6  -5 58463.0 2545.64   3
   1  -6  -5 56136.1 2174.62   4
  -1   6   5 50559.8 4111.42   2
   1  -6  -5 54619.7 2467.64   5
  -1   6   5 57822.8 2202.34   5
  -1   6   4 3219.77 875.055   2
   1  -6  -4 2146.63 366.557   1
  -1   6   4 1687.96 422.910   7
   1  -6  -4 1724.99 423.687   3
  -1   6   4 1385.41 273.417   5
   1  -6  -4 2716.36 455.098   5
   1  -6  -3 56507.1 2595.63   3
   1  -6  -3 54649.8 2113.08   1
   1  -6  -3 50952.7 1599.78   6
  -1   6   3 62786.8 2754.57   7
  -1   6   3 57851.7 3436.81   2
  -1   6   3 57341.7 1943.95   5
   1  -6  -3 50399.7 2098.92   5
   1  -6  -2 261.267 104.500   6
   1  -6  -2 244.409 122.950   5
  -1   6   2 263.168 109.227   5
   1  -6  -2 161.797 112.546   3
  -1   6   2 385.872 189.081   7
   1  -6  -2 242.335 144.955   1
   1  -6  -2 625.021 401.596   2
  -1   6   1-84.2529 132.444   7
  -1   6   1 56.3360 54.2788   5
   1  -6  -1 210.533 104.472   5
   1  -6  -1 365.078 127.045   6
   1  -6  -1 203.002 178.120   3
   1  -6  -1 439.809 375.460   2
  -1   6   1 539.328 216.906   2
   1  -6  -1 86.0201 88.2753   1
  -1   6   0 3471.70 564.484   7
   1  -6   0 3691.66 633.611   3
   1  -6   0 3264.96 454.996   6
  -1   6   0 3989.64 471.854   2
   1  -6   0 3774.73 352.219   4
  -1   6   0 3685.38 267.992   5
   1  -6   0 2939.77 413.478   1
   1  -6   0 3392.28 485.333   7
   1  -6   0 2880.65 620.671   2
   1  -6   0 3566.42 287.357   5
   1  -6   1 24084.2 1451.25   7
   1  -6   1 25203.1 993.818   4
  -1   6  -1 24268.8 1559.37   7
  -1   6  -1 27543.0 1234.21   6
   1  -6   1 20809.6 1617.60   2
   1  -6   1 22740.0 1242.36   1
  -1   6  -1 26286.2 1155.00   2
   1  -6   1 27900.5 1847.22   3
   1  -6   1 23986.6 1444.47   6
   1  -6   2 4771.73 524.926   1
   1  -6   2 4651.37 363.993   4
  -1   6  -2 4977.30 676.151   7
   1  -6   2 5038.91 659.735   6
   1  -6   2 5420.68 810.366   3
  -1   6  -2 5317.23 550.208   6
   1  -6   2 2603.81 471.106   2
   1  -6   2 4105.54 580.221   7
  -1   6  -3 24651.3 1341.75   6
   1  -6   3 26194.0 1312.70   1
   1  -6   3 22703.4 923.905   4
   1  -6   3 23859.8 1764.87   3
   1  -6   3 26125.8 1698.28   6
  -1   6  -3 21091.8 1477.83   7
   1  -6   4 537.089 133.954   4
   1  -6   4 167.638 99.2033   2
  -1   6  -4 229.256 147.860   6
   1  -6   4 377.955 136.975   1
   1  -6   4 343.658 172.589   6
  -1   6  -4 375.670 207.866   7
   1  -6   5 9899.40 652.065   4
   1  -6   5 10662.8 821.831   1
   1  -6   5 10859.8 394.373   5
   1  -6   5 11333.5 425.601   5
  -1   6  -5 12118.8 1035.73   6
   1  -6   6 52.2458 34.2624   5
   1  -6   6-39.0044 113.786   1
  -1   6  -6 87.1311 79.0201   4
   1  -6   6 23.8337 44.1298   4
  -1   6  -6-77.4280 109.548   6
   1  -6   7 10813.5 585.209   5
   1  -6   7 9483.00 793.924   1
  -1   6  -7 11252.4 995.731   4
   1  -6   7 8186.84 718.486   4
  -1   6  -7 10858.6 1084.94   6
  -1   6  -8 178.070 134.560   4
  -1   6  -8 302.992 211.838   6
   1  -6   8 75.1549 70.3043   1
   1  -6   9 4325.81 538.091   1
  -1   6  -9 5986.71 884.594   6
  -1   6  -9 5588.59 826.632   4
  -1   6 -10 192.296 159.229   6
  -1   6 -10 76.9828 90.9490   4
  -1   6 -11 238.420 191.735   4
   1  -5 -13 4145.39 701.738   4
  -1   5  13 3467.44 639.699   5
  -1   5  12-14.5751 79.1572   5
   1  -5 -12 284.138 210.554   4
   1  -5 -11 2580.02 318.734   1
   1  -5 -11 2885.70 514.949   4
  -1   5  11 2684.36 519.439   5
   1  -5 -10 554.118 156.062   1
  -1   5  10 737.007 249.350   5
   1  -5 -10 314.456 165.069   4
   1  -5  -9 19911.5 1028.27   3
  -1   5   9 21671.5 1388.21   5
   1  -5  -9 22821.1 1417.43   4
  -1   5   8 221.734 70.6915   5
   1  -5  -8 363.387 150.544   3
   1  -5  -7 37535.1 1693.02   3
   1  -5  -7 40959.2 1838.57   4
   1  -5  -7 35414.6 2102.39   5
  -1   5   7 42564.0 1846.67   5
   1  -5  -6 4076.32 637.490   4
  -1   5   6 2236.35 907.324   2
  -1   5   6 2412.57 375.407   5
   1  -5  -6 2132.70 454.247   5
   1  -5  -6 2000.23 361.104   3
   1  -5  -5 18631.2 1099.66   4
   1  -5  -5 18188.5 1280.62   5
  -1   5   5 16189.9 2168.19   2
  -1   5   5 19623.8 1067.19   5
   1  -5  -5 17891.9 1168.26   3
  -1   5   4 625.240 159.156   5
   1  -5  -4 468.225 171.764   5
   1  -5  -4 510.305 409.913   2
  -1   5   4 1240.83 504.068   2
  -1   5   3 23552.7 1034.32   5
   1  -5  -3 21888.9 768.185   6
  -1   5   3 24836.3 1495.76   7
   1  -5  -3 21702.0 1211.91   5
   1  -5  -2 3076.33 308.621   6
  -1   5   2 3631.02 663.247   2
   1  -5  -2 3067.15 375.630   5
   1  -5  -2 2532.45 639.457   2
  -1   5   2 3297.80 323.373   5
  -1   5   2 3371.24 496.827   7
  -1   5   1 174927. 4168.42   5
  -1   5   1 182467. 5266.09   2
   1  -5  -1 158601. 4408.64   6
   1  -5  -1 163725. 4346.42   5
  -1   5   1 183474. 5160.01   7
  -1   5   0 1984.27 176.945   5
  -1   5   0 1416.48 308.688   7
   1  -5   0 1919.46 314.040   6
  -1   5   0 1747.28 293.792   2
   1  -5   0 1519.62 409.858   2
   1  -5   0 2146.73 207.665   5
   1  -5   0 1649.55 277.405   1
   1  -5   1 19983.3 1180.48   6
  -1   5  -1 21506.5 980.172   2
   1  -5   1 20752.8 897.669   4
  -1   5  -1 21832.2 1336.89   7
  -1   5  -1 23748.6 1055.70   6
   1  -5   1 21273.6 1084.55   1
   1  -5   1 18984.4 1414.39   2
   1  -5   2 453.410 183.171   6
   1  -5   2 30.7608 72.4912   2
  -1   5  -2 384.418 127.167   6
  -1   5  -2 230.460 114.023   7
   1  -5   2 340.701 89.3662   4
   1  -5   2 319.886 126.194   1
   1  -5   3 101230. 3125.28   2
   1  -5   3 102011. 3887.13   3
   1  -5   3 109419. 3145.75   1
   1  -5   3 96614.1 2759.14   4
  -1   5  -3 109261. 3329.42   6
   1  -5   3 107831. 3742.15   6
  -1   5  -3 96174.5 3506.38   7
   1  -5   4 64.8165 73.4954   6
   1  -5   4 197.554 88.6475   1
   1  -5   4 240.901 46.2450   5
   1  -5   4 170.792 54.7415   3
   1  -5   4 279.615 169.621   7
  -1   5  -4 186.395 57.1506   4
   1  -5   4 288.261 129.714   2
   1  -5   4 228.375 90.5682   4
   1  -5   4 218.205 51.8721   5
  -1   5  -4 157.873 111.860   7
  -1   5  -4 202.223 113.862   6
   1  -5   5 30703.0 1118.98   2
  -1   5  -5 31552.2 1506.74   4
   1  -5   5 31019.7 969.495   5
   1  -5   5 29926.6 1861.26   3
  -1   5  -5 29835.8 1630.71   6
   1  -5   5 27775.2 1314.58   1
   1  -5   5 28692.8 1193.35   4
   1  -5   6 47.5186 52.5697   2
   1  -5   6 128.617 73.1851   3
  -1   5  -6 371.881 165.540   4
   1  -5   6 264.933 93.1954   5
  -1   5  -6 350.462 198.379   6
   1  -5   6 131.993 45.7748   1
   1  -5   6 258.095 107.160   4
   1  -5   7 2843.81 301.158   5
   1  -5   7 2929.81 322.249   2
   1  -5   7 1736.77 391.502   2
   1  -5   7 2799.43 394.272   4
   1  -5   7 2628.36 364.829   1
  -1   5  -7 3128.80 516.133   4
  -1   5  -7 2795.26 506.846   6
   1  -5   8 198.742 90.8599   1
   1  -5   8 250.893 100.953   5
  -1   5  -8 43.6882 50.0378   4
   1  -5   8-12.8117 74.7825   4
  -1   5  -8 80.2296 121.270   6
   1  -5   8 167.937 93.8167   2
   1  -5   9 7564.03 661.135   1
   1  -5   9 8046.51 637.380   5
  -1   5  -9 10264.8 1081.64   6
  -1   5  -9 9017.37 1029.46   4
  -1   5 -10 213.433 136.960   4
   1  -5  10 387.136 165.690   5
  -1   5 -10 72.5449 60.9118   6
   1  -5  10 154.400 90.0901   1
  -1   5 -11 3639.43 694.661   6
  -1   5 -11 3213.88 707.008   4
  -1   5 -12 186.668 120.621   4
  -1   5 -13 562.759 395.587   4
  -1   4  13 3061.77 595.378   5
   1  -4 -13 2943.67 609.761   4
   1  -4 -12 852.684 301.877   4
  -1   4  12 382.430 215.975   5
   1  -4 -11 5213.77 417.940   1
  -1   4  11 4947.75 680.770   5
   1  -4 -11 5872.09 744.539   4
   1  -4 -10 7105.81 532.142   1
   1  -4 -10 6844.44 766.692   4
  -1   4  10 7515.83 800.637   5
   1  -4  -9 17002.0 691.406   3
   1  -4  -9 17855.0 1237.79   4
  -1   4   9 17474.2 1217.00   5
   1  -4  -9 18181.6 780.893   6
   1  -4  -8 2097.56 380.655   4
   1  -4  -8 1969.16 204.985   6
  -1   4   8 1919.07 363.454   5
   1  -4  -8 1875.47 251.933   3
   1  -4  -7 6117.39 325.228   6
   1  -4  -7 6145.32 643.273   4
   1  -4  -7 5268.84 474.802   3
   1  -4  -7 5828.47 776.071   5
  -1   4   7 4566.69 1247.44   2
  -1   4   7 6596.97 658.821   5
  -1   4   6 17722.8 1060.37   5
   1  -4  -6 15389.8 917.036   3
   1  -4  -6 16860.3 1267.87   5
   1  -4  -6 17225.9 535.773   6
  -1   4   6 16735.1 2309.03   2
   1  -4  -6 18265.5 1130.04   4
   1  -4  -5 3161.21 437.835   4
  -1   4   5 2804.54 369.784   5
   1  -4  -5 2637.78 452.905   5
   1  -4  -5 2830.42 375.750   3
   1  -4  -4 2895.52 779.342   2
   1  -4  -4 2629.79 388.377   3
  -1   4   4 2892.21 351.423   5
   1  -4  -4 1897.30 362.219   5
  -1   4   3 230619. 7834.38   2
   1  -4  -3 231187. 4918.52   6
  -1   4   3 223187. 5427.05   5
   1  -4  -3 223823. 5984.63   3
   1  -4  -2 21659.2 748.634   6
  -1   4   2 24286.1 1731.45   2
  -1   4   2 20530.9 840.333   5
  -1   4   2 22605.0 1234.22   7
   1  -4  -2 19274.0 1017.79   5
   1  -4  -2 22666.7 1283.86   3
   1  -4  -2 16655.0 1615.06   2
  -1   4   1 44561.8 2003.53   2
   1  -4  -1 35205.4 2244.58   2
   1  -4  -1 40615.8 1346.64   6
   1  -4  -1 40145.8 1889.59   3
   1  -4  -1 39911.4 1443.57   5
  -1   4   1 44967.6 1814.68   7
  -1   4   1 43104.6 1261.97   5
   1  -4   0 1078.77 197.037   6
   1  -4   0 1170.47 144.805   5
  -1   4   0 974.369 220.920   7
  -1   4   0 1065.29 114.976   5
   1  -4   0 859.944 344.515   2
  -1   4   0 1133.05 241.767   2
   1  -4   1 147296. 3754.25   4
   1  -4   1 142013. 4359.47   2
  -1   4  -1 146613. 3813.13   2
   1  -4   1 139169. 3928.09   1
   1  -4   1 141789. 4056.88   6
  -1   4  -1 148291. 4312.76   7
  -1   4  -1 156010. 3884.91   6
   1  -4   2 511.148 119.216   1
  -1   4  -2 840.468 193.813   6
  -1   4  -2 516.096 166.972   7
   1  -4   2 766.278 206.082   6
   1  -4   2 774.884 197.890   2
   1  -4   2 693.076 139.985   4
   1  -4   3 219378. 5523.20   2
  -1   4  -3 211332. 6156.45   7
   1  -4   3 229368. 6578.87   3
   1  -4   3 216570. 5514.27   4
  -1   4  -3 221794. 5751.25   4
  -1   4  -3 238204. 5985.02   6
   1  -4   3 242102. 6352.13   6
   1  -4   3 248329. 5786.94   1
   1  -4   4 2739.52 265.307   2
   1  -4   4 2657.82 320.696   1
   1  -4   4 1982.64 397.907   6
  -1   4  -4 2440.24 338.606   4
  -1   4  -4 2818.98 422.276   6
   1  -4   4 2772.27 201.296   5
   1  -4   4 2422.83 270.179   4
   1  -4   4 3116.66 499.183   3
  -1   4  -4 2658.17 419.833   7
   1  -4   5 11182.4 991.648   7
   1  -4   5 8157.81 903.391   6
   1  -4   5 11929.6 660.826   2
   1  -4   5 10856.0 691.295   1
   1  -4   5 11763.2 1012.08   3
   1  -4   5 11175.7 532.589   5
  -1   4  -5 10970.1 813.655   4
  -1   4  -5 11068.5 881.161   6
   1  -4   5 11381.1 662.137   4
   1  -4   6 134.370 49.6050   4
   1  -4   6 39.6026 29.5713   1
   1  -4   6 175.514 151.794   7
  -1   4  -6 161.391 111.036   6
   1  -4   6 149.381 73.1363   5
   1  -4   6 210.611 108.472   2
  -1   4  -6 179.333 48.7151   4
   1  -4   6 148.012 194.101   6
   1  -4   6 172.297 96.6157   3
   1  -4   7 23073.1 1473.31   3
  -1   4  -7 27009.3 1540.36   4
   1  -4   7 23194.9 1212.55   4
   1  -4   7 24676.0 1062.80   5
  -1   4  -7 28936.8 1621.19   6
   1  -4   7 22903.5 1093.77   1
  -1   4  -8 114.365 103.187   4
   1  -4   8 75.9989 187.356   2
   1  -4   8 53.6588 47.5059   1
   1  -4   8 22.5955 38.8096   4
   1  -4   8 196.354 94.0826   5
   1  -4   8 24.9030 68.9474   3
   1  -4   9 17878.5 1260.85   3
   1  -4   9 20323.7 1088.36   5
   1  -4   9 20521.3 1029.93   1
  -1   4  -9 24338.0 1602.38   6
  -1   4  -9 22557.3 1637.38   4
   1  -4  10 239.729 88.7930   1
  -1   4 -10 453.644 242.524   4
   1  -4  10 406.719 163.595   5
  -1   4 -10 418.311 169.717   6
  -1   4 -11 5463.85 811.567   6
   1  -4  11 3972.56 523.731   5
  -1   4 -11 4664.62 851.689   4
  -1   4 -12-39.9131 185.493   4
  -1   4 -13 1772.28 612.226   4
   1  -3 -13 3708.97 697.995   4
  -1   3  13 3961.55 641.871   5
  -1   3  12 2137.57 457.240   5
   1  -3 -12 2020.41 481.604   4
   1  -3 -12 1220.51 268.811   6
   1  -3 -11 4498.14 476.084   6
  -1   3  11 4537.99 644.944   5
   1  -3 -11 4089.51 628.145   4
   1  -3 -10 129.294 84.6518   1
   1  -3 -10-128.014 169.282   4
   1  -3 -10 51.5613 55.0403   6
  -1   3  10 94.8907 96.6431   5
   1  -3  -9 1039.70 196.914   6
   1  -3  -9 986.976 186.673   1
  -1   3   9 1035.70 290.141   5
   1  -3  -9 1181.12 286.493   4
  -1   3   8 1654.29 845.209   2
   1  -3  -8 1373.76 210.785   1
   1  -3  -8 1270.99 196.547   6
   1  -3  -8 1523.67 326.166   4
  -1   3   8 1374.10 324.462   5
   1  -3  -7 17507.7 1135.31   4
   1  -3  -7 17158.6 1369.26   5
   1  -3  -7 18812.2 822.101   6
  -1   3   7 18134.8 1162.69   5
   1  -3  -7 16928.3 702.146   3
   1  -3  -6 3948.41 604.271   5
   1  -3  -6 3964.68 341.672   3
   1  -3  -6 4724.81 354.888   6
   1  -3  -6 4189.87 520.805   4
  -1   3   6 4685.18 540.860   5
   1  -3  -5 44761.4 1909.83   4
   1  -3  -5 48221.2 1658.29   3
   1  -3  -5 47577.1 2172.54   5
  -1   3   5 52614.5 1977.23   5
   1  -3  -5 42488.5 2993.98   2
   1  -3  -5 51462.0 1470.64   6
   1  -3  -4 12058.0 501.756   6
   1  -3  -4 11966.7 909.742   5
   1  -3  -4 9621.56 1348.47   2
   1  -3  -4 11625.7 720.915   3
  -1   3   4 12912.6 799.534   5
   1  -3  -3 48439.8 1930.41   5
  -1   3   3 53249.6 1768.07   5
   1  -3  -3 49194.7 1809.51   3
   1  -3  -2 29150.3 1310.12   3
  -1   3   2 29653.5 1859.54   2
   1  -3  -2 27658.6 1221.06   5
  -1   3   2 26848.9 1038.13   5
   1  -3  -1 147736. 3595.40   6
  -1   3   1 159967. 4157.54   7
   1  -3  -1 157487. 4338.03   3
   1  -3  -1 137161. 4904.08   2
  -1   3   1 147335. 3635.36   5
   1  -3  -1 155963. 3915.88   5
  -1   3   1 162743. 4610.29   2
  -1   3   0 1644.15 118.812   5
   1  -3   0 1276.65 273.249   2
   1  -3   0 1576.16 305.106   3
   1  -3   0 1456.23 178.808   6
  -1   3   0 1466.61 239.258   7
   1  -3   0 1545.31 242.428   7
  -1   3   0 1685.87 255.795   2
  -1   3  -1 7621.02 589.903   7
  -1   3  -1 7869.41 472.970   6
   1  -3   1 6687.24 437.123   4
   1  -3   1 6626.62 469.353   6
   1  -3   1 7341.26 526.718   2
  -1   3  -1 7529.17 716.470   3
  -1   3  -1 7213.10 456.578   2
   1  -3   2 130.875 85.0974   1
   1  -3   2-25.8762 49.9223   2
   1  -3   2 72.2346 30.0057   6
  -1   3  -2 31.6372 87.1615   7
  -1   3  -2 73.3844 31.3765   6
   1  -3   2 90.5256 58.1241   4
   1  -3   3 4491.30 343.520   2
  -1   3  -3 3920.02 376.510   4
   1  -3   3 4367.80 542.082   3
   1  -3   3 4075.15 337.594   4
   1  -3   3 4546.35 224.158   5
  -1   3  -3 4291.63 468.058   7
  -1   3  -3 3897.92 534.093   3
   1  -3   3 4802.52 375.297   1
  -1   3  -3 4154.22 413.791   6
   1  -3   4 373.717 110.484   1
  -1   3  -4 498.215 263.052   3
   1  -3   4 400.407 82.7459   5
  -1   3  -4 529.827 185.322   6
   1  -3   4 210.808 77.0538   3
  -1   3  -4 517.871 147.030   4
   1  -3   4 545.444 141.746   2
   1  -3   4 429.575 109.708   4
  -1   3  -5 514638. 12173.3   4
   1  -3   5 482778. 11730.5   4
   1  -3   5 472151. 11656.6   1
  -1   3  -5 497645. 12732.6   3
   1  -3   5 500552. 12461.7   3
   1  -3   5 533544. 11591.9   5
  -1   3  -5 513435. 12298.7   6
  -1   3  -6 723.480 229.670   6
   1  -3   6 1040.08 187.521   5
   1  -3   6 827.841 276.832   7
  -1   3  -6 765.377 220.485   4
   1  -3   6 738.651 154.724   1
  -1   3  -6 960.164 301.322   3
   1  -3   6 641.159 206.381   3
   1  -3   6 758.126 185.073   4
   1  -3   7 19008.7 1469.23   6
   1  -3   7 23564.6 1581.26   7
  -1   3  -7 24710.3 1442.78   4
   1  -3   7 21123.3 1264.39   3
   1  -3   7 21904.4 1004.26   5
   1  -3   7 18853.8 896.819   1
   1  -3   7 21106.3 1109.81   4
  -1   3  -7 24395.9 1397.25   6
  -1   3  -8 344.553 151.619   4
   1  -3   8 152.299 79.9907   5
  -1   3  -8 214.837 136.789   6
   1  -3   8 324.747 93.9320   1
   1  -3   8 340.825 126.319   3
   1  -3   8 175.428 105.968   4
   1  -3   9 11082.6 878.989   3
  -1   3  -9 15815.7 1209.54   6
  -1   3  -9 15176.0 1315.66   4
   1  -3   9 9697.64 1320.03   2
   1  -3   9 13404.9 874.286   5
   1  -3   9 11913.5 666.100   1
  -1   3 -10 457.802 233.415   4
   1  -3  10 239.520 131.651   5
   1  -3  10 437.023 299.898   2
   1  -3  10 369.576 158.856   3
  -1   3 -10 512.147 254.283   6
   1  -3  10 311.824 111.571   1
   1  -3  11 8092.87 769.278   5
  -1   3 -11 8933.68 1208.29   4
  -1   3 -11 10673.8 1080.79   6
   1  -3  12 240.003 152.454   5
  -1   3 -12 237.963 203.140   4
   1  -3  13 1381.59 351.471   5
  -1   3 -13 1321.88 549.625   4
  -1   2  13 5580.70 759.316   5
   1  -2 -13 4649.30 581.253   6
   1  -2 -13 5122.04 812.924   4
   1  -2 -12 2026.21 483.903   4
  -1   2  12 1777.65 419.398   5
   1  -2 -12 1305.80 290.748   6
   1  -2 -11 517.504 170.534   6
  -1   2  11 425.505 202.449   5
   1  -2 -10 11113.3 812.216   6
   1  -2 -10 10917.8 655.554   1
  -1   2  10 10521.2 982.205   5
   1  -2 -10 10584.2 992.421   4
  -1   2   9 16573.5 1222.57   5
   1  -2  -9 16643.5 850.582   1
   1  -2  -9 17736.2 1003.36   6
   1  -2  -9 16494.7 1191.66   4
  -1   2   8 4102.52 1105.28   2
  -1   2   8 6142.29 704.260   5
   1  -2  -8 6337.84 553.557   6
   1  -2  -8 6510.23 682.063   4
   1  -2  -8 5851.96 455.889   1
   1  -2  -8 5412.51 784.860   5
  -1   2   7 80515.4 2980.87   5
   1  -2  -7 79295.1 2335.32   1
   1  -2  -7 84760.2 2571.08   6
   1  -2  -7 83204.8 2897.38   4
   1  -2  -6 4353.16 352.362   1
   1  -2  -6 4502.26 420.701   6
   1  -2  -6 5316.45 571.525   4
  -1   2   6 4632.70 574.063   5
   1  -2  -5 40291.6 1702.96   4
   1  -2  -5 36305.7 2628.42   2
   1  -2  -5 40452.6 1170.62   3
   1  -2  -5 42034.4 1470.84   6
  -1   2   5 40303.7 1814.78   5
   1  -2  -4 50910.9 1615.07   6
   1  -2  -4 46372.3 2896.82   2
   1  -2  -4 49665.6 1493.23   3
  -1   2   4 51606.4 2019.19   5
   1  -2  -3 18923.9 1096.67   5
  -1   2   3 21815.2 1119.82   5
  -1   2   2 7272.88 843.227   2
  -1   2   2 6704.91 520.939   5
   1  -2  -2 7061.36 488.748   3
   1  -2  -2 5540.43 766.005   2
   1  -2  -2 7232.78 545.735   5
  -1   2   1 27993.6 1193.79   3
  -1   2   1 29882.8 1412.14   2
   1  -2  -1 27724.4 1165.53   3
   1  -2  -1 28576.1 1063.74   5
  -1   2   1 28058.8 1062.15   7
   1  -2  -1 26297.0 1470.78   2
  -1   2   1 29086.0 1096.22   5
   1  -2   0 154.621 86.9555   2
   1  -2   0 48.5313 50.6636   7
  -1   2   0 96.3501 38.2974   7
  -1   2   0 40.7756 63.4872   3
   1  -2   0 36.4972 46.0215   3
  -1   2   0 84.4109 33.4598   2
  -1   2   0 43.3438 44.6187   5
  -1   2  -1 295872. 6850.10   2
   1  -2   1 268897. 6764.42   6
   1  -2   1 281904. 6994.21   7
   1  -2   1 299492. 6861.65   2
  -1   2  -1 315802. 7367.04   3
  -1   2  -1 296258. 7034.26   7
   1  -2   1 285972. 6845.23   4
  -1   2  -2 28.7549 31.6123   5
   1  -2   2-22.9993 41.4474   3
  -1   2  -2 1.73616 41.2068   4
   1  -2   2-15.0898 18.1313   4
   1  -2   2-25.5539 37.1251   6
  -1   2  -2 32.7726 70.4781   6
   1  -2   2 17.2091 35.6448   2
   1  -2   2 46.4284 22.5089   5
  -1   2  -2 39.2452 51.8129   7
   1  -2   3 519274. 12410.9   3
   1  -2   3 487277. 11897.1   4
  -1   2  -3 527218. 12551.1   3
  -1   2  -3 561070. 12167.9   6
  -1   2  -3 473199. 11887.9   5
  -1   2  -3 503423. 12065.4   4
   1  -2   3 581393. 11904.1   1
   1  -2   4 155.802 52.1978   5
  -1   2  -4 305.807 107.759   5
   1  -2   4 290.392 91.8509   4
  -1   2  -4 223.534 145.064   3
   1  -2   4 141.938 77.1059   3
   1  -2   4 154.721 58.4105   1
  -1   2  -4 296.506 107.234   4
  -1   2  -4 176.207 66.9547   6
   1  -2   5 6808.39 407.581   1
  -1   2  -5 5810.47 559.753   5
   1  -2   5 7280.97 631.969   3
   1  -2   5 6717.12 490.184   4
  -1   2  -5 7061.79 702.130   3
   1  -2   5 7521.88 464.649   5
  -1   2  -5 7269.85 616.394   6
  -1   2  -5 6955.03 599.580   4
   1  -2   6 356.041 128.902   4
  -1   2  -6 370.821 147.211   5
   1  -2   6 287.808 130.299   3
  -1   2  -6 414.718 173.945   3
  -1   2  -6 82.8992 79.3039   4
   1  -2   6 229.383 72.1088   1
   1  -2   6 481.833 134.623   5
  -1   2  -6 307.484 149.135   6
   1  -2   7 13276.5 774.406   5
  -1   2  -7 15877.5 1030.57   6
  -1   2  -7 15274.0 1080.19   4
  -1   2  -7 13701.7 1033.17   3
   1  -2   7 12223.2 596.725   1
   1  -2   7 14019.8 1140.32   7
   1  -2   7 13870.1 857.039   4
   1  -2   7 12888.2 1108.43   6
   1  -2   7 12589.0 846.183   3
   1  -2   8-9.00905 81.4327   5
   1  -2   8 31.5718 70.8855   4
   1  -2   8 126.458 169.352   6
   1  -2   8-58.2943 59.6455   1
  -1   2  -8-162.591 132.822   5
  -1   2  -8-13.2804 77.1949   6
   1  -2   8 40.1348 56.2897   3
  -1   2  -8-7.01327 96.0909   4
  -1   2  -8 68.3548 87.9213   3
   1  -2   9 12323.1 851.897   5
   1  -2   9 11023.9 785.404   3
  -1   2  -9 14597.4 1272.61   4
   1  -2   9 11596.3 564.148   1
  -1   2  -9 14729.2 1111.42   6
  -1   2  -9 12423.7 1124.28   5
  -1   2 -10 247.859 202.785   4
  -1   2 -10 356.401 190.409   6
   1  -2  10 20.7013 73.2322   5
   1  -2  10 266.349 128.915   3
   1  -2  10 77.6254 43.0221   1
   1  -2  11 11258.4 942.392   5
  -1   2 -11 12458.4 1415.76   4
  -1   2 -11 14392.6 1208.67   6
  -1   2 -12 3084.17 761.094   4
   1  -2  12 2353.31 441.379   5
  -1   2 -13 3967.10 908.021   4
   1  -2  13 2840.10 513.756   5
   1  -2  14 318.538 200.512   5
   1  -1 -14 52.0763 43.1874   6
  -1   1  13 2818.95 538.688   5
   1  -1 -13 1940.95 394.411   6
   1  -1 -13 2738.24 627.351   4
  -1   1  12 301.855 186.407   5
   1  -1 -12 170.482 115.340   6
  -1   1  11 25281.0 1635.16   5
   1  -1 -11 30085.5 1865.92   4
   1  -1 -11 26944.8 1492.57   6
  -1   1  10-65.1215 66.5662   5
   1  -1 -10 57.9279 45.0084   1
   1  -1 -10-59.4187 130.381   6
  -1   1   9 12908.6 2049.81   2
   1  -1  -9 14528.9 1115.46   4
  -1   1   9 13046.5 1112.29   5
   1  -1  -9 15063.4 793.360   1
   1  -1  -9 13795.8 972.399   6
  -1   1   8 7213.34 784.297   5
   1  -1  -8 7111.64 722.200   4
   1  -1  -8 6812.82 637.127   6
   1  -1  -8 6382.18 839.061   5
   1  -1  -8 5344.01 448.344   1
   1  -1  -7 36595.6 1688.23   4
   1  -1  -7 36935.5 1589.15   6
   1  -1  -7 28514.7 1195.48   1
  -1   1   7 34217.4 1803.86   5
  -1   1   7 25334.9 2631.13   2
   1  -1  -7 34437.3 1933.25   5
  -1   1   6 1554.02 389.600   5
  -1   1   6 1924.80 643.185   2
   1  -1  -6 1665.86 299.330   6
   1  -1  -6 1863.70 246.056   1
   1  -1  -5 1924.16 304.708   4
   1  -1  -5 1860.97 300.990   6
   1  -1  -5 1612.18 206.773   1
   1  -1  -5 2018.77 630.831   2
  -1   1   5 1846.52 359.071   5
  -1   1   5 1022.90 456.919   2
  -1   1   4-32.7340 200.777   2
   1  -1  -4 263.677 103.441   1
  -1   1   4 55.9504 59.6863   5
   1  -1  -4 11.1302 70.9396   6
   1  -1  -4 173.983 308.656   2
  -1   1   3 109571. 4230.04   2
   1  -1  -3 103468. 2719.40   1
  -1   1   3 116987. 3392.15   5
   1  -1  -3 111556. 2968.41   6
  -1   1   2 2742.93 208.524   3
   1  -1  -2 2545.68 185.311   3
   1  -1  -2 2167.23 434.315   2
  -1   1   2 2690.03 321.533   5
   1  -1  -1 512236. 11715.8   3
  -1   1   1 539459. 11880.9   5
  -1   1   1 532426. 11765.8   3
   1  -1  -1 516565. 12308.2   2
  -1   1   0 55.4113 34.1155   2
  -1   1   0 163.949 48.3958   7
   1  -1   0 213.356 57.9855   7
   1  -1   0 197.374 55.8149   2
  -1   1   0 117.068 54.6987   3
   1  -1   1 492728. 11112.1   2
   1  -1   1 471832. 11111.4   4
  -1   1  -1 461431. 11089.9   7
   1  -1   1 440932. 11080.8   7
  -1   1  -2 50.4422 26.9226   5
   1  -1   2-26.9788 31.2599   5
  -1   1  -2-15.7950 40.9347   4
   1  -1   2-19.8413 35.3878   4
  -1   1  -3 942437. 21159.6   3
  -1   1  -3 917354. 20947.3   4
   1  -1   3 870055. 20973.5   3
  -1   1  -4 11.4748 37.8780   4
   1  -1   4 54.9637 30.5486   1
  -1   1  -4-24.9201 54.6366   3
  -1   1  -4 142.753 86.0462   5
  -1   1  -4-52.0929 89.5504   6
   1  -1   4 106.635 61.3279   5
   1  -1   4 38.0832 39.6712   3
   1  -1   4 19.6888 21.4023   4
  -1   1  -5 60238.5 2051.51   4
  -1   1  -5 60206.7 2067.55   3
   1  -1   5 54191.8 1765.08   4
   1  -1   5 52815.2 1456.26   1
   1  -1   5 60833.2 1783.63   5
   1  -1   5 56687.9 1860.55   3
  -1   1  -5 58940.6 1953.26   6
  -1   1  -5 49564.9 1967.37   5
   1  -1   6 46.4457 43.8093   4
   1  -1   6 94.9658 32.4489   1
  -1   1  -6 168.627 114.708   3
   1  -1   6 224.299 83.9667   5
  -1   1  -6 97.2235 59.2791   6
  -1   1  -6 163.457 105.666   4
  -1   1  -6 36.1555 55.3044   5
   1  -1   6 264.590 103.024   3
   1  -1   7 46945.3 1725.97   3
   1  -1   7 51330.1 1834.07   5
  -1   1  -7 59377.7 2315.14   4
  -1   1  -7 51048.6 2027.03   3
   1  -1   7 48581.5 1360.33   1
  -1   1  -7 60239.3 2106.21   6
   1  -1   7 49126.9 2203.67   6
   1  -1   7 51855.2 1911.54   4
  -1   1  -8 2374.27 390.639   6
   1  -1   8 2281.29 363.000   4
  -1   1  -8 1920.41 420.814   5
   1  -1   8 2108.84 158.581   1
  -1   1  -8 2372.47 450.466   4
   1  -1   8 1923.62 420.575   6
   1  -1   8 1798.39 294.615   5
  -1   1  -8 1908.44 346.706   3
   1  -1   8 2281.52 301.188   3
  -1   1  -9 6456.68 817.344   4
  -1   1  -9 5368.42 612.238   6
  -1   1  -9 4955.38 568.082   3
   1  -1   9 4507.25 694.556   6
   1  -1   9 5111.47 547.597   5
  -1   1  -9 6163.41 789.885   5
   1  -1   9 4871.79 217.760   1
  -1   1 -10 577.224 217.643   6
  -1   1 -10 643.994 215.717   3
   1  -1  10 729.275 490.177   2
   1  -1  10 852.320 236.877   5
  -1   1 -10 358.715 184.920   4
  -1   1 -11 17477.1 1624.58   4
   1  -1  11 14682.1 1097.10   5
   1  -1  12 1080.27 307.697   5
  -1   1 -12 385.678 216.414   4
   1  -1  13 1402.15 361.355   5
  -1   1 -13 1759.12 618.153   4
  -1   1 -14 1065.57 490.207   4
   1  -1  14 937.551 310.253   5
   1  -1  15 276.714 182.273   5
   1   0 -14 446.617 219.537   6
   1   0 -13 9437.01 953.389   6
  -1   0  13 10115.0 1029.06   5
   1   0 -13 11874.9 1344.81   4
  -1   0  12 85.1908 126.762   5
   1   0 -12 54.2852 163.537   6
   1   0 -11 5323.62 659.052   6
   1   0 -11 5799.83 824.785   4
  -1   0  11 5339.96 713.129   5
   1   0 -10-49.3947 103.472   6
   1   0 -10-35.0783 43.1257   1
   1   0 -10 245.870 227.765   4
  -1   0  10 145.989 98.3784   5
   1   0  -9 4083.17 574.753   4
   1   0  -9 4707.11 417.449   1
   1   0  -9 4592.64 571.333   6
  -1   0   9 4264.03 624.301   5
  -1   0   9 4984.87 808.615   6
  -1   0   9 3374.29 1010.25   2
   1   0  -8 1779.86 359.181   6
  -1   0   8 1790.97 722.089   2
   1   0  -8 1663.20 351.694   4
  -1   0   8 1958.70 511.330   6
   1   0  -8 1666.26 240.152   1
  -1   0   8 1494.84 375.889   5
   1   0  -7 36410.9 1717.59   4
  -1   0   7 33628.7 1860.25   5
   1   0  -7 34129.6 1336.00   1
   1   0  -7 35609.1 1695.71   6
  -1   0   7 33108.0 1988.17   6
  -1   0   6 1115.77 416.851   2
  -1   0   6 923.043 147.416   1
   1   0  -6 843.565 225.124   4
   1   0  -6 622.413 143.238   1
   1   0  -6 809.671 254.615   6
  -1   0   6 1034.04 312.033   5
  -1   0   5 189345. 7275.93   2
   1   0  -5 242035. 5824.39   4
   1   0  -5 184128. 5261.63   1
   1   0  -5 233983. 5916.17   6
  -1   0   5 208623. 6131.01   6
  -1   0   5 226804. 6219.03   5
  -1   0   5 222647. 5121.53   1
   1   0  -4 17123.1 795.369   1
  -1   0   4 20498.4 1210.38   5
   1   0  -4 20875.7 1086.47   6
  -1   0   4 20630.1 754.407   1
  -1   0   4 18611.0 1606.35   2
   1   0  -4 16711.7 1460.58   2
   1   0  -4 21406.3 1067.72   4
   1   0  -3 199768. 4824.95   1
  -1   0   3 198960. 6083.10   2
   1   0  -3 200226. 5197.24   6
  -1   0   3 202622. 4728.03   1
  -1   0   3 201793. 5328.18   5
  -1   0   2 915.135 138.427   1
  -1   0   2 603.913 213.568   2
   1   0  -2 431.787 175.514   2
   1   0  -2 887.785 133.853   1
   1   0  -1 593957. 13927.2   2
  -1   0   1 626144. 13909.8   2
  -1   0  -2-2.00476 19.6698   5
  -1   0  -2 68.2883 23.0393   3
  -1   0  -2-15.6226 24.6444   4
   1   0   2 63.3460 38.0095   5
   1   0   2 94.1931 51.8509   3
   1   0   3 55111.7 1644.08   3
   1   0   3 56540.3 1609.20   6
  -1   0  -3 59186.8 1735.46   3
  -1   0  -3 57873.1 1745.47   4
  -1   0  -3 56490.1 1573.57   5
   1   0   3 57471.4 1622.09   5
   1   0   4 239.146 74.2675   5
  -1   0  -4 174.309 55.8079   3
  -1   0  -4 286.913 86.4139   5
   1   0   4 172.224 62.4984   6
  -1   0  -4 189.676 85.1138   4
   1   0   5 145420. 4052.61   6
  -1   0  -5 164091. 4287.80   4
  -1   0  -5 154177. 4053.90   3
   1   0   5 157660. 4016.89   5
  -1   0  -5 139249. 4083.56   5
  -1   0  -5 162590. 4075.49   6
  -1   0  -6 299.476 138.374   5
   1   0   6 321.729 111.637   5
  -1   0  -6 333.483 107.512   4
  -1   0  -6 440.158 133.615   6
  -1   0  -6 289.906 115.100   3
   1   0   6 333.874 127.303   6
  -1   0  -7 15836.3 907.646   6
  -1   0  -7 13822.7 1012.92   4
   1   0   7 12935.4 821.079   5
  -1   0  -7 13454.1 825.992   3
  -1   0  -8 363.493 208.216   5
   1   0   8 488.656 170.112   4
  -1   0  -8 737.145 198.527   6
   1   0   8 596.601 225.990   6
  -1   0  -8 465.008 149.961   3
  -1   0  -8 586.261 222.634   4
   1   0   8 699.405 189.432   5
  -1   0  -9 18060.8 1416.83   5
  -1   0  -9 20245.2 1485.73   4
   1   0   9 17176.7 1335.14   6
  -1   0  -9 18193.9 1052.60   3
   1   0   9 17625.3 1109.69   5
   1   0  10 2357.46 788.456   2
  -1   0 -10 3407.63 423.729   3
  -1   0 -10 3627.71 644.143   4
   1   0  10 3307.17 478.698   5
  -1   0 -11 2633.03 389.504   3
  -1   0 -11 3076.20 646.102   4
   1   0  11 3230.04 501.887   5
   1   0  12 156.392 121.196   5
  -1   0 -12-184.533 237.127   4
   1   0  13 1916.14 434.350   5
  -1   0 -13 2180.98 604.854   4
  -1   0 -14 1033.03 450.404   4
   1   0  14 867.333 313.973   5
   1   0  15 582.953 281.819   5
   1   1 -14 138.775 138.202   6
   1   1 -13-227.166 269.634   4
  -1  -1  13 130.613 158.179   5
   1   1 -13 224.084 165.657   6
   1   1 -12-0.72324 80.0442   6
  -1  -1  12 22.3809 132.028   5
   1   1 -11 12991.5 1293.93   4
  -1  -1  11 13203.5 1152.33   5
   1   1 -11 12964.3 1124.92   6
  -1  -1  10 291.409 307.725   2
   1   1 -10 812.502 259.344   6
   1   1 -10 858.583 178.859   1
   1   1 -10 1205.45 380.605   4
  -1  -1  10 983.331 295.968   5
   1   1  -9 16333.1 863.555   1
  -1  -1   9 14217.2 689.908   1
   1   1  -9 17705.8 1298.67   4
  -1  -1   9 14464.3 1223.36   5
   1   1  -9 16771.1 1224.70   6
  -1  -1   9 12662.6 1796.03   2
  -1  -1   8 372.350 81.3571   3
   1   1  -8-47.0317 163.107   4
   1   1  -8 184.032 90.0371   1
  -1  -1   8-8.19435 96.5832   5
  -1  -1   8 122.052 54.0138   1
  -1  -1   8 336.392 190.939   6
  -1  -1   8-10.1328 184.142   2
   1   1  -8 158.349 117.132   6
  -1  -1   7 23623.8 2236.82   2
  -1  -1   7 29623.6 1092.33   1
   1   1  -7 31274.4 1274.51   1
  -1  -1   7 27840.7 1719.78   5
   1   1  -7 30560.7 1556.69   4
   1   1  -7 32954.7 1716.48   6
  -1  -1   7 28338.6 1909.89   6
  -1  -1   7 27380.1 939.726   3
  -1  -1   6 14326.7 675.815   1
   1   1  -6 14851.5 976.721   4
   1   1  -6 14359.2 785.697   1
   1   1  -6 13988.7 1044.78   6
  -1  -1   6 13227.2 604.095   3
  -1  -1   6 12276.3 1442.81   2
  -1  -1   6 12429.4 1148.26   6
  -1  -1   6 13731.3 1124.53   5
   1   1  -5 140451. 4209.49   6
   1   1  -5 133776. 3834.71   4
  -1  -1   5 131047. 3373.76   1
  -1  -1   5 125906. 3335.77   3
   1   1  -5 134827. 3555.70   1
  -1  -1   5 132587. 4264.14   5
  -1  -1   4 1275.08 186.003   1
  -1  -1   4 1232.66 368.289   2
  -1  -1   4 1334.62 271.727   5
   1   1  -4 1432.83 237.073   1
   1   1  -4 452.313 163.155   6
  -1  -1   4 956.332 284.034   6
   1   1  -4 1238.33 283.326   4
  -1  -1   4 1021.41 162.601   3
   1   1  -3 3610.50 447.736   6
  -1  -1   3 3661.49 474.355   6
   1   1  -3 3650.44 333.106   1
  -1  -1   3 3564.45 404.655   5
  -1  -1   3 3705.90 498.098   2
   1   1  -3 2982.14 488.375   2
   1   1  -3 3462.89 379.935   4
  -1  -1   3 3550.40 288.102   1
   1   1  -2 56.8592 88.6379   2
   1   1  -2 264.975 144.632   6
   1   1  -2 75.4493 25.8919   1
  -1  -1   2 197.786 97.8950   2
  -1  -1   2 138.898 60.5909   7
  -1  -1   2 362.175 88.1183   1
   1   1  -1 326231. 7307.64   2
   1   1  -1 304667. 7346.07   1
  -1  -1   1 325640. 7336.21   1
  -1  -1   1 320427. 7250.80   2
   1   1  -1 309580. 7162.59   7
  -1  -1   1 316582. 7206.18   7
   1   1   0 4309.60 217.318   7
  -1  -1  -1 687762. 15346.6   1
   1   1   2 691.487 102.829   4
   1   1   2 953.888 104.209   1
   1   1   2 1022.42 142.658   5
  -1  -1  -2 764.042 115.779   4
  -1  -1  -2 990.158 113.688   1
  -1  -1  -3 257610. 5999.91   4
  -1  -1  -3 247211. 5683.05   1
   1   1   3 245497. 5986.27   5
   1   1   3 246330. 5868.13   4
   1   1   4 1168.96 189.206   5
  -1  -1  -4 1142.51 167.798   5
  -1  -1  -4 1139.15 195.881   4
   1   1   4 947.902 131.236   6
  -1  -1  -5 52535.4 1677.84   3
  -1  -1  -5 53081.9 1870.36   4
   1   1   5 55420.6 1789.18   5
   1   1   5 48527.8 1603.42   6
  -1  -1  -6 4973.72 421.299   3
  -1  -1  -6 5259.84 523.209   4
   1   1   6 4701.91 433.006   6
   1   1   6 4527.83 445.971   5
   1   1   7 157532. 4337.07   5
  -1  -1  -7 149580. 4598.47   5
  -1  -1  -7 156162. 4093.40   3
  -1  -1  -7 158905. 4607.39   4
   1   1   7 146250. 4327.83   6
   1   1   8 23.9664 48.8366   5
   1   1   8 65.8926 44.4936   4
  -1  -1  -8 124.876 101.997   3
  -1  -1  -8-47.2065 53.3942   4
  -1  -1  -9 767.217 289.054   5
  -1  -1  -9 466.693 134.589   3
   1   1   9 720.245 246.548   6
   1   1   9 774.753 225.919   5
  -1  -1  -9 724.848 282.200   4
  -1  -1 -10 645.972 168.626   3
   1   1  10 637.072 268.837   6
  -1  -1 -10 612.284 220.324   4
   1   1  10 796.911 244.623   5
  -1  -1 -11 8128.17 632.909   3
   1   1  11 8494.91 853.776   5
  -1  -1 -11 8963.05 1104.27   4
  -1  -1 -12-106.517 247.138   4
   1   1  12 412.320 217.707   5
  -1  -1 -12 269.437 114.226   3
  -1  -1 -13 8352.30 1207.44   4
   1   1  13 7720.83 918.600   5
   1   1  14 542.921 247.446   5
  -1  -1 -14 417.322 250.638   4
   1   2 -13 2302.36 635.913   4
   1   2 -13 2427.88 527.924   6
  -1  -2  13 2273.27 486.303   5
  -1  -2  12 273.715 172.733   5
   1   2 -12 79.8540 69.5298   6
   1   2 -12 467.918 277.127   4
   1   2 -11 5875.83 789.042   6
   1   2 -11 5346.33 848.882   4
  -1  -2  11 5120.24 719.279   5
  -1  -2  10 757.066 160.853   1
   1   2 -10 1080.86 217.399   1
  -1  -2  10 769.583 385.856   2
  -1  -2  10 823.013 300.720   5
   1   2 -10 1180.21 357.915   6
   1   2 -10 1229.67 370.174   4
   1   2  -9 2452.41 331.217   1
   1   2  -9 2031.53 459.956   6
  -1  -2   9 2031.97 264.474   1
   1   2  -9 2213.38 459.456   4
  -1  -2   9 1721.98 418.038   5
  -1  -2   9 1416.10 500.565   2
  -1  -2   9 2010.31 247.897   3
  -1  -2   8 7654.28 1195.70   2
  -1  -2   8 7803.68 540.698   1
   1   2  -8 8901.39 874.460   4
  -1  -2   8 10028.2 990.523   7
   1   2  -8 7128.69 600.718   1
  -1  -2   8 7553.85 526.274   3
   1   2  -8 9987.53 976.627   6
  -1  -2   8 7304.21 869.731   5
   1   2  -7 21885.7 1450.01   6
   1   2  -7 21876.9 1291.95   4
  -1  -2   7 18972.1 1616.81   6
  -1  -2   7 18889.9 947.282   3
   1   2  -7 21616.4 1078.34   1
  -1  -2   7 18232.8 1373.73   5
  -1  -2   7 19456.2 923.471   1
  -1  -2   7 22478.5 1429.99   7
  -1  -2   7 17681.9 1713.20   2
  -1  -2   6 56.3362 62.4664   3
   1   2  -6-51.0452 135.433   4
   1   2  -6 447.939 163.286   6
  -1  -2   6 122.921 163.763   2
  -1  -2   6 19.7247 223.056   6
  -1  -2   6 278.711 141.009   7
  -1  -2   6 83.0392 77.7620   5
   1   2  -6 130.067 86.4163   1
  -1  -2   6 339.308 181.556   1
  -1  -2   5 21300.2 1502.38   2
   1   2  -5 24588.7 1474.19   6
  -1  -2   5 21071.4 1313.93   5
   1   2  -5 21586.3 1113.88   4
   1   2  -5 21649.8 1030.71   1
  -1  -2   5 21577.5 1064.73   3
  -1  -2   5 22169.3 966.019   1
  -1  -2   4 880.390 246.229   5
  -1  -2   4 734.230 186.532   7
   1   2  -4 816.127 174.629   1
  -1  -2   4 616.628 214.953   2
  -1  -2   4 858.942 202.497   3
   1   2  -4 684.592 174.584   4
   1   2  -4 1196.94 331.127   6
  -1  -2   4 890.936 159.736   1
  -1  -2   3 156300. 3913.01   2
   1   2  -3 145745. 3826.19   1
  -1  -2   3 147987. 3758.11   1
  -1  -2   3 146658. 3962.88   7
   1   2  -3 138847. 3798.84   4
   1   2  -3 148784. 4455.45   6
  -1  -2   2 1419.72 143.492   2
   1   2  -2 1480.13 198.971   4
   1   2  -2 1203.37 205.317   2
   1   2  -2 996.193 215.313   6
  -1  -2   2 1460.37 215.532   7
   1   2  -2 1204.88 183.863   7
   1   2  -2 1324.38 200.873   1
  -1  -2   2 1376.72 182.190   1
   1   2  -1 14367.0 668.570   7
  -1  -2   1 14471.3 691.235   7
   1   2  -1 14954.0 950.661   6
  -1  -2   1 15298.7 698.980   1
   1   2  -1 14343.0 689.823   1
  -1  -2   0 2184.33 215.806   7
   1   2   0 2203.54 219.429   7
  -1  -2   0 2123.57 223.103   1
  -1  -2   0 2139.06 225.002   5
   1   2   1 418025. 10171.4   1
  -1  -2  -1 436284. 10230.1   1
  -1  -2  -1 451135. 10282.9   5
  -1  -2  -2 4206.14 272.026   4
   1   2   2 4214.78 243.137   4
   1   2   2 4233.97 338.967   5
   1   2   2 3900.05 257.413   1
  -1  -2  -2 4038.26 319.477   5
  -1  -2  -2 4419.17 303.443   1
  -1  -2  -3 110145. 3005.08   4
   1   2   3 118610. 2932.04   4
   1   2   3 114814. 2823.48   1
   1   2   3 104733. 3101.84   5
   1   2   4 17958.6 786.202   4
   1   2   4 17942.8 609.858   1
  -1  -2  -4 20118.1 697.602   1
   1   2   4 20561.8 933.706   5
  -1  -2  -4 20162.4 883.370   4
   1   2   5 77363.3 2397.53   4
  -1  -2  -5 83615.6 2539.51   4
   1   2   5 79275.4 2181.11   6
   1   2   5 87302.0 2579.63   5
  -1  -2  -5 83588.0 2089.22   1
   1   2   6 5620.18 427.450   6
  -1  -2  -6 6835.83 297.253   1
  -1  -2  -6 5894.82 551.953   4
   1   2   6 6232.90 566.275   5
   1   2   7 23174.8 1212.60   5
  -1  -2  -7 20474.8 1211.77   4
   1   2   7 21706.5 1060.37   6
   1   2   8-36.6094 109.791   5
  -1  -2  -8-87.2490 125.954   5
  -1  -2  -8 12.7843 57.1745   3
   1   2   8-90.2177 106.677   6
  -1  -2  -8-41.2775 103.124   4
   1   2   8-69.5311 87.8061   4
  -1  -2  -9 39755.4 2180.33   5
  -1  -2  -9 42098.3 1552.60   3
  -1  -2  -9 43541.4 2124.52   4
   1   2   9 40854.4 1904.50   5
   1   2  10 219.771 164.893   5
   1   2  10 356.808 201.776   6
  -1  -2 -10 54.9673 74.8550   3
  -1  -2 -10 195.910 141.355   4
  -1  -2 -11 16750.5 905.626   3
   1   2  11 14945.1 1273.02   6
   1   2  11 19529.4 1357.32   5
  -1  -2 -11 19526.9 1582.33   4
  -1  -2 -12 1136.45 409.044   4
   1   2  12 1099.55 318.862   5
  -1  -2 -12 1011.34 195.804   3
  -1  -2 -13 8454.14 1178.40   4
   1   2  13 6670.13 867.602   5
   1   2  14 196.267 163.663   5
  -1  -2 -14 45.6848 162.766   4
  -1  -3  13 291.677 187.684   5
   1   3 -13 219.666 232.046   4
   1   3 -12 5.07141 70.3055   4
   1   3 -12-46.8575 131.463   6
  -1  -3  12 105.730 117.086   5
  -1  -3  11 2865.30 525.874   5
   1   3 -11 3764.42 743.919   4
   1   3 -11 3406.82 617.827   6
  -1  -3  10 454.627 202.724   5
   1   3 -10 271.765 151.143   4
   1   3 -10 549.309 241.380   6
  -1  -3  10 490.778 139.394   1
  -1  -3   9 15664.5 1607.41   2
  -1  -3   9 15390.1 862.070   1
  -1  -3   9 14206.8 888.509   3
   1   3  -9 17812.7 1375.67   4
  -1  -3   9 15667.0 1286.01   5
   1   3  -9 18952.3 1451.25   6
   1   3  -9 16901.3 1021.10   1
   1   3  -8 1370.46 376.671   6
  -1  -3   8 1702.19 261.555   1
   1   3  -8 1582.99 369.625   4
  -1  -3   8 1226.75 374.695   5
  -1  -3   8 1542.59 286.602   3
  -1  -3   8 1431.45 445.652   2
  -1  -3   7 94.2249 65.9425   3
  -1  -3   7-95.3118 131.239   5
  -1  -3   7 173.450 105.199   1
  -1  -3   7 168.105 189.987   2
  -1  -3   7 37.1726 115.532   7
   1   3  -7 46.5571 62.8624   4
   1   3  -7 85.2460 81.0743   6
   1   3  -6 325.310 223.961   6
  -1  -3   6-65.8402 103.554   3
  -1  -3   6 357.822 245.816   6
  -1  -3   6 203.262 148.342   7
  -1  -3   6-18.2168 161.106   5
  -1  -3   6 53.6760 60.5306   1
   1   3  -6 67.4829 87.5175   4
  -1  -3   6 10.2340 91.3592   2
  -1  -3   5 32131.3 1474.79   2
  -1  -3   5 28027.3 1569.65   5
   1   3  -5 31865.6 1364.71   4
  -1  -3   5 29308.9 1250.58   1
  -1  -3   5 26551.9 1420.34   3
   1   3  -5 32358.8 1807.81   6
   1   3  -4 5776.13 464.260   4
  -1  -3   4 6556.62 450.389   2
   1   3  -4 5970.67 732.308   6
   1   3  -4 5012.31 485.052   1
  -1  -3   4 5432.40 567.522   5
  -1  -3   4 5093.65 581.423   3
  -1  -3   4 5763.68 479.880   1
  -1  -3   3 60916.0 2150.87   7
   1   3  -3 60465.2 1804.16   4
  -1  -3   3 59944.1 1953.46   1
   1   3  -3 63095.2 2596.39   6
   1   3  -3 53798.1 1970.78   7
   1   3  -3 57710.7 1970.76   1
  -1  -3   3 60118.4 1548.45   2
   1   3  -2 15431.8 1109.79   6
   1   3  -2 15955.0 862.176   7
  -1  -3   2 16555.9 820.660   1
   1   3  -2 17023.5 848.789   1
  -1  -3   2 16896.9 916.935   7
   1   3  -2 16887.3 665.857   4
  -1  -3   1 202893. 5083.32   5
   1   3  -1 202970. 4685.84   4
  -1  -3   1 200104. 5093.89   1
  -1  -3   1 209745. 5236.97   7
   1   3  -1 203072. 5726.59   6
   1   3  -1 202165. 5107.96   1
   1   3  -1 209059. 5214.78   7
  -1  -3   0 8996.75 570.155   7
  -1  -3   0 10191.9 585.376   1
  -1  -3   0 9424.53 537.087   5
   1   3   0 9333.38 755.554   6
   1   3   0 9643.05 611.929   7
   1   3   1 64014.9 1952.36   1
  -1  -3  -1 67443.4 1985.49   5
  -1  -3  -1 70378.3 2054.75   1
   1   3   1 71275.4 2092.06   5
   1   3   1 70582.2 2137.74   7
  -1  -3  -2-47.4202 44.8032   5
   1   3   2 5.08222 64.5524   5
  -1  -3  -2 0.19917 37.8534   1
   1   3   2 2.08670 38.7843   1
  -1  -3  -2 41.5107 30.2195   4
   1   3   2-14.4248 28.2593   4
   1   3   3 4602.06 421.970   5
  -1  -3  -3 5212.08 356.176   4
  -1  -3  -3 6024.60 414.947   1
   1   3   3 4846.53 337.155   1
  -1  -3  -3 4889.28 390.535   5
  -1  -3  -4 70416.9 2077.98   4
  -1  -3  -4 67623.0 1991.81   1
   1   3   4 66084.3 2053.92   4
   1   3   4 73170.4 2275.41   5
   1   3   5 13754.3 532.802   6
  -1  -3  -5 14211.9 788.817   4
   1   3   5 13289.5 772.695   4
   1   3   5 14677.9 871.537   5
  -1  -3  -5 13464.3 647.212   1
   1   3   6 8154.91 457.427   6
   1   3   6 8521.59 698.510   5
  -1  -3  -6 9360.60 498.848   1
  -1  -3  -6 8032.89 651.691   4
  -1  -3  -7 124135. 3779.50   4
  -1  -3  -7 124970. 3109.15   1
   1   3   7 117373. 3726.58   4
   1   3   7 113063. 3294.76   6
  -1  -3  -8 2594.51 444.201   5
  -1  -3  -8 2582.46 430.907   4
   1   3   8 2196.31 324.182   6
  -1  -3  -8 3104.77 230.022   1
   1   3   8 2426.21 414.000   4
   1   3   8 2951.80 462.873   5
  -1  -3  -9 36735.9 1904.29   4
   1   3   9 31346.3 1565.90   6
  -1  -3  -9 37020.7 1443.35   3
   1   3   9 36000.0 1823.62   5
  -1  -3 -10 152.720 104.184   3
   1   3  10 113.925 70.9435   5
  -1  -3 -10 111.613 123.135   4
   1   3  11 4547.57 634.472   6
  -1  -3 -11 6837.73 889.029   4
   1   3  11 5928.82 754.445   5
  -1  -3 -11 5521.36 478.419   3
   1   3  12-2.29154 55.0350   5
  -1  -3 -12 18.6169 26.9235   3
  -1  -3 -13 2597.63 634.253   4
   1   3  13 1975.97 497.483   5
   1   3  14-10.5008 112.099   5
  -1  -3 -14 77.0174 193.090   4
   1   4 -13 1610.92 566.225   4
   1   4 -12-52.7968 150.891   4
  -1  -4  12 136.094 109.402   5
  -1  -4  11 4955.51 681.480   5
   1   4 -11 5151.00 880.598   4
   1   4 -11 5460.76 829.431   6
  -1  -4  10 93.2994 112.980   5
  -1  -4  10 88.9431 68.3701   1
   1   4 -10 274.987 201.809   6
   1   4 -10 308.858 197.547   4
   1   4  -9 2589.98 517.578   4
  -1  -4   9 2684.92 500.180   5
   1   4  -9 3203.04 605.776   6
  -1  -4   9 2753.96 377.490   1
   1   4  -9 3360.09 475.873   1
  -1  -4   8 49.5729 122.507   5
  -1  -4   8 47.9352 56.9674   1
   1   4  -8-50.8553 149.640   6
  -1  -4   8-9.17126 103.138   3
   1   4  -8 52.1127 52.2580   1
  -1  -4   8 222.816 151.161   2
   1   4  -8 120.916 103.878   4
  -1  -4   7 10394.4 909.723   3
  -1  -4   7 11215.5 822.429   2
   1   4  -7 11623.4 1150.00   6
  -1  -4   7 10160.9 759.078   1
   1   4  -7 11438.5 935.905   4
   1   4  -7 9749.87 827.707   1
  -1  -4   7 9676.81 993.725   5
  -1  -4   6 4746.98 664.648   7
  -1  -4   6 4042.79 449.403   1
  -1  -4   6 4355.47 590.912   3
   1   4  -6 4434.40 706.498   6
   1   4  -6 4194.45 512.662   1
  -1  -4   6 3728.17 581.129   5
   1   4  -6 5098.40 545.630   4
  -1  -4   6 5557.79 451.714   2
  -1  -4   5 23948.8 1195.58   1
   1   4  -5 25242.3 1686.98   6
   1   4  -5 25572.4 1192.55   4
  -1  -4   5 22376.3 1382.33   5
  -1  -4   5 22602.2 1442.81   3
   1   4  -5 23395.0 1260.97   1
  -1  -4   5 21279.0 1700.80   6
  -1  -4   5 25780.3 1517.28   7
  -1  -4   5 26221.8 852.331   2
  -1  -4   4 3896.11 568.497   3
  -1  -4   4 4708.93 576.540   7
   1   4  -4 5084.40 426.246   4
  -1  -4   4 4720.72 484.747   1
   1   4  -4 5023.06 710.434   6
  -1  -4   4 4063.05 694.422   6
   1   4  -3 56997.9 1650.71   4
   1   4  -3 50720.1 2048.13   7
  -1  -4   3 51471.5 1894.30   1
   1   4  -3 53773.0 2507.97   6
   1   4  -2 126.331 58.2287   7
  -1  -4   2 253.231 128.055   1
   1   4  -2 296.518 71.0341   4
   1   4  -2 58.4557 83.5715   6
  -1  -4   2 439.748 160.214   7
  -1  -4   2 568.741 253.638   6
   1   4  -1 32010.1 1438.41   7
  -1  -4   1 30722.7 1394.07   7
  -1  -4   1 31269.3 1230.01   5
   1   4  -1 33390.1 857.156   4
  -1  -4   1 32159.5 1335.72   1
   1   4  -1 29843.8 1655.33   6
  -1  -4   0 16211.7 872.373   1
   1   4   0 17416.9 975.298   7
   1   4   0 14219.2 1034.10   6
  -1  -4   0 15828.8 766.733   5
  -1  -4   0 16127.0 892.937   7
  -1  -4  -1 20700.4 902.123   5
   1   4   1 22175.8 1117.51   7
   1   4   1 21548.3 995.023   5
   1   4   1 18394.7 1116.30   6
  -1  -4  -1 21505.1 1000.32   1
  -1  -4  -2 1012.94 172.802   5
  -1  -4  -2 1304.06 131.350   4
  -1  -4  -2 1223.31 218.369   1
   1   4   2 1170.45 265.216   6
   1   4   2 1180.04 191.052   1
   1   4   2 1379.21 230.658   5
   1   4   3 134311. 3903.86   5
  -1  -4  -3 141083. 3553.03   4
   1   4   3 142462. 3709.11   1
  -1  -4  -3 130191. 3695.01   5
  -1  -4  -4 5611.59 415.957   4
   1   4   4 4789.65 454.549   4
  -1  -4  -4 4893.01 421.975   1
  -1  -4  -4 5391.00 432.117   5
   1   4   4 5260.16 503.226   5
  -1  -4  -5 52317.5 1799.34   4
   1   4   5 49334.1 1921.53   4
  -1  -4  -5 49893.0 1727.99   1
  -1  -4  -5 54737.5 1809.10   5
   1   4   5 55688.4 2051.86   5
   1   4   6 1132.45 253.895   5
  -1  -4  -6 1311.16 245.721   4
   1   4   6 1123.60 132.608   6
  -1  -4  -6 1143.29 227.644   5
  -1  -4  -6 1220.74 207.490   1
   1   4   7 15012.8 1864.02   2
  -1  -4  -7 18655.2 1099.01   5
  -1  -4  -7 18605.1 1093.93   4
   1   4   7 17154.4 1149.31   4
  -1  -4  -7 18478.6 863.606   1
   1   4   7 19908.8 1229.90   5
   1   4   7 16963.0 767.510   6
   1   4   8 1174.67 291.210   5
  -1  -4  -8 1464.73 217.511   1
   1   4   8 902.134 592.804   2
   1   4   8 1387.28 237.705   6
  -1  -4  -8 1452.25 345.653   5
  -1  -4  -8 1542.74 317.242   4
  -1  -4  -9 4263.57 344.218   1
  -1  -4  -9 4187.63 579.346   4
   1   4   9 3751.28 445.047   6
   1   4   9 3939.31 587.935   5
  -1  -4 -10 413.090 201.122   4
   1   4  10 230.949 182.651   5
  -1  -4 -10 290.672 67.0656   1
   1   4  10 296.177 132.627   6
  -1  -4 -10 312.609 60.1849   1
   1   4  11 2461.78 500.505   5
  -1  -4 -11 2525.35 522.687   4
  -1  -4 -11 2134.53 311.932   3
   1   4  12 10.6690 68.3838   5
  -1  -4 -12 17.7102 66.1086   3
  -1  -4 -12 99.2342 131.035   4
  -1  -4 -13 10581.6 1249.02   4
   1   4  13 8940.24 1080.61   5
  -1  -4 -14-91.0428 188.673   4
   1   4  14-7.10122 53.4739   5
   1   5 -12 359.197 234.446   4
  -1  -5  11 1299.74 331.952   5
   1   5 -11 1229.08 425.731   4
  -1  -5  10 191.922 133.979   1
  -1  -5  10-74.5627 77.5173   5
   1   5 -10-103.852 152.261   4
   1   5 -10-43.6034 188.431   6
  -1  -5   9 12910.4 932.675   1
   1   5  -9 16577.8 1382.64   4
   1   5  -9 16528.3 1489.66   6
  -1  -5   9 13021.1 1137.96   5
  -1  -5   8 1983.71 447.248   5
  -1  -5   8 2372.18 382.254   1
   1   5  -8 3076.00 521.673   4
  -1  -5   8 2341.88 459.964   3
   1   5  -8 3597.96 684.223   6
   1   5  -8 2609.60 466.596   1
  -1  -5   7 13164.5 934.780   1
  -1  -5   7 12688.8 1124.20   3
  -1  -5   7 11666.4 1102.03   5
   1   5  -7 15689.3 1422.93   6
   1   5  -7 14902.7 1116.96   1
   1   5  -7 15337.4 1105.17   4
  -1  -5   6 273.379 144.622   5
   1   5  -6 393.948 164.754   4
  -1  -5   6 357.108 197.731   3
   1   5  -6 441.503 235.307   6
  -1  -5   6 419.018 161.105   1
   1   5  -6 495.414 201.827   1
  -1  -5   5 2555.82 457.314   5
   1   5  -5 3116.90 380.182   4
   1   5  -5 2896.40 593.756   6
  -1  -5   5 2736.97 400.340   1
   1   5  -5 2916.44 460.092   1
  -1  -5   5 2422.21 486.436   3
  -1  -5   5 3122.65 546.880   7
  -1  -5   4 5104.01 655.696   7
   1   5  -4 5300.05 759.160   6
  -1  -5   4 4716.50 776.027   6
  -1  -5   4 5187.04 730.985   3
  -1  -5   4 4759.20 518.117   1
   1   5  -4 5573.27 608.224   1
   1   5  -4 4720.45 579.214   7
   1   5  -4 5614.78 452.323   4
   1   5  -3 1546.69 200.438   4
  -1  -5   3 1225.53 249.437   1
  -1  -5   3 1600.52 350.629   7
  -1  -5   3 1514.62 415.411   6
   1   5  -3 1607.02 306.191   1
   1   5  -3 1138.99 326.822   6
   1   5  -3 1696.70 342.842   7
  -1  -5   2-48.3990 78.2913   7
  -1  -5   2-145.895 138.263   1
   1   5  -2 13.3122 17.1528   4
   1   5  -2-63.3246 101.394   7
  -1  -5   2 35.9627 159.008   6
  -1  -5   2-14.6384 43.5589   5
   1   5  -2-65.4404 110.556   1
   1   5  -2 301.078 255.051   6
  -1  -5   1 70972.6 2207.43   5
  -1  -5   1 72566.0 2447.77   1
   1   5  -1 67814.5 2849.92   6
   1   5  -1 73621.2 2654.74   7
  -1  -5   0 21395.6 1102.61   1
   1   5   0 21761.2 1247.87   7
   1   5   0 17206.5 1244.93   2
   1   5   0 20520.8 1329.28   6
  -1  -5   0 20846.4 933.743   5
   1   5   1 209108. 5554.09   7
   1   5   1 208970. 5205.69   5
  -1  -5  -1 200712. 4956.02   5
  -1  -5  -1 195627. 5221.44   1
   1   5   2 6335.68 599.234   6
  -1  -5  -2 7115.31 317.921   4
   1   5   2 7507.35 711.628   7
   1   5   2 5617.71 939.539   2
   1   5   2 7610.35 603.325   5
  -1  -5  -2 6434.69 486.793   5
  -1  -5  -2 6789.42 578.694   1
  -1  -5  -3 85498.1 2273.99   4
   1   5   3 88881.2 2673.12   6
  -1  -5  -3 77393.5 2452.36   5
   1   5   3 77833.7 2690.46   5
   1   5   3 77907.7 4060.53   2
  -1  -5  -4 940.247 185.564   5
  -1  -5  -4 985.062 199.504   1
   1   5   4 1187.94 245.354   5
  -1  -5  -4 790.683 152.345   4
   1   5   4 830.818 160.790   6
  -1  -5  -5 5561.08 469.255   4
   1   5   5 3706.33 899.379   2
   1   5   5 5185.60 569.480   5
  -1  -5  -5 4824.13 471.561   1
  -1  -5  -5 5600.45 483.378   5
  -1  -5  -6 15277.9 897.226   4
  -1  -5  -6 15130.7 902.205   5
  -1  -5  -6 15055.6 862.594   1
   1   5   6 15627.9 1079.51   5
   1   5   6 14792.7 489.359   6
   1   5   6 13488.8 1816.79   2
   1   5   7 6344.59 357.580   6
  -1  -5  -7 6996.77 644.328   4
   1   5   7 6827.72 1359.94   2
  -1  -5  -7 7567.97 586.813   1
  -1  -5  -7 7174.90 660.664   5
   1   5   7 7821.26 788.779   5
  -1  -5  -8 615.045 153.644   1
   1   5   8 441.139 110.999   6
  -1  -5  -8 339.080 149.710   4
   1   5   8 431.260 177.897   5
  -1  -5  -9 11219.5 955.229   4
  -1  -5  -9 12130.4 737.801   1
   1   5   9 10400.9 665.907   6
   1   5   9 10836.8 1033.25   5
  -1  -5 -10 352.977 104.348   1
   1   5  10 323.469 144.804   6
  -1  -5 -10 440.596 222.354   4
   1   5  10 293.345 167.852   5
  -1  -5 -11 12229.1 637.422   1
  -1  -5 -11 12897.0 1188.87   4
   1   5  11 13175.4 1237.92   5
   1   5  12-120.069 126.402   5
  -1  -5 -12 189.473 122.893   3
  -1  -5 -12-40.9438 146.471   4
   1   5  13 3201.86 670.186   5
  -1  -5 -13 2793.33 618.844   4
  -1  -5 -14 14.1501 117.460   4
   1   5  14 64.0721 121.835   5
   1   6 -10 549.910 248.076   4
   1   6  -9 4098.93 670.421   4
   1   6  -9 4224.74 787.693   6
  -1  -6   9 2973.28 464.308   1
  -1  -6   9 3044.54 514.212   5
  -1  -6   8 800.004 250.425   1
  -1  -6   8 731.689 261.570   5
   1   6  -8 962.220 304.031   4
   1   6  -8 1078.16 402.345   6
   1   6  -7 9877.13 1172.44   6
  -1  -6   7 7623.40 761.350   1
   1   6  -7 10719.1 917.727   4
  -1  -6   7 9009.43 935.399   5
  -1  -6   6 232.876 177.720   5
   1   6  -6 344.888 272.885   6
  -1  -6   6 333.595 161.368   1
   1   6  -6 28.2143 92.0399   4
   1   6  -5 7425.92 967.830   6
   1   6  -5 7432.63 606.790   4
  -1  -6   5 6226.99 669.388   1
  -1  -6   5 7030.36 748.175   5
   1   6  -4 1478.15 229.569   4
   1   6  -4 1542.95 359.742   7
   1   6  -4 1490.52 464.076   6
  -1  -6   4 1753.49 453.817   3
  -1  -6   4 1391.09 276.637   5
  -1  -6   4 1509.65 312.631   1
   1   6  -4 1369.69 318.620   1
   1   6  -3 26940.5 958.233   4
  -1  -6   3 24673.5 1361.62   1
   1   6  -3 24155.2 1525.31   7
  -1  -6   3 25135.0 1564.11   7
  -1  -6   3 25987.3 1856.68   6
  -1  -6   3 23523.7 1178.51   5
   1   6  -3 25852.3 1778.69   6
   1   6  -3 27224.1 1495.41   1
  -1  -6   3 25736.5 1845.43   3
  -1  -6   2 11887.0 992.684   7
   1   6  -2 10276.1 1042.73   6
  -1  -6   2 11236.2 719.482   5
   1   6  -2 11984.1 922.466   1
  -1  -6   2 11296.9 862.736   1
   1   6  -2 11316.7 982.654   7
  -1  -6   1 9463.00 837.325   7
  -1  -6   1 9411.83 785.281   1
   1   6  -1 8580.96 897.804   6
  -1  -6   1 8825.85 602.518   5
   1   6  -1 9208.84 863.624   7
   1   6  -1 9342.38 777.131   1
   1   6   0 1263.93 311.841   7
  -1  -6   0 771.274 181.265   1
   1   6   0 1148.90 308.181   6
  -1  -6   0 1309.66 214.630   5
   1   6   0 1175.93 277.411   2
   1   6   1 54980.3 3110.47   2
   1   6   1 61587.3 2590.97   7
   1   6   1 56952.2 2388.04   6
  -1  -6  -1 62299.6 2319.37   1
   1   6   1 60222.9 2241.77   1
  -1  -6  -1 60977.0 1979.92   5
   1   6   1 62899.0 2221.67   5
   1   6   2 2334.27 357.901   5
   1   6   2 2042.75 362.694   6
   1   6   2 1942.47 394.601   7
   1   6   2 1398.97 503.119   2
  -1  -6  -2 2191.19 358.641   1
  -1  -6  -2 2291.36 289.332   5
   1   6   3 18759.1 1108.80   5
   1   6   3 20493.8 1040.37   6
  -1  -6  -3 19376.1 732.583   4
  -1  -6  -3 18034.3 905.614   5
   1   6   3 18128.5 1291.51   7
  -1  -6  -4 6020.06 436.374   4
   1   6   4 6370.67 634.704   5
  -1  -6  -4 5883.08 588.070   1
  -1  -6  -4 6188.44 499.680   5
   1   6   4 5652.63 433.866   6
   1   6   5 15851.6 1092.05   5
   1   6   5 15137.3 564.941   6
  -1  -6  -5 15745.5 837.803   4
  -1  -6  -5 15635.9 982.878   1
  -1  -6  -5 17298.8 916.008   5
  -1  -6  -6 347.925 128.208   5
   1   6   6 251.878 400.495   2
   1   6   6 328.932 148.212   5
  -1  -6  -6 509.700 162.326   4
  -1  -6  -6 520.630 175.551   1
  -1  -6  -7 38183.7 1699.14   4
  -1  -6  -7 39877.9 1677.85   1
   1   6   7 40222.7 2036.16   5
  -1  -6  -7 39120.0 1758.24   5
   1   6   8 339.434 178.454   5
  -1  -6  -8 660.548 188.636   1
  -1  -6  -8 495.795 183.257   4
  -1  -6  -9 30037.9 1376.26   1
  -1  -6  -9 26164.8 1560.68   4
   1   6   9 26491.8 1779.68   5
   1   6  10-99.4411 194.725   5
  -1  -6 -10 60.7187 55.3950   1
  -1  -6 -10 142.925 158.963   4
   1   6  11 2625.31 554.339   5
  -1  -6 -11 2289.39 486.047   4
  -1  -6 -11 2181.42 316.580   1
   1   6  12 167.936 177.521   5
  -1  -6 -12-100.279 152.170   4
   1   6  13 1461.48 460.054   5
  -1  -6 -13 1155.32 412.573   4
  -1  -6 -14-88.1947 155.256   4
  -1  -7   9 1577.56 372.019   1
  -1  -7   8 364.105 187.065   1
   1   7  -8 1128.25 430.792   6
   1   7  -7 5498.69 639.262   4
  -1  -7   7 3964.35 574.076   1
   1   7  -7 5855.23 929.176   6
  -1  -7   7 4649.90 643.305   5
   1   7  -6 6499.19 618.126   4
  -1  -7   6 4734.02 648.596   5
  -1  -7   6 5199.76 667.128   1
   1   7  -6 6267.11 910.902   6
  -1  -7   5 24918.8 1513.85   1
  -1  -7   5 23128.0 1291.26   5
   1   7  -5 27280.6 1218.00   4
   1   7  -5 26629.4 1958.33   6
  -1  -7   5 24989.5 1485.77   5
  -1  -7   4 1133.98 271.318   5
  -1  -7   4 961.551 274.921   1
   1   7  -4 1073.98 348.213   6
   1   7  -4 1015.90 314.542   7
  -1  -7   4 1014.25 227.317   5
   1   7  -3 523.515 244.110   6
  -1  -7   3 712.230 213.486   1
   1   7  -3 370.828 182.234   7
  -1  -7   3 637.298 170.867   5
   1   7  -2 188.590 165.811   7
  -1  -7   2 220.853 93.6235   5
   1   7  -2 186.752 225.794   6
  -1  -7   2 400.389 195.122   1
  -1  -7   1 9078.08 620.380   5
  -1  -7   1 9739.84 866.571   1
   1   7  -1 9004.80 953.426   7
   1   7  -1 9147.05 941.969   6
  -1  -7   0 3702.67 527.635   1
  -1  -7   0 3838.91 390.697   5
   1   7   0 4085.18 588.440   6
   1   7   0 4491.56 442.841   2
   1   7   0 3821.22 608.614   7
   1   7   1 6820.80 948.683   2
  -1  -7  -1 7374.19 731.819   1
   1   7   1 6580.48 695.493   6
   1   7   1 7390.06 865.575   7
  -1  -7  -1 6627.44 515.219   5
   1   7   2 1674.04 303.513   6
   1   7   2 2061.25 361.962   5
   1   7   2 1351.97 337.260   7
   1   7   2 1624.04 614.244   2
  -1  -7  -2 1873.13 268.021   5
  -1  -7  -2 1958.92 372.064   1
  -1  -7  -3 21665.6 1278.82   1
  -1  -7  -3 17869.4 654.765   4
   1   7   3 17881.4 1151.08   5
   1   7   3 21337.5 1028.91   6
   1   7   3 16502.4 1368.40   7
  -1  -7  -3 16660.3 886.132   5
   1   7   4 1928.57 236.056   6
  -1  -7  -4 1894.45 227.661   4
  -1  -7  -4 1556.44 327.170   1
   1   7   4 2385.74 528.221   7
  -1  -7  -4 2045.07 290.166   5
   1   7   4 2119.94 384.451   5
   1   7   5 35090.2 981.546   6
  -1  -7  -5 35773.0 1390.95   4
  -1  -7  -5 34350.9 1703.25   1
   1   7   5 36504.3 1840.06   5
  -1  -7  -5 36774.9 1502.89   5
  -1  -7  -6 8915.92 671.739   4
   1   7   6 7656.95 1596.58   2
  -1  -7  -6 9034.23 790.259   1
   1   7   6 9169.22 891.956   5
  -1  -7  -6 8783.85 710.509   5
  -1  -7  -7 16439.0 1090.57   1
  -1  -7  -7 16619.3 1039.54   4
   1   7   7 18591.2 1349.74   5
  -1  -7  -8 3168.61 452.285   1
  -1  -7  -8 2537.04 416.457   4
   1   7   8 2536.76 512.329   5
  -1  -7  -9 5270.12 653.261   4
   1   7   9 5851.85 819.401   5
  -1  -7  -9 5933.31 626.537   1
  -1  -7 -10 165.146 44.1475   4
   1   7  10 300.857 167.597   5
  -1  -7 -10 443.874 172.476   1
  -1  -7 -11 3260.68 432.407   1
   1   7  11 2790.05 624.983   5
  -1  -7 -11 3546.62 616.372   4
   1   7  12 3.22391 113.036   5
  -1  -7 -12 19.6358 75.0335   4
   1   7  13 2204.92 596.661   5
  -1  -7 -13 2695.85 609.128   4
  -1  -7 -14-125.243 99.5881   4
  -1  -8   9 1178.78 339.512   1
  -1  -8   8 310.667 174.638   1
  -1  -8   7 3142.94 554.455   1
   1   8  -7 3738.96 801.872   6
  -1  -8   6 1199.09 343.452   1
   1   8  -6 1261.14 415.049   6
   1   8  -5 3109.70 662.875   6
  -1  -8   5 3122.87 530.862   1
  -1  -8   4 276.106 148.434   5
  -1  -8   4 386.396 205.193   1
   1   8  -4 356.992 208.412   7
   1   8  -4 967.442 361.136   6
   1   8  -3 15261.6 1375.60   7
  -1  -8   3 15121.1 1196.77   1
   1   8  -3 16597.4 1471.15   6
  -1  -8   2 1601.85 362.721   1
   1   8  -2 1994.38 454.052   6
   1   8  -2 1436.86 411.002   7
  -1  -8   2 1709.87 259.982   5
  -1  -8   1 3102.63 507.977   1
   1   8  -1 3633.28 662.158   7
   1   8  -1 2684.63 507.349   6
  -1  -8   1 3085.42 349.306   5
   1   8   0 1713.98 436.400   7
  -1  -8   0 1416.15 349.802   1
   1   8   0 1581.62 345.326   6
  -1  -8   0 1443.46 232.462   5
   1   8   0 1595.73 217.104   2
   1   8   1 8318.86 906.487   2
   1   8   1 8367.13 1004.64   7
  -1  -8  -1 8246.07 851.157   1
   1   8   1 8573.86 793.932   6
  -1  -8  -1 8476.60 590.757   5
  -1  -8  -2 48.9395 40.3342   5
   1   8   2 190.046 122.000   6
   1   8   2-7.07991 41.9225   5
   1   8   2-124.986 206.017   2
   1   8   2-295.279 229.990   7
  -1  -8  -2 113.316 150.370   1
   1   8   3 38016.5 1884.57   5
   1   8   3 42023.6 1588.82   6
  -1  -8  -3 36896.8 1485.08   5
   1   8   3 35368.1 2274.11   7
  -1  -8  -4 18963.5 784.257   4
   1   8   4 17531.0 1578.19   7
   1   8   4 17980.6 795.769   6
   1   8   4 14575.6 2214.80   2
   1   8   4 18856.9 1287.88   5
  -1  -8  -4 17834.8 963.611   5
  -1  -8  -4 18633.4 1289.94   1
  -1  -8  -5-1.15067 79.0187   1
  -1  -8  -5 41.1733 52.7520   4
  -1  -8  -5 177.221 106.500   5
   1   8   5 170.248 153.402   7
   1   8   5 93.0028 198.713   2
   1   8   5 121.174 40.8525   6
   1   8   5 189.481 137.800   5
   1   8   6-141.452 220.551   7
  -1  -8  -6 53.8624 93.8305   1
  -1  -8  -6 105.618 83.4815   4
   1   8   6 1.35525 99.3363   5
  -1  -8  -7 2452.80 381.418   4
  -1  -8  -7 2295.22 421.180   1
   1   8   7 2619.16 502.278   5
  -1  -8  -8 384.799 168.955   1
  -1  -8  -8 200.225 107.455   4
   1   8   8 430.487 225.610   5
  -1  -8  -9 6984.63 774.512   4
  -1  -8  -9 8526.04 819.204   1
   1   8   9 6896.03 924.454   5
   1   8  10-23.7977 107.123   5
  -1  -8 -10-63.8192 91.6535   4
  -1  -8 -10 4.88517 63.3265   1
  -1  -8 -11 3932.14 652.021   4
  -1  -8 -11 3572.64 508.814   1
   1   8  11 3112.37 688.738   5
   1   8  12 376.621 236.860   5
  -1  -8 -12 153.786 182.625   4
  -1  -8 -13 2357.84 587.593   4
  -1  -9   8-13.3074 109.698   1
  -1  -9   7 608.396 247.109   1
  -1  -9   6 147.781 64.7827   1
   1   9  -6 697.509 364.255   6
  -1  -9   5 4520.33 705.303   1
   1   9  -5 5021.53 876.926   6
  -1  -9   4 169.974 143.991   1
   1   9  -4 29.4303 92.6607   6
   1   9  -4 133.773 148.805   7
   1   9  -3 8867.99 1066.39   6
   1   9  -3 7266.50 1006.52   7
  -1  -9   3 7481.02 890.989   1
   1   9  -2-75.2353 137.725   6
   1   9  -2 153.735 109.011   7
  -1  -9   2-132.746 180.040   1
   1   9  -1 3972.83 625.534   6
  -1  -9   1 4449.00 670.406   1
   1   9  -1 4626.35 789.140   7
   1   9   0 4157.45 750.087   7
  -1  -9   0 3672.21 603.609   1
   1   9   0 4077.86 577.701   6
  -1  -9  -1 25406.7 1697.05   1
   1   9   1 28644.2 2066.71   7
   1   9   1 29678.2 1525.36   2
   1   9   1 26839.0 1481.08   6
  -1  -9  -1 25683.0 1134.31   5
   1   9   2 2365.95 590.484   7
  -1  -9  -2 2512.10 505.915   1
  -1  -9  -2 2299.97 303.506   5
   1   9   2 2258.37 354.980   6
   1   9   3 1934.15 730.027   2
   1   9   3 1910.29 530.924   7
  -1  -9  -3 1894.69 283.231   5
   1   9   3 2367.76 313.615   6
  -1  -9  -3 2869.40 529.154   1
   1   9   3 1643.58 364.855   5
   1   9   4 1843.16 532.776   7
   1   9   4 1503.95 688.305   2
  -1  -9  -4 1986.89 310.580   5
  -1  -9  -4 1666.98 414.071   1
   1   9   4 1906.90 236.440   6
   1   9   4 2243.90 458.261   5
  -1  -9  -5 4703.43 397.519   4
   1   9   5 4773.62 889.458   7
  -1  -9  -5 4413.56 652.183   1
   1   9   5 3933.03 617.872   5
  -1  -9  -5 3697.87 477.830   5
   1   9   5 3967.64 1247.31   2
   1   9   6 3706.75 614.497   5
   1   9   6 3528.41 787.091   7
  -1  -9  -6 2928.09 370.603   4
  -1  -9  -6 3284.31 555.320   1
  -1  -9  -7 3922.57 484.994   4
   1   9   7 4633.25 730.707   5
   1   9   7 3423.13 805.339   7
  -1  -9  -7 4256.37 631.916   1
  -1  -9  -8 810.374 275.733   1
  -1  -9  -8 1041.37 271.163   4
   1   9   8 1191.85 358.028   5
  -1  -9  -9 3661.15 558.027   4
   1   9   9 4580.64 782.983   5
  -1  -9  -9 4026.26 608.349   1
  -1  -9 -10 49.6985 93.7509   4
   1   9  10 261.575 237.548   5
  -1  -9 -10 38.6142 63.3964   1
  -1  -9 -11 1950.44 454.367   4
   1   9  11 2985.35 707.225   5
  -1  -9 -12 510.975 236.339   4
  -1  -9 -13 979.639 365.126   4
  -1 -10   5 977.387 338.102   1
   1  10  -5 1380.03 483.935   6
  -1 -10   4-231.602 216.162   1
   1  10  -4 34.3545 117.677   6
   1  10  -4 106.917 172.323   7
   1  10  -3 1970.12 574.108   7
   1  10  -3 2184.53 544.383   6
  -1 -10   3 2255.54 511.030   1
   1  10  -2 262.856 242.725   7
   1  10  -2 299.891 188.950   6
  -1 -10   2-98.7601 131.614   1
   1  10  -1 9491.19 1239.59   7
   1  10  -1 9547.18 1002.66   6
  -1 -10   1 9044.96 1047.49   1
   1  10   0 158.167 128.679   6
  -1 -10   0 55.5071 99.3007   1
   1  10   0-1.16289 108.039   7
  -1 -10  -1 314.939 212.242   1
   1  10   1 752.526 348.172   7
   1  10   1 484.348 177.698   6
   1  10   2 105.629 208.382   7
  -1 -10  -2-32.9115 81.8561   1
   1  10   2 188.934 103.215   6
  -1 -10  -3 21487.6 1614.13   1
   1  10   3 17242.4 1786.68   7
   1  10   3 18845.9 985.246   6
   1  10   3 19216.2 1381.69   5
  -1 -10  -4 178.919 130.503   1
   1  10   4 472.606 328.371   7
   1  10   4 309.820 168.574   5
  -1 -10  -5 6927.34 886.876   1
   1  10   5 7316.17 891.703   5
   1  10   5 8086.98 1258.16   7
   1  10   6 846.783 395.855   7
  -1 -10  -6 1024.85 330.741   1
   1  10   6 1077.22 370.423   5
  -1 -10  -7 2944.38 563.865   1
   1  10   7 3464.96 654.098   5
   1  10   7 3178.74 850.202   7
   1  10   8-70.9224 107.016   5
   1  10   8 74.2204 107.829   7
  -1 -10  -8-134.569 117.201   1
  -1 -10  -9 4276.36 671.229   1
   1  10   9 4772.32 1076.21   7
   1  10   9 4344.45 793.269   5
  -1 -10 -10 52.5483 61.5875   1
   1  10  10 38.5570 86.3486   5
   1  10  11 397.027 246.462   5
   1  11  -3 3301.99 670.705   6
   1  11  -2 462.363 253.082   6
  -1 -11   1 160.148 157.749   1
   1  11  -1 384.358 252.057   7
   1  11  -1-260.449 166.382   6
   1  11   0 317.490 228.331   7
  -1 -11   0-75.6977 188.101   1
   1  11   0-121.698 120.630   6
   1  11   1 2968.30 727.221   7
  -1 -11  -1 3739.19 707.407   1
   1  11   1 3878.92 529.038   6
  -1 -11  -2 793.170 324.079   1
   1  11   2 867.384 404.735   7
   1  11   3 4208.01 928.191   7
  -1 -11  -3 6436.19 925.645   1
  -1 -11  -4 306.309 244.060   1
   1  11   4 425.339 300.345   7
   1  11   5 3641.77 638.613   5
   1  11   5 4109.87 959.856   7
  -1 -11  -5 3458.85 666.070   1
   1  11   6-242.192 267.459   7
   1  11   6 172.706 127.633   5
  -1 -11  -6 151.931 175.879   1
  -1 -11  -7 3191.46 642.386   1
   1  11   7 3203.03 657.080   5
  -1 -11  -8 357.230 222.453   1
   1  11   8 173.809 146.360   5
   1  11   9 1452.32 471.610   5
  -1 -11  -9 1840.98 460.815   1
  -1 -11 -10-95.2528 152.662   1
   1  11  10 235.381 220.402   5
   2 -10 -10 1043.47 325.382   1
  -2  10  10 1256.84 423.694   5
  -2  10   9-108.242 146.031   5
   2 -10  -9 142.886 101.607   1
  -2  10   8 2597.99 562.964   5
   2 -10  -8 2812.55 528.816   1
  -2  10   8 2317.78 810.310   7
  -2  10   7 8.20843 103.748   5
   2 -10  -7 226.911 181.094   1
  -2  10   7-48.6719 125.419   7
  -2  10   6 4772.64 1106.17   7
   2 -10  -6 4269.77 658.305   1
   2 -10  -5 261.272 201.111   1
  -2  10   5 254.987 234.869   7
  -2  10   4 8111.66 1357.33   7
   2 -10  -4 6156.71 806.833   1
  -2  10   3-40.7278 97.4158   7
   2 -10  -3 14.4057 126.499   1
   2 -10  -2 1217.91 372.069   1
  -2  10   2 2132.87 657.620   7
   2 -10  -1 107.323 71.7835   1
  -2  10   1 1137.37 464.738   7
  -2  10   0 2828.97 727.020   7
   2 -10   0 2796.11 559.313   1
   2 -10   1 733.812 279.416   1
  -2  10  -1 744.725 363.098   7
   2 -10   2 3091.28 577.827   1
  -2  10  -2 4311.68 882.415   7
   2 -10   3 152.674 179.291   1
  -2  10  -3 18.8140 83.0600   7
   2 -10   4 2639.25 547.622   1
   2 -10   5-97.8687 156.569   1
   2  -9 -11 71.2290 90.1815   4
   2  -9 -10 3105.80 542.203   4
  -2   9  10 3117.31 886.038   7
   2  -9 -10 2550.53 480.364   1
  -2   9  10 3279.83 642.735   5
   2  -9  -9 162.978 121.112   4
  -2   9   9 210.353 123.354   5
   2  -9  -9-10.4090 98.5639   1
  -2   9   9-213.098 292.863   7
  -2   9   8 2520.42 523.529   5
   2  -9  -8 2778.00 487.741   4
   2  -9  -8 2310.45 456.562   1
  -2   9   8 3061.62 891.065   7
  -2   9   7-43.1818 87.6763   5
   2  -9  -7 48.2773 60.8288   4
   2  -9  -7 86.7444 107.653   1
  -2   9   7-1.79109 191.258   7
  -2   9   6 5074.81 1086.94   7
  -2   9   6 4972.19 669.535   5
   2  -9  -6 5050.91 611.443   4
   2  -9  -6 5137.46 686.399   1
  -2   9   5-78.8131 96.8603   5
  -2   9   5 350.798 237.460   7
   2  -9  -5 79.6203 145.665   1
   2  -9  -5 156.448 144.600   4
  -2   9   4 3268.58 808.787   7
  -2   9   4 2577.62 425.557   5
   2  -9  -4 2308.66 459.883   1
  -2   9   3-18.8543 76.0655   5
   2  -9  -3 194.174 145.104   1
  -2   9   3 313.896 279.543   7
  -2   9   2 9584.14 644.890   5
  -2   9   2 9291.29 1296.14   7
   2  -9  -2 8999.96 928.280   1
  -2   9   1 254.469 144.551   2
  -2   9   1 153.670 85.6906   7
   2  -9  -1 242.281 181.628   1
   2  -9   0 13482.4 1153.02   1
  -2   9   0 16906.3 1673.70   7
   2  -9   1 1363.33 353.918   1
  -2   9  -1 1616.62 498.013   7
  -2   9  -2 15581.6 1585.07   7
   2  -9   2 13629.4 1168.02   1
   2  -9   3 298.766 181.612   1
  -2   9  -3 629.607 312.797   7
   2  -9   4 1197.38 339.533   1
  -2   9  -4 1420.00 474.721   7
   2  -9   5 40.1084 77.2903   1
  -2   9  -5 12.6539 49.4748   7
   2  -9   6 2931.10 529.379   1
   2  -9   7 107.985 89.7707   1
   2  -9   8 904.104 289.436   1
  -2   8  11 92.4953 153.354   5
   2  -8 -11 24.2838 58.2381   4
  -2   8  10 1823.05 457.991   5
   2  -8 -10 2106.78 449.649   4
   2  -8 -10 1359.93 333.320   1
  -2   8   9 67.9546 124.348   5
   2  -8  -9-5.30060 62.4223   4
   2  -8  -9 11.4152 53.3654   1
   2  -8  -8 2997.95 500.727   4
  -2   8   8 2288.25 674.085   7
  -2   8   8 2909.66 531.813   5
   2  -8  -8 2972.57 492.038   1
  -2   8   7 350.293 177.935   5
   2  -8  -7 759.624 268.191   4
   2  -8  -7 752.288 266.130   1
  -2   8   7 428.683 285.106   7
  -2   8   6 1315.32 315.887   5
  -2   8   6 2152.11 640.589   7
   2  -8  -6 1305.34 323.960   4
   2  -8  -6 1391.21 339.621   1
  -2   8   5 988.182 412.303   7
   2  -8  -5 1295.92 332.036   1
  -2   8   5 709.378 225.179   5
  -2   8   4 16621.2 1694.17   7
  -2   8   4 14888.7 1020.07   5
   2  -8  -4 14224.2 1131.33   1
   2  -8  -3 735.330 624.887   2
  -2   8   3 130.709 86.0531   5
   2  -8  -3 255.714 109.652   6
   2  -8  -3 505.843 227.372   1
  -2   8   3 710.990 390.929   7
  -2   8   2 17134.5 1535.51   2
   2  -8  -2 13847.3 957.834   6
  -2   8   2 15446.9 1544.66   7
  -2   8   2 15978.0 867.875   5
   2  -8  -2 16017.6 1183.58   1
   2  -8  -2 11784.1 1702.47   2
   2  -8  -1 422.380 341.250   2
  -2   8   1 718.871 276.726   2
   2  -8  -1 734.251 283.749   1
   2  -8  -1 373.602 158.047   6
  -2   8   1 202.280 70.2758   7
  -2   8   1 475.517 103.500   5
   2  -8   0 13179.7 866.283   4
  -2   8   0 13432.1 1068.34   2
  -2   8   0 13176.4 1360.66   7
   2  -8   0 11338.3 1015.21   6
   2  -8   0 11861.7 1019.65   1
   2  -8   0 9845.45 1438.62   2
   2  -8   1 236.090 117.069   1
   2  -8   1 320.500 349.710   2
   2  -8   1 277.180 119.773   4
   2  -8   1 73.6629 99.6455   6
  -2   8  -1 292.398 208.030   7
   2  -8   2 6687.02 547.036   4
   2  -8   2 6234.35 712.436   1
  -2   8  -2 8326.26 1062.37   7
   2  -8   2 5459.76 936.071   2
   2  -8   3 359.162 170.251   1
  -2   8  -3 260.431 190.999   7
   2  -8   3 204.405 238.288   2
  -2   8  -4 16094.9 1509.49   7
   2  -8   4 14245.6 1124.73   1
   2  -8   5 389.992 201.927   1
  -2   8  -5 711.242 286.366   7
   2  -8   6 6665.65 754.718   1
   2  -8   7 647.594 245.473   1
   2  -8   8 2788.12 499.545   1
   2  -7 -12 72.2971 88.4291   4
   2  -7 -11 311.896 126.713   1
   2  -7 -11 426.366 242.194   4
  -2   7  11 526.792 231.216   5
   2  -7 -10 1912.39 435.364   4
   2  -7 -10 2689.03 427.392   1
  -2   7  10 2573.93 510.184   5
  -2   7   9 100.261 131.189   5
   2  -7  -9 219.023 155.829   4
   2  -7  -8 2987.92 485.695   3
   2  -7  -8 3106.75 517.408   4
  -2   7   8 3578.47 549.311   5
   2  -7  -7 320.694 174.813   4
   2  -7  -7 222.914 155.392   3
  -2   7   7 408.346 178.430   5
   2  -7  -6 10642.1 1072.89   5
   2  -7  -6 8823.53 855.305   4
  -2   7   6 10796.8 886.664   5
  -2   7   6 11858.7 1410.15   7
   2  -7  -6 10027.2 984.755   3
   2  -7  -5 2488.39 866.169   2
   2  -7  -5 2978.95 544.927   3
   2  -7  -5 4377.69 641.135   5
  -2   7   5 3878.18 789.049   7
  -2   7   5 4319.74 522.415   5
   2  -7  -4 17875.8 1411.18   3
  -2   7   4 19128.9 1095.06   5
   2  -7  -4 14995.0 2011.79   2
   2  -7  -4 16808.7 668.084   6
  -2   7   3 229.420 94.6178   5
   2  -7  -3 308.388 127.602   6
   2  -7  -3 824.114 509.676   2
  -2   7   3 358.090 258.570   7
  -2   7   3 303.368 232.376   2
   2  -7  -3 560.980 259.331   3
   2  -7  -2 1713.84 638.601   2
   2  -7  -2 2388.43 349.051   6
  -2   7   2 2828.31 579.716   7
  -2   7   2 2470.18 545.079   2
  -2   7   2 2096.14 285.630   5
   2  -7  -1 402.108 212.770   2
  -2   7   1 1090.07 322.354   2
   2  -7  -1 851.039 239.098   6
  -2   7   1 543.809 262.976   7
   2  -7  -1 810.029 259.064   1
  -2   7   1 504.429 124.483   5
   2  -7   0 464.274 192.567   1
   2  -7   0 723.204 205.229   4
   2  -7   0 275.675 216.203   2
  -2   7   0 266.254 148.545   7
   2  -7   0 499.732 197.949   6
   2  -7   1 277.766 128.700   1
   2  -7   1 288.118 111.917   4
   2  -7   1-19.2488 225.460   2
  -2   7  -1 418.316 248.560   7
   2  -7   1 606.312 249.193   6
   2  -7   2 33005.4 1714.68   1
  -2   7  -2 37572.7 2239.30   7
   2  -7   2 35729.9 1495.69   4
   2  -7   2 30088.1 2238.30   2
   2  -7   2 34022.0 1944.84   6
   2  -7   3 373.810 174.486   1
   2  -7   3 187.724 158.308   2
  -2   7  -3 312.117 180.570   7
   2  -7   3 477.595 140.125   4
   2  -7   4 4822.73 728.532   2
   2  -7   4 4584.31 440.799   4
  -2   7  -4 4920.25 761.905   7
   2  -7   4 4465.76 570.014   1
   2  -7   5 47.5550 70.2421   4
   2  -7   5-55.8032 79.5098   2
  -2   7  -5-19.8823 174.149   7
   2  -7   5-8.71577 79.2871   1
   2  -7   6 9114.04 831.940   1
   2  -7   7 123.401 99.6495   1
   2  -7   8 10745.7 925.998   1
   2  -7   9 466.922 191.876   1
  -2   6  12 1848.53 456.700   5
   2  -6 -12 1419.86 372.043   4
  -2   6  11 389.657 199.088   5
   2  -6 -11-9.68885 75.6731   4
  -2   6  10 4884.93 682.756   5
   2  -6 -10 5220.24 722.016   4
  -2   6   9 45.4069 59.2980   5
   2  -6  -9 61.9902 100.912   4
   2  -6  -8 12109.8 1055.67   4
  -2   6   8 13295.0 1044.62   5
   2  -6  -7 5185.58 661.972   4
  -2   6   7 6067.26 656.679   5
   2  -6  -6 11697.6 966.402   3
  -2   6   6 13058.5 930.041   5
   2  -6  -6 11875.5 1139.13   5
  -2   6   5 1723.62 309.301   5
  -2   6   5 1419.68 423.980   7
   2  -6  -5 938.932 509.704   2
   2  -6  -5 1389.88 353.049   5
   2  -6  -5 1387.00 338.826   3
   2  -6  -4 7229.72 764.656   5
  -2   6   4 7792.20 1266.34   2
   2  -6  -4 7691.89 827.616   3
   2  -6  -4 5802.07 1202.19   2
   2  -6  -4 7570.19 387.831   6
  -2   6   4 8998.57 1042.00   7
  -2   6   4 7580.24 627.891   5
  -2   6   3 678.125 178.018   5
   2  -6  -3-132.211 367.345   2
  -2   6   3 858.031 346.353   7
  -2   6   3 929.077 374.042   2
   2  -6  -3 1054.54 339.921   3
   2  -6  -3 448.500 108.215   6
  -2   6   2 9428.47 1065.36   2
  -2   6   2 10338.6 1046.06   7
   2  -6  -2 6042.35 1130.76   2
   2  -6  -2 8063.12 556.143   6
   2  -6  -2 9100.16 973.163   3
  -2   6   2 7699.11 532.523   5
  -2   6   1 1497.77 383.752   7
   2  -6  -1 1436.21 382.691   3
  -2   6   1 1074.61 167.804   5
   2  -6  -1 379.886 162.950   2
   2  -6  -1 962.750 211.780   6
   2  -6   0 27201.1 1499.42   7
  -2   6   0 30537.1 1802.18   7
   2  -6   0 26416.6 1344.18   6
   2  -6   0 30817.1 1935.57   3
  -2   6   0 29054.4 851.840   5
   2  -6   1 2268.50 554.520   2
   2  -6   1 3112.22 389.905   4
   2  -6   1 2429.52 437.011   7
   2  -6   1 3424.37 625.477   3
   2  -6   1 2713.52 436.188   6
  -2   6  -1 2310.11 470.101   7
  -2   6  -1 3016.71 423.203   2
   2  -6   2 8219.53 962.093   2
   2  -6   2 9026.81 847.704   6
   2  -6   2 8609.37 651.425   4
  -2   6  -2 10029.4 1006.35   7
   2  -6   2 8468.75 745.435   1
   2  -6   3 328.987 164.497   6
  -2   6  -3 269.154 149.764   7
   2  -6   3 38.7971 158.287   2
   2  -6   3 28.9723 48.5983   1
   2  -6   3 211.868 101.165   4
   2  -6   4 13959.7 1044.78   2
  -2   6  -4 14005.4 1222.39   7
   2  -6   4 12611.3 904.367   1
   2  -6   4 13916.7 830.820   4
   2  -6   5 19.4110 44.9013   2
   2  -6   5 2.12649 46.5761   1
   2  -6   5 14.6625 27.4305   4
   2  -6   6 2442.70 365.457   2
   2  -6   6 2827.59 364.462   4
   2  -6   6 2710.93 421.090   1
   2  -6   7 123.322 50.9083   4
   2  -6   7 203.382 109.300   2
   2  -6   7 279.847 153.414   1
   2  -6   8 749.466 204.445   1
  -2   6  -8 1274.05 381.764   4
  -2   6  -9 204.744 217.517   4
   2  -6   9 122.262 104.801   1
  -2   6 -10 9084.11 1168.46   4
  -2   6 -11 1040.85 416.587   4
  -2   6 -12 935.713 450.312   4
   2  -5 -12 3649.64 628.122   4
  -2   5  12 3418.52 600.647   5
   2  -5 -11 909.986 310.018   4
  -2   5  11 1008.21 316.608   5
   2  -5 -10 6774.74 825.165   4
  -2   5  10 7734.59 844.369   5
  -2   5   9 103.403 115.874   5
   2  -5  -9 60.6831 44.3352   6
   2  -5  -9 51.2619 35.4819   3
   2  -5  -8 18356.3 956.240   3
   2  -5  -8 18822.2 1331.34   4
   2  -5  -8 20633.6 688.158   6
  -2   5   8 20348.5 1331.86   5
   2  -5  -7 12403.9 460.398   6
   2  -5  -7 11710.8 1035.38   4
   2  -5  -7 11611.8 803.750   3
  -2   5   7 13853.8 1030.27   5
   2  -5  -6 3012.74 202.823   6
   2  -5  -6 2191.70 838.216   2
   2  -5  -6 2477.52 385.913   3
  -2   5   6 3799.81 501.142   5
   2  -5  -6 3302.73 585.192   5
  -2   5   5 7572.76 1345.70   2
   2  -5  -5 4915.02 1133.10   2
   2  -5  -5 5736.63 331.739   6
  -2   5   5 6787.05 635.674   5
   2  -5  -5 5759.05 720.318   5
  -2   5   4 46752.2 3081.42   2
  -2   5   4 42850.9 2221.12   7
  -2   5   4 42932.2 1700.98   5
   2  -5  -4 41460.0 1989.97   5
   2  -5  -4 39591.2 1144.48   6
   2  -5  -3 7065.56 387.854   6
  -2   5   3 7328.61 802.647   7
  -2   5   3 8329.21 1097.85   2
  -2   5   3 7283.73 564.925   5
   2  -5  -2 118393. 3919.66   3
   2  -5  -2 110384. 2905.14   6
  -2   5   2 120984. 3928.33   7
  -2   5   2 107212. 3023.90   5
  -2   5   1 11132.5 549.958   5
  -2   5   1 11687.4 970.272   7
   2  -5  -1 10772.5 623.739   6
   2  -5  -1 12238.0 1069.40   3
   2  -5   0 20956.8 1708.20   2
  -2   5   0 24619.0 1467.86   7
  -2   5   0 24988.2 1354.45   2
   2  -5   0 21318.0 1225.43   7
   2  -5   0 21574.4 1029.72   6
   2  -5   0 25993.7 1622.26   3
  -2   5   0 23886.8 761.535   5
   2  -5   1 8575.22 940.365   2
  -2   5  -1 8519.41 702.196   2
   2  -5   1 8182.33 645.470   4
   2  -5   1 8023.70 736.429   7
  -2   5  -1 8070.02 808.381   7
   2  -5   1 7982.09 648.868   6
  -2   5  -2 72228.6 2840.91   7
   2  -5   2 67622.0 2684.32   2
   2  -5   2 68247.8 2678.07   7
   2  -5   2 60079.1 2412.44   6
   2  -5   2 67314.7 2303.37   4
   2  -5   3-105.365 94.6247   6
   2  -5   3 45.2600 43.7889   4
  -2   5  -3-74.3770 140.073   7
   2  -5   3 15.8878 112.352   7
   2  -5   3 42.5795 84.4567   2
   2  -5   3-42.3884 93.2417   3
   2  -5   3-51.3729 49.7618   1
   2  -5   4 17351.5 1011.77   2
   2  -5   4 16522.6 913.582   4
   2  -5   4 17751.6 1297.31   7
  -2   5  -4 17287.5 1275.61   7
   2  -5   4 18857.0 1457.13   3
   2  -5   4 14150.3 1146.27   6
   2  -5   4 16069.1 962.814   1
   2  -5   5 181.076 98.8063   4
   2  -5   5 60.3130 70.6027   2
   2  -5   5 124.344 114.618   1
   2  -5   6 9513.18 722.878   2
  -2   5  -6 9961.75 934.464   4
   2  -5   6 10613.5 722.551   4
   2  -5   6 11485.7 791.198   1
   2  -5   6 9992.32 459.564   5
   2  -5   7 113.602 112.149   1
  -2   5  -7 94.8596 117.129   4
   2  -5   7 125.871 128.362   2
   2  -5   7 181.443 93.5099   4
   2  -5   7 52.9606 52.3839   5
  -2   5  -8 29566.2 1867.76   4
   2  -5   8 27594.7 1404.27   2
   2  -5   8 23886.1 1240.78   1
   2  -5   8 27778.2 1183.67   5
   2  -5   9 170.125 95.8713   1
  -2   5  -9 45.2863 109.880   4
   2  -5   9 142.980 76.9092   5
   2  -5   9 252.016 152.587   2
  -2   5 -10 3525.34 703.512   4
   2  -5  10 2895.98 391.973   1
  -2   5 -11-26.9976 60.9875   4
  -2   5 -12 529.631 366.137   4
   2  -4 -12 3849.42 645.431   4
  -2   4  12 4163.62 654.865   5
   2  -4 -11 59.4750 93.3800   4
  -2   4  11-122.760 134.242   5
  -2   4  10 6150.27 769.789   5
   2  -4 -10 5081.17 686.512   4
   2  -4 -10 5587.55 474.592   6
   2  -4 -10 5135.02 518.982   1
   2  -4  -9 4425.82 629.405   4
   2  -4  -9 4239.95 401.593   6
  -2   4   9 4248.33 621.348   5
   2  -4  -9 4075.61 447.962   1
   2  -4  -8 6702.72 763.892   4
   2  -4  -8 6586.55 375.893   3
  -2   4   8 7533.94 804.913   5
   2  -4  -8 7240.30 519.740   6
   2  -4  -8 6011.28 534.404   1
  -2   4   7 890.657 273.274   5
   2  -4  -7 202.054 213.456   2
   2  -4  -7 1233.78 347.015   4
   2  -4  -7 928.502 169.183   3
   2  -4  -7 740.911 152.301   6
  -2   4   6 45606.8 3597.64   2
   2  -4  -6 43568.0 1614.78   3
   2  -4  -6 41260.1 1472.18   6
  -2   4   6 44752.2 2057.12   5
   2  -4  -6 47476.5 2360.69   5
   2  -4  -6 38896.6 3232.92   2
   2  -4  -5 98.2032 378.407   2
  -2   4   5-158.161 286.853   2
  -2   4   5 309.967 176.824   5
   2  -4  -5 238.403 88.8095   6
   2  -4  -5 340.900 129.221   3
   2  -4  -4 97721.0 3090.36   3
  -2   4   4 98148.0 3229.06   5
  -2   4   3 20645.7 1717.78   2
  -2   4   3 19792.9 1236.58   7
  -2   4   3 19134.4 1084.12   5
   2  -4  -3 19058.3 1131.16   3
   2  -4  -3 16393.6 1771.51   2
  -2   4   2 123153. 3734.40   7
   2  -4  -2 120465. 3748.98   3
  -2   4   2 111663. 3339.08   5
   2  -4  -1 3799.81 831.556   2
  -2   4   1 4753.59 590.689   2
  -2   4   1 4932.72 553.361   7
   2  -4  -1 3989.42 326.574   6
  -2   4   1 4196.42 397.439   5
  -2   4   1 4803.26 705.925   3
  -2   4   0 17141.3 1265.48   3
   2  -4   0 15809.1 1258.76   2
  -2   4   0 17522.6 1047.84   2
   2  -4   0 14933.5 736.471   6
   2  -4   0 14893.3 911.501   7
  -2   4   0 16705.8 1071.28   7
  -2   4   0 15095.4 608.407   5
   2  -4   1 3260.97 482.039   2
  -2   4  -1 2869.63 376.487   2
   2  -4   1 2811.70 325.563   6
  -2   4  -1 3476.70 547.595   3
  -2   4  -1 3323.56 454.743   7
   2  -4   1 2728.09 380.602   7
   2  -4   2 73362.2 2534.66   2
   2  -4   2 73491.1 2666.37   7
  -2   4  -2 78423.0 3172.50   3
   2  -4   2 71601.8 2395.23   4
  -2   4  -2 77235.5 2762.02   7
   2  -4   3 62.5965 79.0224   4
  -2   4  -3 68.6524 96.5925   7
   2  -4   3 16.1058 62.7885   2
   2  -4   3-166.433 184.869   7
   2  -4   3 11.2940 72.1946   6
  -2   4  -3-38.2528 72.3565   3
   2  -4   4 107214. 3208.41   2
   2  -4   4 105846. 3157.10   4
  -2   4  -4 111877. 4161.64   3
   2  -4   4 96004.2 3424.93   6
   2  -4   4 122182. 4016.56   3
  -2   4  -4 110716. 3621.59   7
   2  -4   4 113068. 3730.48   7
   2  -4   4 104428. 3129.86   1
  -2   4  -5-89.0671 86.5905   4
   2  -4   5 28.3324 45.6798   4
   2  -4   5-8.85767 83.7762   7
   2  -4   5 166.879 140.205   6
  -2   4  -5 120.376 82.2427   3
   2  -4   5 49.7280 78.6519   2
   2  -4   5 67.9668 71.9152   1
   2  -4   5 48.1494 41.7588   5
   2  -4   5 143.202 137.560   3
  -2   4  -6 108990. 3790.81   4
   2  -4   6 113958. 3495.13   2
   2  -4   6 113624. 3326.91   4
   2  -4   6 112793. 3007.33   5
   2  -4   6 121091. 3292.72   1
   2  -4   6 106247. 3916.42   3
  -2   4  -6 100671. 4240.34   3
   2  -4   7 44.2342 75.7741   1
  -2   4  -7 141.452 169.542   4
   2  -4   7-9.45166 35.7948   5
  -2   4  -7 169.096 167.236   3
   2  -4   7-55.8477 128.429   2
   2  -4   7 82.6834 111.436   3
   2  -4   7 80.2752 74.2886   4
   2  -4   8 1447.63 249.550   1
  -2   4  -8 1540.15 387.922   4
   2  -4   8 1630.20 270.971   5
   2  -4   8 2456.42 497.367   2
  -2   4  -8 1392.80 417.851   3
  -2   4  -9-12.2536 75.9566   4
   2  -4   9 85.3845 79.3087   1
   2  -4   9 188.987 104.018   5
  -2   4 -10 9440.23 1158.53   4
   2  -4  10 6920.81 548.494   1
   2  -4  10 8258.89 735.781   5
   2  -4  11 0.54624 78.8764   5
  -2   4 -11 3.59069 65.3702   4
  -2   4 -12 1749.88 587.711   4
  -2   4 -13-169.272 198.036   4
  -2   3  13 170.189 138.065   5
   2  -3 -13-89.6146 87.9000   4
  -2   3  12 1614.69 422.351   5
   2  -3 -12 1658.24 311.832   6
   2  -3 -12 1993.63 472.837   4
  -2   3  11 706.229 276.897   5
   2  -3 -11 432.704 157.354   6
   2  -3 -11 487.195 227.351   4
  -2   3  10 605.174 262.553   5
   2  -3 -10 716.295 356.556   4
   2  -3 -10 624.555 182.538   6
   2  -3  -9 6579.25 607.652   6
   2  -3  -9 7542.21 819.496   4
  -2   3   9 7003.80 847.384   5
   2  -3  -8 56040.0 2443.57   4
   2  -3  -8 54978.2 2040.75   6
  -2   3   8 55004.0 2569.45   5
   2  -3  -7 3944.40 1034.02   2
   2  -3  -7 4491.55 595.983   4
   2  -3  -7 4458.80 476.576   6
  -2   3   7 4066.11 1059.84   2
  -2   3   7 4845.32 685.147   5
  -2   3   6 29664.2 2755.77   2
   2  -3  -6 30216.9 1019.98   3
   2  -3  -6 29835.9 1304.39   6
  -2   3   6 28983.1 1703.23   5
  -2   3   5 1275.20 349.656   5
   2  -3  -5 1573.24 649.098   2
   2  -3  -5 1088.20 240.089   6
   2  -3  -5 880.218 169.836   3
  -2   3   4 6186.72 693.901   5
   2  -3  -4 6385.01 501.868   3
   2  -3  -4 5787.00 1046.04   2
  -2   3   3 74.9109 99.0565   5
   2  -3  -3 145.086 84.4840   3
   2  -3  -2 11845.9 1277.53   2
   2  -3  -2 12977.3 831.641   3
  -2   3   2 12821.9 904.297   3
  -2   3   2 14854.8 888.186   7
  -2   3   2 12827.9 880.817   5
  -2   3   1 1647.25 272.322   7
  -2   3   1 1416.97 246.753   5
  -2   3   1 1484.40 297.535   3
  -2   3   1 2176.93 375.215   2
   2  -3  -1 1923.51 453.320   2
   2  -3  -1 1653.58 295.356   3
  -2   3   0 119414. 3587.81   2
   2  -3   0 113375. 3332.29   7
  -2   3   0 122093. 3814.80   3
   2  -3   0 125378. 3741.87   3
   2  -3   0 118655. 3790.39   2
  -2   3   0 125737. 3537.56   7
  -2   3   0 117474. 3179.32   5
  -2   3  -1 1391.25 154.532   5
  -2   3  -1 1161.29 127.216   5
  -2   3  -1 1483.77 268.651   7
   2  -3   1 1438.43 270.087   2
   2  -3   1 1115.02 179.653   6
  -2   3  -1 1579.27 348.089   3
  -2   3  -1 1316.63 244.366   2
   2  -3   1 1020.84 204.902   7
  -2   3  -2 139819. 4394.69   3
   2  -3   2 132153. 3768.94   2
   2  -3   2 131188. 3750.10   4
   2  -3   2 127852. 3876.06   7
   2  -3   2 123857. 3589.52   6
  -2   3  -2 140848. 3993.83   7
  -2   3  -3-4.08124 31.7919   5
   2  -3   3-17.4284 38.4536   4
  -2   3  -3-86.2896 37.0265   7
   2  -3   3-3.80914 77.5559   2
   2  -3   3-16.5465 29.8525   6
  -2   3  -4 576351. 13686.4   4
   2  -3   4 573042. 13460.0   2
  -2   3  -4 575863. 14310.8   3
   2  -3   4 581193. 13975.0   3
   2  -3   4 537669. 13308.0   4
   2  -3   4 549912. 12848.9   5
  -2   3  -5-11.9869 68.6897   5
  -2   3  -5-163.076 132.802   4
   2  -3   5-90.7996 84.9077   4
   2  -3   5-78.4672 85.4892   1
  -2   3  -5-278.062 242.791   3
   2  -3   5-138.121 124.859   2
   2  -3   5 71.7590 103.094   3
   2  -3   5 107.000 75.9091   5
   2  -3   6 1222.84 202.225   5
  -2   3  -6 1165.92 249.836   5
   2  -3   6 1204.66 194.918   1
   2  -3   6 1105.61 282.002   3
   2  -3   6 1598.12 266.778   4
  -2   3  -6 1513.75 337.827   4
   2  -3   6 1624.82 340.535   6
   2  -3   6 1458.64 366.572   7
  -2   3  -6 1420.27 375.671   3
   2  -3   7 31.7350 41.2416   5
  -2   3  -7-14.2691 58.1670   5
   2  -3   7 290.304 141.284   4
  -2   3  -7 37.2636 116.309   4
   2  -3   7 74.2127 89.1260   1
  -2   3  -7-27.3999 140.419   3
   2  -3   7 22.3055 47.2329   3
   2  -3   8 19051.4 1079.21   4
  -2   3  -8 18467.7 1471.26   3
   2  -3   8 17413.2 836.674   1
   2  -3   8 18109.6 1218.58   3
   2  -3   8 19653.1 1070.91   5
  -2   3  -8 21706.8 1531.77   4
  -2   3  -9 236.474 123.966   5
  -2   3  -9-63.7931 156.942   4
   2  -3   9-36.9224 51.5956   1
   2  -3   9-23.5313 62.4281   5
  -2   3  -9 168.480 172.358   3
   2  -3   9-41.8239 79.6760   3
  -2   3 -10 21373.4 1755.28   4
   2  -3  10 17227.5 1183.43   3
   2  -3  10 17763.9 833.845   1
  -2   3 -10 17486.2 1464.74   3
   2  -3  10 19938.0 1212.93   5
  -2   3 -11 331.091 253.689   4
   2  -3  11 196.548 115.242   5
  -2   3 -12 3809.30 854.056   4
   2  -3  12 2761.96 484.680   5
  -2   3 -13 233.763 218.364   4
  -2   2  13 214.815 185.321   5
   2  -2 -13-48.7035 60.9291   6
   2  -2 -12 3491.79 619.470   4
   2  -2 -12 2599.26 428.537   6
  -2   2  12 3493.97 610.414   5
  -2   2  11 1523.41 399.801   5
   2  -2 -11 1478.35 383.020   4
   2  -2 -11 1118.80 272.322   6
   2  -2 -10 12564.4 1126.03   4
   2  -2 -10 12113.0 936.213   6
  -2   2  10 12771.8 1193.11   5
   2  -2  -9 1926.58 425.401   4
   2  -2  -9 1977.40 356.027   6
  -2   2   9 1843.57 436.449   5
  -2   2   8 1008.99 346.997   5
   2  -2  -8 610.217 208.110   6
   2  -2  -8 816.649 280.918   4
   2  -2  -8 432.919 133.966   1
  -2   2   7 378.811 205.577   5
   2  -2  -7 1072.21 557.887   2
  -2   2   7 400.622 294.551   2
   2  -2  -7 552.516 254.177   4
   2  -2  -7 446.036 147.413   1
   2  -2  -7 287.790 115.014   6
   2  -2  -6 5560.24 1122.60   2
  -2   2   6 6303.87 1141.44   2
   2  -2  -6 6388.40 595.317   6
  -2   2   6 7038.06 831.842   5
   2  -2  -6 5596.16 483.315   1
  -2   2   5 1.90804 112.922   5
   2  -2  -5-106.783 287.816   2
   2  -2  -5 167.850 97.6954   6
   2  -2  -5 60.1069 43.2621   1
  -2   2   4 9541.55 875.768   5
   2  -2  -4 9013.65 469.748   3
   2  -2  -3 11947.9 1343.58   2
   2  -2  -3 10827.1 587.735   3
  -2   2   3 12133.7 713.705   3
  -2   2   3 11719.6 933.075   5
  -2   2   2 217155. 5697.97   5
  -2   2   2 213422. 5506.53   3
   2  -2  -2 213504. 6562.17   2
   2  -2  -2 211727. 5333.13   3
   2  -2  -1 28866.9 1514.52   2
  -2   2   1 29785.2 1438.52   2
  -2   2   1 29123.2 1125.08   7
  -2   2   1 28280.8 1276.63   3
   2  -2  -1 27421.4 1185.71   3
   2  -2   0 94319.7 2949.75   2
  -2   2   0 98821.8 2920.38   2
   2  -2   0 87321.8 2561.55   7
  -2   2   0 97412.9 2694.32   7
   2  -2   0 94269.2 2852.22   3
  -2   2   0 98278.2 2987.38   3
  -2   2  -1 1049.90 191.612   7
   2  -2   1 1015.66 178.271   7
  -2   2  -1 1005.71 137.368   5
  -2   2  -1 1072.76 212.644   3
  -2   2  -1 943.485 199.837   2
   2  -2   1 1151.67 193.955   2
  -2   2  -2 1228.39 261.953   3
   2  -2   2 1137.90 209.109   4
  -2   2  -2 1129.22 210.694   7
   2  -2   2 997.487 195.176   7
   2  -2   2 1130.32 200.971   2
  -2   2  -2 1098.78 128.852   5
  -2   2  -3 361.079 197.078   3
   2  -2   3 469.481 134.142   4
   2  -2   3 193.621 112.130   7
  -2   2  -3 255.182 59.5789   5
   2  -2   3 267.215 95.1647   2
   2  -2   3 320.180 75.2839   5
   2  -2   4 26810.2 977.972   5
  -2   2  -4 27685.8 1326.35   4
   2  -2   4 25815.7 1317.40   3
  -2   2  -4 27330.0 1496.58   3
  -2   2  -4 26382.1 912.267   5
   2  -2   4 25396.3 1153.76   4
   2  -2   5 121.186 82.2673   4
   2  -2   5-73.5572 74.1537   5
  -2   2  -5 113.695 79.9800   5
  -2   2  -5-143.689 119.324   4
  -2   2  -5 246.967 175.830   3
   2  -2   5-36.1963 94.5381   3
  -2   2  -6 206568. 5814.64   4
   2  -2   6 212642. 5318.40   4
  -2   2  -6 203739. 5984.33   3
   2  -2   6 206330. 5218.10   5
   2  -2   6 216959. 4975.98   1
   2  -2   7-30.0177 34.6608   5
  -2   2  -7-32.2930 75.0058   5
   2  -2   7 2.63287 58.9306   3
  -2   2  -7-2.27077 52.3535   4
   2  -2   7 104.843 104.135   4
   2  -2   7-4.35931 71.1514   6
  -2   2  -7 21.7845 123.461   3
   2  -2   7 46.3606 43.2314   7
   2  -2   7 5.61274 48.0802   1
   2  -2   8 28045.2 1334.70   4
  -2   2  -8 27578.7 1693.33   3
   2  -2   8 26031.3 963.416   1
   2  -2   8 27129.9 1406.61   3
   2  -2   8 30563.9 1409.20   5
  -2   2  -9-107.099 163.062   5
   2  -2   9 77.1748 95.5060   5
   2  -2   9 110.051 52.4640   1
  -2   2  -9-145.981 160.116   4
  -2   2  -9-35.6034 79.3817   3
   2  -2   9 279.330 134.219   3
  -2   2 -10 13463.1 1365.03   4
   2  -2  10 10932.5 497.918   1
  -2   2 -10 11572.6 1095.01   3
  -2   2 -10 11531.8 1119.97   5
   2  -2  10 10954.3 848.370   3
   2  -2  10 13313.4 997.316   5
   2  -2  11 951.850 276.288   5
  -2   2 -11 792.297 349.509   4
  -2   2 -11 710.795 304.152   3
  -2   2 -12 13995.1 1618.17   4
   2  -2  12 12253.3 1084.77   5
   2  -2  13 109.406 89.7960   5
  -2   2 -13-77.4741 131.849   4
   2  -2  14 403.367 216.579   5
   2  -1 -13 65.9139 86.9722   6
  -2   1  13 130.333 175.906   5
   2  -1 -12 8536.17 1017.10   4
   2  -1 -12 7479.55 806.259   6
  -2   1  12 8658.76 1004.49   5
  -2   1  11 879.664 326.606   5
   2  -1 -11 1154.47 288.900   6
   2  -1 -11 1048.55 335.932   4
  -2   1  10 431.845 203.487   5
   2  -1 -10 310.061 148.824   6
   2  -1 -10 610.300 297.317   4
   2  -1 -10 499.068 215.143   1
  -2   1   9 74.3297 105.698   5
   2  -1  -9-24.1055 89.7628   6
   2  -1  -9 5.81169 52.2904   1
   2  -1  -9 130.443 114.850   4
  -2   1   8 13681.6 1908.71   2
   2  -1  -8 15774.1 966.949   1
   2  -1  -8 16245.0 1194.12   4
   2  -1  -8 14737.5 1095.84   6
  -2   1   8 13973.1 1298.33   5
   2  -1  -7 2292.81 343.395   1
  -2   1   7 2222.11 705.043   2
   2  -1  -7 1614.54 320.361   6
   2  -1  -7 1598.36 645.747   2
  -2   1   7 1291.75 371.450   5
   2  -1  -7 2431.24 441.448   4
  -2   1   6 80577.2 4262.59   2
   2  -1  -6 83891.4 2519.11   1
   2  -1  -6 73862.4 2804.38   4
   2  -1  -6 72616.0 2727.09   6
  -2   1   6 70312.3 3117.74   5
   2  -1  -5 1808.74 268.002   1
   2  -1  -5 1277.08 460.387   2
  -2   1   5 2199.84 610.057   2
  -2   1   5 1140.05 309.457   5
   2  -1  -5 1603.49 319.883   6
  -2   1   4 20269.5 726.517   3
   2  -1  -4 22039.3 1143.52   6
  -2   1   4 20543.1 1299.35   5
   2  -1  -4 21063.3 974.983   1
  -2   1   3 76106.7 2078.72   3
   2  -1  -3 69952.0 3301.75   2
  -2   1   3 76626.5 2694.04   5
   2  -1  -3 75965.5 2249.69   1
   2  -1  -2 43763.5 2104.03   2
   2  -1  -2 43466.7 1338.37   3
  -2   1   2 43707.4 1394.18   3
   2  -1  -2 41816.4 1431.27   1
   2  -1  -1 2352.29 264.039   3
  -2   1   1 1969.78 187.781   7
   2  -1  -1 1919.60 311.075   2
  -2   1   1 1833.55 233.072   3
   2  -1   0 3157.09 393.228   2
   2  -1   0 1330.34 156.947   7
  -2   1   0 10577.8 713.594   3
  -2   1   0 1414.93 163.447   7
   2  -1   1 268.438 73.2103   7
  -2   1  -1 481.597 106.914   7
   2  -1   1 380.191 127.697   2
  -2   1  -1 347.603 96.1474   5
  -2   1  -1 399.091 116.700   2
  -2   1  -1 437.621 143.953   3
   2  -1   2 179.704 54.9329   4
   2  -1   2 316.390 97.4903   7
   2  -1   2 445.557 135.091   2
   2  -1   2 328.077 84.8257   5
  -2   1  -2 289.549 81.1406   5
  -2   1  -3 381.277 85.3135   5
  -2   1  -3 326.569 98.7733   4
   2  -1   3 394.426 114.364   4
   2  -1   3 353.804 116.871   7
  -2   1  -3 275.082 122.219   3
   2  -1   3 319.918 104.202   3
   2  -1   3 338.092 76.6655   5
   2  -1   4 39004.2 1567.96   3
  -2   1  -4 42949.6 1690.81   4
  -2   1  -4 40579.6 1287.49   5
  -2   1  -4 42468.0 1789.92   3
   2  -1   4 42593.3 1409.68   5
   2  -1   5-48.0252 67.9954   5
  -2   1  -5 9.18073 37.4753   5
  -2   1  -5 33.4342 55.4490   4
   2  -1   5 42.3378 34.1106   3
  -2   1  -5 15.7475 73.4591   3
  -2   1  -6 104867. 3374.01   4
   2  -1   6 105690. 2992.31   4
  -2   1  -6 99335.0 3376.69   3
   2  -1   6 93218.3 3018.93   3
   2  -1   6 102507. 2990.53   5
  -2   1  -6 99567.7 2976.65   5
   2  -1   7 73.6318 49.6734   5
   2  -1   7 39.0802 39.6211   6
  -2   1  -7 186.165 150.740   4
   2  -1   7 104.646 52.0826   1
   2  -1   7 267.958 124.050   4
   2  -1   7 236.045 112.595   3
  -2   1  -8 6001.73 747.324   4
   2  -1   8 5524.89 291.121   1
   2  -1   8 5658.79 542.046   4
   2  -1   8 5691.03 662.458   6
  -2   1  -8 6851.28 731.357   3
   2  -1   8 6951.60 641.098   5
  -2   1  -8 5904.07 683.776   5
   2  -1   9 775.737 238.317   5
  -2   1  -9 146.552 140.868   5
  -2   1  -9 555.023 227.977   4
   2  -1   9 460.579 61.7581   1
  -2   1  -9 350.495 176.191   3
   2  -1   9 448.427 60.8888   1
  -2   1 -10 25973.6 1901.88   4
  -2   1 -10 21973.2 1457.42   3
   2  -1  10 23572.6 1402.26   5
  -2   1 -10 21789.5 1606.65   5
   2  -1  11 242.451 170.044   5
  -2   1 -11 156.625 140.132   3
  -2   1 -11 296.118 159.950   4
  -2   1 -12 4494.23 643.951   3
  -2   1 -12 5551.44 1005.18   4
   2  -1  12 4236.25 627.142   5
   2  -1  13 1182.83 349.314   5
  -2   1 -13 1756.65 616.086   4
   2  -1  14 2316.05 525.528   5
  -2   1 -14 2598.14 792.367   4
   2  -1  15-15.8735 100.819   5
   2   0 -14 853.481 291.255   6
  -2   0  13 303.042 193.238   5
   2   0 -13 806.210 344.476   4
   2   0 -13 710.040 261.082   6
  -2   0  12 2180.96 503.433   5
   2   0 -12 2659.99 571.863   4
   2   0 -12 1883.59 426.161   6
   2   0 -11 41.9800 60.8365   4
  -2   0  11 145.298 94.8305   5
   2   0 -11 232.174 184.357   6
   2   0 -10 26170.4 1683.18   4
   2   0 -10 21483.7 1492.12   6
  -2   0  10 21877.6 1685.39   5
  -2   0   9 1031.70 352.822   5
   2   0  -9 1655.29 385.522   4
   2   0  -9 1360.66 341.309   6
  -2   0   8 12135.6 1225.17   5
   2   0  -8 9407.43 762.664   1
   2   0  -8 14988.2 1145.30   4
   2   0  -8 13122.7 1084.92   6
  -2   0   8 12237.1 1659.19   2
  -2   0   7 24.0817 186.091   5
  -2   0   7 146.434 297.440   2
   2   0  -7-35.7128 82.6502   6
   2   0  -7-40.2385 110.357   1
   2   0  -7 168.484 143.926   4
   2   0  -6 17846.6 1029.44   1
   2   0  -6 21506.2 1295.84   4
  -2   0   6 19317.4 1449.56   5
   2   0  -6 19858.9 1273.80   6
   2   0  -6 16449.2 1813.29   2
  -2   0   5 15599.6 1435.13   2
   2   0  -5 14629.9 862.342   1
  -2   0   5 13725.4 1113.84   5
   2   0  -5 13608.1 1013.75   6
  -2   0   5 14789.4 748.297   1
   2   0  -5 11896.3 1461.21   2
  -2   0   4 111584. 3954.01   2
   2   0  -4 111105. 3041.53   1
   2   0  -4 99805.2 3292.71   6
  -2   0   4 103035. 2810.35   1
  -2   0   4 97332.2 3390.20   5
  -2   0   4 97278.1 2423.57   3
   2   0  -3 212.619 88.9094   1
   2   0  -3 2.22091 178.483   2
  -2   0   3 230.876 77.9119   3
  -2   0   3 144.435 91.4231   1
   2   0  -2 331.983 106.000   1
  -2   0   2 470.950 158.140   2
  -2   0   2 492.967 140.504   1
  -2   0   1 837.333 173.520   2
   2   0  -1 890.057 162.344   1
   2   0  -1 793.740 178.468   2
  -2   0   1 1041.34 168.343   1
   2   0   0 282369. 6958.40   2
  -2   0   0 290372. 6868.21   3
  -2   0   0 290708. 6846.81   1
   2   0   1 2494.41 259.446   1
   2   0   1 2429.18 283.164   2
  -2   0  -1 2072.60 239.606   5
  -2   0  -2 1436.10 278.521   3
   2   0   2 1644.24 199.836   1
   2   0   2 606.949 136.378   5
  -2   0  -2 516.736 119.514   5
  -2   0  -3 245.488 71.0044   5
  -2   0  -3 140.005 49.9475   4
  -2   0  -3 163.657 66.2712   3
   2   0   3 393.633 86.9261   1
   2   0   3 346.183 102.182   5
  -2   0  -4 100104. 2954.27   4
   2   0   4 96875.7 2741.56   5
  -2   0  -4 96187.4 2615.35   5
   2   0   4 90694.8 2397.03   1
  -2   0  -4 101041. 2977.97   3
   2   0   5 3021.09 340.562   5
   2   0   5 2425.89 282.549   6
  -2   0  -5 2998.02 401.382   3
  -2   0  -5 3072.05 295.051   5
   2   0   5 2575.93 196.815   1
  -2   0  -5 3207.58 411.512   4
  -2   0  -6 53538.5 2180.90   4
  -2   0  -6 55749.3 2119.54   3
  -2   0  -6 56135.9 1851.80   5
   2   0   6 53702.3 1962.53   5
   2   0   6 56587.8 1444.72   1
   2   0   7 1362.59 269.015   5
   2   0   7 1175.65 90.6525   1
  -2   0  -7 1447.72 332.639   4
   2   0   7 1246.97 87.9810   1
   2   0   7 1413.01 264.751   6
  -2   0  -7 1435.11 299.458   3
   2   0   8 9093.59 690.135   4
  -2   0  -8 10061.3 960.878   4
   2   0   8 8626.46 756.523   6
  -2   0  -8 8533.14 768.351   3
   2   0   8 9470.47 778.385   5
  -2   0  -8 8187.49 763.007   5
   2   0   9 2220.34 408.936   6
  -2   0  -9 2456.65 461.296   5
  -2   0  -9 2520.15 414.874   3
  -2   0  -9 2690.37 524.642   4
   2   0   9 2637.48 434.037   5
   2   0  10 517.697 195.368   5
  -2   0 -10-90.9564 203.026   4
  -2   0 -10 470.873 192.909   3
   2   0  11 89.8084 138.835   5
  -2   0 -11-50.3823 92.6451   3
  -2   0 -11 17.4234 149.490   4
  -2   0 -12 14892.2 1636.14   4
  -2   0 -12 12170.6 1009.16   3
   2   0  12 12903.0 1147.56   5
   2   0  13 319.978 194.793   5
  -2   0 -13 358.481 138.580   4
   2   0  14 2067.55 502.449   5
  -2   0 -14 2614.77 771.583   4
   2   0  15 97.7015 78.9221   5
  -2  -1  13 123.226 87.0896   5
   2   1 -13 132.665 120.730   4
   2   1 -13-88.2129 161.071   6
   2   1 -12 8830.47 1096.20   4
   2   1 -12 7482.13 897.758   6
  -2  -1  12 6607.16 910.151   5
   2   1 -11 5681.96 828.772   4
   2   1 -11 4477.80 682.408   6
  -2  -1  11 3697.76 687.827   5
   2   1 -10 4168.30 637.848   4
   2   1 -10 3738.43 620.354   6
  -2  -1  10 3954.26 715.087   5
  -2  -1   9 2924.71 599.367   5
   2   1  -9 2668.12 517.270   6
  -2  -1   9 3408.37 840.026   2
   2   1  -9 3186.51 541.123   4
  -2  -1   8 6382.43 1079.01   2
   2   1  -8 8257.74 834.443   4
   2   1  -8 7819.04 874.589   6
  -2  -1   8 5000.14 791.041   5
  -2  -1   8 6797.65 519.686   1
  -2  -1   7 136.773 87.6953   1
   2   1  -7 335.979 253.622   6
  -2  -1   7 291.356 231.912   2
   2   1  -7 56.3593 145.411   4
  -2  -1   7 20.3290 87.3705   5
  -2  -1   7 58.8175 40.0410   3
  -2  -1   6 129444. 4701.87   2
   2   1  -6 123116. 3808.15   4
   2   1  -6 92264.3 3319.44   1
  -2  -1   6 111999. 2877.34   3
   2   1  -6 122611. 4081.91   6
  -2  -1   6 111095. 4097.54   5
  -2  -1   6 116768. 3201.77   1
   2   1  -6 100665. 4784.20   2
  -2  -1   5 2093.16 412.614   5
  -2  -1   5 2439.16 508.288   2
   2   1  -5 2149.97 397.537   4
   2   1  -5 1496.26 504.971   2
   2   1  -5 2040.03 410.101   6
   2   1  -5 1629.32 287.222   1
  -2  -1   5 2470.08 291.708   1
  -2  -1   4 19050.1 900.656   1
  -2  -1   4 20231.8 1283.42   2
   2   1  -4 14982.5 919.581   1
   2   1  -4 18632.3 1226.10   6
   2   1  -4 13571.5 1372.57   2
  -2  -1   3 4412.13 500.967   2
  -2  -1   3 3857.16 330.107   7
   2   1  -3 4099.60 555.248   6
   2   1  -3 3662.88 413.407   1
   2   1  -3 3335.40 567.330   2
   2   1  -2 64596.5 2342.34   2
  -2  -1   2 69739.1 2227.72   2
   2   1  -2 65530.1 2166.41   1
  -2  -1   2 67324.1 1854.99   7
  -2  -1   1 17441.5 805.267   1
   2   1  -1 14702.4 769.208   2
   2   1  -1 16258.9 805.932   1
  -2  -1   1 15139.9 773.264   2
  -2  -1   1 15148.0 515.918   7
  -2  -1   0 116040. 3107.63   1
   2   1   0 103028. 3033.43   2
  -2  -1  -1 18082.3 794.425   1
   2   1   1 17382.6 772.232   1
   2   1   1 16214.3 821.440   5
  -2  -1  -2 290688. 7021.86   5
   2   1   2 291093. 6856.64   1
   2   1   2 289825. 6976.09   4
  -2  -1  -2 281313. 6913.58   1
  -2  -1  -3 5639.09 456.406   4
   2   1   3 4699.92 384.607   4
   2   1   3 5283.33 336.511   1
   2   1   3 5504.46 446.223   5
  -2  -1  -3 4710.63 396.514   5
  -2  -1  -3 5906.28 382.522   1
   2   1   4 54932.1 1868.79   5
   2   1   4 52544.1 1502.75   1
  -2  -1  -4 54871.6 1922.39   4
  -2  -1  -4 51393.0 1744.84   5
  -2  -1  -5-84.1069 58.5859   5
   2   1   5-53.8029 79.6344   5
  -2  -1  -5-11.0677 63.6664   4
   2   1   5-26.2243 29.2070   1
  -2  -1  -6 27138.3 1422.04   4
   2   1   6 29656.6 770.741   1
   2   1   6 24850.0 1086.29   6
  -2  -1  -6 28419.5 1349.71   3
   2   1   6 26780.6 1292.86   5
  -2  -1  -7 3157.84 493.189   4
  -2  -1  -7 3677.89 473.163   3
   2   1   7 3438.14 433.114   5
  -2  -1  -7 2913.23 366.538   5
  -2  -1  -8 19417.5 1348.29   4
   2   1   8 17703.2 1003.55   4
  -2  -1  -8 18094.9 1112.07   5
   2   1   8 16780.5 1006.24   6
  -2  -1  -8 18753.2 1110.10   3
   2   1   8 18609.9 1173.81   5
   2   1   9 580.157 199.043   5
  -2  -1  -9 748.124 233.105   5
  -2  -1  -9 259.682 122.697   4
   2   1   9 640.613 207.204   6
  -2  -1  -9 705.048 199.458   3
  -2  -1 -10 17523.0 1514.67   4
   2   1  10 14660.3 1162.74   6
  -2  -1 -10 17547.1 1126.46   3
   2   1  10 18188.9 1279.10   5
   2   1  11-2.65087 61.4736   5
  -2  -1 -11 148.897 111.992   3
  -2  -1 -12 7073.09 1106.29   4
  -2  -1 -12 6756.15 700.153   3
   2   1  12 6548.20 833.421   5
   2   1  13 5.00525 79.6818   5
  -2  -1 -13 100.242 133.597   4
   2   1  14 1656.79 453.450   5
  -2  -1 -14 1447.42 590.643   4
   2   1  15 156.840 117.457   5
  -2  -2  13 418.003 241.305   5
   2   2 -13 278.002 179.552   6
   2   2 -12 563.224 231.701   6
  -2  -2  12 833.350 297.128   5
   2   2 -12 1095.99 409.749   4
  -2  -2  11 403.426 198.344   5
   2   2 -11 974.082 288.727   6
   2   2 -11 964.648 355.515   4
   2   2 -10 11082.0 1123.13   4
   2   2 -10 10041.5 1061.87   6
  -2  -2  10 7766.77 1005.93   5
  -2  -2  10 7916.49 589.119   1
  -2  -2   9 3204.36 644.646   5
   2   2  -9 3549.83 579.177   4
   2   2  -9 3756.10 491.314   1
  -2  -2   9 3146.95 240.576   3
  -2  -2   9 3319.46 381.404   1
  -2  -2   9 4307.61 821.671   2
   2   2  -9 3238.43 638.063   6
  -2  -2   8 12258.5 1325.36   2
   2   2  -8 11851.9 1152.92   6
   2   2  -8 12059.5 1041.22   4
  -2  -2   8 10161.9 1156.10   5
   2   2  -8 10765.8 863.409   1
  -2  -2   8 10453.1 586.255   3
  -2  -2   8 12655.0 1117.36   7
  -2  -2   8 10934.5 721.211   1
  -2  -2   7 863.492 317.544   5
  -2  -2   7 1093.83 211.039   1
   2   2  -7 1315.84 393.041   6
  -2  -2   7 1399.21 417.083   2
   2   2  -7 764.443 241.367   4
  -2  -2   7 893.682 183.104   3
  -2  -2   7 1329.47 322.415   7
  -2  -2   6 2823.31 338.460   1
  -2  -2   6 3640.48 589.242   2
  -2  -2   6 2986.73 551.283   5
   2   2  -6 3385.22 507.002   4
  -2  -2   6 2809.66 343.979   3
   2   2  -6 2749.07 528.801   6
   2   2  -5 1333.61 316.062   4
  -2  -2   5 885.152 272.972   5
   2   2  -5 1232.45 461.038   2
  -2  -2   5 1218.52 227.189   1
  -2  -2   5 1109.28 242.560   7
   2   2  -5 1513.11 423.155   6
  -2  -2   5 1034.04 274.438   2
  -2  -2   4 160307. 4242.90   2
   2   2  -4 143147. 4202.36   4
   2   2  -4 122044. 3979.23   1
  -2  -2   4 151382. 4049.23   7
   2   2  -4 142993. 4716.94   6
   2   2  -4 112666. 4757.08   2
  -2  -2   4 147637. 3903.20   1
  -2  -2   3 54076.2 1847.29   2
  -2  -2   3 57180.9 1849.55   1
   2   2  -3 48322.9 1886.05   1
   2   2  -3 44173.7 2209.75   2
   2   2  -3 51517.6 2324.73   6
  -2  -2   3 51958.9 1781.98   7
   2   2  -2 210868. 5684.23   2
  -2  -2   2 228443. 5615.25   1
  -2  -2   2 225351. 5485.62   2
   2   2  -2 216370. 5713.09   1
   2   2  -2 227227. 6306.47   6
  -2  -2   2 219007. 5418.18   7
   2   2  -1 10098.9 573.486   2
   2   2  -1 9375.62 487.343   7
  -2  -2   1 9608.28 510.082   7
   2   2   0 57439.0 1760.87   2
  -2  -2   0 60708.7 1892.75   1
   2   2   0 55813.6 1589.65   7
  -2  -2  -1 2465.08 356.707   1
   2   2   1 2400.15 297.482   1
   2   2   1 2571.74 340.165   5
   2   2   2 1457.17 186.627   4
   2   2   2 1399.37 192.034   1
  -2  -2  -2 1751.92 240.241   1
   2   2   2 1517.52 239.476   5
  -2  -2  -3 14148.2 701.982   1
  -2  -2  -3 12779.9 705.504   4
   2   2   3 11440.6 602.453   4
   2   2   3 12115.8 588.985   1
   2   2   3 12675.7 764.933   5
  -2  -2  -4 17371.4 786.603   1
  -2  -2  -4 19456.1 952.148   4
   2   2   4 17831.9 810.063   4
   2   2   4 20437.7 1021.95   5
   2   2   4 17854.1 693.123   1
  -2  -2  -5 10041.4 712.930   4
   2   2   5 7791.00 519.010   4
   2   2   5 8333.28 390.724   1
  -2  -2  -5 7342.78 445.296   1
   2   2   5 9932.29 713.213   5
   2   2   6 234110. 5768.61   6
  -2  -2  -6 246342. 6401.24   4
   2   2   6 234036. 6287.95   5
   2   2   6 253388. 5425.38   1
  -2  -2  -6 236456. 5560.90   1
  -2  -2  -7 33603.1 1668.94   4
   2   2   7 30166.4 1306.44   4
   2   2   7 29395.2 1203.83   6
   2   2   7 32937.3 1572.66   5
  -2  -2  -7 33317.8 1389.64   5
  -2  -2  -8 76091.9 2996.77   4
   2   2   8 68293.8 2441.20   4
  -2  -2  -8 72974.4 2569.57   3
   2   2   8 76760.1 2809.74   5
  -2  -2  -8 73287.7 2560.68   5
   2   2   9 126.202 114.758   5
   2   2   9 114.641 122.197   6
  -2  -2  -9-145.603 214.039   4
  -2  -2  -9 66.7694 68.0743   3
  -2  -2 -10 6713.07 644.958   3
  -2  -2 -10 7131.21 933.200   4
   2   2  10 6391.63 692.613   6
   2   2  10 7522.78 830.913   5
   2   2  11 1175.84 342.150   5
  -2  -2 -11 629.463 261.082   4
   2   2  11 422.707 186.141   6
  -2  -2 -11 720.281 230.850   3
  -2  -2 -12 5181.55 894.102   4
  -2  -2 -12 4243.41 519.437   3
   2   2  12 4243.76 682.792   5
   2   2  13-85.3170 165.743   5
  -2  -2 -13-297.811 323.098   4
   2   2  14 1818.99 488.112   5
  -2  -2 -14 2689.05 746.415   4
   2   2  15-54.9128 105.944   5
  -2  -3  12 1646.54 448.904   5
   2   3 -12 1766.56 532.616   4
   2   3 -12 2149.09 558.477   6
   2   3 -11-184.135 148.388   6
  -2  -3  11 7.27417 62.0219   5
   2   3 -11 115.374 170.898   4
   2   3 -10 2669.96 568.867   6
   2   3 -10 3721.80 663.542   4
  -2  -3  10 2641.57 583.729   5
  -2  -3  10 2765.37 369.830   1
  -2  -3   9 3034.57 387.810   1
   2   3  -9 3959.22 700.828   6
  -2  -3   9 3246.02 666.151   5
   2   3  -9 3807.16 619.277   4
   2   3  -9 3408.97 493.962   1
   2   3  -8 1783.71 351.527   1
  -2  -3   8 1344.08 443.783   5
  -2  -3   8 1461.28 268.199   1
   2   3  -8 1621.28 352.626   4
  -2  -3   8 2081.23 461.722   2
   2   3  -8 1616.71 458.735   6
  -2  -3   8 1358.88 268.268   3
  -2  -3   7 3523.33 426.531   1
  -2  -3   7 4470.10 609.548   2
  -2  -3   7 3587.21 631.160   5
   2   3  -7 3840.01 538.547   4
  -2  -3   7 4416.00 632.068   7
  -2  -3   7 3797.05 459.945   3
   2   3  -7 4292.63 544.377   1
   2   3  -7 5517.71 805.926   6
  -2  -3   6 37693.3 1702.85   2
  -2  -3   6 33373.1 1455.84   1
   2   3  -6 33181.3 1653.45   4
   2   3  -6 35176.8 1656.79   1
  -2  -3   6 28596.6 1501.14   3
   2   3  -6 37252.4 2189.18   6
  -2  -3   6 35583.8 1811.29   7
  -2  -3   6 28698.9 1832.02   5
  -2  -3   5 17235.3 965.893   2
  -2  -3   5 15465.6 915.894   1
  -2  -3   5 13893.0 1112.41   5
   2   3  -5 14327.3 972.967   4
   2   3  -5 16054.9 1032.83   1
   2   3  -5 16539.6 1384.50   6
  -2  -3   4 93677.9 2663.10   2
   2   3  -4 87256.9 2857.61   4
  -2  -3   4 91208.2 2799.80   1
  -2  -3   4 88755.9 2951.44   7
   2   3  -4 89018.3 3616.33   6
   2   3  -3 6618.48 712.142   2
  -2  -3   3 8712.56 531.498   2
  -2  -3   3 8971.87 717.843   1
   2   3  -3 8033.95 644.383   4
  -2  -3   3 8310.77 652.828   7
   2   3  -3 8829.80 952.928   6
   2   3  -2 18480.0 942.945   2
  -2  -3   2 20752.0 1052.64   1
  -2  -3   2 19985.5 1008.00   7
   2   3  -2 20901.2 1460.63   6
   2   3  -2 18798.0 931.326   7
   2   3  -1 6270.03 409.144   2
  -2  -3   1 7358.31 569.578   1
  -2  -3   1 6075.89 472.847   7
   2   3  -1 6348.41 470.706   7
   2   3  -1 7290.60 797.849   6
  -2  -3   0 27431.2 1204.36   1
   2   3   0 25936.5 1078.33   7
  -2  -3   0 24253.8 1160.35   5
   2   3   1 2074.38 213.821   4
   2   3   1 2172.35 357.619   5
  -2  -3  -1 1444.50 244.395   5
   2   3   2 40626.6 1310.07   4
  -2  -3  -2 48578.2 1657.74   1
   2   3   2 43064.0 1481.90   1
   2   3   2 48416.4 1748.94   5
  -2  -3  -3 77123.6 2239.45   4
   2   3   3 70540.4 2039.04   4
   2   3   3 75359.4 2469.93   5
   2   3   3 70433.5 2114.50   1
   2   3   4 94140.2 2661.36   1
  -2  -3  -4 109616. 3006.87   4
   2   3   4 96293.1 2715.63   4
  -2  -3  -4 114555. 3024.13   1
   2   3   4 114152. 3245.66   5
   2   3   5 413.509 91.7297   1
  -2  -3  -5 531.030 154.465   4
   2   3   5 364.074 107.465   4
   2   3   5 410.518 141.145   5
  -2  -3  -5 413.080 129.685   1
  -2  -3  -6 74585.0 2683.82   4
   2   3   6 71418.1 2684.93   5
   2   3   6 73447.3 2059.47   1
  -2  -3  -7 3230.70 287.592   1
   2   3   7 3476.91 387.259   4
  -2  -3  -7 3273.40 461.673   4
   2   3   7 3631.83 498.282   5
   2   3   7 3449.00 317.373   6
   2   3   8 19471.6 1283.96   5
  -2  -3  -8 18488.0 1275.77   4
   2   3   8 16920.7 1007.40   4
   2   3   8 16334.9 844.108   6
  -2  -3  -8 16426.3 626.111   1
  -2  -3  -8 18697.8 1086.18   5
   2   3   9 1086.15 302.553   5
   2   3   9 1181.16 266.006   4
  -2  -3  -9 831.262 275.099   4
  -2  -3 -10 6304.77 854.286   4
   2   3  10 5900.95 618.256   6
   2   3  10 7394.46 861.577   5
  -2  -3 -10 6061.83 617.766   3
   2   3  11-153.939 171.742   5
  -2  -3 -11-82.3785 174.969   4
   2   3  11-23.1232 111.246   6
  -2  -3 -11 141.886 108.548   3
  -2  -3 -12 10425.5 1271.00   4
   2   3  12 9640.82 976.131   6
  -2  -3 -12 9623.86 793.839   3
   2   3  12 10815.8 1132.01   5
   2   3  13-4.67135 59.2851   5
  -2  -3 -13-296.431 312.245   4
  -2  -3 -14 8570.87 1298.32   4
   2   3  14 6827.64 986.933   5
  -2  -4  12 847.448 316.466   5
   2   4 -12 1162.29 449.262   4
  -2  -4  11-119.179 209.084   5
   2   4 -11 182.376 209.996   6
   2   4 -11 6.47213 190.824   4
  -2  -4  10 3682.98 456.684   1
  -2  -4  10 3585.49 678.211   5
   2   4 -10 4636.87 750.747   4
   2   4 -10 4074.10 756.057   6
  -2  -4   9 1234.11 412.319   5
  -2  -4   9 703.178 206.257   1
   2   4  -9 1259.70 409.781   6
   2   4  -9 992.392 324.321   4
   2   4  -8 9966.90 1176.52   6
  -2  -4   8 9223.51 751.010   1
   2   4  -8 11177.0 1010.77   4
  -2  -4   8 8205.11 782.043   3
   2   4  -8 8703.68 854.847   1
  -2  -4   8 8937.11 1074.03   5
   2   4  -7 2528.72 437.923   1
  -2  -4   7 2492.52 533.834   5
  -2  -4   7 3749.95 444.588   2
  -2  -4   7 2712.30 398.122   1
   2   4  -7 3417.64 500.460   4
   2   4  -7 2929.01 593.520   6
  -2  -4   7 2733.70 450.157   3
  -2  -4   7 3858.88 622.576   7
  -2  -4   6 1587.17 410.170   5
   2   4  -6 1853.15 370.316   1
  -2  -4   6 2110.77 313.557   2
   2   4  -6 2256.49 365.471   4
  -2  -4   6 1960.68 397.198   3
  -2  -4   6 1815.48 328.321   1
   2   4  -6 2027.24 564.639   6
  -2  -4   6 2105.64 438.615   7
  -2  -4   5 970.282 281.428   5
   2   4  -5 855.250 426.747   6
   2   4  -5 562.217 170.894   4
  -2  -4   5 698.664 247.256   7
   2   4  -5 781.902 228.077   1
  -2  -4   5 1000.24 173.530   2
  -2  -4   5 664.351 202.643   1
  -2  -4   4 6448.19 424.156   2
  -2  -4   4 5219.85 548.863   1
   2   4  -4 5608.93 508.018   4
   2   4  -4 5409.14 801.437   6
   2   4  -4 5702.38 604.637   1
   2   4  -3 85.4030 115.315   2
   2   4  -3 68.9076 41.6955   4
  -2  -4   3 144.609 99.5433   1
   2   4  -3 171.975 125.290   1
   2   4  -3 36.8118 47.3820   7
   2   4  -2 70863.6 2208.31   2
  -2  -4   2 70216.4 2474.53   7
  -2  -4   2 76978.9 2531.87   1
   2   4  -2 73215.6 2201.50   4
   2   4  -2 78662.7 2578.36   1
   2   4  -2 73466.7 3224.00   6
   2   4  -2 71798.9 2435.59   7
   2   4  -1 37270.6 1195.92   2
  -2  -4   1 40027.1 1626.02   1
   2   4  -1 36720.6 1516.24   7
   2   4  -1 38112.3 2105.46   6
  -2  -4   1 36182.7 1558.80   5
  -2  -4   1 36685.9 1521.82   7
  -2  -4   0 263403. 6924.08   1
   2   4   0 254701. 7592.98   6
  -2  -4   0 240379. 6762.81   5
   2   4   0 255775. 6810.80   7
   2   4   1 24374.7 784.076   4
  -2  -4  -1 27651.0 1281.97   1
  -2  -4  -1 24754.8 1160.62   5
   2   4   1 25895.6 1204.85   7
   2   4   1 26967.9 1296.42   5
   2   4   2 11639.9 488.300   4
  -2  -4  -2 13110.0 829.663   1
  -2  -4  -2 12367.2 762.302   5
   2   4   2 13690.7 876.180   5
   2   4   2 10965.7 671.959   1
  -2  -4  -3 4919.15 383.922   4
   2   4   3 4510.08 307.019   4
  -2  -4  -3 5616.46 511.598   1
   2   4   3 5075.81 530.878   5
   2   4   3 4228.86 381.167   1
  -2  -4  -3 5165.31 479.398   5
  -2  -4  -4 19064.2 912.861   4
   2   4   4 17229.6 746.247   4
  -2  -4  -4 19616.8 1027.81   1
   2   4   4 19241.4 1106.53   5
   2   4   4 16542.6 796.363   1
   2   4   5 861.205 161.615   4
  -2  -4  -5 802.249 195.601   4
   2   4   5 723.657 139.865   1
  -2  -4  -5 843.707 201.505   1
   2   4   5 933.509 242.854   5
  -2  -4  -6 6533.35 624.508   4
   2   4   6 6699.55 687.223   5
   2   4   6 6979.84 446.247   1
  -2  -4  -7 2407.86 310.559   1
   2   4   7 2026.93 314.088   4
  -2  -4  -7 2283.57 388.838   4
   2   4   7 2238.18 237.730   6
   2   4   7 2787.09 460.673   5
  -2  -4  -7 2435.81 339.928   5
   2   4   8 16244.5 794.609   6
  -2  -4  -8 16834.2 1216.75   4
  -2  -4  -8 19719.4 933.552   1
   2   4   8 16429.5 1040.68   4
   2   4   8 20324.8 1365.96   5
  -2  -4  -8 18162.1 1075.22   5
  -2  -4  -9 6515.40 431.132   1
  -2  -4  -9 5388.78 722.072   4
   2   4   9 5559.76 628.626   4
   2   4   9 6518.60 804.204   5
   2   4   9 4259.90 431.308   6
  -2  -4 -10 15105.2 1326.28   4
   2   4  10 17708.7 1420.44   5
   2   4  11 1064.57 348.234   5
  -2  -4 -11 980.931 324.746   4
  -2  -4 -11 1105.55 263.019   3
   2   4  11 972.560 261.883   6
  -2  -4 -12 10819.1 1260.13   4
  -2  -4 -12 11242.4 868.376   3
   2   4  12 10343.1 1158.71   5
   2   4  13-22.0057 139.060   5
  -2  -4 -13-258.568 285.726   4
   2   4  14 1757.52 513.484   5
  -2  -4 -14 1255.44 449.721   4
  -2  -5  11-9.69190 67.8012   5
   2   5 -11 143.761 132.222   4
  -2  -5  10 1395.26 420.178   5
   2   5 -10 1797.76 477.581   4
   2   5 -10 2117.51 558.348   6
  -2  -5  10 1811.45 345.456   1
  -2  -5   9-16.3256 67.6653   5
  -2  -5   9 39.7569 90.6314   1
   2   5  -9 35.5835 91.9525   4
   2   5  -9 121.357 116.421   6
  -2  -5   8 2385.70 550.083   5
  -2  -5   8 2333.92 396.725   1
   2   5  -8 3279.40 539.393   4
   2   5  -8 3794.64 747.994   6
  -2  -5   7 65.2041 63.4959   5
  -2  -5   7 321.002 179.411   3
   2   5  -7 108.548 94.8055   4
  -2  -5   7 111.635 72.2719   1
  -2  -5   6 9409.86 813.853   1
   2   5  -6 10064.9 806.399   4
  -2  -5   6 8434.59 922.177   3
   2   5  -6 10106.2 1225.36   6
  -2  -5   6 7946.64 926.057   5
   2   5  -5 255.248 150.359   6
   2   5  -5 419.506 178.514   1
  -2  -5   5 561.937 232.430   7
   2   5  -5 455.285 158.047   4
  -2  -5   5 184.215 119.464   1
  -2  -5   5 366.460 213.862   3
   2   5  -4 9852.20 632.830   4
  -2  -5   4 8748.06 764.937   1
   2   5  -4 10359.8 1195.98   6
   2   5  -4 9699.39 852.509   1
  -2  -5   4 9789.70 917.228   7
   2   5  -3 8257.13 502.155   4
  -2  -5   3 7307.74 689.028   1
   2   5  -3 6104.80 643.776   7
  -2  -5   3 7336.85 740.177   7
   2   5  -3 7527.31 976.625   6
   2   5  -3 7956.80 735.657   1
   2   5  -2 79572.2 2051.94   4
  -2  -5   2 76901.8 2715.04   1
   2   5  -2 70702.0 3353.49   6
   2   5  -2 76427.6 2721.36   1
  -2  -5   2 71954.1 2621.06   5
   2   5  -2 71010.4 2668.59   7
   2   5  -1 1615.57 167.049   2
   2   5  -1 2261.33 166.417   4
  -2  -5   1 1544.78 277.831   5
   2   5  -1 1594.40 305.657   7
   2   5  -1 1700.83 392.464   6
  -2  -5   0 19225.9 1125.06   1
   2   5   0 19418.3 1148.48   7
   2   5   0 19164.2 1462.73   6
  -2  -5   0 18325.3 1018.01   5
   2   5   1 4648.06 522.725   7
   2   5   1 4841.31 684.297   6
  -2  -5  -1 4836.14 477.832   5
  -2  -5  -1 4956.95 539.688   1
   2   5   2 111968. 3281.53   1
   2   5   2 115628. 3612.47   7
   2   5   2 112703. 2724.62   4
   2   5   2 116106. 3595.92   5
  -2  -5  -2 110525. 3326.14   5
  -2  -5  -2 112023. 3501.24   1
   2   5   3 6728.13 395.114   4
   2   5   3 6811.81 662.747   5
  -2  -5  -3 6728.73 447.575   4
   2   5   3 6744.18 531.171   1
  -2  -5  -3 7444.10 602.074   5
  -2  -5  -3 6703.29 629.236   1
  -2  -5  -4 1853.24 251.870   4
  -2  -5  -4 1590.69 303.471   1
   2   5   4 1511.20 203.450   4
   2   5   4 1731.43 250.646   1
  -2  -5  -4 1531.99 265.866   5
   2   5   4 1831.45 341.096   5
  -2  -5  -5 215.634 102.401   5
  -2  -5  -5 64.8971 51.4256   1
   2   5   5 146.474 66.1096   4
   2   5   5 102.824 60.3328   1
  -2  -5  -5 287.785 109.153   4
   2   5   5 194.375 102.067   5
  -2  -5  -6 32196.0 1518.32   4
   2   5   6 32155.8 1713.69   5
  -2  -5  -6 31927.0 1422.66   5
   2   5   6 31726.1 1266.35   1
  -2  -5  -7 3963.06 508.657   4
   2   5   7 2999.35 409.154   4
  -2  -5  -7 3799.48 458.706   1
  -2  -5  -7 3749.78 442.995   5
   2   5   7 3692.19 550.046   5
  -2  -5  -8 42313.4 2050.25   4
   2   5   8 39323.1 1843.37   4
  -2  -5  -8 45829.5 1796.59   1
   2   5   8 42472.0 2189.05   5
   2   5   8 39591.2 1340.48   6
  -2  -5  -9 11330.5 1037.08   4
  -2  -5  -9 12189.9 786.444   1
   2   5   9 9462.70 877.730   4
   2   5   9 9930.16 619.216   6
   2   5   9 10421.7 1069.95   5
  -2  -5 -10 4297.65 414.320   1
  -2  -5 -10 2910.52 556.349   4
   2   5  10 3068.81 381.808   6
   2   5  10 3652.13 649.202   5
   2   5  11 80.4372 60.5581   5
  -2  -5 -11 180.719 46.6493   1
  -2  -5 -11-11.6052 113.000   4
  -2  -5 -12 1284.59 293.185   3
   2   5  12 1669.53 487.359   5
  -2  -5 -12 888.919 335.541   4
   2   5  13 158.003 203.182   5
  -2  -5 -13-57.7164 180.798   4
   2   5  14 2236.91 591.691   5
  -2  -5 -14 1904.38 576.186   4
  -2  -6   9-10.4309 127.087   5
  -2  -6   9 128.431 103.300   1
   2   6  -9-76.8531 147.447   6
   2   6  -9 249.275 182.166   4
  -2  -6   8 2528.97 572.208   5
  -2  -6   8 3260.41 508.475   1
   2   6  -8 3774.33 582.559   4
   2   6  -8 3740.53 787.111   6
  -2  -6   7 1706.08 452.935   5
   2   6  -7 2442.08 423.229   4
  -2  -6   7 1687.45 360.531   1
   2   6  -7 2118.54 572.393   6
   2   6  -6 7807.82 698.899   4
  -2  -6   6 6970.98 750.899   1
   2   6  -6 7540.08 1123.22   6
  -2  -6   6 5971.01 799.020   5
  -2  -6   5 299.578 160.864   5
   2   6  -5 107.123 230.380   6
   2   6  -5 519.053 158.626   4
  -2  -6   5 255.634 113.907   1
  -2  -6   4 15863.3 1264.57   7
   2   6  -4 18092.6 862.866   4
  -2  -6   4 15661.3 1119.07   1
   2   6  -4 15656.8 1548.26   6
   2   6  -4 14510.9 1122.69   7
  -2  -6   4 15169.0 1115.02   5
   2   6  -3 208.613 244.128   6
   2   6  -3 102.488 85.9149   7
   2   6  -3 64.5262 39.7555   4
  -2  -6   3 153.385 123.719   7
  -2  -6   3 93.2115 39.0066   5
  -2  -6   3-133.684 178.355   1
   2   6  -2-282.316 348.049   6
   2   6  -2 190.790 49.7932   4
  -2  -6   2-3.39796 44.8842   7
   2   6  -2 451.764 188.174   1
   2   6  -2-50.1787 121.729   7
  -2  -6   2 140.036 101.788   1
  -2  -6   2-10.4711 32.4135   5
   2   6  -1 1464.40 128.964   2
  -2  -6   1 1436.29 306.242   1
   2   6  -1 1419.04 231.591   2
  -2  -6   1 1590.43 334.299   7
   2   6  -1 1006.03 270.694   7
   2   6  -1 1558.81 310.699   1
   2   6  -1 1211.78 334.356   6
  -2  -6   1 1426.43 275.811   5
  -2  -6   0 73348.3 2744.38   1
   2   6   0 73231.8 3331.04   6
   2   6   0 76536.1 2894.63   7
  -2  -6   0 72237.4 2510.88   5
   2   6   0 77654.3 2674.03   1
  -2  -6  -1-3.86767 76.9530   1
   2   6   1 140.456 111.761   7
   2   6   1-78.6231 109.967   1
  -2  -6  -1 22.9578 36.2479   5
   2   6   2 22820.5 1414.31   7
  -2  -6  -2 23186.0 1335.22   1
   2   6   2 22796.9 1533.70   6
   2   6   2 24461.0 1371.24   5
   2   6   2 22285.4 1171.71   1
  -2  -6  -2 23472.4 1181.56   5
  -2  -6  -3 261.292 112.572   5
   2   6   3 118.416 79.7494   7
  -2  -6  -3 244.775 72.1138   1
   2   6   3 126.728 80.6761   1
   2   6   3 77.6407 48.8688   5
   2   6   3 18.7575 78.4188   6
  -2  -6  -4 30768.1 1180.27   4
   2   6   4 27463.7 1546.88   6
  -2  -6  -4 28011.2 1489.47   1
   2   6   4 28998.1 1575.77   5
  -2  -6  -4 28993.6 1346.57   5
   2   6   4 27437.9 1272.99   1
  -2  -6  -5 27.5607 62.7948   5
   2   6   5 5.77451 61.4072   4
  -2  -6  -5 169.436 118.742   1
  -2  -6  -5 23.7876 45.2902   4
   2   6   5-3.25713 41.5199   1
   2   6   5 103.531 122.125   5
  -2  -6  -6 79124.4 2723.27   4
   2   6   6 72791.3 3024.68   5
  -2  -6  -6 75547.6 2604.27   5
  -2  -6  -7 1933.66 343.086   1
  -2  -6  -7 2269.17 380.266   4
   2   6   7 1808.23 353.133   4
   2   6   7 2510.43 479.623   5
  -2  -6  -8 7168.15 761.099   4
  -2  -6  -8 8297.47 747.466   1
   2   6   8 6120.84 374.370   6
   2   6   8 6952.67 845.920   5
  -2  -6  -9 3256.12 545.433   4
  -2  -6  -9 2992.56 434.952   1
   2   6   9 2801.80 282.640   6
   2   6   9 2828.03 557.184   5
  -2  -6 -10 3184.66 422.854   1
   2   6  10 2611.40 313.240   6
  -2  -6 -10 3022.05 562.509   4
   2   6  10 2876.71 594.125   5
   2   6  11 1697.32 471.902   5
  -2  -6 -11 1759.51 288.657   1
  -2  -6 -11 1126.44 343.749   4
  -2  -6 -12 3600.76 700.360   4
   2   6  12 4912.81 846.804   5
   2   6  13-12.7144 103.591   5
  -2  -6 -13 17.0026 69.4383   4
  -2  -6 -14 1892.98 548.473   4
  -2  -7   9 604.212 228.068   1
  -2  -7   8 1478.39 376.955   1
   2   7  -8 1938.88 603.893   6
  -2  -7   7 2814.39 611.851   5
  -2  -7   7 3159.45 545.678   1
   2   7  -7 4327.74 879.696   6
  -2  -7   6 4418.40 635.731   1
   2   7  -6 5109.16 926.315   6
  -2  -7   6 3409.43 611.389   5
   2   7  -6 5106.15 545.891   4
  -2  -7   5 732.050 265.244   5
   2   7  -5 1104.91 213.620   4
  -2  -7   5 674.535 243.938   5
   2   7  -5 501.599 294.636   6
  -2  -7   5 933.999 285.157   1
  -2  -7   4 5830.23 712.679   1
   2   7  -4 5394.36 405.665   4
   2   7  -4 4323.33 647.230   7
   2   7  -4 4620.67 866.795   6
  -2  -7   4 4911.99 610.831   5
  -2  -7   3 598.633 237.057   1
   2   7  -3 197.480 140.302   7
   2   7  -3 512.236 79.9187   4
  -2  -7   3 623.364 201.182   5
   2   7  -3 42.7854 201.670   6
  -2  -7   2 9573.81 921.846   1
   2   7  -2 7925.14 880.152   7
   2   7  -2 9269.38 1162.23   6
  -2  -7   2 8651.59 745.771   5
  -2  -7   1 1018.17 299.699   1
   2   7  -1 1295.86 332.887   7
   2   7  -1 1142.65 385.013   6
  -2  -7   1 1113.54 247.045   5
  -2  -7   0 9946.42 908.934   1
   2   7   0 8906.19 1056.30   6
  -2  -7   0 8833.95 713.758   5
   2   7   0 8395.51 899.466   7
   2   7   0 9015.49 925.099   2
   2   7   1 401.733 211.832   2
  -2  -7  -1 828.577 276.947   1
   2   7   1 321.139 152.478   7
   2   7   1 690.880 342.311   6
  -2  -7  -1 707.807 191.153   5
   2   7   2 19543.8 1297.32   5
  -2  -7  -2 19489.2 1323.78   1
   2   7   2 20352.9 1432.49   7
   2   7   2 20025.3 1466.58   6
  -2  -7  -2 19443.8 1089.27   5
   2   7   2 15215.0 1751.05   2
  -2  -7  -3 2329.71 432.044   1
   2   7   3 2639.73 496.797   6
  -2  -7  -3 2221.21 342.019   5
   2   7   3 2552.56 503.177   7
   2   7   3 2775.84 392.363   1
   2   7   3 2344.66 442.498   5
   2   7   4 37297.7 1844.43   6
  -2  -7  -4 38161.8 1298.65   4
   2   7   4 36823.3 2102.72   7
   2   7   4 36493.9 1906.03   5
  -2  -7  -4 35982.6 1566.64   5
  -2  -7  -4 34615.1 1816.57   1
   2   7   4 35370.8 1619.42   1
  -2  -7  -5 8247.60 591.952   4
   2   7   5 6737.69 1321.00   2
  -2  -7  -5 7169.80 747.958   1
   2   7   5 7395.89 694.891   6
  -2  -7  -5 7699.95 649.202   5
   2   7   5 7785.03 836.460   5
  -2  -7  -6 700.358 194.434   5
   2   7   6 698.886 476.537   2
   2   7   6 911.064 254.382   6
  -2  -7  -6 596.466 213.804   1
  -2  -7  -6 529.156 172.501   4
   2   7   6 442.844 184.569   5
  -2  -7  -7 10596.7 859.879   4
  -2  -7  -7 9953.57 886.109   1
   2   7   7 9246.39 632.813   6
   2   7   7 9895.24 1016.05   5
   2   7   8 20817.3 689.794   6
  -2  -7  -8 24076.4 1458.27   4
   2   7   8 24861.0 1708.03   5
  -2  -7  -8 26016.3 1466.41   1
   2   7   9 1.14835 23.5531   6
  -2  -7  -9-20.4623 117.125   1
  -2  -7  -9-166.413 183.077   4
   2   7   9 63.3448 140.174   5
  -2  -7 -10 8716.86 982.062   4
  -2  -7 -10 9598.71 849.418   1
   2   7  10 8975.76 1099.11   5
  -2  -7 -11 125.496 94.5264   4
  -2  -7 -11 328.054 158.574   1
  -2  -7 -12 3006.37 632.442   4
   2   7  12 4064.32 808.279   5
  -2  -7 -13-14.7319 127.102   4
   2   7  13-135.336 137.161   5
  -2  -7 -14 2565.02 657.422   4
  -2  -8   8 195.510 164.543   1
   2   8  -7 1149.29 471.479   6
  -2  -8   7 804.996 309.821   1
  -2  -8   6 1852.36 416.690   1
   2   8  -6 1853.30 592.162   6
  -2  -8   5 1270.43 353.688   5
   2   8  -5 1512.01 490.561   6
  -2  -8   5 1164.52 320.931   1
   2   8  -4 6768.04 1076.58   6
  -2  -8   4 6304.89 793.098   1
   2   8  -4 6956.89 882.590   7
  -2  -8   3 610.456 232.216   1
   2   8  -3 539.460 239.281   7
   2   8  -3 735.338 324.624   6
  -2  -8   2 7834.88 878.882   1
   2   8  -2 7231.06 1040.58   6
  -2  -8   2 7431.08 691.338   5
   2   8  -2 7801.99 932.379   7
   2   8  -1 8669.38 1000.66   7
  -2  -8   1 9411.42 959.529   1
   2   8  -1 8601.56 1098.59   6
  -2  -8   1 8124.13 711.761   5
   2   8   0 2931.70 329.211   2
   2   8   0 3046.50 255.485   2
  -2  -8   0 2632.21 487.693   1
   2   8   0 2698.31 563.535   6
  -2  -8   0 2636.98 387.408   5
   2   8   0 2857.20 566.522   7
   2   8   1 7422.39 1058.82   2
  -2  -8  -1 7984.55 882.671   1
   2   8   1 6818.70 889.191   7
   2   8   1 9197.91 1066.34   6
  -2  -8  -1 7801.19 673.150   5
  -2  -8  -2 26750.3 1692.14   1
   2   8   2 29989.6 1846.74   6
   2   8   2 28754.4 1930.79   7
  -2  -8  -2 27888.9 1357.11   5
  -2  -8  -3 482.657 161.599   5
  -2  -8  -3 365.068 209.895   1
   2   8   3 682.681 256.829   6
   2   8   3 473.886 204.875   5
   2   8   3 578.160 266.721   7
  -2  -8  -4 1261.43 258.619   5
   2   8   4 1683.29 361.718   6
   2   8   4 1119.79 543.944   2
   2   8   4 1380.76 434.061   7
  -2  -8  -4 1178.14 329.900   1
   2   8   4 1382.12 351.879   5
  -2  -8  -5 293.446 140.256   5
   2   8   5 443.560 418.579   2
  -2  -8  -5 61.0228 64.1292   4
  -2  -8  -5 104.743 122.018   1
   2   8   5-46.0507 92.9093   7
   2   8   5-20.5601 75.2278   6
   2   8   5 204.629 168.991   5
  -2  -8  -6 10592.3 761.750   4
   2   8   6 12634.3 738.571   6
   2   8   6 11028.1 1090.96   5
  -2  -8  -7 3550.78 478.933   4
  -2  -8  -7 2701.76 484.378   1
   2   8   7 3148.45 581.420   5
   2   8   7 2453.39 207.117   6
  -2  -8  -8 11176.6 1015.04   1
  -2  -8  -8 11695.1 995.473   4
   2   8   8 10865.0 1159.13   5
  -2  -8  -9 211.279 129.671   1
  -2  -8  -9 177.864 134.444   4
   2   8   9 285.995 209.987   5
  -2  -8 -10 3083.17 581.021   4
  -2  -8 -10 4402.22 608.757   1
   2   8  10 3872.84 733.951   5
  -2  -8 -11-114.553 79.0588   1
  -2  -8 -11-130.995 161.639   4
   2   8  11-53.4256 81.5671   5
  -2  -8 -12 2531.69 600.587   4
   2   8  12 3873.15 809.732   5
  -2  -8 -13-70.6019 53.0890   4
  -2  -8 -14 1038.91 449.317   4
  -2  -9   7 193.177 156.495   1
   2   9  -6 527.942 308.023   6
  -2  -9   6 457.064 234.978   1
   2   9  -5 68.0250 127.780   6
  -2  -9   5 745.525 297.591   1
  -2  -9   4 3743.47 647.242   1
   2   9  -4 3201.93 645.953   7
   2   9  -4 3061.76 730.260   6
  -2  -9   3 683.872 286.156   1
   2   9  -3 347.127 195.684   7
   2   9  -3 390.358 210.329   6
   2   9  -2 3196.77 700.050   6
  -2  -9   2 3597.43 642.513   1
   2   9  -2 3277.69 648.381   7
   2   9  -1 3867.32 751.125   6
  -2  -9   1 4098.13 677.333   1
   2   9  -1 4310.94 746.566   7
   2   9   0 10167.8 1160.66   6
   2   9   0 9392.79 1117.94   7
  -2  -9   0 11176.6 1122.58   1
  -2  -9  -1 169.008 93.2256   5
  -2  -9  -1 335.702 201.992   1
   2   9   1 494.064 247.170   7
   2   9   1 308.192 205.760   6
  -2  -9  -2 1449.94 280.810   5
   2   9   2 1783.41 504.085   7
  -2  -9  -2 1544.01 406.625   1
   2   9   2 1547.21 559.413   2
   2   9   2 1323.69 350.353   6
   2   9   3 2104.37 415.569   6
   2   9   3 1284.31 681.352   2
  -2  -9  -3 1957.51 443.158   1
   2   9   3 2102.93 554.597   7
  -2  -9  -3 1790.20 317.078   5
   2   9   3 2457.84 500.818   5
   2   9   4 12677.6 1380.36   7
  -2  -9  -4 11274.0 1128.53   1
   2   9   4 11761.2 890.872   6
   2   9   4 11734.1 1125.37   5
   2   9   5 1396.56 476.740   7
   2   9   5 847.757 577.243   2
   2   9   5 1845.42 284.724   6
  -2  -9  -5 2206.80 480.754   1
   2   9   5 2211.16 488.211   5
  -2  -9  -6 1538.86 257.934   4
   2   9   6 1774.46 527.238   7
   2   9   6 2103.79 234.609   6
  -2  -9  -6 1918.65 450.963   1
   2   9   6 1534.88 418.940   5
  -2  -9  -7 2232.53 362.357   4
  -2  -9  -7 2163.88 471.981   1
   2   9   7 2353.25 640.206   7
   2   9   7 2078.01 499.934   5
  -2  -9  -8 3359.78 508.526   4
  -2  -9  -8 3507.69 596.050   1
   2   9   8 3927.03 715.174   5
  -2  -9  -9 54.7445 67.5683   1
  -2  -9  -9 52.5239 126.269   4
   2   9   9 186.877 194.640   5
  -2  -9 -10 2077.81 442.161   1
  -2  -9 -10 2019.28 455.861   4
   2   9  10 2158.53 566.383   5
  -2  -9 -11 493.251 249.435   4
   2   9  11 623.732 338.914   5
  -2  -9 -12 154.156 128.902   4
  -2  -9 -13 140.590 138.697   4
   2  10  -4 967.474 367.999   7
   2  10  -4 1836.88 582.609   6
  -2 -10   4 1459.86 447.609   1
  -2 -10   3 26.8941 119.575   1
   2  10  -3 252.078 202.009   7
   2  10  -3-74.3284 143.466   6
  -2 -10   2 3462.51 669.254   1
   2  10  -2 3983.31 783.215   6
   2  10  -2 3498.79 722.429   7
  -2 -10   1 483.378 224.187   1
   2  10  -1 266.887 235.466   7
   2  10  -1 889.154 340.926   6
   2  10   0 1197.08 427.927   7
  -2 -10   0 1314.23 418.368   1
   2  10   0 1196.92 374.001   6
   2  10   1 7193.08 1066.26   7
   2  10   1 7035.64 879.835   6
  -2 -10  -1 7215.57 961.548   1
  -2 -10  -2 11587.9 1219.60   1
   2  10   2 12458.4 1454.92   7
   2  10   2 12271.7 1089.53   6
  -2 -10  -3 1170.95 381.476   1
   2  10   3 1082.55 428.613   7
   2  10   3 1089.28 290.147   6
  -2 -10  -4 5978.19 880.731   1
   2  10   4 6549.61 621.523   6
   2  10   4 6944.07 904.274   5
   2  10   4 7079.28 1106.02   7
   2  10   5 716.952 366.591   7
  -2 -10  -5 262.928 192.590   1
   2  10   5 325.887 216.369   5
  -2 -10  -6 2289.13 530.883   1
   2  10   6 1473.81 511.303   7
   2  10   6 2038.94 509.155   5
  -2 -10  -7-17.1244 91.4295   1
   2  10   7-20.7012 91.4889   5
  -2 -10  -8 3673.14 646.889   1
   2  10   8 3450.42 876.126   7
   2  10   8 2758.80 617.372   5
  -2 -10  -9 384.161 180.949   1
   2  10   9 308.520 229.709   5
   2  10   9 146.520 181.837   7
  -2 -10 -10 862.859 310.125   1
   2  10  10 1117.66 427.758   5
   2  10  11 157.078 230.295   5
   2  11  -3 491.423 305.543   6
   2  11  -2 703.296 351.302   7
   2  11  -2 1678.13 513.303   6
   2  11  -1 42.1683 159.118   7
   2  11  -1 507.409 249.289   6
   2  11   0 3013.32 734.880   7
  -2 -11   0 2648.67 609.350   1
   2  11   0 2523.13 552.041   6
  -2 -11  -1 48.6721 92.2603   1
   2  11   1-37.8132 196.211   7
   2  11   1 81.6597 101.161   6
  -2 -11  -2 2396.86 572.690   1
   2  11   2 2379.85 651.807   7
  -2 -11  -3 468.042 252.133   1
   2  11   3 1184.73 488.023   7
  -2 -11  -4 2464.96 578.369   1
   2  11   4 2645.03 717.932   7
   2  11   5-151.933 162.037   7
  -2 -11  -5-128.820 157.217   1
   2  11   5 20.4018 119.805   5
   2  11   6 2939.26 807.368   7
  -2 -11  -6 3803.70 709.044   1
   2  11   6 2746.49 608.028   5
  -2 -11  -7 120.868 159.333   1
   2  11   7-147.802 201.010   7
   2  11   7 76.6219 57.8570   5
  -2 -11  -8 2351.27 559.501   1
   2  11   8 3127.89 705.544   5
  -2 -11  -9 297.579 208.723   1
   2  11   9 42.0359 93.4708   5
  -2 -11 -10 3202.69 632.497   1
   2  11  10 2134.05 598.910   5
   3 -10  -7 1142.07 356.184   1
  -3  10   7 888.722 499.318   7
   3 -10  -6 68.7236 62.7944   1
  -3  10   6 447.187 436.338   7
   3 -10  -5 2331.22 496.065   1
  -3  10   5 2665.60 820.980   7
   3 -10  -4-7.16585 74.0437   1
  -3  10   4-303.911 312.459   7
  -3  10   3 1818.42 631.842   7
   3 -10  -3 1621.84 417.146   1
  -3  10   2 117.742 177.637   7
   3 -10  -2 88.9728 127.909   1
   3 -10  -1 2951.03 897.481   2
   3 -10  -1 3419.57 607.796   1
  -3  10   1 4659.46 984.267   7
   3 -10   0-54.8631 119.098   1
  -3  10   0 92.8942 135.604   7
  -3  10  -1 3229.12 800.119   7
   3 -10   1 3910.97 654.178   1
   3 -10   2 226.381 175.163   1
  -3  10  -2 25.8576 105.366   7
   3 -10   3 672.095 282.441   1
  -3   9  10 306.077 195.667   5
   3  -9 -10 459.201 199.231   1
   3  -9 -10 188.566 147.873   4
  -3   9   9 1301.49 380.040   5
   3  -9  -9 1224.63 350.829   4
  -3   9   9 1538.04 632.082   7
   3  -9  -9 1632.73 385.970   1
  -3   9   8 123.771 150.031   5
  -3   9   8 183.511 161.221   7
   3  -9  -8 48.8799 103.006   4
   3  -9  -8 95.3507 121.761   1
  -3   9   7 2243.71 465.305   5
   3  -9  -7 2368.16 489.845   4
  -3   9   7 3217.23 905.429   7
   3  -9  -7 2710.29 531.671   1
  -3   9   6 338.759 164.615   5
   3  -9  -6 309.119 150.294   1
   3  -9  -6 22.2905 48.3548   4
  -3   9   5 5406.05 1118.55   7
  -3   9   5 4153.97 575.859   5
   3  -9  -5 4871.30 699.968   1
  -3   9   4 916.944 244.561   5
   3  -9  -4 1267.03 766.712   2
  -3   9   4 675.354 352.703   7
   3  -9  -4 1157.51 362.304   1
   3  -9  -3 6985.35 1481.00   2
  -3   9   3 10082.3 1423.92   7
   3  -9  -3 9836.49 1007.79   1
   3  -9  -2 779.977 463.824   2
  -3   9   2 767.953 358.071   7
   3  -9  -2 986.771 307.257   1
   3  -9  -1 6352.59 1319.05   2
  -3   9   1 9543.87 1290.97   7
   3  -9  -1 8045.18 908.938   1
   3  -9   0 165.345 131.318   1
  -3   9   0 67.9358 113.119   7
   3  -9   1 4259.04 1027.78   2
  -3   9  -1 7133.05 1104.56   7
   3  -9   1 5592.85 742.371   1
   3  -9   2-22.0258 62.5902   1
  -3   9  -2 397.186 288.869   7
  -3   9  -3 2470.90 642.528   7
   3  -9   3 1716.38 410.003   1
  -3   9  -4-72.8431 82.4327   7
   3  -9   4 173.180 122.440   1
   3  -9   5 4873.28 702.385   1
   3  -9   6 218.317 160.857   1
   3  -9   7 982.106 307.526   1
  -3   8  10 29.4987 219.521   7
  -3   8  10 72.1208 114.000   5
   3  -8 -10 259.470 199.009   4
   3  -8  -9 3130.76 568.891   4
  -3   8   9 3262.32 917.279   7
  -3   8   9 4345.57 647.387   5
  -3   8   8 246.601 170.861   5
  -3   8   8 205.120 252.493   7
   3  -8  -8 402.869 202.882   4
   3  -8  -7 3887.11 624.094   4
  -3   8   7 4365.64 1001.46   7
  -3   8   7 4111.95 584.990   5
  -3   8   6 401.197 189.960   5
   3  -8  -6 755.151 624.468   2
  -3   8   6 263.503 251.502   7
   3  -8  -5 7056.51 1559.20   2
  -3   8   5 9149.34 817.131   5
  -3   8   5 10733.3 1461.52   7
  -3   8   4 64.4147 50.9382   5
  -3   8   4 257.524 212.496   7
  -3   8   3 12830.2 1464.15   7
  -3   8   3 11468.8 805.824   5
   3  -8  -2 1878.38 670.552   2
  -3   8   2 2905.54 667.818   7
  -3   8   2 3064.69 359.842   5
   3  -8  -1 3490.72 958.830   2
  -3   8   1 3892.77 762.095   7
   3  -8  -1 3480.28 489.165   6
  -3   8   1 3783.41 291.686   5
   3  -8   0-28.7272 103.695   4
   3  -8   0-263.596 324.473   2
  -3   8   0-200.729 151.009   7
   3  -8   0 114.966 50.0331   6
   3  -8   0 168.934 158.582   1
  -3   8   0 17.4219 60.9672   2
   3  -8   1 13796.6 1026.52   4
  -3   8  -1 16686.3 1332.67   2
  -3   8  -1 15562.3 1524.81   7
   3  -8   1 14899.5 1204.60   6
   3  -8   1 13131.6 1110.95   1
   3  -8   2 81.7462 112.046   1
   3  -8   2-175.301 250.357   2
  -3   8  -2 138.838 170.252   7
   3  -8   3 17662.5 1805.44   2
  -3   8  -3 21053.7 1793.79   7
   3  -8   3 18576.6 1325.59   1
   3  -8   4 88.8207 119.672   1
  -3   8  -4 71.5531 77.9278   7
   3  -8   5 3334.98 546.109   1
   3  -8   6-85.9527 125.227   1
   3  -8   7 9519.76 922.252   1
   3  -8   8 294.587 168.895   1
  -3   7  11 1848.30 451.393   5
   3  -7 -11 1331.68 383.623   4
  -3   7  10 198.466 141.823   5
   3  -7 -10 322.295 193.161   4
   3  -7  -9 3580.38 609.082   4
  -3   7   9 3584.51 578.439   5
  -3   7   8 1725.76 381.164   5
  -3   7   8 1907.75 637.376   7
   3  -7  -8 2097.35 464.924   4
   3  -7  -7 1357.94 770.130   2
  -3   7   7 3230.74 498.966   5
  -3   7   7 3367.16 820.309   7
  -3   7   6 2021.44 371.618   5
   3  -7  -6 2095.49 918.842   2
  -3   7   6 3179.98 756.209   7
   3  -7  -6 2213.97 438.705   3
   3  -7  -5 4657.89 1232.55   2
  -3   7   5 8300.41 1167.05   7
  -3   7   5 7366.29 686.292   5
   3  -7  -5 6883.45 824.839   3
  -3   7   4 7105.71 1047.40   7
   3  -7  -4 7092.99 463.843   6
  -3   7   4 6769.28 622.928   5
  -3   7   3 3407.63 698.449   7
  -3   7   3 2472.03 343.382   5
   3  -7  -3 2473.10 302.330   6
  -3   7   2 477.540 144.871   5
   3  -7  -2 208.515 214.780   2
  -3   7   2 468.921 282.634   7
   3  -7  -2 498.738 159.069   6
  -3   7   1 10855.5 1126.77   2
  -3   7   1 10428.0 1155.93   7
   3  -7  -1 8645.80 716.481   6
  -3   7   1 9983.29 568.309   5
  -3   7   0-159.174 178.459   7
   3  -7   0-152.565 349.324   2
   3  -7   0 82.8224 91.3850   6
  -3   7   0 0.72758 67.3935   2
   3  -7   1 24378.3 2199.34   2
   3  -7   1 27172.3 1492.85   4
  -3   7  -1 31267.5 1775.52   2
   3  -7   1 26308.1 1518.25   6
  -3   7  -1 29106.0 1987.65   7
   3  -7   2 890.449 236.007   4
   3  -7   2 1066.55 404.484   2
  -3   7  -2 1108.61 358.977   7
   3  -7   2 973.254 277.075   1
   3  -7   2 1000.63 303.964   6
  -3   7  -2 1366.05 371.370   2
   3  -7   3 12089.5 1315.15   2
   3  -7   3 11111.9 864.887   4
  -3   7  -3 12618.2 1277.03   7
   3  -7   3 10343.8 915.382   1
   3  -7   4 310.475 207.344   2
   3  -7   4 554.380 198.719   1
  -3   7  -4 899.199 305.566   7
   3  -7   4 394.794 143.254   4
   3  -7   5 8749.24 985.198   2
   3  -7   5 7535.48 768.660   1
   3  -7   6-54.0238 45.4949   1
   3  -7   7 11920.4 975.729   1
   3  -7   8-36.9260 55.0747   1
   3  -7   9 4874.11 609.272   1
  -3   6  11 288.756 165.693   5
   3  -6 -11 450.970 234.065   4
  -3   6  10 537.534 235.890   5
   3  -6 -10 439.718 229.150   4
   3  -6  -9 3817.55 631.479   4
  -3   6   9 3867.21 596.356   5
  -3   6   8 75.7549 95.2561   5
   3  -6  -8-56.3286 83.3254   4
   3  -6  -7 2150.50 917.657   2
   3  -6  -7 2738.51 210.582   6
   3  -6  -7 2580.38 400.928   3
  -3   6   7 3179.20 501.240   5
  -3   6   6 264.242 152.320   5
   3  -6  -6 191.132 307.941   2
   3  -6  -6 145.027 80.8626   6
  -3   6   6 96.1638 138.596   7
   3  -6  -6 221.368 148.650   3
  -3   6   5 216.302 121.169   5
  -3   6   5-11.3569 123.461   7
   3  -6  -5-61.2634 306.158   2
   3  -6  -5 193.427 66.8389   6
   3  -6  -5 567.086 226.137   3
   3  -6  -4 14958.1 671.966   6
   3  -6  -4 15142.8 1171.62   3
  -3   6   4 15305.6 980.039   5
  -3   6   4 16331.4 1455.31   7
   3  -6  -3 32538.9 1205.25   6
   3  -6  -3 34660.8 1910.20   3
  -3   6   3 35612.1 1495.68   5
  -3   6   3 36584.5 2175.07   7
  -3   6   2 2213.22 493.855   7
  -3   6   2 2520.97 553.713   2
   3  -6  -2 2390.84 497.631   3
   3  -6  -2 1966.64 270.051   6
  -3   6   2 2203.20 292.510   5
   3  -6  -2 1913.72 659.757   2
   3  -6  -1 12422.8 1627.98   2
  -3   6   1 16810.7 1359.28   2
   3  -6  -1 13909.9 833.191   6
  -3   6   1 18154.7 1415.77   7
   3  -6  -1 16653.7 1347.93   3
  -3   6   1 15745.3 734.608   5
  -3   6   0 104.442 51.0425   5
  -3   6   0 58.7812 56.0376   7
   3  -6   0 51.2423 72.9295   6
  -3   6   0 177.234 128.541   2
   3  -6   1 6474.23 973.189   2
   3  -6   1 7456.57 723.408   4
  -3   6  -1 8027.99 824.860   2
  -3   6  -1 7244.94 875.622   7
   3  -6   1 6054.25 602.771   6
   3  -6   2 1159.51 275.914   4
  -3   6  -2 1299.15 369.872   7
   3  -6   2 1421.24 419.848   2
   3  -6   2 1067.63 262.321   6
  -3   6  -2 1645.57 383.560   2
   3  -6   3 8757.60 972.859   2
   3  -6   3 8163.34 730.510   4
   3  -6   3 7772.52 799.933   6
  -3   6  -3 8951.56 993.249   7
  -3   6  -4-21.6414 85.0640   7
   3  -6   4 133.396 120.469   2
   3  -6   4 105.885 77.6240   1
   3  -6   4 169.642 91.2983   4
   3  -6   5 416.758 161.090   4
   3  -6   5 373.150 177.843   2
   3  -6   5 346.245 145.593   1
   3  -6   6 63.4439 97.5603   1
   3  -6   6 87.7327 101.990   2
   3  -6   6 7.04873 38.5460   4
   3  -6   7 5179.12 624.824   2
   3  -6   7 4451.93 542.067   1
   3  -6   8-8.84030 70.5562   1
   3  -6   9 40137.2 1816.32   1
  -3   5  11 1734.25 440.100   5
   3  -5 -11 1896.97 461.484   4
  -3   5  10 83.7822 75.6256   5
   3  -5 -10 11.3831 90.4337   4
   3  -5  -9 4118.90 661.446   4
  -3   5   9 4774.31 683.868   5
  -3   5   8 107.287 132.085   5
   3  -5  -8 198.292 550.017   2
   3  -5  -8 129.762 126.493   4
   3  -5  -8 40.3968 57.0485   6
   3  -5  -8-28.8381 51.7159   3
   3  -5  -7 3587.23 1186.69   2
   3  -5  -7 3947.32 398.422   6
   3  -5  -7 3680.94 413.212   3
  -3   5   7 4885.41 672.234   5
   3  -5  -6 10183.5 661.982   6
  -3   5   6 11250.3 999.268   5
  -3   5   5 41437.1 2325.71   7
  -3   5   5 36049.6 1872.18   5
  -3   5   4 1078.43 283.964   5
  -3   5   4 1398.02 387.686   7
   3  -5  -4 1588.72 331.456   3
  -3   5   3 26240.1 1973.34   2
  -3   5   3 24309.0 1572.22   7
   3  -5  -3 22432.0 1380.11   3
  -3   5   3 21028.3 1253.40   5
  -3   5   2 1197.80 259.451   5
   3  -5  -2 910.612 230.903   2
  -3   5   2 1154.77 300.444   7
  -3   5   2 1425.46 414.667   2
   3  -5  -2 1362.98 328.665   3
  -3   5   1 5095.54 688.276   2
   3  -5  -1 4310.72 845.122   2
  -3   5   1 3925.31 661.469   3
   3  -5  -1 3650.40 364.840   6
   3  -5  -1 3949.61 611.194   3
  -3   5   1 4813.43 635.270   7
  -3   5   1 4189.04 430.405   5
  -3   5   0 726.413 146.768   5
   3  -5   0 757.198 221.052   7
   3  -5   0 488.523 305.129   2
  -3   5   0 905.751 280.822   7
   3  -5   0 974.585 211.071   6
  -3   5   0 960.175 350.697   3
  -3   5   0 1142.90 304.149   2
   3  -5   0 1254.16 347.901   3
   3  -5   1 2720.53 357.964   6
  -3   5  -1 2700.15 450.317   2
  -3   5  -1 2618.41 478.840   7
   3  -5   1 2343.74 392.727   7
   3  -5   1 2666.71 548.616   2
  -3   5  -1 2262.86 513.252   3
  -3   5  -1 2585.84 200.269   5
   3  -5   1 2110.28 458.097   3
  -3   5  -1 2465.96 174.097   5
   3  -5   2-49.7038 83.4000   4
   3  -5   2 46.8034 91.0758   7
   3  -5   2 264.288 238.349   2
   3  -5   2 111.963 126.775   6
  -3   5  -2 338.666 366.731   3
  -3   5  -2 13.1341 80.8309   7
   3  -5   2 105.875 107.328   3
   3  -5   3 34006.2 1776.21   2
  -3   5  -3 34477.1 1909.84   7
   3  -5   3 35816.6 1641.47   4
   3  -5   3 34317.4 1832.57   7
  -3   5  -3 36239.6 2300.91   3
   3  -5   3 31529.8 1589.13   6
   3  -5   4 113.696 99.9665   4
   3  -5   4 14.8778 60.3965   6
  -3   5  -4 168.766 143.731   7
  -3   5  -4 215.649 173.947   3
   3  -5   4 53.6447 70.1737   2
   3  -5   5 1599.23 299.752   1
  -3   5  -5 1613.19 475.299   3
   3  -5   5 1793.87 315.927   4
   3  -5   6-32.0789 66.4717   4
   3  -5   6-129.210 130.145   2
  -3   5  -6-160.859 110.131   3
   3  -5   6 44.5899 71.3774   1
   3  -5   7 3972.85 544.004   2
  -3   5  -7 3048.17 685.485   3
   3  -5   7 3827.46 271.295   5
   3  -5   7 3543.45 438.275   1
   3  -5   8 76.3380 55.2309   1
  -3   5  -8 294.510 269.548   3
   3  -5   8 63.9377 87.2734   2
   3  -5   9 1458.21 283.547   1
   3  -5   9 1237.79 343.214   2
  -3   5  -9 755.426 333.386   4
  -3   5 -10 438.562 303.385   4
  -3   5 -11 7855.44 1201.28   4
  -3   5 -12-366.587 272.060   4
   3  -4 -12 167.357 157.358   4
  -3   4  11 1345.11 382.771   5
   3  -4 -11 1323.49 399.565   4
  -3   4  10 395.321 243.932   5
   3  -4 -10 272.394 199.853   4
   3  -4 -10 249.640 136.075   6
   3  -4  -9 11530.4 1104.46   4
   3  -4  -9 11600.6 814.464   6
  -3   4   9 10737.2 1107.22   5
   3  -4  -9 11165.5 861.175   1
   3  -4  -8 212.270 115.698   1
  -3   4   8 18.2837 62.0850   5
   3  -4  -8 131.653 106.231   4
   3  -4  -8 1.58443 71.7313   6
   3  -4  -7 45861.7 1845.68   6
   3  -4  -7 47209.8 1535.19   3
  -3   4   7 47666.7 2442.02   5
   3  -4  -7 47077.5 1879.33   1
  -3   4   6 544.909 251.600   5
   3  -4  -6-64.9025 198.859   2
   3  -4  -6 574.952 228.092   6
   3  -4  -6 270.493 127.907   3
  -3   4   5 402.775 210.286   5
   3  -4  -5-20.1344 267.637   2
   3  -4  -5 312.170 119.957   3
   3  -4  -4 1595.97 462.680   2
  -3   4   4 2963.51 512.949   7
  -3   4   4 2792.87 506.076   5
  -3   4   4 2980.22 671.109   2
   3  -4  -4 3317.94 422.274   3
   3  -4  -3 16923.0 1846.87   2
  -3   4   3 22790.4 1384.14   7
  -3   4   3 19052.5 1295.90   3
  -3   4   3 20037.5 1338.47   5
  -3   4   2 4691.15 705.124   2
  -3   4   2 4078.56 535.032   7
   3  -4  -2 3402.47 743.038   2
  -3   4   2 3957.74 594.091   3
  -3   4   2 4155.94 567.742   5
   3  -4  -1 55582.6 2955.63   2
  -3   4   1 65029.3 2714.23   2
  -3   4   1 62542.5 2411.30   7
  -3   4   1 58355.3 2608.38   3
   3  -4  -1 60915.6 2432.99   3
  -3   4   1 55846.8 2205.53   5
   3  -4   0 2365.96 344.149   7
   3  -4   0 3167.43 488.446   3
  -3   4   0 2384.18 484.855   3
  -3   4   0 2407.87 393.271   7
  -3   4   0 2415.98 339.762   5
   3  -4   0 2392.68 504.764   2
   3  -4   1 67353.5 2769.58   2
  -3   4  -1 73356.8 2672.03   7
   3  -4   1 64547.0 2390.61   7
   3  -4   1 65918.6 2179.31   6
  -3   4  -1 69320.0 2989.64   3
   3  -4   1 72891.7 2831.13   3
  -3   4  -1 68786.6 1967.63   5
  -3   4  -1 65228.0 2046.79   5
   3  -4   2 6070.38 654.037   2
   3  -4   2 6231.57 622.607   4
  -3   4  -2 5988.37 666.072   7
   3  -4   2 5440.53 499.955   6
  -3   4  -2 5939.01 783.993   3
   3  -4   2 5940.68 630.477   7
  -3   4  -2 6558.51 327.473   5
  -3   4  -2 6014.61 366.568   5
   3  -4   3 76754.8 2698.99   4
   3  -4   3 71785.3 2540.30   6
  -3   4  -3 78878.2 3395.43   3
   3  -4   3 82517.3 3165.13   3
   3  -4   3 75998.7 2762.31   2
  -3   4  -3 82708.3 2951.31   7
   3  -4   3 77633.1 2867.56   7
  -3   4  -3 76078.5 1825.47   5
  -3   4  -4 45.3641 52.5540   5
  -3   4  -4 96.3226 106.301   3
   3  -4   4 82.7000 97.0881   4
   3  -4   4-153.671 132.050   7
   3  -4   4 85.9111 100.491   6
   3  -4   4-106.202 133.430   2
   3  -4   4 104.551 115.059   3
   3  -4   5 11654.8 898.054   2
   3  -4   5 11448.6 844.090   4
   3  -4   5 12107.6 1053.84   7
  -3   4  -5 13391.1 1306.70   3
   3  -4   5 10196.3 863.033   6
   3  -4   5 12203.8 1108.28   3
  -3   4  -5 11329.3 597.781   5
  -3   4  -6 20.0786 61.9370   5
   3  -4   6-24.4579 85.0573   1
   3  -4   6 75.6713 65.9115   4
  -3   4  -6-106.431 173.089   3
   3  -4   6-6.59238 80.3498   2
   3  -4   6 43.0732 57.0618   5
   3  -4   7 7397.92 533.464   5
  -3   4  -7 7551.64 899.476   4
   3  -4   7 7481.82 772.819   2
  -3   4  -7 7854.73 1060.71   3
   3  -4   7 6616.17 563.244   1
  -3   4  -7 6972.53 602.645   5
  -3   4  -8-3.57929 81.4926   5
  -3   4  -8 97.4284 155.943   4
   3  -4   8-0.31376 44.6610   1
  -3   4  -8-1.05583 95.4939   3
   3  -4   8-92.1513 61.1615   2
   3  -4   8 62.1665 62.5847   5
  -3   4  -9 16602.4 1532.52   4
   3  -4   9 20134.3 1507.72   2
  -3   4  -9 13125.5 1443.28   3
   3  -4   9 17447.0 937.012   1
   3  -4   9 16150.9 1001.57   5
   3  -4  10 61.3024 67.7357   1
  -3   4 -10 157.005 163.489   4
  -3   4 -10 288.911 315.888   3
   3  -4  10 96.1777 115.127   2
   3  -4  10 128.656 94.2786   5
  -3   4 -11 4531.57 884.116   4
   3  -4  11 5706.84 926.625   2
  -3   4 -12-107.475 155.836   4
  -3   4 -13 55.4360 114.887   4
  -3   3  12-79.1735 54.5194   5
   3  -3 -12 350.280 215.384   4
   3  -3 -11 4109.99 673.460   4
   3  -3 -11 4046.38 532.274   6
  -3   3  11 5204.14 789.316   5
  -3   3  10 554.576 280.668   5
   3  -3 -10 412.849 178.678   4
   3  -3 -10 274.850 159.138   6
   3  -3  -9 10134.2 821.997   1
   3  -3  -9 11176.9 1066.13   4
   3  -3  -9 10344.0 866.148   6
  -3   3   9 11639.2 1197.19   5
  -3   3   8 962.748 346.589   5
   3  -3  -8 1863.35 329.722   1
   3  -3  -8 1811.61 335.291   6
   3  -3  -8 1358.14 666.316   2
   3  -3  -8 2110.57 463.996   4
  -3   3   7 2078.94 495.220   5
   3  -3  -7 2003.96 736.235   2
   3  -3  -7 2257.79 358.263   6
   3  -3  -7 2028.45 334.617   1
  -3   3   6 1947.01 509.396   5
   3  -3  -6 1393.29 592.281   2
   3  -3  -6 2053.37 344.613   6
   3  -3  -6 2091.48 326.104   1
   3  -3  -5 40254.2 1406.10   3
   3  -3  -5 39128.1 1588.77   1
  -3   3   5 36800.4 2147.13   5
  -3   3   4 2492.48 476.161   5
   3  -3  -4 1726.05 541.437   2
   3  -3  -4 2124.11 288.377   3
  -3   3   4 1523.34 291.976   3
   3  -3  -3 86378.0 4380.77   2
   3  -3  -3 98436.9 2981.45   3
  -3   3   3 91922.3 3169.64   3
  -3   3   3 94723.9 3467.06   5
  -3   3   2 1356.00 302.320   5
   3  -3  -2 1481.15 511.057   2
  -3   3   2 1133.43 270.202   3
   3  -3  -2 1031.69 223.051   3
  -3   3   2 1177.13 248.100   7
   3  -3  -1 87313.2 3571.58   2
  -3   3   1 91878.5 3236.89   3
  -3   3   1 87641.4 2934.63   5
   3  -3   0 26901.8 1575.27   2
  -3   3   0 27417.0 1297.15   7
   3  -3   0 25008.2 1145.05   7
  -3   3   0 28303.9 1559.15   3
   3  -3   1 54097.4 2196.08   2
  -3   3  -1 56195.1 2083.99   7
   3  -3   1 50525.8 1913.60   7
  -3   3  -1 55134.3 2413.01   3
  -3   3  -1 53656.7 1736.74   5
   3  -3   2 319.539 134.268   4
  -3   3  -2 350.645 140.477   7
   3  -3   2 459.464 161.955   7
   3  -3   2 351.508 103.902   2
  -3   3  -2 526.731 231.974   3
  -3   3  -2 527.000 110.389   5
   3  -3   3 48267.5 2000.73   2
   3  -3   3 49267.3 1978.81   4
  -3   3  -3 49068.7 2011.04   7
   3  -3   3 47219.0 1791.26   6
  -3   3  -3 53782.6 2484.14   3
   3  -3   3 49605.7 2014.96   7
  -3   3  -3 51514.1 1479.05   5
  -3   3  -4 203.958 62.6586   5
   3  -3   4 98.8457 77.2100   4
   3  -3   4 58.5294 46.3830   7
   3  -3   4 145.024 63.6844   6
   3  -3   4 286.801 143.492   2
  -3   3  -4 33.5504 134.371   3
   3  -3   4-34.4222 119.186   3
   3  -3   5 91127.9 3102.78   2
   3  -3   5 85745.1 2879.08   4
   3  -3   5 83836.8 2882.81   6
   3  -3   5 85028.3 3184.32   7
  -3   3  -5 93334.3 3680.16   3
   3  -3   5 89098.1 3264.19   3
   3  -3   5 89378.2 2494.46   5
  -3   3  -5 81080.7 2347.58   5
  -3   3  -6 0.29820 40.4130   5
  -3   3  -6-27.0022 65.4778   4
   3  -3   6 75.8875 72.5293   4
   3  -3   6-82.6624 141.579   6
  -3   3  -6 80.7645 94.5125   3
   3  -3   6 73.0342 89.2785   7
   3  -3   6-86.7220 117.262   2
   3  -3   6 63.8556 67.5351   3
   3  -3   6 13.9212 44.7216   5
  -3   3  -7 15238.9 1257.85   4
   3  -3   7 14110.4 954.007   4
   3  -3   7 15360.3 1161.47   3
  -3   3  -7 15421.9 1407.14   3
   3  -3   7 15528.5 881.014   5
   3  -3   7 13403.9 775.848   1
  -3   3  -7 13112.0 928.299   5
  -3   3  -8-193.422 177.460   4
  -3   3  -8 16.3433 155.972   3
   3  -3   8-69.7637 153.188   2
   3  -3   8 23.8722 49.1506   1
   3  -3   8 6.85977 41.0794   5
  -3   3  -9 8994.55 1071.97   4
  -3   3  -9 7922.42 1028.46   3
   3  -3   9 9664.46 597.616   1
   3  -3   9 9482.42 782.764   5
  -3   3  -9 6882.38 790.901   5
  -3   3 -10 0.71994 135.436   5
  -3   3 -10 183.224 185.211   4
   3  -3  10-20.9267 34.8577   1
  -3   3 -10-6.91078 135.461   3
   3  -3  10-41.8926 89.3763   5
  -3   3 -11 6732.85 1064.51   4
   3  -3  11 6104.36 721.461   5
  -3   3 -11 4486.23 804.699   3
  -3   3 -12 80.0080 145.521   4
  -3   3 -12 97.7019 93.2690   3
   3  -3  12 42.5070 47.5369   5
  -3   3 -13 2049.34 718.180   4
  -3   2  12 391.282 240.738   5
   3  -2 -12 210.182 158.947   4
   3  -2 -12 278.360 137.319   6
  -3   2  11 1068.70 392.515   5
   3  -2 -11 584.807 262.051   4
   3  -2 -11 1471.16 357.395   6
  -3   2  10 905.490 360.936   5
   3  -2 -10 637.189 224.576   6
   3  -2 -10 1147.87 329.393   4
  -3   2   9 209.633 125.468   5
   3  -2  -9 66.7951 39.0956   1
   3  -2  -9 36.5918 81.1029   6
   3  -2  -8 2597.01 397.531   1
  -3   2   8 2204.81 560.015   5
   3  -2  -8 2407.25 411.988   6
   3  -2  -8 1852.89 813.502   2
   3  -2  -8 2678.13 510.210   4
   3  -2  -7 58548.8 2184.23   1
   3  -2  -7 57603.1 2396.69   6
  -3   2   7 55611.9 2886.06   5
   3  -2  -6 8081.73 1435.23   2
   3  -2  -6 9093.10 803.876   6
  -3   2   6 8971.97 1037.81   5
   3  -2  -6 9517.40 731.781   1
  -3   2   5 17064.6 847.280   3
  -3   2   5 17448.9 1365.97   5
   3  -2  -5 17919.5 996.333   1
   3  -2  -5 13868.0 1785.05   2
   3  -2  -4 4280.38 871.351   2
  -3   2   4 4182.12 423.679   3
  -3   2   4 4060.85 595.732   5
  -3   2   3 3902.11 439.547   3
   3  -2  -3 3240.56 338.988   3
  -3   2   3 4607.54 609.797   5
   3  -2  -2 14977.4 1335.96   2
  -3   2   2 17718.4 867.985   7
  -3   2   2 15386.8 939.394   3
   3  -2  -2 15793.1 852.641   3
   3  -2  -1 203428. 5429.86   3
   3  -2  -1 199295. 6056.59   2
  -3   2   1 220384. 5327.60   7
  -3   2   1 207152. 5679.54   3
   3  -2   0 9277.64 808.020   2
  -3   2   0 10339.5 810.587   3
  -3   2   0 10578.3 647.164   7
   3  -2   0 9438.83 562.166   7
   3  -2   0 9768.92 718.116   3
   3  -2   1 22505.4 1205.80   2
  -3   2  -1 23533.1 1283.48   2
   3  -2   1 20657.1 973.458   7
  -3   2  -1 22415.4 1046.24   7
  -3   2  -1 22512.8 1296.40   3
  -3   2  -1 21235.2 988.722   5
   3  -2   2 595.374 183.537   4
   3  -2   2 452.452 128.119   7
   3  -2   2 836.169 184.921   2
  -3   2  -2 715.422 182.058   7
  -3   2  -2 714.933 233.283   3
  -3   2  -2 1007.87 245.545   2
  -3   2  -2 593.149 129.132   5
   3  -2   3 120673. 3677.43   4
   3  -2   3 125837. 3773.15   2
  -3   2  -3 130632. 4156.95   3
   3  -2   3 115572. 3583.15   7
  -3   2  -3 125755. 3254.64   5
   3  -2   4 1647.12 291.303   4
   3  -2   4 1621.47 299.510   7
   3  -2   4 1463.87 216.552   5
  -3   2  -4 2162.28 452.993   3
   3  -2   4 2081.85 371.756   2
  -3   2  -4 1714.96 210.751   5
  -3   2  -5 95570.9 3312.65   4
   3  -2   5 85018.5 2926.38   4
   3  -2   5 91788.5 3206.48   7
  -3   2  -5 91844.0 3523.74   3
   3  -2   5 89842.7 3144.11   3
   3  -2   5 87400.6 2706.54   5
  -3   2  -5 90865.1 2512.49   5
  -3   2  -6 1153.05 190.889   5
  -3   2  -6 1177.27 308.614   4
   3  -2   6 1149.26 308.623   7
   3  -2   6 845.730 209.278   4
   3  -2   6 957.831 224.858   6
  -3   2  -6 1133.17 342.402   3
   3  -2   6 1105.05 268.754   3
   3  -2   6 1278.03 225.357   5
  -3   2  -7 43114.4 2156.71   4
   3  -2   7 39794.3 1712.39   4
   3  -2   7 44130.9 2194.25   7
   3  -2   7 36020.5 1755.64   6
  -3   2  -7 40512.3 2216.75   3
   3  -2   7 38153.9 1837.41   3
   3  -2   7 40817.0 1660.10   5
  -3   2  -7 37960.2 1593.62   5
  -3   2  -8 595.377 243.630   4
   3  -2   8 315.418 95.7427   1
  -3   2  -8 467.548 242.914   3
   3  -2   8 543.484 192.893   3
   3  -2   8 371.193 157.339   5
   3  -2   9 16023.2 709.755   1
  -3   2  -9 15478.5 1411.61   4
  -3   2  -9 14044.7 1304.35   3
   3  -2   9 14150.6 1050.25   3
   3  -2   9 14653.0 1040.07   5
  -3   2  -9 12176.4 1072.74   5
  -3   2 -10 133.037 102.920   5
  -3   2 -10 38.8214 92.9189   4
   3  -2  10 23.8471 71.8153   5
   3  -2  10 128.232 58.6560   1
  -3   2 -10-0.87516 136.921   3
  -3   2 -11 17491.7 1730.10   4
  -3   2 -11 15021.2 1384.96   3
   3  -2  11 16141.5 1243.25   5
  -3   2 -12-6.50324 114.748   3
   3  -2  12-66.4073 127.101   5
  -3   2 -13 941.608 418.806   4
  -3   2 -13 1015.71 356.756   3
   3  -2  13 1217.53 365.082   5
   3  -1 -13 928.864 300.493   6
  -3   1  12 45.2888 103.473   5
   3  -1 -12 1.73107 107.110   4
   3  -1 -12-97.8363 104.247   6
  -3   1  11 2868.63 623.073   5
   3  -1 -11 2621.61 531.930   4
   3  -1 -11 1626.29 396.714   6
   3  -1 -10 443.822 206.451   4
  -3   1  10 1085.43 394.302   5
   3  -1 -10 962.287 305.535   6
  -3   1   9 6229.99 947.554   5
   3  -1  -9 8514.52 797.137   1
   3  -1  -9 8959.95 948.990   4
   3  -1  -9 7989.86 888.579   6
  -3   1   8 3905.35 744.069   5
   3  -1  -8 5551.43 612.582   1
   3  -1  -8 4291.86 1137.26   2
   3  -1  -8 4315.49 675.336   4
   3  -1  -8 3564.51 565.879   6
   3  -1  -7 2826.84 422.718   1
  -3   1   7 1246.34 412.517   5
   3  -1  -7 2627.47 841.865   2
  -3   1   7 3607.27 820.296   2
   3  -1  -7 1958.65 401.830   6
   3  -1  -6 4920.42 532.134   1
  -3   1   6 6012.07 981.416   2
   3  -1  -6 3263.24 892.193   2
   3  -1  -6 4235.29 581.386   6
  -3   1   6 4893.63 749.312   5
  -3   1   5 9855.19 524.166   3
   3  -1  -5 10603.5 903.083   6
  -3   1   5 10961.7 1057.22   5
   3  -1  -4 4641.70 899.014   2
  -3   1   4 5384.99 408.105   3
  -3   1   4 5656.19 685.370   5
   3  -1  -3 72330.7 3338.48   2
  -3   1   3 68757.1 2123.08   3
   3  -1  -2 198.374 182.444   2
  -3   1   2 260.768 88.2468   7
  -3   1   2 292.086 118.166   3
  -3   1   1 3074.56 250.668   7
  -3   1   1 2677.73 329.845   3
  -3   1   0 3988.29 294.736   7
   3  -1   0 3301.26 425.562   2
   3  -1   0 3518.77 259.520   7
  -3   1   0 3553.17 410.449   3
   3  -1   0 3813.41 397.494   3
   3  -1   1 127859. 3704.57   2
  -3   1  -1 128957. 3736.01   3
  -3   1  -1 124409. 3494.64   5
   3  -1   1 121274. 3203.94   7
   3  -1   2 26337.1 1256.67   2
  -3   1  -2 23833.2 1278.73   3
  -3   1  -2 23214.1 1039.21   5
   3  -1   2 22785.3 986.226   7
   3  -1   3 58836.8 2030.80   7
  -3   1  -3 64402.8 2414.04   3
   3  -1   3 60349.0 2009.11   5
  -3   1  -3 58494.3 1923.56   5
   3  -1   4 6567.12 688.525   2
   3  -1   4 5685.94 533.315   7
  -3   1  -4 5625.57 633.472   3
   3  -1   4 5534.75 482.743   5
  -3   1  -4 5500.81 447.009   5
  -3   1  -5 129319. 4030.11   4
   3  -1   5 117187. 3685.65   3
   3  -1   5 122979. 3800.74   7
  -3   1  -5 128815. 4100.98   3
   3  -1   5 121510. 3521.08   5
  -3   1  -5 123584. 3339.51   5
  -3   1  -6 630.790 131.253   5
  -3   1  -6 833.610 257.393   4
   3  -1   6 749.504 198.698   4
  -3   1  -6 890.047 254.125   3
   3  -1   6 699.596 196.088   3
   3  -1   6 572.281 166.548   5
  -3   1  -7 13030.5 1109.17   4
   3  -1   7 12784.0 868.675   4
   3  -1   7 13354.1 907.997   6
  -3   1  -7 12937.6 1117.28   3
   3  -1   7 13141.6 893.696   5
  -3   1  -8 791.370 209.091   5
  -3   1  -8 1295.22 361.236   4
   3  -1   8 896.573 247.770   6
   3  -1   8 787.490 132.196   1
  -3   1  -8 704.631 302.765   3
   3  -1   8 890.135 135.376   1
   3  -1   8 824.844 225.152   5
  -3   1  -9 9660.15 1080.26   4
  -3   1  -9 10085.9 1031.50   3
   3  -1   9 10204.0 449.338   1
   3  -1   9 9732.73 865.059   5
  -3   1  -9 8069.45 802.143   5
   3  -1   9 9199.41 450.736   1
  -3   1 -10-77.6545 105.429   5
   3  -1  10 37.0599 24.1290   1
   3  -1  10 45.1328 30.3835   1
  -3   1 -10 84.2271 160.645   4
  -3   1 -10 50.8827 111.519   3
   3  -1  10-135.944 167.518   5
  -3   1 -11 16854.1 1665.92   4
   3  -1  11 14617.4 1206.09   5
  -3   1 -11 13336.0 1250.17   3
   3  -1  12 301.740 178.966   5
  -3   1 -12 227.384 255.138   4
  -3   1 -12 643.528 278.789   3
  -3   1 -13 9710.18 1451.06   4
  -3   1 -13 7930.04 971.062   3
   3  -1  13 8623.66 1019.22   5
   3  -1  14 249.060 146.666   5
   3  -1  15 1321.64 429.662   5
   3   0 -13 843.762 293.019   6
  -3   0  12 334.097 238.295   5
   3   0 -12 410.897 207.574   6
   3   0 -12 157.241 110.158   4
  -3   0  11 2901.13 659.398   5
   3   0 -11 3944.29 668.020   4
   3   0 -11 3458.89 617.398   6
  -3   0  10 2714.60 619.360   5
   3   0 -10 3563.85 612.688   4
   3   0 -10 3092.38 574.699   6
   3   0  -9 1058.58 333.572   6
  -3   0   9 1704.17 519.706   5
   3   0  -9 772.743 258.854   4
   3   0  -9 792.190 231.908   1
  -3   0   8 1087.56 429.844   5
   3   0  -8 1184.10 639.633   2
   3   0  -8 1067.48 320.178   4
   3   0  -8 1304.21 353.466   6
   3   0  -8 888.828 240.804   1
  -3   0   7 28061.6 2191.91   2
   3   0  -7 25010.4 1427.57   1
   3   0  -7 26943.9 1636.16   4
   3   0  -7 24801.1 1609.40   6
  -3   0   7 20751.5 1717.68   5
   3   0  -7 19025.4 2237.37   2
  -3   0   6 2098.16 483.745   5
   3   0  -6 3429.34 467.907   1
   3   0  -6 2185.62 732.930   2
  -3   0   6 2605.47 170.998   3
   3   0  -6 2690.72 489.618   6
  -3   0   5 33813.6 1086.32   3
   3   0  -5 32994.5 1796.40   6
  -3   0   5 33017.1 1918.02   5
   3   0  -5 29004.0 2467.64   2
   3   0  -4 6787.96 979.898   2
  -3   0   4 7331.91 450.739   3
   3   0  -3 19004.7 1558.48   2
  -3   0   3 18449.8 838.415   3
   3   0  -2 555.628 291.973   2
  -3   0   2 726.479 219.782   1
  -3   0   2 43.4009 61.0038   2
  -3   0   2 660.363 186.484   3
   3   0  -1 81193.7 2815.43   2
  -3   0   1 87564.0 2566.52   3
   3   0   0 62346.4 2260.64   2
  -3   0   0 69803.9 2223.92   3
   3   0   1 242167. 6001.21   2
  -3   0  -1 251936. 5999.84   3
  -3   0  -1 225207. 5851.56   5
   3   0   1 217268. 5279.24   7
   3   0   2 11638.8 823.202   2
  -3   0  -2 9318.94 645.985   5
  -3   0  -2 11419.2 805.348   3
   3   0   2 10512.5 626.980   1
  -3   0  -3 58867.7 2005.88   5
   3   0   3 59677.4 2079.99   5
   3   0   3 58339.7 1880.03   1
  -3   0  -3 64013.5 2328.55   3
  -3   0  -4 4524.16 520.744   4
  -3   0  -4 4656.96 547.795   3
   3   0   4 3881.47 426.931   5
  -3   0  -4 4297.82 410.192   5
   3   0   4 3995.55 339.641   1
  -3   0  -5 15227.6 1038.46   4
  -3   0  -5 15644.0 1056.70   3
   3   0   5 15020.3 905.789   5
  -3   0  -5 14173.8 796.210   5
   3   0   5 13845.1 663.354   1
  -3   0  -6 2433.55 416.889   4
   3   0   6 1841.92 280.226   6
  -3   0  -6 1837.92 344.180   3
   3   0   6 1743.88 201.094   1
   3   0   6 1469.58 286.984   5
   3   0   7 9265.30 471.874   1
  -3   0  -7 10451.1 964.995   4
   3   0   7 9777.46 726.907   4
   3   0   7 9345.46 698.758   6
  -3   0  -7 9647.94 891.678   3
   3   0   7 9853.74 796.398   5
  -3   0  -7 10708.1 689.720   5
  -3   0  -8 41.4162 43.7129   5
   3   0   8 105.564 50.0930   1
  -3   0  -8 140.398 170.939   4
   3   0   8 78.0960 76.0835   4
   3   0   8-20.7919 49.5455   6
  -3   0  -8 65.9213 143.525   3
   3   0   8 213.563 167.634   5
  -3   0  -9 18559.3 1508.23   4
   3   0   9 19317.8 549.978   1
   3   0   9 18966.6 534.227   1
  -3   0  -9 16398.7 1277.63   3
   3   0   9 18101.4 1247.39   5
  -3   0  -9 17762.2 1158.49   5
   3   0  10 370.895 160.909   5
  -3   0 -10 363.699 191.292   4
  -3   0 -10 577.035 252.590   3
  -3   0 -11 19752.4 1781.85   4
  -3   0 -11 17439.5 1382.67   3
   3   0  11 18381.9 1398.16   5
   3   0  12 61.1622 48.7698   5
  -3   0 -12 1.31546 131.256   4
  -3   0 -12 277.434 219.690   3
  -3   0 -13 5128.94 1029.67   4
  -3   0 -13 3777.14 631.763   3
   3   0  13 4010.25 691.041   5
   3   0  14-168.810 186.576   5
  -3   0 -14 478.322 384.309   4
   3   0  15 1576.89 479.796   5
   3   1 -13 241.129 176.576   6
  -3  -1  12 873.626 334.875   5
   3   1 -12 1201.26 386.609   4
   3   1 -12 869.553 323.178   6
  -3  -1  11 3822.43 749.849   5
   3   1 -11 4108.41 695.013   6
   3   1 -11 4056.01 709.938   4
  -3  -1  10 1031.57 413.746   5
   3   1 -10 540.273 272.461   6
   3   1 -10 623.936 273.780   4
   3   1  -9 7807.54 892.697   4
  -3  -1   9 7773.31 887.935   7
   3   1  -9 7174.79 914.170   6
  -3  -1   9 6068.58 950.142   5
   3   1  -9 6277.04 713.302   1
   3   1  -8 267.037 158.423   1
  -3  -1   8 652.050 377.983   5
   3   1  -8 668.592 271.091   4
  -3  -1   8 326.036 172.794   7
  -3  -1   8 550.879 347.509   2
   3   1  -8 133.136 118.301   6
  -3  -1   7 7731.51 1024.49   2
  -3  -1   7 4151.69 729.424   5
   3   1  -7 4266.65 1011.30   2
   3   1  -7 4379.65 567.082   1
   3   1  -7 7069.56 801.375   4
  -3  -1   7 5475.98 262.646   3
  -3  -1   7 5395.85 299.525   3
   3   1  -7 5192.87 734.954   6
  -3  -1   7 5250.61 512.569   1
  -3  -1   6 295.848 140.643   1
  -3  -1   6 315.908 153.327   5
   3   1  -6-85.7792 299.601   2
  -3  -1   6 189.760 251.246   2
   3   1  -6 256.119 166.229   6
   3   1  -6-42.2182 96.8617   1
  -3  -1   5 27477.4 1702.23   2
  -3  -1   5 21538.4 1488.24   5
   3   1  -5 22018.3 1324.79   1
   3   1  -5 23080.8 1542.18   6
  -3  -1   5 25170.7 1192.18   1
  -3  -1   5 24903.6 1185.33   7
   3   1  -5 19581.9 1915.60   2
  -3  -1   4 1942.38 301.294   1
  -3  -1   4 1693.76 246.581   7
   3   1  -4 1845.18 493.177   2
  -3  -1   4 2593.14 451.469   2
   3   1  -4 2352.70 456.818   6
  -3  -1   3 114356. 3599.09   2
  -3  -1   3 107031. 2829.09   7
  -3  -1   3 109286. 3216.53   1
   3   1  -2 31694.4 1608.73   2
  -3  -1   2 36276.1 1606.54   2
  -3  -1   2 34012.1 1009.98   7
  -3  -1   2 38766.7 1511.88   1
   3   1  -1 46176.0 1823.22   2
  -3  -1   1 41290.5 1754.84   2
  -3  -1   1 44430.8 1693.23   1
   3   1   0 11897.7 790.406   2
  -3  -1   0 14648.2 964.616   2
  -3  -1   0 13645.5 814.685   1
   3   1   1 1602.64 269.165   2
  -3  -1  -1 2001.03 292.227   1
   3   1   2 13897.5 764.783   1
   3   1   2 13736.5 826.513   4
   3   1   2 13813.7 874.816   5
   3   1   3 73995.1 2256.18   1
   3   1   3 76220.2 2536.99   5
  -3  -1  -3 73975.5 2426.14   5
  -3  -1  -4 458.044 161.211   4
   3   1   4 639.460 139.654   1
   3   1   4 492.818 131.261   5
  -3  -1  -4 615.026 161.716   5
   3   1   5 150719. 3950.58   1
  -3  -1  -5 163376. 4719.43   4
   3   1   5 160846. 4541.16   5
   3   1   6 19234.7 768.514   1
  -3  -1  -6 22023.4 1334.50   4
  -3  -1  -6 22151.6 1313.91   3
   3   1   6 20786.5 1181.76   5
  -3  -1  -7 54130.8 2347.58   4
   3   1   7 46861.0 1404.27   1
   3   1   7 48696.4 1795.73   6
  -3  -1  -7 51481.3 2246.19   3
   3   1   7 52962.7 2143.85   5
  -3  -1  -7 50930.4 1840.39   5
   3   1   8 517.527 73.5033   1
  -3  -1  -8 663.619 177.232   5
  -3  -1  -8 716.239 257.115   4
   3   1   8 625.994 172.420   4
   3   1   8 588.155 169.559   6
  -3  -1  -8 350.481 127.932   3
   3   1   8 666.132 224.777   5
  -3  -1  -9 8008.13 957.177   4
   3   1   9 7962.08 699.632   6
  -3  -1  -9 6248.10 741.242   3
   3   1   9 7476.50 793.812   5
  -3  -1  -9 7155.55 667.699   5
  -3  -1 -10 2894.42 625.188   4
   3   1  10 3241.58 545.658   5
  -3  -1 -10 2681.73 480.865   3
  -3  -1 -11 4882.42 864.021   4
  -3  -1 -11 4166.96 616.867   3
   3   1  11 4391.97 675.949   5
   3   1  12-15.0017 60.1133   5
  -3  -1 -12-6.45359 100.714   4
  -3  -1 -12 212.761 151.390   3
   3   1  13 2641.65 585.047   5
  -3  -1 -13 3394.87 848.880   4
  -3  -1 -13 3033.64 539.060   3
   3   1  14 35.8132 57.3477   5
  -3  -1 -14 224.455 292.124   4
   3   1  15 2002.52 554.411   5
  -3  -2  12-198.980 220.379   5
   3   2 -12 203.314 180.577   4
   3   2 -12-28.5062 142.083   6
  -3  -2  11 1120.83 387.336   5
   3   2 -11 1181.79 377.420   4
   3   2 -11 1386.34 428.818   6
  -3  -2  10 3815.78 778.456   5
   3   2 -10 4411.18 706.123   4
   3   2 -10 3595.31 684.632   6
   3   2  -9 4787.40 707.881   4
   3   2  -9 4264.64 603.145   1
  -3  -2   9 4928.10 861.963   5
  -3  -2   9 4754.19 495.210   1
   3   2  -9 4080.60 729.789   6
  -3  -2   8 3977.56 704.696   2
  -3  -2   8 3007.71 640.124   5
   3   2  -8 4033.56 627.498   4
   3   2  -8 2890.08 483.133   1
  -3  -2   8 3242.98 290.387   3
   3   2  -8 3894.37 700.406   6
  -3  -2   8 3519.33 431.721   1
  -3  -2   8 4629.63 661.032   7
  -3  -2   7 22806.5 1619.24   2
   3   2  -7 22657.8 1452.22   4
  -3  -2   7 21332.6 1361.51   7
  -3  -2   7 16787.3 887.968   3
   3   2  -7 20193.1 1608.12   6
   3   2  -7 15312.5 1164.08   1
  -3  -2   7 16959.3 1498.37   5
  -3  -2   7 19047.4 1082.62   1
   3   2  -7 15954.8 1841.33   2
   3   2  -6 797.142 233.699   1
  -3  -2   6 873.970 325.321   5
  -3  -2   6 1216.05 244.360   1
   3   2  -6 1322.16 504.564   2
   3   2  -6 1243.90 368.486   4
  -3  -2   6 1555.28 378.376   2
   3   2  -6 1014.89 352.549   6
  -3  -2   5 57035.3 2078.96   1
  -3  -2   5 62163.6 2463.78   2
   3   2  -5 43915.3 2126.94   1
  -3  -2   5 59832.7 2146.34   7
   3   2  -5 52467.3 2659.65   6
   3   2  -5 40417.4 2823.30   2
  -3  -2   4 3673.98 434.754   1
  -3  -2   4 4270.22 525.388   2
   3   2  -4 2763.17 421.989   1
   3   2  -4 2829.73 584.685   2
   3   2  -4 3789.34 646.369   6
  -3  -2   4 3749.30 409.061   7
  -3  -2   3 18659.4 1034.64   1
   3   2  -3 17104.8 1313.93   2
  -3  -2   3 18265.6 1075.14   2
  -3  -2   3 17535.2 856.070   7
  -3  -2   2 2789.19 370.270   1
  -3  -2   2 2421.59 352.268   2
  -3  -2   2 2513.28 251.641   7
   3   2  -2 2629.92 393.142   2
  -3  -2   1 736.974 212.183   1
   3   2  -1 490.464 86.1240   7
   3   2   0 25576.1 1181.53   2
   3   2   0 23601.2 803.016   7
  -3  -2  -1 43258.1 1690.10   1
   3   2   1 43945.4 1760.06   2
  -3  -2  -2 51326.6 1829.30   1
   3   2   2 50802.0 1772.10   1
   3   2   2 48983.3 1926.43   5
   3   2   3 197343. 4838.74   1
   3   2   3 199994. 5241.06   5
  -3  -2  -4 8776.41 625.729   1
  -3  -2  -4 10725.4 784.274   4
   3   2   4 8153.76 601.791   4
   3   2   4 10071.0 591.501   1
   3   2   4 10380.2 790.298   5
  -3  -2  -5 66508.4 2372.99   4
   3   2   5 59648.7 1801.91   1
   3   2   5 65190.6 2353.69   5
  -3  -2  -6 2786.94 444.331   4
   3   2   6 2648.87 336.851   4
   3   2   6 2723.67 255.722   1
   3   2   6 2742.75 420.656   5
  -3  -2  -6 3009.36 380.708   5
  -3  -2  -6 3325.66 329.068   1
  -3  -2  -7 48186.4 2176.76   4
   3   2   7 45522.4 1701.45   4
  -3  -2  -7 48225.7 2122.92   3
   3   2   7 47622.6 2058.07   5
  -3  -2  -7 48284.4 1780.82   5
  -3  -2  -8 659.562 182.360   5
  -3  -2  -8 434.094 193.297   4
   3   2   8 794.387 216.114   4
   3   2   8 709.530 178.652   6
   3   2   8 501.264 75.9292   1
  -3  -2  -8 559.362 230.976   3
   3   2   8 624.654 216.753   5
  -3  -2  -9 5419.64 782.123   4
  -3  -2  -9 5625.28 675.646   3
   3   2   9 5461.11 541.568   6
   3   2   9 6007.54 733.758   5
  -3  -2 -10 1235.78 407.638   4
   3   2  10 983.500 236.916   6
  -3  -2 -10 1219.07 336.537   3
   3   2  10 1415.11 380.060   5
  -3  -2 -11 9855.28 1237.87   4
  -3  -2 -11 7353.08 800.171   3
   3   2  11 9527.83 1043.85   5
   3   2  12 766.380 301.282   5
  -3  -2 -12 792.420 280.524   3
  -3  -2 -12 863.454 404.734   4
  -3  -2 -13 9615.02 1388.03   4
  -3  -2 -13 8322.80 877.177   3
   3   2  13 8386.61 1065.03   5
   3   2  14 203.833 155.525   5
  -3  -2 -14 720.694 394.527   4
   3   2  15 1798.66 539.874   5
   3   3 -12 407.667 264.652   4
  -3  -3  11 1652.78 498.130   5
   3   3 -11 2527.30 580.420   4
   3   3 -11 3004.52 660.890   6
  -3  -3  10 1675.75 312.991   1
  -3  -3  10 1402.84 477.831   5
   3   3 -10 1715.39 437.328   4
   3   3 -10 2124.47 556.920   6
   3   3  -9 5238.26 743.575   4
   3   3  -9 3814.07 723.496   6
  -3  -3   9 4359.15 839.881   5
  -3  -3   9 4485.83 521.019   1
  -3  -3   8 7007.13 838.394   2
  -3  -3   8 6085.49 807.381   7
   3   3  -8 7172.54 830.490   4
   3   3  -8 6077.38 732.363   1
   3   3  -8 6939.27 979.733   6
  -3  -3   8 5097.45 847.779   5
  -3  -3   8 5487.69 586.624   1
  -3  -3   7 3693.19 471.337   1
  -3  -3   7 4871.01 645.321   2
  -3  -3   7 3314.21 648.187   5
   3   3  -7 3728.21 588.172   4
   3   3  -7 3245.41 541.170   1
  -3  -3   7 3200.34 439.214   3
   3   3  -7 3196.67 689.309   6
  -3  -3   7 4714.89 649.137   7
  -3  -3   6 87.5440 75.4537   7
  -3  -3   6 133.347 134.848   5
   3   3  -6 284.694 166.058   4
  -3  -3   6 134.953 117.800   1
   3   3  -6 160.924 66.1551   1
  -3  -3   6 164.114 114.626   2
   3   3  -6 48.5329 196.102   6
  -3  -3   5 8489.94 712.732   1
  -3  -3   5 9393.83 781.930   2
   3   3  -5 9128.94 843.746   4
   3   3  -5 6772.65 734.346   1
   3   3  -5 8625.88 1047.31   6
   3   3  -5 6619.62 1010.04   2
  -3  -3   4 3230.00 441.941   1
  -3  -3   4 3003.52 400.208   2
   3   3  -4 2107.62 380.240   1
  -3  -3   4 2609.54 373.652   7
   3   3  -4 2294.04 524.850   2
   3   3  -4 2798.45 586.422   6
   3   3  -3 63431.7 2769.76   2
  -3  -3   3 72596.7 2496.96   1
  -3  -3   3 72985.8 2407.94   2
   3   3  -3 59592.8 2491.90   1
  -3  -3   3 73339.3 2345.74   7
   3   3  -3 67386.0 3098.58   6
   3   3  -2 12288.6 863.890   2
  -3  -3   2 13652.4 904.392   1
   3   3  -2 12785.4 941.299   1
  -3  -3   2 13085.4 747.889   7
   3   3  -1 54657.9 1929.06   2
  -3  -3   1 58572.2 2108.94   1
   3   3  -1 52249.8 1682.05   7
   3   3   0 23511.8 1117.87   2
   3   3   0 21998.3 932.366   7
  -3  -3  -1 79453.4 2610.24   1
   3   3   1 69437.4 2191.10   7
   3   3   2 1400.35 252.738   1
   3   3   2 957.779 174.261   4
  -3  -3  -2 1621.27 317.304   1
   3   3   2 1366.04 287.129   5
  -3  -3  -3 15604.7 931.999   1
   3   3   3 13077.2 729.539   4
   3   3   3 13403.0 777.938   1
   3   3   3 16116.0 1046.36   5
   3   3   4 271.678 95.6330   1
  -3  -3  -4 198.918 97.7569   4
   3   3   4 389.574 122.625   4
  -3  -3  -4 222.346 104.641   1
   3   3   4 355.665 142.944   5
  -3  -3  -5 112629. 3409.94   1
  -3  -3  -5 131987. 3745.41   4
   3   3   5 109155. 3098.22   1
   3   3   5 127476. 3834.53   5
  -3  -3  -6 4381.71 439.699   1
  -3  -3  -6 6403.82 656.939   4
   3   3   6 4918.09 445.064   4
   3   3   6 5087.27 370.266   1
   3   3   6 6188.73 662.410   5
  -3  -3  -7 14262.2 788.597   1
  -3  -3  -7 18273.3 1241.62   4
   3   3   7 16845.5 903.190   4
   3   3   7 14402.0 635.673   1
   3   3   7 16725.8 1182.80   5
  -3  -3  -7 17186.7 992.233   5
  -3  -3  -8 5452.66 706.348   4
   3   3   8 4536.32 474.647   4
   3   3   8 4197.14 275.509   1
   3   3   8 4845.43 654.397   5
  -3  -3  -8 4725.29 505.161   5
  -3  -3  -8 5750.71 414.184   1
  -3  -3  -9 17231.8 1408.46   4
   3   3   9 15721.7 910.433   6
  -3  -3  -9 17948.7 1264.14   3
   3   3   9 16041.8 1281.83   5
  -3  -3 -10 977.135 377.271   4
   3   3  10 586.447 183.877   6
  -3  -3 -10 697.617 249.205   3
   3   3  10 376.846 239.747   5
  -3  -3 -11 25439.1 1983.34   4
   3   3  11 19663.7 1253.50   6
  -3  -3 -11 23495.7 1472.98   3
   3   3  11 24965.0 1791.07   5
   3   3  12-34.5202 67.0187   5
  -3  -3 -12 244.624 164.138   4
  -3  -3 -12 64.7209 100.429   3
  -3  -3 -13 5099.67 985.415   4
  -3  -3 -13 4357.98 610.331   3
   3   3  13 5156.48 852.602   5
   3   3  14 47.3014 81.0076   5
  -3  -3 -14-22.3057 153.919   4
   3   4 -12-54.2892 98.4341   4
  -3  -4  11 68.0010 144.996   5
   3   4 -11 603.277 276.114   4
  -3  -4  10 195.074 174.175   5
  -3  -4  10-46.4100 47.4023   1
   3   4 -10 122.611 114.433   4
   3   4 -10-112.668 189.499   6
  -3  -4   9 1072.95 395.671   5
   3   4  -9 2102.83 478.688   4
  -3  -4   9 1710.56 334.258   1
   3   4  -9 1661.49 515.927   6
  -3  -4   8 1732.08 490.287   5
  -3  -4   8 2105.10 378.259   1
   3   4  -8 2281.55 448.880   4
   3   4  -8 2376.02 583.959   6
  -3  -4   7 10496.1 853.448   1
   3   4  -7 10376.1 962.649   4
  -3  -4   7 8573.34 827.730   3
   3   4  -7 10913.8 1311.27   6
  -3  -4   7 11011.4 1060.11   7
  -3  -4   7 7887.89 1020.76   5
  -3  -4   6 749.727 287.928   5
  -3  -4   6 902.786 252.502   1
   3   4  -6 585.524 197.781   4
  -3  -4   6 908.254 280.715   7
   3   4  -6 426.823 209.836   6
  -3  -4   6 931.033 227.984   2
  -3  -4   5 18478.5 1159.54   1
  -3  -4   5 22187.4 1121.84   2
   3   4  -5 18676.3 1213.58   4
   3   4  -5 16308.5 1219.14   1
  -3  -4   5 21070.3 1330.24   7
   3   4  -5 18192.4 1669.80   6
   3   4  -5 15476.0 1526.96   2
  -3  -4   4 5369.37 601.926   1
  -3  -4   4 6483.30 585.618   2
   3   4  -4 4844.50 586.141   4
   3   4  -4 4053.59 714.803   2
   3   4  -4 6466.11 953.674   6
   3   4  -4 5093.26 627.928   1
   3   4  -3 9717.60 928.894   2
   3   4  -3 12125.4 1279.67   6
  -3  -4   3 12319.4 901.684   1
  -3  -4   3 12710.0 883.545   7
   3   4  -3 11133.8 918.013   1
   3   4  -2 28065.3 1328.70   2
  -3  -4   2 31118.5 1515.90   1
   3   4  -2 27103.5 1251.92   7
   3   4  -2 31833.4 1576.08   1
   3   4  -2 30354.2 2015.84   6
  -3  -4   2 30911.2 1380.62   7
   3   4  -1 99541.6 2918.28   2
  -3  -4   1 98954.2 3357.30   5
   3   4  -1 94027.2 2940.26   7
   3   4   0 981.508 199.457   7
  -3  -4   0 1030.71 342.240   1
   3   4   0 1058.17 210.344   2
  -3  -4   0 781.861 217.761   5
   3   4   1 23.3119 36.5323   4
   3   4   1-12.0327 62.7844   7
  -3  -4  -1 75.8185 63.5554   1
  -3  -4  -1 16.2802 58.3839   5
   3   4   2 6401.63 451.970   4
  -3  -4  -2 8812.61 745.971   1
   3   4   2 7959.32 620.597   1
   3   4   2 7716.33 734.218   5
  -3  -4  -2 7585.61 663.211   5
   3   4   3 43394.0 1534.54   4
  -3  -4  -3 54788.3 2097.70   1
   3   4   3 46871.0 1730.59   1
   3   4   3 52636.3 2149.92   5
  -3  -4  -3 47490.8 1901.30   5
  -3  -4  -4 7009.00 606.172   4
  -3  -4  -4 8363.93 713.809   1
   3   4   4 6365.31 468.371   4
   3   4   4 6552.45 515.903   1
   3   4   4 7652.72 750.193   5
  -3  -4  -5 5626.45 574.519   4
  -3  -4  -5 5686.36 577.012   1
   3   4   5 4771.07 407.710   4
   3   4   5 4460.91 393.046   1
   3   4   5 5985.75 664.237   5
  -3  -4  -6 405.258 154.116   5
   3   4   6 608.011 135.366   1
  -3  -4  -6 729.140 217.796   4
  -3  -4  -6 764.497 212.235   1
   3   4   6 824.623 259.801   5
  -3  -4  -7 33269.5 1437.20   1
  -3  -4  -7 32239.0 1697.17   4
   3   4   7 29300.4 1267.87   4
   3   4   7 27166.7 1059.86   1
   3   4   7 31790.5 1752.45   5
  -3  -4  -7 31653.2 1461.91   5
  -3  -4  -8 5711.17 503.152   1
  -3  -4  -8 6093.63 748.798   4
   3   4   8 4944.44 497.956   4
   3   4   8 5489.63 717.025   5
   3   4   8 4534.42 337.310   1
  -3  -4  -9 28133.8 1130.14   1
  -3  -4  -9 26937.2 1795.71   4
   3   4   9 25063.3 1691.96   5
  -3  -4 -10 10016.0 1137.22   4
   3   4  10 7307.98 620.637   6
   3   4  10 9223.36 1048.07   5
   3   4  11 1471.79 299.091   6
  -3  -4 -11 1944.02 534.577   4
  -3  -4 -11 1755.88 389.939   3
   3   4  11 1879.06 482.600   5
  -3  -4 -12 2833.46 679.384   4
  -3  -4 -12 2850.85 496.000   3
   3   4  12 2551.81 592.922   5
  -3  -4 -13 4575.55 922.693   4
  -3  -4 -13 5663.90 701.779   3
   3   4  13 5918.36 929.187   5
  -3  -4 -14-301.658 244.851   4
   3   4  14-15.3881 135.637   5
  -3  -5  11 701.817 309.585   5
  -3  -5  10-134.190 132.670   5
   3   5 -10 69.9910 55.6150   4
  -3  -5   9 2665.02 451.706   1
  -3  -5   9 2725.46 654.953   5
   3   5  -9 3314.74 599.396   4
   3   5  -9 3733.02 799.134   6
  -3  -5   8-103.128 136.556   5
  -3  -5   8 251.921 146.396   1
   3   5  -8 285.964 173.483   4
   3   5  -8 143.955 140.052   6
  -3  -5   7 3254.64 507.061   1
  -3  -5   7 2883.15 630.617   5
   3   5  -7 4287.90 591.537   4
   3   5  -7 5075.46 938.718   6
  -3  -5   6 443.580 214.980   5
  -3  -5   6 477.704 189.681   1
  -3  -5   6 502.744 220.166   3
   3   5  -6 711.128 196.129   4
   3   5  -6 1144.09 470.834   6
  -3  -5   6 605.528 245.783   7
  -3  -5   5 9201.77 841.731   1
   3   5  -5 10470.7 824.252   4
   3   5  -5 10181.7 1271.18   6
  -3  -5   5 10191.8 977.451   7
   3   5  -4 557.141 317.536   2
   3   5  -4 506.882 169.234   4
  -3  -5   4 464.494 170.156   7
   3   5  -4-64.8011 278.891   6
  -3  -5   4 549.198 220.884   1
   3   5  -3 16263.9 1214.34   2
  -3  -5   3 19323.6 1251.69   1
   3   5  -3 20722.6 1074.08   4
   3   5  -3 18161.5 1102.87   7
  -3  -5   3 20044.5 1241.81   7
   3   5  -3 21012.4 1329.01   1
   3   5  -3 20136.2 1804.48   6
   3   5  -2 7056.79 591.816   2
  -3  -5   2 7416.17 745.412   1
   3   5  -2 7001.66 597.233   4
   3   5  -2 7023.89 651.216   7
   3   5  -2 8901.79 813.574   1
   3   5  -2 8375.28 1074.45   6
  -3  -5   2 7435.63 769.821   5
   3   5  -1 14668.6 778.701   2
  -3  -5   1 14650.8 1049.44   1
   3   5  -1 12977.7 906.658   7
   3   5  -1 17597.6 1568.51   6
   3   5  -1 15723.0 1062.39   1
  -3  -5   1 12916.2 986.475   5
   3   5   0 1118.53 259.310   7
   3   5   0 1117.23 432.286   6
   3   5   0 1149.72 206.277   2
  -3  -5   0 1329.35 324.494   1
  -3  -5   0 1214.48 273.521   5
   3   5   1 66885.2 1946.97   4
  -3  -5  -1 73870.9 2726.08   1
   3   5   1 71217.0 2520.59   7
   3   5   1 74842.8 2536.95   1
  -3  -5  -1 68806.2 2534.89   5
   3   5   2-10.5049 22.2548   4
   3   5   2-33.6995 83.1713   7
   3   5   2 14.8247 52.4161   1
  -3  -5  -2-72.3029 131.132   1
   3   5   2 19.1513 98.9924   5
  -3  -5  -2-66.1097 76.8682   5
   3   5   3 9150.48 510.264   4
  -3  -5  -3 10044.1 858.962   1
   3   5   3 9101.09 670.977   1
   3   5   3 9636.87 887.122   5
  -3  -5  -3 9825.15 782.138   5
   3   5   4 15969.3 1178.54   5
   3   5   4 15158.0 718.504   4
  -3  -5  -4 17551.9 1138.74   1
   3   5   4 15450.5 878.086   1
  -3  -5  -4 16798.3 1045.79   5
  -3  -5  -5 21651.8 1152.51   4
  -3  -5  -5 21357.7 1274.17   1
   3   5   5 17474.7 838.672   4
   3   5   5 18559.0 941.356   1
   3   5   5 21394.2 1393.67   5
  -3  -5  -5 19825.4 1160.96   5
  -3  -5  -6 5128.04 578.076   4
  -3  -5  -6 5787.81 632.971   1
   3   5   6 5084.63 437.157   1
   3   5   6 5831.95 721.298   5
  -3  -5  -6 5425.18 571.938   5
  -3  -5  -7 55625.9 2295.99   4
  -3  -5  -7 60856.0 2292.04   1
   3   5   7 47440.6 1795.55   4
   3   5   7 54046.7 2476.73   5
   3   5   7 44320.0 1617.82   1
  -3  -5  -8 5344.48 581.939   1
  -3  -5  -8 4821.12 650.556   4
   3   5   8 4195.86 473.161   4
   3   5   8 4932.86 722.355   5
   3   5   8 3900.28 361.391   1
  -3  -5  -9 1631.39 410.767   4
  -3  -5  -9 1673.19 302.375   1
   3   5   9 982.007 333.163   5
  -3  -5 -10-37.4777 58.1797   1
  -3  -5 -10-143.733 195.591   4
   3   5  10 88.0719 166.006   5
  -3  -5 -11 4903.43 826.622   4
   3   5  11 4495.58 496.044   6
   3   5  11 5860.13 892.154   5
  -3  -5 -11 5721.47 354.988   1
  -3  -5 -12 812.016 341.444   4
  -3  -5 -12 813.065 262.766   3
   3   5  12 1290.76 450.599   5
  -3  -5 -13 5820.14 1021.38   4
  -3  -5 -13 4771.82 643.594   3
   3   5  13 6301.48 994.081   5
  -3  -5 -14 42.8779 97.6557   4
   3   5  14-26.4396 188.483   5
  -3  -6  10 82.0625 66.6657   5
  -3  -6   9 515.023 257.462   5
  -3  -6   9-3.11587 44.3194   1
  -3  -6   8 1883.70 531.906   5
  -3  -6   8 1541.26 366.011   1
   3   6  -8 1585.83 385.238   4
   3   6  -8 2224.12 633.076   6
  -3  -6   7 6142.87 732.849   1
   3   6  -7 7004.23 742.012   4
  -3  -6   7 4882.17 817.278   5
  -3  -6   6 105.677 77.9429   5
  -3  -6   6 561.173 227.621   1
   3   6  -6 100.236 154.413   6
   3   6  -6 459.377 160.704   4
  -3  -6   5 7908.99 839.851   1
   3   6  -5 8312.39 681.057   4
   3   6  -5 8846.46 1275.41   6
  -3  -6   4 614.327 234.952   7
  -3  -6   4 711.681 261.049   1
  -3  -6   4 971.956 307.736   5
   3   6  -4 757.963 187.729   4
   3   6  -4 361.992 255.758   6
  -3  -6   3 11917.4 1019.69   1
   3   6  -3 11686.7 659.182   4
  -3  -6   3 10160.2 938.502   7
   3   6  -3 11187.9 1375.22   6
   3   6  -3 8641.33 821.717   7
  -3  -6   3 10285.0 972.549   5
   3   6  -2 4.36669 58.5158   2
   3   6  -2-6.21725 42.6630   7
   3   6  -2 22.1461 28.5656   4
  -3  -6   2 266.852 157.926   7
   3   6  -2 173.281 212.206   6
  -3  -6   2 20.3148 83.4344   1
  -3  -6   2-59.5295 37.4325   5
   3   6  -1 11536.3 651.593   2
  -3  -6   1 12106.1 1010.09   1
   3   6  -1 11986.6 561.459   4
   3   6  -1 11353.2 939.613   7
   3   6  -1 11491.8 1345.44   6
  -3  -6   1 11348.4 931.312   5
   3   6   0 392.493 71.5124   4
   3   6   0 281.487 157.467   7
   3   6   0 231.809 193.686   6
   3   6   0 355.361 129.418   2
  -3  -6   0 136.299 61.6855   1
  -3  -6   0 253.978 113.360   5
   3   6   1 51072.3 1342.80   4
  -3  -6  -1 53664.9 2319.49   1
   3   6   1 49811.8 2203.82   7
   3   6   1 49644.0 2765.28   6
   3   6   1 51740.5 2114.11   1
  -3  -6  -1 48484.7 2081.41   5
   3   6   2 3727.09 237.530   4
   3   6   2 3728.20 517.966   7
   3   6   2 3845.88 475.623   1
  -3  -6  -2 3496.90 473.677   5
  -3  -6  -2 3499.00 506.268   1
   3   6   3 9721.26 480.195   4
  -3  -6  -3 10065.2 914.474   1
   3   6   3 9715.62 876.898   7
   3   6   3 9922.53 753.350   1
   3   6   3 12173.2 1042.27   5
  -3  -6  -3 11585.6 869.656   5
   3   6   4 8340.37 490.945   4
  -3  -6  -4 8969.86 866.571   1
   3   6   4 8371.54 662.163   1
   3   6   4 8378.49 872.332   5
  -3  -6  -4 8534.33 756.258   5
  -3  -6  -5 55194.2 2027.99   4
   3   6   5 51153.2 1706.62   4
  -3  -6  -5 52090.6 2346.58   1
   3   6   5 47729.6 1844.29   1
   3   6   5 53837.7 2478.55   5
  -3  -6  -5 51158.1 2096.07   5
   3   6   6 435.694 139.370   1
  -3  -6  -6 301.060 122.403   4
  -3  -6  -6 162.343 96.9111   1
   3   6   6 362.667 179.074   5
  -3  -6  -7 3402.39 500.768   4
   3   6   7 2907.29 381.188   4
   3   6   7 2275.91 311.995   1
  -3  -6  -7 2377.35 435.180   1
   3   6   7 3082.78 557.754   5
   3   6   8 193.453 97.7765   4
  -3  -6  -8 492.564 211.619   4
  -3  -6  -8 310.240 92.5261   1
   3   6   8 313.193 179.945   5
  -3  -6  -9 17992.4 1409.03   4
   3   6   9 15308.0 787.206   6
   3   6   9 17365.1 1475.59   5
  -3  -6 -10 6750.18 644.674   1
  -3  -6 -10 5339.43 812.991   4
   3   6  10 5732.60 864.020   5
  -3  -6 -11 3244.92 390.709   1
  -3  -6 -11 2732.70 620.459   4
   3   6  11 3171.87 668.705   5
  -3  -6 -12 1000.85 389.518   4
   3   6  12 1008.49 419.069   5
  -3  -6 -13 2451.75 659.396   4
   3   6  13 2258.48 620.503   5
  -3  -6 -14-96.6489 210.758   4
  -3  -7   9 1305.21 349.773   1
  -3  -7   8 475.243 222.695   1
  -3  -7   8 115.942 219.963   5
  -3  -7   7 537.303 295.666   5
   3   7  -7 603.678 370.639   6
  -3  -7   7 26.5265 49.7586   1
  -3  -7   6 175.240 150.428   5
  -3  -7   6 173.393 171.976   1
   3   7  -6 97.7786 198.589   6
  -3  -7   5 11423.0 1075.34   1
   3   7  -5 12320.4 802.929   4
   3   7  -5 12053.4 1551.59   6
   3   7  -4 300.301 102.527   4
   3   7  -4 524.297 305.713   6
  -3  -7   4 394.185 219.120   1
   3   7  -3 7230.03 424.182   4
  -3  -7   3 6352.54 771.644   1
   3   7  -3 5410.18 699.977   7
   3   7  -3 6056.68 1054.87   6
  -3  -7   3 5797.69 723.335   5
   3   7  -2 3329.58 191.554   4
   3   7  -2 3065.53 523.149   7
  -3  -7   2 2922.22 480.447   5
  -3  -7   2 2825.19 497.587   1
   3   7  -2 2783.97 724.023   6
   3   7  -1 14754.6 669.624   2
  -3  -7   1 14615.4 1191.43   1
   3   7  -1 13382.5 1131.94   7
   3   7  -1 13767.1 1551.73   6
  -3  -7   1 13922.9 1060.27   5
   3   7   0 3194.62 343.371   2
  -3  -7   0 3536.05 557.771   1
   3   7   0 2685.52 488.517   7
   3   7   0 3050.49 696.419   6
  -3  -7   0 2756.02 449.246   5
  -3  -7  -1 5849.21 738.904   1
   3   7   1 5731.19 721.875   7
   3   7   1 5853.26 902.946   6
  -3  -7  -1 5521.63 620.515   5
  -3  -7  -2 1077.93 309.555   1
   3   7   2 765.589 244.989   7
   3   7   2 1253.57 437.811   6
  -3  -7  -2 1139.34 270.983   5
  -3  -7  -3 32673.3 1875.48   1
   3   7   3 26321.8 1891.53   6
   3   7   3 31042.1 1841.28   5
  -3  -7  -3 29439.6 1530.93   5
   3   7   3 29746.9 1782.95   7
   3   7   4 5205.36 722.258   7
   3   7   4 5477.78 436.811   4
  -3  -7  -4 5791.90 739.299   1
   3   7   4 3917.70 657.400   6
   3   7   4 6328.02 792.037   5
  -3  -7  -4 5271.55 589.690   5
  -3  -7  -5 494.120 227.399   1
   3   7   5 445.610 167.965   1
   3   7   5 596.125 168.248   4
   3   7   5 549.884 275.554   5
  -3  -7  -6 7125.72 662.264   4
  -3  -7  -6 7306.70 845.818   1
   3   7   6 5572.27 787.859   5
   3   7   6 5808.02 563.678   1
  -3  -7  -7 45173.2 2010.92   4
  -3  -7  -7 43891.6 2210.97   1
   3   7   7 40568.3 1813.17   4
   3   7   7 42943.3 2360.87   5
   3   7   7 39643.9 1683.73   1
  -3  -7  -8 521.130 203.047   4
   3   7   8 415.426 201.075   4
  -3  -7  -8 445.436 211.432   1
   3   7   8 535.490 274.205   5
  -3  -7  -9 10467.5 1067.60   4
   3   7   9 13347.1 1088.26   4
   3   7   9 11421.9 1232.56   5
  -3  -7 -10 808.025 313.634   4
  -3  -7 -10 717.172 248.159   1
   3   7  10 568.507 279.354   5
  -3  -7 -11 3280.32 471.899   1
  -3  -7 -11 3380.95 686.245   4
   3   7  11 2589.24 625.269   5
  -3  -7 -12-115.381 179.239   4
   3   7  12-43.8738 86.1397   5
  -3  -7 -13 3702.26 803.255   4
   3   7  13 2835.27 702.485   5
  -3  -7 -14-2.83997 65.6569   4
  -3  -8   8 237.018 177.669   1
  -3  -8   7 2127.31 485.901   1
  -3  -8   6 2906.17 618.764   5
  -3  -8   6 3409.51 607.568   1
   3   8  -6 3937.28 925.630   6
   3   8  -5 226.480 226.987   6
  -3  -8   5 988.821 337.396   1
   3   8  -4 786.204 274.075   7
   3   8  -4 298.220 334.968   6
  -3  -8   4 647.625 285.350   1
  -3  -8   3 8320.45 942.340   1
   3   8  -3 7778.97 923.838   7
   3   8  -3 10113.9 1407.76   6
   3   8  -2 1740.85 427.789   7
   3   8  -2 1455.02 569.621   6
  -3  -8   2 2000.67 445.340   1
  -3  -8   1 3752.25 626.233   1
   3   8  -1 4258.30 674.961   7
   3   8  -1 5006.60 944.622   6
  -3  -8   1 3648.16 533.802   5
   3   8   0 2837.75 282.700   2
   3   8   0 1516.41 386.524   2
   3   8   0 3047.05 568.499   7
   3   8   0 2767.40 694.592   6
  -3  -8   0 2712.55 443.933   5
  -3  -8   0 3026.23 552.527   1
  -3  -8  -1 11623.5 1148.55   1
   3   8   1 10093.0 1070.14   7
   3   8   1 11713.0 1367.15   6
  -3  -8  -1 10114.0 878.284   5
   3   8   1 8422.30 1217.79   2
  -3  -8  -2 1838.63 440.865   1
   3   8   2 1121.48 487.972   2
   3   8   2 2244.22 603.181   6
  -3  -8  -2 1954.52 368.103   5
   3   8   2 1644.52 421.153   7
  -3  -8  -3 1547.70 392.145   1
   3   8   3 1745.95 450.586   7
   3   8   3 1430.75 461.012   6
   3   8   3 2203.33 484.624   5
  -3  -8  -4 4322.50 686.174   1
   3   8   4 3621.69 656.951   6
   3   8   4 4056.42 657.167   5
   3   8   4 3442.07 628.089   7
  -3  -8  -5 9718.97 1043.86   1
   3   8   5 8622.66 1051.04   7
   3   8   5 9068.65 994.156   6
   3   8   5 9410.35 1042.80   5
  -3  -8  -6 636.422 254.296   1
  -3  -8  -6 194.208 109.503   4
   3   8   6 297.366 187.407   6
   3   8   6 228.412 160.326   5
  -3  -8  -7 10266.2 852.307   4
  -3  -8  -7 10106.1 1063.64   1
   3   8   7 9521.78 894.885   6
   3   8   7 10722.0 1162.20   5
  -3  -8  -8 313.780 155.233   4
   3   8   8 220.477 139.430   5
  -3  -8  -8 380.369 208.858   1
  -3  -8  -9 4874.24 702.227   4
  -3  -8  -9 7237.25 849.301   1
   3   8   9 4871.35 828.148   5
  -3  -8 -10-49.2236 58.3458   4
  -3  -8 -10-13.1445 68.1283   1
   3   8  10 67.9410 68.9081   5
  -3  -8 -11 1876.29 495.226   4
   3   8  11 2309.36 601.840   5
  -3  -8 -12 98.0063 62.1612   4
   3   8  12 379.814 277.808   5
  -3  -8 -13 2108.70 598.350   4
  -3  -8 -14 215.287 222.210   4
  -3  -9   6 30.7509 59.9524   1
   3   9  -5 997.388 484.621   6
  -3  -9   5 434.297 220.700   1
   3   9  -4 737.981 304.163   7
   3   9  -4 779.800 429.899   6
  -3  -9   4 475.323 236.363   1
  -3  -9   3 4333.36 733.481   1
   3   9  -3 4119.59 924.640   6
   3   9  -3 3790.59 680.579   7
   3   9  -2 777.505 297.754   7
   3   9  -2 1632.95 612.413   6
  -3  -9   2 1006.37 335.170   1
   3   9  -1 2977.57 609.018   7
   3   9  -1 2875.28 744.248   6
  -3  -9   1 2804.83 582.142   1
   3   9   0 2250.54 527.031   7
   3   9   0 3369.66 791.562   6
  -3  -9   0 2986.14 615.739   1
   3   9   1 6129.68 538.573   2
  -3  -9  -1 5209.77 822.850   1
   3   9   1 4685.50 774.781   7
   3   9   1 4629.60 901.849   6
  -3  -9  -2 8395.08 1034.57   1
   3   9   2 8079.26 1114.43   6
   3   9   2 7652.61 1003.78   7
   3   9   3 5068.66 1226.44   2
  -3  -9  -3 6774.23 917.392   1
   3   9   3 6999.71 980.108   7
   3   9   3 6725.78 954.964   6
  -3  -9  -4 124.598 195.077   1
   3   9   4 90.9277 187.320   2
   3   9   4-147.561 153.322   7
   3   9   4 302.596 235.525   6
   3   9   4 522.795 298.138   5
  -3  -9  -5 1748.95 467.876   1
   3   9   5 2764.78 525.751   6
   3   9   5 2488.12 552.607   5
   3   9   5 2585.67 607.910   7
  -3  -9  -6 432.167 248.203   1
   3   9   6 211.551 194.805   7
   3   9   6 496.139 206.557   6
   3   9   6 432.323 248.593   5
  -3  -9  -7 1202.00 385.778   1
  -3  -9  -7 1064.54 261.270   4
   3   9   7 1198.69 444.120   7
   3   9   7 1699.89 479.620   5
  -3  -9  -8 12.2614 82.5887   1
  -3  -9  -8 149.698 88.9368   4
   3   9   8 222.408 172.099   5
  -3  -9  -9 3478.84 577.476   4
  -3  -9  -9 5646.29 801.197   1
   3   9   9 4092.07 785.173   5
  -3  -9 -10 94.9797 128.162   4
  -3  -9 -10 166.440 123.024   1
   3   9  10 351.784 294.839   5
  -3  -9 -11 386.450 220.562   4
   3   9  11 941.477 409.266   5
  -3  -9 -12 690.285 324.312   4
   3  10  -3 219.214 169.578   7
   3  10  -3 643.695 343.665   6
  -3 -10   3 214.390 133.899   1
   3  10  -2-7.41132 99.3833   7
   3  10  -2 53.7781 187.220   6
  -3 -10   2-64.6399 61.9724   1
  -3 -10   1 4651.32 798.405   1
   3  10  -1 4725.90 824.280   7
   3  10  -1 3772.63 841.646   6
  -3 -10   0 4593.49 811.280   1
   3  10   0 3361.28 715.158   7
   3  10   0 3865.17 812.308   6
  -3 -10  -1 2498.07 603.403   1
   3  10   1 2130.80 554.624   7
   3  10   1 2492.01 622.859   6
  -3 -10  -2 1750.65 514.168   1
   3  10   2 1715.92 535.714   7
   3  10   2 1556.05 461.022   6
  -3 -10  -3 4412.85 800.816   1
   3  10   3 3803.18 803.473   7
   3  10   3 3796.34 684.817   6
  -3 -10  -4 315.044 218.676   1
   3  10   4 213.997 174.016   7
   3  10   4 414.023 232.624   6
  -3 -10  -5 1190.65 449.516   1
   3  10   5 1655.53 532.385   7
   3  10   5 1642.24 476.927   5
  -3 -10  -6 105.255 103.264   1
   3  10   6 436.676 272.171   7
   3  10   6 332.982 194.473   5
  -3 -10  -7 3080.28 654.989   1
   3  10   7 3303.64 789.301   7
   3  10   7 3496.99 722.678   5
  -3 -10  -8 125.181 157.459   1
   3  10   8 231.197 277.824   7
   3  10   8 234.900 215.435   5
   3  10   9 1176.00 431.720   5
  -3 -10  -9 2803.25 597.792   1
  -3 -10 -10 958.608 342.573   1
   3  10  10 951.692 396.597   5
   3  11  -2 6.11248 70.9226   7
   3  11  -2 248.830 252.532   6
   3  11  -1 1060.52 417.922   7
   3  11  -1 595.017 333.558   6
   3  11   0 320.249 223.001   6
   3  11   0 380.450 256.621   7
   3  11   1 1362.99 483.530   7
   3  11   1 1273.02 421.055   6
  -3 -11  -2 379.622 260.655   1
   3  11   2 76.8604 132.632   7
   3  11   2 329.651 195.264   6
  -3 -11  -3 1657.13 523.461   1
   3  11   3 2061.84 612.734   7
  -3 -11  -4 533.649 246.893   1
   3  11   4 703.093 381.448   7
  -3 -11  -5 3550.78 747.520   1
   3  11   5 2957.89 767.848   7
   3  11   5 3263.28 689.889   5
  -3 -11  -6 486.293 267.395   1
   3  11   6 275.111 76.6228   7
   3  11   6 477.147 289.817   5
  -3 -11  -7 1291.77 452.103   1
   3  11   7 1823.45 634.160   7
   3  11   7 997.840 389.236   5
  -3 -11  -8 601.405 336.578   1
   3  11   8 654.491 331.473   5
  -3 -11  -9 4389.03 796.882   1
   3  11   9 2758.38 701.447   5
  -3 -11 -10-141.089 199.014   1
   3  12   7 1355.12 486.406   5
  -4  10   5-319.580 382.589   7
   4 -10  -4 818.134 608.043   2
  -4  10   4 1497.94 588.502   7
   4 -10  -3 477.389 512.287   2
  -4  10   3 407.059 314.154   7
   4 -10  -2 1543.85 727.928   2
  -4  10   2 2173.48 690.214   7
   4 -10  -1 1000.52 635.234   2
  -4  10   1 1599.47 586.937   7
  -4  10   0 2826.31 775.524   7
  -4   9   8 1987.98 734.283   7
   4  -9  -8 1747.66 439.778   4
  -4   9   7 381.044 387.163   7
   4  -9  -6 2534.53 1046.74   2
  -4   9   6 1387.77 625.352   7
   4  -9  -5 406.275 481.686   2
  -4   9   5 1.76395 216.256   7
   4  -9  -4 2212.96 982.900   2
  -4   9   4 4047.73 934.578   7
   4  -9  -3 380.071 352.826   2
  -4   9   3 231.573 169.356   7
   4  -9  -2 2175.41 844.713   2
  -4   9   2 3293.63 794.030   7
   4  -9  -1 122.249 407.902   2
  -4   9   1 144.930 188.236   7
   4  -9   0 1715.78 427.828   1
  -4   9   0 1778.48 580.075   7
   4  -9   1 931.695 320.691   1
   4  -9   1 33.0231 161.966   2
  -4   9  -1 1061.37 424.043   7
  -4   9  -2 5033.76 947.255   7
   4  -9   2 5170.17 744.940   1
  -4   9  -3 78.9462 163.314   7
   4  -9   3 137.944 159.977   1
   4  -9   4 1833.39 435.649   1
  -4   9  -4 1692.72 541.200   7
   4  -9   5-15.9275 80.8891   1
   4  -9   6 765.924 299.958   1
  -4   8  10 3981.14 1054.11   7
  -4   8   9 539.577 228.458   5
   4  -8  -9 322.848 217.230   4
  -4   8   9 159.735 306.877   7
  -4   8   8 1704.97 406.410   5
  -4   8   8 2143.02 745.819   7
   4  -8  -8 1640.26 436.983   4
  -4   8   7 105.880 98.3349   5
   4  -8  -7 39.6082 300.298   2
  -4   8   7 82.0834 245.912   7
  -4   8   6 4804.96 1046.44   7
  -4   8   6 4469.48 582.933   5
  -4   8   5 937.302 257.134   5
   4  -8  -5-7.97810 401.160   2
  -4   8   5 608.813 336.257   7
   4  -8  -4 5731.00 1396.48   2
  -4   8   4 9332.89 1321.13   7
  -4   8   4 7186.83 675.897   5
   4  -8  -3 1313.29 697.573   2
  -4   8   3 3121.09 731.682   7
  -4   8   3 2470.19 369.774   5
   4  -8  -2 1799.88 754.984   2
  -4   8   2 1926.80 568.979   7
   4  -8  -1 2257.19 811.362   2
  -4   8   1 4069.58 803.668   7
   4  -8   0 13585.1 1962.01   2
  -4   8   0 18225.5 1734.32   7
   4  -8   1 99.2190 276.589   2
  -4   8  -1 490.149 267.981   7
   4  -8   2 7772.31 1328.64   2
  -4   8  -2 11385.9 1349.62   7
   4  -8   3 38.1685 61.5903   1
   4  -8   3 286.826 209.061   2
  -4   8  -3 268.428 203.300   7
   4  -8   4 2042.18 438.444   1
  -4   8  -4 2637.84 631.001   7
   4  -8   5-40.1114 87.5964   1
   4  -8   6 5672.39 723.519   1
   4  -8   7-194.038 145.955   1
   4  -8   8 2641.10 486.871   1
  -4   7  10 970.510 308.818   5
  -4   7  10 1331.02 575.877   7
  -4   7   9 96.7177 49.3145   5
   4  -7  -9 157.345 128.988   4
  -4   7   9 291.187 308.922   7
   4  -7  -8 3781.90 1257.55   2
  -4   7   8 4431.47 1004.95   7
  -4   7   8 4111.39 614.866   5
  -4   7   7 187.353 133.000   5
   4  -7  -7 905.268 672.792   2
  -4   7   7 218.566 251.459   7
  -4   7   6 2109.62 408.033   5
   4  -7  -6 2653.61 1000.20   2
  -4   7   6 3081.13 772.646   7
  -4   7   5 57.0536 90.1863   5
   4  -7  -5 185.084 441.011   2
  -4   7   5-148.651 179.957   7
  -4   7   4 9186.40 1227.80   7
  -4   7   4 8950.31 756.723   5
  -4   7   3 68.3464 79.6791   5
   4  -7  -3-370.951 545.409   2
  -4   7   3-111.569 183.459   7
   4  -7  -2 28114.2 1311.44   6
  -4   7   2 30073.4 1284.06   5
   4  -7  -1 1205.29 584.226   2
  -4   7   1 935.725 346.561   7
   4  -7  -1 1060.94 239.485   6
  -4   7   1 1419.29 214.392   5
  -4   7   0 5990.28 891.592   7
   4  -7   0 3752.88 963.222   2
   4  -7   0 4341.61 527.058   6
  -4   7   0 5276.00 374.099   5
  -4   7   0 4964.88 320.915   5
   4  -7   1 248.267 194.960   2
  -4   7  -1 420.638 195.614   7
  -4   7  -2 15163.9 1434.94   2
  -4   7  -2 12723.5 1323.71   7
  -4   7  -3 113.687 144.038   7
   4  -7   3 244.677 270.334   2
   4  -7   4 9702.83 1193.39   2
  -4   7  -4 9494.11 1149.09   7
   4  -7   4 8750.71 875.035   1
   4  -7   5 32.8620 58.8175   1
   4  -7   5 219.060 175.168   2
   4  -7   6 8589.93 1028.60   2
   4  -7   6 8055.77 822.501   1
   4  -7   7-162.326 142.424   1
   4  -7   8 12773.3 1037.06   1
   4  -7   9-24.4100 91.2503   1
  -4   6  10 2305.88 506.125   5
   4  -6 -10 1755.83 446.828   4
  -4   6   9 264.419 171.400   5
   4  -6  -9 196.904 214.705   4
  -4   6   8 1547.83 396.482   5
   4  -6  -8 557.576 614.821   2
  -4   6   8 1715.03 576.293   7
  -4   6   7 891.107 298.983   5
   4  -6  -7 587.791 405.153   2
  -4   6   7 856.711 359.502   7
   4  -6  -6 2108.30 914.433   2
  -4   6   6 3544.92 779.924   7
   4  -6  -6 3083.78 457.705   3
  -4   6   6 2894.68 514.955   5
  -4   6   5 1391.36 333.773   5
   4  -6  -5 775.732 522.418   2
  -4   6   5 1883.64 516.783   7
   4  -6  -5 1440.55 331.561   3
   4  -6  -4 22549.1 1449.44   3
  -4   6   4 21399.3 1370.62   5
  -4   6   3-3.52077 62.0041   5
   4  -6  -3 199.123 160.185   2
  -4   6   2 958.351 253.735   5
   4  -6  -2 1146.68 545.848   2
  -4   6   2 1333.66 424.848   7
   4  -6  -2 799.007 197.623   6
  -4   6   1 501.603 165.402   5
   4  -6  -1 161.322 146.431   2
  -4   6   1 502.455 240.706   7
   4  -6  -1 538.344 162.188   6
   4  -6   0 6614.58 1155.28   2
  -4   6   0 7770.96 940.032   7
  -4   6   0 7601.71 1068.70   3
   4  -6   0 6246.84 583.415   6
  -4   6   0 6165.87 461.906   5
  -4   6  -1 118.464 33.5753   5
   4  -6   1 4.67488 86.7772   4
  -4   6  -1 70.3772 107.972   7
   4  -6   1 235.872 219.485   2
   4  -6   1 102.788 80.4588   6
  -4   6  -1 312.707 317.447   3
  -4   6  -1 153.271 149.302   2
  -4   6  -1 78.9742 36.9870   5
   4  -6   2 21801.4 1806.26   2
   4  -6   2 23239.5 1496.98   4
  -4   6  -2 26014.5 1802.83   7
  -4   6  -2 24153.1 2050.14   3
   4  -6   3-66.1464 118.380   4
  -4   6  -3-31.7873 105.536   7
   4  -6   3 68.1443 118.771   2
  -4   6  -3 177.972 219.011   3
   4  -6   4 13279.2 1244.28   2
  -4   6  -4 13483.1 1589.08   3
   4  -6   5 471.668 232.675   2
  -4   6  -5-254.591 290.954   3
   4  -6   6 8170.78 911.012   2
  -4   6  -6 8674.58 1324.39   3
   4  -6   6 6906.40 723.354   1
   4  -6   7 4.58606 86.4296   1
   4  -6   7-4.42130 56.3602   2
  -4   6  -7 79.5261 230.393   3
  -4   6  -8 17297.6 1940.56   3
   4  -6   8 16089.7 1093.29   1
   4  -6   9 65.6667 67.8871   1
  -4   5  10 919.864 330.706   5
   4  -5 -10 801.652 301.351   4
  -4   5   9 273.438 204.543   5
   4  -5  -9 245.658 338.633   2
   4  -5  -9 333.438 218.297   4
   4  -5  -8 5389.29 1435.17   2
  -4   5   8 6524.40 869.937   5
  -4   5   7 567.944 249.723   5
   4  -5  -7 529.375 174.453   2
  -4   5   7 443.943 268.693   7
   4  -5  -7 276.787 116.893   6
  -4   5   6 2246.17 491.847   5
   4  -5  -6 1944.49 759.894   2
  -4   5   6 2082.25 520.452   7
   4  -5  -5 2781.19 867.787   2
  -4   5   5 4624.09 760.393   7
   4  -5  -5 3958.21 495.943   3
  -4   5   5 3610.05 609.112   5
  -4   5   4 656.029 246.009   5
   4  -5  -4 93.7515 408.644   2
  -4   5   4 879.181 315.148   7
   4  -5  -4 1134.82 278.259   3
  -4   5   3 474.176 208.962   7
  -4   5   3 660.922 247.208   5
   4  -5  -3 93.7353 217.613   2
   4  -5  -3 703.456 199.803   3
  -4   5   2 36361.2 1995.70   7
  -4   5   2 32056.6 2013.75   3
   4  -5  -2 34009.9 1794.85   3
  -4   5   2 31663.0 1746.98   5
  -4   5   1 183.770 104.828   5
   4  -5  -1 366.999 329.745   2
  -4   5   1 267.538 163.747   7
  -4   5   1 431.733 234.408   2
  -4   5   1 273.065 153.357   3
   4  -5  -1 334.862 183.939   3
   4  -5   0 13723.5 1450.55   2
  -4   5   0 15582.7 1314.15   2
  -4   5   0 15264.0 1213.20   7
  -4   5   0 13050.9 1320.94   3
   4  -5   0 14941.7 1214.32   3
  -4   5   0 13661.5 937.519   5
  -4   5  -1 6.18785 59.0051   5
  -4   5  -1-57.9904 130.376   7
   4  -5   1 293.200 243.528   2
   4  -5   1-38.8720 51.4081   7
   4  -5   1 24.7752 75.2641   6
  -4   5  -1 76.1404 126.005   3
  -4   5  -1-12.9189 130.790   2
  -4   5  -1-24.9409 30.4931   5
   4  -5   2 8051.75 953.690   2
   4  -5   2 8298.62 840.667   4
   4  -5   2 9022.49 829.591   7
   4  -5   2 7626.75 679.703   6
  -4   5  -2 7479.06 1028.78   3
  -4   5  -2 8849.07 937.895   7
  -4   5  -2 8660.38 457.061   5
  -4   5  -2 7766.80 512.462   5
   4  -5   3 3278.01 510.824   4
  -4   5  -3 2932.88 528.782   7
   4  -5   3 3336.15 577.422   2
  -4   5  -3 3499.06 748.884   3
   4  -5   4 14321.4 1180.54   2
   4  -5   4 13401.2 1045.63   4
  -4   5  -4 13046.0 1485.09   3
   4  -5   5 310.519 193.238   2
  -4   5  -5 107.398 264.642   3
   4  -5   6 201.122 136.462   2
  -4   5  -6 780.496 382.497   3
   4  -5   7-63.2444 119.643   2
  -4   5  -7-131.264 184.694   3
   4  -5   7-21.4888 56.7138   1
   4  -5   8 9671.77 985.371   2
  -4   5  -8 7456.92 1193.72   3
   4  -5   8 8057.34 717.331   1
   4  -5   9 78.6442 55.0129   1
  -4   5  -9 53.1132 128.003   3
   4  -5   9 225.493 185.562   2
  -4   5 -10 15033.9 1760.46   3
  -4   4  10 2413.60 556.656   5
   4  -4 -10 3464.98 636.114   4
  -4   4   9 540.852 268.186   5
   4  -4  -9 906.235 323.583   4
   4  -4  -9 566.723 197.841   6
  -4   4   8 3463.88 685.586   5
   4  -4  -8 2951.62 1049.66   2
   4  -4  -8 4499.26 566.848   6
  -4   4   7 996.804 355.638   5
   4  -4  -7 672.081 543.404   2
   4  -4  -7 950.919 271.098   6
  -4   4   6 835.753 324.734   5
   4  -4  -6 502.404 325.868   2
   4  -4  -5 2562.83 793.463   2
  -4   4   5 4908.14 720.372   7
  -4   4   5 4635.77 720.198   5
   4  -4  -4 29962.0 2810.87   2
  -4   4   4 32435.0 2016.70   5
  -4   4   4 32814.2 1796.11   3
  -4   4   3 6659.75 732.962   7
   4  -4  -3 4180.72 963.345   2
  -4   4   3 5083.27 674.363   3
   4  -4  -3 5511.61 586.073   3
  -4   4   3 5664.78 740.749   5
   4  -4  -2 14696.5 1630.16   2
  -4   4   2 18772.7 1545.02   2
  -4   4   2 17620.5 1181.94   7
  -4   4   2 14528.3 1216.45   3
   4  -4  -2 16685.2 1121.01   3
  -4   4   2 14367.2 1135.06   5
  -4   4   1 1320.82 312.385   5
  -4   4   1 1161.55 298.664   7
   4  -4  -1 1057.09 417.346   2
  -4   4   1 1586.68 412.254   2
  -4   4   1 1118.91 342.566   3
   4  -4  -1 1277.22 290.330   3
  -4   4   0 1854.92 330.487   5
  -4   4   0 1946.39 383.302   7
   4  -4   0 1627.26 450.453   2
  -4   4   0 2067.23 445.412   2
  -4   4   0 1603.99 395.541   3
   4  -4   0 2033.82 406.612   3
   4  -4   1 6546.40 831.453   2
  -4   4  -1 7888.77 873.106   2
  -4   4  -1 7745.43 773.324   7
   4  -4   1 7133.49 657.983   7
  -4   4  -1 6714.00 878.891   3
   4  -4   1 7248.95 792.279   3
  -4   4  -1 7096.69 566.818   5
   4  -4   2 25884.6 1616.64   2
   4  -4   2 24946.5 1503.55   4
   4  -4   2 23950.1 1363.34   7
  -4   4  -2 23935.3 1783.73   3
   4  -4   2 24481.6 1586.05   3
  -4   4  -2 25439.1 1061.47   5
  -4   4  -2 24832.0 1489.93   7
   4  -4   3 431.519 185.611   4
  -4   4  -3 370.490 200.872   7
   4  -4   3 490.841 172.484   7
   4  -4   3 311.196 130.930   6
   4  -4   3 185.370 131.213   2
  -4   4  -3 278.042 225.057   3
  -4   4  -3 408.516 97.5206   5
   4  -4   4 6557.92 740.217   2
   4  -4   4 8030.00 775.589   4
   4  -4   4 6362.38 732.152   7
  -4   4  -4 7350.10 1020.37   3
  -4   4  -4 7042.88 399.774   5
  -4   4  -5 161.398 62.8205   5
   4  -4   5 12.0215 48.4113   4
   4  -4   5-56.3600 191.900   2
  -4   4  -5 252.168 195.909   3
   4  -4   6 4137.21 618.097   2
  -4   4  -6 5388.20 891.447   3
  -4   4  -6 3997.86 388.046   5
  -4   4  -7-19.3092 48.8051   5
   4  -4   7 54.2590 81.4604   2
  -4   4  -7 35.9971 82.1362   3
   4  -4   8 5793.03 782.542   2
   4  -4   8 4388.31 466.691   5
  -4   4  -8 4773.80 872.461   3
   4  -4   8 4495.59 485.596   1
   4  -4   9 49.5804 55.8281   1
  -4   4  -9-40.5308 108.395   3
   4  -4   9 105.669 94.7064   5
   4  -4  10 8532.82 1049.29   2
  -4   4 -10 6830.28 1143.65   3
   4  -4  10 6958.58 583.493   1
  -4   4 -11 158.484 255.501   4
  -4   4 -11 81.2238 180.816   3
   4  -4  11 42.1757 58.1475   2
  -4   4 -12 1708.74 601.954   4
  -4   4 -12 509.849 313.463   3
  -4   3  11 614.222 321.208   5
   4  -3 -11 259.374 173.121   4
  -4   3  10 1565.15 486.339   5
   4  -3 -10 1309.13 370.889   4
   4  -3 -10 1624.68 378.593   6
  -4   3   9-62.6865 129.759   5
   4  -3  -9 311.426 464.709   2
   4  -3  -9 252.658 226.917   4
   4  -3  -9 52.1712 141.342   6
   4  -3  -8 7799.75 1650.53   2
   4  -3  -8 8934.79 880.726   6
  -4   3   8 8979.89 1142.71   5
  -4   3   7 98.0676 222.598   5
   4  -3  -7-345.842 423.889   2
   4  -3  -7-165.729 147.667   6
  -4   3   6 27119.4 1963.31   5
   4  -3  -6 22099.8 2607.80   2
   4  -3  -5 11474.4 1781.95   2
  -4   3   5 13975.2 942.141   3
  -4   3   5 14020.4 1317.73   5
   4  -3  -5 14619.0 977.209   1
  -4   3   4 984.253 327.234   5
   4  -3  -4 974.708 433.991   2
  -4   3   4 1232.00 310.759   7
  -4   3   4 1307.31 284.169   3
   4  -3  -4 1489.47 295.461   1
   4  -3  -4 1366.81 250.743   3
  -4   3   3-94.6448 91.4637   5
   4  -3  -3-207.286 227.849   2
  -4   3   3-7.59699 134.161   2
  -4   3   3 61.9451 100.324   3
  -4   3   3-120.384 94.4418   7
   4  -3  -2 38678.0 2608.81   2
  -4   3   2 51610.9 2565.06   2
  -4   3   2 47805.3 1865.88   7
  -4   3   2 38971.7 1954.11   3
  -4   3   2 37908.6 1948.35   5
  -4   3   1 861.759 218.330   7
   4  -3  -1 1041.13 407.857   2
  -4   3   1 805.773 248.065   3
  -4   3   1 770.781 281.537   2
   4  -3  -1 833.949 225.425   3
   4  -3   0 79435.7 3359.65   2
  -4   3   0 91112.5 2924.48   7
  -4   3   0 81242.6 3277.82   3
   4  -3   0 85411.4 3046.11   3
  -4   3  -1 31.3079 37.2473   7
   4  -3   1 42.7618 56.8186   7
   4  -3   1-1.82667 89.5560   2
  -4   3  -1-179.281 190.548   3
  -4   3  -1-11.2966 82.1769   2
   4  -3   1 63.3074 62.1598   3
  -4   3  -1-51.5317 74.5324   5
   4  -3   2 92.8809 80.3375   7
   4  -3   2 208.098 228.822   2
  -4   3  -2 215.330 169.639   3
  -4   3  -2 173.050 208.093   2
   4  -3   2-65.6325 74.2439   3
  -4   3  -2 65.6049 59.6441   7
  -4   3  -2 91.1524 66.9289   5
   4  -3   3-133.848 144.931   4
   4  -3   3-48.2246 77.1650   7
   4  -3   3-53.4765 93.5481   2
  -4   3  -3-89.0020 138.445   3
   4  -3   3 99.3155 149.924   3
  -4   3  -3 4.10739 38.1746   5
   4  -3   4 38063.9 1898.71   2
   4  -3   4 36226.9 1805.00   4
   4  -3   4 36085.5 1788.11   7
  -4   3  -4 39078.2 2303.72   3
   4  -3   4 40487.3 2025.34   3
  -4   3  -4 38947.2 1380.46   5
   4  -3   5 3013.85 493.332   2
   4  -3   5 3060.27 459.269   4
   4  -3   5 2960.87 483.340   7
  -4   3  -5 3403.33 644.132   3
  -4   3  -5 3347.73 313.478   5
   4  -3   6 14375.1 1172.49   2
  -4   3  -6 14484.9 1432.43   3
   4  -3   6 13909.5 866.638   5
  -4   3  -6 14332.4 729.653   5
  -4   3  -7 302.346 114.907   5
  -4   3  -7 196.853 207.857   3
   4  -3   7 419.210 227.169   2
   4  -3   7 266.451 114.484   5
   4  -3   8 11562.3 1172.85   2
  -4   3  -8 9136.12 1208.47   3
   4  -3   8 9931.48 790.652   5
  -4   3  -9 116.859 112.578   5
  -4   3  -9 49.2918 158.488   4
   4  -3   9-61.6918 66.4572   1
  -4   3  -9 377.291 298.554   3
   4  -3   9-179.338 167.703   2
   4  -3   9-39.4537 94.0569   5
  -4   3 -10 6315.32 1007.01   4
   4  -3  10 8374.97 1167.12   2
  -4   3 -10 5787.60 961.847   3
   4  -3  10 5096.49 451.986   1
   4  -3  10 6569.66 708.157   5
  -4   3 -11-15.4941 84.1542   3
   4  -3  11-164.646 244.436   2
   4  -3  11 63.2539 61.2463   5
  -4   3 -12 1333.14 509.369   4
  -4   3 -12 1559.97 517.797   3
   4  -3  12 2320.54 671.273   2
  -4   3 -13-197.057 202.400   3
  -4   2  11 15.3717 142.424   5
   4  -2 -11 130.399 149.321   4
   4  -2 -11 94.2334 135.359   6
  -4   2  10 2017.23 545.222   5
   4  -2 -10 3060.37 604.185   4
   4  -2 -10 2213.36 473.360   6
  -4   2   9 195.291 84.4323   5
   4  -2  -9 687.354 441.663   2
   4  -2  -9 665.923 320.421   4
   4  -2  -9 204.473 154.296   6
   4  -2  -8 3674.14 1055.09   2
   4  -2  -8 5977.73 755.233   6
  -4   2   8 6393.25 978.011   5
   4  -2  -7 14104.4 1033.98   1
   4  -2  -7 13533.1 1115.05   6
  -4   2   7 12262.6 1346.10   5
   4  -2  -6 9231.77 798.792   1
   4  -2  -6 6253.03 1333.67   2
  -4   2   6 8039.13 564.033   3
   4  -2  -6 9192.23 880.828   6
  -4   2   6 8185.24 1019.74   5
  -4   2   5 1653.85 425.846   5
   4  -2  -5 1247.26 510.563   2
  -4   2   5 2477.77 337.010   3
   4  -2  -5 2596.80 403.645   1
   4  -2  -4 31591.2 2646.28   2
  -4   2   4 36368.9 1595.03   3
  -4   2   4 34828.7 2011.58   5
   4  -2  -4 38749.6 1714.76   1
  -4   2   3 3999.19 689.695   2
  -4   2   3 3236.21 374.184   7
   4  -2  -3 3079.83 718.570   2
  -4   2   3 2892.04 411.152   3
  -4   2   3 3209.29 535.964   5
   4  -2  -3 2643.32 386.556   1
   4  -2  -2 57924.8 2955.05   2
  -4   2   2 55117.3 2266.91   3
   4  -2  -2 57574.2 2148.65   1
  -4   2   1 38.8519 46.7480   7
   4  -2  -1 192.099 254.266   2
  -4   2   1-56.6892 104.638   3
   4  -2   0 13541.0 1084.34   2
  -4   2   0 15648.0 831.546   7
  -4   2   0 13312.9 1039.99   3
  -4   2  -1 65.0988 61.3093   7
   4  -2   1 43.1557 59.4349   7
   4  -2   1 170.111 139.921   2
  -4   2  -1-97.6634 126.636   2
  -4   2  -1-91.9591 117.491   3
  -4   2  -1-26.6422 114.796   5
   4  -2   1 198.928 185.705   3
   4  -2   2 75303.9 2897.37   2
   4  -2   2 74443.7 2489.27   7
  -4   2  -2 81155.7 3142.84   3
  -4   2  -2 75390.6 2533.94   5
   4  -2   3 16505.5 1107.65   4
   4  -2   3 14588.2 1075.39   2
   4  -2   3 13983.7 907.856   7
  -4   2  -3 14954.4 1224.97   3
  -4   2  -3 14927.2 848.070   5
   4  -2   4 46012.4 2045.24   4
   4  -2   4 48616.5 2176.39   2
   4  -2   4 45057.3 1948.34   7
   4  -2   4 47866.7 2131.82   3
  -4   2  -4 49210.4 2469.50   3
  -4   2  -4 49025.1 1725.73   5
  -4   2  -5 67.7818 55.6940   5
   4  -2   5 220.582 120.821   4
   4  -2   5-30.5023 99.6844   7
   4  -2   5 32.7130 115.668   2
  -4   2  -5 210.970 198.162   3
   4  -2   5 191.939 114.480   5
   4  -2   5 113.975 130.221   3
   4  -2   6 15252.5 1078.36   4
   4  -2   6 18867.3 1424.36   2
   4  -2   6 17516.4 1259.75   7
  -4   2  -6 16380.4 1457.37   3
   4  -2   6 15483.4 1156.04   3
   4  -2   6 16317.1 992.561   5
  -4   2  -6 15776.4 827.928   5
   4  -2   7 185.695 113.562   2
   4  -2   7 219.451 101.256   5
  -4   2  -8 6501.04 906.756   4
  -4   2  -8 5748.44 881.041   3
   4  -2   8 6255.20 650.911   5
  -4   2  -8 5363.18 532.286   5
  -4   2  -9 58.1048 43.0012   5
  -4   2  -9 180.285 179.461   4
   4  -2   9 112.358 64.2354   1
  -4   2  -9 298.147 285.085   3
   4  -2   9 50.3068 56.7610   1
   4  -2   9-102.436 101.252   5
  -4   2 -10 17547.6 1682.44   4
  -4   2 -10 16075.6 1575.87   3
   4  -2  10 13819.5 702.888   1
   4  -2  10 18454.0 1278.88   5
  -4   2 -10 15228.4 1245.10   5
  -4   2 -11 222.564 225.448   4
  -4   2 -11 553.787 312.593   3
   4  -2  11 891.130 303.259   5
  -4   2 -12 4308.47 950.771   4
  -4   2 -12 3660.02 755.137   3
   4  -2  12 4188.17 670.274   5
  -4   2 -13-101.331 82.1841   4
  -4   2 -13 63.8598 94.7811   3
   4  -1 -12 795.157 296.887   6
  -4   1  11 586.307 298.462   5
   4  -1 -11 1333.43 394.577   4
   4  -1 -11 576.354 261.645   6
  -4   1  10 1292.19 445.556   5
   4  -1 -10 1065.48 320.996   4
   4  -1 -10 1474.40 441.406   6
  -4   1   9 262.730 201.965   5
   4  -1  -9 321.765 301.381   2
   4  -1  -9 458.203 233.130   4
   4  -1  -9 35.3177 123.636   6
   4  -1  -8 3559.87 1006.28   2
   4  -1  -8 6459.91 822.580   6
  -4   1   8 5799.53 936.479   5
  -4   1   7 56.5957 90.2155   5
   4  -1  -7-38.3789 129.993   6
   4  -1  -7-169.796 300.838   2
   4  -1  -7 203.896 183.066   1
   4  -1  -6 16548.1 1117.63   1
  -4   1   6 14129.6 694.757   3
   4  -1  -6 13386.7 1162.69   6
  -4   1   6 14024.8 1349.24   5
   4  -1  -6 12340.5 1746.43   2
   4  -1  -5 5536.27 602.834   1
  -4   1   5 4820.69 434.273   3
  -4   1   5 6217.59 919.527   2
  -4   1   5 4801.67 734.976   5
  -4   1   4 1893.90 437.907   5
   4  -1  -4 1803.59 351.309   1
   4  -1  -4 1147.54 496.289   2
  -4   1   4 1911.51 467.215   2
  -4   1   4 1436.31 241.242   3
   4  -1  -3 15586.5 1510.13   2
  -4   1   3 18257.1 1425.14   2
  -4   1   3 16515.1 752.285   7
  -4   1   3 14743.2 896.343   3
   4  -1  -3 15871.7 1020.82   1
   4  -1  -2 24967.7 1729.06   2
  -4   1   2 31465.4 1804.06   2
  -4   1   2 30297.9 996.260   7
  -4   1   2 24827.4 1283.95   3
   4  -1  -2 26485.1 1346.56   1
  -4   1   1 1551.82 172.682   7
   4  -1  -1 1429.77 307.288   2
  -4   1   1 1414.49 292.843   3
   4  -1   0 210746. 6183.20   2
  -4   1   0 225156. 6031.50   3
   4  -1   1 31900.8 1621.44   2
   4  -1   1 29294.9 1108.80   7
  -4   1  -1 32506.6 1635.45   3
  -4   1  -1 33744.9 1534.91   5
   4  -1   2 69916.0 2603.31   2
   4  -1   2 64535.0 2060.87   7
  -4   1  -2 71862.7 2721.84   3
  -4   1  -2 63083.7 2295.99   5
   4  -1   2 66997.1 2251.21   1
   4  -1   3 646.177 156.509   7
   4  -1   3 583.409 210.562   2
  -4   1  -3 576.924 183.275   3
  -4   1  -3 994.323 217.714   5
   4  -1   3 783.657 193.568   1
   4  -1   4 1895.35 312.572   7
  -4   1  -4 1508.10 257.568   5
   4  -1   4 1818.19 380.833   2
  -4   1  -4 1717.53 382.098   3
   4  -1   4 1834.28 273.868   1
   4  -1   4 1715.78 307.994   5
   4  -1   5 2064.23 369.099   4
   4  -1   5 2419.99 386.426   7
   4  -1   5 2425.76 373.313   5
   4  -1   5 2194.12 443.899   2
  -4   1  -5 2639.51 512.338   3
   4  -1   5 1918.25 279.680   1
   4  -1   6 8777.27 772.087   4
   4  -1   6 10888.4 1092.58   2
   4  -1   6 8639.89 819.087   7
  -4   1  -6 8343.90 941.537   3
   4  -1   6 8600.25 739.224   5
   4  -1   6 7829.69 566.896   1
  -4   1  -7 2765.61 544.660   4
   4  -1   7 3117.29 524.022   7
   4  -1   7 2283.70 384.942   5
  -4   1  -7 2849.65 355.631   5
  -4   1  -7 2269.04 481.524   3
   4  -1   7 2449.98 292.935   1
  -4   1  -8 31227.8 2013.04   4
  -4   1  -8 31227.3 2038.66   3
   4  -1   8 30245.8 1595.49   5
  -4   1  -8 30409.2 1354.26   5
   4  -1   8 27407.2 1136.45   1
  -4   1  -9 1823.30 328.847   5
  -4   1  -9 2310.83 566.442   4
   4  -1   9 2336.76 432.400   5
  -4   1  -9 2376.38 547.280   3
   4  -1   9 2000.62 241.357   1
  -4   1 -10 18338.8 1606.73   3
  -4   1 -10 20986.8 1800.95   4
   4  -1  10 16375.9 694.229   1
   4  -1  10 19481.7 1370.36   5
  -4   1 -10 16856.6 1225.53   5
  -4   1 -11 738.031 364.892   4
  -4   1 -11 578.893 319.406   3
   4  -1  11 323.030 170.610   5
  -4   1 -12 8961.40 1339.16   4
  -4   1 -12 7004.46 1005.10   3
   4  -1  12 7955.80 951.838   5
  -4   1 -13 201.975 253.773   4
  -4   1 -13-135.749 143.043   3
   4  -1  13 29.3640 79.5666   5
   4  -1  14 1258.89 421.879   5
   4   0 -12 385.571 224.820   6
  -4   0  11 118.923 99.2375   5
   4   0 -11 156.080 141.997   4
   4   0 -11 138.330 189.682   6
  -4   0  10 3308.26 743.352   5
   4   0 -10 3669.03 648.629   4
   4   0 -10 3048.58 616.388   6
  -4   0   9 22.6659 80.8230   5
   4   0  -9 346.368 215.518   4
   4   0  -9 288.526 169.162   6
  -4   0   8 1210.78 439.629   5
   4   0  -8 363.592 392.588   2
   4   0  -8 1083.62 370.028   4
   4   0  -8 837.793 320.778   6
  -4   0   7 267.222 229.954   5
   4   0  -7-18.8793 71.3694   1
   4   0  -7 263.903 204.645   6
  -4   0   6 10151.5 1203.38   2
   4   0  -6 9486.24 869.744   1
   4   0  -6 4252.57 1016.99   2
   4   0  -6 7676.56 895.761   6
  -4   0   6 6980.73 441.049   3
  -4   0   6 6968.40 923.992   5
   4   0  -5 8118.74 1297.28   2
   4   0  -5 11133.9 926.252   1
  -4   0   5 8904.79 566.852   3
  -4   0   5 9073.69 1009.03   5
   4   0  -4 29668.5 2330.10   2
   4   0  -4 39800.1 1811.28   1
  -4   0   4 43071.4 2281.47   2
  -4   0   4 33797.8 1369.34   3
   4   0  -3 18202.8 1584.84   2
   4   0  -3 21261.7 1234.88   1
  -4   0   3 22732.5 1515.58   2
  -4   0   3 20869.0 1046.42   3
   4   0  -2 29179.5 1454.85   1
   4   0  -2 25861.0 1689.49   2
  -4   0   2 28097.9 1313.78   3
  -4   0   1 2787.71 469.106   2
   4   0  -1 1834.94 375.434   2
  -4   0   1 2447.14 365.119   3
   4   0   0 17187.6 1137.47   2
  -4   0   0 19206.5 1105.69   3
   4   0   1 810.850 112.004   7
   4   0   1 527.249 137.309   2
  -4   0  -1 757.223 207.502   3
   4   0   2 48625.9 2057.45   2
   4   0   2 44601.7 1466.45   7
   4   0   2 45649.0 1756.02   1
   4   0   3 1675.58 263.968   1
   4   0   3 1840.13 364.503   2
  -4   0  -3 1938.82 394.426   3
   4   0   3 1574.29 235.983   7
  -4   0  -4 82921.1 3137.53   3
   4   0   4 79138.3 2801.98   5
   4   0   4 75609.2 2478.99   1
  -4   0  -5 18139.3 1323.68   3
   4   0   5 17207.3 1089.11   5
   4   0   5 16790.0 877.043   1
   4   0   6 38880.3 1456.38   1
  -4   0  -6 44172.3 2188.63   4
   4   0   6 39745.1 1802.57   4
  -4   0  -6 44517.6 2231.21   3
   4   0   6 41756.7 1868.58   5
  -4   0  -6 41279.6 1678.15   5
   4   0   7 3014.83 311.180   1
  -4   0  -7 3545.50 607.404   4
   4   0   7 3100.48 438.399   4
   4   0   7 3055.98 477.265   5
  -4   0  -7 3475.73 415.516   5
  -4   0  -7 3349.08 590.865   3
  -4   0  -8 1454.88 266.220   5
   4   0   8 1231.19 184.698   1
  -4   0  -8 2018.74 498.595   4
  -4   0  -8 1960.23 473.974   3
   4   0   8 1932.79 389.854   5
  -4   0  -9 447.224 180.783   5
  -4   0  -9 545.472 242.165   4
   4   0   9 423.423 105.005   1
  -4   0  -9 333.181 144.374   3
   4   0   9 246.532 165.526   5
   4   0  10 11765.0 504.202   1
  -4   0 -10 14017.4 1322.85   3
   4   0  10 13746.9 1162.50   5
   4   0  10 12258.8 491.354   1
  -4   0 -11 977.813 420.368   4
  -4   0 -11 929.722 331.779   3
   4   0  11 1161.95 352.407   5
  -4   0 -12 7295.97 1193.03   4
  -4   0 -12 5282.38 825.813   3
   4   0  12 6266.05 882.394   5
  -4   0 -13 1216.17 525.110   4
  -4   0 -13 1279.01 425.358   3
   4   0  13 1205.07 396.559   5
   4   0  14 1523.30 453.089   5
   4   0  15 77.5041 147.686   5
   4   1 -12 772.466 293.802   6
  -4  -1  11-15.2634 131.857   5
   4   1 -11 86.1539 89.9707   4
   4   1 -11 228.368 170.532   6
  -4  -1  10 922.977 430.665   5
   4   1 -10 1475.50 409.120   4
   4   1 -10 929.286 364.205   6
  -4  -1   9 976.615 397.521   5
   4   1  -9 826.215 335.439   4
   4   1  -9 1100.60 369.634   6
   4   1  -8 9870.93 1024.19   4
  -4  -1   8 11784.0 1006.00   7
   4   1  -8 9152.48 1096.23   6
  -4  -1   8 8872.65 1194.62   5
   4   1  -8 8744.82 1573.82   2
  -4  -1   7 332.630 215.302   5
   4   1  -7 18.0577 188.848   2
   4   1  -7 319.863 220.590   6
   4   1  -7 304.309 160.948   1
  -4  -1   7 210.711 64.1608   3
  -4  -1   6 15970.2 1411.37   2
   4   1  -6 14620.7 1166.95   1
  -4  -1   6 16491.5 1004.39   7
   4   1  -6 13069.1 1243.74   6
  -4  -1   6 12874.7 666.035   3
  -4  -1   6 14545.4 976.536   1
  -4  -1   6 12542.6 1273.35   5
   4   1  -6 9880.30 1521.46   2
   4   1  -5 2854.21 488.539   1
  -4  -1   5 2778.45 346.420   7
   4   1  -5 1739.88 602.395   2
  -4  -1   5 2801.41 546.259   2
  -4  -1   5 2409.57 291.462   3
   4   1  -5 2285.44 521.785   6
  -4  -1   5 2008.89 359.901   1
  -4  -1   4 3554.04 577.702   2
   4   1  -4 3444.96 502.882   1
  -4  -1   4 3122.79 307.984   7
   4   1  -4 2465.78 626.132   2
  -4  -1   4 2896.55 433.680   1
  -4  -1   3-75.0552 96.2108   1
  -4  -1   3 65.2776 26.7117   7
   4   1  -3 19.2641 68.3196   1
  -4  -1   3-24.1898 88.9085   2
   4   1  -2 3452.71 565.609   2
   4   1  -2 3789.10 497.686   1
  -4  -1   2 3084.17 486.895   2
  -4  -1   2 3651.00 474.047   1
  -4  -1   1 287.514 129.024   1
   4   1  -1 46.2524 98.6784   2
  -4  -1   1 357.259 168.312   2
   4   1   0 63353.2 2570.31   2
  -4  -1   0 75754.6 2611.57   1
   4   1   1 6280.81 634.282   2
   4   1   1 5674.08 266.087   7
   4   1   2 78659.2 2591.81   1
   4   1   2 80955.1 2918.39   2
  -4  -1  -2 81813.4 2728.11   1
   4   1   3 45547.7 1753.65   1
   4   1   3 58009.7 2436.37   2
  -4  -1  -3 52897.5 2238.57   3
   4   1   3 44053.2 1972.61   5
  -4  -1  -3 48734.3 1896.28   1
   4   1   4 147086. 4155.42   1
   4   1   4 156695. 4651.88   5
   4   1   5 364.901 126.368   4
   4   1   5 463.725 138.818   1
  -4  -1  -5 791.488 312.988   3
   4   1   5 448.269 165.437   5
  -4  -1  -5 212.326 104.168   5
  -4  -1  -6 812.838 213.707   5
  -4  -1  -6 768.904 259.346   4
   4   1   6 904.519 175.067   1
   4   1   6 980.098 238.090   4
  -4  -1  -6 908.262 272.677   3
   4   1   6 682.688 206.136   5
  -4  -1  -7 80.9627 33.3985   5
  -4  -1  -7-3.44885 98.6862   4
   4   1   7-6.04359 71.6168   4
   4   1   7 66.8655 55.3039   1
  -4  -1  -7-5.61857 107.408   3
   4   1   7 46.7920 109.730   5
  -4  -1  -8 17812.3 1434.16   4
   4   1   8 15118.4 716.766   1
   4   1   8 16535.8 1017.94   6
  -4  -1  -8 17743.3 1402.72   3
   4   1   8 17267.3 1251.75   5
  -4  -1  -8 16692.0 1007.53   5
  -4  -1  -9 187.858 170.011   4
   4   1   9 202.906 66.6102   1
  -4  -1  -9 182.434 95.9490   3
   4   1   9 269.033 158.974   5
  -4  -1 -10 8142.13 1081.57   4
   4   1  10 5745.33 257.863   1
  -4  -1 -10 8475.42 968.124   3
   4   1  10 7703.97 888.084   5
  -4  -1 -11 10.7916 155.807   4
  -4  -1 -11-229.490 187.362   3
   4   1  11-21.1260 96.8541   5
  -4  -1 -12 6195.85 1105.84   4
  -4  -1 -12 5108.98 784.354   3
   4   1  12 5125.52 799.187   5
  -4  -1 -13 1156.41 478.038   4
  -4  -1 -13 1108.84 365.181   3
   4   1  13 730.551 298.412   5
  -4  -1 -14 3923.24 973.195   4
   4   1  14 4136.97 779.818   5
  -4  -1 -14 2690.33 585.094   3
   4   1  15 581.544 332.389   5
   4   2 -11 249.486 166.061   4
   4   2 -11 796.167 339.783   6
  -4  -2  10 3484.57 780.170   5
   4   2 -10 3540.08 645.044   4
   4   2 -10 3533.58 714.475   6
  -4  -2   9 1507.18 513.887   5
   4   2  -9 1394.56 403.367   4
   4   2  -9 1538.50 497.623   6
  -4  -2   8 890.832 352.760   5
   4   2  -8 816.235 518.665   2
   4   2  -8 1402.69 381.992   4
   4   2  -8 968.723 321.124   6
  -4  -2   8 1089.13 265.693   1
  -4  -2   7-30.0678 82.2317   1
  -4  -2   7-151.464 191.736   5
   4   2  -7 463.352 339.644   2
   4   2  -7 101.999 115.732   4
  -4  -2   7 96.0040 80.9946   2
   4   2  -7 179.479 188.427   6
  -4  -2   6 3503.03 598.510   2
  -4  -2   6 2408.79 540.372   5
   4   2  -6 2702.79 784.268   2
  -4  -2   6 3484.88 466.374   7
   4   2  -6 3466.19 659.995   6
  -4  -2   6 4054.47 513.578   1
  -4  -2   5 334.447 160.496   1
   4   2  -5 43.8262 270.644   2
  -4  -2   5 563.988 166.433   7
  -4  -2   5 633.433 232.919   2
   4   2  -5 340.151 190.971   6
   4   2  -5 291.081 111.131   1
  -4  -2   4 30669.8 1722.30   2
   4   2  -4 28832.7 1686.49   1
  -4  -2   4 30367.0 1235.34   7
   4   2  -4 28460.4 1926.59   6
  -4  -2   4 30083.9 1509.95   1
   4   2  -3 3811.25 642.818   2
  -4  -2   3 6102.24 682.653   2
   4   2  -3 5552.91 657.601   1
  -4  -2   3 4764.30 355.705   7
  -4  -2   3 5300.97 589.979   1
  -4  -2   2 49799.2 2180.80   2
   4   2  -2 52576.7 2221.19   1
  -4  -2   2 48558.4 2037.04   1
  -4  -2   1 70.7658 54.4488   1
   4   2  -1 223.443 147.741   2
  -4  -2   1 190.397 99.0478   2
  -4  -2   0 2528.17 386.452   1
   4   2   0 1741.24 308.745   2
  -4  -2  -1 1354.70 277.781   1
   4   2   1 1347.86 145.107   7
   4   2   1 1269.81 270.878   2
   4   2   2 88909.9 2860.44   1
   4   2   2 95369.4 3233.18   2
  -4  -2  -3 185.092 106.879   1
   4   2   3 178.297 97.0961   2
   4   2   3 427.146 178.780   5
   4   2   4 20510.5 1027.45   1
   4   2   4 20104.7 1273.40   5
  -4  -2  -4 20916.5 1185.08   5
  -4  -2  -4 17035.3 1043.91   1
  -4  -2  -5 127.762 112.636   1
   4   2   5 100.452 83.1657   4
   4   2   5 26.2918 45.7932   1
   4   2   5 3.78739 62.6921   5
  -4  -2  -5 115.331 98.2220   5
  -4  -2  -6 110137. 3725.46   4
   4   2   6 93721.6 3110.71   4
   4   2   6 92944.9 2817.04   1
   4   2   6 100747. 3526.05   5
  -4  -2  -6 102760. 3280.75   5
  -4  -2  -6 104783. 3085.29   1
  -4  -2  -7 748.565 213.651   5
  -4  -2  -7 333.793 193.335   4
   4   2   7 317.848 125.156   4
   4   2   7 521.693 127.906   1
  -4  -2  -7 821.091 291.283   3
   4   2   7 550.727 225.610   5
  -4  -2  -8 5413.69 763.473   4
   4   2   8 4901.51 369.439   1
  -4  -2  -8 5740.90 757.647   3
   4   2   8 5657.13 719.183   5
  -4  -2  -8 5777.98 585.172   5
  -4  -2  -9-95.3136 153.207   4
   4   2   9 26.2353 33.4853   1
   4   2   9 24.3345 46.8499   6
  -4  -2  -9-100.937 71.7929   3
   4   2   9 26.7006 60.7040   5
  -4  -2 -10 13709.3 1406.81   4
   4   2  10 10410.2 376.936   1
  -4  -2 -10 13203.3 1211.12   3
   4   2  10 12143.3 1179.34   5
  -4  -2 -11 113.030 117.474   4
  -4  -2 -11 181.049 122.726   3
   4   2  11 82.4187 115.157   5
  -4  -2 -12 15147.5 1700.75   4
  -4  -2 -12 12649.2 1228.44   3
   4   2  12 14834.4 1421.30   5
  -4  -2 -13 1310.71 492.505   4
  -4  -2 -13 1117.45 361.408   3
   4   2  13 1606.96 474.124   5
  -4  -2 -14 250.536 266.800   4
  -4  -2 -14 100.525 99.7839   3
   4   2  14 330.141 214.476   5
   4   3 -11-158.778 179.863   4
  -4  -3  10 584.588 335.983   5
   4   3 -10 318.888 160.595   4
   4   3 -10 669.581 351.408   6
  -4  -3  10 573.570 194.250   1
  -4  -3   9 1290.03 312.047   1
  -4  -3   9 840.026 374.671   5
   4   3  -9 1036.86 344.674   4
   4   3  -9 1606.89 527.279   6
   4   3  -8 6557.14 836.347   4
   4   3  -8 5701.70 974.797   6
  -4  -3   8 5578.42 952.947   5
  -4  -3   8 6300.69 667.750   1
  -4  -3   7 2255.52 401.019   1
  -4  -3   7 1841.13 504.187   5
   4   3  -7 2158.59 696.121   2
  -4  -3   7 2341.09 445.605   7
   4   3  -7 2430.49 484.035   4
   4   3  -7 2308.03 580.274   6
  -4  -3   7 2163.23 463.033   2
  -4  -3   6 13304.4 1124.03   2
   4   3  -6 12453.0 1109.42   4
   4   3  -6 13504.1 1404.75   6
  -4  -3   6 11112.1 1200.47   5
   4   3  -6 9642.20 1419.37   2
  -4  -3   6 11819.2 937.176   1
  -4  -3   5 133.873 77.8384   1
  -4  -3   5 225.873 127.736   7
   4   3  -5 136.479 134.033   6
  -4  -3   5 186.769 148.573   2
  -4  -3   4 3331.24 487.545   1
  -4  -3   4 4412.89 572.930   2
   4   3  -4 3320.15 557.703   1
  -4  -3   4 3507.83 418.564   7
   4   3  -4 2608.41 600.968   2
   4   3  -4 3728.99 719.656   6
  -4  -3   3 12059.4 932.643   1
   4   3  -3 10261.3 1038.03   2
  -4  -3   3 13151.8 1016.24   2
   4   3  -3 10812.7 970.854   1
  -4  -3   3 11261.4 689.106   7
   4   3  -3 11602.1 1218.79   6
  -4  -3   2 13100.0 959.524   1
   4   3  -2 10418.0 918.264   2
  -4  -3   2 14798.4 1118.12   2
   4   3  -2 10535.8 942.786   1
  -4  -3   1 1225.78 283.972   1
   4   3  -1 965.110 140.428   7
   4   3  -1 855.007 222.610   2
   4   3  -1 1074.59 268.305   1
   4   3   0 53879.4 2132.12   2
   4   3   0 52255.3 1600.88   7
  -4  -3  -1-60.0646 83.3754   1
   4   3   1 20.7232 37.7860   7
   4   3   1-87.1141 88.8274   2
  -4  -3  -2 1309.44 328.605   1
   4   3   2 1219.86 248.757   4
   4   3   2 1319.01 333.681   2
   4   3   2 1775.31 300.980   1
  -4  -3  -3 742.411 227.014   1
   4   3   3 525.292 196.357   5
   4   3   3 523.569 158.798   1
   4   3   4 66838.5 2264.11   1
   4   3   4 70801.4 2744.01   5
   4   3   5 1030.63 205.043   1
  -4  -3  -5 553.836 189.463   1
   4   3   5 1001.95 222.610   4
   4   3   5 1114.92 311.433   5
  -4  -3  -5 1138.73 261.538   5
  -4  -3  -6 38381.2 1948.83   4
   4   3   6 34843.3 1516.94   4
   4   3   6 35584.5 1375.35   1
   4   3   6 38308.1 1958.92   5
  -4  -3  -6 36792.0 1716.11   5
  -4  -3  -7 783.653 216.668   5
  -4  -3  -7 803.782 209.015   1
   4   3   7 1039.84 181.827   1
  -4  -3  -7 1183.25 348.274   4
   4   3   7 818.043 207.099   4
   4   3   7 1012.02 283.339   5
  -4  -3  -8 12099.8 1154.43   4
   4   3   8 10876.3 786.885   4
   4   3   8 10372.5 576.869   1
   4   3   8 12375.1 1106.20   5
  -4  -3  -8 13561.3 786.961   1
  -4  -3  -9 1695.62 448.657   4
   4   3   9 1815.23 194.337   1
  -4  -3  -9 1837.32 477.865   3
   4   3   9 1952.13 449.831   5
  -4  -3 -10 30885.6 2120.10   4
   4   3  10 23350.2 1253.80   6
  -4  -3 -10 27075.5 1761.46   3
   4   3  10 22492.8 755.922   1
   4   3  10 28575.5 1857.62   5
  -4  -3 -11 527.360 271.154   4
  -4  -3 -11 680.473 281.107   3
   4   3  11 733.374 298.663   5
  -4  -3 -12 3160.77 758.411   4
  -4  -3 -12 2886.12 545.041   3
   4   3  12 2913.58 640.682   5
  -4  -3 -13 820.284 433.253   4
  -4  -3 -13 599.883 269.213   3
   4   3  13 774.376 345.762   5
  -4  -3 -14 3731.10 930.674   4
  -4  -3 -14 2771.47 537.816   3
   4   3  14 3223.25 740.016   5
   4   4 -11 122.337 109.777   4
  -4  -4  10 2084.76 623.901   5
   4   4 -10 2279.48 538.879   4
  -4  -4   9 1063.41 287.080   1
  -4  -4   9 1219.95 443.368   5
   4   4  -9 1245.15 379.467   4
   4   4  -9 1348.21 470.328   6
  -4  -4   8 2264.76 587.055   5
  -4  -4   8 2391.37 441.368   1
   4   4  -8 2880.84 555.812   4
  -4  -4   7 178.007 155.142   5
  -4  -4   7 196.905 119.186   1
   4   4  -7 235.987 182.457   4
   4   4  -7 27.4175 100.471   6
   4   4  -6 1968.05 427.711   4
  -4  -4   6 1612.07 359.987   1
   4   4  -6 1474.10 551.084   2
  -4  -4   6 1643.14 373.279   7
   4   4  -6 1850.11 540.819   6
  -4  -4   5 6492.03 712.249   1
  -4  -4   5 8517.31 824.783   2
   4   4  -5 6506.84 783.990   4
   4   4  -5 5211.85 952.743   2
   4   4  -5 6806.31 1021.20   6
   4   4  -4 12300.7 1368.38   2
  -4  -4   4 14886.9 1114.14   1
  -4  -4   4 17060.7 1059.15   7
   4   4  -4 14733.9 1537.06   6
   4   4  -3 8580.20 952.456   2
  -4  -4   3 10357.5 900.841   1
  -4  -4   3 10296.0 749.909   7
   4   4  -3 9549.26 1188.17   6
   4   4  -2 9037.06 823.520   2
  -4  -4   2 9003.80 838.441   1
   4   4  -2 7840.50 812.162   1
   4   4  -2 9352.62 1198.64   6
  -4  -4   1 4604.89 583.500   1
   4   4  -1 4171.14 493.150   2
   4   4  -1 3614.97 527.565   1
   4   4  -1 3841.50 380.324   7
  -4  -4   1 4205.34 610.321   5
  -4  -4   0 23508.5 1386.44   1
   4   4   0 22155.6 1220.53   2
   4   4   0 24033.7 1380.89   1
   4   4   0 20322.4 986.733   7
  -4  -4   0 22824.5 1413.64   5
   4   4   1 644.785 193.548   1
  -4  -4  -1 681.471 229.542   1
   4   4   1 748.464 169.124   7
   4   4   1 453.770 189.064   2
  -4  -4  -1 778.274 236.392   5
  -4  -4  -2 10596.1 886.233   1
   4   4   2 7977.65 618.717   4
   4   4   2 9404.23 772.405   1
   4   4   2 8765.16 626.645   7
  -4  -4  -2 8232.54 780.292   5
  -4  -4  -3 15182.3 1077.16   1
   4   4   3 11392.1 745.278   4
   4   4   3 13578.8 890.788   1
   4   4   3 13702.1 1123.52   5
  -4  -4  -3 12130.8 939.806   5
  -4  -4  -4 35759.2 1757.56   1
   4   4   4 29737.5 1379.82   1
   4   4   4 34302.1 1864.21   5
  -4  -4  -4 32600.7 1629.13   5
  -4  -4  -5 14752.9 1060.36   1
   4   4   5 12163.3 768.699   1
   4   4   5 13107.6 1121.20   5
  -4  -4  -5 12856.5 973.103   5
  -4  -4  -6 14201.2 1014.13   1
  -4  -4  -6 15895.5 1146.89   4
   4   4   6 12960.1 825.976   4
   4   4   6 12361.4 751.531   1
   4   4   6 15283.8 1226.67   5
  -4  -4  -6 14056.4 1007.64   5
  -4  -4  -7 376.041 158.400   1
  -4  -4  -7 211.134 111.205   4
   4   4   7 235.901 116.151   4
   4   4   7 273.305 92.2862   1
   4   4   7 167.619 121.190   5
  -4  -4  -8 23430.6 1605.11   4
   4   4   8 20493.3 1097.04   4
   4   4   8 18219.5 847.042   1
   4   4   8 21566.9 1563.42   5
  -4  -4  -8 18858.0 1100.04   1
  -4  -4  -9 377.625 148.166   1
  -4  -4  -9 172.207 155.840   4
   4   4   9 177.611 67.7598   1
   4   4   9 143.735 156.339   5
  -4  -4 -10 156.854 189.907   4
   4   4  10 82.2260 95.4850   6
   4   4  10 40.9792 32.4351   1
   4   4  10 297.512 203.395   5
  -4  -4 -11 626.161 290.076   4
  -4  -4 -11 185.691 199.510   3
   4   4  11 222.559 171.469   5
  -4  -4 -12 18280.2 1848.95   4
  -4  -4 -12 17159.6 1405.89   3
   4   4  12 18339.6 1705.82   5
  -4  -4 -13 5.92137 114.923   4
  -4  -4 -13-155.422 149.958   3
   4   4  13-81.2395 110.287   5
  -4  -4 -14 1909.59 652.172   4
  -4  -4 -14 2016.35 459.931   3
   4   4  14 2816.23 686.420   5
  -4  -5  10 52.2696 110.258   5
  -4  -5   9 367.519 260.758   5
  -4  -5   9-41.5351 82.3478   1
   4   5  -9 335.342 202.508   4
  -4  -5   8 1831.52 569.263   5
  -4  -5   8 1174.79 315.356   1
   4   5  -8 1109.66 320.234   4
   4   5  -8 1544.43 587.205   6
  -4  -5   7 4279.72 602.494   1
   4   5  -7 5030.41 691.097   4
   4   5  -7 4853.29 952.226   6
  -4  -5   7 4491.76 833.667   5
  -4  -5   6 18790.3 1305.61   1
   4   5  -6 20397.8 1390.56   4
   4   5  -6 17597.5 1837.79   6
   4   5  -5 176.298 166.692   4
   4   5  -5-33.5589 227.667   2
  -4  -5   5 16.8689 128.700   1
  -4  -5   5-20.3451 81.8940   7
   4   5  -5 189.339 253.803   6
   4   5  -4-110.402 178.788   2
  -4  -5   4 364.900 210.253   1
   4   5  -4 178.975 154.218   4
  -4  -5   4 479.249 181.655   7
   4   5  -4 161.457 174.036   6
   4   5  -3 423.889 234.627   2
  -4  -5   3 754.686 256.821   1
   4   5  -3 645.181 432.326   6
   4   5  -2 13792.3 1008.07   2
  -4  -5   2 16126.9 1172.13   1
   4   5  -2 13660.4 875.101   7
   4   5  -2 15139.5 1564.59   6
   4   5  -1 7998.83 684.334   2
  -4  -5   1 8881.14 866.702   1
   4   5  -1 8128.57 658.118   7
   4   5  -1 9099.54 1210.59   6
  -4  -5   1 8804.65 893.195   5
  -4  -5   0 7587.85 781.517   1
   4   5   0 6904.33 633.389   2
   4   5   0 6362.74 583.956   7
  -4  -5   0 5618.87 687.963   5
   4   5   1 11166.3 719.917   4
  -4  -5  -1 13940.0 1087.54   1
   4   5   1 13608.2 973.444   2
   4   5   1 12457.8 859.020   7
   4   5   1 13381.6 992.149   1
  -4  -5  -1 12553.6 1018.12   5
   4   5   2 45035.6 1930.90   1
  -4  -5  -2 46865.9 2163.08   1
   4   5   2 38972.7 1530.89   4
   4   5   2 41429.3 1782.47   7
  -4  -5  -2 41394.3 1981.09   5
  -4  -5  -3 20108.7 1329.50   1
   4   5   3 15903.8 857.961   4
   4   5   3 17429.9 1061.68   1
   4   5   3 19196.3 1399.97   5
  -4  -5  -3 17377.6 1169.53   5
   4   5   4 717.046 161.858   4
  -4  -5  -4 1001.96 293.309   1
   4   5   4 745.795 195.617   1
   4   5   4 923.790 293.659   5
  -4  -5  -4 1157.62 284.980   5
  -4  -5  -5 5846.77 702.057   1
   4   5   5 4556.30 471.821   1
   4   5   5 4627.83 677.866   5
  -4  -5  -5 5155.48 611.312   5
  -4  -5  -6 44537.8 2032.70   1
  -4  -5  -6 41053.0 1957.65   4
   4   5   6 35873.1 1454.58   4
   4   5   6 35203.0 1481.59   1
   4   5   6 42756.7 2234.49   5
  -4  -5  -7 3572.92 564.737   4
   4   5   7 2965.99 368.563   4
  -4  -5  -7 3185.13 481.261   1
   4   5   7 2592.37 318.279   1
   4   5   7 3153.68 595.352   5
  -4  -5  -8 18.6939 71.0030   4
   4   5   8 40.8431 24.9665   1
   4   5   8 32.5333 89.8983   5
  -4  -5  -9 5336.81 592.069   1
  -4  -5  -9 6050.99 841.722   4
   4   5   9 5765.81 818.820   5
   4   5   9 4386.81 385.128   1
  -4  -5 -10 8761.46 1101.30   4
   4   5  10 6559.30 587.052   6
   4   5  10 8080.45 1029.35   5
  -4  -5 -10 9695.30 708.479   1
  -4  -5 -11 1604.19 487.861   4
  -4  -5 -11 1282.97 208.280   1
   4   5  11 1368.42 446.836   5
  -4  -5 -12 4940.25 936.019   4
  -4  -5 -12 4892.78 737.511   3
   4   5  12 5601.93 925.991   5
  -4  -5 -13-105.700 212.330   4
  -4  -5 -13 82.6244 77.8832   3
   4   5  13 390.059 274.960   5
  -4  -5 -14 1607.76 576.990   4
  -4  -6   9 155.963 164.763   5
  -4  -6   9 735.109 279.687   1
  -4  -6   8 1522.42 507.954   5
  -4  -6   8 1530.53 367.548   1
  -4  -6   7-8.90337 97.6149   5
  -4  -6   7 6.83415 67.8150   1
   4   6  -7 92.4848 102.147   4
  -4  -6   6 781.141 356.681   5
  -4  -6   6 1477.06 414.883   1
   4   6  -6 1097.84 272.994   4
   4   6  -6 376.164 252.678   6
  -4  -6   5 69.5304 98.4540   1
   4   6  -5 40.5497 48.6932   4
   4   6  -5 107.375 212.371   6
  -4  -6   4 26429.5 1636.82   1
   4   6  -4 24702.5 1342.54   4
  -4  -6   4 24827.5 1543.44   7
   4   6  -4 28841.2 2433.52   6
   4   6  -3 5156.93 727.943   2
  -4  -6   3 6103.59 741.791   1
   4   6  -3 5579.41 580.380   4
   4   6  -3 5891.98 1035.22   6
   4   6  -2 564.268 198.427   7
   4   6  -2 1411.29 376.218   2
   4   6  -2 995.910 275.260   4
  -4  -6   2 523.586 253.179   1
   4   6  -2 450.170 340.266   6
   4   6  -1 3876.58 457.195   2
  -4  -6   1 3811.04 593.489   1
   4   6  -1 3189.09 461.594   7
   4   6  -1 3707.12 810.521   6
   4   6   0 14967.5 787.949   4
   4   6   0 14626.1 948.477   2
  -4  -6   0 15952.0 1248.42   1
   4   6   0 15192.7 1050.81   7
   4   6   0 14820.0 1580.57   6
   4   6   1-15.5202 43.2803   4
   4   6   1 84.6436 97.1783   7
  -4  -6  -1-40.9672 121.244   1
   4   6   1 42.2780 61.9391   2
  -4  -6  -1 56.5325 89.1424   5
   4   6   2 6614.82 468.853   4
  -4  -6  -2 8083.69 870.797   1
   4   6   2 8779.99 872.195   2
  -4  -6  -2 6741.62 736.493   5
   4   6   2 7171.75 725.934   7
   4   6   3 1081.10 175.141   4
   4   6   3 1487.11 346.068   7
  -4  -6  -3 886.624 314.671   1
  -4  -6  -4 21708.9 1491.00   1
   4   6   4 18027.4 854.037   4
   4   6   4 18517.3 1098.02   1
   4   6   4 20313.4 1523.52   5
  -4  -6  -5 4857.37 672.314   1
   4   6   5 3483.98 438.158   1
   4   6   5 3909.18 638.021   5
  -4  -6  -6 8512.40 901.697   1
   4   6   6 8163.33 582.038   4
   4   6   6 7830.20 643.226   1
   4   6   6 8756.03 995.462   5
  -4  -6  -7 17162.4 1257.72   4
  -4  -6  -7 16287.0 1246.27   1
   4   6   7 14226.6 845.027   4
   4   6   7 13648.5 843.594   1
   4   6   7 17184.5 1445.93   5
  -4  -6  -8 19531.3 1317.06   1
  -4  -6  -8 16709.9 1305.33   4
   4   6   8 13766.9 896.302   4
   4   6   8 13680.8 820.017   1
   4   6   8 17861.1 1503.23   5
  -4  -6  -9 299.074 216.050   4
  -4  -6  -9 105.697 125.601   1
   4   6   9 465.662 230.639   5
  -4  -6 -10 1253.05 286.858   1
  -4  -6 -10 1716.04 474.326   4
   4   6  10 1096.04 221.154   6
   4   6  10 1521.10 462.306   5
  -4  -6 -11 644.451 183.734   1
  -4  -6 -11 832.171 357.018   4
   4   6  11 1018.35 418.790   5
  -4  -6 -12 1900.27 574.993   4
   4   6  12 2794.02 668.799   5
  -4  -6 -13-132.676 178.217   4
  -4  -6 -13 183.801 198.408   3
   4   6  13-11.8829 168.452   5
  -4  -6 -14 650.832 392.194   4
  -4  -7   8-183.274 160.769   5
  -4  -7   8-6.94192 44.4565   1
  -4  -7   7 962.825 393.061   5
  -4  -7   7 710.225 271.019   1
  -4  -7   6 5145.13 737.497   1
   4   7  -6 6020.15 1154.21   6
  -4  -7   6 4390.38 794.998   5
  -4  -7   5 1794.50 432.030   1
   4   7  -5 2137.48 698.207   6
  -4  -7   4 4395.19 662.680   1
   4   7  -4 3571.39 847.186   6
   4   7  -3 310.340 171.976   7
   4   7  -3 277.734 110.377   4
  -4  -7   3 290.426 208.823   1
   4   7  -3-6.29225 279.449   6
   4   7  -2 6772.76 671.110   2
  -4  -7   2 9219.48 986.068   1
   4   7  -2 8503.86 544.367   4
   4   7  -2 7611.60 812.512   7
   4   7  -2 7143.18 1242.51   6
   4   7  -1 817.135 144.070   4
   4   7  -1 829.581 272.419   7
   4   7  -1 907.561 159.544   4
   4   7  -1 1042.50 242.361   2
  -4  -7   1 1158.46 343.758   1
   4   7  -1 1459.41 533.417   6
   4   7   0 6712.76 594.764   2
   4   7   0 6278.44 367.669   4
  -4  -7   0 7456.22 903.657   1
   4   7   0 6551.93 741.949   7
   4   7   0 6938.66 1171.01   6
   4   7   1-15.8658 18.3477   4
   4   7   1 110.441 152.765   7
  -4  -7  -1 263.645 193.327   1
   4   7   1 155.038 248.213   6
   4   7   1 202.204 150.017   2
  -4  -7  -2 7250.14 891.160   1
   4   7   2 5965.19 347.355   4
   4   7   2 8225.04 866.901   2
   4   7   2 5631.39 716.553   7
   4   7   2 4452.97 864.814   6
   4   7   3 273.595 87.9849   4
   4   7   3 155.743 145.879   7
  -4  -7  -3 175.031 131.629   1
  -4  -7  -4 11381.9 1125.94   1
   4   7   4 10404.5 568.477   4
   4   7   4 9709.98 977.565   7
   4   7   4 10557.5 1127.17   5
  -4  -7  -5 17177.9 1396.74   1
   4   7   5 13149.2 722.741   4
   4   7   5 16009.6 1395.62   5
  -4  -7  -6 16734.6 1400.59   1
   4   7   6 15089.2 1407.42   5
  -4  -7  -7 1044.09 299.937   4
   4   7   7 498.138 162.226   4
  -4  -7  -7 997.541 341.257   1
   4   7   7 413.670 212.746   5
  -4  -7  -8 11786.9 1078.15   4
  -4  -7  -8 11856.6 1114.51   1
   4   7   8 9790.25 779.914   4
   4   7   8 11653.6 1264.18   5
   4   7   8 9081.03 707.454   1
  -4  -7  -9 545.116 248.368   4
  -4  -7  -9 595.285 247.195   1
   4   7   9 298.001 235.023   5
  -4  -7 -10 1790.40 479.939   4
  -4  -7 -10 1383.16 350.235   1
   4   7  10 1895.84 541.871   5
  -4  -7 -11-117.108 152.709   4
   4   7  11 450.929 279.958   5
  -4  -7 -12 3920.96 820.537   4
   4   7  12 4999.12 936.587   5
  -4  -7 -13 93.4301 162.020   4
  -4  -7 -14 1318.00 532.231   4
  -4  -8   6-23.1681 95.6492   5
  -4  -8   6 14.4889 117.404   1
  -4  -8   5 51.1503 131.406   1
   4   8  -5 306.877 277.187   6
  -4  -8   4 4280.74 703.725   1
   4   8  -4 5305.20 1133.31   6
   4   8  -3 1230.10 335.481   7
  -4  -8   3 1687.68 429.152   1
   4   8  -3 1542.68 615.929   6
  -4  -8   2 10291.9 1110.88   1
   4   8  -2 8265.88 1373.62   6
   4   8  -2 9022.96 973.305   7
   4   8  -1 1547.33 388.929   7
   4   8  -1 1181.62 483.639   6
  -4  -8   1 1327.96 401.224   1
   4   8   0 822.506 282.208   7
   4   8   0 984.649 211.630   2
   4   8   0 967.209 488.334   6
  -4  -8   0 1017.71 343.156   1
   4   8   1 0.74151 98.9148   7
   4   8   1 13.8400 96.4661   6
  -4  -8  -1 237.664 160.915   1
   4   8   1 91.2543 96.4191   2
  -4  -8  -2 12985.1 1281.45   1
   4   8   2 12324.4 1179.38   7
   4   8   3 127.007 146.890   7
   4   8   3 131.256 148.167   6
  -4  -8  -3 262.175 158.423   1
   4   8   4 2803.80 289.377   4
   4   8   4 2537.70 537.989   7
   4   8   4 1900.11 538.608   6
  -4  -8  -4 2969.57 603.092   1
   4   8   4 3263.50 638.958   5
   4   8   5-25.9573 61.8552   4
   4   8   5 67.2010 83.9685   7
  -4  -8  -5-52.4696 111.533   1
   4   8   5 27.2913 97.2755   5
  -4  -8  -6 5967.60 861.734   1
   4   8   6 6786.80 946.825   5
  -4  -8  -7 870.068 342.941   1
   4   8   7 464.500 224.137   5
  -4  -8  -8 5329.57 692.031   4
  -4  -8  -8 5008.39 783.076   1
   4   8   8 4397.11 796.576   5
  -4  -8  -9 684.706 255.255   4
  -4  -8  -9 443.475 210.697   1
   4   8   9 721.544 346.622   5
  -4  -8 -10 4741.16 702.873   1
  -4  -8 -10 4570.93 754.922   4
   4   8  10 3361.56 732.963   5
  -4  -8 -11 142.305 144.020   4
   4   8  11-158.893 164.825   5
  -4  -8 -12 2562.87 657.233   4
  -4  -8 -13 38.2353 162.361   4
  -4  -9   4 1624.34 465.222   1
   4   9  -4 1217.11 571.616   6
   4   9  -3-27.4079 95.3849   7
  -4  -9   3 152.847 169.524   1
   4   9  -3 249.397 258.283   6
   4   9  -2 1567.28 429.219   7
   4   9  -2 1830.27 652.413   6
  -4  -9   2 1804.43 496.403   1
   4   9  -1 1491.57 412.280   7
   4   9  -1 2296.04 747.897   6
  -4  -9   1 1797.17 479.779   1
  -4  -9   0 7731.30 1016.35   1
   4   9   0 6550.29 887.042   7
   4   9   0 5508.06 1077.62   6
   4   9   1 3107.36 615.979   7
   4   9   1 2224.22 669.393   6
  -4  -9  -1 3689.29 710.810   1
   4   9   2 2216.23 426.519   2
   4   9   2 1580.27 452.580   7
   4   9   2 1633.66 578.685   6
  -4  -9  -2 1845.91 505.554   1
   4   9   3 139.393 101.289   6
  -4  -9  -3 30.6480 98.8077   1
   4   9   3 98.9464 166.186   7
   4   9   4 4094.51 738.248   7
   4   9   4 2338.76 600.859   6
  -4  -9  -4 4031.73 728.950   1
   4   9   5 174.014 174.794   7
   4   9   5 346.533 276.993   6
  -4  -9  -5 232.671 139.803   1
   4   9   5 373.087 256.930   5
   4   9   6 2497.71 593.783   7
   4   9   6 1148.12 383.207   6
  -4  -9  -6 2453.93 573.401   1
   4   9   6 2049.77 543.699   5
   4   9   7 1065.92 424.505   7
   4   9   7 871.027 302.562   6
  -4  -9  -7 1526.49 450.645   1
   4   9   7 1270.61 432.649   5
  -4  -9  -8 4392.95 768.616   1
   4   9   8 3922.36 819.222   5
  -4  -9  -9 535.582 281.053   1
   4   9   9 688.988 340.592   5
  -4  -9 -10 778.209 311.187   1
   4   9  10 692.121 388.707   5
   4  10  -3 634.840 303.062   7
   4  10  -2 1535.22 461.102   7
   4  10  -2 1402.67 588.640   6
   4  10  -1 771.884 329.576   7
   4  10  -1-12.1535 166.751   6
  -4 -10   1 1292.49 443.464   1
   4  10   0 877.183 354.966   7
   4  10   0 1108.52 481.136   6
  -4 -10   0 1475.93 500.043   1
   4  10   1 656.936 271.664   7
   4  10   1 654.487 388.320   6
  -4 -10  -1 527.938 293.533   1
   4  10   2 2563.31 617.749   7
   4  10   2 1978.84 614.575   6
  -4 -10  -2 2590.75 657.525   1
   4  10   3 133.510 113.959   7
   4  10   3 380.968 262.446   6
  -4 -10  -3 395.966 210.369   1
   4  10   4 2113.15 572.726   7
   4  10   4 1899.63 569.213   6
  -4 -10  -4 2133.32 584.598   1
   4  10   5 1170.87 429.931   7
   4  10   5 1643.61 479.662   6
  -4 -10  -5 1336.10 469.193   1
   4  10   6 1762.15 549.149   7
  -4 -10  -6 2356.13 601.710   1
   4  10   6 2318.92 590.454   5
   4  10   7 362.034 230.911   7
  -4 -10  -7 565.263 296.220   1
   4  10   7 322.046 244.267   5
   4  10   8 819.429 370.671   7
  -4 -10  -8 856.332 356.570   1
   4  10   8 1158.05 450.615   5
   4  10   9 659.773 368.561   7
  -4 -10  -9 257.970 149.702   1
   4  10   9 378.957 186.094   5
  -4 -10 -10 1305.31 428.961   1
   4  11  -1-12.8119 97.0700   7
   4  11  -1 3.41144 131.887   6
   4  11   0 1190.37 424.781   7
   4  11   0 885.623 409.975   6
   4  11   1 495.961 284.958   7
   4  11   1 107.385 149.416   6
   4  11   2 1507.20 503.227   7
   4  11   2 578.101 314.763   6
   4  11   3 1032.32 411.041   7
   4  11   4 1832.73 570.129   7
  -4 -11  -4 1905.83 572.291   1
   4  11   5 483.737 291.821   7
  -4 -11  -5 813.437 390.520   1
   4  11   6 802.126 404.868   7
  -4 -11  -6 1751.40 562.162   1
   4  11   6 1074.49 413.758   5
   4  11   7-1.50682 105.841   7
  -4 -11  -7 314.983 254.990   1
   4  11   7-39.9472 122.668   5
  -4 -11  -8 2788.69 670.687   1
   4  11   8 2172.63 627.464   5
  -4 -11  -9 129.504 145.433   1
   5 -10  -3 692.328 465.770   2
   5 -10  -2 60.3627 335.881   2
  -5   9   6-16.0196 176.484   7
  -5   9   5 1590.46 606.364   7
   5  -9  -4 176.401 482.849   2
  -5   9   4-57.6794 194.787   7
   5  -9  -3-298.610 460.193   2
  -5   9   3 767.818 393.677   7
   5  -9  -2 360.015 181.638   2
  -5   9   2 1153.69 493.288   7
   5  -9  -1 108.174 252.269   2
  -5   9   1 538.662 335.789   7
   5  -9   0 743.142 480.015   2
  -5   9   0 2104.03 637.692   7
   5  -9   1 4902.54 1243.31   2
  -5   9  -1 6205.28 1090.08   7
  -5   9  -2 327.740 295.133   7
  -5   9  -3 651.262 312.118   7
  -5   8   8-92.4705 115.532   5
  -5   8   7 2041.55 421.903   5
  -5   8   7 2715.64 805.723   7
  -5   8   6 180.431 134.122   5
   5  -8  -6 15.5768 377.627   2
  -5   8   6 145.652 231.383   7
   5  -8  -5 1836.23 831.083   2
  -5   8   5 1565.38 572.646   7
   5  -8  -4 39.6816 225.774   2
  -5   8   4-130.596 175.314   7
   5  -8  -3 2935.99 1055.98   2
  -5   8   3 4968.26 949.891   7
   5  -8  -2-327.234 403.591   2
  -5   8   2 881.905 431.779   7
   5  -8  -1 2088.20 839.152   2
  -5   8   1 5814.03 987.913   7
   5  -8   0 150.150 180.906   2
  -5   8   0 1399.34 485.807   7
   5  -8   1 795.363 540.991   2
  -5   8  -1 458.209 271.115   7
   5  -8   2-157.678 334.519   2
  -5   8  -2-39.4460 183.556   7
  -5   8  -3 4683.92 861.294   7
   5  -8   3 2996.32 831.418   2
   5  -8   4-320.104 210.974   1
   5  -8   5 2109.73 470.250   1
   5  -8   6 75.5114 86.3026   1
   5  -8   7 1486.89 380.450   1
  -5   7   9 3018.14 566.138   5
  -5   7   8 176.371 150.821   5
  -5   7   8 133.693 204.003   7
  -5   7   7 1438.33 375.348   5
   5  -7  -7 1263.66 829.865   2
  -5   7   7 1810.91 644.973   7
  -5   7   6-33.4069 79.7315   5
   5  -7  -6-298.815 334.429   2
  -5   7   6-101.227 202.578   7
  -5   7   5 7958.61 1204.40   7
  -5   7   5 7862.48 824.291   5
  -5   7   4 118.711 114.988   5
  -5   7   4-2.42076 132.301   7
  -5   7   3 11233.6 1324.71   7
  -5   7   3 9556.88 828.351   5
  -5   7   2 252.048 136.224   5
   5  -7  -2-66.7040 248.450   2
  -5   7   2 50.3902 141.881   7
  -5   7   1 346.986 133.450   5
   5  -7  -1 779.203 410.023   2
  -5   7   1 349.832 224.424   7
   5  -7   0 211.644 283.329   2
  -5   7   0 180.533 250.019   7
   5  -7   1 13564.0 1780.84   2
  -5   7  -1 18488.2 1636.65   7
  -5   7  -2 235.743 199.928   7
   5  -7   2 266.077 271.082   2
  -5   7  -2 318.862 318.864   3
   5  -7   3 8247.71 1236.30   2
  -5   7  -3 9886.82 1190.61   7
  -5   7  -3 7631.24 1291.79   3
   5  -7   4 312.514 294.721   2
  -5   7  -4 454.523 372.598   3
   5  -7   5 3194.42 724.803   2
  -5   7  -5 1879.75 697.846   3
   5  -7   6 247.928 215.065   2
   5  -7   6 133.763 67.5259   1
   5  -7   7 6013.98 742.945   1
   5  -7   8-17.7672 50.1405   1
  -5   6   9 960.954 336.988   5
  -5   6   8 282.678 200.753   5
   5  -6  -8 703.055 817.375   2
  -5   6   8 326.046 301.751   7
  -5   6   7 2992.07 585.495   5
   5  -6  -7 2838.43 1090.19   2
  -5   6   7 3828.10 842.391   7
  -5   6   6 554.563 249.892   5
   5  -6  -6 1139.50 635.381   2
  -5   6   6 736.047 371.979   7
  -5   6   5 1981.33 461.561   5
   5  -6  -5 2054.19 848.399   2
  -5   6   5 2464.13 619.056   7
  -5   6   4 383.830 186.814   5
   5  -6  -4-275.556 482.857   2
  -5   6   4 413.004 242.316   7
   5  -6  -3 5884.45 1335.52   2
  -5   6   3 9502.97 1101.59   7
  -5   6   3 7645.49 855.585   5
  -5   6   2 966.920 286.721   5
   5  -6  -2 916.194 586.495   2
  -5   6   2 1419.25 412.256   7
  -5   6   2 1537.78 470.160   3
   5  -6  -1 23135.6 2409.58   2
  -5   6   1 30083.3 1957.75   7
  -5   6   1 24952.1 2026.95   3
  -5   6   1 24922.4 1480.57   5
  -5   6   0 3118.76 595.700   7
   5  -6   0 2673.66 738.634   2
  -5   6   0 2810.29 658.572   3
  -5   6   0 3464.82 458.645   5
  -5   6   0 2341.16 390.537   5
  -5   6  -1 6530.82 873.173   7
   5  -6   1 4619.13 934.467   2
  -5   6  -1 5378.70 964.745   3
  -5   6  -1 5337.34 502.824   5
  -5   6  -2 88.5565 58.7316   5
  -5   6  -2-139.628 170.908   7
   5  -6   2 317.003 252.215   2
  -5   6  -2 108.349 177.056   3
   5  -6   3 12195.1 1379.63   2
  -5   6  -3 11768.5 1212.91   7
  -5   6  -3 11431.5 1492.48   3
   5  -6   4 447.352 265.922   2
  -5   6  -4 485.132 345.405   3
   5  -6   5 11532.0 1247.15   2
  -5   6  -5 13342.4 1688.52   3
   5  -6   6-190.353 180.770   2
  -5   6  -6-172.743 184.000   3
   5  -6   7 4659.37 775.694   2
  -5   6  -7 4146.08 994.121   3
   5  -6   7 3953.87 564.428   1
  -5   6  -8 415.717 334.699   3
   5  -6   8-77.9561 131.857   1
  -5   6  -9 7517.90 1372.42   3
   5  -6   9 6461.75 700.461   1
  -5   5   9 1848.10 494.192   5
  -5   5   8 9.73677 91.7900   5
   5  -5  -8 220.421 315.415   2
  -5   5   8-33.3449 58.9701   7
  -5   5   7 769.906 312.854   5
   5  -5  -7 1201.62 676.515   2
  -5   5   7 1777.04 543.034   7
  -5   5   6-197.062 197.228   5
   5  -5  -6-469.480 594.753   2
  -5   5   6 233.622 161.987   7
  -5   5   5 2133.47 542.631   5
   5  -5  -5 1627.92 668.918   2
  -5   5   5 3148.72 630.322   7
   5  -5  -5 2677.61 420.806   3
  -5   5   4 178.766 185.360   5
  -5   5   4 85.6663 69.9522   7
   5  -5  -4 353.479 178.541   3
   5  -5  -3 13602.6 1959.38   2
  -5   5   3 19669.9 1458.52   7
  -5   5   3 14983.7 1357.28   3
  -5   5   3 15701.8 1356.15   5
   5  -5  -2 9916.91 1529.13   2
  -5   5   2 10150.4 1151.55   3
  -5   5   2 10673.6 1053.12   5
  -5   5   1 1852.20 409.174   5
  -5   5   1 2426.72 476.249   7
   5  -5  -1 1183.26 520.579   2
  -5   5   1 1480.66 417.476   3
  -5   5   0 1230.56 291.529   5
  -5   5   0 1108.56 327.429   7
   5  -5   0 798.620 434.642   2
  -5   5   0 784.786 344.144   3
   5  -5   1 9041.10 1175.66   2
  -5   5  -1 11461.5 1078.87   7
   5  -5   1 8958.96 814.153   7
  -5   5  -1 10160.1 1238.72   3
  -5   5  -1 10310.4 769.600   5
  -5   5  -1 9198.83 798.285   5
  -5   5  -2 97.2985 73.6964   5
  -5   5  -2 44.7636 47.2176   7
   5  -5   2-4.08886 79.1448   7
   5  -5   2-73.6183 176.058   2
  -5   5  -2 251.423 196.468   3
  -5   5  -2 75.7784 58.8969   5
   5  -5   3 26965.3 1928.69   2
  -5   5  -3 27053.6 2199.44   3
  -5   5  -3 31420.4 1148.68   5
  -5   5  -3 27647.2 1227.63   5
  -5   5  -4 89.4544 40.4086   5
   5  -5   4 214.366 166.904   2
  -5   5  -4-80.8210 187.980   3
   5  -5   5 4679.69 732.765   2
  -5   5  -5 4455.77 914.838   3
   5  -5   6 79.7180 141.225   2
  -5   5  -6 70.5723 231.049   3
   5  -5   7 11028.8 1149.73   2
  -5   5  -7 11324.9 1540.96   3
   5  -5   8 178.835 43.2748   1
   5  -5   8 226.102 72.6747   2
   5  -5   9 9365.47 1113.31   2
  -5   5  -9 8160.47 1385.46   3
   5  -5   9 7138.99 699.078   1
  -5   5 -10 39.3549 192.003   3
  -5   4   9 1395.65 456.552   5
   5  -4  -9 2396.09 978.311   2
  -5   4   8-5.52543 125.009   5
   5  -4  -8-57.9866 348.906   2
  -5   4   8 131.616 90.6764   7
   5  -4  -8 440.999 226.110   6
  -5   4   7 3157.93 691.977   5
   5  -4  -7 3104.77 1131.54   2
  -5   4   7 3489.02 668.755   7
   5  -4  -7 3659.02 569.341   6
  -5   4   6 431.031 214.399   5
   5  -4  -6 19.6601 297.067   2
  -5   4   6 763.488 282.268   7
  -5   4   5 1480.44 444.848   5
   5  -4  -5 576.851 287.099   2
  -5   4   5 2297.85 461.978   7
  -5   4   5 1847.06 383.023   3
  -5   4   4 1715.88 440.223   5
   5  -4  -4 1540.32 546.511   2
  -5   4   4 1562.06 364.380   7
  -5   4   4 1277.89 339.410   3
   5  -4  -4 1766.45 334.607   3
  -5   4   3 3327.61 597.428   5
  -5   4   3 4877.36 625.480   7
   5  -4  -3 2288.82 677.963   2
   5  -4  -3 3615.97 491.129   3
  -5   4   3 3096.18 558.068   3
  -5   4   2 134.605 121.331   5
   5  -4  -2 30.9993 236.990   2
  -5   4   2 234.223 140.589   7
  -5   4   2 86.6460 83.2620   3
   5  -4  -2 112.174 81.3722   3
   5  -4  -1 18730.1 1824.20   2
  -5   4   1 21894.3 1352.03   7
  -5   4   1 19785.5 1549.83   3
   5  -4  -1 20204.3 1338.77   3
  -5   4   1 18665.0 1318.59   5
  -5   4   0 657.777 232.004   7
   5  -4   0 1010.66 428.874   2
  -5   4   0 791.588 305.739   3
  -5   4  -1 3761.23 550.225   7
   5  -4   1 3390.75 450.936   7
   5  -4   1 4207.68 726.001   2
  -5   4  -1 3882.35 722.196   3
   5  -4   2 2053.64 367.816   7
  -5   4  -2 2124.13 416.938   7
   5  -4   2 2158.46 491.466   2
  -5   4  -2 2042.41 324.658   5
  -5   4  -2 1595.46 473.466   3
   5  -4   3 3159.57 500.224   7
   5  -4   3 2843.15 564.253   2
  -5   4  -3 2649.33 632.727   3
  -5   4  -3 3216.53 381.794   5
  -5   4  -4 367.208 110.881   5
   5  -4   4 374.354 173.656   7
   5  -4   4-155.816 189.630   2
  -5   4  -4 510.699 342.251   3
   5  -4   5 30037.3 1901.93   2
  -5   4  -5 31646.0 2408.00   3
  -5   4  -5 33236.6 1229.04   5
   5  -4   6 1942.41 443.195   2
  -5   4  -6 1747.22 547.527   3
  -5   4  -6 2041.68 251.177   5
   5  -4   7 8339.93 987.000   2
  -5   4  -7 8175.52 1246.51   3
   5  -4   8 192.221 166.565   2
  -5   4  -8 158.176 142.587   3
   5  -4   9 7198.17 977.664   2
  -5   4  -9 7249.95 1232.95   3
   5  -4   9 6250.22 617.163   1
  -5   4 -10-152.186 149.308   3
   5  -4  10-55.1902 73.7699   2
  -5   4 -11 1160.16 486.992   3
   5  -4  11 1849.94 533.993   2
  -5   4 -12 62.2625 151.808   3
   5  -3 -10 149.117 269.730   2
  -5   3   9 1592.01 513.093   5
   5  -3  -9 2341.60 1009.63   2
   5  -3  -9 1416.94 390.026   6
  -5   3   8 2304.39 587.528   5
   5  -3  -8 1750.63 403.513   6
  -5   3   7 3607.98 761.967   5
   5  -3  -7 2539.30 960.985   2
   5  -3  -7 3378.02 564.720   6
  -5   3   6 633.470 312.014   5
   5  -3  -6 193.294 285.724   2
  -5   3   6 821.070 286.751   7
   5  -3  -5 6413.24 1373.58   2
  -5   3   5 8005.56 763.699   3
  -5   3   5 6739.26 972.977   5
  -5   3   4 4516.08 547.023   7
   5  -3  -4 3284.44 938.805   2
  -5   3   4 3555.86 513.274   3
  -5   3   4 4050.76 689.306   5
   5  -3  -3 8136.50 1299.53   2
  -5   3   3 12410.6 891.254   7
  -5   3   3 9293.37 913.824   3
  -5   3   3 9114.02 996.444   5
  -5   3   2 1077.33 305.596   5
  -5   3   2 1475.45 287.005   7
   5  -3  -2 786.864 375.938   2
  -5   3   2 1240.30 344.273   3
   5  -3  -1 4818.50 863.120   2
  -5   3   1 6040.24 588.326   7
  -5   3   1 4922.94 695.141   3
   5  -3  -1 5327.20 606.292   3
   5  -3   0 5464.64 834.262   2
  -5   3   0 6250.40 617.932   7
  -5   3   0 6081.57 789.753   3
   5  -3   0 5479.52 641.797   3
   5  -3   1 6596.32 858.683   2
  -5   3  -1 6491.79 628.303   7
   5  -3   1 5255.54 517.780   7
  -5   3  -1 5604.18 800.234   3
   5  -3   1 5858.81 678.208   3
   5  -3   2 2430.12 371.410   7
   5  -3   2 2666.99 496.885   2
  -5   3  -2 2532.54 530.604   3
  -5   3  -2 3506.44 659.207   2
   5  -3   3 23769.9 1618.92   2
   5  -3   3 25105.3 1380.80   7
  -5   3  -3 26041.4 1912.92   3
  -5   3  -3 25060.9 1260.35   5
   5  -3   4 1992.23 386.839   7
   5  -3   4 2010.11 426.829   2
  -5   3  -4 2040.00 311.843   5
  -5   3  -4 2319.56 571.938   3
   5  -3   5 10700.4 1054.26   2
   5  -3   5 10015.6 935.723   7
  -5   3  -5 11477.8 1332.16   3
  -5   3  -5 10151.9 694.647   5
  -5   3  -6-4.91125 30.6433   5
   5  -3   6 114.690 133.691   2
  -5   3  -6-106.250 217.824   3
   5  -3   7 10353.6 1108.01   2
  -5   3  -7 9823.34 1307.83   3
  -5   3  -8 234.227 255.845   3
   5  -3   8-11.8368 102.463   2
   5  -3   8 51.6130 89.6222   5
   5  -3   9 7084.66 988.279   2
  -5   3  -9 5733.80 1056.73   3
   5  -3   9 7363.50 749.167   5
   5  -3  10 128.033 65.5219   1
  -5   3 -10 125.273 209.336   3
   5  -3  10 501.415 264.056   2
   5  -3  11 6170.40 1032.13   2
  -5   3 -11 4515.08 942.489   3
  -5   3 -12-95.7061 133.156   3
   5  -3  12-58.3500 185.652   2
  -5   3 -13 545.570 372.729   3
   5  -2 -10 377.410 484.157   2
   5  -2 -10 642.467 290.942   4
   5  -2 -10 1034.12 341.862   6
  -5   2   9 1088.49 446.219   5
   5  -2  -9 1368.70 726.886   2
   5  -2  -9 2155.77 525.449   4
   5  -2  -9 1246.88 368.849   6
  -5   2   8 549.996 306.905   5
   5  -2  -8 347.556 527.098   2
   5  -2  -8 112.179 126.251   6
   5  -2  -7 5796.08 1469.92   2
   5  -2  -7 6172.74 794.925   6
  -5   2   7 5898.40 973.280   5
  -5   2   6 1530.63 458.428   5
   5  -2  -6 2000.41 770.804   2
  -5   2   6 1216.99 245.996   3
  -5   2   5 2151.41 493.145   5
   5  -2  -5 2105.78 697.602   2
  -5   2   5 3041.98 426.588   7
  -5   2   5 2049.69 346.317   3
  -5   2   4 734.519 278.466   5
   5  -2  -4 1328.57 507.929   2
  -5   2   4 1136.66 228.688   7
  -5   2   4 797.324 236.972   3
   5  -2  -3 13420.0 1583.86   2
  -5   2   3 17080.8 877.930   7
  -5   2   3 13093.7 1028.26   3
  -5   2   2 4.67832 30.7387   7
   5  -2  -2 97.6268 109.261   2
  -5   2   2 157.984 106.560   3
   5  -2  -1 54962.4 2897.48   2
  -5   2   1 54271.3 2508.44   3
   5  -2   0 1670.98 327.988   1
   5  -2   0 2186.22 511.231   2
  -5   2   0 2117.02 473.542   2
  -5   2   0 1654.37 388.581   3
   5  -2   1 19461.9 1441.94   2
   5  -2   1 17459.0 902.401   7
  -5   2  -1 19051.2 1432.85   3
  -5   2  -1 20377.5 1280.55   5
   5  -2   1 18006.2 1113.69   1
   5  -2   2 85.1583 68.1981   7
   5  -2   2 90.8242 74.8925   2
  -5   2  -2 134.084 163.314   3
   5  -2   2 143.665 100.758   1
   5  -2   3 293.376 136.961   4
   5  -2   3 222.202 124.829   7
   5  -2   3 288.321 118.505   2
  -5   2  -3 187.147 107.861   3
   5  -2   3 328.264 150.319   1
   5  -2   4 2289.56 378.206   7
   5  -2   4 2100.90 440.666   2
  -5   2  -4 3207.52 650.741   3
   5  -2   4 2632.90 389.412   1
   5  -2   5 7984.54 909.776   2
   5  -2   5 8260.96 805.947   7
  -5   2  -5 9167.69 1126.01   3
   5  -2   5 7684.49 678.229   1
   5  -2   6 258.642 145.259   7
   5  -2   6 10.1655 114.841   2
  -5   2  -6 152.344 153.370   3
   5  -2   6 239.007 126.593   1
   5  -2   7 22080.9 1686.11   2
  -5   2  -7 20567.6 1823.08   3
   5  -2   7 20014.9 1271.39   5
  -5   2  -7 19932.9 1049.70   5
   5  -2   7 18533.7 1069.21   1
  -5   2  -8 1403.61 492.678   3
   5  -2   8 2044.67 493.529   2
  -5   2  -8 1780.86 293.154   5
   5  -2   8 1514.32 336.292   5
   5  -2   8 1560.95 281.120   1
  -5   2  -9 28156.6 2270.02   3
   5  -2   9 25756.5 1572.21   5
  -5   2  -9 24817.3 1340.01   5
  -5   2 -10-202.296 235.561   3
   5  -2  10-127.666 326.311   2
   5  -2  10-33.7561 78.2140   5
  -5   2 -11 2012.87 634.493   4
  -5   2 -11 2286.76 652.217   3
   5  -2  11 3099.50 793.192   2
   5  -2  11 2372.43 493.729   5
  -5   2 -12 48.9351 153.863   4
  -5   2 -12-34.5381 119.706   3
   5  -2  12-197.202 266.766   2
  -5   2 -13 1336.58 502.944   3
   5  -2  13 1142.48 505.168   2
   5  -1 -11 698.144 297.060   6
   5  -1 -10 925.981 535.629   2
   5  -1 -10 675.791 311.394   4
   5  -1 -10 131.591 141.717   6
  -5   1   9 1463.03 509.066   5
   5  -1  -9 1566.97 801.796   2
   5  -1  -9 1692.12 453.615   4
   5  -1  -9 1602.34 483.549   6
  -5   1   8 232.577 213.424   5
   5  -1  -8 430.569 327.423   2
   5  -1  -8 329.071 231.174   6
  -5   1   7 1658.02 486.637   5
   5  -1  -7 892.964 490.207   2
   5  -1  -7 2466.85 538.573   6
   5  -1  -6 6224.57 1327.28   2
  -5   1   6 6785.48 550.595   3
   5  -1  -6 7160.53 904.395   6
  -5   1   6 6997.05 1007.88   5
  -5   1   5 21196.1 1151.25   3
  -5   1   5 22713.9 1756.54   5
  -5   1   4 8177.55 488.457   7
   5  -1  -4 5732.07 1085.75   2
  -5   1   4 6208.38 601.821   3
   5  -1  -3 17307.8 1756.23   2
  -5   1   3 17194.0 1114.64   3
   5  -1  -2 1347.74 305.672   1
   5  -1  -2 2261.82 592.732   2
  -5   1   2 2276.41 525.610   2
  -5   1   2 1794.33 359.485   3
   5  -1  -1 9281.80 1010.52   2
  -5   1   1 10396.6 1084.65   2
  -5   1   1 8377.07 796.789   3
   5  -1  -1 9413.82 809.554   1
   5  -1   0 321.999 141.984   1
   5  -1   0 223.011 145.361   2
  -5   1   0 454.681 251.496   2
  -5   1   0 160.745 65.2281   3
   5  -1   1 22473.7 1517.02   2
   5  -1   1 21606.0 890.430   7
  -5   1  -1 23539.0 1499.80   3
  -5   1  -1 23156.5 1406.32   5
   5  -1   1 22041.0 1258.69   1
   5  -1   2 1984.17 340.663   1
   5  -1   2 1896.84 259.864   7
   5  -1   2 1255.31 311.957   2
  -5   1  -2 2210.86 450.700   3
  -5   1  -2 1749.38 347.542   5
   5  -1   3 31526.4 1736.14   4
   5  -1   3 33684.4 1834.73   2
   5  -1   3 28623.1 1313.75   7
  -5   1  -3 32264.5 1942.46   3
  -5   1  -3 30606.9 1532.33   5
   5  -1   3 31765.3 1490.24   1
   5  -1   4 8.45313 52.4864   1
   5  -1   4-46.0214 82.8011   4
   5  -1   4 26.6256 36.2323   7
   5  -1   4-2.69787 134.272   2
  -5   1  -4-62.5242 98.9460   3
  -5   1  -4 27.2302 82.0816   5
   5  -1   5 7707.52 894.601   2
   5  -1   5 6036.75 643.284   7
  -5   1  -5 8161.01 995.257   3
  -5   1  -5 6839.74 636.837   5
   5  -1   5 6052.09 574.370   1
   5  -1   6 3297.74 511.859   7
  -5   1  -6 4942.55 800.122   3
   5  -1   6 3784.26 549.388   5
  -5   1  -6 3868.67 475.213   5
   5  -1   6 4025.06 669.268   2
   5  -1   6 3262.00 409.885   1
   5  -1   7 24021.2 1888.33   2
   5  -1   7 20815.8 1437.82   7
  -5   1  -7 20502.4 1723.40   3
   5  -1   7 19642.3 1305.88   5
  -5   1  -7 19269.8 1107.10   5
   5  -1   7 18711.3 1031.35   1
  -5   1  -8-2.72480 25.0952   5
   5  -1   8 25.5098 66.4250   1
  -5   1  -8-201.837 244.008   3
   5  -1   8 27.0439 59.7956   5
   5  -1   9 7098.63 554.555   1
  -5   1  -9 7336.11 1082.70   3
   5  -1   9 7752.80 854.365   5
  -5   1  -9 7663.93 675.569   5
  -5   1 -10 5.99167 151.524   4
  -5   1 -10 46.6973 200.387   3
   5  -1  10-24.6559 74.8812   5
  -5   1 -11 13910.5 1607.66   4
  -5   1 -11 11091.7 1394.02   3
   5  -1  11 11048.0 1119.29   5
  -5   1 -12 662.712 416.412   4
  -5   1 -12 717.627 412.784   3
   5  -1  12 307.396 176.568   5
  -5   1 -13 1713.61 538.319   3
   5  -1  13 2112.42 524.928   5
  -5   1 -14 388.869 234.168   3
   5   0 -11 1417.21 453.757   6
   5   0 -10 1119.85 388.261   4
   5   0 -10 745.297 260.336   6
  -5   0   9 2411.10 670.976   5
   5   0  -9 2324.53 877.886   2
   5   0  -9 2735.78 576.269   4
   5   0  -9 2337.83 594.963   6
  -5   0   8 496.914 311.582   5
   5   0  -8 919.948 646.050   2
   5   0  -8 904.471 323.328   6
   5   0  -7 5024.90 1191.38   2
   5   0  -7 6624.32 904.066   6
  -5   0   7 5987.57 972.657   5
  -5   0   6 1515.90 476.981   5
   5   0  -6 647.313 416.979   2
  -5   0   6 2214.71 309.023   7
  -5   0   6 1601.31 251.139   3
   5   0  -6 1643.12 438.018   6
  -5   0   5 591.749 262.283   5
  -5   0   5 1605.44 207.922   7
   5   0  -5 1204.08 557.433   2
  -5   0   5 759.114 184.411   3
   5   0  -4 8303.80 1241.64   2
  -5   0   4 10283.1 754.570   3
   5   0  -3 8073.92 1134.68   2
  -5   0   3 9863.77 1072.80   2
  -5   0   3 7888.86 694.598   3
   5   0  -2 23.5821 51.9380   1
   5   0  -2 10.0969 138.929   2
  -5   0   2 311.446 218.173   2
  -5   0   2 65.3700 88.2961   3
   5   0  -1 48717.9 2124.60   1
   5   0  -1 46601.2 2414.25   2
  -5   0   1 55333.3 2656.26   2
  -5   0   1 50257.1 2146.14   3
   5   0   0 10956.7 886.087   1
   5   0   0 10919.6 1027.59   2
  -5   0   0 11101.6 955.025   3
   5   0   1 54476.3 2167.73   1
   5   0   1 50283.8 2357.00   2
   5   0   1 51497.8 1418.93   7
  -5   0  -1 57341.1 2462.97   3
  -5   0  -1 55512.7 2387.93   5
   5   0   2 17391.4 1060.36   1
   5   0   2 16147.9 1214.98   2
   5   0   2 15098.3 711.970   7
  -5   0  -2 17822.1 1295.69   3
  -5   0  -2 16187.3 1131.26   5
   5   0   3 12642.5 876.282   1
   5   0   3 12449.7 1021.65   4
   5   0   3 12564.9 1080.17   2
   5   0   3 11410.0 696.928   7
  -5   0  -3 13864.7 1177.42   3
  -5   0  -3 11711.9 919.457   5
   5   0   4 2913.81 398.312   1
   5   0   4 2583.99 444.176   4
   5   0   4 2669.08 358.054   7
  -5   0  -4 2944.76 433.106   5
   5   0   4 2964.01 526.098   2
  -5   0  -4 3422.46 600.271   3
   5   0   5 19761.9 1076.32   1
   5   0   5 18451.7 1244.17   4
   5   0   5 23646.9 1680.57   2
   5   0   5 18501.1 1127.12   7
  -5   0  -5 20850.7 1584.37   3
   5   0   5 19703.2 1311.33   5
  -5   0  -5 20303.2 1201.41   5
  -5   0  -6 49.4607 56.1697   5
   5   0   6 292.340 127.732   1
   5   0   6-17.0770 195.079   2
  -5   0  -6 243.105 226.789   3
   5   0   6 230.758 145.781   5
  -5   0  -7 186.176 99.3762   5
   5   0   7 63.9783 29.8876   1
   5   0   7 79.0018 98.1514   2
  -5   0  -7-124.493 217.582   3
   5   0   7 77.6035 71.2645   5
  -5   0  -8 1213.37 265.235   5
   5   0   8 1172.12 215.319   1
  -5   0  -8 1710.08 487.835   3
   5   0   8 1134.20 329.318   5
   5   0   9 18305.1 919.039   1
  -5   0  -9 26559.2 1991.40   4
  -5   0  -9 21654.2 1808.74   3
   5   0   9 23046.1 1557.67   5
  -5   0 -10 559.650 277.478   4
  -5   0 -10 346.209 259.816   3
   5   0  10 510.678 221.216   5
  -5   0 -11 8420.15 1234.39   4
  -5   0 -11 5349.20 938.572   3
   5   0  11 7095.47 913.796   5
  -5   0 -12 826.524 422.858   4
  -5   0 -12 512.512 293.885   3
   5   0  12 223.752 156.224   5
  -5   0 -13 1433.63 602.995   4
  -5   0 -13 1317.05 483.885   3
   5   0  13 1670.91 485.603   5
  -5   0 -14 58.8722 125.485   3
   5   0  14 335.561 231.104   5
   5   1 -10 1443.36 413.943   4
   5   1 -10 534.842 309.920   6
  -5  -1   9 1528.10 542.951   5
   5   1  -9 1751.08 769.277   2
   5   1  -9 1360.99 409.820   4
   5   1  -9 537.030 289.547   6
  -5  -1   8 293.546 219.227   5
   5   1  -8-50.9938 324.527   2
   5   1  -8 181.021 196.888   4
   5   1  -8-83.4156 123.983   6
  -5  -1   7 894.550 405.700   5
   5   1  -7 593.176 444.743   2
   5   1  -7 316.048 189.356   6
  -5  -1   6-140.435 149.263   5
   5   1  -6-330.529 341.961   2
  -5  -1   6 31.6492 46.1203   7
   5   1  -6 66.8020 176.510   6
  -5  -1   6 65.6186 61.8531   3
  -5  -1   5 17885.0 775.779   7
   5   1  -5 15155.1 1406.56   6
  -5  -1   5 14620.1 888.460   3
   5   1  -4 3909.40 858.935   2
  -5  -1   4 4887.79 514.728   3
   5   1  -3 24730.6 1989.79   2
  -5  -1   3 34433.9 2032.70   2
  -5  -1   3 28012.5 1412.95   3
  -5  -1   3 31027.9 1644.17   1
   5   1  -2 1513.95 348.781   1
   5   1  -2 1434.22 405.152   2
  -5  -1   2 1071.06 326.768   2
  -5  -1   2 1308.17 317.996   1
  -5  -1   2 1268.09 288.319   3
   5   1  -1 8417.22 898.868   2
   5   1  -1 8795.12 823.732   1
  -5  -1   1 10680.7 1087.10   2
  -5  -1   1 9440.85 826.091   3
  -5  -1   1 9781.69 865.288   1
   5   1   0 7809.05 751.076   1
   5   1   0 6738.12 774.518   2
  -5  -1   0 7994.41 778.748   3
  -5  -1   0 7496.29 832.218   5
  -5  -1   0 8115.61 776.482   1
   5   1   1 17073.6 1114.05   1
   5   1   1 15717.8 1189.33   2
  -5  -1  -1 18357.3 1288.32   3
  -5  -1  -1 17017.9 1237.92   5
  -5  -1  -1 18208.3 1187.55   1
   5   1   2 20006.1 1176.67   1
   5   1   2 18416.1 734.186   7
   5   1   2 20387.4 1374.38   2
  -5  -1  -2 20776.9 1413.89   3
  -5  -1  -2 19721.5 1289.40   5
   5   1   3 66153.8 2415.08   1
   5   1   3 61300.8 2563.27   4
   5   1   3 70940.4 2899.23   2
  -5  -1  -3 72823.2 2968.33   3
  -5  -1  -3 65728.0 2594.41   5
   5   1   4 3754.13 448.695   1
   5   1   4 3407.15 490.612   4
   5   1   4 3977.27 643.684   2
  -5  -1  -4 4001.39 660.926   3
  -5  -1  -4 3571.78 498.350   5
   5   1   5 9627.62 716.010   1
   5   1   5 8667.00 802.963   4
  -5  -1  -5 9969.46 1046.14   3
   5   1   5 10260.2 950.364   5
  -5  -1  -5 9521.16 824.591   5
  -5  -1  -6 367.813 140.784   5
   5   1   6 535.911 159.046   1
   5   1   6 614.344 229.035   5
   5   1   7 8876.54 642.923   1
  -5  -1  -7 9700.98 1115.54   3
   5   1   7 9764.26 961.609   5
  -5  -1  -7 9390.03 805.759   5
  -5  -1  -8 4104.39 718.799   4
   5   1   8 3317.99 361.518   1
   5   1   8 3551.35 578.485   5
  -5  -1  -8 3281.67 658.562   3
  -5  -1  -9 7284.45 1016.98   4
   5   1   9 5566.29 453.760   1
  -5  -1  -9 6918.76 980.792   3
   5   1   9 6524.03 847.561   5
  -5  -1 -10 759.282 364.686   4
  -5  -1 -10 616.281 231.640   3
   5   1  10 720.134 279.824   5
  -5  -1 -11 7047.69 1123.68   4
  -5  -1 -11 5299.86 886.177   3
   5   1  11 5298.76 802.441   5
  -5  -1 -12 2864.73 764.556   4
  -5  -1 -12 1762.27 498.430   3
   5   1  12 1523.67 435.113   5
  -5  -1 -13 3498.56 920.263   4
  -5  -1 -13 2908.83 668.218   3
   5   1  13 2904.43 650.196   5
  -5  -1 -14 77.4937 111.055   3
   5   1  14 167.798 118.843   5
   5   2 -10 10.3251 53.5282   4
   5   2 -10 701.717 362.942   6
  -5  -2   9 1495.43 545.840   5
   5   2  -9 1452.57 418.350   4
   5   2  -9 1321.29 490.107   6
  -5  -2   8 197.343 78.8472   5
   5   2  -8 297.013 193.612   4
   5   2  -8 65.8725 127.769   6
   5   2  -7 6028.27 1295.51   2
   5   2  -7 6201.82 983.432   6
  -5  -2   7 6902.58 740.644   1
  -5  -2   7 6543.76 999.924   5
  -5  -2   6 377.129 199.222   5
   5   2  -6 137.435 159.255   2
   5   2  -6 176.969 124.068   6
  -5  -2   6 421.811 147.838   3
  -5  -2   6 402.964 181.799   1
   5   2  -5 1192.16 504.760   2
  -5  -2   5 2572.35 302.226   7
   5   2  -5 1928.02 523.449   6
  -5  -2   5 2357.69 533.665   2
  -5  -2   5 1965.27 390.265   1
  -5  -2   4 115.324 112.848   1
   5   2  -4-16.8230 217.484   2
  -5  -2   4-95.1685 123.978   2
  -5  -2   3 4815.07 707.994   2
   5   2  -3 3133.08 663.732   2
  -5  -2   3 3805.29 552.673   1
   5   2  -2 10297.5 1055.30   2
  -5  -2   2 11645.8 976.617   1
   5   2  -1 61868.1 2609.47   1
  -5  -2   1 62944.9 2597.58   1
  -5  -2   0 354.983 164.476   1
   5   2   0 495.036 188.603   1
   5   2   0 393.879 143.664   2
  -5  -2   0 398.936 190.957   5
   5   2   1 16132.6 1191.26   2
   5   2   1 18813.4 1196.83   1
  -5  -2  -1 17511.5 1280.29   5
  -5  -2  -1 17213.9 1200.10   1
   5   2   2 3489.04 480.047   1
   5   2   2 4353.81 605.069   2
  -5  -2  -2 4027.54 567.351   5
  -5  -2  -2 3567.26 521.409   1
   5   2   3 24242.9 1391.71   4
   5   2   3 27285.9 1383.50   1
   5   2   3 27338.7 1684.98   2
  -5  -2  -3 25693.8 1490.11   5
   5   2   4 38.9739 76.2600   4
   5   2   4 36.1551 47.8556   1
   5   2   4-179.281 196.285   2
  -5  -2  -4-31.1969 64.9542   5
  -5  -2  -4-24.2857 128.954   1
   5   2   5 27419.0 1316.94   1
   5   2   5 25671.8 1419.12   4
   5   2   5 27692.7 1693.73   5
  -5  -2  -5 27709.6 1516.64   5
  -5  -2  -5 23213.3 1373.92   1
  -5  -2  -6 1969.69 377.091   5
   5   2   6 2310.04 390.084   4
   5   2   6 2320.07 334.609   1
   5   2   6 1891.35 427.029   5
  -5  -2  -6 2779.70 571.050   3
   5   2   7 15297.6 883.398   1
  -5  -2  -7 17958.4 1518.24   3
   5   2   7 17153.3 1350.86   5
  -5  -2  -8 9172.09 1073.12   4
   5   2   8 7019.57 540.911   1
  -5  -2  -8 8401.73 1050.90   3
   5   2   8 7538.48 894.797   5
  -5  -2  -9 6431.39 935.667   4
   5   2   9 4881.87 414.529   1
  -5  -2  -9 5952.90 901.018   3
   5   2   9 5707.96 799.778   5
  -5  -2 -10 1971.47 548.565   4
  -5  -2 -10 1300.64 451.179   3
   5   2  10 1632.60 423.241   5
  -5  -2 -11 18015.9 1797.47   4
  -5  -2 -11 14444.9 1443.90   3
   5   2  11 15573.5 1448.38   5
  -5  -2 -12 71.2382 149.428   4
  -5  -2 -12-70.6187 87.7511   3
   5   2  12-48.3425 134.928   5
  -5  -2 -13-60.4443 278.330   4
  -5  -2 -13 64.2048 117.496   3
   5   2  13 569.080 294.221   5
  -5  -2 -14 1009.62 398.180   3
   5   2  14 600.901 287.178   5
   5   3 -10 8.54538 107.817   4
  -5  -3   9 1328.46 513.685   5
   5   3  -9 1889.34 479.502   4
   5   3  -9 1797.35 567.271   6
  -5  -3   9 1303.81 333.291   1
  -5  -3   8 1550.54 542.888   5
   5   3  -8 1377.11 682.798   2
   5   3  -8 1600.85 437.723   4
   5   3  -8 1495.20 545.026   6
  -5  -3   8 1435.94 336.905   1
  -5  -3   7 600.321 208.030   1
  -5  -3   7 822.079 372.322   5
   5   3  -7 377.468 222.071   2
   5   3  -7 860.780 319.399   4
   5   3  -7 1207.55 459.194   6
  -5  -3   6-60.3244 119.137   1
   5   3  -6-288.708 364.268   2
   5   3  -6 8.23269 122.291   6
  -5  -3   5 1829.15 381.658   1
   5   3  -5 1261.89 502.009   2
  -5  -3   5 2154.85 316.772   7
   5   3  -5 1616.75 506.690   6
  -5  -3   5 2466.69 515.283   2
   5   3  -4 10761.1 1347.94   2
  -5  -3   4 14920.9 1293.52   2
   5   3  -4 12924.1 1379.93   6
  -5  -3   4 13219.9 1081.81   1
   5   3  -3 21865.6 1754.56   2
  -5  -3   3 25232.3 1552.19   1
  -5  -3   2 345.318 167.652   1
   5   3  -2 382.987 200.439   2
  -5  -3   1 3146.31 511.445   1
   5   3  -1 3136.86 528.309   2
  -5  -3   0 3695.13 566.043   1
   5   3   0 3523.21 521.214   2
   5   3   0 3646.09 550.333   1
  -5  -3   0 3823.68 621.096   5
  -5  -3  -1 56628.0 2400.02   1
   5   3   1 50625.2 2263.79   2
   5   3   1 54834.7 2286.55   1
   5   3   1 46769.8 1429.52   7
  -5  -3  -1 48619.7 2324.91   5
  -5  -3  -2 3032.55 493.728   1
   5   3   2 1912.08 356.544   4
   5   3   2 2007.13 235.810   7
   5   3   2 2407.49 462.552   2
   5   3   2 2197.42 382.717   1
  -5  -3  -2 2019.17 403.929   5
   5   3   3 5927.12 627.354   4
   5   3   3 8423.76 927.937   2
   5   3   3 7307.93 685.773   1
  -5  -3  -3 6691.73 736.075   5
  -5  -3  -3 6852.48 750.513   1
   5   3   4 7770.74 713.432   4
   5   3   4 8779.66 738.546   1
   5   3   4 8469.48 916.181   5
  -5  -3  -4 8758.22 838.780   5
  -5  -3  -4 7493.79 791.443   1
   5   3   5 48342.7 2016.27   4
   5   3   5 51571.7 1970.02   1
   5   3   5 53143.2 2530.51   5
  -5  -3  -5 52486.0 2255.78   5
  -5  -3  -6 70.9008 116.384   1
   5   3   6 129.919 91.3403   4
   5   3   6 52.3580 134.731   5
   5   3   7 4597.31 466.255   1
   5   3   7 5477.88 764.050   5
  -5  -3  -7 4385.11 542.439   1
   5   3   8 152.578 59.1821   1
  -5  -3  -8 308.306 219.311   4
   5   3   8 243.170 174.776   5
  -5  -3  -8 550.531 305.628   3
  -5  -3  -9 18841.0 1620.27   4
   5   3   9 14266.2 755.736   1
  -5  -3  -9 18371.4 1591.34   3
   5   3   9 17087.4 1452.03   5
  -5  -3 -10-44.8101 157.001   4
  -5  -3 -10 76.0582 158.704   3
   5   3  10-2.74793 112.150   5
  -5  -3 -11 6271.19 1075.31   4
  -5  -3 -11 5574.20 869.145   3
   5   3  11 4801.58 822.915   5
  -5  -3 -12 1013.64 459.595   4
  -5  -3 -12 1009.33 377.603   3
   5   3  12 545.554 277.764   5
  -5  -3 -13 8141.14 1354.18   4
  -5  -3 -13 5919.02 903.471   3
   5   3  13 6715.35 1051.61   5
  -5  -3 -14 531.713 293.381   3
   5   3  14 942.798 411.492   5
   5   4 -10 169.070 140.087   4
   5   4  -9 569.655 261.414   4
  -5  -4   9 484.101 200.759   1
  -5  -4   8 631.248 256.540   1
  -5  -4   8 443.370 251.910   5
   5   4  -8 661.920 293.957   4
   5   4  -8 475.337 286.216   6
  -5  -4   7 3637.17 769.165   5
   5   4  -7 2707.70 824.172   2
   5   4  -7 3891.55 652.433   4
   5   4  -7 4478.12 898.781   6
  -5  -4   7 2912.41 515.598   1
  -5  -4   6 2311.38 454.404   1
   5   4  -6 3225.35 591.694   4
   5   4  -6 2556.36 798.467   2
   5   4  -6 2797.70 686.204   6
   5   4  -5 3797.00 873.744   2
   5   4  -5 4168.33 844.903   6
  -5  -4   5 4741.78 645.074   1
  -5  -4   4-70.1913 159.312   1
   5   4  -4 64.5712 171.729   2
   5   4  -4 437.005 286.550   6
  -5  -4   3 1399.89 328.601   1
   5   4  -3 1498.53 452.652   2
   5   4  -3 1753.26 588.062   6
  -5  -4   2 3942.76 585.001   1
   5   4  -2 3305.41 577.902   2
  -5  -4   1 53196.9 2414.19   1
   5   4  -1 45973.0 2202.95   2
   5   4   0 9926.52 896.542   2
   5   4   0 9319.00 554.334   7
  -5  -4  -1 7439.62 799.699   1
   5   4   1 6282.61 723.311   2
   5   4   1 6299.30 485.087   7
  -5  -4  -2 3460.89 554.816   1
   5   4   2 2315.30 374.433   4
   5   4   2 2575.42 444.613   1
   5   4   2 2581.76 320.268   7
   5   4   2 2776.22 484.376   2
  -5  -4  -3 35466.3 1893.18   1
   5   4   3 27563.1 1440.68   4
   5   4   3 38915.1 2177.14   2
   5   4   3 31675.6 1623.84   1
   5   4   4 435.037 179.164   1
  -5  -4  -4 312.586 206.159   1
   5   4   4 316.889 133.780   4
   5   4   4 574.979 292.478   5
  -5  -4  -5 7788.95 837.772   1
   5   4   5 7693.63 678.793   4
   5   4   5 7943.74 685.504   1
   5   4   5 8160.93 955.275   5
  -5  -4  -6 1720.16 376.062   1
   5   4   6 1736.19 290.191   1
   5   4   6 1755.77 311.961   4
   5   4   6 1398.91 388.464   5
   5   4   7 14183.6 955.293   4
   5   4   7 13528.3 839.033   1
  -5  -4  -7 13102.7 1053.38   1
  -5  -4  -8 920.567 247.972   1
  -5  -4  -8 1020.40 347.810   4
   5   4   8 1034.71 201.712   1
   5   4   8 821.685 325.758   5
  -5  -4  -9 3200.78 643.474   4
   5   4   9 2028.11 269.944   1
  -5  -4  -9 2429.99 387.794   1
   5   4   9 2847.68 601.724   5
  -5  -4 -10 6028.68 944.712   4
  -5  -4 -10 6348.44 926.357   3
   5   4  10 4993.55 813.370   5
  -5  -4 -11 18133.8 1791.44   4
  -5  -4 -11 16110.8 1507.01   3
   5   4  11 16854.9 1584.77   5
  -5  -4 -12-15.5436 81.1598   4
  -5  -4 -12-136.660 162.952   3
   5   4  12 48.2649 164.567   5
  -5  -4 -13 5358.21 1095.75   4
  -5  -4 -13 2932.46 620.935   3
   5   4  13 3667.08 787.045   5
  -5  -4 -14-13.1325 105.418   3
  -5  -5   9 447.174 214.354   1
  -5  -5   8 451.379 216.295   1
  -5  -5   8 304.942 264.404   5
   5   5  -8 411.257 213.992   4
  -5  -5   7 1446.87 477.881   5
  -5  -5   7 1571.44 382.448   1
   5   5  -7 1645.94 415.746   4
   5   5  -7 1896.45 578.532   6
  -5  -5   6 25.8358 88.3036   1
   5   5  -6 95.3857 123.190   4
   5   5  -6 119.598 141.681   6
  -5  -5   5 1719.73 421.572   1
   5   5  -5 1201.26 489.623   2
   5   5  -5 1779.87 426.692   4
   5   5  -5 1693.56 552.783   6
  -5  -5   4 2157.79 465.865   1
   5   5  -4 1728.24 567.042   2
   5   5  -4 2222.22 615.597   6
   5   5  -3 8212.96 1022.85   2
  -5  -5   3 8404.64 906.846   1
   5   5  -3 10045.1 1341.46   6
  -5  -5   2 18107.1 1344.81   1
   5   5  -2 18192.4 1350.39   2
   5   5  -2 15943.5 1698.33   6
  -5  -5   1 235.143 167.522   1
   5   5  -1 115.788 87.8216   7
   5   5  -1 124.246 122.285   2
   5   5   0 57.5601 28.9017   7
   5   5   0 85.5680 62.3667   2
  -5  -5  -1 21975.8 1522.24   1
   5   5   1 22261.4 1398.80   2
   5   5   1 20271.9 1088.52   7
  -5  -5  -2 4048.47 634.550   1
   5   5   2 3753.53 572.529   2
   5   5   2 2892.25 386.786   7
  -5  -5  -3 18130.4 1368.21   1
   5   5   3 21359.3 1602.65   2
  -5  -5  -4 9811.67 1010.91   1
   5   5   4 7484.62 640.830   4
   5   5   4 8672.31 1003.36   5
   5   5   5 6247.54 582.590   4
   5   5   5 6949.75 655.715   1
   5   5   5 7188.36 932.772   5
  -5  -5  -6 164.078 188.010   1
   5   5   6 116.849 50.1733   4
   5   5   6 92.2474 77.0417   1
   5   5   6 286.785 177.094   5
  -5  -5  -7 11301.2 1018.93   1
   5   5   7 8894.03 716.667   4
   5   5   7 9001.13 695.483   1
   5   5   7 9991.28 1122.36   5
  -5  -5  -8 1011.52 290.899   1
  -5  -5  -8 661.563 270.809   4
   5   5   8 699.165 178.968   1
   5   5   8 1042.11 365.055   5
  -5  -5  -9 4256.38 742.594   4
   5   5   9 2486.86 321.406   1
   5   5   9 2832.36 627.678   5
  -5  -5  -9 3429.39 511.544   1
  -5  -5 -10 142.516 125.278   1
  -5  -5 -10 150.000 204.308   4
   5   5  10-267.311 247.953   5
  -5  -5 -11 4772.62 907.045   4
   5   5  11 5154.53 890.006   5
  -5  -5 -12 41.6650 111.109   4
  -5  -5 -12 492.917 283.087   3
   5   5  12 42.5723 175.363   5
  -5  -5 -13 2705.46 753.995   4
  -5  -5 -13 2239.66 551.934   3
   5   5  13 2295.80 638.432   5
  -5  -5 -14 69.3414 125.478   3
  -5  -6   8 277.977 187.390   1
  -5  -6   7 877.140 389.084   5
  -5  -6   7 1173.94 350.397   1
  -5  -6   6 1009.17 323.634   1
   5   6  -6 789.247 506.689   6
  -5  -6   5 5792.06 790.814   1
   5   6  -5 6793.02 778.259   4
   5   6  -5 6729.19 1206.65   6
  -5  -6   4 1512.87 407.060   1
   5   6  -4 552.299 218.744   4
   5   6  -4 1313.80 565.201   6
  -5  -6   3 910.036 307.727   1
   5   6  -3 550.593 288.738   2
   5   6  -3 663.863 402.552   6
  -5  -6   2-229.377 209.293   1
   5   6  -2 377.865 207.242   2
   5   6  -2 268.620 339.167   6
   5   6  -1 1843.25 323.825   7
   5   6  -1 2223.57 418.249   2
   5   6  -1 2050.31 683.238   6
  -5  -6   0 6204.96 804.128   1
   5   6   0 6183.31 678.173   2
   5   6   0 5064.16 559.524   7
  -5  -6  -1 14526.7 1259.82   1
   5   6   1 12983.6 1032.07   2
   5   6   1 12374.0 923.624   7
  -5  -6  -2 1921.06 454.914   1
   5   6   2 1602.66 333.294   7
   5   6   2 2351.99 456.470   2
  -5  -6  -3 2799.79 556.790   1
   5   6   3 2144.02 386.934   7
   5   6   3 2725.10 560.809   2
  -5  -6  -4 8797.39 984.549   1
   5   6   4 8003.78 787.363   7
  -5  -6  -5 23145.1 1637.04   1
   5   6   5 18670.9 1018.32   4
   5   6   5 21276.6 1701.32   5
  -5  -6  -6 9809.25 1029.57   1
   5   6   6 7596.00 615.896   4
   5   6   6 8111.08 1039.53   5
  -5  -6  -7 4716.48 704.514   1
   5   6   7 3441.09 410.574   4
   5   6   7 3808.13 715.410   5
   5   6   8-5.15178 65.1768   1
  -5  -6  -8 102.081 119.836   1
   5   6   8-184.084 197.922   5
  -5  -6  -9 3067.24 522.051   1
  -5  -6  -9 3011.39 620.783   4
   5   6   9 3367.05 694.328   5
  -5  -6 -10 104.040 124.881   1
  -5  -6 -10-134.256 162.114   4
   5   6  10 38.2519 69.2034   5
  -5  -6 -11 1255.73 461.465   4
   5   6  11 1618.79 518.859   5
  -5  -6 -12 402.056 238.683   4
   5   6  12 155.160 214.868   5
  -5  -6 -13 3294.21 848.410   4
  -5  -6 -13 3001.04 635.013   3
  -5  -6 -14 317.922 226.463   3
  -5  -7   7-1.32108 189.493   5
  -5  -7   6 462.329 226.047   1
  -5  -7   5 1597.70 440.087   1
   5   7  -5 1038.34 409.641   6
  -5  -7   4 102.985 148.593   1
   5   7  -4-256.880 298.250   6
  -5  -7   3 4690.13 743.898   1
   5   7  -3 3341.55 866.192   6
   5   7  -2 2175.80 364.483   4
   5   7  -2 2814.19 445.237   7
  -5  -7   2 2696.22 561.455   1
   5   7  -2 2107.37 647.335   6
   5   7  -1 3755.01 538.889   2
  -5  -7   1 4216.12 696.363   1
   5   7  -1 4546.44 576.978   7
   5   7  -1 3737.51 896.111   6
   5   7   0 161.625 118.371   7
  -5  -7   0 27.7958 88.9495   1
   5   7   0 66.5500 101.774   2
   5   7   0 205.871 205.969   6
   5   7   1 246.167 98.1684   4
   5   7   1 361.609 177.524   7
  -5  -7  -1 347.877 233.263   1
   5   7   1 121.871 342.552   6
   5   7   1 370.446 175.582   2
   5   7   2 497.906 136.175   4
   5   7   2 279.829 164.609   7
  -5  -7  -2 746.459 323.308   1
   5   7   2 543.591 238.030   2
  -5  -7  -3 15541.3 1383.27   1
   5   7   3 13480.3 755.885   4
   5   7   3 14314.2 1149.64   7
  -5  -7  -4 5505.05 815.395   1
   5   7   4 5221.30 694.510   7
  -5  -7  -5 2296.04 529.425   1
   5   7   5 1504.43 378.656   7
   5   7   5 1752.86 495.207   5
  -5  -7  -6 3517.07 674.146   1
   5   7   6 3014.13 357.465   4
   5   7   6 2836.14 608.644   5
  -5  -7  -7 7833.05 956.991   1
   5   7   7 6840.73 579.517   4
   5   7   7 7506.23 1062.08   5
  -5  -7  -8 481.793 279.206   1
   5   7   8 374.676 241.352   5
  -5  -7  -9 3464.88 602.176   1
   5   7   9 2377.47 611.745   5
  -5  -7 -10 871.571 288.687   1
  -5  -7 -10 935.769 365.519   4
   5   7  10 679.532 348.554   5
  -5  -7 -11 3274.70 721.344   4
   5   7  11 3387.29 763.457   5
  -5  -7 -12 360.830 271.704   4
  -5  -7 -13 1120.50 503.499   4
  -5  -7 -14 248.508 218.111   3
  -5  -8   4 254.291 168.003   1
   5   8  -4 554.645 381.776   6
  -5  -8   3 3423.30 665.278   1
   5   8  -3 2876.38 853.839   6
   5   8  -2 415.920 211.871   7
  -5  -8   2 272.245 224.553   1
   5   8  -2 655.853 477.083   6
   5   8  -1 1208.66 316.814   7
   5   8  -1 1026.27 513.371   6
   5   8   0 1596.90 384.414   7
  -5  -8   0 1808.67 477.755   1
   5   8   0 1021.10 482.540   6
   5   8   1 5117.65 607.111   2
  -5  -8  -1 5385.12 836.509   1
   5   8   1 4699.20 671.890   7
   5   8   1 3411.89 882.475   6
   5   8   2 18.3063 99.4161   7
  -5  -8  -2 342.284 226.961   1
   5   8   2 243.338 233.044   6
   5   8   2 241.941 148.346   2
   5   8   3 2230.58 483.575   7
  -5  -8  -3 2534.68 586.328   1
   5   8   3 1383.01 512.169   6
   5   8   3 2665.28 553.313   2
   5   8   4-39.8999 110.150   7
  -5  -8  -4-63.6372 77.9529   1
   5   8   5 4705.25 738.606   7
  -5  -8  -5 3906.23 732.643   1
   5   8   5 5165.42 864.112   5
   5   8   6 402.061 219.871   7
  -5  -8  -6 414.187 258.825   1
   5   8   6 566.982 269.925   5
  -5  -8  -7 4098.65 752.702   1
   5   8   7 3856.30 774.527   5
  -5  -8  -8 2823.79 603.642   1
   5   8   8 2988.91 694.675   5
  -5  -8  -9 2872.07 591.509   1
   5   8   9 2721.30 664.025   5
  -5  -8 -10 537.741 275.484   4
  -5  -8 -10 842.894 318.864   1
   5   8  10 459.843 274.481   5
  -5  -8 -11 1303.15 456.858   4
   5   8  11 1852.48 576.910   5
  -5  -8 -12 166.019 246.799   4
  -5  -8 -13 2613.73 743.798   4
   5   9  -2 1353.69 583.921   6
   5   9  -1 2222.28 492.596   7
  -5  -9   1 3158.66 667.350   1
   5   9  -1 2047.20 723.645   6
   5   9   0 492.252 236.595   7
  -5  -9   0 422.733 246.338   1
   5   9   0-22.1875 188.754   6
   5   9   1 1725.45 442.742   7
  -5  -9  -1 2596.13 607.553   1
   5   9   1 2180.77 717.572   6
   5   9   2 293.157 171.554   7
  -5  -9  -2 542.612 307.987   1
   5   9   2 609.646 406.577   6
   5   9   3 3238.37 578.278   2
   5   9   3 2930.11 592.714   7
  -5  -9  -3 2110.48 581.254   1
   5   9   3 1404.31 518.208   6
   5   9   4 795.488 322.577   7
  -5  -9  -4 830.562 353.793   1
   5   9   4 83.9472 102.964   6
   5   9   5 2732.39 604.274   7
  -5  -9  -5 2856.53 666.285   1
   5   9   5 1881.50 586.793   6
   5   9   6 1013.21 357.370   7
  -5  -9  -6 1399.48 461.260   1
   5   9   6 1489.19 516.884   5
   5   9   7 1567.32 489.705   7
  -5  -9  -7 2339.99 578.411   1
   5   9   7 2452.90 650.583   5
  -5  -9  -8 152.304 153.946   1
   5   9   8 243.944 253.852   5
  -5  -9  -9 1393.07 436.426   1
   5   9   9 765.308 369.799   5
  -5  -9 -10 133.080 146.195   1
   5  10  -1 712.688 410.079   6
   5  10   0 685.198 287.695   7
   5  10   0 83.0120 231.429   6
   5  10   1 673.241 311.408   7
   5  10   1-7.28319 182.382   6
   5  10   2 419.575 232.225   7
  -5 -10  -2 894.900 363.628   1
   5  10   2 387.872 256.253   6
   5  10   3 1491.22 443.567   7
  -5 -10  -3 1745.41 562.628   1
   5  10   3 768.181 405.087   6
   5  10   4 1099.65 400.007   7
  -5 -10  -4 1895.31 617.705   1
   5  10   4 640.951 378.030   6
   5  10   5 2383.51 609.182   7
  -5 -10  -5 3656.12 799.095   1
   5  10   5 1694.23 533.817   6
   5  10   6 652.690 358.268   7
  -5 -10  -6 534.724 273.540   1
   5  10   7 1161.23 461.350   7
  -5 -10  -7 1589.55 506.695   1
   5  10   7 1621.42 540.905   5
   5  10   8 101.293 113.754   7
  -5 -10  -8 231.005 233.485   1
   5  10   8 93.7965 71.8490   5
   5  10   9 1294.77 495.983   7
  -5 -10  -9 1607.91 503.448   1
   5  11   1-544.517 369.927   6
   5  11   2 67.6066 82.7004   7
   5  11   2 356.545 313.682   6
   5  11   3 1056.86 431.858   7
   5  11   4 428.078 311.880   7
   5  11   5 1004.97 418.133   7
   5  11   6 357.881 247.062   7
  -6   9   2 712.927 376.296   7
   6  -9  -1 257.147 275.696   2
  -6   9   1-58.7186 206.668   7
   6  -9   0 634.459 477.683   2
  -6   9   0 1548.01 563.812   7
   6  -9   1-1263.25 679.903   2
  -6   9  -1-133.845 170.939   7
   6  -8  -3 389.761 431.468   2
  -6   8   3-65.3639 67.4478   7
   6  -8  -2 195.920 279.747   2
  -6   8   2 442.990 272.959   7
   6  -8  -1-611.091 555.752   2
  -6   8   1 92.4362 142.081   7
   6  -8   0-274.559 482.015   2
  -6   8   0 287.153 247.049   7
   6  -8   1-131.559 269.030   2
  -6   8  -1-102.015 204.599   7
  -6   8  -2 5822.74 990.321   7
   6  -8   2 5106.73 1211.78   2
   6  -8   3 606.476 447.380   2
  -6   7   7 349.768 199.595   5
  -6   7   6 1584.80 399.857   5
  -6   7   5-125.101 113.901   5
  -6   7   4 2437.63 477.764   5
   6  -7  -4 998.965 623.154   2
  -6   7   4 2915.77 687.092   7
   6  -7  -3-619.233 519.245   2
  -6   7   3-58.7267 146.246   7
  -6   7   2 3855.61 765.416   7
   6  -7  -2 2161.85 850.541   2
   6  -7  -1 176.207 171.565   2
  -6   7   1 76.3607 139.064   7
   6  -7   0 3339.82 958.934   2
  -6   7   0 3117.88 681.763   7
  -6   7   0 2469.94 695.193   3
  -6   7  -1 1313.86 440.139   7
   6  -7   1 1253.79 631.360   2
  -6   7  -1 1548.02 557.863   3
  -6   7  -2 1326.71 430.948   7
   6  -7   2 932.769 474.603   2
  -6   7  -2 1407.07 561.499   3
   6  -7   3 133.377 289.269   2
  -6   7  -3 344.549 294.032   3
   6  -7   4 2774.29 757.703   2
  -6   7  -4 2637.59 808.525   3
   6  -7   5 734.246 399.246   2
   6  -7   7-90.7020 98.7610   1
  -6   6   7-28.2817 55.2122   5
  -6   6   6 2089.82 522.079   5
  -6   6   5 74.6847 82.3492   5
   6  -6  -5 291.143 327.021   2
   6  -6  -4 3959.18 1231.10   2
  -6   6   4 6033.76 889.864   7
  -6   6   4 3794.81 688.486   5
  -6   6   3 1096.58 347.728   5
   6  -6  -3 2300.60 860.572   2
  -6   6   3 2548.88 564.958   7
  -6   6   2 7355.62 958.454   7
   6  -6  -2 4795.49 1198.41   2
  -6   6   2 5165.65 900.862   3
  -6   6   2 5755.72 797.383   5
  -6   6   1 2520.56 494.720   5
  -6   6   1 3727.19 682.954   7
   6  -6  -1 1815.51 731.408   2
  -6   6   1 2623.17 684.246   3
  -6   6   0 2646.65 478.956   5
  -6   6   0 3776.90 680.697   7
   6  -6   0 2841.41 821.740   2
  -6   6   0 2828.33 696.039   3
  -6   6  -1 1157.87 370.004   7
   6  -6   1 1295.62 540.676   2
  -6   6  -1 1042.27 382.226   3
   6  -6   2 10804.1 1480.04   2
  -6   6  -2 11582.6 1525.85   3
   6  -6   3 150.535 225.598   2
  -6   6  -3-15.2348 79.2987   3
   6  -6   4 4687.86 897.216   2
  -6   6  -4 4076.14 978.813   3
   6  -6   5 278.307 126.758   2
  -6   6  -5-1.71989 152.137   3
   6  -6   6 826.080 344.645   2
  -6   6  -6 557.529 249.680   3
   6  -6   7-138.929 203.703   2
   6  -6   8 3698.14 577.686   1
  -6   5   8 963.127 357.699   5
  -6   5   7 504.373 244.614   5
  -6   5   6 1720.63 512.516   5
   6  -5  -6 843.344 565.911   2
  -6   5   5 1402.03 466.763   5
   6  -5  -5 1101.54 639.656   2
  -6   5   4 3313.63 675.743   5
   6  -5  -4 3059.85 999.915   2
  -6   5   4 4142.00 662.445   7
  -6   5   4 3106.93 610.485   3
  -6   5   3 1633.66 434.423   5
   6  -5  -3 1422.00 666.016   2
  -6   5   3 1855.02 433.765   7
  -6   5   3 910.948 341.973   3
   6  -5  -2 8344.20 1469.12   2
  -6   5   2 11626.3 1089.45   7
  -6   5   2 7264.22 1005.66   3
  -6   5   2 8266.63 999.764   5
  -6   5   1 478.944 242.085   5
  -6   5   1 920.533 299.478   7
   6  -5  -1 366.043 326.426   2
  -6   5   1 443.964 285.660   3
  -6   5   0 6646.08 822.176   7
   6  -5   0 5454.59 1066.33   2
  -6   5   0 6985.37 1028.23   3
  -6   5   0 6073.32 746.925   5
  -6   5   0 5810.05 741.182   5
  -6   5  -1 746.407 245.714   5
  -6   5  -1 496.177 218.252   7
   6  -5   1 709.304 331.392   2
  -6   5  -1 840.406 377.888   3
   6  -5   2 6322.53 1016.89   2
  -6   5  -2 6742.51 1081.42   3
  -6   5  -2 6923.90 714.735   5
   6  -5   3 126.497 159.735   2
  -6   5  -3 16.4253 135.133   3
   6  -5   4 12347.5 1370.42   2
  -6   5  -4 12581.2 1612.50   3
   6  -5   5 167.718 156.634   2
  -6   5  -5-126.077 182.397   3
   6  -5   6 9550.94 1175.03   2
  -6   5  -6 8791.98 1424.24   3
   6  -5   7 34.5246 88.1277   2
  -6   5  -7-84.0979 173.582   3
   6  -5   8 1343.95 438.078   2
  -6   5  -8 1425.41 572.420   3
   6  -5   9 62.7347 152.216   2
   6  -5   9-229.084 183.252   1
  -6   4   8 1852.63 553.369   5
  -6   4   7 473.820 282.739   5
   6  -4  -7-11.7592 352.348   2
  -6   4   6 2049.81 581.810   5
   6  -4  -6 952.975 667.895   2
  -6   4   5 172.343 183.299   5
  -6   4   5 91.8584 41.9705   3
  -6   4   4 3771.36 718.979   5
  -6   4   4 5218.62 648.811   7
   6  -4  -4 3360.28 997.848   2
  -6   4   4 3492.83 605.872   3
  -6   4   3 154.772 81.9172   5
   6  -4  -3-83.8692 218.136   2
  -6   4   3 227.820 142.137   7
  -6   4   3-21.6660 82.4209   3
  -6   4   2 2601.02 539.881   5
  -6   4   2 2736.93 462.042   7
   6  -4  -2 987.946 520.416   2
  -6   4   2 1887.08 478.041   3
   6  -4  -1 6587.57 1191.91   2
  -6   4   1 9306.64 853.097   7
  -6   4   1 7560.95 1002.07   3
  -6   4   1 6982.28 847.851   5
   6  -4   0 7005.36 1137.08   2
  -6   4   0 9388.50 870.072   7
  -6   4   0 8993.83 1131.91   3
  -6   4   0 8428.05 909.925   5
   6  -4   1 5378.85 920.590   2
  -6   4  -1 4750.62 837.829   3
  -6   4  -1 4419.81 608.787   5
   6  -4   2 13649.9 1419.85   2
   6  -4   2 12181.2 945.382   7
  -6   4  -2 14056.3 1512.31   3
  -6   4  -2 13748.6 1016.92   5
   6  -4   3 358.147 170.886   7
   6  -4   3 839.869 348.199   2
  -6   4  -3 422.581 227.490   3
   6  -4   4 14780.6 1421.23   2
  -6   4  -4 15579.0 1698.37   3
   6  -4   5 802.435 338.033   2
  -6   4  -5 407.916 232.163   3
   6  -4   6 5960.18 900.772   2
  -6   4  -6 6558.47 1173.62   3
   6  -4   7 167.313 104.308   2
  -6   4  -7 537.718 386.900   3
   6  -4   8 4010.42 763.368   2
  -6   4  -8 5252.67 1093.60   3
   6  -4   9-135.025 131.766   2
  -6   4  -9-331.013 357.312   3
   6  -4  10 1287.36 435.561   2
  -6   4 -10 844.380 409.077   3
   6  -4  11-56.6320 106.186   2
  -6   3   8 392.936 258.864   5
   6  -3  -8 624.365 255.965   6
  -6   3   7 94.6137 76.5834   5
   6  -3  -7-174.215 98.4228   6
  -6   3   6 1887.25 556.697   5
   6  -3  -6 1978.26 825.396   2
  -6   3   5 128.326 180.660   5
   6  -3  -5-176.391 330.570   2
  -6   3   5-8.91361 60.0457   3
  -6   3   4 2418.33 572.985   5
  -6   3   4 2718.32 393.000   7
   6  -3  -4 2493.95 822.154   2
  -6   3   4 2068.98 428.649   3
  -6   3   3 105.163 198.352   5
   6  -3  -3 265.638 447.836   2
  -6   3   3 228.860 134.929   7
  -6   3   3-69.2364 86.2596   3
   6  -3  -2 15426.5 1823.46   2
  -6   3   2 19962.2 1087.68   7
  -6   3   2 15961.5 1355.51   3
  -6   3   1 2066.28 320.418   7
   6  -3  -1 2694.68 711.646   2
  -6   3   1 2008.94 474.065   3
   6  -3   0 5607.06 948.120   2
  -6   3   0 5011.13 798.379   3
  -6   3   0 5425.29 735.955   5
   6  -3   1 4217.92 760.869   2
  -6   3  -1 4209.77 760.840   3
  -6   3  -1 4535.51 632.666   5
   6  -3   2 1506.84 291.574   7
   6  -3   2 1774.48 460.795   2
  -6   3  -2 2442.49 567.951   3
  -6   3  -2 1758.25 369.908   5
   6  -3   3 30.8408 64.5513   7
   6  -3   3 99.8472 148.341   2
  -6   3  -3 1.10941 173.374   3
  -6   3  -3 40.9928 71.8334   5
   6  -3   4 10603.0 1153.11   2
   6  -3   4 9961.94 903.349   7
  -6   3  -4 11684.9 1415.52   3
  -6   3  -4 10809.4 860.959   5
  -6   3  -5 1133.57 249.792   5
   6  -3   5 1343.71 413.265   2
  -6   3  -5 1422.10 526.275   3
   6  -3   6 19963.3 1646.16   2
  -6   3  -6 20924.7 2035.04   3
  -6   3  -6 20095.4 1122.75   5
   6  -3   7 1727.03 475.786   2
  -6   3  -7 1524.34 528.928   3
   6  -3   8 8860.47 1138.63   2
  -6   3  -8 9099.12 1382.33   3
   6  -3   9 575.635 315.800   2
  -6   3  -9 1082.49 506.349   3
   6  -3  10 3294.12 738.562   2
  -6   3 -10 2633.28 806.698   3
  -6   3 -11 375.553 329.931   3
   6  -3  11 74.8825 142.185   2
   6  -3  12 752.259 384.675   2
   6  -2  -9 86.1714 162.254   6
  -6   2   8 1512.55 505.248   5
   6  -2  -8 1030.01 704.945   2
   6  -2  -8 1934.47 501.354   6
  -6   2   7 441.710 323.367   5
   6  -2  -7-181.974 347.424   2
   6  -2  -7 416.169 225.479   6
  -6   2   6 2983.77 679.222   5
   6  -2  -6 2892.41 1075.52   2
  -6   2   5 1331.86 437.777   5
   6  -2  -5 1115.16 468.678   2
  -6   2   5 1338.84 317.994   3
  -6   2   4 10812.6 566.781   7
   6  -2  -4 7261.09 1363.71   2
  -6   2   4 8131.13 834.140   3
  -6   2   4 8006.27 1037.10   5
  -6   2   3 575.813 109.494   7
   6  -2  -3 891.330 503.732   2
  -6   2   3 550.422 213.544   3
   6  -2  -2 1032.06 469.606   2
  -6   2   2 1021.85 316.642   3
   6  -2  -1 178.452 171.404   2
  -6   2   1 223.995 176.382   3
   6  -2   0 6817.58 958.608   2
  -6   2   0 6963.33 890.293   3
  -6   2   0 7580.74 899.486   5
   6  -2   1 203.865 129.452   2
  -6   2  -1 272.253 173.763   3
  -6   2  -1 617.040 218.545   5
   6  -2   2 16312.6 1425.95   2
   6  -2   2 14899.7 874.694   7
  -6   2  -2 17178.9 1532.93   3
  -6   2  -2 16089.3 1195.35   5
   6  -2   3 50.2852 61.6866   7
   6  -2   3 4.15972 97.3243   2
  -6   2  -3 88.4656 38.3916   5
   6  -2   4 11006.9 1130.90   2
   6  -2   4 8556.91 772.579   7
  -6   2  -4 9884.31 1211.24   3
  -6   2  -4 8953.22 813.361   5
   6  -2   5 509.894 192.344   7
   6  -2   5 1115.64 378.704   2
  -6   2  -5 1363.48 478.638   3
  -6   2  -5 1222.36 283.962   5
   6  -2   6 10652.1 1175.90   2
   6  -2   6 10605.1 990.276   7
  -6   2  -6 11829.4 1418.77   3
  -6   2  -6 10588.0 851.461   5
   6  -2   7 2201.55 540.101   2
  -6   2  -7 2335.98 670.795   3
  -6   2  -7 2204.48 365.303   5
   6  -2   8 17568.9 1646.70   2
  -6   2  -8 18188.7 1918.32   3
   6  -2   9-278.844 259.274   2
  -6   2  -9-138.116 175.622   3
   6  -2   9-77.8886 107.798   5
  -6   2 -10 3119.66 819.487   3
   6  -2  10 2557.41 666.582   2
   6  -2  10 2362.61 490.550   5
  -6   2 -11-34.1899 84.2939   3
   6  -2  11 60.3813 182.884   2
  -6   2 -12 1849.78 637.267   3
   6  -2  12 3599.35 856.817   2
   6  -2  13-352.632 345.418   2
   6  -1 -10 1008.21 385.970   6
   6  -1  -9 172.665 210.221   2
   6  -1  -9 57.3971 121.153   6
  -6   1   8 1630.37 558.005   5
   6  -1  -8 958.359 653.820   2
   6  -1  -8 1159.41 406.083   6
  -6   1   7 977.209 407.261   5
   6  -1  -7 382.183 355.261   2
   6  -1  -7 1152.85 406.236   6
  -6   1   6 1241.58 441.426   5
   6  -1  -6 853.152 373.029   2
  -6   1   5 979.088 383.395   5
   6  -1  -5 745.731 526.171   2
  -6   1   5 865.622 235.912   3
   6  -1  -4 1507.05 600.427   2
  -6   1   4 2073.67 395.494   3
   6  -1  -3 410.281 416.246   2
  -6   1   3 67.4159 134.836   3
   6  -1  -2 16878.4 1668.60   2
  -6   1   2 18018.1 1286.63   3
   6  -1  -1 164.965 211.578   2
  -6   1   1-37.9043 112.026   3
   6  -1   0 12588.2 1268.91   2
  -6   1   0 12880.5 1156.01   3
   6  -1   1 533.145 233.350   2
  -6   1  -1 352.407 150.517   3
  -6   1  -1 928.051 291.386   5
   6  -1   2 2615.19 301.326   7
   6  -1   2 2817.93 549.860   2
  -6   1  -2 2991.44 508.220   5
  -6   1  -2 3217.86 590.834   3
   6  -1   3 279.154 110.880   7
   6  -1   3-39.1727 104.335   2
  -6   1  -3 557.852 286.385   3
  -6   1  -3 385.723 155.296   5
   6  -1   4 10975.4 1132.60   2
   6  -1   4 8695.42 726.605   7
  -6   1  -4 10772.7 1244.03   3
  -6   1  -4 10162.2 892.785   5
   6  -1   5 136.993 86.2555   7
   6  -1   5 138.756 86.5893   2
  -6   1  -5 229.131 257.598   3
  -6   1  -5 290.013 148.048   5
   6  -1   6 10436.4 1175.13   2
   6  -1   6 10674.4 953.696   7
  -6   1  -6 12877.2 1438.61   3
  -6   1  -6 9878.52 867.759   5
   6  -1   6 10235.7 849.864   1
  -6   1  -7 400.206 167.350   5
   6  -1   7 295.837 144.624   1
   6  -1   7 370.465 237.673   2
  -6   1  -7 450.714 295.270   3
   6  -1   8 10025.3 797.614   1
   6  -1   8 12761.4 1419.56   2
  -6   1  -8 11906.7 1472.80   3
   6  -1   8 12199.4 1131.29   5
  -6   1  -9-129.900 151.727   3
   6  -1   9 84.4519 129.643   2
   6  -1   9-78.9212 135.980   5
  -6   1 -10 10043.4 1430.75   3
   6  -1  10 9921.86 1081.11   5
  -6   1 -11 147.852 261.186   3
   6  -1  11 294.594 275.687   2
   6  -1  11-78.5198 127.971   5
  -6   1 -12 1148.73 547.397   3
   6  -1  12 1872.09 764.094   2
   6  -1  12 1729.52 481.444   5
  -6   1 -13-66.7277 170.884   3
   6  -1  13 256.079 283.718   2
   6   0 -10 164.122 149.355   6
   6   0  -9 713.657 514.349   2
   6   0  -9 456.496 249.064   6
  -6   0   8 875.878 418.156   5
   6   0  -8 130.895 255.598   2
   6   0  -8 671.088 328.436   6
  -6   0   7-117.212 189.732   5
   6   0  -7 150.469 172.025   6
  -6   0   6 4322.62 823.854   5
   6   0  -6 2734.59 888.018   2
   6   0  -6 3307.74 690.217   6
  -6   0   5 2275.23 588.825   5
   6   0  -5 1654.53 624.529   2
  -6   0   5 1779.54 323.455   3
   6   0  -4 11641.3 1625.34   2
  -6   0   4 13473.9 983.800   3
   6   0  -3 4239.80 867.944   2
  -6   0   3 4543.50 575.184   3
   6   0  -2 3338.68 705.600   2
  -6   0   2 2798.65 458.552   3
   6   0  -1 380.901 263.244   2
  -6   0   1-79.8342 141.324   3
   6   0   0 1196.86 409.640   2
  -6   0   0 1227.55 347.496   3
   6   0   1 19293.3 1502.31   2
  -6   0  -1 22053.2 1560.84   3
   6   0   2 24709.4 1739.71   2
   6   0   2 25888.9 958.433   7
  -6   0  -2 31195.8 1933.30   3
  -6   0  -2 29974.7 1742.71   5
   6   0   3-10.6355 38.9124   7
   6   0   3 221.816 231.993   2
  -6   0  -3 323.204 220.511   3
  -6   0  -3-5.02849 48.6206   5
   6   0   4 8031.54 964.318   2
   6   0   4 6918.33 594.780   7
  -6   0  -4 8026.38 1020.59   3
  -6   0  -4 6451.72 736.739   5
   6   0   5 429.358 163.751   1
   6   0   5 476.648 162.792   7
  -6   0  -5 222.589 151.130   3
  -6   0  -5 639.555 207.984   5
   6   0   6 6491.54 644.611   1
   6   0   6 7974.27 1026.53   2
   6   0   6 7403.23 758.077   7
  -6   0  -6 9134.79 1171.91   3
  -6   0  -6 7289.27 754.783   5
   6   0   7 725.366 204.353   1
   6   0   7 595.420 224.164   7
   6   0   7 467.207 177.603   2
  -6   0  -7 1170.19 431.662   3
   6   0   7 1129.37 343.339   5
   6   0   8 7917.53 673.766   1
   6   0   8 10294.1 1344.66   2
  -6   0  -8 9171.01 1257.74   3
   6   0   8 9054.43 996.944   5
  -6   0  -9 526.019 285.140   3
   6   0   9 256.074 137.334   2
   6   0   9 168.565 104.133   5
   6   0  10 11565.1 1540.92   2
  -6   0 -10 8670.56 1276.08   3
   6   0  10 8534.20 1031.81   5
  -6   0 -11 39.7213 114.911   3
   6   0  11-29.4827 70.3881   5
  -6   0 -12 1315.61 464.648   3
   6   0  12 1931.30 512.557   5
  -6   0 -13 154.198 241.569   3
   6   0  13 16.7360 117.951   5
  -6   0 -14 2956.41 772.988   3
   6   1  -9 1674.31 797.862   2
   6   1  -9 931.187 394.251   6
  -6  -1   8 2441.08 699.935   5
   6   1  -8 1174.01 680.309   2
   6   1  -8 2248.12 599.305   6
  -6  -1   7 721.610 379.902   5
   6   1  -7 237.973 178.940   2
   6   1  -7 567.135 334.668   6
  -6  -1   6 2415.16 603.891   5
   6   1  -6 2199.35 818.019   2
   6   1  -6 2197.81 564.705   6
   6   1  -5 2061.47 740.937   2
  -6  -1   5 2777.32 410.718   3
   6   1  -4 1347.27 564.715   2
  -6  -1   4 2235.93 386.716   3
   6   1  -3 730.101 392.816   2
  -6  -1   3 595.485 203.080   3
   6   1  -2 13302.5 1405.64   2
  -6  -1   2 15022.2 1133.26   3
   6   1  -1 14425.3 1363.25   2
  -6  -1   1 16168.7 1218.86   3
   6   1   0 26283.4 1796.16   2
  -6  -1   0 27012.1 1708.27   3
   6   1   1 358.496 197.565   2
  -6  -1  -1 469.061 289.742   3
   6   1   2 336.054 56.8717   7
   6   1   2 329.048 96.3618   2
   6   1   3 3178.97 319.717   7
  -6  -1  -3 4406.17 737.295   3
   6   1   3 3220.18 605.335   2
   6   1   4 28031.0 1496.11   1
   6   1   4 28176.0 1884.69   2
   6   1   4 27210.1 1237.02   7
   6   1   5 2772.15 419.994   1
   6   1   5 2475.03 371.368   7
   6   1   5 2437.35 551.697   2
  -6  -1  -5 2638.33 594.681   3
   6   1   6 2944.03 422.346   1
   6   1   6 2705.04 597.324   2
  -6  -1  -6 3444.13 699.220   3
   6   1   6 3260.97 579.919   5
   6   1   7 6080.18 595.663   1
  -6  -1  -7 7380.74 1071.48   3
   6   1   7 5633.97 794.670   5
   6   1   8 7122.90 625.572   1
   6   1   8 11325.4 1397.45   2
  -6  -1  -8 10185.8 1281.37   3
   6   1   8 9417.99 1045.90   5
  -6  -1  -9 1716.47 532.531   3
   6   1   9 838.389 316.487   5
   6   1  10 4084.57 732.345   5
  -6  -1 -10 4072.10 847.089   3
  -6  -1 -11 121.653 173.549   3
   6   1  11 55.1100 134.306   5
  -6  -1 -12 2486.15 728.292   4
  -6  -1 -12 2762.63 697.293   3
   6   1  12 2186.55 572.146   5
  -6  -1 -13 114.653 191.641   3
   6   1  13 37.5424 100.080   5
  -6  -1 -14 143.862 96.6254   3
   6   1  14 427.721 247.875   5
   6   2  -9 775.106 570.991   2
   6   2  -8-67.8920 155.116   2
   6   2  -8 1401.41 424.643   4
   6   2  -8 1206.90 495.670   6
  -6  -2   7 1345.29 498.720   5
   6   2  -7 1546.98 692.095   2
   6   2  -7 921.964 379.210   6
  -6  -2   6 1917.36 575.497   5
   6   2  -6 1323.93 684.610   2
   6   2  -6 1726.20 534.743   6
   6   2  -5 378.924 327.790   2
   6   2  -5 707.258 361.011   6
  -6  -2   5 637.559 260.885   1
  -6  -2   5 525.158 186.025   3
   6   2  -4 6353.89 1127.95   2
  -6  -2   4 7141.15 720.302   3
  -6  -2   4 7612.27 845.631   1
   6   2  -3 5311.04 928.978   2
  -6  -2   3 5820.85 673.141   3
  -6  -2   3 6218.02 776.750   1
   6   2  -2 19306.7 1641.84   2
  -6  -2   2 23338.5 1517.42   1
   6   2  -1 2560.07 541.344   2
  -6  -2   1 3346.86 565.958   1
   6   2   0 296.407 144.406   2
  -6  -2   0 434.387 187.431   1
   6   2   1 4599.20 675.492   2
  -6  -2  -1 5400.52 701.723   1
   6   2   2 30606.4 1889.81   2
  -6  -2  -2 30679.5 1858.32   1
   6   2   3 25574.5 1724.88   2
  -6  -2  -3 23323.8 1716.33   3
  -6  -2  -3 20038.5 1439.29   1
   6   2   4 893.425 321.769   2
  -6  -2  -4 675.660 285.454   3
   6   2   5 517.720 201.491   1
   6   2   5 742.633 317.709   2
  -6  -2  -5 243.734 169.747   3
   6   2   6 14722.8 1004.02   1
  -6  -2  -6 13972.3 1436.95   3
   6   2   6 15503.1 1373.79   5
   6   2   7 2077.05 348.311   1
   6   2   7 3024.98 702.286   2
   6   2   7 2326.03 531.495   5
  -6  -2  -7 2127.44 558.898   3
   6   2   8 3098.38 401.934   1
   6   2   8 3501.11 652.581   5
  -6  -2  -8 3576.99 751.799   3
   6   2   9 4408.12 749.166   5
  -6  -2  -9 4427.11 848.990   3
  -6  -2 -10 7634.46 1149.38   3
   6   2  10 7103.17 1000.54   5
  -6  -2 -11-141.899 261.985   3
   6   2  11-110.699 112.185   5
  -6  -2 -12 1322.05 524.954   4
  -6  -2 -12 484.372 264.103   3
   6   2  12 1270.67 454.572   5
  -6  -2 -13 884.023 419.089   3
   6   2  13 980.804 392.751   5
  -6  -2 -14 1267.29 457.239   3
   6   2  14 848.892 396.206   5
   6   3  -8 460.665 256.304   4
  -6  -3   7 700.933 352.477   5
   6   3  -7 836.218 505.493   2
   6   3  -7 596.179 262.977   4
   6   3  -7 1279.09 514.507   6
  -6  -3   7 710.820 255.826   1
   6   3  -6 938.989 483.768   2
   6   3  -6 1568.39 532.138   6
  -6  -3   6 2204.23 458.806   1
  -6  -3   5 120.362 89.0820   1
   6   3  -5 172.067 143.342   2
   6   3  -5 230.405 151.303   6
  -6  -3   4 1498.91 366.095   1
   6   3  -4 1565.05 559.098   2
   6   3  -4 1680.44 543.561   6
  -6  -3   3 146.437 145.101   1
   6   3  -3 551.411 321.978   2
   6   3  -2 6393.20 918.694   2
  -6  -3   2 5835.02 751.715   1
  -6  -3   1 1953.88 463.079   1
   6   3  -1 1417.91 426.938   2
   6   3   0 46765.4 2440.98   2
  -6  -3   0 53062.4 2528.56   1
   6   3   1 6750.74 836.214   2
  -6  -3  -1 8892.72 947.255   1
  -6  -3  -2 346.243 193.452   1
   6   3   2 373.391 166.666   4
   6   3   2 292.745 73.4509   7
   6   3   2 300.168 226.821   2
  -6  -3  -3 379.729 157.854   1
   6   3   3 428.938 181.542   4
   6   3   3 561.815 277.377   2
   6   3   4 10668.9 1158.18   2
  -6  -3  -4 8451.76 917.232   1
   6   3   5 118.490 109.157   2
  -6  -3  -5 83.5074 121.926   1
   6   3   6 9673.23 796.750   1
   6   3   6 11131.6 1189.06   5
  -6  -3  -6 8284.79 876.173   1
   6   3   7 951.464 354.718   5
   6   3   7 827.116 216.487   1
  -6  -3  -7 844.649 354.456   3
   6   3   8 3704.51 445.372   1
   6   3   8 3618.66 674.673   5
  -6  -3  -8 2911.74 677.694   3
  -6  -3  -9 5504.87 937.599   3
   6   3   9 5797.39 891.544   5
  -6  -3 -10 8503.73 1218.90   3
   6   3  10 8714.69 1131.11   5
  -6  -3 -11 4295.28 897.973   4
  -6  -3 -11 3311.32 762.814   3
   6   3  11 2582.75 634.362   5
  -6  -3 -12 5030.23 1036.85   4
  -6  -3 -12 4016.63 827.634   3
   6   3  12 4157.88 815.937   5
  -6  -3 -13-76.0962 81.2362   3
   6   3  13-74.8153 136.415   5
  -6  -3 -14 802.378 393.569   3
   6   4  -8 1086.26 361.080   4
  -6  -4   8 670.170 270.609   1
  -6  -4   7 240.966 186.192   1
  -6  -4   7 103.784 109.260   5
   6   4  -7 370.491 242.955   4
  -6  -4   6 1563.12 401.520   1
   6   4  -6 653.602 451.020   2
   6   4  -6 1779.50 463.153   4
   6   4  -6 1634.89 584.415   6
  -6  -4   5 1453.88 386.659   1
   6   4  -5 521.347 315.809   2
   6   4  -5 1257.15 447.361   6
  -6  -4   4 1933.62 453.106   1
   6   4  -4 2100.69 644.396   2
   6   4  -4 1519.72 547.437   6
  -6  -4   3 2479.74 503.961   1
   6   4  -3 2056.65 591.742   2
   6   4  -3 1996.76 594.824   6
   6   4  -2 5987.74 866.010   2
  -6  -4   2 6999.32 847.032   1
  -6  -4   1 2007.24 453.772   1
   6   4  -1 1856.98 448.717   2
   6   4   0 7016.24 842.585   2
  -6  -4   0 8437.62 963.376   1
  -6  -4  -1 2996.89 559.327   1
   6   4   1 1996.93 194.338   7
   6   4   1 2165.51 433.852   2
   6   4   2 17140.7 1226.77   4
   6   4   2 19080.9 1446.98   2
   6   4   2 17452.2 830.583   7
  -6  -4  -2 21224.8 1599.64   1
   6   4   3 7337.35 759.889   4
   6   4   3 8078.74 952.982   2
   6   4   3 7791.21 576.532   7
  -6  -4  -3 9737.54 1017.20   1
   6   4   4 10910.1 926.754   4
   6   4   4 15179.7 1395.57   2
  -6  -4  -4 13432.2 1212.37   1
  -6  -4  -5-242.579 195.770   1
   6   4   5 21.1979 237.216   2
  -6  -4  -6 1114.70 308.555   1
   6   4   6 1464.75 438.235   5
  -6  -4  -7-52.6767 114.712   1
   6   4   7-18.5270 77.9624   1
   6   4   7 57.3404 146.319   5
   6   4   8 9105.59 717.683   1
  -6  -4  -8 9035.24 899.145   1
   6   4   9 4624.17 818.425   5
  -6  -4  -9 3152.66 722.061   3
   6   4  10 3907.63 762.379   5
  -6  -4 -10 4004.06 830.430   3
  -6  -4 -11 558.271 321.831   4
  -6  -4 -11 747.697 349.975   3
   6   4  11 848.294 384.747   5
  -6  -4 -12 5498.96 1084.62   4
  -6  -4 -12 3889.04 828.585   3
   6   4  12 4063.22 834.652   5
  -6  -4 -13 228.518 265.597   4
  -6  -4 -13 94.4895 111.597   3
   6   4  13 679.210 373.445   5
  -6  -4 -14 643.210 343.769   3
  -6  -5   7 832.917 285.155   1
   6   5  -7 727.532 284.588   4
  -6  -5   6 1395.33 397.146   1
   6   5  -6 1606.79 434.703   4
  -6  -5   5 386.893 210.237   1
   6   5  -5 412.617 231.407   4
   6   5  -5-111.570 314.811   6
  -6  -5   4 1542.16 413.465   1
   6   5  -4 938.106 431.523   2
   6   5  -4 936.618 450.132   6
  -6  -5   3 2015.71 474.655   1
   6   5  -3 1688.34 532.991   2
   6   5  -3 2197.89 651.391   6
  -6  -5   2 1696.87 433.733   1
   6   5  -2 2073.63 506.779   2
   6   5  -2 1900.82 633.889   6
  -6  -5   1 887.954 317.008   1
   6   5  -1 860.840 326.429   2
  -6  -5   0 8658.91 973.140   1
   6   5   0 7621.52 872.638   2
   6   5   0 6772.18 464.588   7
  -6  -5  -1 5010.84 750.568   1
   6   5   1 4607.07 675.818   2
   6   5   1 3842.57 547.734   4
   6   5   1 4608.52 417.703   7
  -6  -5  -2 20939.7 1581.19   1
   6   5   2 17037.5 1160.29   4
   6   5   2 18978.9 1451.35   2
   6   5   2 16902.9 947.139   7
  -6  -5  -3 944.631 333.934   1
   6   5   3 729.520 223.346   4
   6   5   3 706.224 201.691   7
   6   5   3 868.956 304.615   2
  -6  -5  -4 1239.78 400.934   1
   6   5   4 1261.32 285.773   4
   6   5   4 1353.20 414.250   2
  -6  -5  -5 1940.13 456.183   1
   6   5   5 1091.27 266.275   4
   6   5   5 2562.04 637.531   2
   6   5   6 16040.5 1523.46   5
  -6  -5  -6 15258.3 1325.91   1
  -6  -5  -7-260.960 205.311   1
   6   5   7 207.037 200.634   5
  -6  -5  -8 1222.38 364.411   1
   6   5   8 1701.59 521.567   5
  -6  -5  -9 29.5390 47.4995   1
   6   5   9 158.135 139.970   5
   6   5  10 4569.59 861.814   5
  -6  -5 -10 4861.11 611.791   1
  -6  -5 -11 763.447 373.623   4
   6   5  11 912.230 410.660   5
  -6  -5 -11 873.757 434.224   3
  -6  -5 -12 3850.51 897.540   4
  -6  -5 -12 3077.49 710.276   3
   6   5  12 2991.05 729.849   5
  -6  -5 -13 37.8994 140.290   4
  -6  -5 -13 744.513 367.735   3
  -6  -5 -14 1375.22 483.935   3
  -6  -6   5 601.244 255.390   1
  -6  -6   4 3613.77 650.338   1
   6   6  -4 2615.70 524.116   4
   6   6  -4 2665.82 748.396   6
  -6  -6   3 1169.55 357.469   1
   6   6  -3 1342.85 512.852   6
  -6  -6   2 847.048 293.541   1
   6   6  -2 1217.23 390.411   2
   6   6  -2 856.522 409.886   6
  -6  -6   1 1320.53 379.693   1
   6   6  -1 1479.85 394.605   2
   6   6  -1 1861.38 691.657   6
   6   6   0 3506.95 591.107   2
  -6  -6   0 3800.74 666.592   1
   6   6   0 3512.06 414.458   7
  -6  -6  -1 1032.03 339.157   1
   6   6   1 698.084 215.488   4
   6   6   1 657.350 188.802   7
   6   6   1 514.382 226.485   2
   6   6   2 3086.37 581.630   2
   6   6   2 2569.33 400.462   4
  -6  -6  -2 3763.46 679.815   1
   6   6   2 3030.22 432.807   7
  -6  -6  -3 6998.08 927.080   1
   6   6   3 4690.00 541.849   4
   6   6   3 6078.54 834.140   2
   6   6   3 5293.23 591.760   7
  -6  -6  -4 11706.9 1208.00   1
   6   6   4 8575.72 743.737   4
   6   6   4 10815.3 1208.37   2
   6   6   4 9135.61 825.606   7
   6   6   5 2363.87 372.967   4
  -6  -6  -5 2989.45 599.740   1
   6   6   5 3570.00 734.027   2
  -6  -6  -6 3887.22 688.162   1
   6   6   6 2998.40 673.687   5
  -6  -6  -7-5.98006 140.961   1
   6   6   7-130.235 202.321   5
  -6  -6  -8 5296.86 768.439   1
   6   6   8 5340.21 930.600   5
  -6  -6  -9 251.966 202.931   1
   6   6   9 115.310 156.642   5
  -6  -6 -10 2176.11 447.626   1
   6   6  10 2706.07 672.846   5
   6   6  11 718.127 368.593   5
  -6  -6 -12 2223.56 676.608   4
  -6  -6 -12 2722.32 666.885   3
  -6  -6 -13 266.111 318.715   4
  -6  -6 -13 471.610 298.045   3
  -6  -7   4 977.477 347.091   1
  -6  -7   3-26.7154 107.535   1
   6   7  -3 320.993 145.588   6
  -6  -7   2 2257.53 540.282   1
   6   7  -2 2119.04 739.238   6
  -6  -7   1 1597.34 449.946   1
   6   7  -1 775.985 406.092   6
  -6  -7   0 1442.41 432.413   1
   6   7   0 1052.88 317.824   2
   6   7   0 1243.86 584.360   6
  -6  -7  -1 1472.36 428.411   1
   6   7   1 1283.88 309.438   7
   6   7   1 1303.12 353.529   2
   6   7   2 3525.09 612.900   2
  -6  -7  -2 3075.19 654.779   1
   6   7   2 2505.71 435.471   7
  -6  -7  -3 602.951 233.711   1
   6   7   3 401.257 186.280   7
   6   7   3 455.410 217.298   2
  -6  -7  -4 5043.22 831.432   1
   6   7   4 5070.93 829.087   2
   6   7   4 3710.33 568.153   7
  -6  -7  -5 1416.38 432.964   1
   6   7   5 952.928 293.890   7
   6   7   5 664.707 301.647   2
  -6  -7  -6 2647.08 583.883   1
   6   7   6 3322.53 727.762   5
  -6  -7  -7 946.652 358.015   1
   6   7   7 1401.10 493.042   5
  -6  -7  -8 3987.42 712.056   1
   6   7   8 3686.52 788.401   5
  -6  -7  -9 1333.54 418.523   1
   6   7   9 1720.44 541.357   5
  -6  -7 -10 2368.83 490.928   1
   6   7  10 2079.17 623.772   5
  -6  -7 -13-6.54472 93.2107   4
   6   8  -2 1550.14 688.497   6
  -6  -8   1 432.529 278.029   1
   6   8  -1 262.244 347.769   6
  -6  -8   0 2067.79 557.300   1
   6   8   0 1782.20 645.189   6
  -6  -8  -1 2.08208 110.807   1
   6   8   1 237.888 246.319   6
   6   8   2 2950.78 518.580   7
  -6  -8  -2 3988.77 759.389   1
   6   8   2 2610.41 514.333   2
   6   8   2 3112.97 850.117   6
  -6  -8  -3 811.784 347.023   1
   6   8   3 662.005 259.955   7
   6   8   3 795.294 293.641   2
  -6  -8  -4 1582.93 480.143   1
   6   8   4 600.741 246.251   7
   6   8   4 1335.47 423.501   2
  -6  -8  -5 1236.34 429.650   1
   6   8   5 882.051 308.422   7
   6   8   5 1253.68 440.457   2
  -6  -8  -6 1986.60 560.780   1
   6   8   6 1579.86 419.346   7
  -6  -8  -7 523.496 266.791   1
   6   8   7 969.702 425.734   5
  -6  -8  -8 2067.56 538.176   1
   6   8   8 1546.88 557.525   5
  -6  -8  -9 298.889 214.546   1
   6   8   9 288.432 185.449   5
  -6  -8 -10 1396.14 406.377   1
   6   9   0 885.812 500.254   6
   6   9   1 809.613 483.694   6
  -6  -9  -2 839.278 378.431   1
   6   9   2 627.490 425.750   6
   6   9   3 887.385 327.903   7
  -6  -9  -3 1237.86 466.575   1
   6   9   3 501.382 389.606   6
  -6  -9  -4 1508.10 508.009   1
   6   9   4 1276.51 391.339   7
   6   9   4 1447.16 595.357   6
   6   9   4 1874.54 497.819   2
  -6  -9  -5 623.937 292.147   1
   6   9   5 546.645 259.884   7
   6   9   5 291.410 250.580   2
  -6  -9  -6 2403.00 630.861   1
   6   9   6 2343.63 560.481   7
  -6  -9  -7-41.5932 110.333   1
   6   9   7-3.14051 104.317   7
   6   9   7 61.8252 128.218   5
  -6  -9  -8-124.567 211.245   1
   6   9   8 368.242 243.440   7
   6   9   8 635.078 364.825   5
  -6  -9  -9-224.238 211.452   1
   6  10   1 404.621 344.371   6
   6  10   2 527.965 363.444   6
   6  10   3 678.776 365.148   6
   6  10   4 814.760 432.345   6
   6  10   5 690.759 353.922   7
   6  10   5 501.869 286.151   6
   6  10   6 540.973 269.389   7
  -6 -10  -7 484.362 303.895   1
   6  10   7 324.685 254.094   7
  -6 -10  -8 1203.36 444.973   1
   6  10   8 889.046 372.066   7
  -6 -10  -9 446.244 217.675   1
  -7   7   1 738.349 387.427   3
   7  -7   0-382.960 386.576   2
  -7   7   0-20.4165 133.108   3
   7  -7   1 2029.43 768.261   2
   7  -7   2 266.629 334.677   2
   7  -7   3 976.652 526.308   2
   7  -7   4 752.472 440.567   2
   7  -7   5 681.219 392.343   2
  -7   6   6 404.172 265.809   5
  -7   6   5 782.014 313.946   5
  -7   6   4 344.032 252.105   5
  -7   6   3 1971.68 520.195   5
  -7   6   3 1112.54 382.417   3
   7  -6  -2-552.054 523.037   2
  -7   6   2-69.9588 170.875   3
   7  -6  -1 1316.26 627.075   2
  -7   6   1 2176.56 619.050   3
   7  -6   0 322.575 346.237   2
  -7   6   0 68.0882 162.007   3
   7  -6   1 544.470 366.900   2
  -7   6  -1 815.348 396.509   3
   7  -6   2 396.251 382.378   2
  -7   6  -2 203.714 243.745   3
   7  -6   3 3841.20 953.400   2
  -7   6  -3 3968.75 952.876   3
   7  -6   4 173.791 237.893   2
   7  -6   5 1432.62 529.794   2
   7  -6   6 182.786 225.027   2
   7  -6   7 1056.03 450.581   2
  -7   5   6 494.154 312.166   5
  -7   5   5 502.762 232.202   5
  -7   5   4 154.283 102.403   5
  -7   5   4 46.9365 134.113   3
  -7   5   3 2275.33 577.369   5
   7  -5  -3 2150.30 857.979   2
  -7   5   3 2265.16 571.660   3
  -7   5   2 1357.03 424.197   5
   7  -5  -2 957.552 565.380   2
  -7   5   2 1334.91 442.569   3
  -7   5   1 2373.33 534.398   5
   7  -5  -1 1891.26 690.278   2
  -7   5   1 2542.27 627.891   3
  -7   5   0 766.778 301.727   5
   7  -5   0 1549.82 639.781   2
  -7   5   0 772.933 321.759   3
   7  -5   1 7061.90 1249.45   2
  -7   5  -1 6377.10 1088.58   3
  -7   5  -1 7088.29 857.788   5
   7  -5   2 716.879 457.291   2
  -7   5  -2 94.8281 216.376   3
   7  -5   3 3288.03 799.786   2
  -7   5  -3 3464.04 867.411   3
   7  -5   4-120.937 200.183   2
  -7   5  -4-112.149 158.574   3
   7  -5   5 2151.41 614.724   2
  -7   5  -5 1409.23 578.021   3
   7  -5   6-43.4999 191.900   2
  -7   5  -6 47.4930 207.674   3
   7  -5   7 1075.04 419.923   2
   7  -5   8 157.206 97.8296   2
   7  -5   9 915.389 408.575   2
  -7   4   6-25.3864 116.644   5
  -7   4   5 2240.34 604.336   5
   7  -4  -5 1863.89 868.581   2
  -7   4   4 443.953 239.211   5
  -7   4   4 1042.89 354.752   3
  -7   4   3 2646.50 620.362   5
   7  -4  -3 2176.84 756.853   2
  -7   4   3 2245.07 518.689   3
  -7   4   2 2743.13 601.183   5
   7  -4  -2 3197.31 947.266   2
  -7   4   2 3258.19 672.008   3
   7  -4  -1 4644.68 1096.54   2
  -7   4   1 5327.33 884.080   3
  -7   4   1 4614.57 754.454   5
   7  -4   0 2790.38 775.870   2
  -7   4   0 1866.84 537.730   3
   7  -4   1 2138.56 667.142   2
  -7   4  -1 1038.09 407.753   3
   7  -4   2 338.001 245.957   2
  -7   4  -2-26.5384 185.829   3
   7  -4   3 7196.17 1108.57   2
  -7   4  -3 7730.73 1226.35   3
   7  -4   4 80.9366 131.662   2
  -7   4  -4 321.144 266.189   3
   7  -4   5 7819.70 1124.58   2
  -7   4  -5 7989.61 1337.58   3
   7  -4   6 102.368 112.299   2
  -7   4  -6 425.672 310.313   3
   7  -4   7 2217.21 587.617   2
  -7   4  -7 1858.81 675.370   3
   7  -4   8-185.672 127.710   2
   7  -4   9 566.412 297.999   2
   7  -4  10-729.430 367.220   2
  -7   3   6 1330.30 479.467   5
  -7   3   5 1615.71 496.621   5
   7  -3  -5 871.433 442.332   2
  -7   3   4 747.553 348.050   5
   7  -3  -4 763.057 463.346   2
  -7   3   4 842.554 273.035   3
  -7   3   3 1093.75 406.558   5
   7  -3  -3 1320.95 637.891   2
  -7   3   3 1541.68 443.149   3
  -7   3   2 1458.13 439.285   5
   7  -3  -2 729.031 399.784   2
  -7   3   2 506.776 234.825   3
   7  -3  -1 1397.29 561.644   2
  -7   3   1 1641.51 445.460   3
   7  -3   0 3796.99 890.136   2
  -7   3   0 4035.15 759.299   3
   7  -3   1 12312.5 1490.99   2
  -7   3  -1 12478.8 1403.13   3
   7  -3   2 1542.00 512.074   2
  -7   3  -2 1969.37 574.908   3
   7  -3   3 8057.25 1128.35   2
  -7   3  -3 8927.86 1279.52   3
   7  -3   4 351.320 244.863   2
  -7   3  -4 496.428 297.418   3
   7  -3   5 2640.08 598.784   2
  -7   3  -5 2634.18 727.285   3
   7  -3   6 4862.65 883.549   2
  -7   3  -6 5397.50 1098.05   3
   7  -3   7 6084.24 969.677   2
  -7   3  -7 6608.27 1245.49   3
   7  -3   8 244.867 205.215   2
  -7   3  -8 319.669 299.720   3
   7  -3   9 788.631 387.649   2
  -7   3  -9 1205.03 561.463   3
   7  -3  10 71.3252 151.785   2
   7  -3  11-105.205 164.252   2
   7  -2  -8 298.643 248.079   6
   7  -2  -7 574.252 294.599   6
  -7   2   6 379.599 251.884   5
   7  -2  -6-364.663 347.758   2
  -7   2   5 1647.04 511.803   5
   7  -2  -5 1428.14 649.014   2
  -7   2   4 225.163 242.159   5
   7  -2  -4 451.203 422.943   2
  -7   2   4 203.785 131.922   3
   7  -2  -3 4781.37 1077.78   2
  -7   2   3 5136.10 743.194   3
   7  -2  -2-195.708 309.404   2
  -7   2   2 228.802 141.423   3
   7  -2  -1 7602.27 1190.68   2
  -7   2   1 7245.54 958.107   3
   7  -2   0 3177.55 765.839   2
  -7   2   0 3342.25 667.830   3
   7  -2   1 2489.64 635.339   2
  -7   2  -1 3393.21 706.405   3
   7  -2   2-31.0365 105.447   2
  -7   2  -2 210.576 233.714   3
   7  -2   3 5290.78 854.155   2
  -7   2  -3 6051.01 994.411   3
   7  -2   4 3389.59 695.359   2
  -7   2  -4 3458.16 771.060   3
   7  -2   5 13588.2 1416.22   2
  -7   2  -5 14987.9 1732.34   3
   7  -2   6 1514.49 479.840   2
  -7   2  -6 971.154 478.083   3
   7  -2   7 3218.44 715.618   2
  -7   2  -7 2505.91 714.294   3
   7  -2   8 83.0201 139.132   2
  -7   2  -8 597.992 395.438   3
   7  -2   9 6638.95 1078.21   2
  -7   2  -9 5256.20 1144.15   3
   7  -2  10 586.681 287.876   2
  -7   2 -10 680.534 479.370   3
   7  -2  11 1784.01 609.009   2
   7  -1  -8 473.595 295.452   6
   7  -1  -7 507.225 227.230   2
   7  -1  -7 797.684 363.289   6
  -7   1   6 48.1233 67.8836   5
   7  -1  -6-276.963 167.983   2
  -7   1   5 2496.07 651.143   5
   7  -1  -5 2079.59 816.426   2
   7  -1  -4 1079.07 576.148   2
  -7   1   4 465.555 222.166   3
   7  -1  -3 2202.68 735.698   2
  -7   1   3 1759.48 414.782   3
   7  -1  -2 650.578 403.508   2
  -7   1   2 627.779 275.584   3
   7  -1  -1 454.216 348.385   2
  -7   1   1 848.234 324.503   3
   7  -1   0 116.719 180.991   2
  -7   1   0 225.282 212.487   3
   7  -1   1 7404.84 1055.67   2
  -7   1  -1 8259.08 1044.40   3
   7  -1   2 5076.97 833.108   2
  -7   1  -2 5334.85 888.726   3
   7  -1   3 22790.9 1817.10   2
  -7   1  -3 24951.3 2015.31   3
   7  -1   4 2810.73 615.530   2
  -7   1  -4 3093.40 720.429   3
   7  -1   5 1310.55 433.039   2
  -7   1  -5 2141.16 627.140   3
   7  -1   6 966.836 387.286   2
  -7   1  -6 1136.78 463.183   3
   7  -1   7 13801.3 1474.92   2
  -7   1  -7 9469.26 1388.31   3
   7  -1   8 1923.19 533.480   2
  -7   1  -8 1749.09 611.889   3
   7  -1   9 4382.86 891.072   2
  -7   1  -9 4540.35 1020.28   3
   7  -1  10 229.780 245.108   2
  -7   1 -10 168.325 272.367   3
  -7   1 -11 2606.33 805.343   3
   7  -1  11 2352.82 706.854   2
   7   0  -8 245.952 179.169   6
   7   0  -7 477.773 375.220   2
   7   0  -7 1084.73 451.418   6
  -7   0   6 190.718 229.236   5
   7   0  -6-171.680 241.960   2
   7   0  -6 62.1953 177.540   6
  -7   0   5 792.598 399.149   5
   7   0  -5 1634.58 709.885   2
   7   0  -4 2038.28 687.374   2
  -7   0   4 1558.87 358.925   3
   7   0  -3 3664.39 886.113   2
  -7   0   3 2731.92 496.831   3
   7   0  -2 195.576 246.194   2
  -7   0   2 49.4360 98.3385   3
   7   0  -1 4502.30 882.483   2
  -7   0   1 4228.63 671.528   3
   7   0   0 3760.51 730.855   2
  -7   0   0 3144.11 590.621   3
   7   0   1 4453.08 777.874   2
  -7   0  -1 3162.33 627.345   3
   7   0   2 597.969 317.149   2
  -7   0  -2 333.681 201.429   3
   7   0   3 2129.80 260.489   7
   7   0   3 2335.91 551.406   2
  -7   0  -3 2396.79 590.262   3
   7   0   4 194.796 114.755   7
   7   0   4 319.925 253.163   2
  -7   0  -4 34.0217 188.549   3
   7   0   5 29168.6 2089.48   2
   7   0   5 24934.8 1351.33   7
   7   0   6 2018.61 389.884   7
   7   0   6 2642.82 643.474   2
  -7   0  -6 2920.88 770.468   3
   7   0   7 2260.57 599.755   2
  -7   0  -7 2049.32 601.751   3
   7   0   8-192.475 215.117   2
  -7   0  -8 291.085 317.078   3
   7   0   9 9033.06 1302.00   2
  -7   0  -9 7923.36 1298.82   3
   7   0   9 6710.02 938.308   5
   7   0  10 133.909 204.095   2
  -7   0 -10 616.811 390.374   3
   7   0  10 544.767 287.784   5
  -7   0 -11 2749.80 803.457   3
   7   0  11 3000.27 833.247   2
   7   0  11 2035.31 547.427   5
  -7   0 -12 21.6082 104.618   3
   7   0  12 88.2905 121.057   5
   7   1  -8 1090.78 698.850   2
   7   1  -7 597.733 356.220   2
   7   1  -7 1411.25 493.039   6
  -7  -1   6 242.007 114.220   5
   7   1  -6 67.8903 104.155   6
   7   1  -5 574.799 388.679   2
   7   1  -4 812.122 440.288   2
  -7  -1   4 634.242 199.170   3
   7   1  -3 3332.57 865.878   2
  -7  -1   3 3912.72 593.864   3
   7   1  -2 564.519 278.401   2
  -7  -1   2 556.311 247.966   3
   7   1  -1 2389.90 592.032   2
  -7  -1   1 2976.83 552.973   3
   7   1   0 1229.90 439.814   2
  -7  -1   0 546.437 249.559   3
   7   1   1 175.591 177.146   2
  -7  -1  -1 297.340 200.947   3
   7   1   2 8992.80 1090.33   2
  -7  -1  -2 10162.4 1166.43   3
   7   1   3 16502.3 1494.23   2
   7   1   3 15747.5 663.546   7
  -7  -1  -3 16761.0 1582.94   3
   7   1   4 2544.15 317.455   7
   7   1   4 3427.78 683.439   2
  -7  -1  -4 2767.67 666.088   3
   7   1   5 2901.20 404.986   7
   7   1   5 3569.76 706.604   2
  -7  -1  -5 3587.51 764.723   3
   7   1   6 282.205 142.962   7
   7   1   6 49.4045 93.3393   2
  -7  -1  -6 423.581 338.523   3
   7   1   7 11068.5 1348.44   2
  -7  -1  -7 9191.55 1308.19   3
   7   1   8 2441.66 639.316   2
  -7  -1  -8 2377.36 682.121   3
   7   1   9 6593.56 1162.43   2
  -7  -1  -9 5819.69 1098.67   3
   7   1   9 5546.34 888.635   5
   7   1  10-27.8856 263.444   2
  -7  -1 -10 192.463 179.979   3
   7   1  10 107.220 121.469   5
  -7  -1 -11 2117.74 701.634   3
   7   1  11 3076.78 926.945   2
   7   1  11 1847.20 512.174   5
  -7  -1 -12-282.273 328.153   3
   7   1  12 97.5700 130.151   5
   7   1  13 993.964 418.601   5
   7   2  -7-87.0425 201.503   2
   7   2  -6 474.564 407.644   2
   7   2  -6 895.948 412.097   6
   7   2  -5 944.535 519.877   2
   7   2  -5 2059.33 641.781   6
   7   2  -4-57.9457 234.113   2
  -7  -2   4 164.947 132.279   3
   7   2  -3 2873.30 759.921   2
  -7  -2   3 4010.70 614.061   3
   7   2  -2 3694.19 790.323   2
  -7  -2   2 3363.53 582.883   3
   7   2  -1 6268.41 970.541   2
  -7  -2   1 6328.54 825.533   3
   7   2   0 1692.54 491.790   2
  -7  -2   0 2450.73 524.824   3
   7   2   1 2600.19 557.479   2
  -7  -2  -1 2490.99 552.920   3
   7   2   2 6337.95 893.180   2
  -7  -2  -2 6555.82 934.053   3
   7   2   3 55.3235 29.4859   7
   7   2   3 131.094 183.258   2
  -7  -2  -3-111.374 188.721   3
   7   2   4 260.861 224.796   2
  -7  -2  -4 13.0373 155.472   3
   7   2   5 10670.0 1242.28   2
  -7  -2  -5 8692.98 1174.83   3
   7   2   6 6321.04 979.241   2
  -7  -2  -6 4815.93 934.010   3
   7   2   7 9698.70 1284.46   2
  -7  -2  -7 7320.21 1144.13   3
   7   2   8 3030.44 772.560   2
  -7  -2  -8 2224.31 636.399   3
   7   2   8 1960.77 512.596   5
   7   2   9 2495.77 726.039   2
  -7  -2  -9 2008.54 635.101   3
   7   2   9 1715.52 484.291   5
   7   2  10-126.088 280.782   2
  -7  -2 -10 398.454 343.110   3
   7   2  10 818.406 356.631   5
  -7  -2 -11 3540.37 868.186   3
   7   2  11 3900.81 798.008   5
  -7  -2 -12 24.4344 230.015   3
   7   2  12 226.922 210.876   5
   7   2  13 704.299 372.435   5
   7   3  -6 214.531 223.510   2
   7   3  -5 765.161 476.697   2
   7   3  -5 1349.76 576.138   6
  -7  -3   5 1742.95 440.413   1
   7   3  -4 1707.25 610.873   2
   7   3  -4 1898.07 632.581   6
  -7  -3   4 1770.02 456.015   1
  -7  -3   4 2083.04 425.448   3
   7   3  -3 1728.35 631.188   2
  -7  -3   3 2755.48 532.231   3
  -7  -3   3 2519.27 552.107   1
   7   3  -2 629.007 294.842   2
  -7  -3   2 148.914 174.907   1
   7   3  -1 3395.98 717.256   2
  -7  -3   1 3831.98 675.971   1
   7   3   0 736.549 353.743   2
  -7  -3   0 757.491 301.019   1
   7   3   1 5372.32 822.893   2
  -7  -3  -1 6557.08 869.237   1
   7   3   2 796.866 282.616   2
  -7  -3  -2 1071.94 359.587   1
   7   3   3 1626.80 166.458   7
   7   3   3 2213.39 524.064   2
  -7  -3  -3 1353.11 389.370   1
   7   3   4 4810.49 795.122   2
  -7  -3  -4 3758.23 656.161   1
  -7  -3  -4 3441.93 722.381   3
   7   3   5 7020.25 1005.95   2
  -7  -3  -5 4143.31 807.487   3
   7   3   6 18.5131 158.985   2
  -7  -3  -6 349.472 223.916   3
   7   3   7 1876.42 588.130   2
  -7  -3  -7 1847.39 562.181   3
   7   3   8 4486.33 816.698   5
  -7  -3  -8 4085.21 885.494   3
   7   3   9 8920.35 1420.75   2
  -7  -3  -9 6335.73 1113.45   3
   7   3   9 7093.75 1056.20   5
  -7  -3 -10 1759.50 598.923   3
   7   3  10 2423.78 610.204   5
  -7  -3 -11 1215.73 473.719   3
   7   3  11 965.361 401.418   5
  -7  -3 -12 255.003 247.433   3
   7   3  12-30.4823 125.777   5
   7   4  -7 523.338 326.983   4
   7   4  -5 924.471 528.563   2
  -7  -4   5 1509.22 408.151   1
  -7  -4   4 733.253 307.613   1
   7   4  -4 189.360 292.938   2
   7   4  -4 282.989 320.805   6
  -7  -4   3 1325.38 406.587   1
   7   4  -3 1888.89 645.557   2
  -7  -4   2 1064.07 360.694   1
   7   4  -2 1986.02 565.657   2
   7   4  -1 6752.82 967.165   2
  -7  -4   1 7139.86 944.586   1
  -7  -4   0 672.601 254.974   1
   7   4   0 612.301 265.538   2
   7   4   1 3730.52 675.584   2
  -7  -4  -1 4841.80 762.875   1
  -7  -4  -2 245.670 170.516   1
   7   4   2 383.132 180.191   2
   7   4   3 3978.33 704.087   2
  -7  -4  -3 4126.19 707.798   1
  -7  -4  -4 738.363 300.955   1
   7   4   4 671.831 311.236   2
  -7  -4  -5 484.543 229.798   1
   7   4   5 945.423 394.452   2
   7   4   6 924.488 382.670   2
  -7  -4  -6 471.432 242.790   1
   7   4   7 8927.91 1315.49   2
  -7  -4  -7 5309.66 772.907   1
   7   4   8 1397.52 517.660   2
   7   4   8 979.966 415.551   5
  -7  -4  -8 1181.17 472.148   3
   7   4   9 1303.24 472.125   5
  -7  -4  -9 1438.83 514.604   3
   7   4  10 1628.65 510.077   5
  -7  -4 -10 1639.08 589.802   3
  -7  -4 -11 3277.27 822.811   3
   7   4  11 2095.16 626.109   5
  -7  -4 -12 648.678 345.862   3
  -7  -5   4 559.326 262.742   1
   7   5  -3 2900.32 773.889   2
   7   5  -3 3024.29 790.801   6
  -7  -5   3 3717.06 684.663   1
  -7  -5   2 786.850 305.763   1
   7   5  -2 1245.25 447.021   2
  -7  -5   1 944.190 365.722   1
   7   5  -1 977.150 369.127   2
  -7  -5   0 192.532 166.271   1
   7   5   0 268.867 202.477   2
   7   5   1 4773.81 763.847   2
  -7  -5  -1 4510.69 772.164   1
  -7  -5  -2 3448.33 683.801   1
   7   5   2 2560.39 551.392   2
  -7  -5  -3 3303.10 664.789   1
   7   5   3 3547.71 678.200   2
  -7  -5  -4 1472.05 466.789   1
   7   5   4 962.451 221.792   7
   7   5   4 1518.23 473.344   2
   7   5   5 3870.79 750.281   2
  -7  -5  -5 3610.62 702.680   1
  -7  -5  -6-75.5476 191.678   1
   7   5   6-69.5228 112.143   2
  -7  -5  -7 3147.16 620.889   1
   7   5   7 6419.85 1185.43   2
   7   5   8 101.445 131.825   2
   7   5   8 338.591 237.788   5
  -7  -5  -8 242.241 137.239   1
   7   5   9 2279.86 631.728   5
  -7  -5  -9 2707.72 539.403   1
   7   5  10 559.879 277.895   5
  -7  -5 -10 1323.41 519.461   3
   7   5  11 2282.11 659.721   5
  -7  -5 -11 2737.25 759.982   3
  -7  -6   2 653.115 312.038   1
   7   6  -2 295.078 331.110   6
  -7  -6   1 1556.43 466.733   1
   7   6  -1 1493.67 462.457   2
   7   6  -1 2238.47 741.640   6
  -7  -6   0 2261.74 552.401   1
   7   6   0 1449.76 417.156   2
  -7  -6  -1 2579.84 591.952   1
   7   6   1 1932.15 485.405   2
  -7  -6  -2 431.280 244.745   1
   7   6   2 592.677 246.019   2
  -7  -6  -3 3088.84 680.703   1
   7   6   3 2815.96 596.215   2
  -7  -6  -4 656.907 324.057   1
   7   6   4 547.517 258.862   2
   7   6   5 4339.06 812.649   2
   7   6   5 4000.16 545.077   7
  -7  -6  -5 5731.87 905.319   1
  -7  -6  -6 896.383 395.953   1
   7   6   6 913.779 394.038   2
  -7  -6  -7 1792.81 516.381   1
   7   6   7 1959.09 666.399   2
  -7  -6  -8 839.467 321.036   1
   7   6   8 1331.52 480.137   5
  -7  -6  -9 2290.70 518.576   1
   7   6   9 2365.57 677.598   5
   7   6  10 657.118 380.465   5
  -7  -6 -10 982.582 311.755   1
   7   7  -1 1922.25 733.232   6
  -7  -7   0 478.485 274.275   1
   7   7   0 607.874 420.904   6
  -7  -7  -1 2274.97 569.577   1
   7   7   1 1564.82 418.288   2
  -7  -7  -2 1185.91 432.496   1
   7   7   2 1300.06 393.978   2
  -7  -7  -3 2696.03 641.487   1
   7   7   3 2603.71 578.273   2
  -7  -7  -4 1038.83 399.924   1
   7   7   4 746.822 324.557   2
  -7  -7  -5 1707.88 495.821   1
   7   7   5 1491.19 492.319   2
  -7  -7  -6 591.863 289.466   1
   7   7   6 496.228 205.274   7
   7   7   6 233.323 94.2235   2
  -7  -7  -7 2145.72 558.595   1
   7   7   7 2603.95 755.860   2
  -7  -7  -8 1700.83 499.082   1
   7   7   8 1188.86 491.756   5
  -7  -7  -9 2398.30 574.510   1
   7   8   1 1240.61 583.470   6
  -7  -8  -2 513.376 280.581   1
  -7  -8  -3 1652.96 514.772   1
   7   8   3 1535.43 451.437   2
  -7  -8  -4 574.787 353.361   1
   7   8   4 533.867 293.972   2
  -7  -8  -5 1447.47 511.972   1
   7   8   5 1061.40 401.414   2
  -7  -8  -6 520.946 319.618   1
   7   8   6-357.110 261.202   2
  -7  -8  -7 1860.97 568.768   1
   7   8   7 2516.59 727.186   2
  -7  -8  -8 12.6215 127.653   1
  -7  -8  -9 748.012 350.572   1
   7   9   3 1001.45 531.578   6
   7   9   5 1551.03 501.489   2
   7   9   6 217.614 210.220   2
  -7  -9  -7 433.577 281.058   1
   7   9   7 819.364 413.815   2
  -7  -9  -8 483.344 311.435   1
  -7  -9  -9 1337.50 462.293   1
  -8   6   1 226.442 232.408   3
  -8   5   3-2.54347 72.3362   5
  -8   5   2 485.050 284.832   3
  -8   5   1 218.992 159.515   3
  -8   5   0 816.469 404.291   3
  -8   5  -1 169.192 127.249   3
  -8   5  -2 1149.24 523.291   3
  -8   4   4 194.621 139.092   5
  -8   4   3-101.020 193.383   5
  -8   4   2 1021.75 376.799   5
  -8   4   2 507.390 257.221   3
  -8   4   1 605.869 287.753   5
  -8   4   1 363.595 231.689   3
  -8   4   0 2439.45 572.216   5
   8  -4   0 2778.20 848.418   2
  -8   4   0 2714.55 692.419   3
   8  -4   1 112.715 307.851   2
  -8   4  -1 137.542 192.148   3
   8  -4   2 3232.17 848.845   2
  -8   4  -2 2497.44 735.956   3
   8  -4   3-174.532 274.089   2
  -8   4  -3 168.090 182.100   3
   8  -4   4 589.719 355.495   2
  -8   4  -4 543.781 313.023   3
   8  -4   5 117.529 203.676   2
   8  -4   6 618.622 355.910   2
  -8   3   4 1187.81 460.487   5
  -8   3   3 701.035 384.100   5
  -8   3   3 188.951 157.929   3
  -8   3   2 1866.51 507.854   5
   8  -3  -2 1555.19 740.874   2
  -8   3   2 1288.44 429.626   3
   8  -3  -1 741.132 451.300   2
  -8   3   1 479.941 262.714   3
   8  -3   0 2747.19 812.214   2
  -8   3   0 1996.05 568.578   3
   8  -3   1 1836.95 628.786   2
  -8   3  -1 1624.88 553.508   3
   8  -3   2 1302.31 520.718   2
  -8   3  -2 2120.39 625.731   3
   8  -3   3 273.638 217.771   2
  -8   3  -3 230.154 198.642   3
   8  -3   4 1732.40 581.418   2
  -8   3  -4 2393.34 747.146   3
   8  -3   5 2480.10 692.710   2
  -8   3  -5 3819.61 944.709   3
   8  -3   6 3248.66 760.816   2
  -8   3  -6 2891.29 879.572   3
   8  -3   7 126.773 111.655   2
  -8   2   4 1432.83 491.554   5
  -8   2   3 646.809 303.169   5
   8  -2  -3 861.121 550.323   2
  -8   2   3 830.291 311.263   3
   8  -2  -2 1221.71 609.456   2
  -8   2   2 1174.92 406.921   3
   8  -2  -1 1954.72 709.116   2
  -8   2   1 787.305 355.947   3
   8  -2   0 2936.22 834.199   2
  -8   2   0 3232.62 706.923   3
   8  -2   1 1321.68 542.887   2
  -8   2  -1 1206.51 457.949   3
   8  -2   2 7397.71 1175.22   2
  -8   2  -2 7233.23 1161.26   3
   8  -2   3 870.188 375.539   2
  -8   2  -3 467.261 269.306   3
   8  -2   4 3090.52 733.153   2
  -8   2  -4 3613.82 867.079   3
   8  -2   5 518.818 283.578   2
  -8   2  -5 209.842 208.252   3
   8  -2   6-209.938 292.501   2
  -8   2  -6 235.535 297.858   3
   8  -2   7 2301.24 664.372   2
  -8   2  -7 3471.95 966.747   3
   8  -2   8 5120.17 980.679   2
   8  -1  -6 1031.11 467.253   6
  -8   1   4 1318.61 475.777   5
   8  -1  -4 2316.23 888.231   2
   8  -1  -3 625.306 435.070   2
  -8   1   3 592.231 250.307   3
   8  -1  -2 1485.55 659.483   2
  -8   1   2 1388.56 398.011   3
   8  -1  -1 1955.15 698.836   2
  -8   1   1 286.968 181.100   3
   8  -1   0 2832.40 738.722   2
  -8   1   0 2765.37 624.383   3
   8  -1   1 929.250 404.985   2
  -8   1  -1 709.771 338.317   3
   8  -1   2 6748.50 1077.32   2
  -8   1  -2 6382.66 1043.31   3
   8  -1   3 287.747 233.080   2
  -8   1  -3 308.539 240.330   3
   8  -1   4 4424.66 865.868   2
  -8   1  -4 4879.34 986.926   3
   8  -1   5 1793.46 543.082   2
  -8   1  -5 3018.12 813.553   3
   8  -1   6 4393.03 853.423   2
  -8   1  -6 3571.00 897.873   3
   8  -1   7 2672.72 683.977   2
  -8   1  -7 1977.08 707.212   3
   8  -1   8 416.847 264.248   2
  -8   1  -8 30.0149 144.231   3
   8   0  -4 481.026 300.924   2
   8   0  -3 1044.88 620.008   2
  -8   0   3 410.756 206.503   3
   8   0  -2 2204.93 728.991   2
  -8   0   2 1601.18 446.323   3
   8   0  -1 598.212 389.665   2
  -8   0   1 292.165 229.145   3
   8   0   0 2117.89 623.169   2
  -8   0   0 2344.77 556.671   3
   8   0   1 3135.99 760.110   2
  -8   0  -1 2148.35 562.553   3
   8   0   2 5969.23 999.758   2
  -8   0  -2 6172.21 1006.04   3
   8   0   3 148.986 204.646   2
  -8   0  -3 422.596 251.708   3
   8   0   4 10542.5 1314.80   2
  -8   0  -4 10856.9 1437.50   3
   8   0   5 505.145 323.200   2
  -8   0  -5 416.304 296.295   3
   8   0   6 1878.19 553.439   2
  -8   0  -6 1700.24 579.820   3
   8   0   7 156.708 266.883   2
  -8   0  -7-373.146 352.438   3
   8   0   8 3254.29 778.650   2
  -8   0  -8 2907.89 845.120   3
   8   0   9 926.544 447.335   2
  -8   0  -9-257.705 283.525   3
   8   1  -5 379.818 437.697   2
   8   1  -4 831.492 505.645   2
   8   1  -3 428.358 339.907   2
  -8  -1   3 195.360 159.062   3
   8   1  -2 1611.24 624.280   2
  -8  -1   2 1801.28 450.372   3
   8   1  -1 2202.05 673.393   2
  -8  -1   1 1409.66 424.073   3
   8   1   0 2271.87 656.119   2
  -8  -1   0 1695.23 468.425   3
   8   1   1 156.923 141.436   2
  -8  -1  -1 262.830 210.009   3
   8   1   2 1616.42 513.890   2
  -8  -1  -2 2117.87 545.777   3
   8   1   3 707.029 307.227   2
  -8  -1  -3 831.320 380.107   3
   8   1   4 7814.29 1131.03   2
  -8  -1  -4 8775.77 1269.63   3
   8   1   5 60.9762 74.9228   2
  -8  -1  -5-195.725 160.233   3
   8   1   6 8108.43 1173.71   2
  -8  -1  -6 7022.59 1203.71   3
   8   1   7 1585.31 555.559   2
  -8  -1  -7 2923.79 825.048   3
   8   1   8 2807.78 723.415   2
  -8  -1  -8 1612.23 610.106   3
   8   1   9 123.239 215.294   2
  -8  -1  -9 438.701 341.240   3
   8   2  -5 181.165 243.930   2
   8   2  -4-63.8881 321.942   2
   8   2  -3 1123.14 535.681   2
  -8  -2   3 685.307 261.367   3
   8   2  -2 1303.69 531.893   2
  -8  -2   2 1037.91 346.962   3
   8   2  -1 697.278 409.981   2
  -8  -2   1 478.346 245.290   3
   8   2   0 1916.80 559.920   2
  -8  -2   0 1487.15 430.360   3
   8   2   1 1814.16 541.804   2
  -8  -2  -1 1548.47 468.306   3
   8   2   2 3825.66 772.260   2
  -8  -2  -2 4001.69 779.671   3
   8   2   3 1202.33 412.461   2
  -8  -2  -3 1294.88 473.730   3
   8   2   4 2792.67 666.634   2
  -8  -2  -4 2071.05 608.545   3
   8   2   5 515.486 311.088   2
  -8  -2  -5 296.722 283.309   3
   8   2   6 6139.99 1016.37   2
  -8  -2  -6 3980.39 905.959   3
   8   2   7 1022.05 463.636   2
  -8  -2  -7 267.775 159.105   3
   8   2   8 1825.94 589.923   2
  -8  -2  -8 902.061 451.339   3
   8   2   9 559.824 398.526   2
  -8  -2  -9 382.998 318.510   3
   8   2  11 37.7772 196.070   5
   8   3  -5 12.5844 158.191   2
   8   3  -4 185.305 242.180   2
   8   3  -3 1513.90 629.112   2
  -8  -3   3 715.031 298.624   3
   8   3  -2 633.571 383.494   2
  -8  -3   2 591.104 268.386   3
   8   3  -1 952.903 431.718   2
  -8  -3   1 792.726 332.091   3
   8   3   0 2740.81 665.356   2
  -8  -3   0 2513.85 579.223   3
   8   3   1 1003.53 441.521   2
  -8  -3  -1 1458.49 479.330   3
   8   3   2 968.260 405.269   2
  -8  -3  -2 1055.66 396.641   3
   8   3   3 401.924 226.055   2
  -8  -3  -3 879.595 404.572   3
   8   3   4 2157.33 587.760   2
  -8  -3  -4 1693.11 556.953   3
   8   3   5 2031.56 567.862   2
  -8  -3  -5 1239.92 478.713   3
   8   3   6 3943.56 819.713   2
  -8  -3  -6 2528.24 704.329   3
   8   3   7 1531.27 531.611   2
  -8  -3  -7 637.871 366.086   3
   8   3   8 3632.13 849.044   2
  -8  -3  -8 2486.96 733.633   3
   8   3   9 1087.17 486.579   2
  -8  -3  -9 264.963 310.705   3
   8   3  10 1216.69 476.871   5
   8   4  -3 25.7851 154.842   2
   8   4  -2 726.560 407.821   2
  -8  -4   2 1282.91 401.164   3
   8   4  -1 653.546 319.856   2
  -8  -4   1 847.292 354.709   1
   8   4   0 761.031 390.538   2
  -8  -4   0 309.958 187.054   1
   8   4   1 1003.06 395.032   2
  -8  -4  -1 820.296 296.862   1
   8   4   2 1538.07 465.912   2
  -8  -4  -2 2860.15 627.452   1
   8   4   3 2237.14 580.675   2
  -8  -4  -3 2023.07 557.302   1
   8   4   4 1715.14 508.313   2
  -8  -4  -4 2115.25 554.516   1
  -8  -4  -4 2167.80 634.117   3
   8   4   5 278.185 210.725   2
  -8  -4  -5-22.7582 74.0544   1
  -8  -4  -5 265.812 186.435   3
   8   4   6 2840.93 692.487   2
  -8  -4  -6 1969.06 624.359   3
   8   4   7 823.357 403.039   2
  -8  -4  -7 892.821 453.731   3
   8   4   8 3405.87 840.253   2
  -8  -4  -8 2568.01 761.104   3
   8   4   9 672.855 351.758   2
  -8  -4  -9 1139.08 524.125   3
   8   5  -2 502.373 306.739   2
   8   5  -1 664.791 340.506   2
  -8  -5   0 188.326 173.978   1
   8   5   0 501.241 282.316   2
  -8  -5  -1 449.121 242.512   1
   8   5   1 446.483 248.373   2
  -8  -5  -2 1805.17 543.461   1
   8   5   2 1093.48 390.168   2
  -8  -5  -3 977.415 386.484   1
   8   5   3 279.734 149.443   2
  -8  -5  -4 2089.19 559.305   1
   8   5   4 2530.12 627.622   2
   8   5   5 618.348 332.183   2
  -8  -5  -5 911.219 345.414   1
   8   5   6 1874.04 565.088   2
  -8  -5  -6 1774.90 520.009   1
   8   5   7 1041.31 449.873   2
  -8  -5  -7 997.547 370.282   1
   8   5   8 1781.65 616.975   2
  -8  -5  -8 1619.25 637.782   3
   8   6   0 655.585 350.037   2
   8   6   1 944.074 392.313   2
  -8  -6  -2 1297.67 481.946   1
   8   6   2 913.854 346.881   2
  -8  -6  -3 1530.85 510.143   1
   8   6   3 707.226 322.899   2
  -8  -6  -4 821.413 401.688   1
   8   6   4 911.406 381.100   2
  -8  -6  -5 488.161 283.847   1
   8   6   5 634.928 325.488   2
  -8  -6  -6 1436.50 459.527   1
   8   6   6 1890.93 561.444   2
  -8  -6  -7 1372.43 451.997   1
   8   6   7 1312.84 516.243   2
   8   6   8 1642.17 595.798   2
  -8  -6  -8 1554.18 468.410   1
  -8  -6  -9 774.213 309.770   1
   8   7   2 402.795 252.545   2
   8   7   3 355.495 180.132   2
   8   7   4 2087.10 586.873   2
  -8  -7  -5 539.709 311.342   1
   8   7   5 537.235 340.615   2
  -8  -7  -6 291.741 222.385   1
   8   7   6 436.131 303.830   2
  -8  -7  -7 1042.55 434.773   1
   8   7   7 752.757 393.757   2
  -8  -7  -8 2013.66 604.746   1
  -8  -7  -9 1010.34 381.419   1
   8   8   4 397.094 315.990   2
   8   8   5-350.644 241.761   2
   8   8   6 637.598 339.470   2
  -9   3   1 882.723 384.476   5
  -9   3   1 326.663 257.740   3
  -9   3   0 125.891 117.521   3
  -9   3  -1 1335.17 534.070   3
  -9   2   1 244.163 225.703   3
  -9   2   0 538.394 340.336   3
  -9   2  -1 1458.41 526.163   3
  -9   2  -2 79.5705 96.4577   3
  -9   2  -3 348.215 270.703   3
  -9   1   1 1397.00 473.846   3
  -9   1   0 501.250 312.865   3
  -9   1  -1 1643.21 593.942   3
  -9   1  -2 1130.28 486.087   3
  -9   1  -3 2264.58 701.426   3
  -9   1  -4 169.621 234.828   3
  -9   0   1 218.239 186.576   3
  -9   0   0 783.421 405.170   3
  -9   0  -1 2071.58 613.445   3
  -9   0  -2 424.896 350.305   3
  -9   0  -3 2979.14 777.549   3
  -9   0  -4 1170.57 535.815   3
  -9   0  -5 1918.35 676.885   3
  -9  -1   1 1639.48 486.567   3
  -9  -1   0 557.301 316.388   3
   9   1   1 1324.19 480.546   2
  -9  -1  -1 1499.27 506.506   3
   9   1   2 592.298 327.776   2
  -9  -1  -2 67.9487 98.0322   3
   9   1   3 2854.92 734.021   2
  -9  -1  -3 2542.04 714.729   3
   9   1   4 199.930 211.340   2
  -9  -1  -4 117.852 231.866   3
  -9  -1  -5 1565.00 581.568   3
  -9  -2   1 530.905 264.733   3
   9   2   0 100.782 163.678   2
  -9  -2   0 91.9108 157.934   3
   9   2   1 3262.18 791.422   2
  -9  -2  -1 3409.34 745.631   3
   9   2   2 903.549 411.139   2
  -9  -2  -2 697.735 336.834   3
   9   2   3 1032.08 455.959   2
  -9  -2  -3 685.828 348.977   3
   9   2   4 589.230 247.880   2
  -9  -2  -4 46.5167 81.4346   3
   9   2   5 1944.67 605.702   2
  -9  -2  -5 1826.69 644.388   3
   9   3  -1 934.188 495.155   2
  -9  -3   1 793.764 332.493   3
   9   3   0 664.136 423.976   2
  -9  -3   0 1248.64 454.390   3
   9   3   1 1445.13 535.903   2
  -9  -3  -1 1641.32 530.011   3
   9   3   2 567.827 411.238   2
  -9  -3  -2 1117.98 477.140   3
   9   3   3 1823.16 576.201   2
  -9  -3  -3 2839.51 739.449   3
   9   3   4 120.692 180.233   2
  -9  -3  -4 244.120 282.893   3
   9   3   5 1223.76 495.092   2
  -9  -3  -5 1781.36 633.906   3
   9   4  -1 226.203 335.302   2
  -9  -4   1 116.172 179.277   3
   9   4   0 557.008 323.463   2
  -9  -4   0 557.488 330.711   3
   9   4   1 1531.27 553.324   2
  -9  -4  -1 1300.49 475.482   3
   9   4   2 143.858 183.302   2
  -9  -4  -2 272.245 272.396   3
   9   4   3 1227.43 458.817   2
  -9  -4  -3 1741.41 600.678   3
   9   4   4 820.276 382.979   2
   9   5   0 407.659 323.274   2
   9   5   1 1.40246 100.393   2
   9   5   2 797.820 360.087   2
   9   5   3 1859.07 585.320   2
   9   5   4-17.5268 174.672   2
   9   6   2 429.259 307.501   2
   9   6   3 557.527 316.565   2
   0   0   0    0.00    0.00   0

TITL exp_1282 in P-1
REM P-1 (#2 in standard setting)
CELL 0.71073   7.207172   9.151729  11.586875  77.5011  77.0387  84.1182
ZERR    2.00   0.000459   0.000514   0.000639   0.0047   0.0051   0.0049
LATT  1
SFAC C H F Fe
UNIT 32.00 20.00 12.00 2.00
TREF
HKLF 4
END
;
_shelx_hkl_checksum              48094
_olex2_date_sample_data_collection 2018-11-21
_olex2_exptl_crystal_mounting_method 'Inside 1.0 mm X-ray capillary'
_olex2_submission_special_instructions 'No special instructions were received'
_oxdiff_exptl_absorpt_empirical_details
;
Empirical correction (ABSPACK) includes:
- Absorption correction using spherical harmonics
- Frame scaling
;
_oxdiff_exptl_absorpt_empirical_full_max 4.001
_oxdiff_exptl_absorpt_empirical_full_min 0.580
loop_
_space_group_symop_operation_xyz
'x, y, z'
'-x, -y, -z'
loop_
_atom_site_label
_atom_site_type_symbol
_atom_site_fract_x
_atom_site_fract_y
_atom_site_fract_z
_atom_site_U_iso_or_equiv
_atom_site_adp_type
_atom_site_occupancy
_atom_site_site_symmetry_order
_atom_site_calc_flag
Fe1 Fe 0.23992(4) 0.49621(2) 0.25212(2) 0.03853(14) Uani 1 1 d
C7 C 0.3147(5) 0.6788(3) 0.1213(3) 0.0717(8) Uani 1 1 d
H7 H 0.430(4) 0.709(3) 0.101(2) 0.079(9) Uiso 1 1 d
C8 C 0.2414(4) 0.5729(3) 0.0739(2) 0.0627(7) Uani 1 1 d
H8 H 0.306(4) 0.528(3) 0.017(2) 0.073(8) Uiso 1 1 d
C9 C 0.0552(4) 0.5497(3) 0.1381(2) 0.0571(6) Uani 1 1 d
H9 H -0.026(4) 0.484(3) 0.126(2) 0.079(8) Uiso 1 1 d
C10 C 0.0122(4) 0.6399(3) 0.2253(2) 0.0586(6) Uani 1 1 d
H10 H -0.107(4) 0.642(3) 0.282(2) 0.079(8) Uiso 1 1 d
C11 C 0.1723(4) 0.7196(2) 0.2153(3) 0.0633(7) Uani 1 1 d
H11 H 0.176(4) 0.782(3) 0.268(2) 0.074(7) Uiso 1 1 d
C12 C 0.4735(4) 0.4081(3) 0.3182(3) 0.0692(8) Uani 1 1 d
H12 H 0.584(4) 0.445(3) 0.294(2) 0.072(8) Uiso 1 1 d
C13 C 0.4045(4) 0.3024(3) 0.2681(2) 0.0628(7) Uani 1 1 d
H13 H 0.463(4) 0.267(3) 0.206(2) 0.071(8) Uiso 1 1 d
C14 C 0.2186(4) 0.2754(2) 0.3300(2) 0.0549(6) Uani 1 1 d
H14 H 0.132(3) 0.212(2) 0.3157(19) 0.066(7) Uiso 1 1 d
C15 C 0.1699(4) 0.3634(2) 0.41912(19) 0.0521(6) Uani 1 1 d
H15 H 0.046(4) 0.369(2) 0.473(2) 0.069(7) Uiso 1 1 d
C16 C 0.3262(4) 0.4457(3) 0.4125(2) 0.0592(7) Uani 1 1 d
H16 H 0.335(4) 0.515(2) 0.457(2) 0.065(7) Uiso 1 1 d
F1 F 0.3708(2) 0.99920(18) -0.11370(15) 0.0831(5) Uani 1 1 d
F2 F 0.1356(2) 0.81348(15) -0.15594(13) 0.0728(4) Uani 1 1 d
F3 F -0.2343(3) 0.81384(18) -0.04214(16) 0.0853(5) Uani 1 1 d
C1 C 0.1875(4) 1.0001(2) -0.0580(2) 0.0537(6) Uani 1 1 d
C2 C 0.0687(4) 0.9063(2) -0.07954(19) 0.0503(6) Uani 1 1 d
C3 C -0.1179(4) 0.9060(2) -0.0216(2) 0.0536(6) Uani 1 1 d
F4 F 0.7983(3) 0.1520(2) 0.50555(18) 0.0949(6) Uani 1 1 d
F5 F 0.4519(3) 0.20515(16) 0.64229(14) 0.0827(5) Uani 1 1 d
F6 F 0.1534(2) 0.05401(18) 0.63632(14) 0.0817(5) Uani 1 1 d
C4 C 0.6501(4) 0.0769(2) 0.5025(2) 0.0544(6) Uani 1 1 d
C5 C 0.4758(4) 0.1033(2) 0.57237(19) 0.0513(6) Uani 1 1 d
C6 C 0.3246(3) 0.0263(2) 0.56979(19) 0.0525(6) Uani 1 1 d
loop_
_atom_site_aniso_label
_atom_site_aniso_U_11
_atom_site_aniso_U_22
_atom_site_aniso_U_33
_atom_site_aniso_U_23
_atom_site_aniso_U_13
_atom_site_aniso_U_12
Fe1 0.0426(2) 0.0355(2) 0.0377(2) -0.00465(13) -0.01285(14) 0.00102(13)
C7 0.066(2) 0.0608(16) 0.0763(19) 0.0233(14) -0.0219(15) -0.0125(14)
C8 0.080(2) 0.0631(15) 0.0383(12) -0.0028(11) -0.0147(12) 0.0167(14)
C9 0.0665(18) 0.0562(13) 0.0557(14) -0.0083(11) -0.0327(13) 0.0027(12)
C10 0.0578(16) 0.0616(15) 0.0530(13) -0.0080(11) -0.0177(12) 0.0193(12)
C11 0.093(2) 0.0371(11) 0.0678(16) -0.0089(11) -0.0390(16) 0.0056(12)
C12 0.0478(17) 0.0726(17) 0.0823(19) 0.0128(14) -0.0308(15) -0.0028(14)
C13 0.0692(19) 0.0545(14) 0.0572(15) -0.0068(11) -0.0131(13) 0.0217(13)
C14 0.0716(18) 0.0373(11) 0.0565(13) -0.0043(9) -0.0208(12) -0.0005(11)
C15 0.0612(16) 0.0490(12) 0.0413(11) 0.0002(9) -0.0110(11) 0.0007(11)
C16 0.079(2) 0.0529(13) 0.0536(14) -0.0064(11) -0.0376(14) 0.0022(13)
F1 0.0551(10) 0.0930(11) 0.0893(11) -0.0162(8) 0.0069(8) -0.0027(8)
F2 0.0951(12) 0.0615(8) 0.0610(8) -0.0259(6) -0.0087(8) 0.0115(8)
F3 0.0847(12) 0.0803(9) 0.1028(12) -0.0279(8) -0.0256(10) -0.0251(9)
C1 0.0534(14) 0.0502(12) 0.0490(12) -0.0005(10) -0.0052(10) 0.0045(10)
C2 0.0673(16) 0.0397(11) 0.0414(11) -0.0055(8) -0.0126(10) 0.0055(10)
C3 0.0611(16) 0.0450(12) 0.0546(13) -0.0034(10) -0.0173(11) -0.0051(10)
F4 0.0749(12) 0.0983(12) 0.1209(14) -0.0181(10) -0.0305(10) -0.0340(9)
F5 0.1197(15) 0.0641(8) 0.0740(9) -0.0316(7) -0.0286(9) 0.0066(9)
F6 0.0601(10) 0.0918(11) 0.0734(9) -0.0036(8) 0.0071(7) 0.0127(8)
C4 0.0563(15) 0.0462(12) 0.0621(14) 0.0019(10) -0.0239(12) -0.0104(11)
C5 0.0671(17) 0.0410(11) 0.0451(11) -0.0061(9) -0.0160(11) 0.0043(11)
C6 0.0499(14) 0.0502(12) 0.0464(12) 0.0042(9) -0.0055(10) 0.0085(10)
loop_
_atom_type_symbol
_atom_type_description
_atom_type_scat_dispersion_real
_atom_type_scat_dispersion_imag
_atom_type_scat_source
C C 0.0033 0.0016 'International Tables Vol C Tables 4.2.6.8 and 6.1.1.4'
H H 0.0000 0.0000 'International Tables Vol C Tables 4.2.6.8 and 6.1.1.4'
F F 0.0171 0.0103 'International Tables Vol C Tables 4.2.6.8 and 6.1.1.4'
Fe Fe 0.3463 0.8444 'International Tables Vol C Tables 4.2.6.8 and 6.1.1.4'
loop_
_exptl_crystal_face_index_h
_exptl_crystal_face_index_k
_exptl_crystal_face_index_l
_exptl_crystal_face_perp_dist
-1 -11 7 0.2621
-1 8 14 0.1918
1 -8 -14 0.0951
-3 11 -3 0.4683
1 1 16 0.1300
1 10 -7 0.3635
1 -10 7 0.2143
-10 -3 -4 0.5268
-9 -6 -1 0.4328
9 7 0 0.2402
10 1 5 0.2353
4 -5 -12 0.0590
-4 -9 -13 0.1983
0 13 2 0.3343
4 8 14 0.2184
3 11 11 0.2560
1 12 -3 0.3372
7 -2 -8 0.0951
-2 -9 -14 0.1475
loop_
_geom_angle_atom_site_label_1
_geom_angle_atom_site_label_2
_geom_angle_atom_site_label_3
_geom_angle
_geom_angle_site_symmetry_1
_geom_angle_site_symmetry_3
C7 Fe1 C8 40.62(12) . .
C7 Fe1 C9 67.76(11) . .
C7 Fe1 C10 67.83(12) . .
C7 Fe1 C11 40.58(12) . .
C7 Fe1 C12 108.42(13) . .
C7 Fe1 C13 122.93(13) . .
C7 Fe1 C14 157.86(13) . .
C7 Fe1 C15 160.44(12) . .
C7 Fe1 C16 124.56(12) . .
C8 Fe1 C9 40.11(11) . .
C8 Fe1 C10 67.84(11) . .
C8 Fe1 C14 121.95(11) . .
C8 Fe1 C15 157.43(12) . .
C8 Fe1 C16 160.98(12) . .
C9 Fe1 C14 107.75(11) . .
C9 Fe1 C15 122.36(11) . .
C9 Fe1 C16 157.61(13) . .
C10 Fe1 C9 40.35(10) . .
C10 Fe1 C14 123.76(12) . .
C10 Fe1 C15 108.03(11) . .
C10 Fe1 C16 122.35(11) . .
C11 Fe1 C8 68.24(11) . .
C11 Fe1 C9 67.87(10) . .
C11 Fe1 C10 40.28(11) . .
C11 Fe1 C14 159.91(13) . .
C11 Fe1 C15 123.94(11) . .
C11 Fe1 C16 108.16(11) . .
C12 Fe1 C8 124.18(13) . .
C12 Fe1 C9 159.96(13) . .
C12 Fe1 C10 158.36(13) . .
C12 Fe1 C11 122.95(12) . .
C12 Fe1 C13 40.74(12) . .
C12 Fe1 C14 67.92(11) . .
C12 Fe1 C15 67.93(11) . .
C12 Fe1 C16 40.84(12) . .
C13 Fe1 C8 107.83(11) . .
C13 Fe1 C9 123.43(12) . .
C13 Fe1 C10 159.40(13) . .
C13 Fe1 C11 158.83(13) . .
C13 Fe1 C14 40.00(11) . .
C13 Fe1 C15 67.76(10) . .
C13 Fe1 C16 68.37(11) . .
C14 Fe1 C15 40.45(9) . .
C14 Fe1 C16 67.95(10) . .
C16 Fe1 C15 40.13(10) . .
Fe1 C7 H7 122.2(16) . .
C8 C7 Fe1 69.86(14) . .
C8 C7 H7 126.5(19) . .
C11 C7 Fe1 69.81(14) . .
C11 C7 H7 125.3(19) . .
C11 C7 C8 108.0(3) . .
Fe1 C8 H8 123.4(15) . .
C7 C8 Fe1 69.52(14) . .
C7 C8 H8 124.6(18) . .
C9 C8 Fe1 70.07(13) . .
C9 C8 C7 107.7(2) . .
C9 C8 H8 127.6(18) . .
Fe1 C9 H9 125.1(14) . .
C8 C9 Fe1 69.82(14) . .
C8 C9 H9 125.8(17) . .
C8 C9 C10 108.4(2) . .
C10 C9 Fe1 69.80(13) . .
C10 C9 H9 125.9(17) . .
Fe1 C10 H10 124.9(13) . .
C9 C10 Fe1 69.85(14) . .
C9 C10 H10 124.2(16) . .
C11 C10 Fe1 69.68(14) . .
C11 C10 C9 108.1(2) . .
C11 C10 H10 127.7(16) . .
Fe1 C11 H11 122.8(13) . .
C7 C11 Fe1 69.62(14) . .
C7 C11 H11 130.3(17) . .
C10 C11 Fe1 70.04(13) . .
C10 C11 C7 107.7(2) . .
C10 C11 H11 121.9(17) . .
Fe1 C12 H12 124.1(16) . .
C13 C12 Fe1 69.70(15) . .
C13 C12 H12 125.7(18) . .
C13 C12 C16 107.7(3) . .
C16 C12 Fe1 69.93(15) . .
C16 C12 H12 126.6(18) . .
Fe1 C13 H13 121.7(15) . .
C12 C13 Fe1 69.56(15) . .
C12 C13 H13 126.2(18) . .
C14 C13 Fe1 70.21(14) . .
C14 C13 C12 108.2(3) . .
C14 C13 H13 125.4(18) . .
Fe1 C14 H14 124.5(12) . .
C13 C14 Fe1 69.79(14) . .
C13 C14 H14 128.1(15) . .
C13 C14 C15 108.3(2) . .
C15 C14 Fe1 69.89(12) . .
C15 C14 H14 123.6(15) . .
Fe1 C15 H15 123.9(12) . .
C14 C15 Fe1 69.67(12) . .
C14 C15 H15 125.5(14) . .
C16 C15 Fe1 69.91(13) . .
C16 C15 C14 108.4(2) . .
C16 C15 H15 126.1(14) . .
Fe1 C16 H16 124.2(13) . .
C12 C16 Fe1 69.23(14) . .
C12 C16 H16 124.0(17) . .
C15 C16 Fe1 69.97(13) . .
C15 C16 C12 107.5(2) . .
C15 C16 H16 128.5(17) . .
F1 C1 C2 119.8(2) . .
F1 C1 C3 120.2(2) . 2_575
C2 C1 C3 119.9(2) . 2_575
F2 C2 C1 120.3(2) . .
F2 C2 C3 119.8(2) . .
C3 C2 C1 119.8(2) . .
F3 C3 C1 119.8(2) . 2_575
F3 C3 C2 120.0(2) . .
C2 C3 C1 120.3(2) . 2_575
F4 C4 C5 119.6(2) . .
F4 C4 C6 119.7(2) . 2_656
C5 C4 C6 120.7(2) . 2_656
F5 C5 C4 120.3(2) . .
F5 C5 C6 119.9(2) . .
C4 C5 C6 119.7(2) . .
F6 C6 C4 120.6(2) . 2_656
F6 C6 C5 119.8(2) . .
C4 C6 C5 119.6(2) 2_656 .
loop_
_geom_bond_atom_site_label_1
_geom_bond_atom_site_label_2
_geom_bond_distance
_geom_bond_site_symmetry_2
Fe1 C7 2.025(2) .
Fe1 C8 2.030(2) .
Fe1 C9 2.033(2) .
Fe1 C10 2.032(2) .
Fe1 C11 2.028(2) .
Fe1 C12 2.026(2) .
Fe1 C13 2.028(2) .
Fe1 C14 2.033(2) .
Fe1 C15 2.036(2) .
Fe1 C16 2.035(2) .
C7 H7 0.87(3) .
C7 C8 1.408(4) .
C7 C11 1.405(4) .
C8 H8 0.87(3) .
C8 C9 1.393(4) .
C9 H9 0.93(3) .
C9 C10 1.402(4) .
C10 H10 0.96(3) .
C10 C11 1.398(4) .
C11 H11 0.93(3) .
C12 H12 0.86(3) .
C12 C13 1.411(4) .
C12 C16 1.417(4) .
C13 H13 0.86(2) .
C13 C14 1.389(4) .
C14 H14 0.96(2) .
C14 C15 1.407(3) .
C15 H15 0.97(2) .
C15 C16 1.397(4) .
C16 H16 0.91(2) .
F1 C1 1.334(3) .
F2 C2 1.337(2) .
F3 C3 1.339(3) .
C1 C2 1.368(3) .
C1 C3 1.374(3) 2_575
C2 C3 1.362(3) .
C3 C1 1.374(3) 2_575
F4 C4 1.339(3) .
F5 C5 1.336(3) .
F6 C6 1.332(3) .
C4 C5 1.363(3) .
C4 C6 1.366(3) 2_656
C5 C6 1.366(3) .
C6 C4 1.366(3) 2_656
loop_
_geom_torsion_atom_site_label_1
_geom_torsion_atom_site_label_2
_geom_torsion_atom_site_label_3
_geom_torsion_atom_site_label_4
_geom_torsion
_geom_torsion_site_symmetry_1
_geom_torsion_site_symmetry_4
Fe1 C7 C8 C9 59.90(16) . .
Fe1 C7 C11 C10 -59.92(17) . .
Fe1 C8 C9 C10 59.36(16) . .
Fe1 C9 C10 C11 59.39(16) . .
Fe1 C10 C11 C7 59.65(17) . .
Fe1 C12 C13 C14 -59.83(17) . .
Fe1 C12 C16 C15 59.73(16) . .
Fe1 C13 C14 C15 -59.51(16) . .
Fe1 C14 C15 C16 -59.38(16) . .
Fe1 C15 C16 C12 -59.27(16) . .
C7 C8 C9 Fe1 -59.55(16) . .
C7 C8 C9 C10 -0.2(3) . .
C8 C7 C11 Fe1 59.64(16) . .
C8 C7 C11 C10 -0.3(3) . .
C8 C9 C10 Fe1 -59.37(16) . .
C8 C9 C10 C11 0.0(3) . .
C9 C10 C11 Fe1 -59.49(16) . .
C9 C10 C11 C7 0.2(3) . .
C11 C7 C8 Fe1 -59.60(17) . .
C11 C7 C8 C9 0.3(3) . .
C12 C13 C14 Fe1 59.43(17) . .
C12 C13 C14 C15 -0.1(3) . .
C13 C12 C16 Fe1 -59.75(17) . .
C13 C12 C16 C15 0.0(3) . .
C13 C14 C15 Fe1 59.45(16) . .
C13 C14 C15 C16 0.1(3) . .
C14 C15 C16 Fe1 59.23(15) . .
C14 C15 C16 C12 0.0(3) . .
C16 C12 C13 Fe1 59.89(17) . .
C16 C12 C13 C14 0.1(3) . .
F1 C1 C2 F2 0.2(3) . .
F1 C1 C2 C3 179.25(19) . .
F2 C2 C3 F3 -0.7(3) . .
F2 C2 C3 C1 179.36(19) . 2_575
C1 C2 C3 F3 -179.7(2) . .
C1 C2 C3 C1 0.3(4) . 2_575
C3 C1 C2 F2 -179.36(19) 2_575 .
C3 C1 C2 C3 -0.3(4) 2_575 .
F4 C4 C5 F5 1.0(3) . .
F4 C4 C5 C6 -179.7(2) . .
F5 C5 C6 F6 0.5(3) . .
F5 C5 C6 C4 179.62(19) . 2_656
C4 C5 C6 F6 -178.76(19) . .
C4 C5 C6 C4 0.3(4) . 2_656
C6 C4 C5 F5 -179.62(19) 2_656 .
C6 C4 C5 C6 -0.3(4) 2_656 .
loop_
_exptl_oxdiff_crystal_face_indexfrac_h
_exptl_oxdiff_crystal_face_indexfrac_k
_exptl_oxdiff_crystal_face_indexfrac_l
_exptl_oxdiff_crystal_face_x
_exptl_oxdiff_crystal_face_y
_exptl_oxdiff_crystal_face_z
-0.5570 -10.7160 6.6450 0.0795 -0.3797 -0.9537
-0.7783 7.6686 14.0008 0.9634 0.2680 -0.0092
0.7217 -7.5118 -14.1385 -0.9631 -0.2679 0.0265
-3.3409 11.1295 -2.7558 0.3417 0.0968 0.9348
1.1686 1.3708 16.1478 0.7969 0.2207 -0.5623
0.6441 10.2467 -6.7279 -0.1012 0.3703 0.9234
1.0119 -9.8995 7.4883 0.0594 -0.2204 -0.9736
-10.1031 -2.6621 -4.2610 0.2596 -0.9313 0.2556
-8.9300 -6.4971 -0.8877 0.2643 -0.9510 -0.1605
8.5841 7.0281 0.3096 -0.2606 0.9383 0.2273
10.1185 1.4682 5.0996 -0.2500 0.8957 -0.3677
4.2761 -5.0988 -12.2270 -0.9935 0.1123 0.0188
-3.7546 -9.3303 -13.2700 -0.7248 -0.6889 -0.0090
-0.1914 12.7878 2.2416 0.4702 0.4335 0.7688
4.0631 7.8453 14.4719 0.7292 0.6690 -0.1442
2.8155 10.9870 11.2615 0.7181 0.6597 0.2215
0.5902 11.8130 -3.1311 0.1275 0.4372 0.8903
7.4266 -1.6250 -8.1332 -0.8620 0.5068 0.0082
-1.8940 -8.7809 -14.0774 -0.8522 -0.5232 0.0092
