#------------------------------------------------------------------------------
#$Date: 2020-04-04 07:07:56 +0300 (Sat, 04 Apr 2020) $
#$Revision: 250055 $
#$URL: file:///home/coder/svn-repositories/cod/cif/4/13/44/4134456.cif $
#------------------------------------------------------------------------------
#
# This file is available in the Crystallography Open Database (COD),
# http://www.crystallography.net/
#
# All data on this site have been placed in the public domain by the
# contributors.
#
data_4134456
loop_
_publ_author_name
'Budiman, Yudha P.'
'Jayaraman, Arumugam'
'Friedrich, Alexandra'
'Kerner, Florian'
'Radius, Udo'
'Marder, Todd B.'
_publ_section_title
;
 Palladium-Catalyzed Homocoupling of Highly Fluorinated Arylboronates:
 Studies of the Influence of Strongly vs Weakly Coordinating Solvents on
 the Reductive Elimination Process.
;
_journal_issue                   13
_journal_name_full               'Journal of the American Chemical Society'
_journal_page_first              6036
_journal_page_last               6050
_journal_paper_doi               10.1021/jacs.9b11871
_journal_volume                  142
_journal_year                    2020
_chemical_absolute_configuration unk
_chemical_formula_moiety         'C16 H12 F4 N2 Pd'
_chemical_formula_sum            'C16 H12 F4 N2 Pd'
_chemical_formula_weight         414.68
_space_group_crystal_system      monoclinic
_space_group_IT_number           4
_space_group_name_Hall           'P 2yb'
_space_group_name_H-M_alt        'P 1 21 1'
_atom_sites_solution_hydrogens   geom
_atom_sites_solution_primary     dual
_atom_sites_solution_secondary   difmap
_audit_creation_date             2019-09-12
_audit_creation_method
;
Olex2 1.3-ac4
(compiled 2019.04.23 svn.r3594 for Rigaku Oxford Diffraction, GUI svn.r5739)
;
_cell_angle_alpha                90
_cell_angle_beta                 90.225(3)
_cell_angle_gamma                90
_cell_formula_units_Z            2
_cell_length_a                   9.1923(3)
_cell_length_b                   8.9775(2)
_cell_length_c                   9.5988(3)
_cell_measurement_reflns_used    11092
_cell_measurement_temperature    100.00(10)
_cell_measurement_theta_max      32.2210
_cell_measurement_theta_min      2.1070
_cell_volume                     792.12(4)
_computing_cell_refinement       'CrysAlisPro 1.171.40.53 (Rigaku OD, 2019)'
_computing_data_collection       'CrysAlisPro 1.171.40.53 (Rigaku OD, 2019)'
_computing_data_reduction        'CrysAlisPro 1.171.40.53 (Rigaku OD, 2019)'
_computing_molecular_graphics    'ShelXLe (Huebschle et all, 2011)'
_computing_publication_material  'Olex2 (Dolomanov et al., 2009)'
_computing_structure_refinement  'ShelXL (Sheldrick, 2015)'
_computing_structure_solution    'ShelXT (Sheldrick, 2015)'
_diffrn_ambient_environment      N~2~
_diffrn_ambient_temperature      100.00(10)
_diffrn_detector                 'Hybrid Pixel Array Detector'
_diffrn_detector_area_resol_mean 10.0000
_diffrn_detector_type            HyPix
_diffrn_measured_fraction_theta_full 1.000
_diffrn_measured_fraction_theta_max 1.000
_diffrn_measurement_details
;
List of Runs (angles in degrees, time in seconds):

  # Type    Start    End  Width  t~exp~   \w     \q     \k     \f   Frames
--------------------------------------------------------------------------
  1  \w      1.00  87.00   0.50    3.07    --   13.28  37.00 -60.00  172
  2  \w      1.00  87.00   0.50    3.07    --   13.28  37.00  90.00  172
  3  \w     41.00  87.00   0.50    3.07    --   13.28 178.00  30.00   92
  4  \w     41.00  87.00   0.50    3.07    --   13.28 178.00 120.00   92
  5  \w    -61.00   5.00   0.50    3.07    --   13.28 -19.00 -30.00  132
  6  \w    -23.00  47.00   0.50    3.07    --   13.28 -99.00 -90.00  140
  7  \w     30.00  81.00   0.50    3.07    --   13.28-158.00 -36.00  102
  8  \w      8.00  58.00   0.50    3.07    --   13.28-118.00 117.00  100
  9  \w    -58.00  36.00   0.50    3.07    --   13.28 -77.00   0.00  188
 10  \w    -61.00   5.00   0.50    3.07    --   13.28 -19.00-180.00  132
 11  \w    -61.00   5.00   0.50    3.07    --   13.28 -19.00-120.00  132
 12  \w    -61.00   5.00   0.50    3.07    --   13.28 -19.00   0.00  132
 13  \w    -61.00  -8.00   0.50    3.07    --   13.28 -19.00 120.00  106
 14  \w    -85.00   1.00   0.50    3.07    --  -13.59 -57.00-150.00  172
;
_diffrn_measurement_device       'four-circle diffractometer'
_diffrn_measurement_device_type  'XtaLAB Synergy, Dualflex, HyPix'
_diffrn_measurement_method       '\w scans'
_diffrn_orient_matrix_type
'CrysAlisPro convention (1999,Acta A55,543-557)'
_diffrn_orient_matrix_UB_11      0.0720446000
_diffrn_orient_matrix_UB_12      0.0214829000
_diffrn_orient_matrix_UB_13      -0.0169093000
_diffrn_orient_matrix_UB_21      -0.0254943000
_diffrn_orient_matrix_UB_22      0.0714514000
_diffrn_orient_matrix_UB_23      -0.0199565000
_diffrn_orient_matrix_UB_31      0.0105659000
_diffrn_orient_matrix_UB_32      0.0259574000
_diffrn_orient_matrix_UB_33      0.0691357000
_diffrn_radiation_monochromator  mirror
_diffrn_radiation_probe          x-ray
_diffrn_radiation_type           'Mo K\a'
_diffrn_radiation_wavelength     0.71073
_diffrn_reflns_av_R_equivalents  0.0437
_diffrn_reflns_av_unetI/netI     0.0333
_diffrn_reflns_Laue_measured_fraction_full 1.000
_diffrn_reflns_Laue_measured_fraction_max 1.000
_diffrn_reflns_limit_h_max       13
_diffrn_reflns_limit_h_min       -13
_diffrn_reflns_limit_k_max       12
_diffrn_reflns_limit_k_min       -12
_diffrn_reflns_limit_l_max       13
_diffrn_reflns_limit_l_min       -13
_diffrn_reflns_number            24242
_diffrn_reflns_point_group_measured_fraction_full 1.000
_diffrn_reflns_point_group_measured_fraction_max 1.000
_diffrn_reflns_theta_full        25.242
_diffrn_reflns_theta_max         30.507
_diffrn_reflns_theta_min         2.122
_diffrn_source                   'micro-focus sealed X-ray tube'
_diffrn_source_type              'PhotonJet (Mo) X-ray Source'
_exptl_absorpt_coefficient_mu    1.211
_exptl_absorpt_correction_T_max  1.000
_exptl_absorpt_correction_T_min  0.764
_exptl_absorpt_correction_type   gaussian
_exptl_absorpt_process_details
;
CrysAlisPro 1.171.40.53 (Rigaku Oxford Diffraction, 2019)
Numerical absorption correction based on gaussian integration over
			a multifaceted crystal model
Empirical absorption correction using spherical harmonics,
 implemented in SCALE3 ABSPACK scaling algorithm.
;
_exptl_crystal_colour            colourless
_exptl_crystal_colour_primary    colourless
_exptl_crystal_density_diffrn    1.739
_exptl_crystal_description       plate
_exptl_crystal_F_000             408
_exptl_crystal_size_max          0.146
_exptl_crystal_size_mid          0.109
_exptl_crystal_size_min          0.09
_refine_diff_density_max         1.065
_refine_diff_density_min         -0.529
_refine_diff_density_rms         0.078
_refine_ls_abs_structure_details
;
 Flack x determined using 2004 quotients [(I+)-(I-)]/[(I+)+(I-)]
 (Parsons, Flack and Wagner, Acta Cryst. B69 (2013) 249-259).
;
_refine_ls_abs_structure_Flack   -0.027(15)
_refine_ls_extinction_method     none
_refine_ls_goodness_of_fit_ref   1.044
_refine_ls_hydrogen_treatment    constr
_refine_ls_matrix_type           full
_refine_ls_number_parameters     210
_refine_ls_number_reflns         4817
_refine_ls_number_restraints     1
_refine_ls_restrained_S_all      1.044
_refine_ls_R_factor_all          0.0307
_refine_ls_R_factor_gt           0.0266
_refine_ls_shift/su_max          0.000
_refine_ls_shift/su_mean         0.000
_refine_ls_structure_factor_coef Fsqd
_refine_ls_weighting_details
'w=1/[\s^2^(Fo^2^)+(0.0246P)^2^+0.5040P] where P=(Fo^2^+2Fc^2^)/3'
_refine_ls_weighting_scheme      calc
_refine_ls_wR_factor_gt          0.0574
_refine_ls_wR_factor_ref         0.0588
_reflns_Friedel_coverage         0.890
_reflns_Friedel_fraction_full    1.000
_reflns_Friedel_fraction_max     1.000
_reflns_number_gt                4467
_reflns_number_total             4817
_reflns_threshold_expression     'I > 2\s(I)'
_cod_data_source_file            ja9b11871_si_007.cif
_cod_data_source_block           cmpd_3e
_cod_depositor_comments
'Adding full bibliography for 4134454--4134458.cif.'
_cod_original_cell_volume        792.13(4)
_cod_database_code               4134456
_shelx_shelxl_version_number     2018/3
_chemical_oxdiff_formula         C16H12F4N2Pd
_chemical_oxdiff_usercomment     YPB-424
_shelx_space_group_comment
;
The symmetry employed for this shelxl refinement is uniquely defined
by the following loop, which should always be used as a source of
symmetry information in preference to the above space-group names.
They are only intended as comments.
;
_shelx_estimated_absorpt_t_max   0.899
_shelx_estimated_absorpt_t_min   0.843
_diffrn_oxdiff_digest_frames
;
01bf66b678152e1c7cd7d0dc69267f417a018648e92
;
_diffrn_oxdiff_digest_hkl
;
01e11e893b711a8fc2e92c66c3873f74346a7f
;
_reflns_odcompleteness_completeness 100.00
_reflns_odcompleteness_iscentric 1
_reflns_odcompleteness_theta     30.44
_olex2_refinement_description
;
1. Fixed Uiso
 At 1.2 times of:
  All C(H) groups
 At 1.5 times of:
  All C(H,H,H) groups
2.a Aromatic/amide H refined with riding coordinates:
 C7(H7), C8(H8), C9(H9), C13(H13), C14(H14), C15(H15)
2.b Idealised Me refined as rotating group:
 C2(H2A,H2B,H2C), C4(H4A,H4B,H4C)
;
_shelx_res_file
;
TITL AF296_YuBu_Mo_ref2 in P2(1)
    AF296_YuBu_Mo_ref2.res
    created by SHELXL-2018/3 at 18:38:14 on 12-Sep-2019
REM P2(1) (#4 in standard setting)
CELL 0.71073   9.192265   8.977541   9.598817  90.0000  90.2250  90.0000
ZERR    2.00   0.000292   0.000220   0.000295   0.0000   0.0026   0.0000
LATT -1
SYMM -x, y+1/2,-z
SFAC C H F N Pd
UNIT 32 24 8 4 2
LIST 4
TEMP -173
SIZE 0.090 0.109 0.146
SHEL 999. 0.7
L.S. 10
PLAN  10
ACTA
CONF
WGHT    0.024600    0.504000
FVAR       1.22865
PD1   5    0.419786    0.417990    0.236164    11.00000    0.01654    0.01223 =
         0.01899    0.00095    0.00026   -0.00023
F1    3    0.477584    0.199725    0.485976    11.00000    0.04489    0.02538 =
         0.02708    0.00284   -0.01668   -0.00403
N1    4    0.628927    0.334058    0.204967    11.00000    0.02297    0.01810 =
         0.02567   -0.00112    0.00176   -0.00035
C1    1    0.745359    0.292625    0.208515    11.00000    0.02182    0.01694 =
         0.02399   -0.00335   -0.00084   -0.00068
F2    3    0.206946    0.204512    0.067796    11.00000    0.02685    0.02817 =
         0.02292    0.00159   -0.00644   -0.00361
N2    4    0.495372    0.631426    0.191509    11.00000    0.02248    0.01653 =
         0.02368    0.00131    0.00314   -0.00062
C2    1    0.895287    0.238557    0.217336    11.00000    0.02222    0.03022 =
         0.03858   -0.00902   -0.00238    0.00438
AFIX 137
H2A   2    0.949784    0.273047    0.135937    11.00000   -1.50000
H2B   2    0.895343    0.129422    0.219600    11.00000   -1.50000
H2C   2    0.941143    0.276990    0.302380    11.00000   -1.50000
AFIX   0
F3    3    0.179359    0.565855    0.047899    11.00000    0.03721    0.04329 =
         0.01773    0.00691    0.00401    0.01850
C3    1    0.539901    0.748131    0.175080    11.00000    0.01966    0.02035 =
         0.02005    0.00032    0.00356    0.00081
F4    3    0.239900    0.431859    0.519763    11.00000    0.03130    0.03596 =
         0.01667    0.00467   -0.00212    0.00059
C4    1    0.597732    0.898749    0.156314    11.00000    0.02903    0.01520 =
         0.02923   -0.00104    0.00856   -0.00417
AFIX 137
H4A   2    0.649772    0.904389    0.067560    11.00000   -1.50000
H4B   2    0.664752    0.922172    0.232885    11.00000   -1.50000
H4C   2    0.517376    0.970490    0.155939    11.00000   -1.50000
AFIX   0
C5    1    0.220744    0.492953    0.280815    11.00000    0.02103    0.01219 =
         0.01855   -0.00031   -0.00153   -0.00166
C6    1    0.254758    0.134802    0.187726    11.00000    0.01800    0.01916 =
         0.01931    0.00019    0.00055    0.00070
C7    1    0.208471   -0.010780    0.207484    11.00000    0.02108    0.01892 =
         0.03001   -0.00649    0.00264   -0.00418
AFIX  43
H7    2    0.146627   -0.058357    0.141620    11.00000   -1.20000
AFIX   0
C8    1    0.255313   -0.084698    0.326414    11.00000    0.02567    0.01287 =
         0.03228    0.00026    0.01151    0.00021
AFIX  43
H8    2    0.225613   -0.184451    0.343096    11.00000   -1.20000
AFIX   0
C9    1    0.345711   -0.012543    0.421017    11.00000    0.02866    0.01629 =
         0.02468    0.00491    0.00447    0.00341
AFIX  43
H9    2    0.378438   -0.061294    0.503201    11.00000   -1.20000
AFIX   0
C10   1    0.386824    0.132889    0.391946    11.00000    0.02392    0.01880 =
         0.01889   -0.00083   -0.00132    0.00121
C11   1    0.344490    0.213991    0.276112    11.00000    0.01731    0.01384 =
         0.02015   -0.00174    0.00095    0.00082
C12   1    0.130734    0.558197    0.182681    11.00000    0.02641    0.02127 =
         0.01656   -0.00065    0.00185    0.00320
C13   1   -0.005751    0.619022    0.207610    11.00000    0.02430    0.02786 =
         0.02495    0.00135   -0.00159    0.00719
AFIX  43
H13   2   -0.060811    0.662838    0.134358    11.00000   -1.20000
AFIX   0
C14   1   -0.059370    0.613969    0.342512    11.00000    0.02046    0.02533 =
         0.03152   -0.00526    0.00410    0.00383
AFIX  43
H14   2   -0.152429    0.654235    0.363021    11.00000   -1.20000
AFIX   0
C15   1    0.024301    0.549449    0.447416    11.00000    0.02616    0.02830 =
         0.02042   -0.00301    0.00365   -0.00465
AFIX  43
H15   2   -0.010611    0.544307    0.540314    11.00000   -1.20000
AFIX   0
C17   1    0.159716    0.492882    0.413220    11.00000    0.02271    0.01701 =
         0.02057    0.00153   -0.00210   -0.00437
HKLF 4




REM  AF296_YuBu_Mo_ref2 in P2(1)
REM wR2 = 0.058843, GooF = S = 1.04419, Restrained GooF = 1.04407 for all data
REM R1 = 0.026618 for 4467 Fo > 4sig(Fo) and 0.030707 for all 4817 data
REM 210 parameters refined using 1 restraints

END

WGHT      0.0246      0.5040

REM Highest difference peak  1.065,  deepest hole -0.529,  1-sigma level  0.078
Q1    1   0.7409  0.4186  0.2902  11.00000  0.05    1.06
Q2    1   0.4501  0.4186  0.3191  11.00000  0.05    0.38
Q3    1   0.3775  0.4255  0.1555  11.00000  0.05    0.35
Q4    1   0.3232  0.5077  0.3358  11.00000  0.05    0.34
Q5    1   0.3744  0.4228  0.3978  11.00000  0.05    0.34
Q6    1   0.3202  0.3396  0.3344  11.00000  0.05    0.33
Q7    1   0.4982  0.2108  0.1995  11.00000  0.05    0.33
Q8    1   0.2053  0.5138  0.3532  11.00000  0.05    0.32
Q9    1   0.4339  0.3322  0.3836  11.00000  0.05    0.32
Q10   1   0.3918  0.4869  0.0808  11.00000  0.05    0.32
;
_shelx_res_checksum              33682
_shelx_hkl_file
;
   0 -13   0 5.16861 36.9968  11
   0 -13   1 578.295 72.8569  11
   0 -13  -1 328.358 59.0611  11
   0 -13  -2 9.19664 29.3567  11
   0 -12   0 816.254 89.7213   2
   0 -12   0 874.135 82.8482  11
   0 -12  -1-11.5539 38.9309   2
   0 -12   1-11.7467 36.4089   2
   0 -12   1 10.1949 28.0485  11
   0 -12  -1-13.7982 30.1903  11
   0 -12  -2 934.504 80.9943  11
   0 -12  -2 1016.68 96.2926   2
   0 -12   2 967.623 90.3944  11
   0 -12  -3 16.8816 35.4175   2
   0 -12   3 77.3017 45.8318   2
   0 -12   3 36.0745 28.4786   3
   0 -12  -3 28.0302 29.6358  11
   0 -12   3 38.5737 35.6886  11
   0 -12   4 563.868 75.9112   6
   0 -12   4 683.712 82.5055   2
   0 -12   4 594.681 59.0947   3
   0 -12  -4 552.628 74.5380   2
   0 -12   4 779.031 83.2087  11
   0 -12   5 122.297 49.6445   6
   0 -12  -5 188.511 50.5089   2
   0 -12   5 224.186 53.8077   2
   0 -12  -6 448.185 65.2508   2
   0 -11   0-10.6852 31.5778   2
   0 -11   0-4.50533 26.6292  11
   0 -11   1 1061.03 94.5970   2
   0 -11  -1 1044.77 94.1196   2
   0 -11   1 1073.79 89.7621  11
   0 -11  -1 957.770 82.5137  11
   0 -11  -2 10.4993 32.0466   2
   0 -11   2-39.5430 34.9775  11
   0 -11  -2 23.9355 27.8996  11
   0 -11   3 1142.54 96.6641  11
   0 -11  -3 1216.90 85.5815  11
   0 -11   3 1108.22 75.4635   3
   0 -11   3 1259.94 105.468   2
   0 -11  -3 1258.49 100.847   2
   0 -11   4 165.114 46.1005  11
   0 -11  -4 144.692 33.8373  11
   0 -11   4 161.025 47.4549   6
   0 -11  -4 157.753 45.7356   2
   0 -11   4 131.416 44.3422   2
   0 -11   4 105.652 32.5807   3
   0 -11   5 686.526 79.6990  11
   0 -11   5 723.291 81.3149   6
   0 -11  -5 725.466 78.0343   2
   0 -11   5 820.804 67.3027   3
   0 -11   5 694.080 79.9812   2
   0 -11   6 352.557 62.2897   6
   0 -11  -6 241.233 53.4989   2
   0 -11   6 248.813 54.5259   2
   0 -11   6 276.300 44.1622   3
   0 -11   7 911.039 93.1851   6
   0 -11   7 1066.05 96.6888  11
   0 -11   7 981.217 75.7287   3
   0 -11  -7 1055.71 90.3382   2
   0 -10   0 2846.43 147.975   2
   0 -10   0 2795.98 138.234  11
   0 -10  -1 52.9051 34.0331   2
   0 -10   1-4.87910 29.3146   2
   0 -10  -1-7.76890 29.3420  11
   0 -10   1-8.67302 30.6858  11
   0 -10   2 1786.98 90.1027   9
   0 -10  -2 2012.44 121.354   2
   0 -10   2 1744.46 110.576  11
   0 -10  -2 1849.76 103.880  11
   0 -10   3 123.384 39.2048   2
   0 -10   3 92.1377 28.0365   3
   0 -10  -3 100.676 29.9519  11
   0 -10   3 99.4585 37.9731  11
   0 -10   3 90.7696 26.5448   9
   0 -10  -3 84.5935 39.3511   2
   0 -10  -4 1202.84 77.7785  11
   0 -10   4 1302.91 98.9119  11
   0 -10   4 1108.09 92.9241   6
   0 -10   4 1272.01 79.2885   3
   0 -10  -4 1211.61 94.7555   2
   0 -10   4 1275.87 98.4870   2
   0 -10  -5 88.6377 27.0109  11
   0 -10   5 127.200 40.0601  11
   0 -10   5 141.330 44.7030   6
   0 -10  -5 86.1179 37.6632   2
   0 -10   5 112.995 33.5514   3
   0 -10   5 154.652 42.8125   2
   0 -10   6 518.919 69.4055   6
   0 -10   6 683.747 61.6239   3
   0 -10   6 515.216 70.3446   2
   0 -10  -6 484.598 61.3932   2
   0 -10   7 520.182 68.3249  11
   0 -10   7 470.793 67.9073   6
   0 -10   7 567.149 58.8615   3
   0 -10  -7 464.924 60.8647   2
   0 -10   8 404.673 52.4890   3
   0 -10  -8 340.422 52.6094   2
   0 -10   8 455.083 66.0882  11
   0 -10   8 512.616 72.7841   6
   0 -10   9 310.013 49.9056   3
   0 -10   9 350.783 62.9243  11
   0  -9   0-12.9726 26.8062   2
   0  -9   0-3.70959 24.9996  11
   0  -9   1 1969.27 93.9909   9
   0  -9  -1 2118.44 118.340   2
   0  -9   1 2375.02 125.358   2
   0  -9   1 2177.61 115.237  11
   0  -9  -1 2002.28 107.068  11
   0  -9   2 251.737 34.3999   9
   0  -9  -2 240.707 44.5668   2
   0  -9  -2 266.978 39.8685  11
   0  -9   2 213.922 41.3439  11
   0  -9   3 1764.55 108.165  11
   0  -9  -3 1806.74 93.7209  11
   0  -9   3 1627.88 76.2884   9
   0  -9  -3 1890.39 109.641   2
   0  -9   3 1925.32 91.8635   3
   0  -9   3 1867.39 111.747   2
   0  -9   4 362.129 53.4480   6
   0  -9  -4 337.484 40.9821  11
   0  -9   4 322.869 50.7178  11
   0  -9   4 338.290 51.0359   2
   0  -9   4 363.857 43.5695   3
   0  -9  -4 324.827 49.6848   2
   0  -9   5 1572.76 103.707   6
   0  -9  -5 1458.31 75.8817  11
   0  -9   5 1641.70 106.514  11
   0  -9   5 1183.82 46.6140   9
   0  -9  -5 1366.81 93.2677   2
   0  -9   5 1584.92 103.478   2
   0  -9   5 1696.22 88.6393   3
   0  -9  -6 283.643 32.6872  11
   0  -9   6 362.010 54.6592   2
   0  -9   6 349.859 46.8730   3
   0  -9  -6 319.599 48.7590   2
   0  -9   6 311.872 55.6694   6
   0  -9   7 553.819 68.9789   6
   0  -9   7 645.167 69.2096   2
   0  -9  -7 483.044 56.4750   2
   0  -9   7 639.329 61.1054   3
   0  -9   7 464.615 64.2522  11
   0  -9   8 475.615 64.2729  11
   0  -9   8 442.425 73.4643   7
   0  -9   8 531.183 70.4843   6
   0  -9  -8 495.732 55.9160   2
   0  -9   8 491.254 57.4066   3
   0  -9   9 237.707 50.5750  11
   0  -9   9 269.099 63.7572   7
   0  -9   9 294.518 57.4036   6
   0  -9   9 256.794 47.3897   3
   0  -9  10 319.151 61.0233  11
   0  -8   0 1727.07 84.6455   9
   0  -8   0 1824.24 97.0076  11
   0  -8   0 1863.32 103.579   2
   0  -8   0 1694.13 86.8663   1
   0  -8   1 4.23995 20.5906   9
   0  -8  -1-15.5775 25.3711   9
   0  -8   1 20.8624 22.5140  11
   0  -8  -1 6.15176 20.4624  11
   0  -8  -1 9.06899 17.6445   1
   0  -8   1 26.8885 23.8129   2
   0  -8  -1 37.4220 24.2306   2
   0  -8  -2 1812.12 91.4016  11
   0  -8   2 1776.97 99.2831  11
   0  -8  -2 1745.29 99.6462   2
   0  -8   2 1695.40 76.3995   9
   0  -8  -2 1652.16 78.4065   1
   0  -8  -3 246.247 35.0418  11
   0  -8   3 173.598 37.9775  11
   0  -8   3 257.106 42.7049   2
   0  -8  -3 172.136 37.1507   2
   0  -8  -3 161.240 25.4693   1
   0  -8  -4 1644.91 69.7758   1
   0  -8   4 1855.50 106.516   6
   0  -8   4 1971.88 109.943  11
   0  -8  -4 1945.63 87.8872  11
   0  -8   4 1852.00 68.8188   9
   0  -8   4 2036.83 94.4474   3
   0  -8  -4 1872.78 103.232   2
   0  -8   4 1957.25 108.412   2
   0  -8   5 492.521 59.4571   6
   0  -8  -5 360.512 35.8016  11
   0  -8   5 499.898 49.6060   3
   0  -8   5 479.718 55.3608   2
   0  -8  -5 443.112 52.2140   2
   0  -8  -6 425.029 36.1385  11
   0  -8   6 561.837 63.0550   6
   0  -8   6 593.953 63.9214  11
   0  -8   6 477.607 51.4140   3
   0  -8  -6 466.140 52.6342   2
   0  -8   6 504.562 58.5027   2
   0  -8   7 441.898 57.8268  11
   0  -8  -7 421.045 50.4230   2
   0  -8   7 477.483 53.0426   3
   0  -8   7 511.801 59.1524   2
   0  -8   7 496.606 62.3772   6
   0  -8   8 661.070 72.0718  11
   0  -8   8 612.651 77.0283   7
   0  -8   8 682.789 74.3798   6
   0  -8   8 739.219 66.4763   3
   0  -8  -8 580.564 58.4654   2
   0  -8   9 479.063 68.9197   6
   0  -8   9 398.062 61.2364  11
   0  -8   9 370.125 68.8329   7
   0  -8   9 533.688 59.7114   3
   0  -8  10 555.528 75.1084   6
   0  -8  10 527.466 76.7560   7
   0  -8  10 610.682 70.1603  11
   0  -8  11 352.927 60.3043  11
   0  -7   0 37.0889 21.1064  11
   0  -7   0-7.89882 23.6009  12
   0  -7   0 10.5287 19.5473   9
   0  -7   0 6.53881 20.2670   2
   0  -7   0-11.2442 17.3304   1
   0  -7   1 1830.61 79.2250   9
   0  -7  -1 1916.46 91.4467  11
   0  -7   1 1940.44 96.6422  11
   0  -7  -1 1681.01 83.5245   9
   0  -7   1 1743.64 90.3899  12
   0  -7  -1 1744.60 89.7224  12
   0  -7   1 1846.31 98.7104   2
   0  -7  -1 1874.05 97.9795   2
   0  -7  -1 1912.10 82.3379   1
   0  -7   1 1939.32 90.2679   1
   0  -7  -2 176.427 28.8720  11
   0  -7   2 219.409 36.8947  11
   0  -7  -2 173.199 32.6505  12
   0  -7  -2 133.137 30.6460   9
   0  -7   2 153.105 30.8868   1
   0  -7  -2 155.854 24.3473   1
   0  -7  -2 166.111 32.9392   2
   0  -7   3 2061.30 104.403   2
   0  -7  -3 1832.94 98.2184   2
   0  -7   3 2100.83 97.7097  12
   0  -7  -3 1845.70 91.5268  12
   0  -7  -3 2021.25 96.6028   9
   0  -7   3 2235.99 107.403  11
   0  -7  -3 1813.98 86.1869  11
   0  -7   3 1965.27 73.6725   9
   0  -7  -3 1852.96 75.1841   1
   0  -7  -4 694.516 38.4452   1
   0  -7   4 888.870 68.1887   6
   0  -7   4 721.032 57.4045  12
   0  -7  -4 738.054 57.0742  12
   0  -7   4 756.199 59.5428   5
   0  -7   4 800.287 65.1598  11
   0  -7  -4 764.154 48.7765  11
   0  -7   4 765.346 36.2697   9
   0  -7  -4 765.358 60.6565   2
   0  -7   4 765.542 62.5187   2
   0  -7   4 871.162 56.8946   3
   0  -7   5 1863.83 102.837   6
   0  -7  -5 1745.96 85.6485  12
   0  -7  -5 1716.05 86.4254   5
   0  -7  -5 1627.02 70.2172  11
   0  -7   5 1912.56 89.6996   3
   0  -7   5 1951.98 100.378   2
   0  -7  -5 1711.90 90.8853   2
   0  -7  -6 896.952 46.6645  11
   0  -7  -6 1012.07 66.2677  12
   0  -7  -6 946.267 65.7111   5
   0  -7   6 1147.20 80.0413  11
   0  -7   6 1223.15 79.7871   2
   0  -7  -6 965.817 67.4547   2
   0  -7   6 1132.35 72.0081   3
   0  -7   6 1139.47 82.8961   6
   0  -7  -7 1145.62 68.9274  12
   0  -7   7 1401.46 89.8748  11
   0  -7  -7 1091.74 68.9383   5
   0  -7   7 1307.46 80.0153   3
   0  -7  -7 1202.63 73.3489   2
   0  -7   7 1171.16 88.1775   6
   0  -7   8 274.042 54.8582   7
   0  -7   8 280.154 45.3941  11
   0  -7   8 291.179 51.9273   6
   0  -7   8 286.378 44.7774   3
   0  -7  -8 274.979 38.3302   2
   0  -7   9 446.221 66.8155   7
   0  -7   9 392.767 59.9110   6
   0  -7   9 416.485 55.3961  11
   0  -7   9 385.589 52.9176   3
   0  -7  -9 344.017 40.4931   2
   0  -7  10 778.062 75.4158  11
   0  -7  10 631.278 82.2840   7
   0  -7  10 859.350 85.5326   6
   0  -7  11 114.541 39.3490  11
   0  -7  11 133.768 56.5238   7
   0  -7  11 203.276 54.1184   6
   0  -7  12 288.554 50.6233  11
   0  -6   0 4801.53 165.288  12
   0  -6   0 5121.84 160.904   1
   0  -6   0 4773.93 167.461  11
   0  -6   0 4866.00 145.800  14
   0  -6   0 4878.18 174.222   2
   0  -6  -1 266.411 21.4414  14
   0  -6   1 268.736 27.6721  14
   0  -6   1 282.421 33.3440  12
   0  -6  -1 284.958 33.9355  12
   0  -6  -1 258.441 27.3742   1
   0  -6   1 271.947 31.9793   1
   0  -6   1 313.131 35.0003  11
   0  -6  -1 262.233 30.1555  11
   0  -6  -1 264.745 31.1475   9
   0  -6   1 324.908 36.9898   2
   0  -6  -1 291.554 35.5336   2
   0  -6  -2 3758.20 134.609  12
   0  -6  -2 3702.81 119.483   1
   0  -6   2 3824.59 139.233   1
   0  -6   2 3922.00 145.930  11
   0  -6  -2 3830.53 132.810  11
   0  -6  -2 3737.06 135.258   9
   0  -6   2 3751.70 118.262   9
   0  -6  -2 3433.23 102.857  14
   0  -6   2 3732.89 127.037  14
   0  -6  -2 3851.21 143.039   2
   0  -6   3 278.175 34.9367  12
   0  -6  -3 256.441 34.1733  12
   0  -6   3 364.529 40.5195   2
   0  -6   3 314.622 32.3789   3
   0  -6  -3 275.107 28.7539  11
   0  -6   3 278.527 36.3504  11
   0  -6   3 298.836 23.8691   9
   0  -6  -3 228.035 22.6521   1
   0  -6  -3 249.843 34.3312   2
   0  -6  -4 2322.14 81.3413   1
   0  -6   4 2683.90 119.311   6
   0  -6   4 2919.89 112.776  12
   0  -6  -4 2740.62 107.609  12
   0  -6  -4 2605.45 95.8098  11
   0  -6   4 2630.37 78.0563   9
   0  -6   4 2875.26 109.225   3
   0  -6   4 2959.98 121.422   2
   0  -6  -4 2673.57 112.481   2
   0  -6   5 521.863 53.9577   6
   0  -6   5 561.234 47.2427  12
   0  -6  -5 548.504 45.0435  12
   0  -6  -5 462.265 44.4271   5
   0  -6   5 574.846 49.0149   5
   0  -6  -5 510.971 47.0951   4
   0  -6  -5 497.914 32.9191  11
   0  -6   5 610.692 48.5330   3
   0  -6  -5 605.037 48.7013   2
   0  -6   5 648.768 53.3540   2
   0  -6  -5 432.109 24.3449   1
   0  -6   6 634.752 59.2461   6
   0  -6  -6 472.193 46.2149   6
   0  -6  -6 571.427 44.1870  12
   0  -6   6 524.164 45.4228  12
   0  -6  -6 441.746 26.3718  11
   0  -6  -6 540.816 44.8272   5
   0  -6  -6 571.313 51.1600   4
   0  -6   6 539.717 46.9540   5
   0  -6   6 533.650 53.2962  11
   0  -6   6 658.238 52.7691   3
   0  -6   6 587.065 51.6476   2
   0  -6  -6 592.871 48.5529   2
   0  -6   7 823.021 58.7171  12
   0  -6  -7 837.519 54.6371  12
   0  -6  -7 728.837 53.4193   5
   0  -6   7 835.037 60.1621   5
   0  -6   7 800.573 66.9484  11
   0  -6  -7 863.038 58.0162   2
   0  -6   7 871.077 66.4793   3
   0  -6   7 979.377 77.5284   7
   0  -6   7 1065.92 79.1628   6
   0  -6   8 774.452 55.4707  12
   0  -6  -8 699.759 47.9490  12
   0  -6   8 752.859 55.7325   5
   0  -6   8 782.240 66.9121  11
   0  -6   8 852.164 73.6069   6
   0  -6   8 940.614 79.8375   7
   0  -6  -8 730.148 52.1965   2
   0  -6   8 887.423 69.1030   3
   0  -6   9 506.176 46.5870  12
   0  -6   9 494.923 57.0249  11
   0  -6   9 538.663 68.3898   7
   0  -6   9 551.424 66.2468   6
   0  -6  -9 407.776 40.3435   2
   0  -6   9 499.992 59.7826   3
   0  -6   9 477.805 45.9557   5
   0  -6  10 987.690 89.5687   6
   0  -6  10 972.354 90.9615   7
   0  -6  10 968.748 78.5355  11
   0  -6  11 498.052 58.7112  11
   0  -6  11 554.716 75.6267   7
   0  -6  12 157.153 40.9146  11
   0  -6  12 271.344 65.5726   7
   0  -5   0 3.24183 12.0060  14
   0  -5   0-2.00493 13.1606  11
   0  -5   0 12.4536 13.7505   9
   0  -5   0-2.26815 15.6724   2
   0  -5   0 9.69173 12.9273   1
   0  -5  -1 4582.27 149.678  12
   0  -5   1 4703.88 140.248  14
   0  -5  -1 4414.92 127.476  14
   0  -5   1 4504.30 138.310   9
   0  -5   1 4692.65 155.519  11
   0  -5  -1 4409.54 147.552  11
   0  -5   1 4662.79 150.583   1
   0  -5  -1 4549.45 139.515   1
   0  -5  -1 4624.75 156.155   2
   0  -5   1 4514.53 156.753   2
   0  -5  -2 341.724 32.8682  12
   0  -5   2 389.080 32.3415  14
   0  -5  -2 350.100 18.9799  14
   0  -5  -2 382.805 31.1771  11
   0  -5   2 382.930 25.9671   9
   0  -5   2 424.039 37.5161  11
   0  -5  -2 311.749 32.8341   2
   0  -5   2 367.134 35.6961   1
   0  -5  -2 372.189 25.5109   1
   0  -5   3 4834.19 161.478   1
   0  -5  -3 4281.98 128.404   1
   0  -5   3 4484.65 148.901  14
   0  -5  -3 4330.07 146.501  12
   0  -5   3 4659.83 151.385  12
   0  -5   3 4757.83 161.512  11
   0  -5  -3 4577.36 141.221  11
   0  -5   3 4401.37 125.769   9
   0  -5   3 4654.01 146.959   3
   0  -5   3 4871.99 160.771   2
   0  -5  -3 4483.89 154.093   2
   0  -5   4 120.633 22.9257   3
   0  -5   4 111.796 25.0798   2
   0  -5  -4 92.2372 22.5552   4
   0  -5   4 69.7804 20.9330  12
   0  -5  -4 71.8293 19.8397  12
   0  -5   4 70.0967 23.7006   6
   0  -5  -4 75.0736 14.3620  11
   0  -5   4 63.6252 8.22590   9
   0  -5  -4 116.491 25.4517   9
   0  -5  -4 61.8383 11.1920   1
   0  -5  -4 77.6381 19.6882   2
   0  -5  -5 2844.34 91.2261   1
   0  -5  -5 2919.01 85.8702  14
   0  -5  -5 3213.41 86.0974  14
   0  -5   5 4009.27 127.610  12
   0  -5  -5 3515.83 100.517  11
   0  -5  -5 3645.46 118.990  12
   0  -5  -5 3788.03 129.951   4
   0  -5   5 3990.44 127.213   5
   0  -5  -5 3749.49 135.473   9
   0  -5   5 3994.68 142.722  11
   0  -5  -5 3680.76 125.652   2
   0  -5   5 4043.10 136.207   2
   0  -5   5 3809.39 132.080   3
   0  -5   5 4146.35 145.966   6
   0  -5  -6 642.777 30.2381   1
   0  -5  -6 969.089 34.2836  14
   0  -5  -6 781.890 29.5344  11
   0  -5  -6 1004.38 53.1469  12
   0  -5   6 1028.47 57.6644  12
   0  -5  -6 870.015 61.2211   4
   0  -5   6 1013.63 58.2407   5
   0  -5  -6 936.179 50.9997   5
   0  -5   6 1059.03 67.5372  11
   0  -5  -6 958.075 66.4614   9
   0  -5   6 1094.95 66.0601   3
   0  -5  -6 963.430 55.0906   2
   0  -5   6 1086.66 63.4763   2
   0  -5  -6 916.116 59.1267   6
   0  -5   6 1161.07 73.8642   6
   0  -5  -7 1882.46 57.4281  14
   0  -5   7 1982.62 80.9780  12
   0  -5  -7 1976.60 72.9258  12
   0  -5  -7 2076.50 96.0454   4
   0  -5   7 2043.00 81.1516   5
   0  -5  -7 1918.01 70.5931   5
   0  -5   7 2101.28 98.5100  11
   0  -5  -7 1842.55 75.8280   2
   0  -5   7 2043.87 97.2485   3
   0  -5   7 2074.64 104.309   7
   0  -5   7 2143.42 105.318   6
   0  -5  -7 1909.96 87.4232   6
   0  -5  -8 1132.17 44.5693  14
   0  -5   8 1076.82 59.3849  12
   0  -5  -8 1004.03 49.0810  12
   0  -5  -8 1021.70 46.5509   5
   0  -5   8 1107.73 58.8889   5
   0  -5   8 1222.41 75.4070  11
   0  -5  -8 1138.84 55.3861   2
   0  -5   8 1262.24 78.6930   3
   0  -5   8 1241.52 83.6847   6
   0  -5   8 1088.45 80.9482   7
   0  -5  -9 545.693 35.4477  14
   0  -5   9 628.157 58.0448  11
   0  -5  -9 459.052 35.8576   2
   0  -5   9 693.060 70.3682   7
   0  -5   9 612.412 65.3415   6
   0  -5   9 501.407 42.5807   5
   0  -5  10 502.508 42.8733   5
   0  -5  10 563.585 69.7933   7
   0  -5  10 619.445 59.6528  11
   0  -5  11 428.311 52.2183  11
   0  -5  11 337.010 59.5610   7
   0  -5  12 417.908 51.8323  11
   0  -5  12 437.739 71.0890   7
   0  -4   0 10961.9 287.714  14
   0  -4   0 11323.9 297.280   9
   0  -4   0 11129.2 297.548   1
   0  -4   0 11275.2 309.189   2
   0  -4   1 735.738 38.4722  14
   0  -4  -1 665.181 29.5542  14
   0  -4   1 780.152 44.6062  10
   0  -4   1 712.019 36.2632   9
   0  -4   1 738.334 44.8050  11
   0  -4  -1 713.805 42.7537  12
   0  -4  -1 701.028 35.8187   1
   0  -4   1 738.442 43.2689   1
   0  -4   1 684.281 44.3118   2
   0  -4  -1 701.127 44.6584   2
   0  -4   2 4555.63 138.017  14
   0  -4  -2 4132.62 113.586  14
   0  -4  -2 4403.56 138.077  12
   0  -4   2 4462.70 122.969   9
   0  -4   2 4632.57 147.641  11
   0  -4   2 4615.61 145.801  10
   0  -4  -2 4376.41 132.670  11
   0  -4  -2 4371.07 142.765   2
   0  -4   2 4713.68 147.262   1
   0  -4  -2 4322.90 124.505   1
   0  -4  -3 727.932 44.1679   2
   0  -4   3 779.563 47.1862   2
   0  -4   3 729.223 42.3312   3
   0  -4  -3 657.265 29.6921   1
   0  -4   3 668.313 43.6632  14
   0  -4  -3 665.927 23.3345  14
   0  -4  -3 676.843 41.2492  12
   0  -4  -3 712.411 42.6796   4
   0  -4   3 722.409 47.8851  10
   0  -4  -3 746.959 36.3436  11
   0  -4   3 741.400 27.4853   9
   0  -4   3 751.219 48.8560   6
   0  -4   4 4301.91 147.169   6
   0  -4  -4 3948.09 126.690  12
   0  -4  -4 3976.60 114.654  11
   0  -4  -4 4100.38 140.710   9
   0  -4  -4 4150.38 133.226   2
   0  -4   4 4129.14 136.002   3
   0  -4   4 4386.33 140.055   2
   0  -4  -4 3684.19 109.140   1
   0  -4   5 586.280 41.9830   2
   0  -4   5 533.658 42.8875   3
   0  -4  -5 563.475 37.3713   2
   0  -4  -5 491.604 24.2121   1
   0  -4  -5 518.808 25.4858  14
   0  -4  -5 527.917 35.2796  12
   0  -4  -5 503.505 22.1399  11
   0  -4  -5 525.948 43.8062   4
   0  -4  -5 579.731 46.0799   9
   0  -4   5 600.907 46.1091  11
   0  -4  -5 517.215 44.8655   8
   0  -4   5 489.241 44.8344   6
   0  -4  -5 570.758 41.4850   6
   0  -4  -6 1243.03 57.6594   2
   0  -4   6 1419.75 74.4188   3
   0  -4  -6 1009.29 43.0679   1
   0  -4  -6 1230.50 48.8753  14
   0  -4  -6 1129.10 52.8995  12
   0  -4  -6 1162.34 52.2901   5
   0  -4  -6 1134.74 67.5889   4
   0  -4   6 1271.65 70.6433  11
   0  -4  -6 1291.29 71.7570   9
   0  -4  -6 1229.35 71.7589   8
   0  -4   6 1391.13 78.2971   6
   0  -4  -6 1234.46 65.4120   6
   0  -4   6 1444.04 81.1952   7
   0  -4  -6 1174.13 69.3239   7
   0  -4  -7 1320.37 55.5936  14
   0  -4  -7 1256.96 54.0801  12
   0  -4  -7 1317.59 52.2258   5
   0  -4  -7 1274.50 76.2392   4
   0  -4  -7 1336.98 77.2187   9
   0  -4   7 1407.99 76.0477  11
   0  -4   7 1406.90 79.6436   3
   0  -4  -7 1319.93 58.6495   2
   0  -4  -7 1355.02 72.3298   6
   0  -4   7 1481.86 85.1907   6
   0  -4   7 1498.99 86.5192   7
   0  -4   8 2020.56 94.7035  11
   0  -4  -8 1800.18 64.5468  12
   0  -4  -8 1934.25 74.8378  14
   0  -4  -8 1841.33 59.3796   5
   0  -4  -8 1717.94 68.7305   2
   0  -4   8 2174.87 105.462   3
   0  -4   8 2118.26 109.160   7
   0  -4   8 1930.69 104.027   6
   0  -4  -9 238.004 25.5868   1
   0  -4  -9 411.460 36.6103  14
   0  -4  -9 299.699 20.5143  12
   0  -4   9 425.523 45.4160  11
   0  -4  -9 291.524 25.1655   2
   0  -4   9 444.678 59.5715   7
   0  -4 -10 259.132 32.2831  14
   0  -4  10 279.774 26.1921   5
   0  -4  10 313.390 42.8809  11
   0  -4 -10 174.509 23.3677   1
   0  -4  10 319.908 56.3740   7
   0  -4 -11 714.448 52.7850  14
   0  -4  11 677.505 77.1220   7
   0  -4  11 688.562 60.8267  11
   0  -4  12 388.122 66.9991   7
   0  -4  12 365.429 60.7220   6
   0  -4  12 363.727 45.7628  11
   0  -4  13 686.568 86.1279   7
   0  -4  13 658.125 80.5716   6
   0  -3   0 2.05069 9.95808  10
   0  -3   0-2.67627 7.53784  14
   0  -3   0 2.65863 9.18508   2
   0  -3   0-2.91006 8.37402   1
   0  -3  -1 397.551 17.9097  14
   0  -3   1 432.242 25.6263  14
   0  -3  -1 405.892 27.3497  12
   0  -3   1 407.501 28.0833  12
   0  -3   1 417.922 28.7589  10
   0  -3   1 404.833 22.4985   9
   0  -3  -1 396.961 28.2189   2
   0  -3   1 407.904 29.0766   2
   0  -3   1 395.622 27.7922   1
   0  -3  -1 394.568 22.4044   1
   0  -3   2 211.691 21.2133  14
   0  -3  -2 191.017 10.7063  14
   0  -3  -2 202.369 20.5431  12
   0  -3  -2 192.165 20.7206   4
   0  -3   2 234.521 23.7585  10
   0  -3   2 182.755 21.1071  11
   0  -3   2 215.449 13.5215   9
   0  -3  -2 194.584 21.3609   2
   0  -3  -2 204.555 14.0411   1
   0  -3  -3 7664.58 204.487   1
   0  -3   3 8018.11 227.863  14
   0  -3   3 8345.38 222.286  12
   0  -3  -3 7733.63 217.424  12
   0  -3  -3 7824.54 224.906   4
   0  -3   3 8136.74 231.708  10
   0  -3   3 8173.62 224.611   3
   0  -3   3 8696.82 228.031   2
   0  -3  -3 8096.09 222.217   2
   0  -3   3 8411.87 233.685   6
   0  -3   4 1471.35 60.2324  12
   0  -3  -4 1419.37 56.1094  12
   0  -3  -4 1385.61 65.5809   4
   0  -3  -4 1330.70 43.9593  11
   0  -3  -4 1514.78 68.9211   9
   0  -3   4 1509.96 67.1145   3
   0  -3   4 1645.83 65.8850   2
   0  -3  -4 1525.59 60.0813   2
   0  -3  -4 1458.27 63.1725   6
   0  -3   4 1516.36 71.6338   6
   0  -3  -5 1377.97 53.5291  14
   0  -3   5 1466.02 60.3095  12
   0  -3  -5 1328.09 53.9040  12
   0  -3  -5 1318.97 52.4170   5
   0  -3  -5 1463.79 70.2091   4
   0  -3   5 1452.21 59.8523   5
   0  -3  -5 1418.49 69.2350   9
   0  -3   5 1510.29 70.0294  11
   0  -3   5 1395.68 73.5857   6
   0  -3  -5 1489.44 66.9563   6
   0  -3   5 1554.07 76.7666   7
   0  -3   5 1416.69 70.0342   3
   0  -3   5 1534.75 64.6108   2
   0  -3  -5 1470.17 58.5503   2
   0  -3   6 821.560 55.0311   3
   0  -3  -6 774.009 38.4422   2
   0  -3  -6 686.957 38.5056  14
   0  -3  -6 704.764 34.3792  12
   0  -3   6 716.001 39.7595  12
   0  -3  -6 716.762 32.6349   5
   0  -3  -6 708.932 51.5218   4
   0  -3   6 702.561 39.4161   5
   0  -3   6 708.730 47.6490  11
   0  -3  -6 686.774 49.4829   9
   0  -3  -6 689.276 51.5464   8
   0  -3  -6 684.070 47.8632   6
   0  -3   6 683.341 52.6346   6
   0  -3  -6 695.406 50.9770   7
   0  -3   6 791.492 56.7824   7
   0  -3   7 4105.01 156.865   3
   0  -3  -7 3846.43 120.738   2
   0  -3  -7 3567.41 124.973   1
   0  -3  -7 4143.11 132.863  14
   0  -3  -7 3916.70 115.057  12
   0  -3   7 4293.54 128.132  12
   0  -3  -7 4151.52 152.226   4
   0  -3  -7 4079.25 110.296   5
   0  -3   7 4292.21 125.707   5
   0  -3   7 4315.99 146.578  11
   0  -3  -7 4494.07 151.759   9
   0  -3  -7 4198.54 152.184   8
   0  -3   7 4140.60 158.994   7
   0  -3  -7 4304.42 154.173   7
   0  -3  -7 4279.00 146.216   6
   0  -3  -8 414.589 26.5127   2
   0  -3  -8 562.475 40.7152  14
   0  -3  -8 443.017 21.1446  12
   0  -3   8 609.004 47.1215  11
   0  -3  -8 402.946 34.0239   1
   0  -3   8 578.037 32.1846   5
   0  -3  -8 464.702 46.7788   9
   0  -3   8 440.899 51.1850   7
   0  -3  -8 449.662 44.5931   6
   0  -3  -9 384.540 34.4899   1
   0  -3   9 672.251 49.6544  11
   0  -3  -9 635.332 46.2370  14
   0  -3   9 525.685 29.3116   5
   0  -3   9 698.982 65.9077   7
   0  -3  10 942.219 62.2545  11
   0  -3 -10 968.758 62.1142  14
   0  -3  10 964.710 81.0765   7
   0  -3 -11 379.777 43.6819  14
   0  -3  11 307.726 40.0113  11
   0  -3  11 384.428 56.2401   6
   0  -3  11 357.287 59.1861   7
   0  -3 -12 387.226 46.7775  14
   0  -3  12 366.997 59.1094   6
   0  -3  12 427.846 64.8143   7
   0  -3  12 380.822 42.4083  11
   0  -3  13 207.330 52.8748   6
   0  -3  13 270.837 61.3739   7
   0  -2   0 5696.06 147.609  14
   0  -2   0 5692.46 153.449  10
   0  -2   0 5655.65 157.234   2
   0  -2   0 5792.18 152.448   1
   0  -2   1 1037.58 41.7122  12
   0  -2  -1 1062.49 41.3790  12
   0  -2   1 1119.41 41.3526  14
   0  -2   1 1056.76 43.3366  10
   0  -2  -1 1088.91 42.9614   2
   0  -2   1 1124.56 44.1056   2
   0  -2  -1 1042.14 34.9759   1
   0  -2  -2 7427.37 184.261   1
   0  -2   2 7237.99 198.898  14
   0  -2   2 7284.02 200.659  11
   0  -2   2 7483.98 201.769  10
   0  -2  -2 7140.79 192.180  12
   0  -2  -2 7144.47 194.591   2
   0  -2   2 7341.89 201.406   6
   0  -2   3 591.440 35.5825  14
   0  -2   3 617.118 30.2052  12
   0  -2  -3 515.358 26.5082  12
   0  -2  -3 532.821 34.6779   9
   0  -2  -3 544.138 28.0418   2
   0  -2   3 605.641 31.4108   2
   0  -2  -3 530.592 31.3131   6
   0  -2   3 603.341 36.3581   6
   0  -2  -4 4604.02 132.328  14
   0  -2  -4 4498.50 128.026  12
   0  -2   4 4864.63 133.931  12
   0  -2   4 4714.30 133.118   5
   0  -2  -4 4543.91 146.363   9
   0  -2   4 4890.80 144.919  11
   0  -2  -4 4642.48 131.734   2
   0  -2   4 4694.76 152.231   7
   0  -2  -4 4692.06 142.882   6
   0  -2   4 4809.95 151.204   6
   0  -2  -5 474.492 30.2356  14
   0  -2  -5 485.131 22.1504  13
   0  -2  -5 463.439 23.3458  12
   0  -2   5 485.711 27.7043  12
   0  -2   5 495.165 27.8370   5
   0  -2  -5 480.232 21.9787   5
   0  -2   5 493.582 36.9800  10
   0  -2  -5 504.518 37.1164   9
   0  -2   5 523.327 35.0681  11
   0  -2   5 463.208 40.6292   7
   0  -2  -5 488.514 36.2395   6
   0  -2   5 556.900 42.0781   6
   0  -2  -5 555.921 27.2546   2
   0  -2   6 2431.25 102.717   3
   0  -2  -6 2464.64 101.830   3
   0  -2  -6 2272.10 73.5098   2
   0  -2  -6 2376.78 87.6575  14
   0  -2  -6 2383.11 70.7733  13
   0  -2  -6 2242.02 67.8051  12
   0  -2   6 2419.54 75.2917   5
   0  -2   6 2441.66 90.9401  11
   0  -2  -6 2346.80 94.2070   9
   0  -2  -6 2378.38 98.0922   8
   0  -2   6 2478.78 105.572   7
   0  -2  -6 2440.65 94.6631   6
   0  -2  -6 2388.34 98.5290   7
   0  -2  -7 171.270 15.7573   2
   0  -2  -7 202.669 34.0312   3
   0  -2  -7 179.854 24.6552   1
   0  -2  -7 205.459 17.5175  13
   0  -2  -7 256.999 28.8444  14
   0  -2  -7 218.666 30.7239   6
   0  -2   7 211.667 18.3474   5
   0  -2   7 189.316 25.6829  11
   0  -2  -7 242.822 32.1065   9
   0  -2   7 259.433 36.7358   7
   0  -2  -7 227.500 34.9270   7
   0  -2  -7 193.887 32.9215   8
   0  -2  -8 1909.55 78.1473   1
   0  -2   8 2141.77 80.8344  11
   0  -2  -8 2104.60 84.6989  14
   0  -2  -8 1925.68 57.2238  13
   0  -2   8 2092.10 53.0211   5
   0  -2  -8 1853.95 84.9012   9
   0  -2  -8 2017.99 89.3030   6
   0  -2   8 2216.07 103.843   7
   0  -2  -9 1317.71 69.5903   1
   0  -2  -9 1218.80 48.7490  13
   0  -2  -9 1526.17 78.4262  14
   0  -2  -9 1456.08 78.6131   9
   0  -2   9 1579.17 96.3377   7
   0  -2   9 1571.69 71.1435  11
   0  -2 -10 620.701 54.9547  14
   0  -2 -10 574.742 48.7693   1
   0  -2  10 596.488 66.6184   7
   0  -2  10 584.418 62.1472   6
   0  -2  10 616.680 45.9844  11
   0  -2 -11 1057.53 73.7578  14
   0  -2  11 1008.56 58.4635  11
   0  -2 -11 748.979 58.5480   1
   0  -2  11 927.839 85.3621   7
   0  -2  11 947.521 82.3125   6
   0  -2 -12 308.549 44.6799  14
   0  -2  12 268.332 52.3021   6
   0  -2  12 211.126 51.5168   7
   0  -2  12 229.069 28.9755  11
   0  -2 -13 607.620 62.9071  14
   0  -2  13 553.047 77.9844   7
   0  -2  13 572.893 71.8086   6
   0  -1   0 1.01963 3.44054  10
   0  -1   0-0.86897 3.50857   2
   0  -1   1 14884.1 368.506  12
   0  -1  -1 14234.6 367.301  12
   0  -1   1 15038.1 371.945  10
   0  -1  -1 15124.8 369.840   4
   0  -1  -1 15057.4 368.600   2
   0  -1   1 14920.7 368.989   3
   0  -1   1 15482.3 370.278   2
   0  -1   1 15401.9 371.142  14
   0  -1  -2 658.768 21.7197  13
   0  -1   2 721.661 32.4794  14
   0  -1  -2 637.023 30.7572   4
   0  -1  -2 627.231 30.6368   9
   0  -1  -2 669.477 25.2154   2
   0  -1   2 735.936 32.9886   6
   0  -1  -2 695.941 29.8693   6
   0  -1  -3 9710.53 246.429  13
   0  -1  -3 9766.06 255.396  14
   0  -1   3 10055.3 249.779  12
   0  -1   3 9847.40 249.037   5
   0  -1  -3 9576.28 261.293   9
   0  -1  -3 9944.08 243.598  10
   0  -1  -3 10094.5 248.729   2
   0  -1   3 9971.19 266.486   7
   0  -1  -3 10068.1 261.198   6
   0  -1   3 10429.2 266.599   6
   0  -1  -4 352.088 19.4803  13
   0  -1  -4 326.431 25.0040  14
   0  -1   4 361.759 18.9040  12
   0  -1  -4 319.455 17.0917  10
   0  -1   4 369.627 27.3318  10
   0  -1  -4 345.798 27.3803   9
   0  -1   4 355.490 24.1802  11
   0  -1   4 342.352 18.2538   5
   0  -1  -4 358.994 18.2018   2
   0  -1  -4 296.983 27.1147   6
   0  -1   4 353.971 31.9520   7
   0  -1   4 334.674 29.5945   6
   0  -1  -5 8058.64 220.354  14
   0  -1  -5 7610.65 204.013  13
   0  -1   5 7819.78 197.303   5
   0  -1   5 8218.80 221.111  10
   0  -1  -5 7587.48 219.734   9
   0  -1   5 8294.50 214.899  11
   0  -1  -5 7776.34 201.403  10
   0  -1   5 7718.98 231.970   7
   0  -1  -5 7986.15 224.789   6
   0  -1  -5 7530.97 198.715   2
   0  -1  -6 2332.63 98.3520   3
   0  -1  -6 2177.46 66.2412   2
   0  -1  -6 2500.06 91.9616   1
   0  -1  -6 2305.93 75.2501  13
   0  -1  -6 2386.36 90.9797  14
   0  -1   6 2528.37 83.7881  11
   0  -1   6 2316.66 64.1316   5
   0  -1  -6 2426.64 73.7984  10
   0  -1  -6 2401.77 89.8289   9
   0  -1  -6 2377.36 96.3398   8
   0  -1  -6 2534.90 98.6533   7
   0  -1  -6 2366.85 93.7278   6
   0  -1   6 2270.66 100.409   7
   0  -1  -7 2460.66 102.644   3
   0  -1  -7 2560.77 74.8418  13
   0  -1  -7 2458.23 94.1142  14
   0  -1   7 2701.04 83.1186  11
   0  -1  -7 2565.54 93.7922   1
   0  -1  -7 2579.10 72.8947  10
   0  -1  -7 2527.66 90.8192   9
   0  -1  -7 2662.51 102.357   8
   0  -1  -7 2665.12 102.929   7
   0  -1   7 2470.44 105.317   7
   0  -1  -7 2579.11 97.1558   6
   0  -1  -8 795.369 41.1136  13
   0  -1  -8 808.629 55.6403  14
   0  -1  -8 823.014 54.1895   1
   0  -1   8 885.639 45.3392  11
   0  -1  -8 786.071 52.0465   9
   0  -1   8 793.953 64.4127   7
   0  -1  -8 760.887 57.6306   6
   0  -1  -9 396.252 30.9767  13
   0  -1  -9 479.783 47.6223  14
   0  -1  -9 461.412 44.2901   1
   0  -1   9 393.481 33.0574  11
   0  -1  -9 358.896 41.7196   9
   0  -1   9 289.568 41.6921   6
   0  -1   9 515.329 57.9480   7
   0  -1 -10 787.808 63.4705  14
   0  -1 -10 763.073 43.5784  13
   0  -1  10 815.086 45.2784  11
   0  -1 -10 693.438 57.6243   1
   0  -1 -10 706.647 56.2844   9
   0  -1  10 844.581 70.1085   6
   0  -1  10 873.921 77.4218   7
   0  -1 -11 246.593 37.2375   1
   0  -1 -11 276.175 43.1781  14
   0  -1  11 252.941 54.6139   7
   0  -1  11 323.841 51.9695   6
   0  -1  11 231.875 26.8495  11
   0  -1 -12 298.991 43.9762   1
   0  -1 -12 391.206 52.0224  14
   0  -1  12 435.243 65.2749   7
   0  -1  12 363.307 56.3985   6
   0  -1 -13-15.6938 31.1138  14
   0  -1  13-16.1033 48.8086   7
   0  -1  13-10.0869 33.5507   6
   0   0   1 108.303 8.13744   7
   0   0   1 111.657 7.89753   6
   0   0  -2 18648.9 457.684  14
   0   0   2 18645.2 460.030   7
   0   0   2 19273.9 459.336   6
   0   0  -2 18246.8 451.930  10
   0   0  -2 18027.2 453.031   9
   0   0   3 10757.4 258.003  11
   0   0  -3 10228.1 261.271  10
   0   0  -3 10000.2 262.867   9
   0   0   3 10057.7 262.073  10
   0   0  -3 10630.7 270.324  14
   0   0   3 9911.03 273.095   7
   0   0   3 10092.9 270.951   6
   0   0  -3 10596.3 270.973   6
   0   0   4 12251.7 295.882  11
   0   0  -4 12279.4 314.281   1
   0   0  -4 11842.5 300.443  10
   0   0  -4 11255.5 302.125   9
   0   0   4 11741.5 301.624  10
   0   0  -4 11542.9 311.551  14
   0   0  -4 11428.9 312.029   6
   0   0   4 11264.7 316.366   7
   0   0  -5 3658.45 119.907  14
   0   0   5 3714.62 101.306  11
   0   0  -5 3864.45 122.464   1
   0   0  -5 3587.59 109.364   9
   0   0  -5 3581.64 106.863  10
   0   0   5 3411.60 124.308   7
   0   0  -5 3652.43 120.398   6
   0   0  -5 3184.86 93.7404   2
   0   0  -6 1310.64 43.5762   2
   0   0  -6 1582.27 74.8739   3
   0   0  -6 1443.67 69.4639  14
   0   0   6 1605.21 52.9153  11
   0   0  -6 1391.00 68.6347   1
   0   0  -6 1455.68 57.3426  10
   0   0  -6 1399.33 59.6127   9
   0   0   6 1461.18 75.1171   7
   0   0  -6 1544.96 71.0862   6
   0   0  -7 3910.89 137.491   3
   0   0  -7 3991.79 133.811   1
   0   0  -7 4019.07 134.362  14
   0   0   7 4140.94 104.736  11
   0   0  -7 4017.41 113.524  10
   0   0  -7 3833.08 116.215   9
   0   0  -7 4062.19 135.601   8
   0   0  -7 4021.28 132.978   6
   0   0   7 3879.84 140.348   7
   0   0  -7 4015.29 136.210   7
   0   0  -8 40.7808 26.1311   3
   0   0  -8 60.9058 22.7048   1
   0   0  -8 75.3586 25.6708  14
   0   0  -8 64.3829 26.6757   6
   0   0   8 41.8622 12.3792  11
   0   0  -8 49.7193 18.5514  10
   0   0  -8 19.3636 18.3748   9
   0   0  -8-5.33075 33.9259   8
   0   0  -8 11.0735 31.2062   7
   0   0   8 58.6388 23.6989   6
   0   0   8 85.2546 31.0597   7
   0   0  -9 114.938 28.5322   1
   0   0  -9 151.085 25.6197  13
   0   0  -9 204.449 35.8287  14
   0   0  -9 192.315 26.3309  10
   0   0  -9 141.559 25.8057   9
   0   0   9 196.958 37.8095   6
   0   0   9 176.066 40.1089   7
   0   0 -10 135.952 31.9579   1
   0   0 -10 115.019 24.2949  13
   0   0 -10 128.271 24.4046  10
   0   0 -10 87.4396 26.4924   9
   0   0  10 117.045 42.1035   7
   0   0  10 142.492 37.8565   6
   0   0 -10 166.376 36.7576  14
   0   0 -11 587.522 57.5882   1
   0   0  11 570.730 64.1722   6
   0   0  11 615.081 70.4437   7
   0   0 -11 584.692 61.7672  14
   0   0 -12 112.050 32.1149   1
   0   0  12 86.9552 38.9888   6
   0   0 -12 164.988 42.1956  14
   0   0 -13 101.849 32.8883   1
   0   0  13 109.147 41.9271   6
   0   0 -13 205.694 45.6481  14
   0   0 -14-4.50302 36.3632  14
   0   1   0-0.40781 3.91143  12
   0   1   0 0.32923 2.79740   1
   0   1  -1 15463.2 385.742  12
   0   1   1 16003.5 387.010   4
   0   1   1 15271.4 387.714   8
   0   1  -1 16149.8 390.667   1
   0   1  -2 692.851 27.1291  12
   0   1  -2 758.518 34.7023   1
   0   1  -2 702.503 31.4894  10
   0   1   2 692.852 31.8155   8
   0   1  -2 669.006 31.6210   3
   0   1  -2 698.770 27.5641   2
   0   1  -3 9869.85 253.588  12
   0   1  -3 10416.1 272.438   1
   0   1  -3 10321.5 263.714  10
   0   1   3 9974.34 267.470   8
   0   1  -3 9921.92 248.700   9
   0   1  -3 10118.0 267.513   3
   0   1  -3 10221.2 255.436   2
   0   1  -4 338.957 29.9723   3
   0   1  -4 364.032 20.8744   2
   0   1  -4 356.090 30.1050  14
   0   1  -4 354.461 19.6251  12
   0   1  -4 383.025 30.8106   1
   0   1  -4 357.798 26.9146  10
   0   1  -4 344.850 19.2033   9
   0   1   4 329.253 30.2461   7
   0   1  -5 7715.84 202.505   2
   0   1  -5 7822.97 228.134   3
   0   1  -5 8017.61 229.315  14
   0   1  -5 7654.77 199.712  12
   0   1  -5 7956.20 217.193  10
   0   1  -5 7796.95 225.833   6
   0   1   5 7503.27 229.605   7
   0   1  -5 7719.77 203.564   9
   0   1  -5 7937.74 231.927   1
   0   1  -6 2197.17 71.9362   2
   0   1  -6 2414.64 100.169   3
   0   1  -6 2567.76 103.112   1
   0   1  -6 2497.83 100.313  14
   0   1  -6 2474.65 88.3258  10
   0   1  -6 2391.29 77.6311   9
   0   1   6 2466.08 103.495   7
   0   1  -6 2428.37 97.4096   6
   0   1  -7 2526.42 107.706   3
   0   1  -7 2304.99 73.4138   2
   0   1  -7 2570.42 109.647   1
   0   1  -7 2602.71 108.945  14
   0   1  -7 2489.79 92.7808  10
   0   1  -7 2471.40 82.6116   9
   0   1   7 2596.91 107.181   6
   0   1  -7 2604.70 105.839   6
   0   1   7 2340.49 107.924   7
   0   1  -8 612.905 27.6809   2
   0   1  -8 750.779 60.8004   3
   0   1  -8 664.002 55.2569   1
   0   1  -8 742.190 48.0590  10
   0   1  -8 830.679 60.5372  14
   0   1  -8 718.312 40.0598   9
   0   1  -8 743.937 57.8548   6
   0   1   8 805.883 63.1348   7
   0   1   8 821.609 59.9142   6
   0   1  -9 462.427 49.5091   1
   0   1  -9 443.927 41.8419  10
   0   1  -9 495.415 52.5875  14
   0   1  -9 408.465 33.5449   9
   0   1   9 478.394 51.7103   6
   0   1 -10 873.090 69.8656   1
   0   1 -10 695.309 55.2653  10
   0   1 -10 915.175 72.2846  14
   0   1 -10 766.565 47.3253   9
   0   1  10 872.404 71.0668   6
   0   1 -11 327.408 46.5930   1
   0   1 -11 354.268 52.2178  14
   0   1 -12 295.283 48.4763   1
   0   1 -12 321.110 52.4483  14
   0   1 -13-13.1089 29.8227   1
   0   1 -13 46.1416 35.2084  14
   0   1 -14 300.704 57.7809  14
   0   2   0 6287.01 170.710  12
   0   2   1 1085.90 40.6759   4
   0   2  -1 1062.66 42.8841  12
   0   2  -1 1091.66 44.2664   1
   0   2  -2 7305.14 194.162   2
   0   2  -2 7174.08 193.406  12
   0   2   2 7166.00 194.782   4
   0   2   2 7136.18 196.813   8
   0   2  -2 7168.73 201.443   1
   0   2   3 513.175 20.9249  13
   0   2  -3 522.661 29.3307  12
   0   2  -3 559.018 36.1613   1
   0   2  -3 510.007 32.5838  10
   0   2   3 492.211 32.3240   8
   0   2  -3 538.781 29.5822   2
   0   2   3 539.822 27.2894   2
   0   2  -3 548.362 32.5476   3
   0   2  -4 4754.03 137.984  12
   0   2  -4 4975.44 158.174   1
   0   2  -4 4779.88 147.979  10
   0   2   4 4732.44 151.467   8
   0   2  -4 4693.64 148.708   3
   0   2  -4 4939.40 139.290   2
   0   2  -5 605.616 31.7775  12
   0   2  -5 534.762 37.6438  10
   0   2  -5 620.216 32.5669   2
   0   2  -5 567.755 41.2863   3
   0   2  -5 530.019 19.8437   9
   0   2   5 588.220 42.8563   8
   0   2  -5 537.464 43.0379   1
   0   2  -6 2522.14 102.892   3
   0   2  -6 2544.74 83.9520   2
   0   2  -6 2589.16 107.594  14
   0   2  -6 2531.39 109.312   1
   0   2  -6 2568.67 97.1151  10
   0   2  -6 2459.11 71.1252   9
   0   2  -6 2660.68 105.521   6
   0   2  -7 166.712 30.9532   1
   0   2  -7 227.763 34.6020   6
   0   2  -7 208.891 29.5580  10
   0   2  -7 244.641 34.5954  14
   0   2  -7 152.676 15.0782   9
   0   2  -7 166.639 31.4867   3
   0   2  -7 203.489 20.5667   2
   0   2  -8 2161.53 106.702   1
   0   2  -8 2014.17 89.8819  10
   0   2  -8 2020.03 103.380  14
   0   2  -8 2015.64 64.2389   9
   0   2  -8 2009.92 70.1909   2
   0   2  -8 2045.60 101.707   3
   0   2  -9 1674.99 93.5630   1
   0   2  -9 1483.96 77.6890  10
   0   2  -9 1704.95 95.4917  14
   0   2  -9 1393.07 50.7959   9
   0   2  -9 1281.54 50.5939   2
   0   2 -10 723.499 68.8901  14
   0   2 -10 620.139 63.2810   1
   0   2 -10 544.492 52.3615  10
   0   2 -11 948.207 80.2819   1
   0   2 -11 1019.01 84.3006  14
   0   2 -12 201.088 44.8118   1
   0   2 -12 342.945 54.4444  14
   0   2 -13 612.890 70.2920   1
   0   2 -13 615.982 71.8614  14
   0   2 -14 49.0952 36.7208   1
   0   2 -14 41.3613 39.4654  14
   0   3   0 2.07112 7.33741  14
   0   3   0 2.52828 9.64602  12
   0   3  -1 401.159 28.3781  12
   0   3   1 391.774 25.2815   4
   0   3   1 383.982 22.7334  10
   0   3   1 378.000 17.9115  14
   0   3   1 443.310 22.7854   1
   0   3  -2 180.626 20.5039   2
   0   3  -2 212.459 21.5259  12
   0   3   2 164.244 18.3434   4
   0   3   2 163.042 13.6694  10
   0   3   2 187.113 22.0865   8
   0   3  -2 180.032 21.8842   1
   0   3  -3 7986.85 216.353   2
   0   3   3 7544.77 210.764   2
   0   3  -3 8099.23 216.508  12
   0   3   3 7635.70 217.394   4
   0   3   3 7429.17 189.356  10
   0   3   3 7659.31 219.893   8
   0   3  -3 7978.35 228.032   1
   0   3  -4 1430.51 72.2197   1
   0   3  -4 1472.62 61.5045  12
   0   3   4 1314.11 45.0026  13
   0   3  -4 1389.12 65.2226  10
   0   3   4 1354.78 66.4461   8
   0   3   4 1395.55 56.9174   2
   0   3  -4 1540.70 62.2959   2
   0   3  -5 1592.95 66.3472  12
   0   3  -5 1581.26 73.6511  10
   0   3  -5 1650.04 66.7151   2
   0   3  -5 1596.35 73.0649   3
   0   3   5 1503.65 76.1842   8
   0   3  -5 1636.56 82.2762   1
   0   3  -6 690.366 54.4799   1
   0   3  -6 747.774 50.0545  10
   0   3  -6 636.351 51.7369  14
   0   3   6 690.368 52.6617   8
   0   3  -6 732.166 50.9777   3
   0   3  -6 696.531 41.1130   2
   0   3  -7 4371.51 168.644  14
   0   3  -7 4662.31 176.249   1
   0   3  -7 4431.14 160.475   3
   0   3  -7 4592.62 141.273   2
   0   3  -7 4555.78 157.295  10
   0   3  -8 463.416 52.2659  14
   0   3  -8 542.402 55.9903   1
   0   3  -8 444.755 48.0854   3
   0   3  -8 428.576 34.0758   2
   0   3  -8 433.409 44.3458  10
   0   3  -9 633.172 62.6609  14
   0   3  -9 682.300 64.8747   1
   0   3  -9 524.312 37.4825   2
   0   3  -9 617.198 55.6769  10
   0   3 -10 853.086 75.5606   1
   0   3 -10 944.555 78.6351  14
   0   3 -11 313.308 52.4626   1
   0   3 -11 450.583 61.2084  14
   0   3 -12 317.951 54.2406   1
   0   3 -12 378.775 59.9190  14
   0   3 -13 108.851 42.3974   1
   0   3 -13 234.880 52.9715  14
   0   3 -14 521.048 70.8999   1
   0   4   0 11036.0 299.769  10
   0   4   0 11165.3 291.465  14
   0   4   0 11607.1 301.464   1
   0   4  -1 751.901 45.2769  12
   0   4   1 716.134 40.0164   4
   0   4   1 682.537 36.8587  10
   0   4   1 661.232 30.2124  14
   0   4  -1 725.357 39.2427  14
   0   4   1 729.657 36.3633   1
   0   4  -2 4393.36 141.634   2
   0   4   2 4130.46 137.055   2
   0   4  -2 4479.32 141.857  12
   0   4   2 4357.03 134.895   4
   0   4   2 4052.77 122.228  10
   0   4   2 4480.26 142.858   8
   0   4   2 4300.79 122.829   1
   0   4  -3 692.773 44.4202   2
   0   4   3 758.168 43.7529   2
   0   4  -3 750.556 45.5998  12
   0   4   3 733.174 44.0402   4
   0   4   3 704.360 30.0447  10
   0   4   3 730.062 48.3653   8
   0   4  -3 784.909 50.8965   1
   0   4  -4 4757.54 161.385   1
   0   4  -4 4587.69 146.121  12
   0   4   4 4084.28 122.102  13
   0   4  -4 4548.50 149.649  10
   0   4   4 4376.18 150.948   8
   0   4  -4 4494.48 144.666   2
   0   4   4 4292.36 139.192   2
   0   4   5 453.429 23.6275  13
   0   4  -5 510.458 43.7629  14
   0   4  -5 495.652 43.0776  10
   0   4  -5 548.700 48.0264   1
   0   4   5 442.560 41.4131   8
   0   4  -5 468.564 36.9882   2
   0   4  -6 1477.30 83.3559  14
   0   4  -6 1469.95 76.7941  10
   0   4  -6 1500.37 87.1608   1
   0   4   6 1335.98 78.1725   8
   0   4  -6 1499.83 69.1683   2
   0   4  -7 1555.69 87.6952  14
   0   4  -7 1285.01 74.7306  10
   0   4   7 1331.58 82.2612   8
   0   4  -7 1315.30 85.0958   1
   0   4  -7 1347.76 66.8218   2
   0   4  -8 2360.84 120.904   1
   0   4  -8 2060.31 87.7092   2
   0   4  -8 2150.85 113.305  14
   0   4  -9 398.959 54.7803   1
   0   4  -9 384.132 36.5867   2
   0   4  -9 437.671 55.2195  14
   0   4 -10 269.932 49.6236   1
   0   4 -10 396.484 57.2252  14
   0   4 -11 642.799 73.2921   1
   0   4 -11 656.255 74.1388  14
   0   4 -12 422.109 64.0061   1
   0   4 -12 446.720 67.1280  14
   0   4 -13 656.076 79.0918   1
   0   4 -13 555.243 75.9497  14
   0   5   0 14.3551 14.0896  10
   0   5   0 9.11490 12.8375  14
   0   5   0 1.65570 11.5803   1
   0   5   1 4329.65 136.193  10
   0   5   1 4361.72 135.831   1
   0   5  -1 4658.56 148.553   1
   0   5  -1 4458.77 138.306  14
   0   5   1 4246.45 125.309  14
   0   5   1 4481.13 140.528   4
   0   5   2 373.703 27.2813  10
   0   5   2 344.128 25.4069   1
   0   5   2 337.301 31.1673   4
   0   5  -2 376.736 35.9768   2
   0   5   3 4617.93 152.647   4
   0   5  -3 4779.09 158.281  10
   0   5   3 4596.80 132.694  10
   0   5   3 4675.38 160.713   8
   0   5  -3 4719.84 158.167   2
   0   5  -4 51.9348 21.8159  10
   0   5   4 52.7475 10.6118  10
   0   5  -4 74.0718 24.1844   1
   0   5  -4 81.7051 21.8905   2
   0   5   4 78.6981 21.4132   4
   0   5   4 68.1253 22.6657   8
   0   5  -5 3757.57 153.304   1
   0   5  -5 3898.53 143.210  10
   0   5   5 3632.57 109.137  13
   0   5   5 3541.94 142.841   8
   0   5  -5 3962.12 137.735   2
   0   5  -6 952.776 66.1439  10
   0   5   6 842.919 64.8225   8
   0   5  -6 999.420 60.1407   2
   0   5   6 917.488 36.8711  13
   0   5  -7 2008.85 113.432   1
   0   5   7 1908.05 106.284   8
   0   5  -7 2105.91 93.2952   2
   0   5  -7 2301.44 113.965  14
   0   5  -8 1170.52 88.5208   1
   0   5   8 1098.65 82.3205   8
   0   5  -8 1232.11 69.1633   2
   0   5  -8 1212.23 85.5060  14
   0   5  -9 549.327 64.5667  14
   0   5  -9 680.828 71.9246   1
   0   5 -10 595.360 69.3134  14
   0   5 -10 695.191 75.5726   1
   0   5 -11 419.748 62.0562  14
   0   5 -11 282.869 55.6754   1
   0   5 -12 343.860 62.5645  14
   0   5 -12 325.142 59.5782   1
   0   5 -13 11.8123 36.0543   1
   0   6   0 4620.74 143.766  14
   0   6   0 4972.72 157.655   1
   0   6   0 4658.48 165.425   2
   0   6  -1 301.437 33.8052  10
   0   6   1 257.240 22.7900  14
   0   6   1 258.574 28.8745   4
   0   6  -1 250.444 33.5988   2
   0   6  -1 271.362 31.7407   1
   0   6   1 272.954 27.2157   1
   0   6   2 3936.49 128.111  10
   0   6   2 4105.03 146.604   2
   0   6  -2 4144.28 149.187   2
   0   6   2 4014.02 127.838   1
   0   6  -2 4255.22 150.660   1
   0   6   2 3757.99 136.024   4
   0   6   3 294.821 32.7577   4
   0   6  -3 306.713 34.3614  14
   0   6   3 281.044 25.5264  10
   0   6   3 335.134 39.6059   8
   0   6  -3 295.451 36.8115   2
   0   6   3 256.135 34.0998   2
   0   6   4 2581.35 108.387   4
   0   6   4 2543.08 83.2042  10
   0   6  -4 2912.92 118.130  10
   0   6   4 2490.58 115.332   8
   0   6  -4 2948.46 117.215   2
   0   6   4 2663.63 110.157   2
   0   6  -4 2635.83 114.327  14
   0   6   5 565.827 53.8543   8
   0   6  -5 701.297 55.3342   2
   0   6   5 531.953 47.0279   2
   0   6  -5 741.692 58.5358  14
   0   6   5 642.501 36.2778  13
   0   6  -6 517.741 57.1709   1
   0   6   6 591.210 57.1600   8
   0   6  -6 512.724 48.2069   2
   0   6   6 475.380 29.1703  13
   0   6   7 911.864 74.9265   8
   0   6  -7 842.486 61.8546   2
   0   6   8 757.445 72.7007   8
   0   6  -8 893.851 80.7262   1
   0   6  -8 791.662 60.0511   2
   0   6  -9 644.768 71.9616  14
   0   6  -9 621.800 71.0709   1
   0   6   9 490.125 66.5539   8
   0   6 -10 837.407 83.0907  14
   0   6 -10 909.429 88.1633   1
   0   6 -11 407.847 65.7637  14
   0   6 -11 427.151 65.7924   1
   0   6 -12 211.050 55.2589  14
   0   6 -12 187.116 53.9208   1
   0   7   0-19.6241 22.4457  10
   0   7   0-2.85833 21.1460   2
   0   7   0-6.96056 16.2262   1
   0   7   0 14.0926 15.8511  14
   0   7   1 1911.16 85.3603   4
   0   7   1 1813.79 70.2843  14
   0   7  -1 1925.18 91.1650   1
   0   7   1 1864.95 82.5580   1
   0   7  -1 1942.45 96.3844   2
   0   7  -1 1927.33 88.9642  10
   0   7   1 1784.35 81.5533  10
   0   7  -2 181.438 29.7295  14
   0   7  -2 193.242 34.8112  10
   0   7   2 160.110 28.7521   4
   0   7   2 210.570 35.1135   2
   0   7  -2 198.780 35.1471   2
   0   7   2 202.654 26.2582   1
   0   7  -2 220.231 35.0435   1
   0   7  -3 2179.07 107.479   1
   0   7   3 1978.63 91.8347   4
   0   7  -3 2062.95 96.1279  14
   0   7   3 2117.29 105.835   8
   0   7  -3 2191.16 103.452   2
   0   7   3 1981.39 98.4677   2
   0   7  -4 913.702 68.8755   1
   0   7  -4 744.282 58.2909  14
   0   7   4 710.252 53.5324   4
   0   7   4 733.864 40.4518  10
   0   7   4 825.512 65.3475   8
   0   7  -4 739.369 60.6268   2
   0   7   4 691.595 57.0224   2
   0   7   5 1684.76 70.3461  13
   0   7  -5 1796.72 97.1248  14
   0   7   5 1659.16 88.6469   2
   0   7   5 1684.45 98.3069   8
   0   7  -6 1201.02 81.3023  14
   0   7   6 1005.19 47.5482  13
   0   7   6 985.174 77.8258   8
   0   7   6 1205.45 73.1530   2
   0   7   7 1328.49 91.2744   8
   0   7  -7 1229.82 88.1302  14
   0   7   7 1081.62 42.9685  13
   0   7  -7 1197.31 93.7498   1
   0   7   8 225.345 51.6304   8
   0   7  -8 318.323 54.1009   1
   0   7  -9 366.977 58.9543   1
   0   7   9 246.802 54.3679   8
   0   7 -10 847.047 87.7077   1
   0   7  10 673.240 81.2910   8
   0   7 -11 207.442 52.5413   1
   0   7 -11 252.403 56.7178  14
   0   8   0 1726.15 86.6145  10
   0   8   0 1717.17 86.6906   1
   0   8   0 1659.16 83.2543   4
   0   8   1 16.4075 17.8884   1
   0   8  -1 32.7083 21.0436   1
   0   8  -1 5.32771 26.8144  10
   0   8   1 15.7262 20.8575  10
   0   8   1 19.6321 19.9959   4
   0   8  -1 10.5330 18.1892  14
   0   8   1 5.47795 16.1923  14
   0   8   2 1600.04 76.9702  10
   0   8   2 1633.38 75.6616   1
   0   8  -2 1602.00 90.7449   1
   0   8  -2 1590.49 82.0173  14
   0   8   2 1525.14 79.7425   4
   0   8   3 201.381 34.4829   4
   0   8  -3 209.038 38.4242   1
   0   8   3 155.311 26.6057  10
   0   8  -3 191.335 33.9118  14
   0   8   3 210.328 40.9113   8
   0   8   4 1880.82 94.6722   4
   0   8  -4 2085.41 103.874  14
   0   8   4 1760.04 104.821   8
   0   8  -4 2137.31 114.371   1
   0   8   5 266.580 24.2488  10
   0   8  -5 403.280 53.1915   1
   0   8   5 368.414 53.0044   8
   0   8  -5 373.911 49.4785  14
   0   8  -6 588.112 62.9022  14
   0   8   6 485.317 36.6302  13
   0   8   6 528.924 63.7771   8
   0   8  -7 496.721 61.9002  14
   0   8   7 378.416 28.4424  13
   0   8   7 488.696 64.9545   8
   0   8  -8 694.388 79.4787   1
   0   8  -8 678.157 73.5541  14
   0   8   8 530.791 69.9645   8
   0   8   9 371.985 66.5110   8
   0   8  -9 527.680 70.1801  14
   0   8  -9 528.611 71.5340   1
   0   8 -10 527.267 74.9247   1
   0   8  10 473.541 71.9116   8
   0   9   0 8.14614 25.5447   4
   0   9   0-11.9566 20.9044   1
   0   9   1 2086.10 99.1788  10
   0   9  -1 2202.73 108.600   1
   0   9   1 2029.30 97.0168   1
   0   9   1 2093.91 100.320   4
   0   9  -1 2121.62 94.1769  14
   0   9  -2 266.605 36.8283  14
   0   9  -2 339.628 45.2067   1
   0   9   2 238.356 35.1797   1
   0   9   2 244.881 34.0561  10
   0   9   2 289.774 49.9899   8
   0   9   2 257.414 38.4269   4
   0   9   3 1639.63 88.0617   4
   0   9  -3 1776.11 104.450   1
   0   9   3 1539.77 78.5685  10
   0   9   3 1752.07 106.300   8
   0   9  -3 1754.54 92.6945  14
   0   9   4 341.980 43.6705   4
   0   9   4 276.342 34.2948  10
   0   9  -4 349.505 52.0225   1
   0   9  -4 347.597 47.7709  14
   0   9   4 399.072 56.6165   8
   0   9   5 1388.48 61.1179  10
   0   9   5 1570.54 105.094   8
   0   9  -5 1558.80 97.4174  14
   0   9  -6 362.485 54.3756  14
   0   9   6 306.485 32.6751  13
   0   9   6 289.918 54.7685   8
   0   9  -6 387.376 58.9832   1
   0   9   7 415.523 32.5041  13
   0   9  -7 551.314 64.9667  14
   0   9   7 511.280 68.8130   8
   0   9  -8 576.779 69.9376  14
   0   9   8 419.605 69.0007   8
   0   9  -9 165.530 46.6420   1
   0   9   9 216.320 58.3271   8
   0  10   0 2764.40 107.942  14
   0  10   0 2969.17 129.997   1
   0  10   0 2790.94 122.600   4
   0  10  -1 14.5563 23.5624   1
   0  10   1 2.91020 21.3001   1
   0  10  -1 7.38490 23.0055  14
   0  10  -1-3.01664 27.0409   4
   0  10   1 17.6997 27.9340   4
   0  10   2 1763.27 95.6629   4
   0  10   2 1913.17 93.4794   1
   0  10  -2 2076.47 112.689   1
   0  10   2 1954.37 118.511   8
   0  10  -2 2046.83 98.9952  14
   0  10   3 107.643 29.7776   4
   0  10  -3 117.009 34.7618   1
   0  10   3 79.1584 32.8771  10
   0  10  -3 106.372 32.7150  14
   0  10   3 81.7931 40.7997   8
   0  10   4 1091.07 77.6452   4
   0  10   4 1070.54 64.7442  10
   0  10   4 1244.60 97.5072   8
   0  10  -4 1390.38 99.0547   1
   0  10  -4 1185.66 84.1579  14
   0  10  -5 167.016 42.7654   1
   0  10   5 90.4816 42.4873   8
   0  10  -5 128.346 38.1026  14
   0  10  -6 580.051 71.0216   1
   0  10   6 546.994 72.7807   8
   0  10   6 463.706 42.5331  13
   0  10  -6 554.589 65.5852  14
   0  10  -7 380.633 63.7709   1
   0  10   7 454.588 69.0239   8
   0  10  -7 526.086 66.9655  14
   0  10  -8 518.740 72.5729   1
   0  10   8 410.256 69.0418   8
   0  10  -8 381.346 63.0188  14
   0  10  -9 346.785 62.5660  14
   0  11   0-3.52654 24.9543   1
   0  11   0 2.06110 20.5056  14
   0  11   1 940.664 72.2040   1
   0  11  -1 1123.87 83.6233   1
   0  11  -1 1050.93 68.0707  14
   0  11  -1 952.260 74.5054   4
   0  11   1 826.362 69.4793   4
   0  11   2-18.9316 28.6898   4
   0  11  -2-5.97565 33.1949  14
   0  11  -2 12.8785 32.4268   1
   0  11   2-5.54752 24.8632   1
   0  11   2 4.90504 37.7999   8
   0  11  -2 13.2868 28.2242   4
   0  11  -3 1209.18 95.1351   1
   0  11   3 1069.33 77.2484   4
   0  11   3 1202.99 100.600   8
   0  11  -3 1228.24 82.9680  14
   0  11  -4 124.875 42.8685   1
   0  11   4 101.322 33.1140   4
   0  11  -4 124.392 37.3788  14
   0  11   4 106.638 47.8475   8
   0  11  -5 767.760 73.0331  14
   0  11   5 553.488 74.4689   8
   0  11  -5 797.597 83.7856   1
   0  11  -6 312.553 54.9016  14
   0  11   6 239.059 57.2015   8
   0  11  -6 353.166 60.3393   1
   0  11   7 955.567 96.4519   8
   0  11  -7 926.831 87.9984  14
   0  11  -7 983.643 96.4208   1
   0  12   0 738.460 68.4112   1
   0  12  -1 17.8718 27.6894  14
   0  12   1 21.2677 47.3134   8
   0  12   1-10.0578 27.5535   1
   0  12  -1 33.1026 28.2412   1
   0  12   2 1077.14 97.9364   8
   0  12  -2 784.043 66.4603  14
   0  12   2 777.060 66.5815   1
   0  12  -2 1006.24 85.9134   1
   0  12  -3-27.8084 37.5120  14
   0  12   3 48.7067 46.7210   8
   0  12  -3 54.1614 34.0234   1
   0  12  -4 585.961 64.6136  14
   0  12   4 668.228 83.6019   8
   0  12  -4 594.497 74.5805   1
   0  12  -5 212.802 53.1872   1
   0  12  -5 144.838 44.0449  14
   0  12  -6 476.386 65.1127  14
   0  13   0 27.2691 30.8978   1
   0  13  -1 477.898 61.2915   1
   0  13  -2 23.5062 33.6559   1
   0  13  -3 628.891 75.9351   1
   0  13  -4 71.2573 40.9877   1
   0  13  -4 7.80561 39.9622  14
   0  13  -5 665.195 72.8974  14
   1 -13  -2-27.2849 35.0504  11
  -1 -13   1 656.206 78.7565  11
   1 -13  -1 587.929 71.4986  11
   1 -13   0 143.675 46.1454  11
  -1 -13   0 168.820 47.7757  11
   1 -13   1 516.004 70.9840  11
  -1 -13  -1 435.139 64.3964  11
  -1 -13  -2 169.125 43.8252  11
   1 -13   2 199.333 51.9207   6
   1 -13   3 410.043 67.8327   6
   1 -12  -6 415.296 64.3354   2
   1 -12  -5-5.30301 35.2769   2
  -1 -12   5-17.7003 41.7510   2
  -1 -12   5-11.4539 43.2608   6
  -1 -12   4 521.299 71.7149  11
   1 -12  -4 611.511 74.8406   2
  -1 -12   4 590.491 77.0066   6
   1 -12  -3 50.1436 38.9803   2
  -1 -12   3 71.0430 40.9225   2
   1 -12  -3 39.4584 30.4293  11
  -1 -12   3 39.3563 35.3951  11
   1 -12  -2 562.858 65.2856  11
   1 -12  -2 504.685 70.6048   2
  -1 -12   2 488.164 69.1349  11
  -1 -12   1 106.447 44.3020   2
   1 -12  -1 149.867 48.6621   2
   1 -12  -1 149.947 41.7010  11
  -1 -12   1 83.4570 36.5868  11
   1 -12   0 605.414 72.1733  11
   1 -12   0 700.797 81.9081   2
  -1 -12   0 637.505 80.7739   2
  -1 -12   0 637.690 73.9373  11
  -1 -12  -1 499.578 72.0249   2
   1 -12   1 484.162 70.9319   2
   1 -12   1 393.574 64.6605  11
  -1 -12  -1 463.673 62.4423  11
  -1 -12  -2 711.355 74.1778  11
   1 -12   2 769.072 80.9331  11
  -1 -12  -2 896.952 91.4624   2
   1 -12   3 333.903 64.3917  11
  -1 -12  -3 404.358 54.8930  11
   1 -12   3 408.431 64.3699   6
  -1 -12  -3 489.253 70.1529   2
   1 -12   3 451.923 56.6157   3
   1 -12   4 390.894 63.9002  11
   1 -12   4 408.671 64.7901   6
   1 -12   4 333.291 63.9176   2
   1 -12   4 398.984 52.9867   3
  -1 -12  -4 385.182 65.9077   2
   1 -12   5 597.982 76.2424   6
  -1 -12  -5 532.548 74.2238   2
   1 -12   5 521.338 60.5809   3
  -1 -12  -6 123.715 47.6029   2
  -1 -12  -7 449.044 66.3031   2
  -1 -11   7 655.248 78.6467   2
   1 -11  -7 545.372 67.0740   2
  -1 -11   7 442.028 72.0899   6
  -1 -11   7 558.852 76.2425  11
   1 -11  -6 4.70987 30.4954   2
  -1 -11   6 16.1890 36.3665   2
  -1 -11   6 11.1839 41.8072   6
  -1 -11   5 976.073 93.9900   6
  -1 -11   5 1177.84 99.8524   2
  -1 -11   5 1047.90 69.7356   3
   1 -11  -5 998.962 90.4873   2
  -1 -11   5 1128.42 100.615  11
  -1 -11   4 32.5505 35.1317  11
   1 -11  -4 3.29856 27.8085  11
  -1 -11   4 52.1866 39.8261   6
  -1 -11   4 49.0039 26.3161   3
   1 -11  -4 29.9575 34.9238   2
  -1 -11   4 21.7804 33.2453   2
   1 -11  -3 981.451 76.7950  11
  -1 -11   3 1128.37 97.3138   2
  -1 -11   3 917.590 64.0334   3
   1 -11  -3 989.715 90.2777   2
  -1 -11   3 945.443 89.7797  11
   1 -11  -2 212.718 48.6305   2
  -1 -11   2 137.030 32.0631   3
  -1 -11   2 136.499 41.3578  11
   1 -11  -2 168.727 38.2927  11
   1 -11  -1 720.928 71.1673  11
   1 -11  -1 848.917 84.3642   2
  -1 -11   1 665.288 77.2203   2
  -1 -11   1 776.483 78.4870  11
  -1 -11   0 244.341 53.4340   2
   1 -11   0 293.283 54.9546   2
  -1 -11   0 236.209 46.5108  11
   1 -11   0 292.602 50.3460  11
   1 -11   1 935.823 82.3930  11
  -1 -11  -1 874.321 87.2834   2
   1 -11   1 881.078 87.0206   2
  -1 -11  -1 785.978 76.9949  11
  -1 -11  -2 315.357 58.3908   2
   1 -11   2 458.072 60.8701  11
  -1 -11  -2 375.964 51.2527  11
  -1 -11  -3 337.573 49.7830  11
   1 -11   3 258.972 51.1313  11
   1 -11   3 390.473 59.4526   6
  -1 -11  -3 290.986 57.0658   2
   1 -11   3 378.925 50.3191   3
  -1 -11  -4 483.679 53.8005  11
   1 -11   4 511.982 69.8879  11
   1 -11   4 504.210 66.0531   6
  -1 -11  -4 459.374 65.3689   2
   1 -11   4 540.529 58.4704   3
   1 -11   4 572.331 72.7789   2
   1 -11   5 360.604 58.9619  11
  -1 -11  -5 378.929 60.3515   2
   1 -11   5 302.288 57.8032   2
   1 -11   5 323.094 47.5856   3
   1 -11   5 409.120 62.4665   6
   1 -11   6 669.393 76.9962   6
  -1 -11  -6 655.532 77.1080   2
   1 -11   6 692.859 68.2030   3
   1 -11   7 299.050 60.8054   6
  -1 -11  -7 256.152 51.3043   2
   1 -11   7 316.401 49.4649   3
   1 -11   8 693.487 70.4921   3
  -1 -10   8 663.773 61.0240   3
  -1 -10   8 562.181 77.3304   6
  -1 -10   8 708.117 80.4704  11
  -1 -10   7-9.69250 31.3776   2
   1 -10  -7 12.2558 29.8995   2
  -1 -10   7 2.88094 23.8794   3
  -1 -10   7 16.2598 36.5249   6
  -1 -10   7-5.44349 35.2445  11
  -1 -10   6 702.522 81.5180   6
   1 -10  -6 792.836 75.3788   2
  -1 -10   6 737.014 58.9370   3
  -1 -10   6 698.754 75.2681   2
  -1 -10   5 196.747 47.9700  11
   1 -10  -5 180.136 33.3116  11
  -1 -10   5 145.525 46.8214   6
  -1 -10   5 222.444 48.5345   2
  -1 -10   5 246.458 35.2163   3
   1 -10  -5 180.677 43.3203   2
  -1 -10   4 1048.25 89.6403  11
  -1 -10   4 965.148 63.9642   3
  -1 -10   4 949.102 86.9702   2
   1 -10  -4 921.920 82.6631   2
   1 -10  -4 870.407 67.0894  11
  -1 -10   3 75.9058 25.4657   3
   1 -10  -3 32.2953 33.0483   2
   1 -10  -3 26.2542 25.0732  11
  -1 -10   3 77.3004 35.7639  11
  -1 -10   3 51.6944 23.9498   9
  -1 -10   3 64.4130 35.0840   2
  -1 -10   2 1094.83 88.1704  11
   1 -10  -2 1232.99 92.6863   2
  -1 -10   2 962.220 66.1498   9
   1 -10  -2 1108.96 79.3170  11
  -1 -10   1 377.186 55.4410  11
   1 -10  -1 413.496 58.1455   2
   1 -10  -1 402.924 52.6122  11
  -1 -10   1 423.894 60.4770   2
  -1 -10   0 1742.67 113.286   2
   1 -10   0 1544.73 107.027   2
   1 -10   0 1600.17 99.6910  11
  -1 -10   0 1569.06 101.837  11
   1 -10   1 566.438 67.0159   2
  -1 -10  -1 538.867 66.2266   2
  -1 -10  -1 480.836 56.7965  11
   1 -10   1 545.104 61.0629  11
   1 -10   2 890.420 63.9176   9
  -1 -10  -2 1042.33 88.8427   2
  -1 -10  -2 949.865 75.2113  11
   1 -10   2 1117.31 85.5155  11
   1 -10   3 821.861 77.0264   6
   1 -10   3 793.010 76.3508  11
  -1 -10  -3 806.558 67.4197  11
   1 -10   3 870.910 57.0200   9
  -1 -10  -3 932.282 84.0302   2
   1 -10   4 923.117 84.4146  11
   1 -10   4 915.194 82.3059   6
   1 -10   4 958.921 73.5057   3
  -1 -10  -4 892.761 82.3773   2
   1 -10   4 949.112 86.9071   2
  -1 -10  -4 750.008 64.4580  11
   1 -10   5 696.083 74.6273  11
  -1 -10  -5 602.403 53.6504  11
   1 -10   5 626.593 71.3820   6
   1 -10   5 712.234 66.0469   3
   1 -10   5 673.326 75.5314   2
  -1 -10  -5 586.316 67.9974   2
  -1 -10  -6 290.950 52.9106   2
   1 -10   6 340.073 49.9038   3
   1 -10   6 304.890 54.3734   6
   1 -10   7 571.845 74.6153   6
   1 -10   7 702.873 77.8055  11
   1 -10   7 613.467 65.7920   3
  -1 -10  -7 610.975 68.0150   2
   1 -10   8 71.4609 38.0282  11
   1 -10   8 59.3102 42.7968   6
  -1 -10  -8 29.6532 32.3779   2
   1 -10   9 321.392 54.1545   3
   1 -10  10-4.41051 37.1722   3
  -1  -9  10-5.23013 37.4372  11
  -1  -9   9 514.821 73.9574   6
  -1  -9   9 519.438 67.4645  11
  -1  -9   8 22.0386 26.3164   3
   1  -9  -8-3.42219 26.8848   2
  -1  -9   8 4.25922 29.4297   2
  -1  -9   8-5.29059 36.9992   6
  -1  -9   8-5.13149 33.6828  11
  -1  -9   7 805.443 83.0100   6
  -1  -9   7 905.667 81.1227   2
  -1  -9   7 958.128 69.0492   3
   1  -9  -7 726.602 68.6284   2
  -1  -9   7 824.140 81.1277  11
   1  -9  -6 3.73245 16.8491  11
  -1  -9   6-14.6003 34.8361   6
  -1  -9   6 2.67230 22.7062   3
  -1  -9   6 8.85049 28.6517   2
   1  -9  -6-15.2053 27.8213   2
  -1  -9   5 1127.84 89.8887   6
   1  -9  -5 874.613 59.8293  11
  -1  -9   5 733.998 35.3051   9
  -1  -9   5 1093.86 86.0672   2
  -1  -9   5 1149.97 67.4355   3
   1  -9  -5 1256.89 85.7811   2
  -1  -9   4 22.8388 27.4564  11
   1  -9  -4 34.1401 21.4114  11
   1  -9  -4 28.1977 27.1588   2
  -1  -9   4 53.2629 30.3038   2
  -1  -9   4 36.7449 21.4779   3
   1  -9  -3 2184.23 104.349  11
  -1  -9   3 2193.43 122.059  11
   1  -9  -3 2276.28 121.055   2
  -1  -9   3 2286.29 95.5323   3
  -1  -9   3 2155.76 88.7484   9
   1  -9  -3 2090.66 95.1189   1
   1  -9  -2 3.16575 22.4019  11
  -1  -9   2-4.20362 23.5710  11
  -1  -9   2 9.81978 21.6847  14
  -1  -9   2-14.4215 28.1216   9
   1  -9  -2 25.0606 28.1476   2
   1  -9  -2 29.4538 19.6435   1
   1  -9  -1 1938.74 97.8460   1
  -1  -9   1 2034.15 91.1592  14
  -1  -9   1 2258.73 117.990  11
   1  -9  -1 1987.77 104.668  11
  -1  -9   1 1971.71 93.6196   9
  -1  -9   1 2249.86 121.929   2
   1  -9  -1 2152.18 118.112   2
  -1  -9   0 472.576 55.0266  11
   1  -9   0 512.716 54.0617  11
  -1  -9   0 478.190 40.9220  14
   1  -9   0 457.462 48.6366   1
   1  -9   0 520.123 59.8195   2
  -1  -9   0 510.935 60.5528   2
   1  -9   1 1504.49 82.1497   9
  -1  -9  -1 1615.21 95.6541  11
  -1  -9  -1 1619.88 71.3881  14
   1  -9   1 1666.59 105.661   2
  -1  -9  -1 1685.68 105.906   2
  -1  -9  -2 581.175 63.4145   2
   1  -9   2 429.332 54.8154  11
  -1  -9  -2 537.733 54.7293  11
   1  -9   2 560.238 47.2163   9
   1  -9   3 694.541 49.8791   9
   1  -9   3 840.133 72.6158  11
  -1  -9  -3 809.816 63.1276  11
  -1  -9  -3 734.829 71.4669   2
  -1  -9  -4 1569.41 87.1510  11
   1  -9   4 1576.47 103.325  11
   1  -9   4 1691.96 105.417   6
   1  -9   4 1668.36 93.2234   3
   1  -9   4 1917.20 113.669   2
  -1  -9  -4 1684.12 104.540   2
   1  -9   5 801.688 75.7404   6
  -1  -9  -5 614.912 51.5781  11
   1  -9   5 755.283 73.9301  11
   1  -9   5 601.695 33.3449   9
  -1  -9  -5 754.967 71.5309   2
   1  -9   5 745.296 65.1207   3
   1  -9   5 775.989 74.8460   2
   1  -9   6 1057.27 89.5111   6
   1  -9   6 1227.23 84.1818   3
  -1  -9  -6 1122.53 85.6416   2
   1  -9   7 101.467 40.4288   6
   1  -9   7 88.9296 36.5960  11
  -1  -9  -7 67.6843 33.0522   2
   1  -9   7 60.9530 32.1598   3
   1  -9   8 939.386 87.8139  11
   1  -9   8 868.266 86.0305   6
   1  -9   8 896.151 95.5163   7
  -1  -9  -8 882.449 76.2327   2
   1  -9   8 974.318 80.6023   3
   1  -9   9 26.8607 37.5738   6
   1  -9   9 39.2692 42.8095   7
   1  -9   9 33.9913 32.1002   3
   1  -9   9 5.19187 30.6918  11
   1  -9  10 519.370 66.3369   3
   1  -9  10 430.202 66.5102  11
  -1  -8  11 135.093 43.6793  11
  -1  -8  10 794.097 87.3182   6
  -1  -8  10 725.918 75.1913  11
  -1  -8   9 46.9779 38.6363   6
  -1  -8   9 57.2565 32.9926  11
  -1  -8   8 1589.48 112.335   6
  -1  -8   8 1436.64 104.216  11
   1  -8  -8 1367.65 86.3003   2
  -1  -8   8 1688.01 102.812   2
  -1  -8   8 1571.85 92.7588   3
  -1  -8   7 142.149 40.7524  11
  -1  -8   7 229.365 43.6274   2
   1  -8  -7 263.533 41.2191   2
  -1  -8   7 180.932 35.2148   3
  -1  -8   7 131.612 42.6760   6
   1  -8  -6 1564.33 68.9465  11
  -1  -8   6 1809.36 110.598  11
  -1  -8   6 1790.22 111.246   6
   1  -8  -6 1622.91 94.2818   2
  -1  -8   6 1664.35 100.854   2
  -1  -8   6 1793.54 88.2175   3
  -1  -8   5 159.355 29.3623   3
  -1  -8   5 80.0966 35.3192   6
   1  -8  -5 114.727 24.4092  11
  -1  -8   5 79.1329 11.8506   9
   1  -8  -5 141.387 33.7832   2
   1  -8  -5 111.636 19.6263   1
  -1  -8   5 129.287 36.2016   2
   1  -8  -4 1315.10 68.9743  11
  -1  -8   4 1296.69 88.4576  11
  -1  -8   4 1344.95 88.4603   2
   1  -8  -4 1333.07 84.5164   2
  -1  -8   4 1142.22 64.8653   3
  -1  -8   4 1131.85 51.2274   9
   1  -8  -4 1111.53 59.1912   1
   1  -8  -3 225.026 33.2700  11
  -1  -8   3 240.424 42.7291  11
  -1  -8   3 256.892 36.0960  14
  -1  -8   3 250.350 32.1327   3
   1  -8  -3 311.231 45.7582   2
   1  -8  -3 250.132 30.5362   1
  -1  -8   3 215.402 40.7465   2
   1  -8  -2 2641.63 107.225   1
  -1  -8   2 2818.55 111.559  14
  -1  -8   2 2854.45 132.852  11
   1  -8  -2 2639.69 116.050  11
  -1  -8   2 2714.41 102.864   9
   1  -8  -2 2752.86 130.214   2
   1  -8  -1 132.421 28.6237  11
  -1  -8   1 182.243 36.2126  11
  -1  -8   1 207.989 29.5758  14
   1  -8  -1 161.098 32.0171   9
  -1  -8   1 199.999 30.4314   9
   1  -8  -1 216.502 39.0729   2
  -1  -8   1 142.769 35.3369   2
   1  -8  -1 178.208 29.5872   1
   1  -8   0 1693.79 87.7083   1
  -1  -8   0 1828.14 77.5814  14
   1  -8   0 1663.23 85.0972   9
   1  -8   0 1764.76 94.6322  11
  -1  -8   0 1772.56 97.2728  11
  -1  -8   0 1659.12 84.5534   9
  -1  -8   0 1821.17 103.207   2
   1  -8   0 1761.80 100.610   2
   1  -8   1 582.815 53.6757   1
   1  -8   1 671.688 57.9626  11
   1  -8   1 654.890 49.3323   9
  -1  -8  -1 561.013 54.2898  11
  -1  -8  -1 588.797 39.9720  14
  -1  -8  -1 570.306 51.3817   9
  -1  -8  -1 654.986 60.7687   2
   1  -8   1 667.238 62.4162   2
  -1  -8  -2 1717.05 91.5163  11
   1  -8   2 1838.54 100.424  11
   1  -8   2 1793.08 79.4678   9
  -1  -8  -2 1686.39 65.9036  14
  -1  -8  -2 1674.42 98.9925   2
   1  -8   3 918.475 71.1590  11
  -1  -8  -3 803.374 58.4361  11
  -1  -8  -3 742.927 36.6647  14
  -1  -8  -3 915.062 70.7230   2
   1  -8   4 1779.83 101.007   6
   1  -8   4 1584.15 65.8556   9
   1  -8   4 1726.67 91.7166   3
   1  -8   4 1865.15 107.149   2
  -1  -8  -4 1926.70 104.479   2
   1  -8   4 1906.08 105.733  11
  -1  -8  -4 1616.15 82.9662  11
   1  -8   5 569.208 62.1659   6
  -1  -8  -5 452.343 42.0953  11
   1  -8   5 508.309 26.8524   9
   1  -8   5 635.696 57.7993   3
  -1  -8  -5 523.829 57.1143   2
   1  -8   5 602.114 61.5479   2
   1  -8   6 228.133 45.1668   6
  -1  -8  -6 184.490 27.2553  11
  -1  -8  -6 213.728 40.1655   2
   1  -8   6 226.481 41.5254   3
   1  -8   7 868.561 79.2932  11
   1  -8   7 1009.01 84.6906   6
  -1  -8  -7 837.745 69.6471   2
   1  -8   7 1009.87 77.6592   3
   1  -8   8 234.329 52.8572   7
   1  -8   8 182.318 47.8908   6
   1  -8   8 181.135 44.1505  11
  -1  -8  -8 125.502 33.9690   2
   1  -8   8 146.301 38.3613   3
   1  -8   9 1206.62 96.9740  11
   1  -8   9 1061.16 93.7128   6
   1  -8   9 1042.56 101.059   7
   1  -8   9 1249.12 93.5768   3
  -1  -8  -9 1000.66 74.5801   2
   1  -8  10-10.8349 39.6494   6
   1  -8  10 5.55676 41.5438   7
   1  -8  10 13.4807 35.6331   3
   1  -8  10 14.5229 31.3436  11
   1  -8  11 1081.42 92.8737  11
  -1  -7  12 265.346 49.4155  11
  -1  -7  11 632.687 67.5795  11
  -1  -7  10 406.188 55.6147  11
  -1  -7   9 666.105 76.5176   6
  -1  -7   9 770.387 73.9298  11
  -1  -7   8 46.6771 29.6852  11
   1  -7  -8 30.1042 22.3365   2
  -1  -7   8 25.2316 26.3739   3
  -1  -7   8 27.6291 34.0750   6
   1  -7  -7 3171.83 126.753  12
   1  -7  -7 2891.79 124.132   5
  -1  -7   7 3397.82 152.913  11
  -1  -7   7 3194.83 153.232   6
  -1  -7   7 3438.63 135.039   3
  -1  -7   7 3406.58 143.484   2
   1  -7  -7 3146.20 128.844   2
   1  -7  -6 98.6754 28.8822   6
   1  -7  -6 150.691 32.3741  12
  -1  -7   6 106.199 36.9460   6
   1  -7  -6 87.6833 17.6760  11
  -1  -7   6 71.7394 30.4945  11
   1  -7  -6 54.7453 29.4563   4
  -1  -7   6 106.106 27.8927   3
  -1  -7   6 91.9937 30.1792   2
   1  -7  -6 95.6158 17.2380   1
   1  -7  -6 99.9635 29.3253   2
   1  -7  -5 3762.36 140.542  12
   1  -7  -5 3574.26 119.746  11
   1  -7  -5 3151.06 112.087   1
  -1  -7   5 3941.54 161.520   6
  -1  -7   5 4148.30 157.246   2
   1  -7  -5 3588.64 144.227   2
  -1  -7   5 3793.24 134.590   3
  -1  -7   4 311.325 43.2017   2
   1  -7  -4 300.430 29.7964   1
   1  -7  -4 283.658 40.0353   2
  -1  -7   4 299.837 40.8513  14
   1  -7  -4 302.316 38.6416  12
   1  -7  -4 304.443 32.2570  11
  -1  -7   4 307.881 44.8234  11
  -1  -7   4 325.293 45.4169  10
  -1  -7   4 324.087 24.9363   9
  -1  -7   4 294.552 34.0159   3
   1  -7  -3 3489.87 124.812   1
  -1  -7   3 3810.80 139.684  14
   1  -7  -3 3802.50 144.889  12
  -1  -7   3 3698.55 145.749  12
   1  -7  -3 3650.20 134.310  11
  -1  -7   3 4022.78 147.808   5
   1  -7  -3 3917.64 148.838   9
  -1  -7   3 3783.56 156.029  11
  -1  -7   3 4004.02 156.084  10
  -1  -7   3 3763.79 119.426   9
   1  -7  -3 3715.68 150.279   2
  -1  -7   3 3975.37 156.829   2
  -1  -7   3 3818.13 129.498   3
  -1  -7   2 863.159 56.1092  14
   1  -7  -2 973.125 64.6090  12
   1  -7  -2 958.209 59.3449  11
  -1  -7   2 909.625 66.5966  11
   1  -7  -2 954.785 65.0306   9
  -1  -7   2 987.271 66.8443  10
   1  -7  -2 873.083 64.6827   2
   1  -7  -2 964.862 54.6232   1
   1  -7  -1 1856.25 83.8592   1
  -1  -7   1 1997.66 82.7581  14
   1  -7  -1 1953.61 94.7551  12
  -1  -7   1 1902.99 93.2166  12
  -1  -7   1 1895.23 93.8689   5
   1  -7  -1 1784.81 89.0434  11
  -1  -7   1 1945.22 94.6537  10
   1  -7  -1 1858.16 88.6673   9
  -1  -7   1 1857.89 80.6061   9
  -1  -7   1 2130.76 105.132   2
   1  -7  -1 1906.35 98.7474   2
   1  -7   0 1168.36 66.5952   1
  -1  -7   0 1194.41 58.0440  14
  -1  -7   0 1259.93 72.7610  12
   1  -7   0 1259.50 73.4830  12
  -1  -7   0 1296.86 74.9191   5
   1  -7   0 1167.90 71.7138  11
   1  -7   0 1185.00 65.6904   9
  -1  -7   0 1063.50 62.8703   9
   1  -7   0 1226.03 77.8668   2
  -1  -7   0 1258.39 79.2202   2
   1  -7   1 1624.30 83.0638   1
  -1  -7  -1 1635.06 65.7695  14
   1  -7   1 1561.10 84.2335  12
  -1  -7  -1 1634.02 84.5462  12
  -1  -7  -1 1519.03 82.3766   5
   1  -7   1 1593.73 86.7394  11
   1  -7   1 1590.75 74.6050   9
  -1  -7  -1 1683.54 80.9077   9
  -1  -7  -1 1642.01 91.5162   2
   1  -7   1 1537.04 89.8340   2
  -1  -7  -2 214.252 22.3426  14
  -1  -7  -2 219.975 34.4940  12
  -1  -7  -2 182.978 34.1881   5
   1  -7   2 217.116 35.6464  11
  -1  -7  -2 173.002 31.6864   9
  -1  -7  -2 194.591 34.3055   2
   1  -7   2 235.592 35.1470   1
  -1  -7  -3 115.066 16.2444  14
   1  -7   3 146.722 31.2080  12
  -1  -7  -3 176.143 32.5287  12
  -1  -7  -3 109.149 29.4354   5
  -1  -7  -3 137.259 26.9905  11
   1  -7   3 151.893 33.3510  11
   1  -7   3 147.192 21.7041   9
  -1  -7  -3 151.731 31.2588   9
   1  -7   3 166.016 34.1334   1
  -1  -7  -3 173.958 34.1355   2
   1  -7   4 980.962 70.7464   2
   1  -7   4 926.436 62.0667   3
  -1  -7  -4 818.453 63.2916   2
  -1  -7  -4 625.983 29.8857  14
  -1  -7  -4 791.603 57.9459  12
   1  -7   4 859.370 62.5700  12
  -1  -7  -4 742.198 58.5952   5
   1  -7   4 899.686 67.7982  11
  -1  -7  -4 769.497 51.2708  11
   1  -7   4 861.942 40.1302   9
   1  -7   4 976.128 68.8427   6
  -1  -7  -5 71.0454 26.5686   2
  -1  -7  -5 35.1238 7.83642  14
  -1  -7  -5 38.5241 22.9808  12
   1  -7   5 75.7693 31.4149   6
  -1  -7  -5 69.6114 27.5632   5
  -1  -7  -5 76.3479 20.7261  11
   1  -7   5 58.2015 10.1452   9
   1  -7   5 55.3964 10.5840   9
   1  -7   5 106.398 32.7228   2
   1  -7   5 93.0018 30.0480   3
  -1  -7  -6 638.436 53.0254  12
   1  -7   6 889.719 71.3391  11
  -1  -7  -6 690.455 55.6971   5
  -1  -7  -6 633.301 41.7193  11
   1  -7   6 867.185 65.7527   3
  -1  -7  -6 806.030 63.4460   2
   1  -7   6 945.296 74.0373   6
  -1  -7  -7 556.403 46.3871  12
  -1  -7  -7 403.075 28.3475  11
   1  -7   7 595.171 61.9739  11
  -1  -7  -7 500.165 51.5488   2
   1  -7   7 667.270 63.3036   3
   1  -7   7 534.683 62.9088   6
  -1  -7  -7 512.032 46.4040   5
   1  -7   8 776.878 71.9458  11
   1  -7   8 693.778 68.7075   3
  -1  -7  -8 710.458 60.1303   2
   1  -7   8 734.717 78.1077   7
   1  -7   8 788.568 76.7883   6
   1  -7   9 54.6378 42.9007   7
   1  -7   9 57.8261 36.4247   6
   1  -7   9 56.2946 32.7377  11
   1  -7   9 62.3636 35.0658   3
  -1  -7  -9 52.6147 24.3135   2
   1  -7  10 1203.23 92.3539  11
   1  -7  10 1100.96 91.2624   3
   1  -7  10 953.131 98.9891   7
   1  -7  10 1250.04 101.463   6
   1  -7  11 31.1942 31.9002  11
   1  -7  11 16.7248 42.1131   7
   1  -7  11-5.48937 38.8453   6
   1  -7  12 557.961 65.6565  11
  -1  -6  12 510.580 60.4287  11
  -1  -6  12 590.086 76.8380   6
  -1  -6  11 94.5233 34.8611  11
  -1  -6  10 973.899 78.6667  11
  -1  -6   9-7.73072 26.3827  11
   1  -6  -9 20.7750 17.2274   2
  -1  -6   9 30.7123 24.6038   5
   1  -6  -8 1754.11 82.3692  12
  -1  -6   8 1749.62 91.7665  12
  -1  -6   8 1782.12 88.1634   5
  -1  -6   8 1863.26 105.010  11
   1  -6  -8 1686.87 80.5643   2
  -1  -6   8 1913.26 112.795   6
   1  -6  -7 73.3324 26.7281   6
  -1  -6   7 92.5423 26.6293  12
   1  -6  -7 125.719 27.4993  12
  -1  -6   7 134.650 37.3190   6
  -1  -6   7 123.813 28.9341   5
  -1  -6   7 58.7427 29.1939  11
  -1  -6   7 92.2669 27.3883   2
  -1  -6   7 80.1410 26.9260   3
   1  -6  -7 73.2662 16.0040   1
   1  -6  -7 104.781 25.0948   2
  -1  -6   6 2604.44 124.654   6
   1  -6  -6 2420.13 101.686   6
  -1  -6   6 2518.92 107.408  12
   1  -6  -6 2405.12 75.1965  11
   1  -6  -6 2643.26 103.919  12
   1  -6  -6 2254.72 103.915   4
  -1  -6   6 2580.31 106.817   5
  -1  -6   6 2623.70 122.728  11
  -1  -6   6 2627.31 107.195   3
  -1  -6   6 2873.96 117.012   2
   1  -6  -6 2505.04 103.917   2
   1  -6  -6 1964.28 78.0447   1
   1  -6  -5 411.981 30.5952   1
  -1  -6   5 539.275 52.0949  14
   1  -6  -5 571.034 33.3412  11
   1  -6  -5 570.171 47.1566  12
  -1  -6   5 499.998 46.1070  12
   1  -6  -5 501.293 45.3142   4
  -1  -6   5 508.331 47.1131   5
  -1  -6   5 647.087 57.9488  10
  -1  -6   5 537.664 54.7505   6
   1  -6  -5 598.220 47.8325   2
  -1  -6   5 572.424 44.3357   3
  -1  -6   5 515.343 50.2605   2
   1  -6  -4 1038.67 50.3144   1
  -1  -6   4 1219.43 68.5710  14
   1  -6  -4 980.238 61.8784  12
   1  -6  -4 1059.60 52.9631  11
  -1  -6   4 1146.49 67.1115  12
  -1  -6   4 1237.73 68.5498   5
  -1  -6   4 1158.71 73.8079  10
  -1  -6   4 1133.10 41.5427   9
  -1  -6   4 1235.58 61.5284   3
   1  -6  -4 1134.32 67.4821   2
  -1  -6   4 1200.21 72.4363   2
   1  -6  -3 365.989 29.8332   1
  -1  -6   3 350.086 36.9617  14
  -1  -6   3 310.828 36.4981  12
   1  -6  -3 389.886 39.7511  12
   1  -6  -3 392.476 32.3619  11
  -1  -6   3 330.039 37.4101   5
  -1  -6   3 336.895 40.4909  11
  -1  -6   3 401.321 42.8511  10
  -1  -6   3 333.423 25.8070   9
  -1  -6   3 365.972 41.0883   2
  -1  -6   3 397.848 32.9139   3
   1  -6  -3 345.541 37.4965   2
   1  -6  -2 4309.38 138.404   1
  -1  -6   2 4476.19 145.228  14
   1  -6  -2 4142.43 150.266  12
   1  -6  -2 4211.44 144.781  11
   1  -6  -2 4324.31 151.660   9
  -1  -6   2 4438.83 157.845  10
  -1  -6   2 4148.49 131.670   9
   1  -6  -2 4240.05 156.432   2
  -1  -6   1 271.769 29.1676  14
  -1  -6   1 243.895 32.1069  12
   1  -6  -1 294.547 34.5069  12
  -1  -6   1 296.604 35.4610   5
   1  -6  -1 316.514 33.7876   9
  -1  -6   1 293.400 34.5852  10
   1  -6  -1 287.817 31.7124  11
   1  -6  -1 251.199 29.1039   1
   1  -6  -1 281.441 36.0061   2
  -1  -6   1 272.401 35.6747   2
  -1  -6   0 2169.03 80.7003  14
   1  -6   0 1908.03 91.4482  12
  -1  -6   0 2230.38 95.4719  12
  -1  -6   0 2248.35 95.7892   5
   1  -6   0 1990.69 92.2329  11
  -1  -6   0 2172.81 92.2526  10
   1  -6   0 2084.51 98.9589   2
  -1  -6   0 2063.00 99.2490   2
   1  -6   0 2199.55 90.3498   1
   1  -6   1 889.717 56.2440   1
  -1  -6  -1 942.345 44.4081  14
  -1  -6  -1 903.471 57.0274  12
   1  -6   1 909.251 58.2071  12
  -1  -6  -1 840.586 55.6778   5
   1  -6   1 954.598 60.3694  11
  -1  -6  -1 866.119 51.4649  10
  -1  -6  -1 958.246 55.5208   9
   1  -6   1 1041.42 65.1295   2
  -1  -6  -1 828.875 59.2463   2
   1  -6   2 1940.62 90.8933   1
  -1  -6  -2 1841.34 66.1766  14
  -1  -6  -2 1846.86 86.3504  12
  -1  -6  -2 1831.18 86.0989   5
   1  -6   2 1995.81 75.8880   9
   1  -6   2 1935.36 93.4828  11
  -1  -6  -2 1933.06 87.6847   9
  -1  -6  -2 1991.33 95.1965   2
   1  -6   3 1761.80 88.5751   1
  -1  -6  -3 1556.81 56.3622  14
  -1  -6  -3 1681.43 79.2166  12
   1  -6   3 1727.73 83.3236  12
  -1  -6  -3 1693.94 80.9854   5
   1  -6   3 1605.11 86.6621  11
   1  -6   3 1688.34 64.2648   9
  -1  -6  -3 1683.74 87.0980   2
   1  -6   3 1838.71 88.8523   6
   1  -6   4 2282.49 107.978   1
  -1  -6  -4 2082.68 68.0788  14
  -1  -6  -4 2068.76 92.7157  12
   1  -6   4 2346.37 99.6531  12
  -1  -6  -4 2133.96 94.3222   5
   1  -6   4 2278.05 71.9209   9
   1  -6   4 2426.01 109.513   2
  -1  -6  -4 2231.57 102.931   2
   1  -6   4 2487.25 103.776   3
   1  -6   4 2420.98 108.980   6
  -1  -6  -5 911.031 36.3051  14
   1  -6   5 1041.52 63.4651  12
  -1  -6  -5 1041.18 59.2122  12
  -1  -6  -5 909.974 63.4609   4
  -1  -6  -5 940.570 48.5879  11
  -1  -6  -5 998.856 64.7943   2
   1  -6   5 1009.84 67.2368   3
   1  -6   5 1093.39 70.6883   2
   1  -6   5 1005.30 70.1146   6
  -1  -6  -6 310.315 22.3865  14
   1  -6   6 363.077 39.8304  12
  -1  -6  -6 342.906 36.3114  12
  -1  -6  -6 306.449 36.0100   5
  -1  -6  -6 302.576 26.0308  11
   1  -6   6 450.933 50.0798  11
  -1  -6  -6 384.811 42.1239   2
   1  -6   6 382.589 45.2621   3
   1  -6   6 445.458 50.8303   6
  -1  -6  -7 506.686 30.2596  14
  -1  -6  -7 500.412 29.6987  14
  -1  -6  -7 378.290 23.1526  11
  -1  -6  -7 562.749 43.2404  12
   1  -6   7 691.545 51.2146  12
   1  -6   7 580.798 58.0834  11
   1  -6   7 603.270 51.7168   5
  -1  -6  -7 536.854 43.5296   5
   1  -6   7 725.928 62.3453   3
  -1  -6  -7 595.572 50.4121   2
   1  -6   7 613.027 62.1893   6
   1  -6   7 575.789 63.5501   7
  -1  -6  -8 119.315 27.7117   2
  -1  -6  -8 110.462 18.6787  14
   1  -6   8 189.949 31.9726  12
   1  -6   8 222.106 44.1898   6
   1  -6   8 103.912 32.2599   5
   1  -6   8 142.570 34.2603  11
   1  -6   8 97.4869 33.7577   3
   1  -6   8 194.424 47.1927   7
   1  -6   9 804.570 57.1281  12
   1  -6   9 849.824 72.9884  11
   1  -6   9 741.504 57.3046   5
  -1  -6  -9 743.685 55.0920   2
   1  -6   9 853.903 77.3471   3
   1  -6   9 874.135 82.6737   7
   1  -6   9 846.636 79.3733   6
   1  -6  10 49.1273 35.1683   6
   1  -6  10 22.2238 32.8856   3
   1  -6  10 9.98505 36.5425   7
   1  -6  10 7.92519 26.0146  11
   1  -6  11 799.414 72.7822  11
   1  -6  11 698.850 78.6620   6
   1  -6  11 806.280 87.5989   7
   1  -6  12 19.9796 28.9258  11
   1  -6  12-5.65391 45.2472   7
   1  -6  12-27.9242 40.4278   6
  -1  -5  12 133.053 34.9030  11
  -1  -5  12 169.019 49.8088   6
  -1  -5  11 546.925 69.1046   6
  -1  -5  11 543.602 57.5375  11
  -1  -5  10 41.2919 26.7943  11
  -1  -5   9 962.795 57.2063   5
  -1  -5   9 1101.10 75.4721  11
   1  -5  -9 1064.85 44.8661  14
   1  -5  -8 82.8218 14.5867  14
   1  -5  -8 82.9660 21.3094  12
   1  -5  -8 97.7100 21.1682   5
  -1  -5   8 102.375 25.9472   5
  -1  -5   8 69.7607 28.7503  11
   1  -5  -8 92.3503 20.2409   2
   1  -5  -8 74.6186 18.3693   1
   1  -5  -7 2708.10 76.8715  14
  -1  -5   7 3054.46 114.902  12
   1  -5  -7 2866.95 104.976  12
   1  -5  -7 2892.62 121.845   4
  -1  -5   7 3175.47 112.263   5
  -1  -5   7 3130.39 130.947  11
  -1  -5   7 3293.95 136.782  10
   1  -5  -7 2928.07 114.208   6
   1  -5  -7 2919.15 104.360   2
  -1  -5   7 3318.57 119.355   2
  -1  -5   7 3013.18 122.972   3
   1  -5  -6 220.835 28.4450   2
   1  -5  -6 218.771 22.7709   1
   1  -5  -6 255.197 32.1854   6
   1  -5  -6 223.268 29.8775  12
  -1  -5   6 281.428 34.2601  12
  -1  -5   6 252.317 39.6049   6
  -1  -5   6 185.675 30.8748   5
  -1  -5   6 184.419 33.4285  11
   1  -5  -6 136.891 36.2290   9
  -1  -5   6 279.844 35.0415   2
  -1  -5   6 253.602 34.0355   3
   1  -5  -6 195.176 34.7099   4
   1  -5  -5 3329.34 111.349   1
  -1  -5   5 3868.07 140.593  14
   1  -5  -5 3523.35 126.725  12
   1  -5  -5 3654.02 106.788  11
  -1  -5   5 3668.29 132.044  12
  -1  -5   5 3925.41 132.540   5
   1  -5  -5 3663.57 130.770   4
   1  -5  -5 3517.58 139.864   9
  -1  -5   5 3926.29 148.168  11
  -1  -5   5 3637.57 146.678   6
   1  -5  -5 3741.64 127.982   6
  -1  -5   5 3731.58 130.604   3
   1  -5  -5 3619.17 128.864   2
  -1  -5   5 3929.32 139.164   2
  -1  -5   4 498.791 36.8567   3
   1  -5  -4 527.954 40.5692   2
  -1  -5   4 594.223 45.5456   2
   1  -5  -4 438.549 29.5868   1
  -1  -5   4 536.363 44.1868  14
   1  -5  -4 512.516 40.7359  12
  -1  -5   4 527.432 42.1828  12
   1  -5  -4 450.156 29.4035  11
  -1  -5   4 519.728 41.5316   5
  -1  -5   4 548.526 46.9128  10
   1  -5  -4 475.891 43.3915   9
  -1  -5   4 455.168 20.1862   9
  -1  -5   4 456.240 44.2025   6
   1  -5  -3 5952.83 172.890   1
  -1  -5   3 6083.76 189.228  14
   1  -5  -3 5923.67 187.526  12
   1  -5  -3 5888.91 175.798  11
  -1  -5   3 6204.74 190.745  12
  -1  -5   3 6390.05 191.234   5
   1  -5  -3 5969.12 179.146   4
  -1  -5   3 6016.15 199.086  10
  -1  -5   3 6002.77 163.501   9
   1  -5  -3 5918.93 191.020   2
  -1  -5   3 6290.84 197.276   2
  -1  -5   3 6076.83 177.305   3
   1  -5  -2 440.986 31.3424   1
   1  -5  -2 420.125 36.7942  12
  -1  -5   2 446.471 35.6945  14
  -1  -5   2 484.326 40.5765  10
   1  -5  -2 429.187 32.1969  11
  -1  -5   2 428.729 27.9837   9
   1  -5  -2 421.292 37.8071   2
   1  -5  -1 4006.53 132.166   1
   1  -5  -1 4024.07 139.652  12
  -1  -5   1 4310.68 143.097  10
   1  -5  -1 4181.98 137.635  11
  -1  -5   1 4207.26 132.388  14
  -1  -5   1 4153.71 128.718   9
   1  -5  -1 3979.98 144.198   2
  -1  -5   1 4117.23 146.577   2
   1  -5   0 3366.03 118.275   1
  -1  -5   0 3482.30 110.885  14
   1  -5   0 3375.81 122.086  11
  -1  -5   0 3472.04 120.554  10
  -1  -5   0 3452.37 115.918   9
  -1  -5   0 3449.09 129.094   2
   1  -5   0 3359.01 127.218   2
  -1  -5  -1 1674.96 61.2552  14
  -1  -5  -1 1676.68 74.7902  12
  -1  -5  -1 1570.91 73.3162   5
   1  -5   1 1646.04 77.1219  11
  -1  -5  -1 1625.04 69.4933  10
   1  -5   1 1785.23 82.4679   2
  -1  -5  -1 1631.46 79.5214   2
   1  -5   1 1568.33 73.5952   1
  -1  -5  -2 582.325 29.6299  14
  -1  -5  -2 568.379 40.8044  12
  -1  -5  -2 543.221 41.4410   5
   1  -5   2 526.991 42.4036  11
  -1  -5  -2 525.392 33.7906  10
  -1  -5  -2 615.669 45.3651   2
   1  -5   2 604.924 44.9538   1
   1  -5   3 569.068 46.5949   1
  -1  -5  -3 570.150 27.9779  14
  -1  -5  -3 445.198 37.9977  12
   1  -5   3 578.295 42.3587  12
  -1  -5  -3 501.075 40.1371   5
   1  -5   3 606.670 46.8059  11
   1  -5   3 589.114 45.8932   6
  -1  -5  -3 508.036 41.4719   2
  -1  -5  -4 3615.32 134.023   2
   1  -5   4 3722.15 134.228   3
   1  -5   4 3862.17 139.133   2
   1  -5   4 3724.01 141.935   1
  -1  -5  -4 3537.63 103.405  14
  -1  -5  -4 3395.47 121.362  12
   1  -5   4 3681.48 128.513  12
  -1  -5  -4 3472.40 122.538   5
  -1  -5  -4 3592.51 131.055   4
   1  -5   4 3496.58 99.2251   9
  -1  -5  -4 3667.45 134.895   9
   1  -5   4 3822.80 140.221   6
  -1  -5  -5 2573.38 106.910   2
   1  -5   5 2619.71 111.727   3
   1  -5   5 2998.66 123.814   1
  -1  -5  -5 2480.54 80.8175  14
  -1  -5  -5 2562.45 96.9783  12
   1  -5   5 2668.58 103.265  12
  -1  -5  -5 2542.67 96.8240   5
  -1  -5  -5 2730.94 111.837   4
   1  -5   5 2694.23 116.018  11
  -1  -5  -5 2530.82 111.139   9
   1  -5   5 2747.92 117.828   6
  -1  -5  -6 942.182 62.2159   6
   1  -5   6 1001.91 69.3850   6
   1  -5   6 923.245 55.3556  12
   1  -5   6 1021.71 67.0140  11
  -1  -5  -6 978.097 51.1265  12
  -1  -5  -6 980.556 66.1599   4
  -1  -5  -6 826.409 49.6306   5
  -1  -5  -6 787.584 36.3206  11
  -1  -5  -6 879.654 65.2579   9
  -1  -5  -6 931.222 57.7797   2
   1  -5   6 1049.43 68.5323   3
  -1  -5  -7 91.8397 23.6065   2
  -1  -5  -7 24.1565 16.3588  14
  -1  -5  -7 64.5003 18.9086  12
   1  -5   7 80.1062 22.6584  12
   1  -5   7 59.9873 23.5851   5
   1  -5   7 74.5514 28.9606   6
  -1  -5  -7 57.9685 19.2353   5
   1  -5   7 91.7792 26.7145  11
   1  -5   7 49.3190 28.2007   3
   1  -5   7 87.8615 33.0854   7
  -1  -5  -8 1056.91 53.0203  14
  -1  -5  -8 913.544 49.4234  12
   1  -5   8 1059.90 73.2172  11
   1  -5   8 1125.58 61.6243  12
  -1  -5  -8 956.496 49.0357   5
   1  -5   8 1001.80 61.2983   5
   1  -5   8 1215.20 82.2126   3
  -1  -5  -8 1055.79 60.3655   2
   1  -5   8 1228.20 86.3048   7
   1  -5   8 1061.00 80.5040   6
  -1  -5  -9 177.358 27.3428   2
  -1  -5  -9 176.251 27.0414  14
   1  -5   9 210.142 29.2194  12
   1  -5   9 167.793 30.2723   5
   1  -5   9 218.896 44.6739   6
   1  -5   9 229.764 39.0972  11
   1  -5   9 264.701 47.2483   3
   1  -5   9 222.532 46.8497   7
   1  -5  10 805.211 68.1794  11
  -1  -5 -10 648.292 48.4047  14
   1  -5  10 730.367 78.0315   7
   1  -5  10 840.348 80.2657   6
   1  -5  11 32.0076 26.0393  11
   1  -5  11 30.6500 40.1378   7
   1  -5  11 30.1877 34.3458   6
   1  -5  12 334.053 65.4366   7
   1  -5  12 440.681 51.7670  11
  -1  -4  13 220.965 54.8110   6
  -1  -4  12 345.620 44.9433  11
  -1  -4  12 395.172 61.9757   6
  -1  -4  11 92.2682 29.3802  11
  -1  -4  11 155.314 45.7854   6
   1  -4 -10 1146.57 61.6348  14
  -1  -4  10 1243.73 75.8230  11
  -1  -4  10 1374.84 94.9525   6
   1  -4  -9 183.724 21.2921  12
   1  -4  -9 201.327 26.6072  14
   1  -4  -9 150.579 25.3715   1
   1  -4  -8 2060.56 74.5742  14
   1  -4  -8 2013.71 73.9300  12
   1  -4  -8 1890.31 66.5717   5
  -1  -4   8 2237.48 100.864  11
   1  -4  -8 1947.06 92.4301   6
   1  -4  -8 1709.86 65.7310   2
   1  -4  -7 52.4734 15.0824  14
   1  -4  -7 47.1056 16.9997  12
   1  -4  -7 76.1832 23.9930   6
   1  -4  -7 76.5812 27.5151   4
  -1  -4   7 80.5807 27.8148  10
  -1  -4   7 46.7969 21.4647  11
   1  -4  -7 44.8756 28.1011   9
   1  -4  -7 60.5205 16.3282   2
  -1  -4   6 3671.71 137.844  14
   1  -4  -6 3415.32 100.714  14
   1  -4  -6 3523.49 116.885  12
   1  -4  -6 3414.21 129.719   4
   1  -4  -6 3578.72 136.883   9
  -1  -4   6 3491.33 136.235  11
  -1  -4   6 3851.46 143.494  10
  -1  -4   6 3776.38 126.397   2
   1  -4  -6 3408.72 114.213   2
  -1  -4   6 3413.11 130.629   3
   1  -4  -6 3601.73 125.075   6
   1  -4  -6 3394.98 132.687   7
   1  -4  -5 418.236 29.5148   1
  -1  -4   5 458.336 42.3949  14
   1  -4  -5 491.658 19.4562  14
   1  -4  -5 451.919 35.2299  12
   1  -4  -5 423.355 37.9406   4
  -1  -4   5 423.690 40.2626  11
   1  -4  -5 473.927 43.4275   9
  -1  -4   5 533.466 39.2888   2
   1  -4  -5 518.123 34.8575   2
  -1  -4   5 490.247 38.5356   3
   1  -4  -5 431.875 41.2728   7
   1  -4  -5 479.328 36.8282   6
  -1  -4   5 479.682 44.4855   6
   1  -4  -4 4364.49 129.636   1
  -1  -4   4 4516.81 150.264  14
   1  -4  -4 4349.90 122.870  11
   1  -4  -4 4185.79 138.718  12
   1  -4  -4 4373.90 141.687   4
  -1  -4   4 4274.12 153.756  10
   1  -4  -4 4384.98 151.270   9
  -1  -4   4 4270.09 154.810   6
  -1  -4   4 4564.30 141.301   3
  -1  -4   4 4656.61 148.115   2
   1  -4  -4 4432.92 140.399   2
   1  -4  -3 243.511 21.6847   1
  -1  -4   3 257.226 29.2441  14
   1  -4  -3 225.471 26.9341  12
   1  -4  -3 245.643 20.4464  11
   1  -4  -3 250.231 25.7810   4
  -1  -4   3 321.932 33.0799  10
  -1  -4   3 270.402 16.6732   9
   1  -4  -3 246.709 26.1855   2
  -1  -4   3 219.276 22.8894   3
  -1  -4   3 336.337 30.6857   2
   1  -4  -2 4021.61 122.510   1
  -1  -4   2 3995.80 130.216  14
   1  -4  -2 4019.43 131.744  12
   1  -4  -2 4114.38 122.389   4
  -1  -4   2 3996.10 136.523  10
   1  -4  -2 3958.29 123.576  11
  -1  -4   2 4095.11 116.023   9
   1  -4  -2 4026.78 133.860   2
  -1  -4   2 4111.71 120.090   3
   1  -4  -1 4285.35 132.785   1
   1  -4  -1 4406.06 140.460  12
  -1  -4   1 4572.12 141.994  10
   1  -4  -1 4252.04 135.029  11
  -1  -4   1 4383.98 134.020  14
  -1  -4   1 4406.00 128.782   9
  -1  -4   1 4399.87 145.984   2
   1  -4  -1 4247.53 142.288   2
   1  -4   0 11248.6 306.463   1
  -1  -4   0 11679.0 298.782  14
  -1  -4   0 11467.7 307.269  10
   1  -4   0 11350.5 309.270  11
  -1  -4   0 11174.1 302.541   9
   1  -4   0 11058.7 314.218   2
  -1  -4   0 11614.4 318.076   2
  -1  -4  -1 1868.35 64.0927  14
  -1  -4  -1 1893.76 75.3770  12
  -1  -4  -1 1774.37 74.6418   5
  -1  -4  -1 1851.35 69.8525  10
   1  -4   1 1853.32 77.5889  11
   1  -4   1 1971.51 81.6064   2
  -1  -4  -1 1793.27 79.2762   2
   1  -4   1 1913.66 77.4442   1
  -1  -4  -2 2030.33 66.1906  14
  -1  -4  -2 2003.63 78.4252  12
  -1  -4  -2 2008.58 79.4927   5
  -1  -4  -2 2016.60 69.9335  10
   1  -4   2 2156.60 86.7081  11
  -1  -4  -2 2020.18 84.8612   2
   1  -4   2 2180.61 87.0408   1
  -1  -4  -3 5505.42 154.301  14
  -1  -4  -3 5568.45 168.413  12
  -1  -4  -3 5675.99 169.932   5
   1  -4   3 5684.25 181.464  11
   1  -4   3 6093.09 183.392   6
   1  -4   3 5950.31 178.829   3
  -1  -4  -3 5823.42 179.155   2
   1  -4   4 3129.91 119.879   1
   1  -4   4 3044.50 116.373   6
  -1  -4  -4 2857.26 99.0750  12
  -1  -4  -4 2790.73 109.456   4
  -1  -4  -4 2910.90 99.9906   5
  -1  -4  -4 2842.37 110.988   9
   1  -4   4 2884.16 78.3243   9
   1  -4   4 3201.83 114.406   2
  -1  -4  -4 2923.21 108.444   2
   1  -4   4 2925.14 112.208   3
  -1  -4  -5 1709.56 78.4022   6
   1  -4   5 1838.14 87.8390   6
  -1  -4  -5 1668.97 66.4246  12
  -1  -4  -5 1783.62 83.0261   4
  -1  -4  -5 1658.85 66.7195   5
   1  -4   5 1826.80 84.2614  11
  -1  -4  -5 1526.57 79.5557   9
  -1  -4  -5 1719.17 81.1708   8
   1  -4   5 1604.59 81.6036   3
  -1  -4  -5 1635.60 74.3113   2
  -1  -4  -6 238.409 28.7912   2
   1  -4   6 267.721 38.0915   7
  -1  -4  -6 253.404 36.0161   8
  -1  -4  -6 199.138 31.3086   6
  -1  -4  -6 218.760 23.1385  12
  -1  -4  -6 198.653 22.9855   5
   1  -4   6 231.410 34.8925   6
   1  -4   6 214.085 31.2032  11
  -1  -4  -6 194.800 32.6256   9
  -1  -4  -6 253.630 34.3710   3
   1  -4   6 249.974 35.2287   3
  -1  -4  -6 215.675 33.9536   4
  -1  -4  -7 2243.92 88.6805   2
   1  -4   7 2120.35 107.237   3
  -1  -4  -7 2159.45 103.804   3
  -1  -4  -7 2102.68 82.9515  14
   1  -4   7 2374.45 104.369  11
  -1  -4  -7 2057.20 74.4938  12
  -1  -4  -7 2142.41 74.2160   5
  -1  -4  -7 2165.77 104.421   4
  -1  -4  -7 2264.83 104.056   9
   1  -4   7 2395.71 113.446   7
  -1  -4  -7 2290.10 100.808   6
   1  -4   7 2277.63 110.987   6
  -1  -4  -8 29.2839 8.69681   1
  -1  -4  -8 59.3521 19.4385   2
  -1  -4  -8 63.4657 20.8418  14
  -1  -4  -8 61.4949 13.6735  12
   1  -4   8 124.769 33.6270   6
  -1  -4  -8 71.8673 13.6220   5
   1  -4   8 106.222 27.0392  11
   1  -4   8 60.2167 31.5472   3
   1  -4   8 119.346 36.0208   7
  -1  -4  -9 470.742 41.6604  14
   1  -4   9 541.710 50.2330  11
  -1  -4  -9 379.933 32.1588   2
   1  -4   9 548.313 60.8265   3
   1  -4   9 466.918 57.1272   6
   1  -4   9 597.426 63.1790   7
   1  -4  10 15.9441 14.6517   5
   1  -4  10 35.4944 32.4755   6
   1  -4  10 9.18273 21.9148  11
   1  -4  10 9.02326 39.5547   7
  -1  -4 -10 34.6803 21.4671  14
   1  -4  11 880.375 67.6710  11
   1  -4  11 919.229 86.2239   7
  -1  -4 -11 709.340 57.5892  14
   1  -4  12 45.8875 24.7233  11
   1  -4  12 26.6157 44.5054   7
   1  -4  13 458.941 73.6787   7
  -1  -3  13 389.605 63.8547   6
  -1  -3  12 167.202 31.4619  11
  -1  -3  12 262.516 51.8711   6
   1  -3 -11 760.121 59.4276  14
  -1  -3  11 700.704 56.5288  11
   1  -3 -11 665.267 54.7315   1
  -1  -3  10 443.664 58.2642   6
  -1  -3  10 348.817 40.7790  11
   1  -3 -10 294.284 36.7205   1
   1  -3 -10 414.734 42.3814  14
   1  -3  -9 1583.00 72.2304  14
   1  -3  -9 1172.91 44.2418  12
  -1  -3   9 1488.81 75.5210  11
  -1  -3   9 1525.44 56.3491   5
  -1  -3   9 1688.25 95.9403   6
   1  -3  -9 1220.34 69.4137   1
   1  -3  -8 73.6679 14.4837  12
  -1  -3   8 67.2504 17.4683   5
   1  -3  -8 44.4642 7.15942   5
   1  -3  -8 32.2045 6.90869   5
   1  -3  -8 114.478 28.4517   6
  -1  -3   8 87.3203 26.6784  10
  -1  -3   8 71.6541 22.3530  11
   1  -3  -8 101.654 30.0234   9
   1  -3  -8 92.0577 21.0090  14
   1  -3  -7 2159.85 79.6633  14
   1  -3  -7 2046.41 73.0064  12
   1  -3  -7 2042.47 96.4101   4
  -1  -3   7 2109.22 76.7644   5
  -1  -3   7 2198.72 94.4774  11
   1  -3  -7 2275.68 98.8387   9
  -1  -3   7 2264.71 100.933  10
   1  -3  -7 1903.15 65.0129   2
   1  -3  -7 2157.29 90.4842   6
   1  -3  -7 2189.97 100.570   7
   1  -3  -6 627.407 35.0698  14
  -1  -3   6 687.256 41.1395  12
   1  -3  -6 643.451 49.0763   4
  -1  -3   6 654.320 38.3105   5
  -1  -3   6 686.604 47.0189  11
  -1  -3   6 766.809 52.7823  10
   1  -3  -6 722.970 51.2939   9
   1  -3  -6 672.719 33.1086   2
  -1  -3   6 754.354 41.1391   2
   1  -3  -6 625.378 49.6363   7
   1  -3  -6 606.378 43.4425   6
   1  -3  -5 5309.81 148.164  14
  -1  -3   5 5504.99 176.626  14
  -1  -3   5 5482.14 162.462  12
  -1  -3   5 5369.25 159.263   5
  -1  -3   5 5687.55 176.234  11
   1  -3  -5 5482.92 175.613   9
   1  -3  -5 5175.32 153.332   2
  -1  -3   5 5490.85 162.690   2
  -1  -3   5 5405.51 170.876   3
   1  -3  -5 5614.56 174.736   7
   1  -3  -5 5471.87 164.498   6
   1  -3  -4 452.521 21.1661  14
  -1  -3   4 561.875 40.5482  14
  -1  -3   4 529.216 34.1677  12
   1  -3  -4 485.445 19.7640  11
   1  -3  -4 513.860 36.2183   4
  -1  -3   4 507.428 33.8936   5
  -1  -3   4 450.301 33.3053   3
   1  -3  -4 488.452 30.3134   2
  -1  -3   4 501.903 33.5934   2
   1  -3  -4 459.646 31.7368   6
  -1  -3   4 503.600 40.6812   6
  -1  -3   3 10189.1 274.885  14
   1  -3  -3 9727.75 251.319  11
  -1  -3   3 9876.48 268.083  12
   1  -3  -3 9695.23 265.266   4
  -1  -3   3 10090.4 267.488   5
  -1  -3   3 9755.81 276.817  10
  -1  -3   3 9881.19 263.269   3
   1  -3  -3 9766.32 264.434   2
  -1  -3   3 10187.7 270.334   2
   1  -3  -3 9761.69 259.535   1
   1  -3  -2 1269.12 48.6622   1
  -1  -3   2 1219.27 54.9136  14
   1  -3  -2 1238.22 46.9714  11
  -1  -3   2 1249.80 57.4479  10
   1  -3  -2 1255.88 54.0532   2
  -1  -3   2 1282.48 46.9224   3
  -1  -3   2 1206.12 41.7687   9
   1  -3  -2 1245.41 48.8178   4
   1  -3  -1 5425.25 153.560   1
  -1  -3   1 5655.24 161.228  10
   1  -3  -1 5340.31 153.750  11
  -1  -3   1 5517.26 156.044  14
  -1  -3   1 5456.00 148.920   9
   1  -3  -1 5405.10 160.519   2
  -1  -3   0 5342.71 147.364  14
   1  -3   0 5192.47 152.962  11
  -1  -3   0 5326.36 152.646  10
  -1  -3   0 5429.36 159.260   2
   1  -3   0 5198.37 157.189   2
   1  -3   0 5222.39 152.413   1
  -1  -3  -1 15430.1 385.062  14
  -1  -3  -1 14839.0 394.365  12
  -1  -3  -1 14692.4 394.850   5
   1  -3   1 15581.3 400.332  11
  -1  -3  -1 15245.7 388.321  10
  -1  -3  -1 15579.8 402.066   2
   1  -3   1 16160.6 403.560   2
   1  -3   1 15707.6 400.518   1
  -1  -3  -2 3647.96 102.734  14
  -1  -3  -2 3600.93 111.508  12
  -1  -3  -2 3456.33 111.556   5
   1  -3   2 3665.64 119.494  11
  -1  -3  -2 3459.86 101.028  10
   1  -3   2 3826.91 118.499   6
  -1  -3  -2 3751.15 118.649   2
   1  -3   3 417.481 34.7186   6
   1  -3   3 447.262 31.2607  12
  -1  -3  -3 367.113 27.1168  12
  -1  -3  -3 364.030 27.9609   5
  -1  -3  -3 395.206 18.4170  10
  -1  -3  -3 445.238 34.6325   8
   1  -3   3 429.000 19.5943   9
  -1  -3  -3 405.491 31.1872   2
  -1  -3  -4 3825.62 126.191   6
   1  -3   4 4011.86 133.787   6
  -1  -3  -4 3665.51 112.105  12
   1  -3   4 3931.58 118.817  12
  -1  -3  -4 3603.60 112.471   5
  -1  -3  -4 3521.44 126.660   9
   1  -3   4 3731.28 96.4611   9
  -1  -3  -4 3890.18 123.168   2
   1  -3   5 1109.13 62.0401   6
   1  -3   5 1071.64 63.3841   7
  -1  -3  -5 1084.12 57.2316   6
   1  -3   5 1056.18 47.9751  12
  -1  -3  -5 1058.61 42.9249  12
   1  -3   5 1151.65 59.1123  11
  -1  -3  -5 1022.75 42.5358   5
  -1  -3  -5 1063.13 58.3841   9
  -1  -3  -5 1107.13 59.5907   8
  -1  -3  -5 1036.21 57.8873   3
  -1  -3  -5 1206.22 53.3452   2
   1  -3   6 3050.22 121.500   6
   1  -3   6 3103.48 122.998   7
  -1  -3  -6 3064.68 112.334   6
  -1  -3  -6 2820.37 85.0802  12
   1  -3   6 2896.84 110.665  11
   1  -3   6 3002.41 95.5567  12
  -1  -3  -6 2816.01 84.8708   5
  -1  -3  -6 2934.03 113.995   8
  -1  -3  -6 2901.82 112.483   9
   1  -3   6 2919.12 119.412   3
  -1  -3  -6 2936.51 115.320   3
  -1  -3  -6 2900.48 99.1619   2
  -1  -3  -7 147.949 30.7518   3
  -1  -3  -7 233.230 35.4678   4
   1  -3   7 217.308 35.8399   3
  -1  -3  -7 214.859 27.8067  14
   1  -3   7 172.716 21.5650  12
   1  -3   7 242.873 30.3728  11
  -1  -3  -7 177.583 22.4423   2
  -1  -3  -7 134.350 17.0642   1
   1  -3   7 203.913 23.4602   5
   1  -3   7 229.734 37.2135   6
  -1  -3  -7 162.720 15.2614   5
  -1  -3  -7 260.495 35.2240   9
   1  -3   7 198.873 36.2240   7
  -1  -3  -7 158.056 33.1859   8
  -1  -3  -7 232.028 33.5845   6
   1  -3   8 3334.25 144.730   3
  -1  -3  -8 3038.67 104.749   2
  -1  -3  -8 3415.43 121.106  14
   1  -3   8 3282.72 101.146  12
   1  -3   8 3419.98 126.740  11
   1  -3   8 3416.31 102.321   5
  -1  -3  -8 3509.32 132.890   9
   1  -3   8 3330.42 142.593   6
   1  -3   8 3347.31 142.645   7
  -1  -3  -9 245.798 25.9295   1
   1  -3   9 360.566 40.5740  11
  -1  -3  -9 335.184 39.0971  14
   1  -3   9 343.173 24.8757   5
   1  -3   9 361.134 50.8044   6
  -1  -3  -9 265.399 25.7149   2
   1  -3   9 449.110 56.8643   7
  -1  -3 -10 565.433 40.3908   1
   1  -3  10 922.523 61.1172  11
  -1  -3 -10 859.854 60.3151  14
   1  -3  10 901.250 79.0340   7
   1  -3  11 91.5022 28.2412  11
   1  -3  11 66.7972 41.2095   7
  -1  -3 -11 23.3990 23.8642  14
   1  -3  12 530.613 49.3438  11
  -1  -3 -12 594.602 57.3013  14
   1  -3  12 603.919 75.7402   7
   1  -3  13 21.6386 38.7273   6
   1  -3  13 33.1816 42.6228   7
  -1  -2  13 241.115 52.0289   6
   1  -2 -12 286.219 40.7502   1
  -1  -2  12 327.251 54.0646   6
  -1  -2  12 228.317 31.3174  11
   1  -2 -11 204.347 36.7534  14
  -1  -2  11 179.701 28.1404  11
   1  -2 -11 163.861 33.3877   1
  -1  -2  11 270.995 49.3378   6
   1  -2 -10 3339.50 130.205  14
  -1  -2  10 3471.71 118.761  11
  -1  -2  10 3082.63 143.925   6
   1  -2  -9 834.119 55.1582  14
   1  -2  -9 715.449 41.1233  13
  -1  -2   9 779.556 48.8627  11
   1  -2  -9 691.082 56.2953   9
   1  -2  -9 651.650 52.9187   1
  -1  -2   9 660.214 62.1407   6
   1  -2  -8 1248.83 45.7941  12
  -1  -2   8 1458.35 50.8716   5
   1  -2  -8 1464.98 76.8481   9
  -1  -2   8 1549.50 70.3096  11
  -1  -2   8 1548.92 79.0415  10
   1  -2  -8 1548.90 59.9152  13
   1  -2  -8 1581.73 73.2869  14
  -1  -2   8 1531.36 85.4875   6
   1  -2  -8 1421.95 76.2633   6
   1  -2  -7 46.0136 24.4497   3
   1  -2  -7 29.3119 16.6604  14
   1  -2  -7 24.8777 13.3314  13
  -1  -2   7 23.8976 14.7324  11
  -1  -2   7 58.1265 22.1726  10
   1  -2  -7 39.5673 23.8814   7
   1  -2  -7 17.5336 20.3603   9
   1  -2  -7 37.2251 19.7251   6
  -1  -2   7 39.8486 12.9768   5
  -1  -2   6 4975.54 159.228  10
   1  -2  -6 4574.39 154.519   9
  -1  -2   6 4776.39 150.519  11
  -1  -2   6 4708.84 133.903   5
   1  -2  -6 4535.23 134.785  13
   1  -2  -6 4648.67 143.380  14
   1  -2  -6 4679.05 150.252   6
   1  -2  -6 4663.31 158.347   7
   1  -2  -5 491.867 30.4938  14
   1  -2  -5 542.494 28.8583  13
  -1  -2   5 528.548 29.9480   5
  -1  -2   5 518.153 35.8010  11
  -1  -2   5 561.810 40.0843  10
  -1  -2   5 602.949 30.9223   2
   1  -2  -5 498.810 23.1842   2
   1  -2  -5 494.875 34.8449   6
   1  -2  -5 505.505 39.5776   7
   1  -2  -4 3932.99 114.675  13
   1  -2  -4 3990.01 113.849  14
  -1  -2   4 4058.28 132.603  14
  -1  -2   4 4136.92 118.518   5
  -1  -2   4 4051.31 120.345  12
  -1  -2   4 4149.25 119.059   2
   1  -2  -4 3863.45 111.460   2
  -1  -2   4 4092.45 128.569   3
   1  -2  -4 3841.57 122.088   6
   1  -2  -4 3924.01 129.213   7
   1  -2  -3 2975.88 83.3201  14
  -1  -2   3 3056.91 102.457  14
  -1  -2   3 2984.95 94.9572  12
  -1  -2   3 3053.51 93.7073   5
   1  -2  -3 2954.15 92.7820   6
  -1  -2   3 2945.65 103.126   6
   1  -2  -3 2960.23 89.7118   2
  -1  -2   3 3152.00 96.6767   3
  -1  -2   3 3232.02 95.2002   2
  -1  -2   2 5122.29 145.246  14
   1  -2  -2 4917.14 130.790  11
   1  -2  -2 4807.09 136.885   4
  -1  -2   2 5131.61 146.665  10
  -1  -2   2 5041.18 127.557   9
   1  -2  -2 4731.71 137.578   2
  -1  -2   2 5058.99 135.386   3
  -1  -2   1 2712.67 82.0332  14
   1  -2  -1 2574.87 77.2191  11
  -1  -2   1 2595.78 81.8631   5
  -1  -2   1 2600.16 83.2759  10
   1  -2  -1 2663.84 79.4279   1
   1  -2  -1 2517.05 81.2936   2
  -1  -2   1 2553.28 70.5711   3
  -1  -2   0 11516.6 287.318  14
   1  -2   0 11187.1 290.372  11
  -1  -2   0 11319.7 289.460  10
   1  -2   0 11266.8 290.746   1
  -1  -2   0 11471.3 294.924   2
   1  -2   0 11148.3 293.539   2
  -1  -2  -1 9832.53 256.370  12
  -1  -2  -1 9598.86 256.695   5
   1  -2   1 10103.8 261.096  11
  -1  -2  -1 9786.24 250.985  10
  -1  -2  -1 9990.27 251.770  14
  -1  -2  -1 10058.5 262.295   2
   1  -2   1 10326.6 263.095   2
   1  -2   2 15639.7 377.344   6
  -1  -2  -2 14523.0 366.988  12
  -1  -2  -2 14402.8 376.897   4
  -1  -2  -2 13842.1 367.244   5
   1  -2   2 15082.9 377.560  11
  -1  -2  -2 14363.3 358.176  10
  -1  -2  -2 14889.1 374.562   8
  -1  -2  -2 14934.9 374.946   2
   1  -2   3 4287.17 133.070   6
   1  -2   3 4354.40 122.349  12
  -1  -2  -3 4169.62 117.134  12
  -1  -2  -3 3945.72 117.318   5
  -1  -2  -3 4456.81 131.167   8
  -1  -2  -3 4017.69 130.528   9
   1  -2   3 4317.17 110.966   9
  -1  -2  -3 4355.55 126.510   2
  -1  -2  -4 3198.31 88.6114   1
  -1  -2  -4 3327.95 110.661   6
   1  -2   4 3261.77 114.006   6
   1  -2   4 3172.18 114.391   7
   1  -2   4 3276.23 97.4258  12
   1  -2   4 3378.70 109.225  11
  -1  -2  -4 3146.81 91.0130  12
  -1  -2  -4 3027.59 91.3435   5
   1  -2   4 3239.01 87.9202   9
  -1  -2  -4 3288.11 110.681   8
  -1  -2  -4 3138.69 109.773   9
  -1  -2  -4 3322.22 103.124   2
  -1  -2  -5 1981.69 63.7606   1
   1  -2   5 1983.37 85.9197   6
   1  -2   5 1991.01 87.6991   7
  -1  -2  -5 1964.94 80.5645   6
   1  -2   5 1903.84 76.7728  11
   1  -2   5 2016.82 65.1197  12
  -1  -2  -5 1739.46 55.2420  11
  -1  -2  -5 1922.70 57.2527  12
  -1  -2  -5 1973.17 58.2986   5
  -1  -2  -5 1925.89 79.7286   9
  -1  -2  -5 1950.04 81.5270   8
  -1  -2  -5 1961.61 70.5289   2
  -1  -2  -6 1720.68 60.9262   1
  -1  -2  -6 1779.36 77.6740   6
   1  -2   6 1611.86 82.5094   7
   1  -2   6 1790.87 83.8697   6
   1  -2   6 1898.81 74.6039  11
   1  -2   6 1769.27 56.5297  12
  -1  -2  -6 1685.89 77.5912   8
  -1  -2  -6 1655.13 74.2057   9
  -1  -2  -6 1775.25 63.5108   2
  -1  -2  -7 3485.98 109.748   2
  -1  -2  -7 3403.07 124.808  14
   1  -2   7 3771.67 125.670  11
  -1  -2  -7 3315.65 112.084   1
   1  -2   7 3545.40 101.859   5
  -1  -2  -7 3502.47 128.217   9
  -1  -2  -7 3467.66 133.345   8
   1  -2   7 3570.75 140.776   6
  -1  -2  -7 3668.73 132.786   6
   1  -2   7 3423.73 138.981   7
  -1  -2  -8 254.866 23.1291   2
  -1  -2  -8 338.717 36.9426  14
   1  -2   8 389.466 35.8059  11
  -1  -2  -8 231.827 27.0105   1
   1  -2   8 238.861 17.9784   5
  -1  -2  -8 271.935 37.9362   6
  -1  -2  -8 317.730 39.0456   9
   1  -2   8 303.203 45.0987   7
   1  -2   8 373.149 45.5707   6
   1  -2   9 2263.90 88.8180  11
  -1  -2  -9 2086.17 94.9225  14
  -1  -2  -9 2128.85 95.3666   9
   1  -2   9 2136.37 110.965   7
  -1  -2 -10 32.5648 24.5404  14
   1  -2  10 19.1565 18.2337  11
  -1  -2 -10 40.4670 20.1703   1
  -1  -2 -10 7.41536 6.65367   2
   1  -2  10 50.4066 37.1041   7
   1  -2  11 1315.79 69.0719  11
  -1  -2 -11 1328.29 83.7561  14
   1  -2  11 1475.12 103.073   7
  -1  -2 -12 49.2853 29.9190  14
   1  -2  12 10.0695 41.0234   7
   1  -2  12-4.90090 36.2622   6
   1  -2  12 33.7093 19.3868  11
   1  -2  13 618.539 78.6114   7
   1  -2  13 570.390 74.0049   6
  -1  -2 -13 643.160 65.0889  14
  -1  -1  14 119.736 44.6809   6
  -1  -1  13 297.474 55.7941   6
   1  -1 -13 384.628 54.5110  14
   1  -1 -12 141.016 34.0347   1
  -1  -1  12 167.024 42.1011   6
   1  -1 -12 216.976 41.3624  14
  -1  -1  11 346.222 30.8281  11
   1  -1 -11 455.265 51.5761  14
  -1  -1  11 446.201 56.8090   6
   1  -1 -11 407.103 49.3036   1
   1  -1 -10 64.3557 25.9938   1
   1  -1 -10 55.8616 19.7539  13
   1  -1 -10 38.7333 25.5292  14
  -1  -1  10 41.3557 15.1864  11
  -1  -1  10-3.74154 31.2822   6
   1  -1  -9 511.657 46.9290  14
   1  -1  -9 442.164 35.4852  13
  -1  -1   9 463.052 34.4167  11
   1  -1  -9 424.001 45.4895   9
  -1  -1   9 417.906 49.2155   6
   1  -1  -9 477.233 47.9708   1
   1  -1  -8 140.434 27.5119  14
   1  -1  -8 56.1705 7.43297  12
   1  -1  -8 122.758 21.4916  13
  -1  -1   8 132.458 29.3555   6
   1  -1  -8 144.411 29.1095   6
  -1  -1   8 126.363 26.0913  10
  -1  -1   8 105.676 19.3405  11
   1  -1  -8 147.526 27.4008   9
   1  -1  -8 155.671 27.6799   1
   1  -1  -7 2638.60 101.472  14
   1  -1  -7 2604.88 88.4569  13
   1  -1  -7 2339.91 72.8470  12
  -1  -1   7 2654.17 100.291  10
   1  -1  -7 2560.31 98.8670   9
  -1  -1   7 2639.24 89.7749  11
  -1  -1   7 2483.59 107.525   6
   1  -1  -7 2600.53 102.485   6
   1  -1  -7 2609.64 108.783   7
   1  -1  -7 2591.55 110.722   3
   1  -1  -6 40.4988 20.7776   3
   1  -1  -6 57.1828 17.5419  14
   1  -1  -6 29.5747 14.0450  13
  -1  -1   6 67.7430 18.7811  10
  -1  -1   6 43.7048 13.3570  11
   1  -1  -6 58.4397 20.0530   7
   1  -1  -6 55.5245 16.6826   9
   1  -1  -6 60.4433 18.5377   6
  -1  -1   5 2138.23 80.7625  10
  -1  -1   5 2101.81 74.8148  11
  -1  -1   5 2118.18 64.3281   5
   1  -1  -5 2044.89 59.1402   5
   1  -1  -5 2104.79 71.7885  13
   1  -1  -5 2139.91 78.2507  14
  -1  -1   5 1983.78 82.1374  14
   1  -1  -5 2030.75 79.2780   6
   1  -1  -4 1398.97 52.0026  13
   1  -1  -4 1335.60 54.4151  14
  -1  -1   4 1424.24 59.6632  10
  -1  -1   4 1490.99 45.8566   2
   1  -1  -4 1420.99 57.7106   6
   1  -1  -4 1358.67 61.3148   7
  -1  -1   4 1366.52 47.5067   5
   1  -1  -3 12418.5 321.637  13
   1  -1  -3 12722.3 322.499  14
  -1  -1   3 13146.7 317.721   2
   1  -1  -3 12505.6 331.260   7
   1  -1  -3 12489.0 324.859   6
  -1  -1   3 12934.3 320.153   5
   1  -1  -2 1447.83 47.5829  13
  -1  -1   2 1485.63 53.5678  14
   1  -1  -2 1452.11 44.5528  14
   1  -1  -2 1377.10 43.5889   2
   1  -1  -2 1389.37 50.9836   7
   1  -1  -2 1492.26 46.3926   6
  -1  -1   1 4265.96 115.876  10
  -1  -1   1 3991.01 112.707   5
   1  -1  -1 4190.37 109.239  11
  -1  -1   1 4264.27 115.343  14
  -1  -1   0 4429.73 118.477  14
   1  -1   0 4502.28 118.979  11
  -1  -1   0 4522.53 118.371  10
  -1  -1   0 4273.93 117.821   9
  -1  -1   0 4598.74 121.317   2
  -1  -1  -1 3780.55 103.539   5
   1  -1   1 3866.71 104.981   6
  -1  -1  -1 3829.01 104.274   8
   1  -1   1 3978.48 107.710  11
  -1  -1  -1 3802.43 102.779  12
  -1  -1  -2 2283.33 64.0905  12
   1  -1   2 2430.39 75.0132   6
   1  -1   2 2202.12 73.5448   7
  -1  -1  -2 2265.80 65.2433   5
  -1  -1  -2 2188.62 73.1769   9
  -1  -1  -2 2403.31 72.9402   8
   1  -1   2 2305.88 76.5257   3
  -1  -1  -3 6544.29 167.356   1
   1  -1   3 6453.66 182.364   6
   1  -1   3 6242.49 182.042   7
   1  -1   3 6451.62 166.281  12
  -1  -1  -3 6611.85 166.136  11
  -1  -1  -3 6183.59 163.113   5
  -1  -1  -3 6313.99 178.353   9
   1  -1   3 6597.35 167.537   9
  -1  -1  -3 6473.47 179.344   8
   1  -1   3 6386.41 185.589   3
   1  -1   4 4248.56 132.872   1
  -1  -1  -4 4203.96 118.296   1
  -1  -1  -4 4156.80 111.499  11
   1  -1   4 4016.08 109.512  12
   1  -1   4 4426.03 124.781  11
   1  -1   4 4308.48 134.887   6
   1  -1   4 3980.20 133.256   7
   1  -1   4 4093.14 115.681   9
  -1  -1  -4 3925.80 110.953  10
  -1  -1  -4 4019.78 126.634   9
  -1  -1  -4 4147.36 130.181   8
   1  -1   4 4135.22 135.613   3
  -1  -1  -5 4889.65 139.141   1
  -1  -1  -5 4725.15 150.086   6
   1  -1   5 4678.20 155.658   7
   1  -1   5 4781.21 155.037   6
   1  -1   5 4944.17 141.613  11
   1  -1   5 4770.02 121.953  12
   1  -1   5 4617.59 133.626   9
  -1  -1  -5 4632.10 127.557  10
  -1  -1  -5 4559.87 126.184  11
  -1  -1  -5 4520.21 143.736   9
  -1  -1  -5 4248.32 146.960   8
   1  -1   5 4748.84 157.734   3
  -1  -1  -6 2683.49 107.896   3
  -1  -1  -6 2737.65 94.7011   1
  -1  -1  -6 2595.97 100.508  14
   1  -1   6 2943.88 94.6749  11
   1  -1   6 2618.24 72.9389   5
  -1  -1  -6 2728.01 108.403   4
  -1  -1  -6 2576.32 78.4117  11
  -1  -1  -6 2627.27 81.5582  10
  -1  -1  -6 2642.91 104.162   8
  -1  -1  -6 2755.44 98.5740   9
  -1  -1  -6 2645.57 103.270   6
   1  -1   6 2574.45 107.493   6
   1  -1   6 2567.64 108.444   7
  -1  -1  -7 1148.73 48.3695   2
  -1  -1  -7 1176.27 72.0411   3
  -1  -1  -7 1303.41 60.9893   1
  -1  -1  -7 1251.01 67.7069  14
  -1  -1  -7 1238.53 45.2457  13
   1  -1   7 1295.99 57.7181  11
  -1  -1  -7 1220.62 71.2457   4
  -1  -1  -7 1239.33 48.3323  10
  -1  -1  -7 1191.49 68.6564   8
  -1  -1  -7 1195.26 61.6998   9
   1  -1   7 1255.62 73.9158   7
  -1  -1  -7 1201.74 67.6147   6
   1  -1   7 1165.26 71.4681   6
  -1  -1  -8 3344.60 130.373  14
  -1  -1  -8 3411.67 98.9167  13
   1  -1   8 3550.17 114.243  11
  -1  -1  -8 3215.60 119.734   1
  -1  -1  -8 3430.54 102.628  10
  -1  -1  -8 3480.13 121.799   9
   1  -1   8 3328.74 140.050   7
  -1  -1  -8 3238.31 129.702   6
  -1  -1  -9 721.310 35.6683   2
  -1  -1  -9 817.684 36.3484   2
  -1  -1  -9 1064.44 43.8113  13
  -1  -1  -9 1236.25 73.2731  14
   1  -1   9 1239.90 56.4118  11
  -1  -1  -9 1040.02 61.0617   1
  -1  -1  -9 1087.36 46.7171  10
  -1  -1  -9 1082.60 64.2189   9
   1  -1   9 1157.41 80.8598   7
  -1  -1 -10 1554.75 90.2109  14
  -1  -1 -10 1462.53 79.3568   1
   1  -1  10 1621.86 69.4081  11
  -1  -1 -10 1450.53 79.2746   9
   1  -1  10 1493.45 99.4357   7
  -1  -1 -11 17.8759 26.1686  14
   1  -1  11 39.4793 32.1066   6
   1  -1  11-31.6756 46.3259   7
  -1  -1 -11 19.7250 22.5537   1
  -1  -1 -12 885.492 76.0394  14
   1  -1  12 815.507 79.3554   6
   1  -1  12 915.831 87.9549   7
  -1  -1 -12 783.277 64.1091   1
  -1  -1 -13-4.11445 29.7874  14
   1  -1  13-31.1883 40.0605   6
   1  -1  13-21.4975 45.6675   7
  -1  -1 -14 464.370 61.6800  14
   1   0 -14 154.058 46.9250  14
   1   0 -13 296.677 50.0975  14
  -1   0  13 171.742 46.0750   6
   1   0 -13 222.255 44.2058   1
   1   0 -12 570.700 64.3029  14
  -1   0  12 514.947 63.7926   6
   1   0 -12 538.471 60.3805   1
   1   0 -11 72.1734 30.9218  14
  -1   0  11 20.0460 28.0524   6
   1   0 -11 30.3092 23.8560   1
   1   0 -10 464.460 40.4874  13
   1   0 -10 476.957 52.1939  14
   1   0 -10 424.942 50.5641   1
   1   0 -10 361.227 38.4692   9
  -1   0  10 432.968 51.7744   6
   1   0  -9 133.263 31.6201  14
   1   0  -9 124.333 25.0286  13
   1   0  -9 182.913 34.4888   1
  -1   0   9 121.207 15.1642  11
   1   0  -9 93.3928 24.0871   9
  -1   0   9 176.285 35.5715   6
   1   0  -8 1211.01 70.6933   1
   1   0  -8 1040.98 64.1986  14
   1   0  -8 1175.83 56.4363  13
  -1   0   8 1095.66 40.6439  11
   1   0  -8 1080.76 55.1565   9
   1   0  -8 1122.95 53.1504  10
   1   0  -8 1109.69 66.3279   6
   1   0  -8 1008.80 68.5145   7
  -1   0   8 1085.87 67.3984   6
   1   0  -8 1031.20 69.6487   3
   1   0  -7 17.6057 21.1976   3
   1   0  -7 2.28322 16.8914  14
   1   0  -7 13.5474 15.4954  13
   1   0  -7 2.42900 8.13251  12
   1   0  -7 8.72676 18.2363   6
   1   0  -7-14.7677 16.2620  10
  -1   0   7 11.0574 10.0131  11
  -1   0   7-1.54801 14.6586  10
   1   0  -7 1.51702 14.0826   9
   1   0  -7 36.4159 22.2296   7
  -1   0   7 2.42017 17.1258   6
   1   0  -6 3446.29 121.326  14
   1   0  -6 3410.24 110.699  13
   1   0  -6 3286.53 95.9366  12
  -1   0   6 3375.49 98.9985  11
   1   0  -6 3379.21 107.495  10
   1   0  -6 3245.20 109.977   9
  -1   0   6 3412.82 110.568  10
   1   0  -6 3349.48 124.466   3
   1   0  -6 3400.60 119.779   6
  -1   0   6 3532.47 124.001   6
   1   0  -6 3381.79 123.958   7
   1   0  -5 677.424 42.0663  14
   1   0  -5 682.801 30.0444  12
   1   0  -5 744.467 36.6099  10
  -1   0   5 749.246 38.1539  10
  -1   0   5 703.180 30.8942  11
  -1   0   5 802.179 45.1271   6
   1   0  -5 705.340 42.6211   6
   1   0  -5 693.632 45.0208   3
   1   0  -5 632.184 25.1803   5
   1   0  -4 2018.82 62.0942   5
   1   0  -4 2401.76 81.0049  14
  -1   0   4 2272.05 78.5447  14
  -1   0   4 2226.47 73.6315  10
   1   0  -4 2177.82 71.9355  10
   1   0  -4 2186.29 82.4584   3
   1   0  -4 2188.79 78.7283   6
   1   0  -4 2260.15 82.6168   7
   1   0  -3 2123.94 66.1498  10
   1   0  -3 2030.78 70.0611  14
   1   0  -3 2089.66 72.7193   7
   1   0  -3 2144.19 70.1663   6
   1   0  -3 2027.18 59.8143   5
   1   0  -2 6474.03 164.097  14
   1   0  -2 6172.11 162.790  13
   1   0  -2 5939.42 163.750   7
   1   0  -2 6082.49 161.382   6
   1   0  -2 6117.81 157.354   5
  -1   0   1 10395.8 260.212  13
  -1   0   1 10431.8 259.001  14
   1   0  -1 10369.8 256.828   7
   1   0  -1 10325.8 257.846   5
   1   0   0 9135.96 230.834   9
  -1   0   0 9377.12 229.962  13
  -1   0  -1 9007.87 227.315   1
   1   0   1 9208.97 228.390   6
   1   0   1 8886.29 225.493   7
   1   0   1 9547.92 229.368   4
   1   0   1 9093.30 227.891   9
   1   0   1 8729.69 229.544   3
  -1   0  -2 8266.68 211.276   1
   1   0   2 8468.81 215.998   6
   1   0   2 8083.95 214.027   7
  -1   0  -2 7896.17 210.059   9
   1   0   2 7972.14 217.168   3
  -1   0  -2 8525.12 209.730  11
  -1   0  -3 4126.57 119.067   1
   1   0   3 4104.85 119.193   1
  -1   0  -3 4195.59 114.143  11
   1   0   3 4425.21 115.058  11
   1   0   3 3896.65 122.979   7
   1   0   3 4062.34 124.133   6
  -1   0  -3 4010.49 116.172   9
   1   0   3 3923.35 125.197   3
  -1   0  -4 8192.05 222.543   1
   1   0   4 8677.43 214.526  11
   1   0   4 7825.19 229.351   7
   1   0   4 8351.80 230.917   6
   1   0   4 7998.81 219.293   9
  -1   0  -4 8032.01 213.107  11
  -1   0  -4 8080.13 215.277  10
  -1   0  -4 7884.46 217.009   9
  -1   0  -4 8058.55 226.806   8
   1   0   4 8076.91 233.136   3
   1   0   5 5521.15 174.247   6
   1   0   5 5519.92 175.852   7
   1   0   5 5950.21 155.266  11
  -1   0  -5 5383.02 156.206  10
   1   0   5 5413.30 161.896   9
  -1   0  -5 5590.15 154.127  11
  -1   0  -5 5038.73 168.023   8
  -1   0  -5 5538.76 159.464   9
  -1   0  -5 5771.27 167.883   1
  -1   0  -6 24.9508 19.8864   3
  -1   0  -6 20.0653 13.7809   1
  -1   0  -6 6.30909 16.5230  14
  -1   0  -6-2.03398 18.3651   6
   1   0   6 5.04670 10.5626  11
  -1   0  -6 8.26364 12.6773  10
  -1   0  -6 1.31977 13.8098   9
  -1   0  -6 38.3085 18.3345   8
   1   0   6 13.9252 16.8020   7
  -1   0  -7 1965.34 95.0390   3
  -1   0  -7 1950.72 91.3521  14
   1   0   7 1960.12 70.6229  11
  -1   0  -7 2075.02 75.9058  10
  -1   0  -7 1943.15 90.0736   6
   1   0   7 2099.15 98.4788   7
  -1   0  -7 1952.00 77.6827   9
  -1   0  -7 2228.14 94.9660   8
  -1   0  -7 1982.13 86.7092   1
  -1   0  -8 2106.24 73.8802   2
  -1   0  -8 2313.56 100.704   1
  -1   0  -8 2409.27 86.9303  10
  -1   0  -8 2413.67 107.692  14
  -1   0  -8 2422.26 107.805   8
  -1   0  -8 2499.46 91.4229   9
   1   0   8 2379.74 112.299   7
  -1   0  -8 2376.71 105.909   6
  -1   0  -9 65.6431 13.0359   2
  -1   0  -9 115.459 27.5870   1
  -1   0  -9 133.077 32.6814  14
  -1   0  -9 70.8987 21.7194  10
  -1   0  -9 117.578 25.0021   9
   1   0   9 115.214 35.0276   7
  -1   0 -10 0.35115 6.29550   2
  -1   0 -10-15.1710 20.4476   1
  -1   0 -10-3.09600 5.86968   2
  -1   0 -10 1.43472 17.5844  13
  -1   0 -10-4.80835 18.3856  10
  -1   0 -10-11.3421 20.7027   9
   1   0  10 4.04398 36.5107   7
   1   0  10 35.1072 28.2373   6
  -1   0 -10-28.1485 27.1153  14
  -1   0 -11 1303.58 91.0705  14
   1   0  11 1409.46 98.7975   6
   1   0  11 1285.94 97.6355   7
  -1   0 -11 1329.97 84.8618   1
  -1   0 -12 117.061 38.8796  14
   1   0  12 109.048 40.9970   6
  -1   0 -12 79.9879 30.8074   1
  -1   0 -13 570.251 67.3105  14
  -1   0 -14-18.6421 34.4812  14
   1   1 -14 195.436 51.1346  14
   1   1 -13 389.359 59.5220  14
   1   1 -13 267.368 51.0567   1
   1   1 -12 216.169 44.8595  14
   1   1 -12 202.316 43.2667   1
   1   1 -11 427.422 54.9412  14
  -1   1  11 465.169 56.9952   6
   1   1 -11 472.761 57.2887   1
   1   1 -10 11.5882 23.5850   1
   1   1 -10 32.5998 27.5550  13
   1   1 -10-2.03420 27.5095  10
   1   1 -10 28.7076 25.6911  14
   1   1 -10 28.6387 17.6256   9
  -1   1  10 38.9172 27.5352   6
   1   1  -9 548.173 56.6702   1
   1   1  -9 594.540 55.3188  14
   1   1  -9 450.222 43.2970  13
   1   1  -9 499.373 44.3930  10
   1   1  -9 489.002 37.1652   9
  -1   1   9 535.839 53.3447   6
   1   1  -8 127.224 31.9753   3
   1   1  -8 113.660 28.6073   1
   1   1  -8 125.031 30.3890  14
   1   1  -8 102.802 14.6518  12
   1   1  -8 160.822 32.3095   6
   1   1  -8 159.722 26.9302  10
   1   1  -8 84.5805 20.1710   9
  -1   1   8 155.714 30.9051   6
   1   1  -7 2668.61 116.542   1
   1   1  -7 2649.14 110.033  14
   1   1  -7 2525.63 79.7511  12
  -1   1   7 2536.68 85.8969  10
   1   1  -7 2439.79 85.1172   9
   1   1  -7 2554.80 95.7692  10
  -1   1   7 2605.27 106.175   6
   1   1  -7 2547.49 105.505   6
   1   1  -7 2496.25 108.391   3
   1   1  -6 44.4493 20.2026   3
   1   1  -6 43.5294 7.69323   2
   1   1  -6 37.4918 17.6841  14
   1   1  -6 47.8214 11.9489  12
   1   1  -6 38.3885 18.4046   6
   1   1  -6 54.8120 17.8061  10
  -1   1   6 53.7880 13.2544  10
   1   1  -6 36.5459 12.8822   9
  -1   1   6 76.4085 19.0596   6
   1   1  -5 2032.97 85.1544  14
  -1   1   5 2111.11 68.9791  10
   1   1  -5 2154.38 78.5807  10
   1   1  -5 2088.22 69.1298  12
   1   1  -5 2050.92 60.5753   2
   1   1  -5 2123.04 85.2012   3
   1   1  -5 2155.33 85.3895   6
  -1   1   5 2093.52 81.9754   6
   1   1  -4 1507.72 64.8515  14
   1   1  -4 1441.93 52.3596  12
  -1   1   4 1421.39 49.4268  10
   1   1  -4 1467.18 59.1047  10
   1   1  -4 1409.66 62.1517   6
  -1   1   4 1470.20 59.4089   6
   1   1  -4 1466.29 46.0037   2
   1   1  -4 1365.26 61.1463   3
   1   1  -3 13163.9 323.287   2
   1   1  -3 13052.6 335.723   3
  -1   1   3 12894.1 317.849   2
  -1   1   3 12824.1 328.857  13
   1   1  -3 13192.1 340.519  14
  -1   1   3 12515.0 328.054  14
   1   1  -3 13370.7 330.024  12
   1   1  -3 12600.7 327.427   5
  -1   1   3 13098.9 323.614  10
   1   1  -3 13644.2 336.220  10
  -1   1   3 13066.8 338.600   8
   1   1  -3 12971.0 337.740   6
  -1   1   2 1340.32 39.1863  11
   1   1  -2 1390.68 48.1196  12
   1   1  -2 1310.99 46.4882   5
   1   1  -2 1387.98 50.3446  10
  -1   1   2 1380.36 49.7501   8
   1   1  -2 1373.73 47.0322   3
   1   1  -2 1423.66 44.5118   2
   1   1  -1 3966.92 110.542   5
   1   1  -1 4060.85 111.763  12
   1   1  -1 3981.74 105.626   9
  -1   1   1 4121.41 109.327   8
   1   1  -1 4007.07 103.568   3
   1   1  -1 4215.27 110.064   2
   1   1   0 4306.29 117.643  12
   1   1   0 4322.46 117.555   5
  -1   1   0 4487.93 118.665   1
   1   1   0 4344.46 116.163   9
   1   1   1 3856.27 106.237   4
   1   1   1 3537.49 104.143   9
  -1   1  -1 3771.02 105.821   1
  -1   1  -2 2685.76 82.6604   6
   1   1   2 2612.69 84.5862   4
  -1   1  -2 2646.17 80.8207  11
   1   1   2 2536.08 82.7892   9
  -1   1  -2 2619.36 73.0061   9
  -1   1  -2 2802.11 85.5371   1
   1   1   3 6325.51 160.481  12
  -1   1  -3 6659.54 175.993  11
  -1   1  -3 6408.34 176.726  10
  -1   1  -3 6797.68 182.890   1
  -1   1  -3 6538.83 165.565   9
   1   1   3 6080.12 162.634   5
  -1   1  -4 4355.74 131.130  10
  -1   1  -4 4403.70 129.568  11
   1   1   4 4191.93 134.176   9
   1   1   4 4412.32 139.655   7
   1   1   4 4316.96 138.074   6
  -1   1  -4 4322.70 120.206   9
  -1   1  -4 4480.21 138.474   1
  -1   1  -5 4749.77 136.529   2
  -1   1  -5 4780.65 153.276   1
  -1   1  -5 4710.63 155.126  14
  -1   1  -5 4831.37 141.378  11
  -1   1  -5 4606.98 142.802  10
  -1   1  -5 4635.36 132.190   9
   1   1   5 4682.56 155.857   7
  -1   1  -6 2717.42 88.9653   2
  -1   1  -6 2711.86 109.063   3
  -1   1  -6 2819.55 108.186   1
  -1   1  -6 2753.63 109.868  14
  -1   1  -6 2710.43 96.8264  10
  -1   1  -6 2685.16 87.4482   9
   1   1   6 2563.30 109.051   7
  -1   1  -6 2828.51 107.903   6
  -1   1  -7 1348.48 75.3435   3
  -1   1  -7 1157.09 50.3558   2
  -1   1  -7 1240.40 69.4006   1
  -1   1  -7 1219.61 72.3660  14
  -1   1  -7 1333.33 61.8546  10
  -1   1  -7 1218.84 52.3034   9
  -1   1  -7 1250.46 70.6166   6
   1   1   7 1339.24 75.8682   7
  -1   1  -8 3139.18 103.065   2
  -1   1  -8 3339.02 134.516   1
  -1   1  -8 3521.03 140.775  14
  -1   1  -8 3439.17 120.009  10
  -1   1  -8 3438.59 109.230   9
   1   1   8 3495.83 142.440   7
  -1   1  -9 899.938 43.0525   2
  -1   1  -9 1123.24 75.1524  14
  -1   1  -9 1091.72 61.0709  10
  -1   1  -9 995.595 68.8437   1
  -1   1  -9 1028.31 51.8326   9
   1   1   9 1183.22 78.1368   6
  -1   1 -10 1757.18 95.9011   1
  -1   1 -10 1626.59 69.9734   9
  -1   1 -10 1654.90 98.9098  14
  -1   1 -10 1482.66 77.8970  10
  -1   1 -11 11.1530 23.7339   1
  -1   1 -11-8.31124 30.7431  14
  -1   1 -12 802.685 73.0207   1
  -1   1 -12 905.861 82.1979  14
  -1   1 -13-4.11118 26.9856   1
  -1   1 -13-4.76744 33.3406  14
  -1   1 -14 599.089 73.8789  14
   1   2 -14 160.545 45.2785   1
   1   2 -14 224.593 53.0219  14
   1   2 -13 315.544 54.8690   1
   1   2 -13 334.639 57.3769  14
   1   2 -12 348.480 54.3931   1
   1   2 -12 332.329 55.0871  14
   1   2 -11 229.830 45.9929   1
   1   2 -11 262.147 48.4258  14
   1   2 -10 3582.70 158.443   1
   1   2 -10 3574.09 154.776  14
   1   2 -10 3163.07 131.597  10
   1   2  -9 855.689 70.4775   1
   1   2  -9 737.442 57.2072  10
   1   2  -9 761.906 35.4840   9
   1   2  -9 797.348 66.4372  14
   1   2  -8 1521.04 51.2856   2
   1   2  -8 1480.04 84.8327   3
   1   2  -8 1533.59 92.0102   1
   1   2  -8 1665.50 90.0843  14
   1   2  -8 1545.44 60.7410  12
   1   2  -8 1586.12 78.0491  10
   1   2  -8 1587.28 53.7946   9
   1   2  -8 1517.05 85.3479   6
   1   2  -7 37.2365 11.4030   2
   1   2  -7 41.6218 22.9362   1
   1   2  -7 50.8063 23.0143  14
   1   2  -7 49.4758 14.8761  12
   1   2  -7 34.8237 21.3251   6
   1   2  -7 45.9378 20.2397  10
   1   2  -7 36.1152 10.2858   9
   1   2  -7 17.0598 21.8653   3
   1   2  -6 5112.91 147.529  12
   1   2  -6 5027.27 171.050  14
  -1   2   6 4742.04 132.781  10
   1   2  -6 4883.43 131.826   9
   1   2  -6 5042.61 159.919  10
   1   2  -6 5067.79 165.223   3
   1   2  -6 5156.16 140.314   2
   1   2  -6 5159.36 179.778   1
   1   2  -5 550.467 45.0111   1
   1   2  -5 556.286 33.4966  12
   1   2  -5 540.950 42.0155  14
  -1   2   5 526.849 23.1353  10
   1   2  -5 588.792 39.2172  10
   1   2  -5 537.626 22.0757   9
  -1   2   5 485.773 39.5353   8
   1   2  -5 562.759 29.7721   2
   1   2  -5 541.572 39.7611   3
   1   2  -4 4291.99 145.583   1
  -1   2   4 4180.76 120.351  13
  -1   2   4 4087.05 110.957  10
   1   2  -4 4372.54 134.485  10
   1   2  -4 4212.45 126.486  12
   1   2  -4 4108.97 107.307   9
  -1   2   4 4077.95 135.884   8
  -1   2   4 4206.46 116.200   2
   1   2  -4 4449.62 122.883   2
   1   2  -4 4232.65 132.161   3
  -1   2   3 3104.31 91.4498  13
   1   2  -3 3057.93 97.8493  12
  -1   2   3 3139.90 103.159   8
   1   2  -3 3089.20 80.5705   9
   1   2  -3 3157.79 95.2079   2
  -1   2   3 3115.40 91.0781   2
   1   2  -3 3054.64 96.9194   3
   1   2  -3 2964.19 101.218  10
   1   2  -2 5190.58 146.323  12
  -1   2   2 5004.31 134.532  11
  -1   2   2 5122.90 146.671   8
   1   2  -2 5177.48 131.600   9
   1   2  -2 5240.34 144.393   2
  -1   2   2 5008.95 140.725   2
   1   2  -2 5132.21 138.443   3
   1   2  -1 2858.91 88.8623  14
   1   2  -1 2849.14 90.1981  12
   1   2  -1 2942.72 82.3185   9
   1   2  -1 2937.81 90.1590   2
  -1   2   1 2902.23 79.9901   4
   1   2  -1 2840.93 89.9088   5
   1   2   0 10484.8 277.789   5
   1   2   0 10778.9 273.972   9
   1   2   0 10779.9 277.927  12
   1   2   1 10743.1 272.312   4
  -1   2  -1 10603.8 273.004   1
   1   2   1 10301.8 255.969   1
   1   2   1 10233.7 270.495   2
   1   2   1 10024.4 270.439   9
   1   2   2 15257.3 392.288   4
  -1   2  -2 15413.0 390.527  11
   1   2   2 14479.5 391.308   9
  -1   2  -2 15294.8 394.378   1
  -1   2  -2 15472.9 389.285   2
  -1   2  -3 4257.60 132.383   6
   1   2   3 4084.51 118.519  12
  -1   2  -3 4384.68 131.454  11
  -1   2  -3 4400.89 131.952  10
  -1   2  -3 4260.83 136.646   1
   1   2   3 4332.75 135.218   4
  -1   2  -3 4226.66 127.890   2
  -1   2  -4 3123.00 107.732  10
  -1   2  -4 3120.02 106.629  11
  -1   2  -4 3248.91 103.310   2
  -1   2  -4 3177.57 111.554   3
  -1   2  -4 3161.01 114.391   1
  -1   2  -5 2020.81 81.2280  10
  -1   2  -5 2090.75 75.8745   2
  -1   2  -5 2095.57 87.9246   3
  -1   2  -5 1980.73 60.7452   9
  -1   2  -5 2185.05 91.6599   1
  -1   2  -6 1553.24 65.3353   2
  -1   2  -6 1778.65 82.7419   3
  -1   2  -6 1779.68 85.0242   1
  -1   2  -6 1628.20 83.4746  14
  -1   2  -6 1644.76 73.7598  10
  -1   2  -6 1636.72 54.1145   9
  -1   2  -6 1853.97 83.1738   6
  -1   2  -7 3481.87 113.466   2
  -1   2  -7 3760.91 138.539   3
  -1   2  -7 3518.82 140.238   1
  -1   2  -7 3474.67 139.806  14
  -1   2  -7 3582.90 127.101  10
  -1   2  -7 3442.79 101.145   9
  -1   2  -7 3426.30 134.252   6
  -1   2  -8 397.446 45.4361   1
  -1   2  -8 332.591 38.3132  10
  -1   2  -8 395.798 45.6163  14
  -1   2  -8 340.175 24.2254   9
  -1   2  -8 306.145 29.0883   2
  -1   2  -9 2162.08 109.200   1
  -1   2  -9 2043.83 92.9333  10
  -1   2  -9 2212.82 113.277  14
  -1   2  -9 1899.74 67.3244   9
  -1   2  -9 1987.40 75.0111   2
  -1   2 -10 46.1719 28.1654   1
  -1   2 -10 20.2932 28.0488  14
  -1   2 -10 2.40355 31.5580  10
  -1   2 -11 1543.43 101.853  14
  -1   2 -11 1237.91 91.2746   1
  -1   2 -12 4.76609 30.4277  14
  -1   2 -12-17.4620 30.8917   1
  -1   2 -13 659.310 76.0187  14
  -1   2 -13 560.930 66.6781   1
  -1   2 -14 63.6504 42.4758  14
   1   3 -14 189.292 49.0167   1
   1   3 -13 433.378 66.4262  14
   1   3 -13 420.723 65.0943   1
   1   3 -12 237.800 49.3753  14
   1   3 -12 179.945 46.3496   1
   1   3 -11 763.448 76.7687  14
   1   3 -11 819.701 80.2378   1
   1   3 -10 425.439 55.1707  14
   1   3 -10 353.856 53.3120   1
   1   3  -9 1529.96 94.6485  14
   1   3  -9 1685.20 102.632   1
   1   3  -9 1451.24 57.4782   2
   1   3  -8 72.1573 20.4476  12
   1   3  -8 72.3142 29.0677  14
   1   3  -8 76.3096 26.7450  10
   1   3  -8 71.4402 16.7098   2
   1   3  -8 57.5944 28.1484   1
   1   3  -8 49.5309 28.0601   3
   1   3  -7 2373.92 89.7331  12
   1   3  -7 2367.80 111.221  14
   1   3  -7 2273.86 100.253  10
   1   3  -7 2366.65 84.4406   2
   1   3  -7 2439.27 103.998   3
   1   3  -7 2507.76 119.495   1
   1   3  -6 716.761 57.7522   1
   1   3  -6 749.926 43.9677  12
   1   3  -6 827.588 57.8228  14
   1   3  -6 697.372 50.1004  10
  -1   3   6 620.275 50.2059   8
   1   3  -6 627.855 47.7890   3
   1   3  -6 727.650 40.3691   2
   1   3  -5 5508.59 187.414   1
   1   3  -5 5510.35 163.431  12
   1   3  -5 5269.04 177.217  14
  -1   3   5 4962.18 148.568  13
   1   3  -5 5525.78 171.751  10
  -1   3   5 5164.62 173.589   8
   1   3  -5 5395.22 158.198   2
   1   3  -5 5474.90 166.806   3
  -1   3   5 5308.58 151.130   2
   1   3  -4 530.285 43.2143   1
   1   3  -4 541.684 36.2830  12
  -1   3   4 524.529 29.4637  13
   1   3  -4 547.865 39.7857  10
  -1   3   4 556.960 40.3140   8
  -1   3   4 499.062 30.7520   2
   1   3  -4 527.153 33.9077   2
   1   3  -4 572.750 36.9108   3
   1   3  -3 9813.26 283.255   1
   1   3  -3 9927.04 275.267  14
  -1   3   3 9773.48 258.402  13
   1   3  -3 10056.8 270.610  12
  -1   3   3 9675.63 273.049   8
  -1   3   3 9699.20 262.871   2
   1   3  -3 10008.8 268.286   2
   1   3  -3 9864.10 244.132   9
   1   3  -2 1348.76 58.5030  12
   1   3  -2 1328.00 44.9279   9
  -1   3   2 1289.47 57.8229   8
  -1   3   2 1305.52 54.6071   2
   1   3  -2 1364.08 57.9700   2
  -1   3   1 5022.27 134.520  14
   1   3  -1 5432.19 158.384  12
  -1   3   1 5392.04 143.513   4
   1   3  -1 5531.33 147.416   9
   1   3  -1 5732.70 159.243   2
  -1   3   1 5540.99 151.986   1
   1   3   0 5685.90 164.558  12
   1   3   0 5727.10 159.556   9
   1   3   0 6022.13 157.985   1
   1   3   1 16005.0 403.578   4
   1   3   1 15531.8 386.831   1
   1   3   1 15359.9 391.047  10
   1   3   1 15368.6 403.060   9
   1   3   2 3712.87 119.900   4
   1   3   2 3536.22 120.364   9
   1   3   2 3656.41 101.664  10
  -1   3  -2 3725.67 119.772   2
  -1   3  -2 3669.02 123.118   1
   1   3   3 432.746 29.8909  12
   1   3   3 440.935 35.7764   9
  -1   3  -3 460.298 36.8032   1
  -1   3  -3 487.900 34.9563   2
   1   3   3 484.547 36.1937   4
  -1   3  -4 3739.17 131.194  10
  -1   3  -4 4086.64 141.384   1
  -1   3  -4 4059.69 129.146   2
   1   3   4 3866.22 136.236   4
  -1   3  -5 1061.43 64.2653   1
  -1   3  -5 1134.76 59.9080  10
  -1   3  -5 1071.17 63.4839  14
  -1   3  -5 1045.79 53.6309   2
  -1   3  -5 1136.93 62.6974   6
  -1   3  -6 3076.13 127.613   1
  -1   3  -6 2835.43 123.070  14
  -1   3  -6 3056.52 116.397  10
  -1   3  -6 3082.26 107.393   2
  -1   3  -6 2962.06 118.908   6
  -1   3  -7 196.169 36.0246  14
  -1   3  -7 246.893 33.4665  10
  -1   3  -7 202.829 35.3818   6
  -1   3  -7 249.015 37.7426   3
  -1   3  -7 212.339 26.7573   2
  -1   3  -7 204.292 35.2042   1
  -1   3  -8 3317.40 146.468  14
  -1   3  -8 3587.00 151.375   1
  -1   3  -8 3474.77 134.297  10
  -1   3  -9 439.212 53.5428   1
  -1   3  -9 472.276 56.1892  14
  -1   3  -9 459.112 37.1293   2
  -1   3  -9 379.778 45.1907  10
  -1   3 -10 745.035 72.6801  14
  -1   3 -10 967.166 78.0295   1
  -1   3 -11-9.39511 34.0065  14
  -1   3 -11-18.1052 27.1969   1
  -1   3 -12 619.738 73.9296  14
  -1   3 -12 501.530 64.2844   1
  -1   3 -13 64.2038 41.2731  14
  -1   3 -13 89.7823 38.8579   1
  -1   3 -14 312.425 57.9199   1
   1   4 -13 245.461 56.7795  14
   1   4 -13 259.237 55.9285   1
   1   4 -12 453.194 66.1195  14
   1   4 -12 424.374 65.4488   1
   1   4 -11 62.5155 37.8123  14
   1   4 -11 72.8326 43.5140   1
   1   4 -10 1454.24 100.302  14
   1   4 -10 1183.90 97.3248   1
   1   4  -9 179.838 40.2629  14
   1   4  -9 208.452 45.6337   1
   1   4  -9 231.132 28.1394   2
   1   4  -8 2253.35 92.1206  12
   1   4  -8 2253.66 120.723   1
   1   4  -8 2241.99 114.943  14
   1   4  -8 1940.53 84.2162   2
   1   4  -8 2283.90 105.710   3
   1   4  -7 40.1455 24.5244  14
   1   4  -7 60.9170 20.6023  12
   1   4  -7 53.2039 25.9737   1
   1   4  -7 58.9276 19.6649   2
   1   4  -7 65.0675 27.9797  10
  -1   4   7 37.5153 27.0245   8
   1   4  -7 96.3157 27.6561   3
  -1   4   6 3265.92 104.788  13
   1   4  -6 3426.30 139.897  14
   1   4  -6 3648.16 126.244  12
   1   4  -6 3435.84 146.342   1
   1   4  -6 3585.09 133.659  10
  -1   4   6 3277.27 135.714   8
   1   4  -6 3595.36 120.696   2
  -1   4   5 483.718 29.8782  13
   1   4  -5 505.179 44.3996  14
   1   4  -5 489.801 38.6669  12
   1   4  -5 539.016 48.5943   1
   1   4  -5 432.505 41.1492  10
  -1   4   5 507.644 43.9292   8
  -1   4   5 455.054 33.6828   2
   1   4  -5 489.307 37.5325   2
  -1   4   4 4364.42 128.815  13
   1   4  -4 4514.21 146.530  12
   1   4  -4 4656.16 143.992   2
  -1   4   4 4279.88 136.670   2
   1   4  -4 4526.33 149.169  10
  -1   4   4 4060.06 116.259  10
  -1   4   4 4234.96 148.927   8
   1   4  -4 4641.97 161.132   1
   1   4  -3 287.331 30.2925  12
  -1   4   3 270.451 19.7764  10
  -1   4   3 229.578 28.2453   8
  -1   4   3 238.888 26.3166   2
   1   4  -3 292.884 29.2779   2
  -1   4   2 3877.17 128.717   2
   1   4  -2 3986.23 132.093   2
   1   4  -2 4051.65 133.665  12
  -1   4   2 3820.75 119.268   4
  -1   4   2 3675.87 115.828  10
  -1   4   2 4059.01 133.041   8
  -1   4   2 4192.85 123.428   1
   1   4  -1 4367.26 144.014  12
  -1   4   1 4478.18 128.510   4
   1   4  -1 4575.35 142.020   1
  -1   4   1 4489.64 136.059   1
  -1   4   1 4282.71 117.820  14
   1   4  -1 4624.64 137.918  14
  -1   4   1 4425.54 133.305  10
   1   4   0 11851.4 316.230  12
  -1   4   0 11127.2 308.232   1
   1   4   0 11909.0 305.208   1
   1   4   0 11692.8 302.217  14
  -1   4   0 11094.0 294.322  14
  -1   4   0 10932.9 305.524  10
   1   4   0 11562.7 307.637   9
   1   4   0 11615.3 306.015  10
   1   4   1 1996.56 79.0223   4
   1   4   1 1925.06 70.3949  10
   1   4   1 1816.06 77.2181   9
   1   4   1 2013.53 67.1539   1
   1   4   1 1906.10 66.8718  14
  -1   4  -1 1899.29 71.2050  14
  -1   4  -2 2092.86 81.0793  14
   1   4   2 2058.65 82.1312  12
   1   4   2 1987.42 69.0021  10
  -1   4  -2 2169.00 86.4057   2
   1   4   2 2093.01 85.1217   4
   1   4   2 2110.96 63.9190   1
  -1   4  -3 6113.78 182.628   2
   1   4   3 5718.09 178.260   2
  -1   4  -3 5883.17 189.080   1
   1   4   3 5656.59 182.036   4
  -1   4  -4 3090.84 117.721  10
  -1   4  -4 3137.54 115.086   2
  -1   4  -4 3345.54 127.960   1
   1   4   4 3195.56 120.981   4
  -1   4  -5 1688.79 77.0003   2
  -1   4  -5 1723.73 82.7234  10
  -1   4  -5 1753.24 90.4149   1
  -1   4  -6 208.400 34.4126  14
  -1   4  -6 224.096 33.5860  10
  -1   4  -6 203.683 29.0806   2
  -1   4  -6 229.736 36.4804   1
  -1   4  -7 2323.60 106.166  10
  -1   4  -7 2424.28 116.702  14
  -1   4  -7 2338.25 96.1275   2
  -1   4  -7 2337.44 117.607   1
  -1   4  -8 79.8598 30.8136  14
  -1   4  -8 123.087 34.6367   1
  -1   4  -8 115.076 25.6028   2
  -1   4  -9 542.419 61.6492  14
  -1   4  -9 531.949 44.1870   2
  -1   4  -9 490.810 59.1788   1
  -1   4 -10 50.4415 31.3108  14
  -1   4 -10 32.3870 28.2595   1
  -1   4 -11 772.904 80.1948  14
  -1   4 -11 776.698 78.7131   1
  -1   4 -12 37.1873 35.3451  14
  -1   4 -12 20.6991 31.5955   1
  -1   4 -13 419.740 67.4967  14
  -1   4 -13 442.285 65.8846   1
   1   5 -13 354.254 63.4410   1
   1   5 -12 97.7998 45.0861  14
   1   5 -12 82.1255 42.5175   1
   1   5 -11 708.026 78.2599  14
   1   5 -11 506.739 70.2360   1
   1   5 -10 61.5301 35.7703  14
   1   5 -10 36.5683 31.4074   1
   1   5  -9 1094.56 86.1115  14
   1   5  -9 983.132 87.1525   1
   1   5  -8 77.5075 23.2283   2
   1   5  -8 45.0488 28.8118   1
  -1   5   8 59.8193 31.8147   8
   1   5  -8 119.687 35.5437  14
   1   5  -7 2939.01 136.881  14
   1   5  -7 3214.89 123.995  12
   1   5  -7 3244.16 149.136   1
  -1   5   7 2860.43 134.108   8
   1   5  -7 3141.70 118.400   2
   1   5  -6 194.942 37.6949  14
  -1   5   6 225.107 23.2348  13
   1   5  -6 201.995 31.9551  12
   1   5  -6 259.057 41.3052   1
   1   5  -6 231.569 38.5208  10
  -1   5   6 250.211 39.0907   8
   1   5  -6 318.284 35.4989   2
   1   5  -5 3791.96 148.767   1
  -1   5   5 3362.07 107.514  13
  -1   5   5 3043.80 88.3799  10
   1   5  -5 3749.58 135.325  10
   1   5  -5 3732.57 132.294  12
  -1   5   5 3409.44 134.844   8
   1   5  -5 3862.45 129.648   2
  -1   5   4 500.865 33.5073  13
   1   5  -4 502.037 42.7877  12
   1   5  -4 523.765 44.5086  10
  -1   5   4 439.522 25.9669  10
  -1   5   4 493.025 44.4492   8
   1   5  -4 532.124 43.0390   2
   1   5  -3 6226.29 193.242  14
   1   5  -3 6249.64 195.860  12
  -1   5   3 5879.06 179.905   4
  -1   5   3 5803.21 168.073  10
   1   5  -3 5984.89 191.478  10
  -1   5   3 6061.10 194.577   8
   1   5  -3 6160.24 192.022   2
   1   5  -2 376.343 36.4205   2
   1   5  -2 437.041 38.2027  12
  -1   5   2 408.778 30.3380   4
  -1   5   2 406.248 29.7826  10
  -1   5   2 452.335 39.5178   8
  -1   5   2 401.754 30.6144   1
   1   5  -2 482.432 39.7378   1
   1   5  -1 4168.03 142.702  12
  -1   5   1 3924.32 121.960   4
  -1   5   1 4079.28 130.284   1
   1   5  -1 4085.98 136.137   1
  -1   5   1 3741.60 110.177  14
   1   5  -1 4092.42 130.249  14
  -1   5   1 3895.20 127.107  10
   1   5   0 3561.15 126.733  12
  -1   5   0 3280.15 116.527   1
   1   5   0 3433.42 113.965   1
   1   5   0 3332.32 109.511  14
  -1   5   0 3084.88 101.724  14
   1   5   1 1945.90 81.6395   4
   1   5   1 1760.05 71.6883  10
   1   5   1 1809.21 69.5777   1
  -1   5  -1 2035.90 84.6947   1
   1   5   1 1827.99 68.1480  14
  -1   5  -1 1842.74 72.6969  14
   1   5   2 629.940 44.4690  12
   1   5   2 586.719 34.0072  10
  -1   5  -2 684.156 47.1114   2
   1   5   2 646.016 45.6388   2
   1   5   2 593.348 30.6815   1
   1   5   2 604.679 43.4172   4
  -1   5  -3 585.578 44.7659  10
   1   5   3 581.066 30.5481  10
   1   5   3 544.641 42.8488   2
  -1   5  -3 538.168 43.9364   2
   1   5   3 588.801 44.0782   4
   1   5   4 3378.50 133.537   4
  -1   5  -4 3673.80 136.253  10
  -1   5  -4 3545.56 142.828   1
  -1   5  -4 3754.38 137.465  14
  -1   5  -4 3676.01 134.072   2
   1   5   4 3701.74 131.083   2
  -1   5  -5 2892.90 117.700  10
  -1   5  -5 2948.61 127.558   1
   1   5   5 2643.75 77.7097  13
  -1   5  -5 2956.05 113.731   2
  -1   5  -6 1067.12 63.4148   2
  -1   5  -6 972.583 67.6078  10
  -1   5  -6 966.955 72.2150   1
  -1   5  -7 77.0153 29.4175  14
  -1   5  -7 74.6554 26.3220   2
  -1   5  -7 103.859 31.1480   1
  -1   5  -8 1175.83 86.5448  14
  -1   5  -8 1115.77 68.6622   2
  -1   5  -8 1267.50 90.5430   1
  -1   5  -9 155.965 41.1075  14
  -1   5  -9 217.218 33.2635   2
  -1   5  -9 266.547 48.6585   1
  -1   5 -10 831.907 80.5860  14
  -1   5 -10 659.359 73.6489   1
  -1   5 -11 20.8719 38.2064  14
  -1   5 -11 74.0977 37.9020   1
  -1   5 -12 344.011 61.7014  14
  -1   5 -12 400.423 63.8472   1
  -1   5 -13 5.77217 35.7818   1
   1   6 -12 683.644 81.9025  14
   1   6 -12 627.041 82.1777   1
   1   6 -11 48.3044 37.5459  14
   1   6 -11 29.5799 36.6847   1
   1   6 -10 1001.57 90.9147  14
   1   6 -10 1134.05 99.1856   1
  -1   6   9 21.8405 34.9584   8
   1   6  -9 13.9124 31.2532  14
   1   6  -9 5.22406 28.1880   1
   1   6  -8 1695.25 107.041  14
   1   6  -8 2040.44 121.526   1
  -1   6   8 1690.86 105.093   8
   1   6  -8 1761.48 89.8112   2
   1   6  -7 66.9994 31.6606   1
   1   6  -7 88.8337 26.8991   2
  -1   6   7 95.7388 34.9167   8
  -1   6   7 71.3622 17.3540  13
   1   6  -6 2621.10 131.576   1
  -1   6   6 2527.63 89.7366  13
   1   6  -6 2819.01 119.171  12
  -1   6   6 2597.66 123.447   8
  -1   6   6 2509.86 104.687   2
   1   6  -6 2661.46 111.953   2
  -1   6   5 514.039 36.4070  13
   1   6  -5 590.587 54.2296  14
  -1   6   5 498.544 26.1568  10
   1   6  -5 612.078 52.0654  12
  -1   6   5 507.787 51.7050   8
   1   6  -5 575.364 48.8301   2
  -1   6   5 441.859 43.7148   2
   1   6  -4 1175.94 71.2553  14
   1   6  -4 1300.14 75.1096  12
   1   6  -4 1163.36 71.2956  10
  -1   6   4 1103.28 48.5623  10
  -1   6   4 1245.79 74.9307   8
  -1   6   4 1103.55 66.1236   2
   1   6  -4 1195.58 70.1990   2
   1   6  -3 419.933 42.8044   1
   1   6  -3 448.827 41.1648  14
   1   6  -3 412.798 42.2410  12
  -1   6   3 313.114 31.4788   4
  -1   6   3 326.768 28.4577  10
  -1   6   3 355.938 41.3370   8
  -1   6   3 414.475 41.0269   2
   1   6  -3 332.116 38.6122   2
   1   6  -2 4471.08 150.979  14
   1   6  -2 4440.99 161.286  12
  -1   6   2 4250.08 139.315   4
  -1   6   2 4166.28 138.231  10
   1   6  -2 4569.95 154.605  10
   1   6  -2 4527.74 159.727   1
  -1   6   2 4345.36 142.811   1
   1   6  -2 4464.13 157.675   2
  -1   6   2 4430.92 156.432   2
   1   6  -1 227.691 33.3426  12
  -1   6   1 258.737 25.5149   4
   1   6  -1 245.606 31.0963  10
   1   6  -1 242.750 33.1431   2
   1   6  -1 211.467 28.3611   1
  -1   6   1 250.967 28.0600   1
  -1   6   1 248.696 19.6386  14
  -1   6   0 1963.72 75.3385  14
   1   6   0 2090.46 82.1929  14
   1   6   0 2158.20 98.8168  12
  -1   6   0 2036.45 87.2562  10
   1   6   0 2157.66 87.4909  10
   1   6   0 2083.54 96.5710   2
   1   6   0 2147.23 86.9631   1
  -1   6   0 2142.39 91.1458   1
   1   6   1 973.714 57.8032   4
   1   6   1 929.938 49.2429   1
  -1   6  -1 981.532 59.7153   1
  -1   6  -1 1103.58 60.9544  10
   1   6   1 911.521 47.0379  14
  -1   6  -1 991.493 62.7524   2
   1   6   2 1924.59 76.4152  10
  -1   6  -2 2123.56 96.9363   1
   1   6   2 1991.38 72.8631   1
   1   6   2 2057.87 94.0143   2
  -1   6  -2 1964.34 93.8347   2
   1   6   2 1977.73 90.2041   4
   1   6   3 1572.03 81.0956   4
   1   6   3 1721.28 58.9614   1
  -1   6  -3 1706.78 81.2529  14
  -1   6  -3 1641.91 84.4241   2
   1   6   3 1658.87 84.1231   2
   1   6   3 1627.67 64.4307  10
   1   6   4 2175.32 100.207   4
  -1   6  -4 2221.47 102.230  10
  -1   6  -4 2126.56 100.096  14
   1   6   4 2066.15 97.5441   2
  -1   6  -4 2234.02 101.215   2
   1   6   5 1073.35 69.8040   4
  -1   6  -5 1023.88 73.6525   1
   1   6   5 938.797 41.5080  13
  -1   6  -5 1062.74 69.9215  14
  -1   6  -5 1015.59 66.1478   2
  -1   6  -6 445.378 53.6425   1
  -1   6  -6 418.971 49.4248  14
  -1   6  -6 401.653 43.3565   2
  -1   6  -7 670.760 67.4243   1
  -1   6  -7 629.776 55.4931   2
  -1   6  -8 112.929 36.0053   1
  -1   6  -9 822.959 80.8833  14
  -1   6  -9 994.231 86.7394   1
  -1   6 -10 25.4782 33.4623  14
  -1   6 -10 59.0819 34.3038   1
  -1   6 -11 740.757 82.7380  14
  -1   6 -11 748.177 83.7421   1
  -1   6 -12 17.2973 37.8470  14
  -1   6 -12 5.92737 35.0346   1
   1   7 -11 674.491 82.9698  14
   1   7 -11 680.573 85.1648   1
   1   7 -10 353.441 60.1943  14
   1   7 -10 290.751 58.1356   1
  -1   7   9 557.404 73.7367   8
   1   7  -9 843.047 86.5133   1
  -1   7   8 73.5341 37.9371   8
   1   7  -8 31.2617 29.2366   1
   1   7  -7 3387.24 162.292   1
  -1   7   7 3256.00 150.524   8
  -1   7   7 3075.73 103.970  13
  -1   7   6 129.915 23.4665  13
   1   7  -6 128.856 38.4862  14
  -1   7   6 100.781 35.9311   8
  -1   7   6 143.823 30.6387   2
  -1   7   5 3592.50 121.813  13
   1   7  -5 3621.20 149.696  14
  -1   7   5 3321.12 104.430  10
  -1   7   5 3660.98 152.809   8
  -1   7   5 3614.72 138.693   2
   1   7  -4 291.919 41.6855  14
   1   7  -4 345.316 45.6521  12
  -1   7   4 273.411 27.6413  10
   1   7  -4 343.179 42.2917   2
  -1   7   4 287.598 38.6720   2
   1   7  -4 388.207 48.1216   1
  -1   7   4 338.457 45.1965   8
   1   7  -3 3945.47 156.527   1
   1   7  -3 3750.87 144.359  14
   1   7  -3 4085.45 157.652  12
  -1   7   3 3651.54 132.173   4
  -1   7   3 3629.44 150.774   8
   1   7  -3 3984.26 151.513   2
  -1   7   3 3737.09 145.955   2
   1   7  -2 880.267 57.3194  14
   1   7  -2 884.072 65.7667  12
  -1   7   2 938.069 52.8544   4
   1   7  -2 912.093 62.2917  10
   1   7  -2 873.576 62.9559   1
  -1   7   2 979.631 56.0219   1
   1   7  -2 918.024 65.6800   2
  -1   7   2 851.056 62.5792   2
  -1   7   1 1764.82 66.2917  14
   1   7  -1 1915.47 84.3705  14
   1   7  -1 1890.73 98.7448  12
  -1   7   1 1978.90 85.5596  10
   1   7  -1 1838.73 88.1157  10
   1   7  -1 1866.55 95.2949   2
  -1   7   1 2000.92 87.9396   1
   1   7  -1 1889.21 90.3862   1
  -1   7   1 1888.60 79.3435   4
  -1   7   0 1247.18 61.3379   4
  -1   7   0 1186.04 55.9258  14
   1   7   0 1249.20 67.6090  10
  -1   7   0 1170.77 66.7111  10
  -1   7   0 1272.17 70.4927   1
   1   7   0 1226.31 66.0024   1
   1   7   0 1262.96 77.2629   2
   1   7   1 1672.53 83.6696   4
   1   7   1 1521.12 67.0634  14
  -1   7  -1 1615.19 84.8018   1
   1   7   1 1722.04 74.6982   1
  -1   7  -1 1684.26 90.0286   2
  -1   7  -1 1620.92 81.9436  10
   1   7   1 1598.70 75.8773  10
  -1   7  -2 222.638 30.2666  14
  -1   7  -2 262.043 37.8414   2
   1   7   2 242.614 36.4336   2
   1   7   2 198.744 24.3440   1
  -1   7  -2 181.016 32.0185   1
   1   7   2 234.506 34.6406   4
  -1   7  -2 241.801 36.9189  10
  -1   7  -3 163.201 30.0270  14
  -1   7  -3 182.640 33.6114   1
   1   7   3 113.872 18.7626   1
  -1   7  -3 126.737 30.8943   2
   1   7   3 116.815 29.1904   2
   1   7   3 177.255 33.4423   4
   1   7   4 821.813 42.4558  10
   1   7   4 905.756 63.5429   4
   1   7   4 815.274 63.7459   2
  -1   7  -4 862.036 62.8403  14
  -1   7  -5 107.738 32.5805  14
   1   7   5 90.1389 30.3757   4
  -1   7  -6 891.580 76.2127   1
  -1   7  -6 845.531 68.8848  14
   1   7   6 687.460 33.1641  13
  -1   7  -7 530.470 62.9449   1
  -1   7  -7 660.970 65.9228  14
  -1   7  -8 889.573 84.4488   1
  -1   7  -9 70.4690 37.0336   1
  -1   7 -10 1061.07 97.6206   1
  -1   7 -11-12.0353 33.7421   1
  -1   7 -11 5.64746 37.5672  14
   1   8 -10 723.373 86.2871   1
  -1   8  10 812.820 87.9384   8
   1   8  -9 35.4963 37.7958   1
  -1   8   9 93.9515 44.0250   8
  -1   8   8 1348.88 105.373   8
   1   8  -8 1563.19 109.511  14
   1   8  -7 194.595 42.6013  14
  -1   8   7 160.868 42.4091   8
  -1   8   7 156.526 24.8212  13
   1   8  -6 1713.13 104.109  14
  -1   8   6 1690.09 75.1659  13
  -1   8   6 1478.91 102.507   8
   1   8  -6 1746.00 112.343   1
  -1   8   5 151.047 28.0325  13
  -1   8   5 141.435 20.8118  10
   1   8  -5 187.621 39.6414  14
  -1   8   5 97.5677 38.7435   8
   1   8  -5 119.420 33.9150   1
   1   8  -4 1344.30 89.8369   1
  -1   8   4 1288.82 87.1082   8
   1   8  -4 1225.01 79.0274  14
  -1   8   3 244.543 32.3278   4
   1   8  -3 238.874 37.3366  14
  -1   8   3 237.719 30.6359  10
   1   8  -3 288.801 42.9206   1
  -1   8   3 296.211 45.0279   8
  -1   8   2 2728.10 109.595  10
  -1   8   2 2692.32 106.954   4
   1   8  -2 2830.63 126.378   1
  -1   8   2 2865.60 113.419   1
   1   8  -2 2868.63 117.962  14
  -1   8   1 157.212 21.8140  14
   1   8  -1 219.198 32.9989  14
  -1   8   1 213.694 33.2148  10
   1   8  -1 180.150 32.9409  10
   1   8  -1 228.935 35.4228   1
  -1   8   1 193.989 32.7768   1
  -1   8   1 248.645 29.4898   4
   1   8   0 1895.90 88.9968   1
  -1   8   0 1829.76 92.5437   1
   1   8   0 1898.53 94.5267   4
  -1   8   0 1751.94 80.0336   4
  -1   8   0 1721.07 88.6746  10
   1   8   0 1828.47 88.7621  10
   1   8   1 558.118 50.2273   4
  -1   8  -1 546.112 43.0134  14
   1   8   1 562.203 44.1713   1
  -1   8  -1 540.966 52.1711   1
  -1   8  -1 627.530 53.3481  10
   1   8   1 515.845 45.8145  10
   1   8   2 1746.59 90.6305   4
  -1   8  -2 1722.31 84.3855  14
  -1   8  -2 1685.27 95.3684   1
   1   8   2 1733.33 75.4825   1
   1   8   2 1737.90 79.9230  10
   1   8   3 824.689 63.5709   4
   1   8   3 869.417 46.2197   1
  -1   8  -3 939.267 71.2075   1
  -1   8  -3 898.511 62.9805  14
   1   8   4 1655.26 93.3797   4
  -1   8  -4 1773.93 105.119   1
  -1   8  -4 1842.08 96.3046  14
  -1   8  -5 646.729 60.6214  14
   1   8   5 458.609 53.2785   4
  -1   8  -6 234.027 43.9368  14
   1   8   6 203.093 22.8632  13
  -1   8  -7 1164.36 93.7444   1
  -1   8  -7 989.790 83.6844  14
  -1   8  -8 206.907 47.6007   1
  -1   8  -8 185.451 44.9770  14
  -1   8  -9 1380.71 110.867   1
  -1   8  -9 1207.16 101.412  14
  -1   8 -10-30.3884 37.6799   1
  -1   8 -10-16.5060 41.1384  14
  -1   9   9 425.821 70.9492   8
   1   9  -9 579.974 74.4898  14
  -1   9   8 4.97709 37.9772   8
   1   9  -8-5.01482 37.4920  14
  -1   9   7 673.261 48.3872  13
  -1   9   7 783.476 82.2524   8
   1   9  -6 25.6386 30.5912  14
  -1   9   6 13.5442 35.8044   8
  -1   9   6 21.7403 20.4632  13
   1   9  -6 25.5600 32.1700   1
  -1   9   5 1034.77 65.7279  13
   1   9  -5 1180.16 85.9028  14
  -1   9   5 1016.39 85.6262   8
   1   9  -5 1135.00 90.5146   1
   1   9  -4 24.6918 26.3969  14
  -1   9   4 54.5562 22.4196  10
  -1   9   4 50.2464 35.3088   8
   1   9  -4 78.3361 34.8475   1
  -1   9   3 2178.86 97.6003   4
   1   9  -3 2177.75 107.941  14
  -1   9   3 2327.31 96.6973  10
  -1   9   3 1998.93 116.523   8
   1   9  -3 2327.90 121.002   1
  -1   9   2 9.22953 20.3829   4
   1   9  -2 54.0952 25.3368  14
  -1   9   2 11.7265 23.3348  10
  -1   9   2 7.92023 20.7425   1
   1   9  -2-3.58657 21.8956   1
  -1   9   2 3.95637 31.6635   8
  -1   9   1 2047.59 99.8462  10
  -1   9   1 1923.64 75.2115  14
   1   9  -1 2260.77 98.9065  14
  -1   9   1 2115.52 92.3511   4
   1   9  -1 2227.51 107.490   1
  -1   9   1 2157.97 102.453   1
   1   9   0 497.977 44.0215  14
   1   9   0 495.711 48.7454   1
  -1   9   0 526.946 52.9548   1
   1   9   0 452.647 49.2981   4
  -1   9   0 508.088 42.9515   4
   1   9   1 1607.75 87.2736  10
  -1   9  -1 1813.12 82.9337  14
  -1   9  -1 1800.88 99.4710   1
   1   9   1 1905.27 88.5620   1
   1   9   1 1790.45 95.8905   4
  -1   9  -1 1696.32 82.8260   4
   1   9   2 474.829 46.9421  10
  -1   9  -2 473.135 46.6586  14
  -1   9  -2 545.028 56.7782   1
   1   9   2 495.948 42.1560   1
   1   9   2 481.245 52.1024   4
   1   9   3 689.940 51.7596  10
  -1   9  -3 813.764 62.9649  14
  -1   9  -3 844.918 72.2884   1
   1   9   3 757.129 46.9911   1
   1   9   3 908.160 68.5841   4
   1   9   4 1417.84 68.9321  10
  -1   9  -4 1681.08 105.398   1
   1   9   4 1478.94 91.1602   4
  -1   9  -4 1762.18 95.6836  14
  -1   9  -5 778.565 75.8840   1
   1   9   5 685.628 64.6427   4
  -1   9  -5 769.944 69.4551  14
  -1   9  -6 1126.07 93.0608   1
  -1   9  -6 1030.10 82.9724  14
   1   9   6 923.989 50.4390  13
  -1   9  -7 41.0612 34.1233  14
  -1   9  -8 846.157 85.3245  14
  -1   9  -9 67.1565 40.1115   1
  -1   9  -9 79.8583 43.4089  14
   1  10  -8 606.544 78.7646   1
   1  10  -8 679.445 77.6510  14
   1  10  -7-11.5632 31.8125   1
  -1  10   7 5.08829 38.8258   8
   1  10  -7 33.7855 36.8282  14
   1  10  -6 821.158 77.2594  14
  -1  10   6 682.696 53.6805  13
  -1  10   6 721.575 78.9014   8
   1  10  -5 204.969 44.0612  14
  -1  10   5 237.175 53.1714   8
   1  10  -5 201.700 44.4728   1
  -1  10   5 189.713 34.8681  13
   1  10  -4 852.772 79.9189   1
  -1  10   4 837.826 81.4393   8
   1  10  -4 947.993 76.0977  14
  -1  10   3 49.4333 22.8606   4
   1  10  -3 81.2587 32.6698   1
  -1  10   3 61.9380 24.6786  10
   1  10  -3 101.758 33.5819  14
  -1  10   3 45.2581 34.9114   8
   1  10  -2 1055.22 73.9531  14
  -1  10   2 1111.09 90.0736   8
   1  10  -2 1249.93 85.6450   1
  -1  10   2 1153.43 74.9012   1
  -1  10   2 1085.59 68.5660   4
  -1  10   1 288.333 27.8219  14
   1  10  -1 288.322 40.2883  14
  -1  10   1 315.100 44.8645   1
   1  10  -1 366.166 46.6776   1
   1  10  -1 287.719 48.4710   4
  -1  10   1 346.132 41.4141   4
   1  10   0 1435.07 85.5919   1
  -1  10   0 1616.55 92.8388   1
   1  10   0 1470.59 76.6983  14
  -1  10   0 1369.82 68.4771  14
  -1  10   0 1371.42 77.7046   4
   1  10   0 1552.41 93.2046   4
  -1  10  -1 460.441 43.7618  14
   1  10   1 523.172 49.4858   1
  -1  10  -1 537.349 58.7512   1
   1  10   1 416.300 52.6053   4
  -1  10  -1 527.008 50.3638   4
   1  10   2 911.444 73.8533   4
  -1  10  -2 1044.82 68.8234  14
   1  10   2 968.642 61.7781   1
  -1  10  -2 1099.02 84.0108   1
   1  10   3 791.784 68.0803   4
  -1  10  -3 930.712 68.1851  14
  -1  10  -3 957.328 80.3112   1
   1  10   3 748.104 58.0028  10
   1  10   4 791.240 70.6543   4
  -1  10  -4 901.317 73.1603  14
   1  10   5 629.457 64.1073   4
  -1  10  -5 696.622 76.5432   1
  -1  10  -5 622.816 66.0335  14
  -1  10  -6 349.365 59.4870   1
   1  10   6 217.422 28.7834  13
  -1  10  -6 253.015 47.8992  14
  -1  10  -7 646.201 74.4030  14
  -1  10  -7 763.739 83.7964   1
  -1  10  -8 61.5392 39.9327  14
  -1  10  -9 351.079 65.3855  14
  -1  11   7 734.175 85.5754   8
   1  11  -7 687.767 84.1833   1
   1  11  -7 628.452 75.9415  14
   1  11  -6 11.3619 34.1332   1
   1  11  -6 13.9408 33.2635  14
  -1  11   6 5.29099 46.7351   8
  -1  11   5 919.858 69.7659  13
  -1  11   5 1066.46 96.7097   8
   1  11  -5 1093.01 87.6083  14
   1  11  -4 58.9393 32.8605  14
  -1  11   4 65.7433 43.3281   8
   1  11  -4 19.7427 31.0740   1
   1  11  -3 1009.05 84.7251   1
  -1  11   3 849.990 87.3253   8
   1  11  -3 918.751 75.8112  14
   1  11  -2 162.679 37.0326  14
  -1  11   2 87.9619 43.2667   8
  -1  11   2 118.353 32.1992   1
   1  11  -2 136.890 36.4876   1
  -1  11   2 114.658 30.0400   4
   1  11  -1 621.761 57.1035  14
   1  11  -1 602.953 65.1991   4
   1  11  -1 710.983 67.4801   1
  -1  11   1 717.186 64.8596   1
  -1  11   1 522.671 50.8121   4
  -1  11   0 234.781 31.2964  14
   1  11   0 145.809 32.9583  14
  -1  11   0 143.352 34.2720   4
   1  11   0 164.318 46.8329   4
   1  11   0 204.875 38.7805   1
  -1  11   0 222.156 44.3596   1
  -1  11  -1 795.526 58.1447  14
  -1  11  -1 945.130 79.2032   1
   1  11   1 776.926 63.1285   1
  -1  11  -1 757.065 61.5700   4
   1  11   1 788.622 72.6139   4
  -1  11  -2 358.524 44.6773  14
  -1  11  -2 362.236 45.3691   4
   1  11   2 336.151 49.2192   4
  -1  11  -2 432.240 58.1512   1
   1  11   2 351.334 40.0046   1
  -1  11  -3 379.458 56.2161   1
  -1  11  -3 337.757 47.1173  14
   1  11   3 346.466 49.2979   4
  -1  11  -4 588.924 70.2048   1
  -1  11  -4 502.790 57.7311  14
   1  11   4 537.032 59.9299   4
  -1  11  -5 337.242 59.8517   1
  -1  11  -5 351.614 53.5821  14
  -1  11  -6 789.478 84.6627   1
  -1  11  -6 722.831 76.4148  14
  -1  11  -7 346.544 63.9305   1
  -1  11  -7 219.424 50.8757  14
   1  12  -6 466.705 65.7528  14
   1  12  -5-5.53162 34.8065   1
   1  12  -5 30.9106 38.1212  14
   1  12  -4 640.469 75.4046   1
  -1  12   4 627.177 82.6652   8
   1  12  -4 594.697 68.1163  14
   1  12  -3-28.6459 37.5072   1
  -1  12   3 26.9609 42.7589   8
   1  12  -3 3.67120 30.1710  14
   1  12  -2 510.829 63.3808   1
   1  12  -2 510.951 63.1824   4
  -1  12   2 507.205 73.0322   8
   1  12  -2 550.306 58.3214  14
  -1  12   1 80.4754 36.2142   1
   1  12  -1 83.8318 37.8352   1
   1  12  -1 27.1297 40.1475   4
  -1  12   1 63.5177 47.8162   8
   1  12  -1 77.9947 32.5538  14
   1  12   0 701.821 65.0340   1
  -1  12   0 668.396 68.2425   1
   1  12   0 499.221 61.9392   4
  -1  12  -1 444.884 46.1390  14
  -1  12  -1 417.365 57.6103   1
   1  12   1 463.916 50.4537   1
   1  12   2 690.882 68.9851   4
  -1  12  -2 920.356 82.8703   1
  -1  12  -2 770.999 63.6227  14
   1  12   3 453.407 55.4189   4
  -1  12  -3 476.630 66.2016   1
  -1  12  -3 508.313 55.6812  14
  -1  12  -4 477.159 68.4383   1
  -1  12  -4 478.440 59.4189  14
  -1  12  -5 585.892 76.8792   1
  -1  12  -5 559.225 66.1963  14
  -1  12  -6 176.780 47.8620  14
   1  13  -5 516.987 68.9593  14
   1  13  -4-10.6847 36.4608   1
   1  13  -4 16.2860 35.6936  14
   1  13  -3 651.782 74.9433   1
   1  13  -3 681.642 68.6356  14
   1  13  -2 18.2732 36.2280   1
   1  13  -1 672.768 68.8905   1
  -1  13   0 121.298 41.9571   1
  -1  13  -1 613.249 70.1736   1
  -1  13  -2 259.531 53.7265   1
  -1  13  -3 429.735 66.9843   1
  -1  13  -5 190.912 47.8257  14
   2 -13  -2 208.114 46.5817  11
   2 -13  -1 463.429 64.1219  11
   2 -13   0 183.896 47.3306  11
  -2 -13   0 211.502 51.5663  11
   2 -13   1 149.345 45.6948   6
  -2 -13  -1 92.9018 41.4038  11
   2 -13   1 123.409 43.0357  11
   2 -13   2 424.006 65.3021   6
  -2 -13  -2 418.336 61.3662  11
   2 -13   3 44.9631 41.7772   6
   2 -13   3 57.0436 38.8514   3
   2 -12  -6 540.035 70.0878   2
   2 -12  -5 208.920 50.9342   2
  -2 -12   5 176.278 51.7180   2
  -2 -12   4 361.639 64.4595   2
   2 -12  -4 351.326 61.4028   2
  -2 -12   4 284.371 59.1219  11
  -2 -12   3 131.315 49.7190   2
   2 -12  -3 310.655 59.4650   2
  -2 -12   3 224.355 52.1710  11
   2 -12  -3 196.436 41.3977  11
   2 -12  -2 487.053 70.8629   2
   2 -12  -2 501.107 60.2980  11
  -2 -12   2 433.986 65.3789  11
  -2 -12   1 150.439 47.7990   2
   2 -12  -1 103.718 47.8419   2
   2 -12  -1 149.706 41.0523  11
  -2 -12   1 74.9939 38.0070  11
  -2 -12   0 125.949 45.8482   2
   2 -12   0 140.159 48.4854   2
  -2 -12   0 107.776 40.4137  11
   2 -12   0 100.893 39.9193  11
  -2 -12  -1 723.616 75.8279  11
   2 -12   1 737.574 80.0878  11
   2 -12   1 791.038 87.3274   2
  -2 -12  -1 762.333 86.8904   2
  -2 -12  -2 87.7118 36.6843  11
   2 -12   2 116.189 41.1655  11
   2 -12   2 91.1486 43.7764   6
  -2 -12  -2 88.8439 42.9412   2
   2 -12   2 118.948 44.9880   2
   2 -12   3 759.261 78.0128   6
  -2 -12  -3 590.074 66.3905  11
   2 -12   3 587.692 74.9207  11
  -2 -12  -3 573.511 73.9107   2
   2 -12   3 738.203 71.2334   3
   2 -12   4 45.4704 39.2763  11
  -2 -12  -4 57.9274 39.5379   2
   2 -12   4-8.16304 32.0685   3
   2 -12   4 9.83927 37.9159   6
   2 -12   5 860.212 79.9198   3
  -2 -12  -5 790.597 88.5364   2
   2 -12   5 915.572 90.0004   6
   2 -12   6 12.7918 36.2369   3
  -2 -12  -6 50.0397 39.8042   2
  -2 -11   8 10.1684 35.5565   2
   2 -11  -7 739.415 77.3824   2
  -2 -11   7 774.764 82.8261   2
   2 -11  -6 97.1150 39.3691   2
  -2 -11   6 101.979 41.8364   2
  -2 -11   6 108.850 49.1290   6
  -2 -11   5 713.396 83.3524  11
  -2 -11   5 743.028 85.3920   6
  -2 -11   5 802.939 84.0365   2
   2 -11  -5 698.835 75.6291   2
  -2 -11   4 554.934 70.0989  11
   2 -11  -4 558.740 56.5626  11
  -2 -11   4 586.486 73.4372   2
   2 -11  -4 552.620 68.8522   2
   2 -11  -3 430.860 53.9153  11
  -2 -11   3 569.501 71.6503  11
   2 -11  -3 541.289 68.8782   2
  -2 -11   3 624.526 74.6027   2
  -2 -11   3 537.990 42.2235   3
  -2 -11   2 798.573 81.4378  11
   2 -11  -2 803.944 71.3353  11
  -2 -11   2 647.639 47.7112   3
   2 -11  -2 860.158 84.5134   2
  -2 -11   1 538.786 67.8348  11
   2 -11  -1 461.634 58.6549  11
  -2 -11   1 435.531 64.3261   2
   2 -11  -1 556.446 70.3272   2
  -2 -11   0 1031.63 88.8670  11
   2 -11   0 1035.81 86.5321  11
   2 -11   0 1258.05 101.943   2
  -2 -11   0 1154.04 99.7383   2
  -2 -11  -1 177.384 41.1202  11
   2 -11   1 215.380 47.4306  11
  -2 -11  -1 235.560 50.7909   2
   2 -11   1 304.535 54.0500   2
   2 -11   2 911.712 82.8247  11
  -2 -11  -2 803.219 75.1371  11
   2 -11   2 890.356 80.0726   6
   2 -11   2 894.939 88.6946   2
  -2 -11  -2 827.851 85.4330   2
  -2 -11  -3 124.443 42.1455   2
   2 -11   3 101.871 41.7105   6
   2 -11   3 46.0055 31.2617  11
  -2 -11  -3 76.3622 31.6311  11
   2 -11   4 407.987 60.3581   6
  -2 -11  -4 540.595 70.1269   2
   2 -11   4 448.450 57.1699   3
  -2 -11  -4 477.720 54.8126  11
   2 -11   4 371.386 62.5792  11
   2 -11   5-4.82298 35.6803   6
   2 -11   5 5.49247 31.3626  11
  -2 -11  -5-5.27265 33.1767   2
   2 -11   5-12.2946 32.4979   3
   2 -11   6 893.259 92.0825  11
   2 -11   6 806.280 83.8694   6
  -2 -11  -6 821.174 83.2551   2
   2 -11   6 995.113 84.2654   3
   2 -11   7-10.5389 38.1450   6
  -2 -11  -7-5.01214 34.6323   2
   2 -11   7-4.38564 34.7773   3
   2 -11   8 714.085 78.0690   3
   2 -11   9 27.7856 37.7342   3
  -2 -10   8 608.826 77.2190  11
  -2 -10   8 674.335 82.2610   6
  -2 -10   8 695.483 91.4304   7
  -2 -10   8 743.981 76.6344   2
  -2 -10   7 48.2293 34.5558   2
   2 -10  -7 55.6539 31.5596   2
  -2 -10   7 66.7122 37.0122  11
  -2 -10   7 105.426 47.1713   6
  -2 -10   6 879.337 89.0890   6
  -2 -10   6 778.373 54.7656   3
   2 -10  -6 797.800 75.5581   2
  -2 -10   6 821.652 81.4744   2
  -2 -10   5 160.011 50.9078   6
  -2 -10   5 174.636 45.8661  11
   2 -10  -5 156.724 31.2721  11
  -2 -10   5 169.153 27.8950   3
   2 -10  -5 179.359 43.1996   2
  -2 -10   5 197.950 45.4958   2
  -2 -10   4 780.102 80.1203  11
   2 -10  -4 666.250 71.5715   2
  -2 -10   4 686.925 48.3040   3
  -2 -10   4 810.938 80.2598   2
   2 -10  -4 670.237 59.3215  11
   2 -10  -3 509.166 53.1496  11
   2 -10  -3 572.485 66.7453   2
  -2 -10   3 508.999 41.4359   3
  -2 -10   3 634.851 71.5303  11
  -2 -10   3 544.635 44.7019   9
  -2 -10   3 471.417 62.9948   2
  -2 -10   2 625.567 69.4239  11
   2 -10  -2 631.174 69.4536   2
  -2 -10   2 581.119 43.5226   3
  -2 -10   2 620.083 50.6434   9
   2 -10  -2 524.195 55.6912  11
  -2 -10   1 1104.57 89.8966  11
   2 -10  -1 1253.37 84.9105  11
   2 -10  -1 1265.70 97.2720   2
  -2 -10   1 1158.82 95.0696   2
  -2 -10   0 490.436 59.5707  11
   2 -10   0 546.765 60.7330  11
  -2 -10   0 498.457 65.7344   2
   2 -10   0 551.415 67.9637   2
  -2 -10  -1 1771.61 106.626  11
   2 -10   1 1610.66 103.817  11
   2 -10   1 1682.33 112.886   2
  -2 -10  -1 1622.86 112.547   2
   2 -10   2 318.584 50.8849  11
  -2 -10  -2 342.966 49.6925  11
  -2 -10  -2 440.374 60.3682   2
   2 -10   2 445.206 61.9637   2
   2 -10   3 1463.70 102.027  11
  -2 -10  -3 1298.03 89.1121  11
   2 -10   3 1375.07 74.3343   9
   2 -10   3 1579.41 100.365   6
  -2 -10  -3 1394.90 103.495   2
   2 -10   4 56.0530 35.7971   6
   2 -10   4 73.3709 35.0715  11
  -2 -10  -4 88.4475 31.6440  11
  -2 -10  -4 82.7987 37.5889   2
   2 -10   4 136.517 40.7667   3
   2 -10   5 1454.00 106.636  11
  -2 -10  -5 1367.66 83.3006  11
   2 -10   5 1454.89 102.986   6
   2 -10   5 1480.54 98.9943   3
  -2 -10  -5 1432.91 105.689   2
   2 -10   6 42.7557 39.7184   6
  -2 -10  -6 47.4327 34.7258   2
   2 -10   6 20.6789 33.4086   3
   2 -10   7 892.193 89.4300  11
   2 -10   7 1096.71 94.7429   6
   2 -10   7 1095.71 87.9594   3
   2 -10   8 5.65442 43.5761   7
   2 -10   8 16.5849 33.2167  11
   2 -10   8-10.5055 40.4809   6
  -2 -10  -8 44.5551 31.8941   2
   2 -10   8 4.52259 32.0042   3
   2 -10   9 850.157 82.2483   3
   2 -10  10-14.4872 39.6876   3
  -2  -9  10 95.2529 41.6347  11
  -2  -9   9 432.568 75.5037   7
  -2  -9   9 586.753 73.1834  11
  -2  -9   8 188.286 51.3406   6
  -2  -9   8 94.9208 47.6866   7
  -2  -9   8 80.3465 36.0323   2
  -2  -9   8 120.423 40.8314  11
   2  -9  -7 184.149 41.6323   2
  -2  -9   7 247.294 46.8458   2
  -2  -9   7 186.604 52.4079   6
  -2  -9   7 215.675 48.8776  11
  -2  -9   6 636.606 74.8764   6
  -2  -9   6 662.019 50.6080   3
   2  -9  -6 606.867 64.5824   2
  -2  -9   6 748.488 72.8385   2
  -2  -9   5 575.171 70.0072   6
  -2  -9   5 647.658 67.1049   2
   2  -9  -5 471.453 56.1506   2
  -2  -9   5 506.512 41.9213   3
  -2  -9   5 357.721 26.5254   9
   2  -9  -5 492.281 46.3224  11
  -2  -9   4 380.273 54.5427  11
  -2  -9   4 379.469 35.8650   3
   2  -9  -4 324.958 49.3577   2
  -2  -9   4 296.128 51.0536   2
   2  -9  -4 398.706 43.2311  11
   2  -9  -3 933.902 65.9803  11
  -2  -9   3 1053.17 83.7626   2
   2  -9  -3 928.133 77.5220   2
  -2  -9   3 918.778 52.2203   3
  -2  -9   3 1046.94 81.3180  10
  -2  -9   3 835.696 77.9423  11
  -2  -9   3 897.541 54.9456   9
   2  -9  -3 899.585 61.2741   1
   2  -9  -2 925.734 67.5759  11
   2  -9  -2 926.941 77.0098   2
  -2  -9   2 897.606 50.1542   3
  -2  -9   2 984.206 80.6383  11
  -2  -9   2 1008.04 78.2529  10
  -2  -9   2 832.746 57.3854   9
   2  -9  -2 825.107 62.1924   1
   2  -9  -1 1112.82 73.9561   1
  -2  -9   1 1225.89 70.1542  14
  -2  -9   1 1153.36 85.9970  11
  -2  -9   1 1198.01 71.3194   9
   2  -9  -1 1153.63 78.2561  11
  -2  -9   1 1076.70 86.7453   2
   2  -9  -1 1113.14 85.3962   2
   2  -9   0 1224.42 83.2990  11
  -2  -9   0 1244.68 69.5839  14
  -2  -9   0 1270.79 94.4382   2
   2  -9   0 1522.10 97.7155   2
   2  -9   1 917.911 73.3108  11
  -2  -9  -1 735.546 50.8203  14
   2  -9   1 985.372 80.2304   2
  -2  -9  -1 872.781 77.7001   2
   2  -9   1 850.738 61.2334   9
   2  -9   2 1463.39 92.3585  11
   2  -9   2 1180.90 69.9904   9
  -2  -9  -2 1256.87 83.3884  11
  -2  -9  -2 1164.72 60.3147  14
  -2  -9  -2 1262.85 92.7597   2
   2  -9   2 1395.22 97.1076   2
   2  -9   3 230.298 43.3340   6
   2  -9   3 179.120 39.7024  11
  -2  -9  -3 245.866 39.9804  11
   2  -9   3 251.925 32.0076   9
  -2  -9  -3 230.470 45.4531   2
   2  -9   4 2167.91 121.778  11
  -2  -9  -4 1808.12 98.0579  11
   2  -9   4 2064.84 114.872   6
  -2  -9  -4 1917.85 116.285   2
   2  -9   4 2138.38 111.298   3
   2  -9   4 2113.59 121.480   2
   2  -9   5 70.9963 36.3553   6
   2  -9   5 65.0738 29.7007  11
  -2  -9  -5 22.1390 20.0723  11
   2  -9   5 79.3149 32.8833   3
   2  -9   5 60.1849 17.1584   9
  -2  -9  -5 52.4018 30.1995   2
  -2  -9  -6 776.622 57.1795  11
   2  -9   6 1016.15 84.6013   6
  -2  -9  -6 890.113 78.3919   2
   2  -9   6 950.304 78.5878   3
   2  -9   7 169.995 45.7070   6
   2  -9   7 119.912 39.0320  11
  -2  -9  -7 163.779 40.4258   2
   2  -9   7 130.947 41.4205   3
   2  -9   8 913.064 86.2149  11
   2  -9   8 749.532 80.5707   6
   2  -9   8 930.618 94.7659   7
  -2  -9  -8 727.053 70.9571   2
   2  -9   8 864.544 81.4235   3
   2  -9   9 47.6238 41.9704   6
   2  -9   9 39.1425 44.3508   7
   2  -9   9 55.9885 36.6650   3
   2  -9   9 20.9399 29.9060  11
   2  -9  10 443.433 64.9881   3
   2  -9  10 409.037 63.8721  11
  -2  -8  11 9.69201 32.2366  11
  -2  -8  10 679.395 85.5864   7
  -2  -8  10 840.448 81.0037  11
  -2  -8   9 26.1336 39.8865   7
  -2  -8   9 24.3666 29.7543  11
  -2  -8   8 912.324 90.8772   7
   2  -8  -8 816.459 65.4325   2
  -2  -8   8 956.401 77.7190   2
  -2  -8   8 1017.83 88.4613  11
  -2  -8   7 677.123 73.7125   6
   2  -8  -7 653.914 60.3770   2
  -2  -8   7 819.017 71.4011   2
  -2  -8   7 656.118 70.9546  11
   2  -8  -6 2081.02 82.6922  11
  -2  -8   6 2154.44 124.005  11
  -2  -8   6 2249.20 126.757  10
  -2  -8   6 2129.28 124.817   6
   2  -8  -6 2149.01 108.991   2
  -2  -8   6 2173.45 94.2308   3
  -2  -8   6 2462.70 122.996   2
   2  -8  -5 449.095 39.7754  11
  -2  -8   5 494.465 63.2487   6
  -2  -8   5 447.771 58.7115  10
   2  -8  -5 413.944 38.0730   1
   2  -8  -5 504.265 53.7964   2
  -2  -8   5 474.405 40.8156   3
  -2  -8   5 542.485 59.1658   2
   2  -8  -4 1073.86 62.7071  11
   2  -8  -4 875.238 57.8980   1
  -2  -8   4 1160.04 85.6631  11
  -2  -8   4 1186.25 84.8668  10
  -2  -8   4 1039.05 49.9127   9
  -2  -8   4 1033.67 55.6529   3
   2  -8  -4 1079.17 77.3584   2
  -2  -8   4 1071.71 80.2797   2
  -2  -8   3 1286.84 84.4103  10
   2  -8  -3 1068.88 64.9557   1
   2  -8  -3 1041.76 66.3092  11
   2  -8  -3 1150.05 79.2095   2
  -2  -8   3 1136.84 55.4997   3
  -2  -8   3 1128.64 82.2458   2
  -2  -8   2 764.397 56.9707  14
   2  -8  -2 774.255 58.1896  11
   2  -8  -2 731.052 54.4433   1
  -2  -8   2 879.141 68.1757  10
  -2  -8   2 853.623 52.7874   9
   2  -8  -2 851.903 68.8639   2
  -2  -8   2 818.475 45.4427   3
  -2  -8   1 1322.87 70.0954  14
   2  -8  -1 1167.58 73.3934  11
   2  -8  -1 1123.53 70.1820   1
   2  -8  -1 1142.82 73.1720   9
  -2  -8   1 1213.15 78.3057  10
  -2  -8   1 1186.18 66.7543   9
   2  -8  -1 1292.81 84.4352   2
  -2  -8   0 444.589 40.7761  14
   2  -8   0 491.854 50.7619  11
   2  -8   0 523.568 49.8800   1
  -2  -8   0 452.909 48.1644  10
   2  -8   0 468.061 47.3704   9
  -2  -8   0 444.691 44.9773   9
   2  -8   0 526.927 56.8038   2
  -2  -8   0 435.402 54.3489   2
  -2  -8  -1 1519.91 71.0503  14
   2  -8   1 1592.24 91.8657  11
  -2  -8  -1 1711.21 86.2505  10
   2  -8   1 1609.98 80.6896   9
   2  -8   1 1603.23 89.1421   1
  -2  -8  -1 1387.36 81.7423   9
   2  -8   1 1717.79 101.114   2
  -2  -8  -1 1745.51 102.162   2
  -2  -8  -2 144.422 23.4407  14
  -2  -8  -2 166.170 37.8842   2
   2  -8   2 152.898 33.9920  11
   2  -8   2 181.571 28.7225   9
   2  -8   2 119.845 36.2531   2
  -2  -8  -3 1691.41 68.6162  14
   2  -8   3 1818.15 102.712  11
   2  -8   3 1826.62 78.2947   9
  -2  -8  -3 1781.15 104.031   2
   2  -8   3 1786.50 98.0830   6
   2  -8   4 86.2817 32.0562   6
   2  -8   4 80.5408 30.1766  11
  -2  -8  -4 73.3448 17.7834  14
   2  -8   4 110.515 32.1857   3
   2  -8   4 61.5513 31.3776   2
  -2  -8  -4 149.580 37.5704   2
   2  -8   5 1594.91 96.9611   6
  -2  -8  -5 1433.41 76.3237  11
   2  -8   5 1413.75 56.2279   9
   2  -8   5 1435.50 55.5601   9
  -2  -8  -5 1525.94 95.9489   2
   2  -8   5 1623.63 95.2034   3
   2  -8   6 250.828 47.0491   6
  -2  -8  -6 192.432 29.4368  11
  -2  -8  -6 193.296 39.2718   2
   2  -8   6 320.691 49.0337   3
   2  -8   7 661.942 69.0036  11
   2  -8   7 798.789 76.0361   6
   2  -8   7 694.152 69.6350   3
  -2  -8  -7 545.812 59.9469   2
   2  -8   8 129.362 47.7753   7
   2  -8   8 47.1822 34.2305   6
   2  -8   8 150.573 40.3668  11
  -2  -8  -8 65.9378 32.6768   2
   2  -8   8 130.655 41.5690   3
   2  -8   9 442.607 72.3192   7
   2  -8   9 600.748 73.7342   6
   2  -8   9 617.531 70.3674  11
  -2  -8  -9 438.156 53.3274   2
   2  -8   9 566.847 69.8424   3
   2  -8  10 53.7066 40.9828   6
   2  -8  10 60.7887 45.0248   7
   2  -8  10-9.71963 32.7533   3
   2  -8  10 4.91646 30.9386  11
   2  -8  11 255.643 57.6084   3
   2  -8  11 217.519 49.2104  11
  -2  -7  12 8.71484 30.1088  11
  -2  -7  11 1028.37 96.8949   6
  -2  -7  11 964.117 100.225   7
  -2  -7  11 1088.28 89.0156  11
  -2  -7  10 8.90482 30.0078  11
  -2  -7  10 36.4045 42.3720   7
  -2  -7   9 1221.71 92.1555  11
  -2  -7   9 1004.68 95.1154   7
  -2  -7   8 169.557 40.0440  11
  -2  -7   8 221.215 37.5678   2
   2  -7  -8 157.878 31.3398   2
  -2  -7   8 188.637 47.5593   7
  -2  -7   7 1405.80 96.4461  11
   2  -7  -7 1180.95 72.5204   6
   2  -7  -7 1381.81 77.2398   2
  -2  -7   7 1374.75 85.0966   2
   2  -7  -6 1905.71 90.1124   6
  -2  -7   6 2027.12 114.837   6
   2  -7  -6 1868.14 95.7847  12
   2  -7  -6 1936.27 71.3486  11
   2  -7  -6 1804.47 90.2304   4
  -2  -7   6 2123.77 114.908  11
  -2  -7   6 2064.34 115.810  10
  -2  -7   6 2081.45 105.865   2
  -2  -7   6 1997.74 88.2597   3
   2  -7  -6 2074.98 98.2279   2
   2  -7  -6 1615.73 75.5122   1
   2  -7  -5 2733.96 99.9534  11
   2  -7  -5 2618.87 117.882  12
   2  -7  -5 2456.74 99.4014   1
  -2  -7   5 3057.36 139.251  10
  -2  -7   5 2790.37 135.305   6
   2  -7  -5 2931.57 123.026   2
  -2  -7   5 3060.85 131.984   2
  -2  -7   5 2904.65 105.630   3
   2  -7  -4 1407.83 81.8604  12
   2  -7  -4 1481.21 69.7793  11
  -2  -7   4 1536.48 89.2484   2
   2  -7  -4 1417.98 82.7575   2
  -2  -7   4 1477.44 65.3873   3
  -2  -7   4 1445.90 89.9745  10
  -2  -7   4 1454.47 56.9827   9
   2  -7  -4 1415.04 68.6896   1
   2  -7  -3 846.529 53.6569   1
   2  -7  -3 826.853 62.7409  12
   2  -7  -3 914.037 56.1396  11
  -2  -7   3 1030.39 65.3194  14
  -2  -7   3 963.003 70.8920  10
  -2  -7   3 902.458 47.7441   9
  -2  -7   3 949.196 70.1780   2
  -2  -7   3 995.252 48.3740   3
   2  -7  -3 937.986 66.2424   2
  -2  -7   2 2899.41 112.654  14
   2  -7  -2 2552.37 117.319  12
   2  -7  -2 2711.19 111.932  11
  -2  -7   2 2974.32 127.148  10
   2  -7  -2 2849.84 125.210   2
  -2  -7   2 2680.98 92.7503   3
   2  -7  -2 2817.68 109.754   1
   2  -7  -1 394.259 40.1268   1
  -2  -7   1 393.089 38.3763  14
  -2  -7   1 339.518 43.2013  12
   2  -7  -1 383.408 39.5757  11
   2  -7  -1 402.583 45.7101  12
  -2  -7   1 426.865 46.0383   5
  -2  -7   1 497.331 47.6201  10
  -2  -7   1 464.807 39.0374   9
   2  -7  -1 421.388 48.0456   2
   2  -7   0 2682.07 113.810   1
  -2  -7   0 2841.22 105.085  14
   2  -7   0 2613.04 117.528  11
  -2  -7   0 2791.93 119.378  12
   2  -7   0 2715.28 120.280  12
  -2  -7   0 3003.43 121.355   5
  -2  -7   0 2783.05 117.027  10
  -2  -7   0 2829.26 110.537   9
  -2  -7   0 2854.57 130.021   2
   2  -7   0 2914.13 128.624   2
   2  -7   1 518.548 48.1573   1
  -2  -7  -1 456.913 36.9939  14
   2  -7   1 450.055 45.2509  11
  -2  -7  -1 500.454 47.5134  12
  -2  -7  -1 459.120 48.6873   5
  -2  -7  -1 470.912 43.5895  10
  -2  -7  -1 458.137 43.9323   9
  -2  -7  -1 391.114 47.5297   2
   2  -7   1 520.447 51.3484   2
   2  -7   2 1115.68 72.2012   1
  -2  -7  -2 1089.69 53.0183  14
  -2  -7  -2 1100.77 68.3907  12
   2  -7   2 1185.81 75.1760  11
  -2  -7  -2 974.500 67.6020   5
  -2  -7  -2 1145.99 62.1584  10
  -2  -7  -2 1115.18 68.8540   9
   2  -7   2 1165.49 77.8341   2
  -2  -7  -2 1206.86 78.4656   2
   2  -7   3 55.4544 26.1185  12
  -2  -7  -3 73.7243 25.9150  12
   2  -7   3 53.4353 28.3239   6
  -2  -7  -3 56.1190 26.7215   5
   2  -7   3 44.2937 24.4255  11
  -2  -7  -3 65.9892 27.3176   2
  -2  -7  -3 52.0351 16.4321  14
  -2  -7  -4 220.867 23.1917  14
  -2  -7  -4 283.241 37.7087  12
   2  -7   4 268.245 40.7972   6
  -2  -7  -4 238.688 38.1144   5
   2  -7   4 240.853 41.2909  11
   2  -7   4 272.666 26.4780   9
  -2  -7  -4 211.788 37.5527   2
   2  -7   4 251.715 38.8297   3
  -2  -7  -5 28.4552 14.1178  14
  -2  -7  -5 2.41284 22.0962  12
  -2  -7  -5 20.7580 23.9078   2
  -2  -7  -5-21.6693 28.8172   5
   2  -7   5 3.48813 24.9706   6
   2  -7   5 26.9382 13.2005   9
   2  -7   5 10.2223 11.9204   9
   2  -7   5 36.9206 27.3473   3
  -2  -7  -6 1015.51 46.9334  14
   2  -7   6 1223.39 83.2374  11
  -2  -7  -6 1072.91 67.3785  12
  -2  -7  -6 1060.53 68.4787   5
   2  -7   6 1231.24 83.8851   6
  -2  -7  -6 1093.65 76.0089   2
   2  -7   6 1266.56 83.6012   3
  -2  -7  -7 65.4093 24.5427  12
   2  -7   7 123.139 36.8538   6
  -2  -7  -7 89.4098 27.6254   5
   2  -7   7 132.092 34.8546  11
  -2  -7  -7 77.2017 18.4248  11
  -2  -7  -7 80.8224 29.8210   2
   2  -7   7 117.805 37.0023   3
   2  -7   8 794.446 73.5013  11
   2  -7   8 742.403 80.4209   7
   2  -7   8 830.589 77.0104   6
   2  -7   8 759.714 73.9568   3
  -2  -7  -8 683.754 61.8662   2
   2  -7   9-14.8284 38.8305   7
   2  -7   9 22.0129 27.7019  11
   2  -7   9-14.3932 36.6086   6
  -2  -7  -9-12.4289 26.8240   2
   2  -7   9 36.0845 32.2864   3
   2  -7  10 324.019 57.5592   6
   2  -7  10 388.072 67.7813   7
   2  -7  10 346.299 57.3098   3
   2  -7  10 436.152 59.0975  11
   2  -7  11 87.2561 43.6635   6
   2  -7  11 27.7927 43.6877   7
   2  -7  11 45.4098 32.8979  11
   2  -7  11 66.4574 40.9326   3
   2  -7  12 749.005 76.1001  11
  -2  -6  12 535.047 60.7237  11
  -2  -6  12 586.032 75.5473   6
  -2  -6  12 636.356 83.0722   7
  -2  -6  11 11.9045 26.3991  11
  -2  -6  11 31.1532 37.5874   6
  -2  -6  11 10.5485 41.4360   7
  -2  -6  10 818.843 85.9697   7
  -2  -6  10 820.768 81.3482   6
  -2  -6  10 767.655 71.4889  11
  -2  -6   9 13.7720 35.0336   7
  -2  -6   9 31.7518 27.0942  11
  -2  -6   8 1335.70 91.2805  11
  -2  -6   8 1541.12 100.640  10
  -2  -6   8 1439.05 79.2977   5
   2  -6  -8 1235.10 73.6697  12
  -2  -6   8 1534.84 83.8656   2
   2  -6  -7 675.708 53.2193   6
   2  -6  -7 671.534 53.9889  12
   2  -6  -7 669.870 56.4917   4
  -2  -6   7 710.880 55.7448   5
  -2  -6   7 705.667 65.3726  11
   2  -6  -7 546.564 41.1716   1
   2  -6  -7 710.613 51.0521   2
   2  -6  -6 2295.59 97.5691   6
  -2  -6   6 2461.97 109.344  12
   2  -6  -6 2455.54 105.284  12
   2  -6  -6 2303.82 102.157   4
  -2  -6   6 2521.03 106.820   5
  -2  -6   6 2689.97 125.561  11
   2  -6  -6 2138.09 88.4052   1
  -2  -6   6 2738.05 115.075   2
   2  -6  -6 2678.00 105.826   2
   2  -6  -5 265.149 32.5089   6
   2  -6  -5 301.004 38.0763  12
   2  -6  -5 298.346 26.3721  11
  -2  -6   5 318.447 39.7099  12
  -2  -6   5 294.856 43.7870   6
  -2  -6   5 298.602 39.1720   5
  -2  -6   5 332.635 46.5448  10
   2  -6  -5 316.776 37.3288   2
  -2  -6   5 359.459 33.7118   3
  -2  -6   5 359.930 42.5092   2
   2  -6  -5 310.597 35.3620   4
   2  -6  -5 239.900 28.8457   1
   2  -6  -4 1377.33 66.3241   1
  -2  -6   4 1669.31 83.7284  14
   2  -6  -4 1594.23 67.6434  11
  -2  -6   4 1521.03 80.5198  12
   2  -6  -4 1400.93 77.3030  12
  -2  -6   4 1529.29 79.2067   5
  -2  -6   4 1712.64 91.4937  10
  -2  -6   4 1478.86 54.8215   9
   2  -6  -4 1539.92 80.2599   2
  -2  -6   4 1603.28 66.3487   3
  -2  -6   4 1535.82 84.6919   2
   2  -6  -3 2201.74 89.5767   1
  -2  -6   3 2344.27 99.4792  14
   2  -6  -3 2220.23 89.9122  11
   2  -6  -3 2262.76 100.539  12
  -2  -6   3 2188.99 99.8434  12
  -2  -6   3 2492.70 103.530   5
  -2  -6   3 2473.27 111.142  10
  -2  -6   3 2336.14 80.6610   9
  -2  -6   3 2397.48 108.708   2
   2  -6  -3 2225.74 102.391   2
  -2  -6   3 2254.74 80.6013   3
   2  -6  -2 2890.45 107.799   1
  -2  -6   2 2913.82 111.501  14
   2  -6  -2 2730.55 107.943  11
   2  -6  -2 2909.16 117.500  12
  -2  -6   2 2959.97 122.145  10
  -2  -6   2 2828.58 99.2373   9
   2  -6  -2 2889.63 120.145   2
  -2  -6   2 2885.63 91.8894   3
  -2  -6   1 2486.68 97.3032  14
  -2  -6   1 2526.34 106.786  12
   2  -6  -1 2525.00 107.797  12
   2  -6  -1 2472.30 102.485  11
  -2  -6   1 2714.43 107.838   5
  -2  -6   1 2587.32 108.953  10
   2  -6  -1 2399.75 110.244   2
   2  -6  -1 2542.57 100.626   1
   2  -6   0 1418.38 72.0963   1
  -2  -6   0 1499.51 65.7002  14
   2  -6   0 1228.99 70.5923  11
  -2  -6   0 1240.34 71.4550  12
   2  -6   0 1470.08 77.2186  12
  -2  -6   0 1360.36 73.0635   5
  -2  -6   0 1470.71 73.3518  10
  -2  -6   0 1458.33 68.3334   9
   2  -6   0 1523.36 81.5690   2
  -2  -6   0 1316.25 78.4409   2
   2  -6   1 5592.16 181.365   1
  -2  -6  -1 5421.73 161.322  14
   2  -6   1 5116.18 180.727  11
  -2  -6  -1 5235.87 176.412  12
  -2  -6  -1 5323.03 176.792   5
  -2  -6  -1 5515.47 172.969  10
  -2  -6  -1 5047.26 171.061   9
   2  -6   1 5315.12 188.891   2
  -2  -6  -1 5467.28 190.438   2
   2  -6   2 1860.72 91.5390   1
  -2  -6  -2 1961.94 73.7755  14
  -2  -6  -2 1826.53 86.3759  12
   2  -6   2 2063.70 96.7187  11
  -2  -6  -2 1955.56 88.9560   5
  -2  -6  -2 1854.74 79.0630  10
  -2  -6  -2 1919.90 88.7763   9
   2  -6   2 2033.34 98.8541   2
  -2  -6  -2 2052.62 99.9698   2
   2  -6   3 6275.80 204.385   1
  -2  -6  -3 5770.72 168.363  14
  -2  -6  -3 5779.47 188.388  12
   2  -6   3 5749.23 202.397  11
   2  -6   3 5905.71 194.102  12
  -2  -6  -3 5704.76 187.681   5
  -2  -6  -3 5914.90 174.291  10
  -2  -6  -3 5859.21 204.027   2
   2  -6   3 6125.59 198.319   6
  -2  -6  -4 131.031 19.6937  14
   2  -6   4 108.937 26.7998  12
  -2  -6  -4 153.777 27.9056  12
  -2  -6  -4 143.731 27.6427   5
   2  -6   4 118.115 32.1392   6
   2  -6   4 66.5564 26.2092  11
   2  -6   4 126.145 30.6088   3
  -2  -6  -4 126.812 28.5535   2
   2  -6   4 122.908 30.9333   1
  -2  -6  -5 4470.92 163.842   2
   2  -6   5 4426.10 165.921   3
  -2  -6  -5 4166.05 127.120  14
   2  -6   5 4373.97 152.751  12
  -2  -6  -5 4100.57 144.498  12
  -2  -6  -5 4304.88 146.220   5
   2  -6   5 4156.10 117.434   9
   2  -6   5 4086.78 116.710   9
   2  -6   5 4338.88 165.145   6
  -2  -6  -6 12.2899 14.7127  14
  -2  -6  -6 27.3900 20.0317  12
   2  -6   6 23.8603 22.1519  12
  -2  -6  -6 5.92028 20.3176   5
   2  -6   6 13.9057 25.1679   6
   2  -6   6 7.05323 21.5306  11
   2  -6   6 10.3164 25.4427   3
  -2  -6  -6 7.98828 22.8096   3
  -2  -6  -6 30.0722 23.8492   2
  -2  -6  -7 1200.22 58.8054  14
   2  -6   7 1535.67 92.1412  11
  -2  -6  -7 1338.47 68.9448  12
   2  -6   7 1421.45 75.9263  12
  -2  -6  -7 1355.06 69.4430   5
  -2  -6  -7 1408.47 81.1018   2
   2  -6   7 1465.58 92.6476   3
   2  -6   7 1552.02 96.0496   7
   2  -6   7 1509.07 93.3963   6
  -2  -6  -8 273.694 38.4529   2
  -2  -6  -8 242.348 28.6592  14
   2  -6   8 257.200 34.3010  12
   2  -6   8 263.002 47.0100   6
   2  -6   8 314.610 45.4001  11
   2  -6   8 318.724 50.8483   3
   2  -6   8 185.241 45.2579   7
  -2  -6  -9 664.149 47.6593  14
   2  -6   9 909.811 74.8412  11
   2  -6   9 802.923 55.7617  12
   2  -6   9 869.890 60.8540   5
  -2  -6  -9 771.793 59.4050   2
   2  -6   9 832.823 77.9948   3
   2  -6   9 810.613 82.8180   7
   2  -6   9 949.861 82.0766   6
   2  -6  10 240.695 50.0406   6
   2  -6  10 232.461 50.9890   3
   2  -6  10 224.083 53.4902   7
   2  -6  10 239.700 45.0598  11
   2  -6  11 226.248 51.3314   6
   2  -6  11 188.445 51.7862   3
   2  -6  11 159.580 49.9486   7
   2  -6  11 231.296 43.0265  11
   2  -6  12 73.1668 51.6083   7
   2  -6  12 139.858 39.2998  11
  -2  -5  12 41.0513 28.6144  11
  -2  -5  12 37.8695 48.5047   7
  -2  -5  12 57.2436 40.1176   6
  -2  -5  11 352.210 46.5978  11
  -2  -5  11 277.274 58.6109   7
  -2  -5  11 339.410 57.4598   6
  -2  -5  10 14.0987 22.8236  11
  -2  -5  10 9.36504 35.0093   7
  -2  -5  10 18.3742 32.1263   6
  -2  -5   9 1295.63 85.3726  11
  -2  -5   9 1199.00 88.8463  10
  -2  -5   9 1226.70 68.5215   5
  -2  -5   9 1298.30 93.7173   6
   2  -5  -8 66.6444 22.1896  12
  -2  -5   8 66.7023 23.6486   5
   2  -5  -8 100.102 25.9143   6
  -2  -5   8 58.0365 29.2710  10
  -2  -5   8 34.2038 25.0856  11
  -2  -5   8 80.1099 23.5836   2
   2  -5  -8 67.4134 22.1289   1
   2  -5  -7 515.948 43.7806   6
   2  -5  -7 505.218 44.2797  12
   2  -5  -7 476.408 47.6892   4
  -2  -5   7 658.149 48.8608   5
  -2  -5   7 560.232 56.0383  11
  -2  -5   7 627.781 60.4076  10
  -2  -5   7 605.165 47.7712   2
   2  -5  -7 481.231 38.6963   2
   2  -5  -7 453.125 37.9449   1
  -2  -5   6 469.154 45.1493  12
   2  -5  -6 482.133 43.4037  12
   2  -5  -6 543.820 42.5100   6
   2  -5  -6 525.897 45.6466   4
  -2  -5   6 512.547 44.1283   5
   2  -5  -6 532.526 40.0280   2
  -2  -5   6 568.465 46.5905   2
   2  -5  -6 419.684 36.5921   1
   2  -5  -5 1991.63 82.4193   1
  -2  -5   5 2308.42 102.631  14
  -2  -5   5 2346.09 98.3846  12
   2  -5  -5 2213.63 73.3838  11
  -2  -5   5 2220.46 93.6313   5
   2  -5  -5 2252.43 86.7343   6
   2  -5  -5 2158.30 90.4322   2
  -2  -5   5 2345.09 89.1340   3
  -2  -5   5 2209.86 97.5483   2
   2  -5  -4 915.245 49.5819   1
  -2  -5   4 1048.78 62.8079  14
   2  -5  -4 973.330 45.9565  11
  -2  -5   4 956.181 58.3338  12
  -2  -5   4 975.596 57.3702   5
   2  -5  -4 955.274 51.5072   4
  -2  -5   4 1042.35 67.0953  10
  -2  -5   4 914.676 37.5228   9
  -2  -5   4 999.208 60.3356   2
   2  -5  -4 947.852 55.6799   2
  -2  -5   4 981.894 47.8730   3
   2  -5  -3 4608.07 148.339   1
  -2  -5   3 4976.74 161.037  14
   2  -5  -3 4762.06 146.633  11
  -2  -5   3 4806.89 160.010  12
  -2  -5   3 4857.19 158.651   5
   2  -5  -3 4612.98 142.336   4
  -2  -5   3 5095.65 171.390  10
  -2  -5   3 4652.05 136.068   9
  -2  -5   3 5172.47 168.306   2
   2  -5  -3 4461.96 157.635   2
  -2  -5   3 4704.71 138.552   3
   2  -5  -2 5303.33 163.534   1
   2  -5  -2 5106.29 162.302  11
  -2  -5   2 5323.62 168.324  14
  -2  -5   2 5532.39 178.624  10
  -2  -5   2 5180.88 153.493   9
  -2  -5   2 5292.68 145.859   3
   2  -5  -2 5187.56 173.446   2
   2  -5  -1 4076.34 135.070   1
   2  -5  -1 3980.95 135.196  11
  -2  -5   1 4049.38 132.981  14
  -2  -5   1 4147.13 141.762  10
  -2  -5   1 3935.80 127.177   9
   2  -5  -1 3913.25 142.767   2
  -2  -5   0 7336.66 212.004  14
   2  -5   0 7198.58 222.570  11
  -2  -5   0 7668.22 222.682  10
   2  -5   0 7495.23 231.603   2
  -2  -5   0 7707.15 234.553   2
   2  -5   0 7313.92 221.077   1
  -2  -5  -1 3492.57 112.769  14
  -2  -5  -1 3375.12 123.502  12
   2  -5   1 3413.75 127.360  11
  -2  -5  -1 3467.05 124.025   5
  -2  -5  -1 3548.70 119.472  10
   2  -5   1 3676.61 134.851   2
  -2  -5  -1 3450.84 132.795   2
   2  -5   1 3588.07 128.288   1
   2  -5   2 5234.20 170.174   1
  -2  -5  -2 4946.96 146.512  14
   2  -5   2 4967.54 168.779  11
  -2  -5  -2 4891.94 159.705  12
  -2  -5  -2 4968.56 160.418   5
  -2  -5  -2 4846.94 150.358  10
  -2  -5  -2 4975.52 171.700   2
   2  -5   2 5006.90 162.717   6
   2  -5   3 716.469 51.6228   1
  -2  -5  -3 616.241 34.9789  14
  -2  -5  -3 557.713 41.5560  12
   2  -5   3 611.156 45.0409  12
   2  -5   3 606.179 47.8966  11
  -2  -5  -3 532.641 41.2337   5
  -2  -5  -3 591.842 34.1993  10
   2  -5   3 653.496 48.7877   6
  -2  -5  -3 644.953 49.1885   2
  -2  -5  -4 5799.33 193.849   2
   2  -5   4 5884.73 195.057   3
   2  -5   4 6192.77 200.657   1
  -2  -5  -4 5662.86 165.625  14
  -2  -5  -4 5602.38 177.228  12
   2  -5   4 6024.81 185.475  12
  -2  -5  -4 5587.35 177.174   5
  -2  -5  -4 5555.34 157.753  10
  -2  -5  -4 5811.22 191.314   9
   2  -5   4 5853.73 160.163   9
   2  -5   4 6173.55 195.440   6
  -2  -5  -5 6.80138 16.2066  12
   2  -5   5 8.19177 17.5424  12
   2  -5   5 17.6315 21.5082   3
  -2  -5  -5 18.6285 21.6822   4
  -2  -5  -5-6.67724 19.6610   3
   2  -5   5 22.8281 21.7746   6
  -2  -5  -5 13.8368 17.2091   5
   2  -5   5 16.6445 9.95893   9
  -2  -5  -5 7.96523 20.4622   9
  -2  -5  -5-5.17211 18.9283   2
   2  -5   5 3.10867 19.8473   1
   2  -5   6 2197.64 105.215  11
   2  -5   6 2282.04 92.1704  12
  -2  -5  -6 2030.95 82.2064  12
  -2  -5  -6 1917.19 99.9087   4
  -2  -5  -6 2050.40 82.9809   5
  -2  -5  -6 2039.24 96.5588   3
  -2  -5  -6 2060.10 96.1319   2
   2  -5   6 2127.01 106.913   3
  -2  -5  -6 2081.87 98.9501   6
   2  -5   6 2131.83 105.260   6
   2  -5   7 204.646 42.6056   7
  -2  -5  -7 193.702 25.3099  12
   2  -5   7 215.949 30.7717  12
   2  -5   7 244.386 41.6650   6
  -2  -5  -7 203.657 26.4855   5
   2  -5   7 248.064 38.4494  11
   2  -5   7 248.798 42.7611   3
  -2  -5  -7 229.083 33.8458   2
   2  -5   8 2183.65 91.5601  12
   2  -5   8 2398.93 114.531  11
  -2  -5  -8 2142.03 80.7236   5
  -2  -5  -8 2071.83 96.9503   2
   2  -5   8 2402.35 123.212   3
   2  -5   8 2318.14 120.061   6
   2  -5   8 2478.15 125.285   7
  -2  -5  -9 76.2360 22.8944   2
  -2  -5  -9 64.1261 21.4580  14
   2  -5   9 69.1410 20.9028  12
   2  -5   9 58.3425 21.5401   5
   2  -5   9 90.5844 34.2349   6
   2  -5   9 56.6051 27.0325  11
   2  -5   9-4.29625 32.4839   3
   2  -5   9 56.6639 34.2720   7
  -2  -5 -10 746.539 56.4476  14
   2  -5  10 922.782 72.9901  11
   2  -5  10 932.844 84.8124   3
  -2  -5 -10 716.418 52.7837   2
   2  -5  10 974.077 83.4709   6
   2  -5  10 822.861 80.9361   7
   2  -5  11 391.656 51.0267  11
   2  -5  11 420.828 64.0564   6
   2  -5  11 397.002 66.1479   7
   2  -5  12 452.968 74.2461   7
   2  -5  12 495.081 69.4565   6
   2  -5  12 507.628 58.1607  11
  -2  -4  13 5.27822 38.6306   6
  -2  -4  12 335.933 61.9828   7
  -2  -4  12 333.348 58.5547   6
  -2  -4  12 294.065 41.2868  11
  -2  -4  11 43.7237 38.5392   7
  -2  -4  11 23.2783 33.7186   6
  -2  -4  11 56.9111 24.4267  11
   2  -4 -10 591.385 44.2402  14
  -2  -4  10 726.114 73.5828   7
  -2  -4  10 663.874 69.6140   6
  -2  -4  10 561.486 54.0209  11
  -2  -4   9 69.7252 31.9567  10
  -2  -4   9 78.6663 26.5607  11
   2  -4  -9 45.2721 18.3626  14
  -2  -4   9 71.2652 34.2068   6
   2  -4  -9 55.0265 13.9556   5
   2  -4  -8 1491.64 70.6389  12
  -2  -4   8 1683.46 89.6174  11
  -2  -4   8 1756.84 97.7012  10
   2  -4  -8 1706.21 65.0673  14
   2  -4  -8 1598.56 81.1479   6
  -2  -4   8 1678.60 98.0022   6
  -2  -4   8 1752.54 75.2634   5
  -2  -4   7 69.6522 21.5941   5
   2  -4  -7 60.8682 24.0936   4
   2  -4  -7 119.590 26.5883   6
   2  -4  -7 85.0233 16.3417  14
  -2  -4   7 103.870 31.3893  10
  -2  -4   7 65.7457 24.3659  11
   2  -4  -7 72.6137 28.1013   9
  -2  -4   7 84.1926 21.6326   2
   2  -4  -6 3170.82 109.080   2
  -2  -4   6 3717.66 123.217   2
   2  -4  -6 3325.81 95.5438  14
  -2  -4   6 3550.20 136.296  14
   2  -4  -6 3462.39 126.377   4
  -2  -4   6 3648.68 141.305  10
   2  -4  -6 3060.48 127.903   8
   2  -4  -6 3387.87 117.141   6
   2  -4  -6 3426.60 131.555   7
  -2  -4   5 809.818 48.3898   2
   2  -4  -5 687.498 40.8830   2
   2  -4  -5 662.663 41.6100   1
  -2  -4   5 747.753 54.0260  14
  -2  -4   5 696.441 47.4496  12
   2  -4  -5 688.428 51.8401   8
   2  -4  -5 639.556 40.1604   6
   2  -4  -5 692.761 50.6024   7
   2  -4  -4 3413.30 114.665   1
  -2  -4   4 3549.21 127.613  14
   2  -4  -4 3393.86 102.780  11
   2  -4  -4 3422.98 114.839   4
  -2  -4   4 3561.08 133.724  10
   2  -4  -4 3361.98 109.574   6
  -2  -4   4 3531.01 123.568   2
   2  -4  -4 3424.39 116.235   2
  -2  -4   4 3419.01 111.394   3
   2  -4  -3 1826.93 73.3604   1
  -2  -4   3 1943.73 82.1728  14
   2  -4  -3 1914.59 68.8709  11
   2  -4  -3 1776.48 68.6649   4
  -2  -4   3 2059.24 88.2680  10
  -2  -4   3 1861.83 62.5236   9
  -2  -4   3 1891.19 65.5765   3
  -2  -4   3 1922.39 82.0519   2
   2  -4  -3 1808.99 76.8459   2
   2  -4  -2 3055.96 106.330   1
  -2  -4   2 3113.67 110.573  14
   2  -4  -2 3244.41 104.610  11
   2  -4  -2 3009.90 94.0392   4
  -2  -4   2 3116.53 115.978  10
  -2  -4   2 3120.10 97.2404   9
   2  -4  -2 3320.14 113.761   2
  -2  -4   2 3164.47 90.4918   3
   2  -4  -1 4026.55 130.500   1
   2  -4  -1 4084.91 129.904  11
  -2  -4   1 4052.98 129.791  14
  -2  -4   1 4209.61 136.071  10
  -2  -4   1 3933.10 123.014   9
   2  -4  -1 3962.64 136.029   2
   2  -4   0 2177.53 85.9118   1
  -2  -4   0 2283.06 81.6680  14
   2  -4   0 2214.06 86.0063  11
  -2  -4   0 2134.29 84.1163  10
  -2  -4   0 2206.58 82.0497   9
   2  -4   0 2284.37 91.7880   2
  -2  -4   0 2174.83 92.4662   2
  -2  -4  -1 8874.13 244.271  14
  -2  -4  -1 9096.02 254.053  12
   2  -4   1 8707.57 257.133  11
  -2  -4  -1 8837.98 253.271   5
  -2  -4  -1 9067.85 248.389  10
   2  -4   1 9339.72 264.436   2
  -2  -4  -1 9269.16 265.465   2
   2  -4   1 9276.80 259.517   1
  -2  -4  -2 2667.10 89.9407  14
   2  -4   2 2828.69 105.860  11
  -2  -4  -2 2700.08 97.5963  12
  -2  -4  -2 2603.00 97.1879   5
  -2  -4  -2 2743.01 90.2535  10
  -2  -4  -2 2733.36 106.371   2
   2  -4   2 2829.40 100.745   6
  -2  -4  -3 4739.06 141.733  14
   2  -4   3 4873.19 162.262  11
  -2  -4  -3 4928.91 149.879  12
  -2  -4  -3 4800.25 149.812   5
  -2  -4  -3 4722.35 136.862  10
   2  -4   3 5140.61 160.280   6
  -2  -4  -3 5020.46 162.716   2
  -2  -4  -4 164.023 21.7979  12
  -2  -4  -4 184.811 23.1120   5
   2  -4   4 170.635 27.0505   6
  -2  -4  -4 132.570 14.6676  10
   2  -4   4 189.810 17.0104   9
  -2  -4  -4 146.176 26.9272   9
   2  -4   4 194.385 28.9836   1
  -2  -4  -4 181.329 26.5467   2
  -2  -4  -5 5538.29 182.301   7
   2  -4   5 5566.86 188.973   6
  -2  -4  -5 5717.48 183.542   6
   2  -4   5 6033.28 191.191  11
  -2  -4  -5 5538.10 164.879  12
  -2  -4  -5 5578.71 165.915   5
  -2  -4  -5 5445.30 181.111   8
   2  -4   5 5577.01 149.217   9
  -2  -4  -5 5562.22 184.888   9
  -2  -4  -5 5424.17 179.095   3
   2  -4   5 5908.86 195.179   3
  -2  -4  -5 5719.03 182.488   2
   2  -4   6 67.2829 25.8714   1
  -2  -4  -6 136.632 25.7088   2
  -2  -4  -6 115.182 29.2944   8
  -2  -4  -6 71.4573 25.6006   6
   2  -4   6 159.389 31.8742   7
  -2  -4  -6 120.881 28.5104   7
  -2  -4  -6 89.6489 17.9674  12
  -2  -4  -6 112.161 19.5291   5
   2  -4   6 128.899 29.7385   6
   2  -4   6 88.9532 24.9519  11
  -2  -4  -6 107.930 28.2309   9
   2  -4   6 77.2568 9.90313   9
  -2  -4  -6 78.8937 24.7720   3
   2  -4   6 77.3643 28.4225   3
   2  -4   7 2084.01 94.0813  11
  -2  -4  -7 1822.32 80.3943   2
  -2  -4  -7 1796.71 91.3800   3
   2  -4   7 1901.98 99.5533   3
   2  -4   7 2057.49 100.636   6
   2  -4   7 2092.78 102.142   7
   2  -4   8 44.6753 32.1488   7
  -2  -4  -8 33.7103 13.0627   5
   2  -4   8 44.4462 29.9195   6
   2  -4   8 47.9290 23.3229  11
   2  -4   8 7.63653 27.3419   3
  -2  -4  -8 23.7270 18.7819   2
  -2  -4  -9 1087.26 66.4305  14
   2  -4   9 975.783 50.8838  12
   2  -4   9 1209.71 75.8224  11
   2  -4   9 1091.45 84.6279   3
  -2  -4  -9 924.515 58.0872   2
   2  -4   9 1193.27 85.4778   6
   2  -4   9 1237.02 89.3982   7
  -2  -4 -10 121.445 22.5517   2
  -2  -4 -10 143.749 30.5052  14
   2  -4  10 130.376 40.9739   6
   2  -4  10 109.269 19.6288   5
   2  -4  10 118.711 29.1021  11
   2  -4  10 78.2087 37.9116   3
   2  -4  10 121.412 43.7618   7
   2  -4  11 668.456 60.2012  11
   2  -4  11 724.430 75.6087   6
   2  -4  11 720.790 78.1007   7
  -2  -4 -11 587.263 56.1589  14
   2  -4  12 312.737 44.6700  11
   2  -4  12 274.558 56.2764   6
   2  -4  12 296.767 60.6679   7
  -2  -3  13 763.208 86.9711   7
  -2  -3  13 760.443 81.5233   6
  -2  -3  12 159.318 30.0569  11
  -2  -3  12 163.169 47.8083   7
  -2  -3  12 166.231 46.5707   6
   2  -3 -11 1096.81 67.6862  14
  -2  -3  11 909.881 63.1461  11
  -2  -3  11 1087.44 91.5898   7
  -2  -3  11 1091.34 88.5630   6
  -2  -3  10 234.794 33.4610  11
   2  -3 -10 204.062 32.2230  14
  -2  -3  10 243.120 45.7540   6
   2  -3  -9 941.302 48.3771  12
  -2  -3   9 1132.48 68.5167  11
  -2  -3   9 1148.16 78.2320  10
   2  -3  -9 1237.01 62.7727  14
  -2  -3   9 1229.26 82.5812   6
  -2  -3   9 1042.01 50.8043   5
  -2  -3   8 83.3160 29.6235  10
  -2  -3   8 42.3518 20.3360  11
   2  -3  -8 50.7376 19.6285  14
   2  -3  -8 53.0028 25.0373   9
   2  -3  -8 48.8706 24.0044   6
  -2  -3   8 56.5878 28.0830   6
   2  -3  -8 52.8562 13.5731   5
  -2  -3   7 1843.46 69.2327   2
   2  -3  -7 1725.79 87.4785   4
   2  -3  -7 1709.07 69.0907  14
  -2  -3   7 2029.39 89.5039  11
   2  -3  -7 1722.31 88.5265   9
  -2  -3   7 1832.38 91.9570  10
   2  -3  -7 1740.14 89.0075   8
   2  -3  -7 1668.64 88.3056   7
  -2  -3   7 1871.88 94.4491   6
   2  -3  -7 1669.59 77.5471   6
  -2  -3   6 691.504 39.5416   2
   2  -3  -6 603.032 47.3244   4
   2  -3  -6 721.479 36.5601  14
  -2  -3   6 746.410 54.1916  10
   2  -3  -6 630.663 50.3501   8
   2  -3  -6 711.125 52.3622   7
  -2  -3   6 685.448 52.6942   6
   2  -3  -6 638.379 42.4900   6
  -2  -3   5 5049.62 149.722   2
  -2  -3   5 5020.32 164.910  14
   2  -3  -5 4797.76 135.077  14
  -2  -3   5 4712.99 147.778   5
   2  -3  -5 4889.53 160.188   8
   2  -3  -5 4823.79 146.550   6
   2  -3  -5 4767.69 158.426   7
  -2  -3   4 2939.83 106.548  14
   2  -3  -4 2549.10 77.0382  14
  -2  -3   4 2697.78 97.7260  12
   2  -3  -4 2678.91 95.4291   4
  -2  -3   4 2739.81 95.8628   5
  -2  -3   4 2811.96 96.8132   2
   2  -3  -4 2689.37 89.6509   2
   2  -3  -4 2833.55 101.449   7
   2  -3  -4 2748.13 89.3348   6
   2  -3  -3 1973.29 75.9869   1
  -2  -3   3 2127.78 83.3711  14
  -2  -3   3 2028.92 78.4704  12
   2  -3  -3 2017.24 66.3865  11
  -2  -3   3 1850.68 75.3630   5
   2  -3  -3 1967.06 70.6975   4
  -2  -3   3 2088.16 85.4285  10
   2  -3  -3 1915.72 66.8128   6
   2  -3  -3 1953.48 73.7003   2
  -2  -3   3 2114.40 79.7221   2
   2  -3  -2 2761.79 95.5649   1
  -2  -3   2 2864.72 99.6608  14
   2  -3  -2 2812.28 90.0102  11
   2  -3  -2 2846.66 84.6500   4
  -2  -3   2 2956.00 103.207  10
  -2  -3   2 2751.20 85.7098   9
   2  -3  -2 2735.15 96.3497   2
   2  -3  -1 6939.97 195.351   1
   2  -3  -1 6676.68 190.998  11
  -2  -3   1 6884.64 194.478  14
  -2  -3   1 7288.67 199.803  10
  -2  -3   1 6762.55 187.095   9
   2  -3  -1 6747.81 197.633   2
  -2  -3   0 6573.86 183.865  14
   2  -3   0 6447.73 187.794  11
  -2  -3   0 6646.17 187.461  10
  -2  -3   0 6758.52 195.007   2
   2  -3   0 6556.26 192.502   2
   2  -3   0 6482.60 188.860   1
  -2  -3  -1 799.561 39.1599  14
   2  -3   1 817.475 43.6798  11
  -2  -3  -1 768.914 41.0428  12
  -2  -3  -1 714.758 40.7641   5
  -2  -3  -1 780.753 38.5970  10
   2  -3   1 789.609 38.6491   6
  -2  -3  -1 785.425 45.2569   2
   2  -3   2 4091.40 131.117  11
  -2  -3  -2 3972.00 121.952  12
  -2  -3  -2 3778.98 122.284   5
  -2  -3  -2 3876.33 114.707  10
   2  -3   2 4020.87 125.321   6
  -2  -3  -2 4180.58 133.060   2
  -2  -3  -2 3854.85 116.541   3
   2  -3   3 294.700 29.6414   6
  -2  -3  -3 303.686 25.2113  12
  -2  -3  -3 286.317 25.0689   5
  -2  -3  -3 296.859 19.7330  10
   2  -3   3 311.932 22.1053   9
  -2  -3  -3 284.653 28.7480   2
  -2  -3  -3 253.473 25.9332   3
   2  -3   4 2368.75 92.4233   6
   2  -3   4 2308.52 81.2336  12
  -2  -3  -4 2120.12 74.0965  12
  -2  -3  -4 2076.29 74.9989   5
  -2  -3  -4 2055.88 63.1078  10
  -2  -3  -4 2095.56 87.5194   9
   2  -3   4 2172.37 68.6348   9
  -2  -3  -4 2187.13 86.7929   8
  -2  -3  -4 2191.83 87.3935   2
  -2  -3  -5 129.336 22.4141   2
  -2  -3  -5 123.187 25.1007   8
   2  -3   5 140.469 26.9985   7
  -2  -3  -5 146.203 26.2055   7
  -2  -3  -5 138.799 24.1695   6
   2  -3   5 135.116 19.3176  12
  -2  -3  -5 125.733 16.4586  12
  -2  -3  -5 132.998 17.7663   5
   2  -3   5 157.299 26.1418   6
  -2  -3  -5 115.584 8.94050  10
   2  -3   5 156.861 24.4030  11
  -2  -3  -5 159.724 27.2936   9
   2  -3   5 118.793 14.0747   9
  -2  -3  -5 151.062 25.9665   3
   2  -3   6 3891.64 138.787   1
  -2  -3  -6 3954.30 130.568   6
   2  -3   6 3875.72 138.080   6
  -2  -3  -6 3799.02 129.975   7
   2  -3   6 3807.25 137.030   7
   2  -3   6 4014.80 130.988  11
  -2  -3  -6 3258.43 95.3255  11
   2  -3   6 3767.94 108.696  12
  -2  -3  -6 3740.32 101.077   5
   2  -3   6 3672.27 95.6626   9
  -2  -3  -6 3835.50 129.274   9
  -2  -3  -6 3858.32 129.784   8
  -2  -3  -6 3746.94 120.249   2
  -2  -3  -6 3721.54 130.473   3
  -2  -3  -7 113.475 22.8284   2
  -2  -3  -7 76.1996 11.3706   1
   2  -3   7 167.674 34.5650   7
  -2  -3  -7 132.332 32.7952   8
  -2  -3  -7 88.3466 28.2622   7
  -2  -3  -7 87.6956 26.0507   6
   2  -3   7 93.6743 17.6863  12
   2  -3   7 102.628 28.3601   6
   2  -3   7 115.347 25.4935  11
  -2  -3  -7 76.2891 11.5013  11
  -2  -3  -7 79.1877 24.5694   9
  -2  -3  -7 121.200 28.8997   3
   2  -3   8 1516.31 90.5032   7
   2  -3   8 1487.86 89.7679   6
   2  -3   8 1442.34 54.8404  12
   2  -3   8 1605.59 79.9022  11
  -2  -3  -8 1497.32 80.6897   9
  -2  -3  -8 1399.01 66.1882   2
  -2  -3  -9 58.1013 18.0464   2
  -2  -3  -9 19.7934 12.6505   1
  -2  -3  -9 18.4461 19.7214  14
   2  -3   9 31.1246 14.7588   5
   2  -3   9 51.3305 21.6390  11
   2  -3   9 106.874 34.3703   3
   2  -3   9 62.6191 31.0475   6
   2  -3   9 50.7524 32.9156   7
  -2  -3 -10 682.200 40.7418   1
  -2  -3 -10 1033.16 68.8652  14
   2  -3  10 1126.66 68.3970  11
   2  -3  10 710.770 29.4393   5
  -2  -3 -10 775.466 46.7550   2
   2  -3  10 1056.93 83.7402   6
   2  -3  10 1025.85 83.9418   7
   2  -3  11 135.638 30.7617  11
  -2  -3 -11 120.573 32.2657  14
   2  -3  11 137.844 43.0234   7
   2  -3  11 118.594 42.0128   6
  -2  -3 -12 877.468 70.6819  14
   2  -3  12 827.383 85.4692   7
   2  -3  12 849.149 64.5770  11
   2  -3  13 192.517 56.8083   7
  -2  -2  13 4.87052 34.4648   6
  -2  -2  13-21.4034 46.9094   7
   2  -2 -12 588.234 58.5410  14
  -2  -2  12 470.641 39.9825  11
   2  -2 -12 565.306 58.7204   1
  -2  -2  12 654.746 71.3508   6
   2  -2 -11 93.9281 30.1621  14
  -2  -2  11 72.3590 20.9523  11
   2  -2 -11 98.0258 30.5253   1
  -2  -2  11 72.9739 40.9324   7
  -2  -2  11 100.576 37.0710   6
  -2  -2  10 1853.88 83.1316  11
  -2  -2  10 2032.19 101.188  10
   2  -2 -10 1987.36 94.2696  14
  -2  -2  10 1884.86 108.275   6
  -2  -2   9 298.358 41.2400  10
  -2  -2   9 268.284 32.4486  11
   2  -2  -9 334.147 31.8698  13
   2  -2  -9 264.386 35.7752  14
   2  -2  -9 278.511 40.2293   9
   2  -2  -9 155.178 35.9681   6
  -2  -2   9 333.693 46.9718   6
  -2  -2   8 1806.50 87.4606  10
  -2  -2   8 1727.82 76.3845  11
   2  -2  -8 1764.81 85.3691   9
   2  -2  -8 1734.66 76.2798  14
   2  -2  -8 1686.01 68.6321  13
  -2  -2   8 1694.80 89.7196   6
   2  -2  -8 1617.73 79.1962   6
   2  -2  -7 521.014 27.5509   5
  -2  -2   7 595.128 34.3943   5
   2  -2  -7 527.889 37.1029  13
  -2  -2   7 565.059 49.9746  14
   2  -2  -7 618.716 41.6777  14
  -2  -2   7 569.348 47.2895  10
  -2  -2   7 537.102 40.2895  11
   2  -2  -7 584.862 50.5098   8
   2  -2  -7 467.919 40.1464   6
   2  -2  -7 521.268 48.7953   7
  -2  -2   7 556.745 48.6770   6
  -2  -2   6 5412.79 147.142   2
  -2  -2   6 5282.32 152.652   5
   2  -2  -6 5205.88 157.408  14
  -2  -2   6 5300.04 175.043  14
   2  -2  -6 5223.42 155.847  13
  -2  -2   6 5523.35 175.508  10
   2  -2  -6 5025.06 170.478   8
   2  -2  -6 5135.19 160.899   6
  -2  -2   6 5092.32 174.479   6
   2  -2  -6 5089.03 171.272   7
   2  -2  -5 1805.66 70.2678  13
   2  -2  -5 1865.95 68.8046  14
  -2  -2   5 1991.18 83.4490  10
  -2  -2   5 1921.12 66.1150   2
  -2  -2   5 1905.57 83.1344   6
   2  -2  -5 1864.75 71.4202   6
   2  -2  -5 1868.77 80.3178   7
  -2  -2   5 1926.89 69.5883   5
   2  -2  -4 488.664 28.1662  14
   2  -2  -4 578.493 33.6960  13
  -2  -2   4 566.562 33.0984   5
  -2  -2   4 532.102 30.9060   2
   2  -2  -4 565.245 31.7623   6
   2  -2  -4 604.564 39.4781   7
   2  -2  -3 4374.75 121.471  14
  -2  -2   3 4545.25 141.016  14
   2  -2  -3 4257.32 130.637  13
  -2  -2   3 4413.51 132.199   5
   2  -2  -3 4366.74 134.855   7
   2  -2  -3 4446.35 124.033   6
  -2  -2   3 4839.78 133.715   2
  -2  -2   2 3744.25 116.763  14
   2  -2  -2 3782.91 106.507  11
  -2  -2   2 3807.75 118.555  10
  -2  -2   2 3598.97 104.651   9
   2  -2  -2 3604.53 99.0046   6
  -2  -2   1 620.269 33.9933  10
  -2  -2   1 605.039 33.4910  14
   2  -2  -1 596.351 33.5491   1
   2  -2  -1 600.311 30.6202  11
  -2  -2   0 302.839 22.0319  14
   2  -2   0 262.076 20.7673  11
  -2  -2   0 261.665 20.8277  10
  -2  -2   0 278.931 23.3379   2
   2  -2   0 238.433 14.9692   6
  -2  -2  -1 8962.39 237.575  14
   2  -2   1 9362.39 244.293  11
  -2  -2  -1 9065.17 238.501  12
  -2  -2  -1 8904.61 238.685   5
  -2  -2  -1 9140.47 235.461  10
   2  -2   1 9167.94 234.325   6
  -2  -2  -1 9061.31 245.785   2
  -2  -2  -1 8587.94 228.215   3
  -2  -2  -2 623.303 31.8749  12
   2  -2   2 665.061 37.0776  11
   2  -2   2 635.035 34.5090   6
  -2  -2  -2 619.166 32.4884   5
  -2  -2  -2 664.102 34.0724   8
   2  -2   2 676.717 31.2388   9
  -2  -2  -2 639.768 32.0148   3
  -2  -2  -3 1047.68 42.8021  12
   2  -2   3 1184.05 54.3402   6
  -2  -2  -3 1023.36 44.3051   5
  -2  -2  -3 1093.98 53.0245   9
   2  -2   3 1181.99 44.0928   9
  -2  -2  -3 1100.42 51.3104   8
  -2  -2  -3 1058.74 49.9136   3
   2  -2   3 1090.87 56.4023   3
  -2  -2  -4 201.792 13.1239   1
   2  -2   4 210.723 23.6432  11
   2  -2   4 176.386 26.2972   7
  -2  -2  -4 221.214 26.4859   8
  -2  -2  -4 183.327 17.8962   5
   2  -2   4 180.022 24.7225   6
  -2  -2  -4 197.020 25.8673   9
   2  -2   4 210.415 19.1290   9
  -2  -2  -4 189.313 24.4299   3
   2  -2   4 214.951 28.6944   3
  -2  -2  -5 6072.45 160.131   1
   2  -2   5 5912.40 191.199   6
   2  -2   5 6008.03 191.297   7
  -2  -2  -5 5994.99 186.872   6
   2  -2   5 6249.79 166.831  12
   2  -2   5 6536.69 186.693  11
  -2  -2  -5 5751.35 163.763  11
  -2  -2  -5 5771.49 161.964   5
   2  -2   5 6061.97 166.084   9
  -2  -2  -5 5761.34 183.120   9
  -2  -2  -5 6061.68 184.841   8
  -2  -2  -5 6009.13 187.511   3
   2  -2   5 6209.82 197.368   3
  -2  -2  -6 745.055 34.4498   1
   2  -2   6 800.094 54.2049   1
   2  -2   6 728.079 53.2764   7
  -2  -2  -6 675.065 49.9833   7
   2  -2   6 750.000 53.8072   6
  -2  -2  -6 771.422 51.8216   6
   2  -2   6 817.778 48.2273  11
  -2  -2  -6 660.293 32.1412  11
   2  -2   6 750.837 34.2971  12
  -2  -2  -6 721.616 52.7736   4
  -2  -2  -6 681.867 29.2082  10
   2  -2   6 763.192 36.8055   9
  -2  -2  -6 656.077 49.9460   8
  -2  -2  -6 715.071 47.8515   9
  -2  -2  -6 746.423 43.7088   2
  -2  -2  -6 643.720 50.3939   3
  -2  -2  -7 1309.68 55.0009   1
  -2  -2  -7 1412.42 75.6404   6
  -2  -2  -7 1345.16 75.8523   7
   2  -2   7 1374.91 79.0783   7
   2  -2   7 1351.92 79.2436   6
  -2  -2  -7 1147.08 47.1954  11
   2  -2   7 1525.22 71.1925  11
   2  -2   7 1370.44 47.7579  12
  -2  -2  -7 1504.83 80.5546   4
  -2  -2  -7 1430.40 46.2767  10
  -2  -2  -7 1402.29 76.0240   8
  -2  -2  -7 1276.08 70.1761   9
  -2  -2  -7 1345.90 62.0471   2
  -2  -2  -8 215.441 26.6978   2
  -2  -2  -8 205.423 24.2929   1
  -2  -2  -8 237.696 34.5614  14
   2  -2   8 287.220 33.2174  11
   2  -2   8 162.946 18.6187   5
  -2  -2  -8 171.457 16.4976  10
  -2  -2  -8 285.568 35.6138   9
   2  -2   8 193.007 38.8064   7
   2  -2   8 255.548 41.3309   6
  -2  -2  -9 990.207 52.8845   2
  -2  -2  -9 1020.32 54.9062   1
   2  -2   9 1252.52 66.3331  11
  -2  -2  -9 1194.50 73.4467  14
  -2  -2  -9 1069.08 68.8785   9
   2  -2   9 1102.33 79.8062   6
   2  -2   9 1166.83 84.3261   7
  -2  -2 -10 6.38481 24.3596  14
   2  -2  10 4.62386 17.2849  11
  -2  -2 -10-17.6919 16.4195   2
  -2  -2 -10 1.85504 14.9804   1
   2  -2  10-4.19786 31.0558   7
   2  -2  11 804.895 57.2647  11
   2  -2  11 953.490 84.4026   7
  -2  -2 -11 838.271 69.4772  14
   2  -2  12 165.539 50.6399   7
  -2  -2 -12 161.022 39.5773  14
   2  -2  13 562.058 77.4396   7
  -2  -2 -13 563.685 63.8048  14
  -2  -1  14 5.00577 40.4231   6
   2  -1 -13 764.080 73.7057   1
  -2  -1  13 1013.75 96.5277   7
  -2  -1  13 1023.98 90.0296   6
   2  -1 -13 1124.19 83.5824  14
   2  -1 -12 36.1597 28.8011   1
  -2  -1  12 53.8139 42.5905   7
  -2  -1  12 108.839 38.7716   6
   2  -1 -12 80.4007 34.8129  14
  -2  -1  11 429.791 33.3284  11
   2  -1 -11 601.040 58.5663  14
  -2  -1  11 571.507 62.1843   6
  -2  -1  11 692.485 72.5284   7
   2  -1 -11 503.960 57.0006   1
   2  -1 -10 68.1686 29.5336   1
   2  -1 -10 85.1908 28.5796  14
  -2  -1  10 62.0611 17.3023  11
   2  -1 -10 83.2765 24.1057  13
   2  -1 -10 50.2015 24.5306   9
  -2  -1  10 97.7428 32.7272   6
  -2  -1   9 1946.82 74.5676  11
   2  -1  -9 2120.65 92.3247   9
  -2  -1   9 2077.98 92.8797  10
   2  -1  -9 1973.37 81.8857  13
   2  -1  -9 2106.70 94.6374  14
  -2  -1   9 2059.55 102.947   6
   2  -1  -8 70.3955 21.4832  13
   2  -1  -8 99.8363 15.8522  12
  -2  -1   8 110.212 26.7521  10
  -2  -1   8 71.5762 18.1004  11
   2  -1  -8 83.3919 24.4365  14
   2  -1  -8 55.9355 23.6363   9
   2  -1  -8 55.3597 24.4609   6
  -2  -1   8 68.4862 26.7341   6
   2  -1  -7 1375.45 46.4721   5
   2  -1  -7 1537.91 71.8094  14
   2  -1  -7 1390.33 63.2532  13
  -2  -1   7 1599.78 77.3910  14
  -2  -1   7 1446.37 70.8794  10
  -2  -1   7 1330.97 60.6966  11
   2  -1  -7 1301.29 72.7211   8
   2  -1  -7 1429.77 76.1692   7
   2  -1  -7 1515.35 71.3673   6
  -2  -1   7 1439.76 75.6653   6
   2  -1  -6 1095.25 42.0820   5
   2  -1  -6 1191.41 54.2984  13
  -2  -1   6 1076.95 60.7659  14
   2  -1  -6 1175.22 57.5387  14
  -2  -1   6 1206.61 60.5620  10
   2  -1  -6 1070.23 60.9978   8
   2  -1  -6 1098.52 56.2351   6
   2  -1  -6 1003.98 60.4558   7
  -2  -1   6 1277.55 64.5503   6
   2  -1  -5 2327.77 83.3785  14
   2  -1  -5 2216.90 80.9639  13
  -2  -1   5 2282.29 89.4518  14
  -2  -1   5 2331.13 87.8092  10
  -2  -1   5 2300.62 74.3663   5
   2  -1  -5 2136.45 71.2756   5
  -2  -1   5 2190.16 64.4270   2
   2  -1  -5 2253.55 81.8841   6
   2  -1  -5 2210.15 88.0659   7
  -2  -1   5 2278.57 88.8435   6
   2  -1  -4 2011.15 72.9971  13
   2  -1  -4 1983.09 72.4799  14
  -2  -1   4 2076.14 78.7608  10
  -2  -1   4 2013.21 62.3793   2
   2  -1  -4 1966.30 70.9319   6
   2  -1  -4 1957.08 77.3015   7
  -2  -1   4 2161.69 79.6468   6
  -2  -1   4 1971.25 68.3559   5
   2  -1  -3 3720.55 110.335  14
   2  -1  -3 3704.26 113.298  13
  -2  -1   3 3797.67 110.972   5
  -2  -1   3 3880.90 107.083   2
   2  -1  -3 3759.74 115.351   7
   2  -1  -3 3697.12 106.972   6
   2  -1  -2 13683.3 335.145  14
   2  -1  -2 13114.9 339.870  13
  -2  -1   2 13318.4 344.381  14
  -2  -1   2 13228.1 344.414  10
  -2  -1   2 13429.2 337.139   2
   2  -1  -2 13255.9 327.357   6
   2  -1  -2 12950.6 336.417   7
  -2  -1   1 11232.8 290.816  10
  -2  -1   1 11083.1 288.516   5
  -2  -1   1 11357.5 290.957  14
  -2  -1   0 6095.99 164.367  14
   2  -1   0 6113.15 164.319  11
  -2  -1   0 5788.52 162.348   9
   2  -1   0 6061.56 150.379   6
   2  -1   1 2919.68 88.5815  11
  -2  -1  -1 2771.39 84.3978   5
  -2  -1  -1 2721.15 80.1109  13
   2  -1   1 2816.54 80.8939   6
   2  -1   1 2741.33 87.7316   1
   2  -1   2 7714.50 214.267   3
  -2  -1  -2 7757.70 196.294  13
  -2  -1  -2 7571.50 203.080   5
  -2  -1  -2 8092.67 204.707   8
   2  -1   2 7877.51 208.481   6
   2  -1   2 7525.27 205.728   7
   2  -1   3 607.115 38.7312   3
  -2  -1  -3 587.538 22.2694  13
  -2  -1  -3 626.591 27.3730   1
  -2  -1  -3 569.915 27.6667   5
  -2  -1  -3 562.801 34.3598   9
  -2  -1  -3 655.041 34.2409   8
   2  -1   3 584.697 30.3060   9
   2  -1   3 557.971 34.9812   6
   2  -1   3 540.105 34.6541   7
   2  -1   4 7282.17 221.613   3
  -2  -1  -4 7425.91 200.675  11
   2  -1   4 7825.86 211.234  11
  -2  -1  -4 7186.56 187.762  13
   2  -1   4 7813.15 219.208   6
   2  -1   4 7210.30 214.947   7
   2  -1   4 7613.43 203.445   9
  -2  -1  -4 7714.49 212.351   8
  -2  -1  -4 7173.07 210.196   9
  -2  -1  -4 7856.22 200.063   1
   2  -1   4 7640.41 215.100   1
  -2  -1  -5 426.620 27.0069   1
   2  -1   5 420.625 35.1515   1
   2  -1   5 408.857 36.8594   7
   2  -1   5 447.236 37.3654   6
  -2  -1  -5 413.652 25.6773  11
   2  -1   5 415.669 21.2140  12
   2  -1   5 473.401 31.8914  11
   2  -1   5 389.595 27.7871   9
  -2  -1  -5 386.417 33.7709   8
  -2  -1  -5 398.578 32.1209   9
   2  -1   5 462.646 39.3965   3
  -2  -1  -6 1829.94 69.7744   1
  -2  -1  -6 1712.81 80.3183   6
   2  -1   6 1748.08 84.2358   7
  -2  -1  -6 1965.78 83.9420   7
   2  -1   6 1910.52 88.3234   6
  -2  -1  -6 1796.43 63.5476  11
   2  -1   6 1958.09 75.4077  11
   2  -1   6 1687.60 50.9426  12
  -2  -1  -6 1613.05 81.1921   4
   2  -1   6 1795.90 70.0102   9
  -2  -1  -6 1791.91 63.7873  10
  -2  -1  -6 1735.81 75.4510   9
  -2  -1  -6 1778.32 80.4133   8
   2  -1   6 1953.09 92.2655   3
  -2  -1  -7 500.363 35.2669   1
   2  -1   7 538.195 48.4154   7
  -2  -1  -7 512.129 45.8954   6
   2  -1   7 484.685 46.7354   6
  -2  -1  -7 472.995 44.5448   7
   2  -1   7 457.119 35.0225  11
  -2  -1  -7 398.693 44.2091   4
   2  -1   7 465.743 21.4820   5
   2  -1   7 397.201 32.8563   9
  -2  -1  -7 472.114 30.1568  10
  -2  -1  -7 426.253 28.1395  11
  -2  -1  -7 477.006 43.5009   8
  -2  -1  -7 439.351 38.7602   9
   2  -1   7 473.693 48.1112   3
  -2  -1  -8 5190.06 139.601  13
  -2  -1  -8 5059.97 181.321  14
   2  -1   8 5454.44 165.628  11
  -2  -1  -8 5078.17 165.006   1
  -2  -1  -8 5199.72 150.930  10
  -2  -1  -8 5232.74 170.150   9
   2  -1   8 5315.44 191.592   7
   2  -1   8 5016.28 189.452   6
  -2  -1  -9 567.258 38.3476   2
  -2  -1  -9 640.762 56.7602  14
  -2  -1  -9 575.793 28.5182  13
   2  -1   9 641.884 44.1235  11
  -2  -1  -9 659.534 38.2269  10
  -2  -1  -9 651.463 51.1444   9
  -2  -1  -9 607.164 46.8243   1
   2  -1   9 672.238 63.7446   6
   2  -1   9 610.519 59.2700   7
  -2  -1 -10 1438.55 88.2944  14
  -2  -1 -10 1499.76 78.4540   9
  -2  -1 -10 1421.25 73.7243   1
   2  -1  10 1677.22 102.398   7
  -2  -1 -11 157.536 30.6259   1
   2  -1  11 166.996 46.6084   7
  -2  -1 -11 143.068 38.7204  14
   2  -1  12 647.407 77.4385   7
  -2  -1 -12 746.299 72.1345  14
   2  -1  13 186.933 51.6811   6
   2  -1  13 91.0790 51.8413   7
  -2  -1 -13 177.254 45.3811  14
  -2  -1 -14 207.299 49.8396  14
   2   0 -14 601.807 69.2091  14
   2   0 -13-13.5927 30.1402   1
  -2   0  13-13.7075 35.2121   6
   2   0 -13 8.22247 31.9922  14
  -2   0  12 864.099 77.6181   6
   2   0 -12 947.321 78.3307  14
   2   0 -11 4.17808 25.1028   1
   2   0 -11 7.15672 26.7528  14
  -2   0  11-8.89252 41.5517   7
  -2   0  11 7.67772 26.5252   6
   2   0 -10 1473.14 91.1793   1
   2   0 -10 1629.44 72.9438   9
   2   0 -10 1596.39 86.4355  14
   2   0 -10 1599.33 74.2986  13
  -2   0  10 1674.82 89.8206   6
   2   0  -9 70.5079 25.2753  13
   2   0  -9 30.0504 13.2141  12
   2   0  -9 23.5186 25.5935  14
  -2   0   9 37.7562 11.5660  11
  -2   0   9 18.4234 20.5064  10
   2   0  -9 63.2709 22.4940   9
  -2   0   9 67.7338 27.6133   6
   2   0  -8 3317.69 128.536  14
   2   0  -8 3388.12 116.968  13
  -2   0   8 2931.45 95.4016  11
   2   0  -8 2939.50 97.1399  12
  -2   0   8 3219.00 115.948  10
   2   0  -8 3407.86 116.705   9
   2   0  -8 3224.35 125.371   6
  -2   0   8 3242.36 127.900   6
   2   0  -8 3285.73 133.353   3
   2   0  -7 2150.37 98.2527   3
   2   0  -7 2284.59 95.8564  14
   2   0  -7 2263.38 87.3245  13
   2   0  -7 2120.63 75.1845  12
   2   0  -7 2079.29 65.8414   5
  -2   0   7 2326.86 88.1861  10
  -2   0   7 2084.19 72.2507  11
   2   0  -7 2186.54 96.6853   8
   2   0  -7 2183.93 92.3369   6
  -2   0   7 2118.39 93.7385   6
   2   0  -7 2116.20 96.9950   7
   2   0  -6 473.801 41.5531   3
   2   0  -6 534.496 40.3956  14
   2   0  -6 522.301 37.0907  13
  -2   0   6 482.715 37.9797  14
   2   0  -6 495.290 30.7773  12
  -2   0   6 524.325 35.7711  10
   2   0  -6 516.596 26.4942   5
   2   0  -6 508.547 41.2717   8
  -2   0   6 489.835 38.5500   6
   2   0  -6 555.337 40.1624   6
   2   0  -6 442.082 41.1766   7
   2   0  -5 362.136 22.7158   5
   2   0  -5 350.505 30.8181  14
   2   0  -5 356.696 30.4654  13
  -2   0   5 380.235 31.7576  14
  -2   0   5 444.739 32.6749   6
   2   0  -5 343.426 30.3816   6
   2   0  -5 345.268 33.3856   7
  -2   0   5 370.002 28.8612  10
   2   0  -4 1628.01 58.1241   5
   2   0  -4 1700.45 67.4077  13
  -2   0   4 1748.61 67.8863  14
   2   0  -4 1665.82 67.6169  14
   2   0  -4 1638.33 64.9339   6
  -2   0   4 1701.26 65.7497   6
   2   0  -4 1584.93 67.4948   7
  -2   0   4 1701.09 65.4558  10
   2   0  -3 1093.86 43.5865   5
   2   0  -3 1108.96 47.9609  13
   2   0  -3 1123.89 48.4340  14
   2   0  -3 1095.32 44.8322   6
   2   0  -3 1151.99 48.3556   7
  -2   0   3 1132.36 45.2813   6
   2   0  -2 33.5250 11.0729   5
  -2   0   2 12.5298 8.10493   6
   2   0  -2 21.6554 11.5480  13
   2   0  -2 16.4302 9.85962  14
   2   0  -2 14.1767 9.89438   7
   2   0  -1 6495.26 166.512  14
  -2   0   1 6174.90 167.642  13
   2   0  -1 5985.91 156.075   7
   2   0  -1 6196.12 166.037   5
   2   0   0 402.313 23.3473   9
  -2   0   0 382.541 21.8425  13
  -2   0  -1 2438.03 71.7274  13
   2   0   1 2314.46 65.4011   7
  -2   0  -1 2428.76 73.3979   4
   2   0   1 2270.09 74.4423   9
  -2   0  -1 2401.37 65.0190   8
  -2   0  -1 2445.51 74.7645   1
  -2   0  -2 9677.27 242.582   1
  -2   0  -2 9565.83 243.553  11
   2   0   2 9448.78 245.479   6
   2   0   2 9010.35 239.518   7
  -2   0  -2 9447.19 245.525   4
  -2   0  -2 9176.59 238.251   8
  -2   0  -2 8993.88 242.282   9
   2   0   2 9008.08 247.395   3
   2   0   3 15654.7 391.074   1
  -2   0  -3 15933.8 391.339   1
   2   0   3 15196.7 394.073   7
  -2   0  -3 15146.4 396.224   6
   2   0   3 15498.9 398.685   6
  -2   0  -3 15776.2 391.030  11
   2   0   3 15048.4 401.261   3
  -2   0  -3 14791.6 389.995   9
  -2   0  -3 15266.7 391.516   8
   2   0   3 14975.3 383.269   5
  -2   0  -3 15498.4 398.115   4
  -2   0  -4 147.510 18.5611   1
   2   0   4 130.222 18.8789   1
   2   0   4 150.768 22.8267   7
   2   0   4 110.569 21.0118   6
   2   0   4 162.877 15.0556   5
  -2   0  -4 108.928 22.1647   4
  -2   0  -4 131.124 17.5714  11
   2   0   4 124.123 19.3509   9
  -2   0  -4 137.935 22.7379   8
  -2   0  -4 133.657 19.0074   9
   2   0   4 153.841 23.0993   3
  -2   0  -4 83.4622 21.8500   3
  -2   0  -5 5297.59 157.322   1
   2   0   5 5133.92 157.168   1
   2   0   5 4945.73 164.412   7
   2   0   5 4966.35 166.118   6
  -2   0  -5 5184.21 149.400  11
   2   0   5 5124.69 136.707   5
  -2   0  -5 5170.28 165.565   4
   2   0   5 5226.65 156.604   9
  -2   0  -5 5298.08 162.129   8
  -2   0  -5 5028.02 152.667   9
   2   0   5 5157.36 171.061   3
  -2   0  -6 14.6559 17.3541   7
   2   0   6 9.24823 17.2855   7
   2   0   6 2.40534 16.4161   6
  -2   0  -6-2.14329 16.8377   6
   2   0   6-0.40210 6.63762   5
  -2   0  -6-2.29252 17.6669   4
  -2   0  -6-1.76984 12.5237   1
  -2   0  -6 6.64676 12.6693  10
  -2   0  -6 3.77407 9.97587  11
  -2   0  -6-1.45340 12.6446   9
   2   0   6 5.02623 13.7689   9
  -2   0  -6 12.0331 17.4480   8
  -2   0  -6-4.69430 17.5479   3
   2   0   6-7.94107 17.8383   3
  -2   0  -7 4236.10 150.064   6
   2   0   7 4062.36 154.375   6
   2   0   7 4016.37 152.187   7
  -2   0  -7 4033.62 148.767   7
  -2   0  -7 4120.16 151.705   4
  -2   0  -7 4173.40 130.661  10
  -2   0  -7 3932.68 127.430  11
   2   0   7 4065.62 138.946   9
  -2   0  -7 4177.62 153.890   3
  -2   0  -7 4093.38 147.421   8
  -2   0  -7 4158.05 134.215   9
  -2   0  -7 4276.70 142.286   1
  -2   0  -8 11.6736 17.2749   1
  -2   0  -8 8.95858 21.1330  14
  -2   0  -8 7.76429 16.8434  10
  -2   0  -8 15.7077 19.0234   9
   2   0   8 28.4204 21.0082   7
   2   0   8 6.41871 25.2145   6
  -2   0  -9 3130.50 121.033   1
  -2   0  -9 2908.16 103.825  10
  -2   0  -9 3083.73 132.841  14
  -2   0  -9 3155.61 110.612   9
   2   0   9 2999.01 136.075   7
  -2   0 -10 163.244 32.1931   1
  -2   0 -10 149.601 26.4346  10
  -2   0 -10 182.959 28.9685   9
   2   0  10 149.562 43.1281   7
  -2   0 -10 140.599 36.1343  14
  -2   0 -11 403.561 55.0053  14
   2   0  11 458.138 63.8370   7
  -2   0 -11 432.030 48.9949   1
  -2   0 -12 108.818 39.1086  14
  -2   0 -12 114.386 30.2513   1
  -2   0 -13 571.278 69.1605  14
  -2   0 -14 43.6444 40.8841  14
   2   1 -14 37.4629 37.8161  14
   2   1 -14-35.2281 32.5849   1
   2   1 -13 1114.77 92.1372  14
   2   1 -13 982.088 88.2253   1
   2   1 -12 42.1387 33.7497  14
   2   1 -12 70.6385 34.1158   1
   2   1 -11 593.685 64.3902  14
   2   1 -11 588.333 68.3003   1
  -2   1  11 602.900 62.3923   6
   2   1 -10 93.0340 32.7860  14
   2   1 -10 64.1075 26.7767  13
   2   1 -10 42.1979 13.1318  12
   2   1 -10 67.3364 35.7794   1
  -2   1  10 30.2190 28.0913   6
   2   1  -9 2179.03 93.8805  13
   2   1  -9 2067.80 103.524  14
   2   1  -9 1726.04 67.0937  12
   2   1  -9 2005.40 78.7085   9
  -2   1   9 1775.19 76.8510  10
  -2   1   9 1970.52 97.9094   6
   2   1  -9 2032.95 109.324   1
   2   1  -8 69.5025 29.5973   3
   2   1  -8 92.8445 29.0862  14
   2   1  -8 126.480 27.2570  13
   2   1  -8 65.3307 16.7035  12
   2   1  -8 76.9599 26.8949   6
  -2   1   8 63.8634 19.3529  10
   2   1  -8 55.5972 18.1539   9
  -2   1   8 72.1841 24.1542   6
   2   1  -7 1459.13 67.6012  13
   2   1  -7 1407.17 74.1095  14
   2   1  -7 1354.20 54.9261  12
  -2   1   7 1375.17 57.1652  10
   2   1  -7 1424.58 64.7494  10
   2   1  -7 1314.25 71.2392   3
  -2   1   7 1365.24 68.0534   6
   2   1  -7 1506.47 72.6647   6
  -2   1   6 970.073 52.0776  14
   2   1  -6 1080.64 61.1057  14
   2   1  -6 1101.02 49.1938  12
   2   1  -6 1007.58 43.8734   5
  -2   1   6 1011.58 47.7993  10
   2   1  -6 1040.34 53.7199  10
   2   1  -6 988.281 58.4291   3
   2   1  -6 973.476 56.3389   6
  -2   1   6 1030.22 55.0887   6
  -2   1   5 2006.90 77.6166  14
   2   1  -5 2114.18 87.2175  14
   2   1  -5 2068.59 76.2518  12
   2   1  -5 2055.91 71.9223   5
  -2   1   5 2162.42 74.8592  10
   2   1  -5 2188.44 81.3992  10
   2   1  -5 2126.71 84.8186   3
  -2   1   5 2162.66 80.4853   6
  -2   1   4 1851.76 66.4954  14
   2   1  -4 1759.43 73.9429  14
   2   1  -4 1842.43 67.6293  12
   2   1  -4 1752.83 63.7829   5
   2   1  -4 1874.95 70.5837  10
  -2   1   4 1797.34 63.7443  10
  -2   1   4 1853.56 66.0101   6
   2   1  -4 1770.56 70.7259   3
  -2   1   4 1670.20 50.2624   2
  -2   1   3 3714.01 102.454   2
   2   1  -3 3914.89 120.683  14
  -2   1   3 3606.40 109.148  14
   2   1  -3 3751.89 115.035  12
   2   1  -3 3859.96 116.495  10
  -2   1   3 3797.24 115.994   8
  -2   1   3 3764.05 107.421   6
   2   1  -3 3768.42 112.690   5
  -2   1   2 13004.0 330.307  14
   2   1  -2 12867.6 332.118   9
  -2   1   2 13170.6 333.330   8
  -2   1   2 13258.6 323.451   6
   2   1  -2 13251.9 336.967   5
   2   1  -1 11482.6 295.435   9
  -2   1   1 11756.3 289.684   8
  -2   1   1 11448.4 297.973  13
   2   1  -1 11569.3 298.768   5
   2   1   0 5245.39 150.358   5
   2   1   0 5472.95 149.917   9
  -2   1   0 5632.65 150.572  13
   2   1   1 2800.55 84.6869   3
   2   1   1 3080.01 93.9063   4
  -2   1  -1 3058.66 82.7242   4
   2   1   1 2826.19 91.3173   9
  -2   1  -1 3004.34 93.4381   1
   2   1   2 7984.76 210.715  12
  -2   1  -2 8306.73 219.061  11
   2   1   2 7903.16 217.103   3
   2   1   2 8424.37 223.664   4
  -2   1  -2 8410.75 214.570   4
   2   1   2 7569.01 219.276   9
  -2   1  -2 8003.41 212.540   9
  -2   1  -2 8268.30 221.796   1
   2   1   2 8198.13 207.264   1
   2   1   3 673.872 28.1865  12
  -2   1  -3 641.971 35.2630  11
   2   1   3 623.141 37.5446   3
   2   1   3 606.648 29.6756   5
   2   1   3 696.564 40.5295   4
  -2   1  -3 663.327 31.8142   9
  -2   1  -3 660.865 37.6085   1
   2   1   3 674.742 28.8755   1
  -2   1  -4 8093.13 219.543   1
   2   1   4 7731.27 202.825   1
   2   1   4 7551.38 217.776   7
  -2   1  -4 7730.70 211.586  11
   2   1   4 7363.17 192.324  12
   2   1   4 7300.68 197.409   5
   2   1   4 7565.71 216.756   9
  -2   1  -4 7626.53 203.548   9
   2   1   4 7730.34 222.484   3
   2   1   5 391.228 21.0487   5
   2   1   5 442.860 34.6426   9
  -2   1  -5 401.787 30.1470  11
  -2   1  -5 435.856 32.6859  10
   2   1   5 408.182 36.4472   7
  -2   1  -5 459.389 28.3055   9
  -2   1  -5 485.981 35.7952   1
  -2   1  -6 2150.37 89.0791   1
   2   1   6 1951.63 89.9561   7
   2   1   6 1837.31 88.7418   6
  -2   1  -6 1924.57 87.6417   6
  -2   1  -6 2064.70 81.4385  10
   2   1   6 1924.36 84.6320   9
  -2   1  -6 2058.23 78.7809  11
  -2   1  -6 1932.39 72.1299   9
  -2   1  -6 1999.71 91.0219   3
  -2   1  -7 433.104 33.6441   2
  -2   1  -7 486.365 47.7229   3
  -2   1  -7 491.376 41.7913   1
  -2   1  -7 459.392 45.4507  14
  -2   1  -7 463.121 37.9567  10
  -2   1  -7 391.156 35.3616  11
  -2   1  -7 459.629 33.0116   9
  -2   1  -7 443.452 44.0908   6
   2   1   7 467.192 45.5989   7
   2   1   7 509.762 46.9118   6
  -2   1  -8 4788.62 157.336   2
  -2   1  -8 5436.16 184.316   1
  -2   1  -8 5383.31 193.195  14
  -2   1  -8 5478.40 169.682  10
  -2   1  -8 5347.41 158.850   9
   2   1   8 5533.68 193.733   7
  -2   1  -9 787.159 60.7370   1
  -2   1  -9 645.770 49.7619  10
  -2   1  -9 737.966 64.4398  14
  -2   1  -9 667.896 43.4743   9
  -2   1  -9 595.709 41.0967   2
  -2   1 -10 1388.55 75.5126  10
  -2   1 -10 1627.98 90.8711   1
  -2   1 -10 1695.31 101.142  14
  -2   1 -11 156.271 35.7534   1
  -2   1 -11 171.912 43.1839  14
  -2   1 -12 676.997 66.2674   1
  -2   1 -12 663.108 72.5582  14
  -2   1 -13 203.493 41.2394   1
  -2   1 -13 212.165 52.1303  14
  -2   1 -14 217.110 52.2878  14
   2   2 -14 476.924 67.5689   1
   2   2 -14 437.672 66.4972  14
   2   2 -13 26.3495 33.1677   1
   2   2 -13 38.5217 40.2557  14
   2   2 -12 615.461 72.3871   1
   2   2 -12 658.741 73.1485  14
   2   2 -11 124.375 38.7306   1
   2   2 -11 109.800 39.0365  14
   2   2 -10 1814.17 111.862   1
   2   2 -10 1435.20 62.5767  12
   2   2  -9 238.766 26.5232  12
   2   2  -9 258.072 43.7362  14
   2   2  -9 285.240 37.6402  10
   2   2  -9 240.295 23.6112   9
   2   2  -9 254.672 46.9814   1
   2   2  -8 1683.35 92.5829  14
  -2   2   8 1491.05 60.7782  10
   2   2  -8 1645.64 82.7479  10
   2   2  -8 1663.80 60.3989   9
   2   2  -8 1716.31 69.7650  12
   2   2  -8 1608.16 98.3013   1
   2   2  -8 1810.78 91.3784   3
   2   2  -7 589.078 38.3275  12
   2   2  -7 614.602 51.4881  14
   2   2  -7 542.306 47.9522   3
  -2   2   7 558.446 31.7692  10
   2   2  -7 491.557 29.8193   9
   2   2  -7 569.508 45.9360  10
   2   2  -6 5291.78 161.636  12
  -2   2   6 5219.63 149.926  10
   2   2  -6 5575.96 171.664  10
   2   2  -6 5241.38 179.589  14
   2   2  -6 5420.03 172.952   3
   2   2  -5 1803.71 80.5992  14
  -2   2   5 1688.59 67.0279  13
  -2   2   5 1680.32 62.6037  14
   2   2  -5 1885.67 70.9348  12
   2   2  -5 1836.27 67.7526   5
  -2   2   5 1741.12 59.1425  10
   2   2  -5 1913.99 76.3937  10
  -2   2   5 1823.05 78.2567   8
   2   2  -5 1714.11 56.1345   9
  -2   2   5 1789.44 52.4279   2
   2   2  -5 1797.56 73.0122   3
  -2   2   4 528.393 33.9476  13
  -2   2   4 508.004 28.3876  14
   2   2  -4 546.910 36.0908  12
  -2   2   4 541.121 23.0128  11
   2   2  -4 595.511 35.6430   5
   2   2  -4 604.613 39.4226  10
  -2   2   4 537.284 37.7623   8
   2   2  -4 536.605 27.0684   9
  -2   2   4 574.390 27.2253   2
   2   2  -4 521.307 29.8452   2
   2   2  -4 551.060 34.3811   3
  -2   2   3 4215.67 119.164  14
  -2   2   3 4376.93 130.449  13
   2   2  -3 4371.10 135.149  12
  -2   2   3 4344.63 119.424  11
   2   2  -3 4452.74 134.387   5
   2   2  -3 4402.21 136.434  10
   2   2  -3 4300.94 120.839   9
  -2   2   3 4219.61 133.410   8
  -2   2   3 4388.95 124.209   2
   2   2  -3 4537.27 126.772   3
   2   2  -3 4473.41 128.840   2
  -2   2   2 3668.10 105.070  11
   2   2  -2 3748.41 116.432  12
  -2   2   2 3583.00 99.1815  14
   2   2  -2 3701.10 115.139   5
  -2   2   2 3638.45 111.221   8
   2   2  -2 3670.13 105.010   9
   2   2  -2 3721.67 100.967   3
  -2   2   2 3633.96 108.733   2
   2   2  -1 562.178 32.5323   5
   2   2  -1 577.798 33.0055  14
  -2   2   1 530.935 28.6280   8
   2   2  -1 540.234 28.0387   9
   2   2  -1 552.466 32.2357  12
   2   2   0 214.965 20.0297  12
  -2   2   0 205.448 19.8630   2
   2   2   0 218.991 19.8785   5
  -2   2   0 198.023 19.4705   1
   2   2   0 210.676 18.9304   9
   2   2   1 9437.20 250.986   4
   2   2   1 9019.73 247.436   9
  -2   2  -1 9122.33 250.256   1
   2   2   2 661.835 23.9072   1
  -2   2  -2 795.954 41.5954   1
   2   2   2 682.988 26.3434  13
   2   2   2 694.667 34.2924  12
   2   2   2 701.295 40.4138   4
   2   2   2 648.524 38.7957   9
  -2   2  -2 760.978 39.9237   2
   2   2   3 1033.96 42.8267  12
   2   2   3 1093.42 55.6650   4
   2   2   3 1049.66 45.5579   5
  -2   2  -3 1067.24 51.5167  11
  -2   2  -3 1043.08 51.6466   2
   2   2   3 989.530 31.6224   1
  -2   2  -3 1126.05 54.8570   1
   2   2   4 189.042 17.0659  12
  -2   2  -4 155.512 21.7121  11
  -2   2  -4 183.101 24.5979   1
   2   2   4 219.449 28.2174   4
   2   2   4 140.234 17.9938   5
  -2   2  -4 191.645 23.7275   2
   2   2   5 5980.02 192.362   9
  -2   2  -5 6167.27 187.213  10
  -2   2  -5 6334.47 186.342  11
  -2   2  -5 6079.43 183.458   2
  -2   2  -5 6109.06 167.227   9
  -2   2  -5 6181.52 195.525   1
  -2   2  -6 719.533 52.0295   1
  -2   2  -6 728.285 54.2157  14
  -2   2  -6 705.042 45.9453  11
   2   2   6 736.264 52.0709   9
  -2   2  -6 732.802 48.0880  10
  -2   2  -6 782.579 35.8590   9
  -2   2  -6 742.305 44.8155   2
  -2   2  -6 684.960 52.5225   3
  -2   2  -7 1560.71 68.8759   2
  -2   2  -7 1460.33 81.9798   3
  -2   2  -7 1477.45 81.2485   1
  -2   2  -7 1554.41 85.8506  14
  -2   2  -7 1479.31 74.5527  10
  -2   2  -7 1520.43 57.4822   9
  -2   2  -7 1594.90 83.4229   6
  -2   2  -8 248.988 35.2439  10
  -2   2  -8 271.318 42.1840  14
  -2   2  -8 267.351 24.9200   9
  -2   2  -8 269.721 39.7672   1
  -2   2  -8 203.257 27.8057   2
  -2   2  -9 1216.17 80.7071   1
  -2   2  -9 1320.85 74.5826  10
  -2   2  -9 1390.24 88.7937  14
  -2   2  -9 1267.67 54.1256   9
  -2   2  -9 1216.15 62.1436   2
  -2   2 -10-14.8086 24.5572  10
  -2   2 -10-29.3698 30.7094  14
  -2   2 -10-3.72657 22.3926   1
  -2   2 -11 939.610 83.4184  14
  -2   2 -11 833.990 73.5596   1
  -2   2 -12 122.956 42.5671  14
  -2   2 -12 130.726 37.6477   1
  -2   2 -13 605.352 75.6912  14
  -2   2 -13 610.602 67.4392   1
   2   3 -13 872.663 88.7000  14
   2   3 -13 706.882 82.0190   1
   2   3 -12 169.924 47.3281  14
   2   3 -12 172.343 45.9440   1
   2   3 -11 915.495 83.0580  14
   2   3 -11 983.383 87.9639   1
   2   3 -10 188.278 42.8086  14
   2   3 -10 160.102 26.9046  12
   2   3 -10 224.726 45.1842   1
   2   3  -9 1198.28 84.1872  14
   2   3  -9 1329.80 94.4362   1
   2   3  -9 1178.93 61.3528  12
   2   3  -8 103.875 22.5238  12
   2   3  -8 38.2191 25.7525  14
   2   3  -8 80.0628 27.8418  10
   2   3  -8 41.1539 26.3204   1
   2   3  -8 55.9713 27.0268   3
   2   3  -7 1868.60 78.3179  12
   2   3  -7 1916.30 96.4605  14
  -2   3   7 1543.02 55.4445  10
   2   3  -7 1857.92 88.5299  10
   2   3  -7 1862.14 68.4209   2
   2   3  -7 1827.40 85.7785   3
   2   3  -7 1994.56 106.329   1
   2   3  -6 625.551 56.2100   1
   2   3  -6 640.968 51.7822  14
  -2   3   6 662.085 30.4246  10
   2   3  -6 642.907 48.8798  10
   2   3  -6 723.541 45.6186  12
  -2   3   6 751.786 55.0546   8
   2   3  -6 704.617 25.0391   9
   2   3  -6 729.321 48.8059   3
  -2   3   6 644.596 32.1697   2
   2   3  -6 700.144 38.9599   2
  -2   3   5 4783.37 146.586  13
   2   3  -5 4757.15 166.566  14
   2   3  -5 5057.99 161.740  10
   2   3  -5 4934.94 155.850  12
   2   3  -5 4729.81 126.980   9
  -2   3   5 4874.49 162.962   8
   2   3  -5 4847.96 151.874   3
   2   3  -5 4933.91 146.969   2
  -2   3   5 4802.87 138.659   2
  -2   3   4 2664.09 92.1061  13
   2   3  -4 2912.56 102.243  12
  -2   3   4 2527.54 78.8274  11
   2   3  -4 2733.84 102.963  10
   2   3  -4 2684.59 78.3484   9
  -2   3   4 2605.13 101.533   8
  -2   3   4 2704.21 89.2640   2
   2   3  -4 2847.68 93.2567   3
   2   3  -4 2884.48 95.5649   2
  -2   3   3 1900.07 55.5483  14
  -2   3   3 1977.57 73.6355  13
   2   3  -3 2148.10 82.3975  12
   2   3  -3 2056.16 80.9230   5
  -2   3   3 2036.66 66.5782  11
   2   3  -3 1994.21 63.9570   9
  -2   3   3 1938.91 79.4368   8
  -2   3   3 2063.47 73.7361   2
   2   3  -3 2076.03 77.4553   2
   2   3  -3 1979.52 67.3319   3
  -2   3   2 2827.58 79.4239  14
  -2   3   2 2961.24 98.9994  13
   2   3  -2 3255.45 107.328  12
   2   3  -2 3037.65 105.596   5
  -2   3   2 3047.08 94.3974  11
   2   3  -2 3073.61 92.0880   9
  -2   3   2 3148.88 102.917   8
  -2   3   2 2986.05 99.6193   2
   2   3  -2 3144.21 104.460   2
   2   3  -1 6725.98 196.921  12
   2   3  -1 6705.54 197.202   5
  -2   3   1 6725.58 188.304  11
   2   3  -1 6809.33 186.745   9
   2   3  -1 6831.81 196.225   2
   2   3   0 6503.21 187.863   5
   2   3   0 6536.76 187.508  12
   2   3   0 6433.86 182.884   9
  -2   3   0 6133.89 186.211   2
   2   3   1 695.950 42.1833   4
   2   3   1 691.201 40.5791   9
  -2   3  -1 669.820 41.4120   1
   2   3   2 4039.67 125.221  12
   2   3   2 4426.35 136.979   4
   2   3   2 3956.09 131.864   9
   2   3   2 3786.33 104.357   1
  -2   3  -2 4221.91 135.914   1
  -2   3  -2 4337.73 134.174   2
   2   3   3 250.417 14.4413  13
   2   3   3 200.063 23.0096  12
   2   3   3 229.469 28.9521   4
  -2   3  -3 250.115 27.6748  11
   2   3   3 213.814 27.4421   9
  -2   3  -3 220.463 27.5594   1
  -2   3  -3 255.548 28.4974   2
   2   3   4 2491.98 85.5174  12
  -2   3  -4 2582.91 98.2868  11
  -2   3  -4 2558.00 98.7878  10
   2   3   4 2473.39 103.127   4
  -2   3  -4 2519.62 103.737   1
  -2   3  -4 2582.86 96.7662   2
  -2   3  -5 146.247 23.2580   2
  -2   3  -5 148.305 27.1183   1
  -2   3  -5 131.148 24.8506  14
  -2   3  -5 110.013 22.4312  11
  -2   3  -5 138.501 26.1140  10
  -2   3  -6 3660.12 146.917  14
  -2   3  -6 3831.61 148.573   1
  -2   3  -6 3847.85 132.334   2
  -2   3  -6 3935.12 139.965  10
  -2   3  -7 99.6062 26.3666   1
  -2   3  -7 156.519 25.6714   2
  -2   3  -7 170.547 34.0928  14
  -2   3  -7 113.253 28.1825  10
  -2   3  -8 1723.80 99.3723  14
  -2   3  -8 1668.35 95.2096   1
  -2   3  -8 1751.61 78.4730   2
  -2   3  -8 1636.35 86.6286  10
  -2   3  -9 25.8218 19.1879   2
  -2   3  -9 46.0663 27.1761   1
  -2   3  -9 36.5702 28.0876  14
  -2   3 -10 1076.08 84.7808   1
  -2   3 -10 1185.86 90.5017  14
  -2   3 -11 145.751 38.8793   1
  -2   3 -11 149.476 45.7936  14
  -2   3 -12 753.933 76.9552   1
  -2   3 -12 880.987 87.5217  14
  -2   3 -13 203.316 48.9006   1
  -2   3 -13 142.561 50.0285  14
   2   4 -13 35.6830 36.3080   1
   2   4 -13 10.8516 39.2808  14
   2   4 -12 404.997 64.9076   1
   2   4 -12 360.688 61.3368  14
   2   4 -11 59.6317 35.6134   1
   2   4 -11 62.8121 36.5265  14
   2   4 -10 768.328 79.2153   1
   2   4 -10 636.663 70.7388  14
   2   4  -9 33.2228 28.0786   1
   2   4  -9 35.0331 22.6961  12
   2   4  -8 1855.78 85.3259  12
   2   4  -8 1930.92 105.087  14
   2   4  -8 1626.50 88.5774   3
   2   4  -8 1773.24 75.2072   2
   2   4  -8 1873.18 112.875   1
   2   4  -7 52.5322 27.2849   1
   2   4  -7 65.4157 19.1454   2
   2   4  -7 103.289 25.2384  12
   2   4  -7 40.8987 27.5749  14
   2   4  -7 60.9480 28.7882  10
  -2   4   7 84.1507 31.4162   8
   2   4  -7 93.4864 27.3415   3
   2   4  -6 3435.05 146.801   1
   2   4  -6 3464.95 123.558  12
   2   4  -6 3280.38 134.968  14
  -2   4   6 3228.21 107.928  13
   2   4  -6 3553.21 130.862  10
  -2   4   6 2830.76 87.8568  10
  -2   4   6 3059.85 128.185   8
  -2   4   6 3177.94 104.842   2
   2   4  -6 3321.67 113.631   2
   2   4  -6 3394.17 117.960   3
   2   4  -5 771.351 60.9902   1
   2   4  -5 777.194 51.0918  12
  -2   4   5 719.604 42.0630  13
   2   4  -5 817.811 57.5485  14
   2   4  -5 750.325 53.5008  10
  -2   4   5 776.309 54.7682   8
   2   4  -5 723.518 46.6952   2
  -2   4   5 744.309 42.4653   2
   2   4  -4 3643.55 141.924   1
  -2   4   4 3397.07 114.801  13
   2   4  -4 3463.72 131.502  14
   2   4  -4 3494.89 98.6332   9
   2   4  -4 3550.36 128.710  10
   2   4  -4 3670.21 129.415  12
  -2   4   4 3465.20 127.818   8
  -2   4   4 3467.34 117.019   2
   2   4  -4 3597.70 122.812   2
  -2   4   3 1976.71 76.0286  13
   2   4  -3 1877.85 83.1249  12
  -2   4   3 1994.75 83.3776   8
  -2   4   3 1889.58 77.0555   2
   2   4  -3 1910.58 80.1514   2
   2   4  -3 1858.65 64.1959   9
   2   4  -2 3348.28 117.392  12
  -2   4   2 2994.94 102.751  11
   2   4  -2 3225.56 100.128   9
  -2   4   2 3149.29 112.478   8
  -2   4   2 3094.94 110.177   2
   2   4  -2 3190.77 113.796   2
   2   4  -1 4132.03 132.845  14
  -2   4   1 3674.17 110.017  14
   2   4  -1 4218.36 138.704  12
  -2   4   1 4042.77 110.427   4
   2   4  -1 4187.72 126.542   9
  -2   4   1 4090.21 128.879  11
   2   4  -1 4294.81 135.828   1
  -2   4   1 4026.60 132.290   1
   2   4  -1 4070.42 136.681   2
   2   4   0 2143.68 86.6912  12
  -2   4   0 2036.64 62.0085   4
   2   4   0 2173.61 79.2809   1
   2   4   0 2134.74 80.2982  14
   2   4   0 2020.26 78.2485  10
   2   4   0 2064.57 80.7197   9
   2   4   1 9276.38 266.433   4
   2   4   1 9171.57 262.700   9
   2   4   1 9304.45 250.790  10
   2   4   1 9399.61 245.752   1
  -2   4  -1 9099.98 251.776  14
  -2   4  -2 2665.87 95.1823  14
   2   4   2 2543.22 95.3472  12
   2   4   2 2703.18 102.963   4
   2   4   2 2749.99 103.369   9
  -2   4  -2 2686.96 103.482   1
   2   4   2 2540.95 73.7455   1
   2   4   3 5029.02 159.524  12
   2   4   3 5197.64 172.112   4
   2   4   3 4904.25 170.796   9
  -2   4  -3 5335.81 169.011   2
  -2   4  -3 5401.67 176.124   1
   2   4   4 118.224 19.8101  12
  -2   4  -4 148.698 27.3161  10
  -2   4  -4 132.991 24.1680  11
  -2   4  -4 168.786 27.6450   1
  -2   4  -4 157.716 26.5926   2
   2   4   4 178.019 28.8723   9
   2   4   4 142.220 26.7430   4
  -2   4  -5 5860.08 191.353  10
   2   4   5 5486.13 195.742   4
  -2   4  -5 5955.34 202.626   1
  -2   4  -5 5894.91 186.953   2
  -2   4  -6 128.112 30.0113   1
  -2   4  -6 126.804 26.2404   2
  -2   4  -6 87.5041 28.1648  14
  -2   4  -6 150.808 30.4813  10
  -2   4  -7 1890.96 104.571  14
  -2   4  -7 2239.42 111.280   1
  -2   4  -7 2092.05 92.2500   2
  -2   4  -7 1961.54 97.2831  10
  -2   4  -8-7.80597 24.9192  14
  -2   4  -8 16.0475 21.1393   2
  -2   4  -8 35.3082 25.4031   1
  -2   4  -9 1212.73 89.4646  14
  -2   4  -9 1147.25 67.4434   2
  -2   4  -9 1322.88 90.6775   1
  -2   4 -10 131.400 41.2516  14
  -2   4 -10 122.704 36.4950   1
  -2   4 -11 600.039 73.4372  14
  -2   4 -11 709.111 74.3505   1
  -2   4 -12 276.938 55.7957  14
  -2   4 -12 152.141 44.3797   1
  -2   4 -13 286.300 59.8857  14
  -2   4 -13 220.719 53.5316   1
   2   5 -12-5.43442 37.0893  14
   2   5 -12-6.02609 34.4096   1
   2   5 -11 250.942 52.5032  14
   2   5 -11 269.476 56.3684   1
   2   5 -10 23.8933 31.7976  14
   2   5 -10 43.2687 33.5370   1
   2   5  -9 1303.34 94.1742  14
   2   5  -9 1156.15 98.4387   1
   2   5  -9 1198.07 74.4426  12
   2   5  -8 56.7543 34.4646  14
  -2   5   8 85.7574 32.7076   8
   2   5  -8 50.3541 21.2160   2
   2   5  -8 23.4021 28.1445   1
   2   5  -8 39.8893 23.5174  12
   2   5  -7 598.392 64.6428   1
   2   5  -7 714.199 55.6688  12
  -2   5   7 630.893 41.4401  13
   2   5  -7 724.452 64.2418  14
  -2   5   7 533.612 55.3034   8
   2   5  -7 623.784 48.5494   2
   2   5  -6 448.370 52.1618   1
   2   5  -6 538.432 48.1000  12
   2   5  -6 481.874 50.0327  14
  -2   5   6 476.774 36.1025  13
  -2   5   6 319.898 20.0976  10
  -2   5   6 489.678 50.2533   8
   2   5  -6 459.634 41.9132   2
   2   5  -5 2464.45 105.717  12
  -2   5   5 2291.51 88.6025  13
   2   5  -5 2293.94 104.886  10
  -2   5   5 2270.66 105.600   8
   2   5  -5 2455.07 99.5489   2
   2   5  -4 1041.48 63.9748  12
  -2   5   4 1060.77 54.9287  13
   2   5  -4 1008.20 63.9252  10
  -2   5   4 1140.03 66.8876   8
   2   5  -4 1044.58 61.2256   2
   2   5  -3 4852.77 165.105  10
   2   5  -3 4977.07 143.354   9
   2   5  -3 5182.40 171.569  12
  -2   5   3 4676.99 165.144   8
   2   5  -3 4917.80 165.143   2
   2   5  -2 5496.76 177.890   2
   2   5  -2 5425.81 180.587  12
   2   5  -2 5305.20 160.178   9
  -2   5   2 5260.91 175.056   8
   2   5  -2 5587.07 181.880   1
  -2   5   1 3772.16 113.076  14
   2   5  -1 4393.80 148.135  12
  -2   5   1 3875.11 115.470   4
   2   5  -1 4224.91 133.573   9
  -2   5   1 4154.24 139.018   1
   2   5  -1 4380.59 142.667   1
   2   5  -1 4224.47 144.487   2
   2   5   0 7239.77 227.499  12
  -2   5   0 7227.59 194.991   4
   2   5   0 7732.94 215.303   1
  -2   5   0 7626.44 224.306   1
   2   5   0 7264.67 213.719  14
  -2   5   0 7061.41 201.851  14
   2   5   0 7646.29 220.497   9
   2   5   1 3410.68 126.488   4
   2   5   1 3412.24 124.062   9
   2   5   1 3282.29 111.887  10
   2   5   1 3429.14 108.085   1
  -2   5  -1 3249.30 111.575  14
   2   5   2 4849.53 164.981  12
   2   5   2 5041.86 170.547   4
   2   5   2 5127.32 149.207  10
   2   5   2 5208.79 172.445   9
   2   5   2 4839.31 138.499   1
  -2   5  -2 5193.96 170.713   2
  -2   5  -3 611.704 45.4385  14
   2   5   3 608.188 44.5220  12
   2   5   3 577.141 47.4478   4
   2   5   3 629.358 50.4141   9
  -2   5  -3 630.314 47.9798  10
  -2   5  -3 569.687 47.8164   1
  -2   5  -3 637.457 49.1437   2
  -2   5  -4 5788.13 196.587  14
   2   5   4 5940.40 188.171  12
  -2   5  -4 6090.34 198.915  10
  -2   5  -4 6369.48 198.906   2
   2   5   4 5697.24 199.479   4
  -2   5  -4 5918.56 206.863   1
  -2   5  -5 8.05471 21.6814  10
  -2   5  -5-6.70352 19.4777   1
  -2   5  -5 4.98442 20.6574   2
   2   5   5 9.11265 19.9383   4
  -2   5  -6 2192.59 99.9896   2
  -2   5  -6 2324.15 116.138   1
  -2   5  -7 207.005 33.9049   2
  -2   5  -7 231.428 41.1752   1
  -2   5  -8 2319.46 124.354  14
  -2   5  -8 2174.41 102.474   2
  -2   5  -8 2472.07 127.951   1
  -2   5  -9 118.199 38.7182  14
  -2   5  -9 115.873 36.1637   1
  -2   5  -9 104.428 27.2969   2
  -2   5 -10 812.220 82.7455  14
  -2   5 -10 1032.35 88.3609   1
  -2   5 -11 404.633 64.4430  14
  -2   5 -11 402.305 60.9645   1
  -2   5 -12 628.237 77.5597  14
  -2   5 -12 453.697 67.1446   1
  -2   5 -13 50.8440 39.0536   1
   2   6 -12 512.650 72.7730  14
   2   6 -12 539.979 77.6648   1
   2   6 -11-16.1758 34.4225  14
   2   6 -11 6.04951 33.9209   1
   2   6 -10 930.110 87.4133  14
   2   6 -10 766.455 87.2407   1
   2   6  -9 32.2230 34.7762   1
  -2   6   9 13.0339 37.2162   8
   2   6  -9 23.5028 33.2665  14
   2   6  -8 1587.62 101.695  14
   2   6  -8 1269.15 99.0472   1
   2   6  -8 1521.36 87.4440  12
  -2   6   8 1298.52 94.6684   8
   2   6  -8 1342.44 78.1876   2
  -2   6   7 608.975 42.8101  13
   2   6  -7 735.667 61.3385  12
   2   6  -7 797.677 75.4782   1
  -2   6   7 623.529 62.5800   8
  -2   6   7 628.976 48.2825   2
   2   6  -7 705.789 56.1685   2
  -2   6   6 2616.29 95.0051  13
   2   6  -6 2746.78 118.073  12
  -2   6   6 2583.12 120.748   8
  -2   6   6 2537.69 102.242   2
   2   6  -6 2689.08 111.157   2
  -2   6   5 285.053 31.8111  13
   2   6  -5 297.849 41.9736  12
   2   6  -5 273.330 37.6313   2
  -2   6   5 230.724 23.5522  10
  -2   6   5 266.624 40.7882   8
  -2   6   5 305.836 35.9053   2
   2   6  -4 1607.36 91.2913   1
   2   6  -4 1583.04 85.1200  12
   2   6  -4 1606.73 84.9632  14
  -2   6   4 1418.88 69.9866  13
   2   6  -4 1508.08 83.4147  10
  -2   6   4 1420.00 61.3286  10
  -2   6   4 1394.31 81.5224   8
   2   6  -4 1425.43 78.4989   2
  -2   6   4 1457.73 76.4162   2
   2   6  -3 2268.54 107.519   1
   2   6  -3 2304.58 101.729  14
   2   6  -3 2337.68 106.391  12
  -2   6   3 2080.79 83.3693  10
  -2   6   3 2179.14 101.773   8
  -2   6   3 2267.21 98.9493   2
   2   6  -3 2241.42 101.076   2
  -2   6   2 3086.68 114.067   1
   2   6  -2 2959.77 121.010   1
   2   6  -2 3062.96 117.682  14
   2   6  -2 3187.52 127.800  12
  -2   6   2 2658.27 95.0631   4
   2   6  -2 2882.05 115.766  10
  -2   6   2 2744.64 116.930   8
  -2   6   2 2826.08 117.005   2
   2   6  -2 3175.21 122.693   2
  -2   6   1 2319.33 75.0835  14
   2   6  -1 2379.08 107.348  12
   2   6  -1 2385.63 98.7297  10
  -2   6   1 2306.41 79.3232   4
   2   6  -1 2497.75 101.274   1
  -2   6   1 2230.09 96.8508   1
  -2   6   1 2384.45 103.174   2
   2   6  -1 2359.20 104.852   2
  -2   6   0 1332.36 57.7979  14
  -2   6   0 1368.43 54.7395   4
   2   6   0 1475.05 68.0765   1
  -2   6   0 1321.65 72.0353   1
   2   6   0 1420.93 77.8823   2
   2   6   0 1360.68 68.0775  10
  -2   6   0 1349.99 69.5558  10
   2   6   1 5580.04 189.710   4
  -2   6  -1 5620.11 184.525  10
  -2   6  -1 5572.81 189.794   1
   2   6   1 5672.88 169.036   1
  -2   6  -1 5644.23 191.186   2
   2   6   2 1925.53 94.2995   4
   2   6   2 1972.09 93.5106  12
   2   6   2 1928.07 69.5519   1
  -2   6  -2 2123.37 97.6002   2
  -2   6  -3 5452.83 180.400  14
   2   6   3 5556.58 184.797  12
  -2   6  -3 5919.33 191.196   2
   2   6   3 5413.84 186.690   2
   2   6   3 5199.42 141.940   1
   2   6   3 5512.29 189.528   4
  -2   6  -4 123.373 30.7100  10
  -2   6  -4 133.838 30.0923   2
   2   6   4 130.567 30.8881   4
  -2   6  -4 123.239 27.5385  14
   2   6   5 4292.20 167.636   4
  -2   6  -5 4346.52 175.222   1
  -2   6  -5 4413.93 162.201   2
  -2   6  -5 4333.98 166.525  14
  -2   6  -6 2.89533 21.4208   2
  -2   6  -6 24.3245 23.9627   1
  -2   6  -6 3.57866 24.4249  14
  -2   6  -7 1514.70 99.1706   1
  -2   6  -8 301.067 50.5105   1
  -2   6  -9 849.010 82.0592   1
   2   6   9 681.156 74.7571   8
  -2   6 -10 165.305 44.3969   1
  -2   6 -10 186.594 47.6439  14
  -2   6 -11 263.478 55.0527   1
  -2   6 -11 199.606 51.4134  14
  -2   6 -12 186.900 51.7821   1
   2   7 -11 1083.04 104.993   1
   2   7 -11 1239.44 107.173  14
   2   7 -10 48.3530 37.4867   1
   2   7 -10 53.1371 42.9265  14
  -2   7   9 905.117 87.8938   8
   2   7  -9 1131.12 100.271   1
  -2   7   8 189.348 47.3019   8
   2   7  -8 196.499 46.3799   1
  -2   7   8 154.969 25.6263  13
   2   7  -7 1459.26 89.5368  12
  -2   7   7 1289.03 64.8091  13
  -2   7   7 1340.08 94.4372   8
  -2   7   7 1250.61 75.2504   2
   2   7  -6 2179.12 109.613  12
  -2   7   6 2054.26 85.2605  13
   2   7  -6 2302.66 116.683  14
  -2   7   6 2004.39 110.421   8
  -2   7   6 2069.74 96.5217   2
   2   7  -5 2805.35 136.591   1
   2   7  -5 2970.56 131.346  12
  -2   7   5 2796.11 107.182  13
   2   7  -5 2797.59 129.104  14
  -2   7   5 2510.51 90.3366  10
  -2   7   5 2484.50 123.748   8
  -2   7   5 2873.66 118.622   2
   2   7  -4 1479.59 91.3672   1
   2   7  -4 1465.03 85.4258  14
  -2   7   4 1426.77 87.5296   8
  -2   7   4 1344.05 79.0645   2
   2   7  -4 1502.04 85.6113   2
  -2   7   4 1417.19 73.0538  13
   2   7  -4 1507.69 89.5824  12
   2   7  -3 858.562 65.2528   1
   2   7  -3 861.772 62.5188  14
   2   7  -3 945.386 69.7176  12
  -2   7   3 844.066 66.1702   8
   2   7  -3 748.529 62.7366   2
  -2   7   3 886.010 63.2136   2
  -2   7   2 2689.44 111.271   1
   2   7  -2 2805.32 121.546   1
   2   7  -2 2675.08 114.456  14
   2   7  -2 2939.15 128.697  12
  -2   7   2 2632.94 94.5028   4
  -2   7   2 2584.36 104.991  10
   2   7  -2 2851.47 118.149  10
  -2   7   2 2691.76 121.243   8
   2   7  -2 2887.34 123.303   2
  -2   7   2 2759.23 119.965   2
   2   7  -1 434.178 42.3318  14
  -2   7   1 455.255 28.3871  14
   2   7  -1 516.532 51.6646  12
  -2   7   1 444.990 42.0997  10
   2   7  -1 437.827 44.2380  10
  -2   7   1 392.527 30.6744   4
   2   7  -1 429.939 42.6415   1
  -2   7   1 435.908 41.9605   1
  -2   7   1 454.975 47.8501   2
   2   7  -1 459.341 48.4957   2
  -2   7   0 2398.38 90.1364  14
  -2   7   0 2688.62 90.6774   4
   2   7   0 2680.29 105.751   1
  -2   7   0 2614.56 113.127   1
   2   7   0 2620.87 118.851   2
  -2   7   0 2578.27 108.432  10
   2   7   0 2640.92 107.055  10
   2   7   1 480.095 48.7211   4
  -2   7  -1 496.378 47.0818  10
   2   7   1 556.812 44.0512  10
  -2   7  -1 565.825 49.7892   1
   2   7   1 531.409 38.9277   1
  -2   7  -1 523.036 52.3090   2
  -2   7  -2 1081.73 61.3114  14
   2   7   2 1104.57 72.4086  12
  -2   7  -2 1021.06 67.8355  10
   2   7   2 1036.65 56.9483  10
   2   7   2 1062.07 50.2276   1
  -2   7  -2 1081.85 72.1103   1
   2   7   2 1017.96 69.0649   4
  -2   7  -2 1069.21 71.5358   2
   2   7   2 1066.80 72.2232   2
  -2   7  -3 71.1281 23.1420  14
  -2   7  -3 91.2383 28.6276   1
   2   7   3 52.3897 12.8834   1
   2   7   3 67.7966 27.4026   2
   2   7   3 59.6561 27.9786   4
  -2   7  -4 224.029 37.3002  14
   2   7   4 285.299 42.3271   4
  -2   7  -5 6.84648 23.3643  14
   2   7   5 14.1496 24.4433   4
  -2   7  -6 1111.58 79.8758  14
  -2   7  -6 1051.23 83.5655   1
   2   7   6 1007.96 78.3876   4
  -2   7  -7 152.471 40.5880   1
  -2   7  -7 97.0240 35.3788  14
  -2   7  -8 826.617 77.8259  14
  -2   7  -8 824.358 80.6336   1
   2   7   8 622.934 72.4245   8
  -2   7  -9 32.4560 31.4354   1
   2   7   9-13.9215 35.7621   8
  -2   7 -10 404.721 64.0646   1
  -2   7 -11 107.493 44.2539   1
   2   8 -10 794.735 91.6038   1
  -2   8  10 755.538 87.4379   8
   2   8  -9 24.0381 38.3768   1
  -2   8   9 58.9680 42.4322   8
  -2   8   8 817.579 83.2215   8
  -2   8   8 759.916 50.9548  13
  -2   8   7 596.848 68.2359   8
  -2   8   7 639.609 47.3972  13
   2   8  -7 691.438 71.0396  14
   2   8  -6 2377.97 121.131  12
  -2   8   6 2010.79 88.4566  13
   2   8  -6 2156.42 118.373  14
  -2   8   6 1784.23 65.5012  10
  -2   8   6 1957.02 115.555   8
   2   8  -6 2288.14 128.928   1
   2   8  -5 514.457 57.7367  14
  -2   8   5 463.982 44.4652  13
  -2   8   5 450.186 57.5218   8
   2   8  -5 505.848 60.6730   1
   2   8  -5 507.967 57.2938  12
   2   8  -4 1130.05 77.7381  14
   2   8  -4 1157.40 83.6052  12
  -2   8   4 1005.33 80.4145   8
   2   8  -4 1151.73 83.5273   1
   2   8  -3 1175.77 76.3040  14
  -2   8   3 1052.55 62.0474  10
  -2   8   3 1102.15 77.6523   8
   2   8  -3 1107.97 79.0096   1
   2   8  -2 814.569 60.6355  14
   2   8  -2 866.090 70.7944  12
  -2   8   2 793.454 46.8573   4
  -2   8   2 680.257 53.1659  10
  -2   8   2 794.635 66.9239   8
   2   8  -2 919.156 66.8542   1
  -2   8   2 860.958 59.9564   1
   2   8  -1 1349.03 87.3601  12
  -2   8   1 1117.83 68.1461  10
  -2   8   1 1139.52 55.2940   4
   2   8  -1 1197.89 70.7518  14
  -2   8   1 1063.75 47.7533  14
   2   8  -1 1182.98 73.1947   1
  -2   8   1 1292.82 74.9813   1
  -2   8   0 435.149 46.4435  10
   2   8   0 446.082 46.0838  10
  -2   8   0 412.071 34.8114   4
   2   8   0 449.254 43.0436  14
   2   8   0 399.196 41.3706   1
  -2   8   0 505.798 50.7415   1
   2   8   1 1494.14 78.7739  10
   2   8   1 1561.67 90.2966   4
  -2   8  -1 1503.02 72.8912  14
  -2   8  -1 1700.60 92.9681   1
   2   8   1 1649.92 75.9329   1
  -2   8  -2 151.735 28.5951  14
   2   8   2 143.623 28.7180  10
   2   8   2 176.074 37.2693   4
   2   8   2 147.123 23.6364   1
  -2   8  -2 185.231 37.3674   1
   2   8   3 1693.35 96.5616   4
  -2   8  -3 1908.58 105.320   1
   2   8   3 1646.26 62.9911   1
  -2   8  -3 1859.01 91.5744  14
   2   8   3 1631.12 75.6711  10
   2   8   4 104.175 32.2821   4
  -2   8  -4 93.3529 30.5685  14
  -2   8  -4 92.1058 32.0286   1
   2   8   5 1403.14 92.6327   4
  -2   8  -5 1680.93 96.3215  14
   2   8   6 211.309 43.1624   4
  -2   8  -6 225.383 42.5314  14
   2   8   6 158.572 17.2240  13
  -2   8  -7 674.109 73.1105   1
   2   8   7 509.495 66.5989   8
  -2   8  -7 588.641 67.4714  14
  -2   8  -8 142.111 43.4512   1
   2   8   8 106.924 43.5534   8
  -2   8  -8 135.188 39.4548  14
   2   8   9 523.617 73.1616   8
  -2   8  -9 473.418 69.3572   1
  -2   8  -9 557.750 71.3345  14
   2   8  10-15.7078 44.1295   8
  -2   8 -10 12.1107 41.8411   1
  -2   8 -10 39.0236 39.4490  14
  -2   9   9 459.183 72.1485   8
   2   9  -9 622.069 75.8433  14
   2   9  -8 65.9425 41.0148  14
   2   9  -8 107.245 41.2206   1
  -2   9   8 89.1570 44.1251   8
   2   9  -7 179.518 44.2590  14
  -2   9   7 159.456 49.4258   8
   2   9  -7 262.351 55.2942   1
  -2   9   7 71.8153 27.2970  13
  -2   9   6 731.137 75.1642   8
  -2   9   6 738.972 55.2801  13
   2   9  -6 775.268 74.8499  14
   2   9  -6 685.970 76.4376   1
   2   9  -5 540.938 62.2571  14
  -2   9   5 510.177 49.6786  13
   2   9  -5 533.077 64.4850   1
  -2   9   5 519.338 65.2212   8
   2   9  -4 367.553 51.5251  14
  -2   9   4 368.096 37.8389  10
  -2   9   4 415.794 56.4536   8
   2   9  -4 440.144 56.1668   1
   2   9  -3 955.925 73.4158  14
   2   9  -3 991.747 81.7448  12
  -2   9   3 914.054 60.4207  10
  -2   9   3 917.576 78.1009   8
   2   9  -3 951.302 76.2111   1
  -2   9   2 829.184 51.3305   4
   2   9  -2 919.581 71.3850   1
  -2   9   2 1004.35 68.6957   1
  -2   9   2 825.498 61.2587  10
  -2   9   2 1002.14 78.6021   8
   2   9  -2 914.536 67.3305  14
   2   9  -1 996.961 71.2538   1
  -2   9   1 1146.57 74.9536   1
  -2   9   1 993.196 55.2292   4
  -2   9   1 1071.83 47.3382  14
   2   9  -1 1013.33 68.2706  14
   2   9   0 1213.02 74.0370   1
  -2   9   0 1364.31 84.5280   1
  -2   9   0 1220.16 61.8717   4
   2   9   0 1366.09 88.1373   4
   2   9   0 1253.47 72.5640  14
  -2   9  -1 993.051 73.8648   1
   2   9   1 834.627 57.7455   1
  -2   9  -1 936.945 57.0642  14
  -2   9  -1 848.749 52.3655   4
   2   9   1 814.175 69.7580   4
   2   9   2 1073.48 68.9966  10
  -2   9  -2 1466.83 92.7924   1
   2   9   2 1281.72 64.2039   1
  -2   9  -2 1335.78 74.0538  14
   2   9   2 1177.92 83.5383   4
   2   9   3 166.600 22.6301   1
  -2   9  -3 227.330 42.9362   1
   2   9   3 225.357 32.5536  10
  -2   9  -3 219.595 35.9731  14
   2   9   3 211.797 41.7470   4
  -2   9  -4 2193.30 122.761   1
  -2   9  -4 2111.40 107.509  14
   2   9   5 60.5520 31.7422   4
  -2   9  -5 24.3649 28.3503   1
  -2   9  -5 98.7220 33.5658  14
   2   9   6 980.143 84.1329   8
   2   9   6 882.270 80.2516   4
  -2   9  -6 886.534 77.0936  14
   2   9   6 671.602 39.3904  13
  -2   9  -7 161.068 43.1685  14
   2   9   7 151.062 45.4310   8
   2   9   8 966.749 92.2561   8
  -2   9  -8 822.450 81.9857  14
  -2   9  -8 786.281 85.8299   1
   2   9   9 15.7443 42.7675   8
  -2   9  -9 30.5999 41.2538   1
  -2   9  -9 69.7400 38.8456  14
   2  10  -8 630.666 80.8855   1
   2  10  -8 755.504 83.8228  14
  -2  10   8 664.887 81.7663   8
   2  10  -7 110.979 42.3137   1
  -2  10   7 52.4411 25.9883  13
   2  10  -7 118.674 42.7183  14
  -2  10   7 30.2944 38.9441   8
   2  10  -6 850.216 86.1311   1
  -2  10   6 799.940 83.6107   8
  -2  10   6 884.047 63.3186  13
   2  10  -6 770.919 78.1310  14
   2  10  -5 187.442 45.2118   1
  -2  10   5 120.550 31.0439  13
  -2  10   5 127.063 45.8348   8
   2  10  -5 166.900 42.9644  14
  -2  10   4 735.218 75.9315   8
   2  10  -4 689.496 68.4594  14
   2  10  -4 606.494 67.3890   1
   2  10  -3 534.438 58.3423  14
  -2  10   3 462.545 63.6600   8
   2  10  -3 558.524 62.4579   1
  -2  10   2 513.943 43.3344   4
   2  10  -2 640.114 60.5405  14
  -2  10   2 588.896 69.6806   8
   2  10  -2 645.993 63.1482   1
  -2  10   2 653.912 59.2893   1
  -2  10   1 1032.18 59.5858   4
   2  10  -1 1117.43 77.5119   1
  -2  10   1 1006.17 46.9026  14
   2  10  -1 1057.91 73.4275  14
   2  10   0 442.314 47.4489  14
  -2  10   0 370.887 39.9423   4
   2  10   0 520.717 60.6088   4
   2  10   0 563.251 52.4289   1
  -2  10   0 514.662 57.9595   1
   2  10   1 1548.29 99.8069   4
  -2  10  -1 1528.31 76.4091   4
   2  10   1 1603.43 84.4474   1
  -2  10  -1 1839.28 106.183   1
  -2  10  -1 1777.04 82.8184  14
  -2  10  -2 371.502 43.8977  14
   2  10   2 280.911 50.3580   4
  -2  10  -2 349.019 38.9049   4
  -2  10  -2 458.020 57.9224   1
   2  10   2 348.447 36.9759   1
  -2  10  -3 1521.39 86.5700  14
   2  10   3 1361.67 93.2204   4
  -2  10  -3 1604.15 104.595   1
   2  10   4 69.5681 35.9310   4
  -2  10  -4 74.3620 37.5007   1
  -2  10  -4 84.6935 31.2342  14
   2  10   4 115.831 43.9179   8
   2  10   5 1217.89 93.9913   4
   2  10   5 1391.22 106.241   8
  -2  10  -5 1524.57 96.9737  14
  -2  10  -5 1529.06 110.394   1
  -2  10  -6 60.8370 33.5026  14
   2  10   6 34.3890 40.0365   8
  -2  10  -6 27.7280 33.3338   1
   2  10   7 884.509 87.5917   8
  -2  10  -7 860.596 92.4793   1
  -2  10  -7 914.997 84.7170  14
   2  10   8 26.5346 44.3605   8
  -2  10  -8 5.12057 37.8836  14
   2  11  -7 668.012 78.1733  14
   2  11  -7 623.528 79.3601   1
   2  11  -6 102.503 42.6061   1
   2  11  -6 52.8330 38.1222  14
  -2  11   6 85.9288 29.3115  13
  -2  11   6 15.7560 49.1090   8
  -2  11   5 643.580 59.9730  13
   2  11  -5 656.875 72.6707  14
  -2  11   5 643.318 78.4065   8
   2  11  -5 780.552 80.8054   1
   2  11  -4 627.680 67.8215  14
  -2  11   4 480.931 68.3536   8
   2  11  -4 535.718 66.4757   1
   2  11  -3 513.892 60.0820  14
  -2  11   3 571.787 73.6934   8
   2  11  -3 554.349 64.1735   1
  -2  11   2 703.799 78.5469   8
   2  11  -2 740.363 66.8048  14
   2  11  -2 820.193 73.5270   1
   2  11  -1 545.699 55.7258  14
   2  11  -1 615.573 59.7687   1
  -2  11   1 608.313 63.3522   1
   2  11  -1 423.835 64.4543   4
   2  11   0 1053.33 76.3900   1
  -2  11   0 1011.83 57.1099  14
   2  11   0 909.770 83.4607   4
  -2  11  -1 252.334 34.8360  14
  -2  11  -1 259.949 47.6920   1
   2  11   1 208.907 35.7019   1
   2  11   2 738.789 74.5293   4
   2  11   2 788.767 84.1038   8
   2  11   2 752.216 54.6958   1
  -2  11  -2 730.930 76.6166   1
  -2  11  -2 825.892 62.1407  14
  -2  11  -3 84.3035 37.8887   1
  -2  11  -3 95.7315 31.9918  14
   2  11   3 83.7065 33.2447   4
   2  11   3 49.8045 39.9045   8
   2  11   4 415.061 58.0830   4
  -2  11  -4 513.253 65.9530   1
  -2  11  -4 433.163 53.6031  14
   2  11   4 420.023 65.0136   8
   2  11   5-8.87587 33.1792   4
  -2  11  -5 12.1882 30.6889  14
   2  11   5-20.5853 44.0788   8
  -2  11  -5 44.8474 37.2909   1
  -2  11  -6 1009.48 98.8347   1
   2  11   6 894.213 91.3237   8
  -2  11  -6 955.872 84.8924  14
  -2  11  -7 33.9774 39.8987  14
   2  12  -6 350.096 65.4872  14
   2  12  -5 92.0437 44.5014  14
   2  12  -5 176.032 47.5660   1
  -2  12   5 92.5450 34.7135  13
   2  12  -4 398.349 60.1655   1
  -2  12   4 310.653 50.0437  13
  -2  12   4 361.872 68.4562   8
   2  12  -4 318.017 54.3662  14
   2  12  -3 211.357 46.7096   1
  -2  12   3 208.507 52.4717   8
   2  12  -3 196.570 44.6774  14
   2  12  -2 605.884 65.9022   1
   2  12  -2 558.825 68.0685   4
  -2  12   2 424.057 71.0060   8
   2  12  -2 554.833 60.4437  14
  -2  12   1 123.693 35.8678   1
   2  12  -1 150.074 38.8255   1
   2  12  -1 117.692 45.1976   4
  -2  12   1 131.280 55.2971   8
   2  12  -1 63.8064 34.6491  14
  -2  12   0 129.067 37.7836   1
   2  12   0 138.151 34.5684   1
   2  12   1 665.483 71.5119   4
   2  12   1 758.483 84.0572   8
  -2  12  -1 740.415 76.6470   1
   2  12   1 687.584 58.8514   1
  -2  12  -2 107.932 38.9567   1
  -2  12  -2 73.6578 31.6353  14
   2  12   2 81.5916 35.3503   4
   2  12   2 85.5618 50.6781   8
  -2  12  -3 620.730 60.3629  14
  -2  12  -3 552.798 71.6861   1
   2  12   3 609.546 79.5688   8
   2  12   3 569.199 65.8135   4
  -2  12  -4 18.2476 32.0158  14
  -2  12  -4 110.846 43.5561   1
   2  12   4 32.7165 44.4394   8
   2  12   4 57.4121 35.3627   4
  -2  12  -5 952.025 80.3329  14
  -2  12  -5 1051.66 98.1400   1
  -2  12  -6 31.5159 36.0388  14
   2  13  -4 156.980 48.0834   1
   2  13  -4 182.329 49.2346  14
   2  13  -3 391.534 59.5792   1
   2  13  -3 420.635 58.3650  14
   2  13  -2 323.132 53.5347   1
   2  13  -1 530.085 60.2062   1
  -2  13   1 415.407 57.4240   1
  -2  13   0 201.699 47.6346   1
  -2  13  -1 105.574 40.8527   1
  -2  13  -2 450.966 66.7725   1
  -2  13  -3 48.8912 38.0085   1
   3 -13  -2 807.046 78.2105  11
   3 -13  -1 77.5069 37.0094  11
   3 -13   0 662.215 74.5593  11
  -3 -13  -1-5.33210 34.0406  11
  -3 -13  -2 423.780 62.8925  11
   3 -13   3 104.466 46.8080   3
   3 -13   3 84.1063 41.6383   6
   3 -13   4 380.722 61.5013   3
  -3 -12   4 60.0083 44.8865   2
  -3 -12   3 607.113 76.5708  11
   3 -12  -3 570.234 62.2051  11
  -3 -12   3 606.570 78.7228   2
   3 -12  -2 119.735 37.3237  11
  -3 -12   2 102.917 39.1366  11
  -3 -12   2 176.785 52.2991   2
   3 -12  -1 576.599 65.3656  11
  -3 -12   1 529.903 70.4671  11
  -3 -12   0 36.5793 41.6166   2
   3 -12   0 33.8962 30.4807  11
  -3 -12   0 37.1245 33.8685  11
  -3 -12  -1 413.951 67.7093   2
   3 -12   1 249.237 52.0071  11
  -3 -12  -1 248.157 51.2064  11
   3 -12   1 367.779 55.3857   6
  -3 -12  -2 48.4760 40.8427   2
   3 -12   2 37.2198 34.4355  11
  -3 -12  -2 24.0183 31.5410  11
   3 -12   2 29.9601 35.7842   6
  -3 -12  -3 433.302 68.5037   2
  -3 -12  -3 337.789 53.4738  11
   3 -12   3 469.202 66.7839  11
   3 -12   3 436.910 62.0105   6
  -3 -12  -4 5.95536 39.6164   2
   3 -12   4 22.6793 38.8513   3
   3 -12   4 9.27381 37.7782   6
  -3 -12  -5 586.196 80.1120   2
   3 -12   5 604.840 73.6421   6
   3 -12   5 648.699 73.5933   3
   3 -12   6 80.4023 41.5068   3
  -3 -11   8 329.526 58.1721   2
  -3 -11   7 183.626 49.5501   2
  -3 -11   6 770.494 89.1971   6
  -3 -11   6 944.901 91.3180   2
  -3 -11   5 169.362 48.9587  11
  -3 -11   5 109.796 45.2716   2
  -3 -11   5 210.283 54.9820   6
   3 -11  -4 554.337 57.8009  11
  -3 -11   4 572.778 71.7974   2
   3 -11  -4 592.061 71.7361   2
  -3 -11   4 569.752 74.2653  11
  -3 -11   3 5.58792 33.0279   2
   3 -11  -3 5.08235 32.9068   2
   3 -11  -3 14.6828 24.4184  11
  -3 -11   3 5.53308 29.8544  11
  -3 -11   2 1060.35 94.2498  11
   3 -11  -2 1036.18 94.3900   2
   3 -11  -2 1207.09 86.5676  11
   3 -11  -1 10.6218 30.3260   2
   3 -11  -1 16.9799 26.7107  11
  -3 -11   1-5.16084 30.5035  11
  -3 -11   0 723.492 77.5740  11
   3 -11   0 785.531 74.5622  11
   3 -11   0 793.961 82.9666   2
  -3 -11   0 725.255 81.3714   2
  -3 -11  -1 66.3095 33.9421  11
   3 -11   1 85.0973 33.8795  11
  -3 -11  -1 78.5799 40.6632   2
   3 -11   1 45.5524 34.5547   6
  -3 -11  -2 485.590 61.6019  11
   3 -11   2 498.492 60.2296   6
  -3 -11  -2 508.963 69.8671   2
   3 -11   2 534.440 65.6446  11
  -3 -11  -3 89.0756 40.8734   2
  -3 -11  -3 165.076 41.2346  11
   3 -11   3 118.617 39.0901  11
   3 -11   3 175.980 44.1876   6
   3 -11   4 310.509 56.4289  11
  -3 -11  -4 369.096 51.6302  11
   3 -11   4 363.659 55.4602   6
  -3 -11  -4 430.826 65.0910   2
   3 -11   4 422.422 59.4135   3
   3 -11   5 66.4471 35.8679  11
   3 -11   5 59.8754 37.2087   6
  -3 -11  -5 49.1335 39.9701   2
   3 -11   5 13.6119 33.5841   3
   3 -11   6 376.763 62.3407  11
   3 -11   6 455.468 65.7971   6
   3 -11   6 453.945 65.1817   3
  -3 -11  -6 333.055 59.8864   2
   3 -11   7 40.5873 40.9822   6
  -3 -11  -7 57.5856 42.2870   2
   3 -11   7 33.7857 38.2871   3
   3 -11   8 427.090 64.6700   3
  -3 -10   9 242.613 49.5786   2
  -3 -10   8 236.238 54.8958  11
  -3 -10   8 302.684 52.5724   2
  -3 -10   8 210.621 60.1175   7
  -3 -10   7 636.363 78.7908  11
  -3 -10   7 741.581 85.1267   6
  -3 -10   7 687.180 74.9636   2
  -3 -10   6 354.998 57.8004   2
  -3 -10   6 273.387 60.9302   6
  -3 -10   5 1181.02 100.226  11
   3 -10  -5 986.853 69.2483  11
   3 -10  -5 1063.84 88.4253   2
   3 -10  -4 246.686 38.7232  11
  -3 -10   4 309.249 54.6582  10
  -3 -10   4 259.202 52.7116  11
  -3 -10   4 257.519 52.3753   2
   3 -10  -4 296.387 52.1392   2
  -3 -10   3 895.543 85.6755  11
  -3 -10   3 973.059 82.9603  10
   3 -10  -3 1001.58 71.7803  11
   3 -10  -3 794.729 77.7822   2
  -3 -10   3 692.494 36.8100   3
  -3 -10   3 864.617 83.3884   2
   3 -10  -2-3.63162 23.1845  11
  -3 -10   2 14.8145 26.6439  11
  -3 -10   2-4.34675 30.0344  10
  -3 -10   2-10.1169 15.0042   3
   3 -10  -2 37.8787 30.6562   2
  -3 -10   1 1097.10 84.3258  10
   3 -10  -1 1067.76 79.3967  11
   3 -10  -1 1107.29 91.1315   2
  -3 -10   1 903.663 44.8770   3
   3 -10   0 24.6922 26.6534  11
  -3 -10   0 10.2441 29.7723   2
   3 -10   0 59.1144 36.8353   2
   3 -10   1 837.828 74.7289  11
   3 -10   1 741.294 66.7508   6
  -3 -10  -1 794.941 80.1636   2
   3 -10   1 830.532 81.5955   2
   3 -10   2 154.929 40.7240  11
  -3 -10  -2 159.040 41.9674   2
   3 -10   2 160.832 41.9146   6
   3 -10   3 1315.06 97.6686  11
   3 -10   3 1214.01 72.6133   9
   3 -10   3 1303.58 90.7192   6
  -3 -10  -3 1300.05 101.721   2
   3 -10   4 187.674 42.6388   6
   3 -10   4 163.744 41.3157  11
  -3 -10  -4 148.990 35.2935  11
   3 -10   4 189.478 45.1518   3
  -3 -10  -4 142.578 43.0959   2
   3 -10   5 946.729 82.1252   6
   3 -10   5 978.011 88.2381  11
  -3 -10  -5 711.394 64.2719  11
   3 -10   5 782.101 48.4626   9
  -3 -10  -5 903.839 85.2655   2
   3 -10   5 1075.84 87.4658   3
   3 -10   6 146.842 45.4817   6
  -3 -10  -6 74.6293 38.8300   2
   3 -10   6 173.491 46.3126   3
   3 -10   7 757.264 81.4534  11
   3 -10   7 784.891 81.9723   6
  -3 -10  -7 690.819 74.9309   2
   3 -10   7 787.977 80.7179   3
   3 -10   8 112.108 52.4303   7
   3 -10   8 123.501 42.4609  11
   3 -10   8 35.8697 41.4378   6
  -3 -10  -8 56.4554 42.2280   2
   3 -10   8 148.302 45.0023   3
   3 -10   9 539.884 70.9212   3
  -3  -9  10 232.171 53.0513  11
  -3  -9   9 405.716 62.3157  11
  -3  -9   9 434.945 57.0337   2
  -3  -9   9 415.997 72.5554   7
  -3  -9   8 198.221 46.8601  11
  -3  -9   8 252.493 47.2229   2
  -3  -9   8 146.076 53.0330   7
  -3  -9   7 290.818 50.9822   2
  -3  -9   7 363.534 57.0461  11
  -3  -9   7 276.617 55.5498  10
  -3  -9   6 401.663 57.0410   2
  -3  -9   6 430.961 64.1133   6
  -3  -9   6 381.442 58.6590  11
  -3  -9   6 468.401 65.5364  10
  -3  -9   5 188.716 46.3604  10
   3  -9  -5 208.091 31.7141  11
  -3  -9   5 252.851 47.7270   2
   3  -9  -5 151.055 41.2262   2
   3  -9  -4 1042.16 68.5766  11
  -3  -9   4 1025.46 55.4857   9
   3  -9  -4 1069.63 84.0851   2
  -3  -9   4 1024.47 85.9978   2
  -3  -9   4 1025.58 86.9990  10
   3  -9  -3 223.522 36.1863   1
  -3  -9   3 311.065 50.3341   2
  -3  -9   3 211.094 44.8545  10
   3  -9  -3 231.622 36.7600  11
  -3  -9   3 205.091 30.1666   9
   3  -9  -3 198.991 42.4831   2
  -3  -9   3 171.320 20.4400   3
  -3  -9   2 1902.92 106.916  10
   3  -9  -2 1578.97 90.8751  11
   3  -9  -2 1717.90 106.814   2
  -3  -9   2 1591.20 57.5690   3
  -3  -9   2 1583.15 80.9288   9
   3  -9  -1 173.938 43.3436   2
  -3  -9   1 81.1307 16.8381   3
   3  -9  -1 175.066 36.9221  11
  -3  -9   1 149.786 36.6879  10
  -3  -9   0 2312.39 114.536  10
  -3  -9   0 2151.14 98.7745  14
   3  -9   0 2496.79 129.513   2
   3  -9   0 2306.35 116.657  11
  -3  -9  -1 23.6751 21.2911  14
  -3  -9  -1 12.5535 22.9736  10
   3  -9   1 35.4848 27.5768  11
   3  -9   1 22.5618 29.2191   2
  -3  -9  -1-4.64443 30.0742   2
  -3  -9  -2 2706.22 107.484  14
   3  -9   2 2723.78 137.433  11
   3  -9   2 2896.80 118.946   9
  -3  -9  -2 2911.48 122.912  10
   3  -9   2 2939.72 130.506   6
  -3  -9  -2 2923.48 147.989   2
   3  -9   3 173.390 38.8146   6
   3  -9   3 200.287 43.0305  11
   3  -9   3 164.370 31.0575   9
  -3  -9  -3 227.677 47.7700   2
   3  -9   4 1737.92 108.608  11
   3  -9   4 1692.78 76.9852   9
   3  -9   4 1728.83 100.574   6
  -3  -9  -4 1664.46 109.513   2
  -3  -9  -4 1387.26 77.1637   3
   3  -9   5 301.435 49.6334   6
   3  -9   5 274.744 49.6689  11
   3  -9   5 300.476 50.9149   3
   3  -9   5 223.791 27.3706   9
  -3  -9  -5 249.195 47.8915   2
   3  -9   6 934.447 79.2306   6
  -3  -9  -6 715.357 57.4398  11
  -3  -9  -6 817.552 78.4589   2
   3  -9   6 910.564 80.8674   3
   3  -9   7 357.828 58.3690   6
   3  -9   7 391.269 58.1502  11
  -3  -9  -7 314.057 52.1794   2
   3  -9   7 392.623 61.8517   3
   3  -9   8 596.834 79.6598   7
   3  -9   8 763.533 78.9399   6
   3  -9   8 622.000 72.9939  11
  -3  -9  -8 466.122 61.1706   2
   3  -9   8 641.150 73.8468   3
   3  -9   9 390.839 63.7273   6
   3  -9   9 382.169 68.6768   7
   3  -9   9 506.990 69.3363   3
   3  -9   9 468.791 66.3650  11
   3  -9  10 110.317 49.1635   3
  -3  -8  11 74.0450 35.7771  11
  -3  -8  10 254.040 62.5551   7
  -3  -8  10 204.228 57.1253   6
  -3  -8  10 279.953 53.7293  11
  -3  -8   9 392.310 63.7378   6
  -3  -8   9 359.546 57.8879  11
  -3  -8   9 293.084 46.3248   2
  -3  -8   9 407.496 66.6200   7
  -3  -8   8 818.698 79.3717  11
  -3  -8   8 801.873 71.0864   2
  -3  -8   8 625.677 79.0557   7
  -3  -8   7 681.732 74.2666  11
  -3  -8   7 736.559 68.5917   2
  -3  -8   6 625.201 68.3820  11
  -3  -8   6 562.973 68.8014  10
  -3  -8   6 583.462 62.4862   2
  -3  -8   5 1570.35 103.985  10
   3  -8  -5 1373.27 75.6866   1
   3  -8  -5 1567.50 74.3778  11
   3  -8  -5 1591.99 93.7039   2
  -3  -8   5 1684.09 101.633   2
  -3  -8   4 712.841 69.2924  10
   3  -8  -4 658.468 52.1825   1
   3  -8  -4 606.840 49.4740  11
   3  -8  -4 655.290 62.4186   2
  -3  -8   4 674.564 65.6464   2
   3  -8  -3 2616.47 112.801  11
   3  -8  -3 2471.46 110.550   1
  -3  -8   3 2761.27 133.178  10
  -3  -8   3 2675.10 100.382   9
  -3  -8   3 2651.52 132.577   2
  -3  -8   3 2705.60 83.3048   3
   3  -8  -3 2692.32 128.477   2
   3  -8  -2 316.551 40.9915  11
   3  -8  -2 383.001 42.7980   1
  -3  -8   2 370.508 48.5542  10
  -3  -8   2 356.069 37.5566   9
  -3  -8   2 329.229 23.4301   3
   3  -8  -2 425.321 52.2077   2
  -3  -8   1 3240.13 125.032  14
   3  -8  -1 3213.14 133.556  11
  -3  -8   1 3265.83 139.362  10
   3  -8  -1 3141.70 129.900   1
  -3  -8   1 3149.10 121.398   9
  -3  -8   1 2920.22 91.9121   3
   3  -8  -1 3266.79 145.214   2
  -3  -8   0 28.9510 21.9051  14
  -3  -8   0 28.9179 28.8991   2
  -3  -8   0 18.7293 23.8290  10
   3  -8   0 96.6133 30.7239  11
  -3  -8   0-2.47650 23.3080   9
   3  -8   0 43.3567 28.5407   2
  -3  -8  -1 3546.57 138.339  10
  -3  -8  -1 3202.52 121.652  14
  -3  -8  -1 3412.23 155.089   2
   3  -8   1 3494.50 155.088   2
   3  -8   1 3459.02 147.447  11
  -3  -8  -2 369.441 35.3119  14
  -3  -8  -2 360.977 41.1040  10
   3  -8   2 404.103 50.8039  11
   3  -8   2 435.516 46.8418   6
  -3  -8  -2 412.544 54.2017   2
  -3  -8  -3 2010.66 83.1972  14
   3  -8   3 2044.15 112.555  11
  -3  -8  -3 1983.78 89.4684  10
  -3  -8  -3 2084.87 116.307   2
   3  -8   3 2238.76 107.410   6
   3  -8   4 359.534 48.9183   6
   3  -8   4 367.718 50.3674  11
  -3  -8  -4 316.093 31.5472  14
  -3  -8  -4 391.236 40.5383   3
  -3  -8  -4 388.927 53.1163   2
   3  -8   5 1832.93 72.3224   9
   3  -8   5 1885.86 105.338   6
   3  -8   5 1860.33 72.0990   9
  -3  -8  -5 1682.87 88.5707   3
  -3  -8  -5 2041.03 113.343   2
   3  -8   5 1935.95 110.391   3
  -3  -8  -6 414.696 54.3869   2
   3  -8   6 572.115 61.5205   6
   3  -8   6 400.909 24.9094   9
   3  -8   6 363.293 24.5622   9
   3  -8   6 618.124 67.5437   3
   3  -8   7 727.645 73.3229  11
   3  -8   7 681.840 69.3735   6
  -3  -8  -7 629.412 65.6093   2
   3  -8   7 664.269 72.3509   3
   3  -8   8 510.931 63.5874  11
   3  -8   8 516.469 66.0256   6
   3  -8   8 658.671 76.9099   7
  -3  -8  -8 502.100 60.5756   2
   3  -8   8 634.236 73.0734   3
   3  -8   9 208.874 57.5920   7
   3  -8   9 295.888 52.5833  11
   3  -8   9 384.173 61.2916   6
  -3  -8  -9 248.876 45.3958   2
   3  -8   9 319.203 57.3641   3
   3  -8  10 367.123 58.0606  11
   3  -8  10 371.862 64.6548   6
   3  -8  10 365.400 63.0497   3
   3  -8  10 317.363 65.2398   7
   3  -8  11 136.339 50.6987   3
   3  -8  11 101.335 40.6414  11
  -3  -7  12 219.840 46.5419  11
  -3  -7  11 364.254 68.7862   7
  -3  -7  11 235.145 48.0918  11
  -3  -7  11 353.171 63.8188   6
  -3  -7  10 354.627 63.8936   7
  -3  -7  10 288.299 50.6426  11
  -3  -7  10 285.290 57.8163   6
  -3  -7   9 707.041 77.0725  10
  -3  -7   9 732.433 73.1082  11
  -3  -7   9 584.133 71.6893   6
  -3  -7   9 721.974 80.9194   7
  -3  -7   9 653.671 60.7738   2
  -3  -7   8 215.299 44.3123  11
  -3  -7   8 303.922 52.9783  10
  -3  -7   8 291.954 53.2086   6
  -3  -7   8 241.307 53.9908   7
  -3  -7   8 316.926 44.3474   2
  -3  -7   7 254.203 51.6471   7
  -3  -7   7 266.977 47.1141  11
  -3  -7   7 242.779 39.4509   2
   3  -7  -7 224.779 36.1237   4
   3  -7  -6 793.832 54.0569   6
   3  -7  -6 822.160 56.1236   4
  -3  -7   6 1073.14 84.1173  10
  -3  -7   6 977.919 71.8527   2
   3  -7  -6 707.213 53.5554   1
   3  -7  -5 292.390 31.0170  11
   3  -7  -5 284.331 34.1100   1
  -3  -7   5 322.640 45.0748   2
  -3  -7   5 391.559 52.7906  10
   3  -7  -5 285.380 33.1879   6
   3  -7  -5 380.922 44.7770   2
   3  -7  -4 1561.35 75.2480  11
  -3  -7   4 1712.85 96.2289   2
   3  -7  -4 1581.74 89.3458   2
  -3  -7   4 1682.23 99.0033  10
  -3  -7   4 1626.50 65.5242   9
   3  -7  -4 1667.26 79.8826   1
   3  -7  -3 431.160 40.2219  11
  -3  -7   3 449.979 46.5884  14
  -3  -7   3 484.768 52.7655  10
  -3  -7   3 565.240 55.9153   2
   3  -7  -3 451.901 49.3899   2
  -3  -7   3 441.351 26.5158   3
   3  -7  -3 417.857 41.1072   1
   3  -7  -2 2388.69 103.341   1
   3  -7  -2 2312.90 103.201  11
  -3  -7   2 2473.50 115.751  10
  -3  -7   2 2510.89 106.326  14
  -3  -7   2 2391.26 93.5615   9
   3  -7  -2 2383.14 114.617   2
  -3  -7   2 2357.32 71.3408   3
   3  -7  -1 204.066 33.5425   1
  -3  -7   1 143.027 29.0216  14
  -3  -7   1 183.869 33.8536  10
   3  -7  -1 217.040 35.0275  11
  -3  -7   1 152.337 27.2808   9
   3  -7  -1 172.018 35.2992   2
  -3  -7   1 132.801 15.4486   3
   3  -7   0 4374.46 162.948   1
  -3  -7   0 4539.49 152.117  14
   3  -7   0 4472.74 166.326  11
  -3  -7   0 4528.31 164.916  10
  -3  -7   0 4501.01 155.739   9
   3  -7   0 4528.67 175.571   2
  -3  -7   0 4494.70 178.700   2
  -3  -7  -1 62.4409 27.7688   2
   3  -7   1 40.9705 24.4887   1
  -3  -7  -1 39.7881 20.9822  14
  -3  -7  -1 43.3799 25.0239  12
  -3  -7  -1 70.1030 28.8262   5
  -3  -7  -1 67.4545 23.9898  10
   3  -7   1 37.6933 21.9973  11
  -3  -7  -1 44.1450 24.1384   9
   3  -7   1 42.5251 26.2420   2
  -3  -7  -2 4967.00 192.597   2
   3  -7   2 5204.13 185.702   1
  -3  -7  -2 5129.55 159.676  14
  -3  -7  -2 4770.13 175.263  12
   3  -7   2 4972.23 186.810  11
  -3  -7  -2 5005.91 176.381   5
  -3  -7  -2 5075.32 168.476  10
  -3  -7  -2 4802.89 174.278   9
   3  -7   2 5228.63 176.438   6
  -3  -7  -3 291.613 39.3767  12
   3  -7   3 297.622 39.7125   6
  -3  -7  -3 276.791 39.2861   5
  -3  -7  -3 265.874 31.6735  10
   3  -7   3 282.083 40.9723  11
  -3  -7  -3 242.286 29.1723  14
  -3  -7  -3 297.001 44.1887   2
  -3  -7  -4 637.614 43.4774  14
   3  -7   4 745.872 63.0516  11
  -3  -7  -4 707.833 56.3214  12
  -3  -7  -4 665.169 55.4637   5
  -3  -7  -4 636.933 42.5202  10
   3  -7   4 800.882 61.4718   6
  -3  -7  -4 689.556 49.0417   3
  -3  -7  -4 779.465 65.9777   2
  -3  -7  -5 501.063 54.9562   2
  -3  -7  -5 445.513 43.8739   3
  -3  -7  -5 451.260 35.8587  14
  -3  -7  -5 547.217 49.0935  12
  -3  -7  -5 509.620 49.1158   5
   3  -7   5 480.540 34.0871   9
   3  -7   5 464.732 52.8340   6
  -3  -7  -6 2238.34 114.477   2
   3  -7   6 2268.24 119.371   3
  -3  -7  -6 2004.83 81.4312  14
   3  -7   6 2395.34 121.838  11
  -3  -7  -6 2090.43 97.7729  12
   3  -7   6 2066.69 67.0463   9
   3  -7   6 2366.32 117.332   6
   3  -7   6 1960.56 65.6533   9
  -3  -7  -6 2052.52 97.3586   5
   3  -7   7 304.750 55.7831   7
   3  -7   7 315.397 48.2810   6
   3  -7   7 403.733 52.9098  11
  -3  -7  -7 339.890 47.3585   2
   3  -7   7 329.325 52.4334   3
   3  -7   8 492.465 59.4209  11
   3  -7   8 506.736 62.8669   6
   3  -7   8 493.827 65.3541   7
  -3  -7  -8 509.904 55.7514   2
   3  -7   8 609.249 67.6502   3
   3  -7   9 284.707 58.2239   7
   3  -7   9 361.936 57.2103   6
   3  -7   9 275.942 47.3635  11
  -3  -7  -9 288.839 43.4087   2
   3  -7   9 301.875 55.5668   3
   3  -7  10 592.942 68.4056  11
   3  -7  10 426.929 70.5651   7
   3  -7  10 592.238 72.2503   6
   3  -7  10 663.634 79.0736   3
   3  -7  11 402.898 66.1355   6
   3  -7  11 434.941 71.2068   7
   3  -7  11 471.540 70.6067   3
   3  -7  11 345.875 56.3180  11
   3  -7  12 73.9807 38.0403  11
  -3  -6  12 416.449 65.2547   6
  -3  -6  12 308.166 48.7543  11
  -3  -6  11 20.8094 40.8813   7
  -3  -6  11 36.0706 37.3142   6
  -3  -6  11 57.0440 31.7216  11
  -3  -6  10 380.244 63.5707   7
  -3  -6  10 457.495 63.4691   6
  -3  -6  10 365.833 58.3324  10
  -3  -6  10 350.486 51.9358  11
  -3  -6   9 494.767 67.1303   7
  -3  -6   9 547.156 66.1374   6
  -3  -6   9 459.123 46.5865   2
  -3  -6   9 499.373 58.1249  11
  -3  -6   9 511.374 65.1302  10
  -3  -6   8 485.044 61.7096   6
  -3  -6   8 560.633 66.0136  10
  -3  -6   8 455.036 56.7169  11
  -3  -6   8 460.307 62.5979   7
  -3  -6   8 510.541 49.2110   2
  -3  -6   7 1198.81 85.9180   6
  -3  -6   7 1155.06 85.1015   7
   3  -6  -7 908.760 57.2484   6
   3  -6  -7 968.328 65.2914   4
   3  -6  -7 800.505 57.1780   1
  -3  -6   7 1087.30 70.5105   2
   3  -6  -7 977.148 67.7610  12
   3  -6  -6 331.611 33.8342   6
   3  -6  -6 262.001 32.7661   1
   3  -6  -6 292.439 37.0902   4
   3  -6  -5 1783.28 76.5981   6
   3  -6  -5 1967.41 75.1843  11
  -3  -6   5 1967.49 94.5158   5
  -3  -6   5 1958.99 97.3671   2
   3  -6  -5 1698.44 82.2393   1
   3  -6  -4 494.152 42.8138   1
  -3  -6   4 477.185 49.2354  14
  -3  -6   4 489.007 48.7561  12
   3  -6  -4 531.622 39.2043  11
   3  -6  -4 501.721 36.8256   4
  -3  -6   4 505.009 48.4346   5
  -3  -6   4 521.493 53.6177  10
  -3  -6   4 542.681 33.7729   9
  -3  -6   4 605.300 52.6075   2
   3  -6  -4 560.995 48.6097   2
   3  -6  -3 2710.86 110.081   1
  -3  -6   3 3154.24 121.619  14
   3  -6  -3 2905.93 110.014  11
  -3  -6   3 2953.71 119.635   5
  -3  -6   3 3053.50 129.715  10
  -3  -6   3 2901.02 99.9521   9
  -3  -6   3 2999.28 127.547   2
   3  -6  -3 2789.35 120.208   2
  -3  -6   2 471.396 43.6714  14
   3  -6  -2 452.251 38.7961  11
  -3  -6   2 572.161 50.7200  10
   3  -6  -2 455.494 44.3602   2
  -3  -6   2 483.980 21.0354   3
   3  -6  -2 389.531 38.4518   1
   3  -6  -1 2183.44 94.9570   1
  -3  -6   1 2286.53 93.0467  14
   3  -6  -1 2099.50 94.6325  11
  -3  -6   1 2173.07 98.4140  12
  -3  -6   1 2375.63 100.174   5
  -3  -6   1 2114.78 98.8124  10
  -3  -6   1 2201.58 88.0345   9
   3  -6  -1 2210.63 103.854   2
  -3  -6   1 2061.40 60.7166   3
   3  -6   0 263.321 36.0579   1
  -3  -6   0 142.756 30.6995   2
  -3  -6   0 144.921 25.2799  14
   3  -6   0 215.726 33.5053  11
  -3  -6   0 141.585 28.2981  12
  -3  -6   0 161.741 30.2062   5
  -3  -6   0 164.610 29.1403  10
  -3  -6   0 167.760 27.8037   9
   3  -6   0 194.480 36.0396   2
  -3  -6  -1 4351.98 166.320   2
   3  -6   1 4280.23 156.443   1
  -3  -6  -1 4346.28 141.360  14
  -3  -6  -1 4265.11 153.505  12
   3  -6   1 4257.14 158.060  11
  -3  -6  -1 4449.28 153.744   5
  -3  -6  -1 4241.40 148.241  10
  -3  -6  -1 4249.90 148.863   9
   3  -6   1 4213.10 145.103   6
  -3  -6  -2 164.477 24.9416  14
   3  -6   2 178.211 33.1205  12
  -3  -6  -2 168.080 29.8829  12
   3  -6   2 174.562 29.2762   6
  -3  -6  -2 177.801 31.2990   5
  -3  -6  -2 179.294 26.8835  10
   3  -6   2 146.909 30.5295  11
  -3  -6  -2 173.683 30.8601   9
  -3  -6  -2 189.797 34.6148   2
   3  -6   2 197.195 33.2821   1
   3  -6   3 4169.48 154.629   1
  -3  -6  -3 3828.66 127.362  14
   3  -6   3 3730.18 151.800  11
   3  -6   3 4025.00 146.854  12
  -3  -6  -3 3710.54 139.056  12
  -3  -6  -3 3885.57 140.441   5
  -3  -6  -3 3810.42 128.103  10
  -3  -6  -3 3689.69 152.866   2
   3  -6   3 4117.73 146.008   6
  -3  -6  -4 317.495 42.7000   2
  -3  -6  -4 285.909 30.4022  14
  -3  -6  -4 355.466 38.6614  12
   3  -6   4 363.504 44.5467  11
   3  -6   4 378.372 40.6964  12
  -3  -6  -4 329.640 38.7153   5
  -3  -6  -4 331.010 28.7980  10
   3  -6   4 371.714 42.3514   6
  -3  -6  -4 337.254 35.2669   3
  -3  -6  -5 3237.84 123.271   3
  -3  -6  -5 3312.19 139.417   2
   3  -6   5 3635.66 147.293   3
  -3  -6  -5 3168.73 110.767  14
  -3  -6  -5 3371.18 123.350  12
   3  -6   5 3300.98 129.196  12
  -3  -6  -5 3228.07 122.810   5
  -3  -6  -5 3004.43 97.7362  10
   3  -6   5 3301.03 103.374   9
   3  -6   5 3311.14 136.980   6
  -3  -6  -6 284.581 41.0991   2
  -3  -6  -6 315.154 32.4610  14
   3  -6   6 373.578 42.1107  12
  -3  -6  -6 323.073 36.1797  12
  -3  -6  -6 342.777 38.1082   5
   3  -6   6 294.538 44.6829   6
   3  -6   6 359.017 46.5489  11
   3  -6   6 285.501 22.4450   9
  -3  -6  -6 343.668 41.2014   3
   3  -6   6 325.087 48.3381   3
  -3  -6  -7 1395.95 70.8045   5
   3  -6   7 1403.68 90.0720  11
   3  -6   7 1380.22 76.1571  12
  -3  -6  -7 1236.86 68.1164  12
   3  -6   7 1515.48 96.4215   7
   3  -6   7 1405.26 91.1431   6
  -3  -6  -7 1184.12 80.3317   2
   3  -6   7 1553.58 97.8153   3
   3  -6   8 843.076 71.6495  11
   3  -6   8 746.099 55.5769  12
  -3  -6  -8 715.378 62.4326   2
   3  -6   8 805.568 76.1731   3
   3  -6   8 719.509 70.8540   6
   3  -6   8 740.667 74.2549   7
   3  -6   9 460.177 64.1689   7
   3  -6   9 539.690 60.5031  11
   3  -6   9 467.356 43.6503  12
   3  -6   9 458.362 60.7975   6
   3  -6   9 478.661 65.2322   3
  -3  -6  -9 409.017 48.8080   2
   3  -6  10 185.965 40.2892  11
   3  -6  10 205.869 49.2708   6
   3  -6  10 182.800 50.2275   7
   3  -6  10 207.225 51.0835   3
   3  -6  11 221.010 44.2070  11
   3  -6  11 152.939 51.7181   7
   3  -6  11 142.336 47.4549   6
   3  -6  11 209.418 53.6000   3
   3  -6  12 405.481 56.2889  11
  -3  -5  12 72.8187 29.7435  11
  -3  -5  12 77.1380 44.0756   6
  -3  -5  12 42.7726 46.5429   7
  -3  -5  11 284.407 43.3976  11
  -3  -5  11 277.021 53.3625   6
  -3  -5  11 244.301 55.7705   7
  -3  -5  10 387.144 50.5228  11
  -3  -5  10 514.414 62.0205  10
  -3  -5  10 428.014 61.7064   6
  -3  -5  10 496.049 67.2204   7
  -3  -5   9 414.084 51.7295  11
  -3  -5   9 533.127 62.4178  10
  -3  -5   9 465.633 44.0810   5
  -3  -5   9 452.923 60.1017   7
  -3  -5   9 510.615 62.4467   6
  -3  -5   8 172.172 42.4926   7
  -3  -5   8 226.310 43.8681  10
  -3  -5   8 174.724 35.5859  11
  -3  -5   8 218.244 42.8699   6
  -3  -5   8 214.333 32.7199   5
   3  -5  -8 216.712 32.3800   6
  -3  -5   8 208.385 31.0950   2
   3  -5  -8 170.172 30.8520   1
  -3  -5   7 364.032 49.9286  10
   3  -5  -7 350.189 34.9934   6
  -3  -5   7 355.097 49.3155   7
  -3  -5   7 303.961 36.7699   2
   3  -5  -7 257.339 34.3243   1
  -3  -5   7 406.380 51.8392   6
   3  -5  -7 328.322 40.1488   4
  -3  -5   7 417.926 41.8369   5
   3  -5  -6 601.938 41.0237   6
  -3  -5   6 553.076 56.3171   6
  -3  -5   6 613.252 57.8194   7
   3  -5  -6 553.724 45.8079   4
  -3  -5   6 563.699 47.3076   5
  -3  -5   6 598.593 48.6883   2
   3  -5  -6 473.213 42.6484   1
   3  -5  -5 553.736 44.0846   1
  -3  -5   5 656.797 54.6948  14
  -3  -5   5 632.771 51.2936  12
  -3  -5   5 610.776 48.7793   5
  -3  -5   5 573.752 47.3689   2
   3  -5  -5 558.370 37.9268   6
   3  -5  -4 1903.57 86.3788   1
  -3  -5   4 2309.06 100.075  14
   3  -5  -4 2221.78 81.4536  11
  -3  -5   4 2101.90 95.7181  12
   3  -5  -4 2120.39 80.1648   4
  -3  -5   4 2090.93 92.8704   5
  -3  -5   4 2396.75 108.818  10
   3  -5  -4 2114.13 77.3117   6
  -3  -5   4 2220.36 99.1244   2
  -3  -5   3 188.981 30.2101  14
   3  -5  -3 230.793 25.1344  11
   3  -5  -3 213.369 22.1679   4
  -3  -5   3 252.560 32.9256   5
  -3  -5   3 237.558 34.1343  10
  -3  -5   3 215.217 23.7409   9
   3  -5  -3 221.291 27.8977   1
  -3  -5   3 238.642 32.9438   2
   3  -5  -2 4643.54 155.713   1
  -3  -5   2 4827.21 157.942  14
   3  -5  -2 4362.73 150.421  11
  -3  -5   2 4914.75 167.557  10
  -3  -5   2 4653.61 144.179   9
   3  -5  -2 4908.94 164.199   2
  -3  -5   1 466.212 41.1891  12
   3  -5  -1 521.268 40.2259  11
  -3  -5   1 459.389 40.6514   5
  -3  -5   1 478.601 41.1438  10
   3  -5  -1 443.600 39.1466   1
  -3  -5   1 410.381 37.0679  14
  -3  -5   0 3261.15 115.921  14
  -3  -5   0 3276.36 122.892  12
   3  -5   0 3237.37 123.240  11
  -3  -5   0 3455.11 123.670   5
  -3  -5   0 3404.43 123.043  10
  -3  -5   0 3495.37 134.052   2
   3  -5   0 3270.86 123.538   1
  -3  -5  -1 225.087 18.4036   3
  -3  -5  -1 262.258 34.4815   2
   3  -5   1 235.574 30.9522   1
  -3  -5  -1 238.562 27.0628  14
  -3  -5  -1 230.089 30.8024  12
   3  -5   1 234.171 30.2892  11
  -3  -5  -1 235.838 30.6621   5
  -3  -5  -1 237.952 27.3592  10
  -3  -5  -1 259.371 30.8332   9
   3  -5   1 282.200 28.6346   6
   3  -5   2 8707.15 254.224   1
  -3  -5  -2 8193.50 231.941  14
   3  -5   2 7907.15 249.960  11
  -3  -5  -2 8245.66 241.365  12
  -3  -5  -2 8303.54 242.065   5
  -3  -5  -2 7996.24 232.535  10
  -3  -5  -2 8212.09 256.781   2
  -3  -5  -2 7830.82 220.041   3
   3  -5   2 8269.05 239.000   6
   3  -5   3 349.491 39.2871   1
  -3  -5  -3 390.459 32.7357  14
  -3  -5  -3 339.282 34.2944  12
   3  -5   3 372.441 39.1404  11
   3  -5   3 362.103 37.9188  12
  -3  -5  -3 289.979 33.0726   5
  -3  -5  -3 337.181 28.5086  10
   3  -5   3 349.216 35.9447   6
  -3  -5  -3 331.639 39.7806   2
  -3  -5  -3 287.701 28.2836   3
  -3  -5  -4 3069.79 128.310   2
   3  -5   4 3439.62 134.010   1
  -3  -5  -4 2986.86 106.897  14
  -3  -5  -4 2990.22 112.796  12
   3  -5   4 3279.09 121.959  12
  -3  -5  -4 3103.63 114.355   5
  -3  -5  -4 3010.27 99.6199  10
  -3  -5  -4 3099.86 124.257   9
   3  -5   4 3142.87 103.021   9
   3  -5   4 3311.55 125.535   6
   3  -5   5 319.099 36.2250  12
  -3  -5  -5 292.563 32.0130  12
   3  -5   5 230.532 35.6974   6
  -3  -5  -5 305.325 33.2096   5
  -3  -5  -5 274.112 21.4453  10
   3  -5   5 316.136 25.4283   9
  -3  -5  -5 287.443 39.3854   9
  -3  -5  -5 334.645 36.9376   3
  -3  -5  -5 309.086 38.4521   2
  -3  -5  -5 274.975 39.9739   4
   3  -5   5 368.030 44.8795   3
   3  -5   6 1824.47 95.7235   6
   3  -5   6 1623.89 93.6441   7
  -3  -5  -6 1714.76 75.0750  12
   3  -5   6 1852.42 82.9843  12
   3  -5   6 1897.30 97.5578  11
  -3  -5  -6 1612.49 74.5853   5
   3  -5   6 1746.00 60.3360   9
  -3  -5  -6 1578.77 84.6046   3
   3  -5   6 1848.28 100.797   3
  -3  -5  -6 1699.21 89.7079   2
  -3  -5  -7 242.154 36.9875   2
   3  -5   7 243.511 44.4251   7
   3  -5   7 216.823 30.8328  12
  -3  -5  -7 216.298 29.6429   5
   3  -5   7 159.741 37.2116   6
   3  -5   7 232.758 38.4694  11
   3  -5   7 152.364 14.5703   9
   3  -5   7 266.492 45.7676   3
  -3  -5  -8 1349.37 64.0355   5
   3  -5   8 1422.21 71.6510  12
   3  -5   8 1647.41 94.1797  11
   3  -5   8 1652.76 104.954   3
  -3  -5  -8 1315.66 79.6397   2
   3  -5   8 1574.11 97.9642   6
   3  -5   8 1584.08 99.2788   7
   3  -5   9 446.428 62.3600   7
   3  -5   9 423.525 37.1621  12
   3  -5   9 453.107 53.2442  11
  -3  -5  -9 396.984 44.4767   2
   3  -5   9 450.982 61.0685   3
   3  -5   9 423.034 58.5165   6
  -3  -5 -10 260.263 36.0902   2
  -3  -5 -10 276.491 39.4458  14
   3  -5  10 376.157 58.4822   3
   3  -5  10 343.197 59.6191   7
   3  -5  10 377.497 58.5218   6
   3  -5  10 326.369 47.7977  11
   3  -5  11 398.501 66.9669   3
   3  -5  11 390.365 52.0185  11
   3  -5  11 377.832 61.5055   6
   3  -5  11 318.451 63.2988   7
   3  -5  12 357.710 51.1451  11
   3  -5  12 465.957 71.7328   7
   3  -5  12 377.691 64.0214   6
  -3  -4  13 15.4414 38.8816   6
  -3  -4  12 637.356 77.0325   7
  -3  -4  12 672.215 75.3858   6
  -3  -4  12 565.090 54.4455  11
  -3  -4  11 68.7170 35.7223   6
  -3  -4  11 120.240 45.3041   7
  -3  -4  11 111.548 30.9126  11
  -3  -4  11 87.2561 38.3779  10
  -3  -4  10 319.869 43.2961  11
  -3  -4  10 484.725 60.3372  10
   3  -4 -10 350.119 35.9346  14
  -3  -4  10 460.254 59.4535   6
  -3  -4  10 507.232 64.1869   7
  -3  -4   9 604.378 63.7040  10
  -3  -4   9 487.090 51.4561  11
   3  -4  -9 482.529 37.6979  14
  -3  -4   9 524.018 63.2683   7
  -3  -4   9 479.139 59.1760   6
   3  -4  -9 505.822 46.6272   6
  -3  -4   9 536.185 42.7950   5
   3  -4  -9 469.672 34.2317   5
  -3  -4   8 737.281 51.2245   5
   3  -4  -8 801.776 42.3942  14
  -3  -4   8 831.465 69.0281  10
  -3  -4   8 782.746 62.6079  11
  -3  -4   8 685.205 46.6901   2
   3  -4  -8 711.454 51.8104   6
  -3  -4   8 865.901 70.5867   6
  -3  -4   8 847.479 71.1303   7
  -3  -4   7 1770.12 79.6630   5
   3  -4  -7 1796.07 87.5441   4
   3  -4  -7 1689.79 62.3927  14
  -3  -4   7 1908.88 99.8720  10
  -3  -4   7 1784.08 76.9588   2
   3  -4  -7 1574.42 73.7619   6
  -3  -4   7 1772.57 96.0117   7
  -3  -4   7 1756.82 96.1313   6
  -3  -4   6 617.716 54.2290  10
  -3  -4   6 563.218 41.8821   2
   3  -4  -6 526.945 37.6728   6
  -3  -4   6 543.028 51.8186   6
   3  -4  -6 390.960 44.7519   8
   3  -4  -6 560.696 50.4062   7
  -3  -4   6 615.567 54.2339   7
   3  -4  -6 440.583 41.6128   4
  -3  -4   6 493.299 42.8419   5
   3  -4  -5 3934.48 142.627   1
  -3  -4   5 4406.59 144.940   5
  -3  -4   5 4445.67 156.463  14
  -3  -4   5 4448.62 146.450   2
   3  -4  -5 4171.20 147.650   7
  -3  -4   5 4254.67 158.387   6
   3  -4  -5 4228.11 129.873   6
   3  -4  -4 938.671 54.3065   1
  -3  -4   4 932.663 59.3463  14
   3  -4  -4 851.379 46.0802   4
  -3  -4   4 920.579 53.6450   5
  -3  -4   4 975.185 63.3963  10
   3  -4  -4 961.776 42.1291   6
  -3  -4   4 942.890 55.6017   2
   3  -4  -3 2510.26 96.5254   1
  -3  -4   3 2535.93 100.952  14
   3  -4  -3 2496.03 88.3299  11
  -3  -4   3 2527.56 106.019  10
  -3  -4   3 2578.85 101.652   2
  -3  -4   3 2407.56 82.9902   9
   3  -4  -3 2384.87 80.7795   4
  -3  -4   3 2443.37 96.3510   5
   3  -4  -2 50.9202 17.4953   1
  -3  -4   2 74.5385 19.5555   2
  -3  -4   2 94.3791 21.9800  14
  -3  -4   2 55.4558 19.7856  10
   3  -4  -2 60.6918 15.4509  11
  -3  -4   2 47.1551 16.3472   9
   3  -4  -2 47.5387 10.8220   4
   3  -4  -1 5310.03 166.786  11
  -3  -4   1 5473.57 168.138  14
  -3  -4   1 5507.99 173.249  10
  -3  -4   1 5430.68 161.313   9
   3  -4  -1 5191.82 169.148   1
  -3  -4   0 711.300 44.4558  14
   3  -4   0 812.679 48.4855  11
  -3  -4   0 809.911 48.1906  10
  -3  -4   0 770.717 51.4417   2
   3  -4   0 809.782 49.8389   1
   3  -4   1 1902.02 82.0682   1
  -3  -4  -1 1734.79 72.7844  14
  -3  -4  -1 1809.94 77.0112  12
   3  -4   1 1899.27 81.2727  11
  -3  -4  -1 1815.58 77.3226   5
  -3  -4  -1 1819.16 74.4063  10
  -3  -4  -1 1715.61 82.6051   2
  -3  -4  -1 1750.95 57.0004   3
   3  -4   1 1874.09 70.8320   6
  -3  -4  -2 163.284 22.9561  14
  -3  -4  -2 134.442 23.0715  12
  -3  -4  -2 176.512 25.7207   5
   3  -4   2 173.396 22.7246   6
   3  -4   2 155.131 23.4636  11
  -3  -4  -2 138.698 21.5221  10
  -3  -4  -2 128.334 16.7487   3
  -3  -4  -2 165.823 26.5634   2
  -3  -4  -3 5779.03 190.257   2
  -3  -4  -3 5678.09 169.042   3
   3  -4   3 6089.63 191.746   1
  -3  -4  -3 5494.04 170.958  14
  -3  -4  -3 5803.00 174.939  12
   3  -4   3 5824.79 188.633  11
  -3  -4  -3 5869.31 176.340   5
  -3  -4  -3 5686.87 165.750  10
   3  -4   3 5764.04 168.428   9
  -3  -4  -3 5740.94 183.337   9
   3  -4   3 5847.96 180.233   6
  -3  -4  -4 108.696 20.8935  12
   3  -4   4 173.047 26.8414   6
  -3  -4  -4 131.589 23.3346   5
  -3  -4  -4 115.835 16.9529  10
  -3  -4  -4 151.411 27.6326   9
   3  -4   4 130.939 18.9104   9
  -3  -4  -4 141.413 25.5894   2
  -3  -4  -5 2568.31 104.119   7
   3  -4   5 2519.79 108.259   6
  -3  -4  -5 2623.16 107.694   6
   3  -4   5 2637.48 111.263  11
  -3  -4  -5 2545.13 93.0119   5
  -3  -4  -5 2353.19 76.2169  10
  -3  -4  -5 2421.12 105.866   9
   3  -4   5 2517.96 84.1789   9
  -3  -4  -5 2662.17 109.333   2
  -3  -4  -5 2445.65 100.397   3
   3  -4   6 291.738 40.6683   1
  -3  -4  -6 303.821 36.7496   2
  -3  -4  -6 280.700 38.1738   7
  -3  -4  -6 282.337 39.7923   8
   3  -4   6 389.100 44.3632   7
  -3  -4  -6 316.312 39.2822   6
   3  -4   6 322.566 38.1844  11
   3  -4   6 307.163 40.2840   6
  -3  -4  -6 253.912 28.0772   5
  -3  -4  -6 190.214 14.6772  10
  -3  -4  -6 303.231 39.3178   9
   3  -4   6 294.335 23.6129   9
  -3  -4  -6 296.625 37.9456   3
   3  -4   7 2329.27 106.392  11
  -3  -4  -7 2218.01 79.1289   5
   3  -4   7 2132.84 69.1800   9
  -3  -4  -7 2151.76 97.6278   2
  -3  -4  -7 2045.31 101.488   3
   3  -4   7 2234.51 110.350   6
   3  -4   7 2445.44 113.846   7
   3  -4   8 500.839 60.0245   3
  -3  -4  -8 389.919 41.4320   2
   3  -4   8 525.824 56.6766   6
   3  -4   8 493.302 57.0822   7
   3  -4   8 468.795 49.1467  11
  -3  -4  -9 1412.29 78.6881   2
   3  -4   9 1733.83 108.243   3
   3  -4   9 1624.09 102.399   7
   3  -4   9 1481.08 98.6738   6
   3  -4   9 1556.03 90.5118  11
  -3  -4 -10 330.048 38.5309   2
  -3  -4 -10 375.704 46.5070  14
   3  -4  10 438.131 50.4616  11
   3  -4  10 417.038 62.1697   3
   3  -4  10 447.520 61.9752   7
   3  -4  10 404.920 58.4169   6
  -3  -4 -11 78.7242 29.0880  14
   3  -4  11 81.6675 29.6584  11
   3  -4  11 43.8978 38.3595   7
   3  -4  11 79.2778 36.6994   6
   3  -4  11 84.1684 41.7529   3
   3  -4  12 556.764 74.9903   7
   3  -4  12 511.903 69.9775   6
   3  -4  12 533.114 55.7245  11
  -3  -3  13 473.423 71.8586   7
  -3  -3  13 522.125 69.1049   6
  -3  -3  12 254.308 35.3406  11
  -3  -3  12 300.763 54.4628   6
  -3  -3  11 971.189 66.8557  11
  -3  -3  11 1186.85 86.3150  10
  -3  -3  11 1122.25 89.3046   6
  -3  -3  11 1214.47 97.8060   7
   3  -3 -11 1285.79 72.7350  14
  -3  -3  10 443.176 46.2925  11
  -3  -3  10 644.830 63.4281  10
   3  -3 -10 521.313 45.1570  14
  -3  -3  10 580.819 63.0410   6
  -3  -3  10 539.392 63.9323   7
  -3  -3   9 922.170 73.3557  10
  -3  -3   9 983.967 64.3069  11
   3  -3  -9 1018.91 57.3270  14
   3  -3  -9 825.900 40.4090   5
  -3  -3   9 985.760 74.4063   6
   3  -3  -9 879.312 61.8854   6
  -3  -3   9 1078.71 80.2886   7
  -3  -3   8 1071.14 73.5080  10
   3  -3  -8 962.914 53.7411  14
  -3  -3   8 1048.37 72.0408   6
   3  -3  -8 808.371 56.7814   6
  -3  -3   8 1062.15 74.8539   7
   3  -3  -8 1008.10 47.7985   5
  -3  -3   7 1305.29 56.3351   2
  -3  -3   7 1353.63 79.0480  10
   3  -3  -7 1251.70 57.4800  14
   3  -3  -7 1208.89 73.8102   8
  -3  -3   7 1360.20 78.9293   6
   3  -3  -7 1221.54 62.3164   6
   3  -3  -7 1165.78 73.9766   7
  -3  -3   7 1349.50 79.4650   7
  -3  -3   6 4402.51 136.974   2
  -3  -3   6 4564.15 163.319  10
   3  -3  -6 4215.96 151.500   8
   3  -3  -6 4312.56 136.128   6
   3  -3  -6 4303.04 152.179   7
  -3  -3   6 4584.12 161.548   7
  -3  -3   6 4399.35 159.259   6
   3  -3  -6 4241.14 131.271  14
  -3  -3   5 731.884 42.5960   2
   3  -3  -5 562.624 45.8579   8
   3  -3  -5 736.722 38.7082   6
  -3  -3   5 732.985 51.8234   6
   3  -3  -5 619.369 46.4459   7
  -3  -3   5 703.507 50.5375   7
   3  -3  -5 679.234 34.4767  14
  -3  -3   4 1136.68 62.3936  14
  -3  -3   4 1113.67 55.3429   2
   3  -3  -4 1098.10 44.2979   6
   3  -3  -4 1056.77 55.8906   7
   3  -3  -3 254.106 28.6812   1
  -3  -3   3 264.055 30.1548  14
  -3  -3   3 262.838 31.1555  10
   3  -3  -3 258.659 17.7068   6
  -3  -3   3 280.038 27.6880   2
   3  -3  -2 9803.45 276.101   1
  -3  -3   2 9955.14 276.315  14
   3  -3  -2 9686.97 266.594  11
   3  -3  -2 9703.04 250.629   4
  -3  -3   2 10114.0 280.788  10
  -3  -3   2 9763.90 262.722   9
  -3  -3   2 10284.1 278.404   2
   3  -3  -1 948.139 48.4884  11
   3  -3  -1 951.366 51.8205   1
  -3  -3   1 937.364 52.2566  10
  -3  -3   1 974.424 47.0852   9
  -3  -3   1 1058.97 52.9157  14
   3  -3   0 6433.52 193.358   1
  -3  -3   0 6536.68 188.756  14
   3  -3   0 6456.73 190.894  11
  -3  -3   0 6614.84 189.924  10
  -3  -3   0 6377.89 197.072   2
   3  -3   0 6364.00 171.880   6
  -3  -3  -1 859.513 46.4850  14
   3  -3   1 773.067 46.7844  11
  -3  -3  -1 862.211 46.1866  12
  -3  -3  -1 879.175 47.9189   5
  -3  -3  -1 835.225 44.5718  10
   3  -3   1 855.589 40.0976   6
  -3  -3  -1 879.614 51.8315   2
  -3  -3  -1 804.287 32.6824   3
  -3  -3  -2 4572.04 139.127  12
   3  -3   2 4620.18 148.972  11
  -3  -3  -2 4329.61 133.971  10
  -3  -3  -2 4422.21 139.800   5
   3  -3   2 4602.56 137.432   6
  -3  -3  -2 4343.63 129.310   3
  -3  -3  -2 4521.43 151.559   2
   3  -3   3 1448.92 64.0574   6
  -3  -3  -3 1256.52 52.3790  10
   3  -3   3 1350.28 56.2677   9
  -3  -3  -3 1366.96 68.8859   2
  -3  -3  -3 1307.65 57.6727   3
  -3  -3  -3 1316.44 58.8682   5
   3  -3   4 2565.48 99.9233   6
  -3  -3  -4 2416.54 88.1539   5
  -3  -3  -4 2643.66 104.388   4
  -3  -3  -4 2593.22 96.3436   8
  -3  -3  -4 2400.53 98.6727   9
   3  -3   4 2477.07 85.2865   9
  -3  -3  -4 2477.52 101.162   2
   3  -3   4 2549.15 107.969   3
   3  -3   5 1148.74 66.4026   1
   3  -3   5 1071.83 52.4648  12
   3  -3   5 1081.23 62.2970  11
   3  -3   5 955.271 60.5078   6
  -3  -3  -5 1043.22 61.3681   6
  -3  -3  -5 1039.77 59.0375   7
   3  -3   5 1021.69 61.8520   7
  -3  -3  -5 993.327 48.9413   5
  -3  -3  -5 1028.61 63.5673   4
  -3  -3  -5 1043.12 61.1611   9
   3  -3   5 1003.27 46.9908   9
  -3  -3  -5 1019.35 58.8338   8
  -3  -3  -5 1086.23 62.0713   2
  -3  -3  -5 1041.31 59.4735   3
   3  -3   6 2050.12 97.6568   1
   3  -3   6 2040.98 96.6734   6
  -3  -3  -6 2046.49 91.6937   7
  -3  -3  -6 1951.32 91.5091   6
   3  -3   6 2105.29 97.0188   7
   3  -3   6 1958.35 75.7613  12
   3  -3   6 1814.96 89.1220  11
  -3  -3  -6 1798.49 70.0665  11
  -3  -3  -6 2110.89 97.8248   4
  -3  -3  -6 1907.98 71.6704   5
  -3  -3  -6 2034.51 90.7567   8
  -3  -3  -6 1829.41 88.6102   9
   3  -3   6 1985.27 72.2336   9
  -3  -3  -6 1841.73 86.2932   2
  -3  -3  -6 1992.10 91.9417   3
   3  -3   7 329.502 42.7269   1
   3  -3   7 320.899 37.7800  11
  -3  -3  -7 251.540 23.5527  11
   3  -3   7 273.018 26.6587  12
  -3  -3  -7 279.130 39.7654   8
  -3  -3  -7 300.255 39.8650   7
   3  -3   7 297.208 42.6901   7
   3  -3   7 357.810 45.0908   6
   3  -3   7 256.422 24.7355   9
  -3  -3  -7 168.057 16.3078  10
  -3  -3  -7 363.106 41.1946   9
  -3  -3  -7 261.905 39.3234   3
  -3  -3  -7 323.778 35.8842   2
   3  -3   8 888.326 43.4395   9
   3  -3   8 954.117 62.9380  11
   3  -3   8 913.983 42.9189  12
  -3  -3  -8 930.256 58.0221   2
   3  -3   8 1029.34 74.8491   6
   3  -3   8 873.931 69.3822   7
   3  -3   9 963.404 76.5496   7
   3  -3   9 929.400 76.2330   6
   3  -3   9 842.589 35.3587  12
   3  -3   9 997.612 64.6230  11
  -3  -3  -9 502.890 30.7549  11
  -3  -3  -9 735.470 52.1237   2
  -3  -3  -9 637.848 32.2215   1
   3  -3  10 984.783 69.6559  11
  -3  -3 -10 957.232 70.8295  14
   3  -3  10 830.867 39.0070   5
   3  -3  10 974.170 82.6206   7
   3  -3  10 1030.64 85.3763   6
  -3  -3 -11 685.114 63.8240  14
   3  -3  11 783.808 79.0724   7
   3  -3  11 683.992 76.8182   6
   3  -3  11 682.006 59.8001  11
   3  -3  12 76.4696 45.3947   7
   3  -3  12 88.6879 42.5350   6
  -3  -3 -12 55.2173 32.0691  14
   3  -3  13 654.398 81.5534   7
  -3  -2  13 237.830 58.0815   7
  -3  -2  13 178.607 46.7349   6
   3  -2 -12 429.494 50.6827  14
   3  -2 -12 304.075 49.1189   1
  -3  -2  12 412.296 64.9984   7
  -3  -2  12 303.690 53.3617   6
  -3  -2  11 238.814 30.1856  11
  -3  -2  11 269.435 43.9718  10
   3  -2 -11 287.766 41.6609  14
  -3  -2  11 202.912 48.8209   7
  -3  -2  11 357.663 51.9041   6
   3  -2 -10 338.147 30.2495  12
  -3  -2  10 353.360 37.2596  11
  -3  -2  10 473.606 53.3119  10
   3  -2 -10 429.395 45.5968  14
  -3  -2  10 426.800 53.1774   6
  -3  -2  10 434.740 57.4236   7
  -3  -2   9 598.140 55.6729  10
  -3  -2   9 494.710 42.4530  11
   3  -2  -9 515.533 52.7091   9
   3  -2  -9 567.790 48.1678  14
   3  -2  -9 627.445 46.1175  13
   3  -2  -9 375.028 24.1633   5
  -3  -2   9 481.971 53.8051   6
   3  -2  -9 508.751 48.2095   6
  -3  -2   9 580.013 59.5591   7
  -3  -2   8 2408.96 106.637  10
   3  -2  -8 2216.68 90.3972  13
   3  -2  -8 2274.23 93.0952  14
  -3  -2   8 2072.87 103.429   6
  -3  -2   8 2402.62 112.751   7
   3  -2  -8 2010.69 91.7903   6
   3  -2  -8 2117.34 73.7840   5
  -3  -2   7 1649.91 59.0833   2
   3  -2  -7 1795.30 68.2913   5
   3  -2  -7 1975.60 80.0693  14
   3  -2  -7 1910.05 79.2896  13
  -3  -2   7 2034.76 94.4909  14
  -3  -2   7 1833.60 90.1917  10
   3  -2  -7 1860.81 90.0206   8
   3  -2  -7 1878.40 90.5941   7
  -3  -2   7 1935.41 94.1710   7
  -3  -2   7 1879.95 91.5717   6
   3  -2  -7 1836.59 79.0232   6
  -3  -2   6 1601.30 60.0166   2
  -3  -2   6 1573.32 67.2833   5
   3  -2  -6 1674.81 72.3077  13
  -3  -2   6 1655.90 82.5171  14
   3  -2  -6 1609.51 69.3450  14
  -3  -2   6 1798.69 84.7618  10
   3  -2  -6 1617.40 78.9098   8
  -3  -2   6 1698.84 83.1357   7
  -3  -2   6 1842.37 83.9903   6
   3  -2  -6 1703.74 69.3531   6
   3  -2  -6 1732.37 80.5982   7
  -3  -2   5 4313.15 128.830   2
  -3  -2   5 4325.48 134.577   5
   3  -2  -5 4150.95 136.703  13
   3  -2  -5 4213.34 131.842  14
  -3  -2   5 4507.86 150.924  10
   3  -2  -5 4232.81 141.818   8
  -3  -2   5 4408.07 147.101   6
   3  -2  -5 4225.74 128.698   6
   3  -2  -5 4384.12 143.048   7
  -3  -2   5 4261.30 146.199   7
   3  -2  -4 913.337 43.4612  14
   3  -2  -4 1018.63 50.8810  13
  -3  -2   4 994.368 49.9086   5
   3  -2  -4 912.018 39.3445   6
  -3  -2   4 935.649 52.3260   6
   3  -2  -4 1003.48 51.1856   7
  -3  -2   4 963.105 53.2621   7
  -3  -2   4 926.257 44.9294   2
  -3  -2   3 6068.42 173.413   2
  -3  -2   3 6010.86 181.089  14
   3  -2  -3 5945.22 174.706  13
   3  -2  -3 5654.04 154.751   6
   3  -2  -3 6161.73 171.676   7
  -3  -2   3 6035.59 174.401   7
   3  -2  -3 5954.70 171.576   8
  -3  -2   3 6051.05 174.993   5
  -3  -2   2 3024.93 105.697  14
  -3  -2   2 3217.94 108.841  10
  -3  -2   2 2873.68 96.5105   9
  -3  -2   2 3179.27 103.954   2
  -3  -2   1 9155.12 251.387  10
   3  -2  -1 8850.43 253.068   1
  -3  -2   1 9211.07 250.493  14
   3  -2   0 464.615 31.1203  11
  -3  -2   0 464.995 31.3981  10
  -3  -2   0 442.148 31.6195  14
   3  -2   0 399.719 18.8595   6
  -3  -2  -1 5335.17 157.941   5
   3  -2   1 5362.71 147.712   6
   3  -2   1 5502.49 162.993  11
   3  -2   2 197.976 23.9348  11
   3  -2   2 186.123 20.4541   6
   3  -2   2 181.544 21.6083   9
  -3  -2  -2 193.269 20.3718   3
  -3  -2  -2 201.670 23.7050   5
   3  -2   3 2434.41 86.5115   6
  -3  -2  -3 2254.69 81.4629   7
   3  -2   3 2174.09 83.6247   7
  -3  -2  -3 2194.57 79.1991   5
   3  -2   3 2233.82 79.6425   9
  -3  -2  -3 2208.07 81.1799   8
  -3  -2  -3 2281.39 82.7177   3
   3  -2   3 2334.10 93.9943   3
   3  -2   4 730.586 45.5258  11
   3  -2   4 652.092 43.5958   6
   3  -2   4 676.292 44.1843   7
  -3  -2  -4 682.322 36.5769   5
   3  -2   4 704.998 38.4656   9
  -3  -2  -4 672.704 42.2420   8
  -3  -2  -4 656.713 43.9236   9
   3  -2   4 705.372 49.7823   3
   3  -2   5 5184.10 169.627   1
  -3  -2  -5 5299.69 141.455   1
  -3  -2  -5 4915.34 149.279  11
   3  -2   5 5195.21 165.905  11
   3  -2   5 4923.54 169.232   6
  -3  -2  -5 4911.44 161.065   7
   3  -2   5 5102.54 167.612   7
  -3  -2  -5 5052.86 166.334   6
  -3  -2  -5 5140.84 171.225   4
   3  -2   5 5133.95 151.518   9
  -3  -2  -5 4876.53 160.307   8
  -3  -2  -5 4809.62 162.661   9
  -3  -2  -5 5128.15 166.126   3
   3  -2   5 5095.84 177.354   3
   3  -2   6 399.993 41.2136   1
  -3  -2  -6 477.086 28.0349   1
   3  -2   6 483.754 44.3874   7
  -3  -2  -6 422.910 41.5645   7
  -3  -2  -6 470.129 42.8287   6
   3  -2   6 419.772 43.4685   6
   3  -2   6 460.546 29.3550  12
  -3  -2  -6 424.694 30.1568  11
   3  -2   6 461.228 38.6974  11
  -3  -2  -6 443.445 44.2271   4
  -3  -2  -6 405.782 40.3128   8
   3  -2   6 465.833 32.7484   9
  -3  -2  -6 429.475 40.5262   9
  -3  -2  -6 432.484 42.3209   3
   3  -2   6 382.933 43.6379   3
   3  -2   7 438.170 46.0701   1
  -3  -2  -7 421.484 29.8684   1
   3  -2   7 483.584 41.5141  11
   3  -2   7 488.052 27.9101  12
  -3  -2  -7 399.089 30.0697  11
   3  -2   7 501.756 48.6614   7
  -3  -2  -7 495.777 47.6321   7
   3  -2   7 504.909 49.8504   6
  -3  -2  -7 419.035 44.7155   6
   3  -2   7 464.001 35.1621   9
  -3  -2  -7 408.658 27.8364  10
  -3  -2  -7 435.952 45.2317   8
  -3  -2  -7 421.035 42.6913   9
  -3  -2  -7 435.577 47.8995   4
   3  -2   7 526.047 52.9083   3
  -3  -2  -7 488.867 48.7872   3
  -3  -2  -8 713.290 40.4469   1
   3  -2   8 776.394 63.1046   7
   3  -2   8 736.547 62.8762   6
   3  -2   8 698.835 28.8407  12
  -3  -2  -8 545.361 36.1682  11
   3  -2   8 853.011 55.3232  11
  -3  -2  -8 680.990 35.1393  10
   3  -2   8 753.926 45.4535   9
  -3  -2  -8 747.914 56.3220   9
   3  -2   8 820.488 68.5113   3
  -3  -2  -8 664.129 48.4885   2
   3  -2   9 1276.20 86.4301   7
   3  -2   9 1089.15 80.3387   6
   3  -2   9 1227.95 69.2796  11
  -3  -2  -9 1031.69 43.7010  10
  -3  -2  -9 876.311 45.4648  11
  -3  -2  -9 1017.66 60.4327   2
   3  -2   9 1071.82 41.0147   5
  -3  -2  -9 1150.06 55.3400   1
  -3  -2 -10 370.694 35.5030   1
  -3  -2 -10 363.710 36.5033   2
   3  -2  10 453.948 58.7210   7
   3  -2  10 497.844 60.8179   6
  -3  -2 -10 503.250 55.6572  14
   3  -2  11 357.050 58.7575   7
   3  -2  11 363.092 57.6480   6
  -3  -2 -11 284.151 46.3075  14
   3  -2  12 547.728 72.9057   7
   3  -2  12 698.034 77.2793   6
  -3  -2 -12 571.661 64.1323  14
   3  -2  13 96.4209 48.0871   7
  -3  -2 -13 117.920 38.6506  14
  -3  -1  14 181.921 49.4725   6
   3  -1 -13 729.068 69.6029  14
  -3  -1  13 635.025 79.4477   7
  -3  -1  13 621.879 70.3389   6
   3  -1 -13 513.095 63.4871   1
   3  -1 -12 234.910 43.0648  14
   3  -1 -12 151.484 41.3234   1
  -3  -1  12 183.990 48.6614   7
  -3  -1  12 184.312 44.2868   6
   3  -1 -11 909.575 69.6111  14
  -3  -1  11 828.161 64.6758  10
  -3  -1  11 580.616 39.4803  11
   3  -1 -11 622.019 66.5064   1
  -3  -1  11 901.750 74.7427   6
  -3  -1  11 897.210 81.4938   7
   3  -1 -10 330.560 28.6707  12
   3  -1 -10 516.591 44.6872  13
   3  -1 -10 466.637 49.6867  14
  -3  -1  10 416.157 57.3473   7
  -3  -1  10 433.697 51.8506   6
   3  -1 -10 406.592 45.6546   9
  -3  -1  10 287.458 29.8563  11
  -3  -1  10 421.540 47.2725  10
   3  -1  -9 823.978 46.9193  12
  -3  -1   9 1115.20 68.8322  10
  -3  -1   9 962.622 51.7696  11
   3  -1  -9 922.395 64.4136   9
   3  -1  -9 905.706 57.9941  13
   3  -1  -9 930.800 63.4401  14
   3  -1  -9 823.708 62.1720   6
  -3  -1   9 1071.07 77.0449   7
  -3  -1   9 1157.95 73.9232   6
  -3  -1   8 1494.94 77.8303  10
   3  -1  -8 1386.07 70.1135  13
  -3  -1   8 1325.95 79.2892  14
   3  -1  -8 1517.75 76.3915  14
  -3  -1   8 1497.21 80.9447   6
   3  -1  -8 1374.88 74.2351   6
  -3  -1   8 1511.46 85.8542   7
   3  -1  -8 1384.87 53.2894   5
   3  -1  -7 770.623 39.2758   5
  -3  -1   7 881.692 59.0859  14
   3  -1  -7 741.245 48.6211  13
   3  -1  -7 794.104 51.1204  14
  -3  -1   7 874.056 55.7408  10
   3  -1  -7 747.069 56.5202   8
  -3  -1   7 769.607 53.7851   6
   3  -1  -7 762.977 50.4995   6
  -3  -1   7 784.819 57.9350   7
   3  -1  -7 731.270 57.3290   7
   3  -1  -6 1364.95 55.9657   5
  -3  -1   6 1413.18 70.4574  14
   3  -1  -6 1380.89 64.9835  14
   3  -1  -6 1395.85 64.4998  13
  -3  -1   6 1501.69 71.1914  10
   3  -1  -6 1475.43 70.9011   8
  -3  -1   6 1457.47 70.3477   6
   3  -1  -6 1369.60 62.2299   6
   3  -1  -6 1460.50 71.4124   7
  -3  -1   6 1465.89 73.0736   7
   3  -1  -5 2825.54 93.0812   5
  -3  -1   5 2878.62 106.335  14
   3  -1  -5 2791.21 99.8687  13
   3  -1  -5 2788.14 98.9977  14
  -3  -1   5 2779.10 105.336  10
   3  -1  -5 2612.81 92.8655   6
  -3  -1   5 2868.76 103.132   6
  -3  -1   5 2690.48 104.639   7
   3  -1  -5 2719.44 101.852   7
  -3  -1   5 2765.50 83.4264   2
  -3  -1   4 3211.33 99.2096   2
   3  -1  -4 3274.54 108.234  14
   3  -1  -4 3229.25 110.682  13
  -3  -1   4 3433.07 116.684  10
   3  -1  -4 3426.25 110.651   8
  -3  -1   4 3306.78 110.790   6
   3  -1  -4 3421.68 110.834   7
   3  -1  -4 3177.73 100.638   6
  -3  -1   4 3299.75 112.579   7
  -3  -1   4 3409.37 107.957   5
   3  -1  -3 438.112 30.0390  14
   3  -1  -3 406.808 31.5801  13
  -3  -1   3 423.628 29.8591   5
   3  -1  -3 400.131 28.4017   8
   3  -1  -3 395.185 29.2380   7
  -3  -1   3 390.491 29.8845   6
  -3  -1   3 436.667 30.4360   7
   3  -1  -2 12455.0 330.673  13
   3  -1  -2 12649.4 319.515   8
  -3  -1   2 12948.9 321.396   7
   3  -1  -2 12229.0 319.307   7
  -3  -1   2 12570.9 333.996  10
  -3  -1   1 3592.77 113.738  14
  -3  -1   0 7440.51 209.204   9
  -3  -1   0 7758.50 209.396  13
  -3  -1   0 7794.47 211.404  14
  -3  -1  -1 377.117 24.4126  13
   3  -1   1 412.229 22.3647   6
   3  -1   1 414.655 22.2282   4
  -3  -1  -1 370.812 26.1282   5
  -3  -1  -2 9400.65 244.519  13
  -3  -1  -2 9344.63 258.429   4
  -3  -1  -2 9492.38 251.096   5
  -3  -1  -2 9492.39 243.746   8
  -3  -1  -2 9547.90 243.794   7
   3  -1   2 9462.49 250.957   6
   3  -1   2 9027.75 244.832   7
   3  -1   3 1669.53 75.3953   3
  -3  -1  -3 1682.44 69.4817   3
  -3  -1  -3 1727.83 57.7830  13
   3  -1   3 1832.58 72.0038   1
  -3  -1  -3 1833.85 63.6312   1
  -3  -1  -3 1617.63 72.2808   4
   3  -1   3 1807.24 68.2275   9
  -3  -1  -3 1716.26 70.5123   9
  -3  -1  -3 1786.38 65.4493   8
  -3  -1  -3 1804.50 66.0576   7
   3  -1   3 1823.04 71.5617   6
   3  -1   3 1648.24 66.4030   7
   3  -1   4 1808.10 82.7656   3
  -3  -1  -4 1794.79 58.1985  13
  -3  -1  -4 1786.96 69.1595  11
   3  -1   4 1899.98 75.8583  11
   3  -1   4 1771.70 75.0941   1
  -3  -1  -4 1933.09 67.0497   1
  -3  -1  -4 1848.84 79.6510   4
  -3  -1  -4 1800.27 74.5738   9
   3  -1   4 1843.00 71.7429   9
  -3  -1  -4 1881.45 72.6406   8
   3  -1   4 1774.69 74.7721   7
   3  -1   4 1802.66 77.8560   6
  -3  -1  -4 1893.94 73.0102   7
   3  -1   5 1084.92 65.5400   3
  -3  -1  -5 1106.76 60.7877   3
  -3  -1  -5 1091.56 39.7290  13
  -3  -1  -5 1066.16 49.8044  11
   3  -1   5 1153.33 56.7685  11
  -3  -1  -5 1185.93 50.2357   1
  -3  -1  -5 1092.52 61.7784   4
  -3  -1  -5 1158.13 57.4416   8
  -3  -1  -5 1038.71 55.5963   9
   3  -1   5 1123.10 53.9518   9
  -3  -1  -5 1103.49 59.9477   6
   3  -1   5 1112.58 59.7011   7
   3  -1   5 1088.90 61.7117   6
   3  -1   6 2501.38 113.205   3
  -3  -1  -6 2557.63 89.3431   1
  -3  -1  -6 2404.22 72.7920  13
   3  -1   6 2532.39 96.4969  11
  -3  -1  -6 2305.32 85.2624  11
  -3  -1  -6 2693.96 107.878   4
  -3  -1  -6 2478.31 97.0182   9
  -3  -1  -6 2504.01 99.5430   8
   3  -1   6 2459.05 92.7241   9
  -3  -1  -6 2504.06 102.806   6
   3  -1   6 2484.94 104.128   7
  -3  -1  -6 2432.60 100.037   7
   3  -1   6 2317.59 105.103   6
   3  -1   7 382.234 46.4700   3
   3  -1   7 377.481 40.7092   1
  -3  -1  -7 449.009 33.5788   1
  -3  -1  -7 382.952 20.9937  13
  -3  -1  -7 365.203 30.2705  11
   3  -1   7 391.968 35.3415  11
   3  -1   7 290.280 16.1869  12
  -3  -1  -7 414.852 44.5830   4
   3  -1   7 410.240 26.1936   5
   3  -1   7 408.092 35.0452   9
  -3  -1  -7 330.172 29.9923  10
  -3  -1  -7 352.882 37.0006   9
  -3  -1  -7 369.832 39.2900   8
  -3  -1  -7 374.842 41.8156   6
   3  -1   7 440.053 44.4107   7
   3  -1   7 433.026 45.6416   6
  -3  -1  -7 423.183 42.4854   7
   3  -1   8 1426.87 88.8449   3
  -3  -1  -8 1254.39 42.5489  13
   3  -1   8 1218.59 44.1322   5
  -3  -1  -8 1267.17 57.1555  10
  -3  -1  -8 1186.85 56.6249  11
   3  -1   8 1321.65 65.8923   9
   3  -1   8 1373.96 82.6289   7
   3  -1   8 1236.52 79.8699   6
  -3  -1  -8 1256.16 68.7358   9
  -3  -1  -8 1289.31 63.3062   1
  -3  -1  -9 1173.24 61.2869   1
  -3  -1  -9 855.676 31.9995  13
  -3  -1  -9 948.259 32.5296  13
  -3  -1  -9 1147.47 76.0846  14
  -3  -1  -9 1080.60 52.1591  10
  -3  -1  -9 936.132 50.3128  11
  -3  -1  -9 1059.42 65.0657   9
   3  -1   9 1123.09 80.9998   7
   3  -1   9 1074.90 79.6014   6
  -3  -1 -10 611.496 49.8469   1
  -3  -1 -10 533.883 43.5042   2
   3  -1  10 625.294 68.4258   7
   3  -1  10 799.482 73.7377   6
  -3  -1 -10 794.935 67.3342  14
  -3  -1 -11 336.400 50.6699  14
   3  -1  11 314.015 56.0301   7
   3  -1  11 270.503 51.7724   6
  -3  -1 -11 253.848 35.7923   1
   3  -1  12 442.204 66.8316   7
  -3  -1 -12 433.335 60.2043  14
   3  -1  13 367.024 65.9079   7
  -3  -1 -13 299.335 53.7324  14
  -3  -1 -14 56.8654 38.2910  14
   3   0 -13 259.979 50.5490  14
  -3   0  13 273.971 53.0356   6
   3   0 -13 241.600 50.8512   1
   3   0 -12 808.031 74.0616  14
   3   0 -12 761.414 78.4032   1
  -3   0  12 871.725 75.8515   6
   3   0 -11 39.2553 29.0742  14
  -3   0  11-7.25237 21.6696  10
   3   0 -11 13.6246 27.7232   1
  -3   0  11 18.3346 27.1279   6
  -3   0  11-30.8457 46.1024   7
   3   0 -10 376.480 31.2812  12
   3   0 -10 548.513 48.8242  13
   3   0 -10 525.489 54.8923  14
  -3   0  10 583.169 64.4146   7
  -3   0  10 564.820 56.5593   6
  -3   0  10 527.387 47.5400  10
   3   0 -10 529.660 46.8598   9
   3   0  -9 2222.50 83.4509  12
  -3   0   9 2410.56 99.7297  10
   3   0  -9 2466.17 100.229   9
   3   0  -9 2644.75 104.859  13
   3   0  -9 2425.17 110.996  14
  -3   0   9 2505.95 111.314   6
  -3   0   9 2585.33 121.215   7
  -3   0   8 526.898 48.5789  14
   3   0  -8 605.372 51.4576  14
   3   0  -8 602.495 47.6662  13
   3   0  -8 547.483 39.0385  12
   3   0  -8 528.515 32.3021   5
  -3   0   8 577.644 45.9624  10
  -3   0   8 715.588 57.7436   7
  -3   0   8 591.735 49.8771   6
   3   0  -8 525.026 47.0897   6
   3   0  -8 564.420 53.6532   3
   3   0  -7 903.128 62.2412   3
   3   0  -7 1076.37 63.0584  14
  -3   0   7 1076.63 62.1604  14
   3   0  -7 1001.57 59.0201  13
   3   0  -7 975.423 51.9677  12
   3   0  -7 982.185 45.6215   5
  -3   0   7 1051.80 58.0190  10
   3   0  -7 997.844 64.1926   8
  -3   0   7 1085.50 66.5102   7
   3   0  -7 934.049 57.6429   6
   3   0  -7 1098.40 67.9641   7
  -3   0   7 1044.35 60.7705   6
  -3   0   6 34.9479 19.5673  14
   3   0  -6 45.8912 20.0317  14
   3   0  -6 38.8406 18.8550  13
  -3   0   6 46.1433 18.1727  10
  -3   0   6 56.6249 20.3270   7
   3   0  -6 41.6691 21.2333   7
   3   0  -6 31.9730 20.8191   8
  -3   0   6 53.5751 17.9695   6
   3   0  -6 37.3310 14.5626   5
   3   0  -6 31.3724 18.2619   6
   3   0  -5 5621.41 154.463   5
  -3   0   5 5619.23 165.199  14
   3   0  -5 5494.38 166.444  14
   3   0  -5 5508.53 164.574  13
  -3   0   5 5591.96 164.594  10
  -3   0   5 5544.71 159.946   6
  -3   0   5 5336.63 166.961   7
   3   0  -5 5560.20 165.706   7
  -3   0   4 3606.51 116.698  14
   3   0  -4 3505.36 117.596  13
   3   0  -4 3549.12 118.220  14
  -3   0   4 3584.95 117.004  10
   3   0  -4 3450.26 113.554   8
  -3   0   4 3353.01 108.935   6
  -3   0   4 3592.87 116.651   7
   3   0  -4 3444.89 114.714   7
   3   0  -4 3427.81 110.999   5
  -3   0   3 1791.09 68.7039  14
   3   0  -3 1657.60 68.6020  14
   3   0  -3 1702.23 69.5756  13
   3   0  -3 1812.26 64.4758   8
  -3   0   3 1669.16 60.7403   6
  -3   0   3 1798.49 65.3311   7
   3   0  -3 1724.00 64.5061   7
   3   0  -3 1686.44 67.0920   5
   3   0  -2 1205.36 52.7219  14
  -3   0   2 1215.44 54.7103  13
   3   0  -2 1203.18 53.1874   5
   3   0  -2 1222.52 44.1312   8
  -3   0   2 1257.81 44.6180   7
   3   0  -2 1247.64 45.0794   7
   3   0  -1 26.0119 12.0412   9
   3   0  -1 11.6064 5.42213   8
   3   0  -1 27.9624 11.5277   5
  -3   0   1 3.62571 9.76508  13
   3   0   0 1670.45 63.8734   9
  -3   0   0 1692.19 62.4492  13
   3   0   0 1697.49 63.7823   5
  -3   0  -1 4348.30 125.585  13
  -3   0  -1 4413.24 110.591   8
   3   0   1 4273.46 130.143   9
  -3   0  -1 4228.35 120.893   6
   3   0   1 4205.28 111.111   7
   3   0   2 7.85566 10.2804   1
  -3   0  -2 22.7629 11.6395   1
   3   0   2 9.32309 9.57752   7
  -3   0  -2 1.42144 10.2082   7
  -3   0  -2 8.36283 9.93114  13
  -3   0  -2 21.8648 11.8013  11
  -3   0  -2 23.8556 9.46462   8
  -3   0  -2 19.9800 13.4854   9
   3   0   2 14.6510 14.1589   3
  -3   0  -2 5.83510 12.2784   4
   3   0   3 5366.13 154.822   1
  -3   0  -3 5410.09 156.306   1
  -3   0  -3 5447.22 157.888  11
  -3   0  -3 5313.98 149.335  13
   3   0   3 5304.55 153.170   7
   3   0   3 5292.72 160.707   6
  -3   0  -3 5207.52 151.508   7
   3   0   3 5227.39 152.286   5
  -3   0  -3 5270.03 160.189   4
  -3   0  -3 5427.02 151.480   8
  -3   0  -3 5140.26 155.815   9
   3   0   3 5272.01 164.679   3
  -3   0  -4 1032.40 48.4085   1
   3   0   4 865.764 45.6508   1
  -3   0  -4 932.036 46.4068  11
   3   0   4 986.665 53.9876   6
   3   0   4 888.046 48.8733   7
  -3   0  -4 899.431 47.3506   7
   3   0   4 955.197 43.0542   5
  -3   0  -4 928.777 51.4250   4
  -3   0  -4 988.876 48.1113   8
   3   0   4 940.608 49.4020   9
  -3   0  -4 912.585 47.2554   9
   3   0   4 893.926 53.8493   3
  -3   0  -5 4559.23 139.127   1
   3   0   5 4462.19 138.060   1
  -3   0  -5 4289.17 134.167  11
   3   0   5 4252.61 148.720   6
   3   0   5 4080.83 142.164   7
   3   0   5 4174.82 124.625   5
  -3   0  -5 4339.44 146.347   4
  -3   0  -5 4181.14 138.559   8
  -3   0  -5 4301.15 136.429   9
   3   0   5 4186.74 139.991   9
   3   0   5 4372.99 153.317   3
  -3   0  -6 372.008 32.6798   1
   3   0   6 460.470 40.5590   7
   3   0   6 366.274 39.7225   6
  -3   0  -6 366.077 37.0784   7
   3   0   6 380.376 17.5890  12
  -3   0  -6 381.314 31.5355  11
   3   0   6 382.588 24.2527   5
  -3   0  -6 372.100 38.7289   4
  -3   0  -6 374.309 32.4086   9
   3   0   6 353.183 33.3841   9
  -3   0  -6 368.277 36.9240   8
   3   0   6 310.190 38.3339   3
  -3   0  -7 4588.35 162.890   6
  -3   0  -7 4755.67 162.416   7
   3   0   7 4850.08 172.452   6
   3   0   7 4530.06 164.095   7
  -3   0  -7 4438.91 163.232   4
   3   0   7 4361.06 124.691   5
  -3   0  -7 4470.12 143.767  11
   3   0   7 4439.53 154.194   9
  -3   0  -7 4592.16 145.918  10
   3   0   7 4766.80 175.938   3
  -3   0  -7 4669.34 159.986   8
  -3   0  -7 4721.44 149.016   9
  -3   0  -7 4719.90 154.154   1
  -3   0  -8 1292.64 63.9874  10
  -3   0  -8 1172.90 60.2784  11
   3   0   8 1281.67 70.5823   9
  -3   0  -8 1324.65 69.7790   1
  -3   0  -8 1287.37 65.8946   9
   3   0   8 1411.05 82.4585   7
   3   0   8 1290.88 82.2857   6
  -3   0  -9 398.845 51.3690  14
  -3   0  -9 415.682 39.0246  10
  -3   0  -9 414.214 37.0985  11
  -3   0  -9 476.772 42.7660   9
   3   0   9 481.740 54.8834   6
   3   0   9 492.786 57.1093   7
  -3   0  -9 486.501 45.7488   1
  -3   0 -10 586.793 63.6093  14
  -3   0 -10 521.894 45.5471   9
   3   0  10 530.358 64.2475   7
   3   0  10 481.029 59.5044   6
  -3   0 -10 545.979 49.9579   1
  -3   0 -11 153.245 41.8505  14
   3   0  11 209.857 50.2840   7
  -3   0 -11 213.493 36.2111   1
  -3   0 -12 601.911 67.7123  14
  -3   0 -12 531.045 54.9455   1
  -3   0 -13 198.012 49.6674  14
  -3   0 -14 283.533 56.9203  14
   3   1 -14 134.307 46.1466  14
   3   1 -14 85.7820 40.5788   1
   3   1 -13 718.090 75.2252  14
   3   1 -13 577.158 71.0278   1
   3   1 -12 230.580 47.4806  14
   3   1 -12 178.566 44.9891   1
   3   1 -11 845.245 74.9906  14
   3   1 -11 741.293 76.5902   1
  -3   1  11 912.355 72.8446   6
   3   1 -10 316.491 31.2828  12
   3   1 -10 498.690 55.9153  14
  -3   1  10 409.882 39.8195  10
   3   1 -10 429.882 58.5095   1
  -3   1  10 414.982 48.3787   6
  -3   1   9 958.975 56.8763  10
   3   1  -9 889.179 54.9385   9
   3   1  -9 904.189 51.2359  12
   3   1  -9 881.162 62.9528  13
   3   1  -9 1033.82 71.9839  14
  -3   1   9 968.877 65.6961   6
   3   1  -8 1469.73 74.7591  13
   3   1  -8 1492.29 81.9196  14
   3   1  -8 1500.04 63.7748  12
  -3   1   8 1439.73 64.9297  10
  -3   1   8 1409.03 72.4916   6
   3   1  -8 1331.11 79.1269   3
   3   1  -7 716.453 55.1423   3
  -3   1   7 789.555 51.7564  14
   3   1  -7 857.200 56.3651  13
   3   1  -7 854.458 48.7552  12
   3   1  -7 827.186 43.7155   5
  -3   1   7 759.884 46.8419  10
   3   1  -7 817.286 58.8727   8
  -3   1   7 886.548 53.3679   6
  -3   1   6 1306.58 63.3318  14
   3   1  -6 1496.95 71.2073  13
   3   1  -6 1358.45 72.3667  14
   3   1  -6 1410.89 64.6048  12
   3   1  -6 1501.72 60.9019   5
  -3   1   6 1354.32 62.5151  10
   3   1  -6 1363.58 69.4720   3
  -3   1   6 1355.16 63.3228   6
   3   1  -5 2804.44 102.743  13
   3   1  -5 2712.58 104.909  14
  -3   1   5 2713.12 95.7146  14
   3   1  -5 2832.24 98.8547  12
  -3   1   5 2718.15 94.6413  10
  -3   1   5 2487.75 74.1430   2
  -3   1   5 2684.93 91.9252   6
   3   1  -5 2818.23 93.7751   5
   3   1  -4 3259.25 114.838  13
  -3   1   4 3369.97 108.183  14
  -3   1   4 3283.68 114.297  13
   3   1  -4 3254.89 116.898  14
  -3   1   4 3264.52 101.208   6
   3   1  -4 3499.38 110.212   5
   3   1  -3 494.280 35.8939  14
   3   1  -3 506.239 36.3710  13
  -3   1   3 454.163 30.6376  14
  -3   1   3 419.357 22.9900   6
   3   1  -3 472.159 33.4172   5
   3   1  -2 13163.8 339.557  14
  -3   1   2 12696.0 328.541  14
  -3   1   2 12680.3 323.330   8
   3   1  -2 12431.6 331.778   9
  -3   1   2 12787.9 311.203   6
   3   1  -2 12533.8 335.853   5
   3   1  -1 3732.90 115.853   5
   3   1  -1 3571.75 112.758   9
  -3   1   1 3702.38 99.0545   8
  -3   1   1 3548.30 113.994  13
  -3   1   0 7922.90 209.925  13
  -3   1   0 7530.98 208.786  11
   3   1   0 7378.11 210.027   5
   3   1   0 7740.83 210.492   9
  -3   1   0 7492.81 190.246   6
   3   1   1 393.612 23.9007   3
   3   1   1 403.553 24.2684  13
  -3   1  -1 411.500 27.3002  13
  -3   1  -1 361.920 21.3231   6
  -3   1  -1 398.077 22.2744   4
   3   1   1 420.587 19.3253   8
   3   1   1 350.858 27.1894   9
  -3   1  -1 374.219 28.5666   1
  -3   1  -2 9952.48 268.674   1
   3   1   2 9866.72 255.777   1
  -3   1  -2 9531.78 265.807  11
  -3   1  -2 9573.14 258.342   6
  -3   1  -2 9811.51 257.752   4
   3   1   2 9471.48 267.841   9
  -3   1  -2 9608.39 260.692   9
   3   1   2 10149.4 253.674   8
   3   1   2 9886.22 262.335   3
   3   1   3 1732.05 72.7124   3
  -3   1  -3 1799.79 69.6004   4
   3   1   3 1726.93 66.5435   5
  -3   1  -3 1806.34 72.3555  11
  -3   1  -3 1805.36 67.7999   9
  -3   1  -3 1866.13 74.2221   1
   3   1   3 1832.38 62.9169   1
   3   1   4 1982.36 83.1501   3
  -3   1  -4 1983.44 78.1116   4
   3   1   4 1819.12 68.0035   5
   3   1   4 1856.84 64.1566  12
  -3   1  -4 1887.24 75.7302  11
  -3   1  -4 1911.56 71.8618   9
   3   1   4 2059.75 82.2389   9
  -3   1  -4 1874.98 78.7350   1
   3   1   4 1952.22 67.9792   1
   3   1   5 1143.37 64.8354   3
   3   1   5 1122.41 42.1237  12
  -3   1  -5 1211.44 57.4051  11
  -3   1  -5 1156.13 61.2926   4
   3   1   5 1155.76 47.6302   5
  -3   1  -5 1174.21 53.0686   9
   3   1   5 1196.33 62.3563   9
  -3   1  -5 1253.91 62.1274   1
   3   1   5 1150.20 51.0462   1
  -3   1  -6 2560.89 105.257   3
  -3   1  -6 2554.61 92.9709  11
   3   1   6 2746.48 103.664   9
  -3   1  -6 2778.99 102.778   1
  -3   1  -6 2447.33 86.8319   9
   3   1   6 2467.81 75.8278   5
  -3   1  -6 2554.02 101.527   4
   3   1   7 372.987 22.2118   5
  -3   1  -7 427.799 44.1600   4
   3   1   7 434.919 42.5799   9
  -3   1  -7 396.420 38.2452  10
  -3   1  -7 404.710 36.1475  11
  -3   1  -7 398.555 46.2189   3
  -3   1  -7 433.662 43.6082   8
  -3   1  -7 422.889 34.7278   9
  -3   1  -7 370.178 38.2933   1
  -3   1  -8 1112.04 63.5052  10
  -3   1  -8 1036.07 60.6322  11
   3   1   8 1121.11 70.1382   9
  -3   1  -8 1145.62 77.1088  14
  -3   1  -8 1229.44 58.7796   9
  -3   1  -8 1105.97 68.9469   1
  -3   1  -9 1213.92 73.8662   1
  -3   1  -9 1152.48 66.4885  10
  -3   1  -9 1178.37 82.8210  14
  -3   1  -9 1187.66 61.0531   9
  -3   1  -9 988.936 59.6873   2
  -3   1 -10 672.578 52.7762  10
  -3   1 -10 741.419 69.8301  14
  -3   1 -10 637.182 58.6592   1
  -3   1 -11 396.022 58.6565  14
  -3   1 -11 404.481 49.2938   1
  -3   1 -12 395.628 59.7968  14
  -3   1 -12 356.666 48.1188   1
  -3   1 -13 378.610 61.6495  14
   3   2 -14 353.900 62.4010  14
   3   2 -14 228.567 55.5676   1
   3   2 -13 215.171 51.2227  14
   3   2 -13 116.916 45.5194   1
   3   2 -12 385.001 59.3197  14
   3   2 -12 473.942 67.0335   1
   3   2 -11 360.250 54.5679  14
   3   2 -11 339.825 58.3461   1
   3   2 -10 391.793 35.7747  12
   3   2 -10 467.506 58.7248  14
  -3   2  10 305.646 31.2660  10
   3   2 -10 333.464 30.6289   9
   3   2 -10 342.477 54.2379   1
  -3   2   9 442.275 36.1656  10
   3   2  -9 463.416 36.1250   9
   3   2  -9 540.824 41.9813  12
   3   2  -9 468.348 60.6408   1
   3   2  -9 537.387 57.4314  14
   3   2  -8 2309.58 90.7468  12
   3   2  -8 2294.33 102.001  13
   3   2  -8 2305.82 111.171  14
   3   2  -8 2229.90 103.736   3
  -3   2   8 1925.17 79.5587  10
   3   2  -7 1941.68 82.6938  12
  -3   2   7 1817.74 74.0331  10
   3   2  -7 2038.55 92.0746  13
   3   2  -7 2076.74 99.3918  14
   3   2  -7 1866.06 89.0365   3
  -3   2   6 1619.10 66.7659  14
   3   2  -6 1708.33 84.4826  14
   3   2  -6 1706.03 73.6674  12
   3   2  -6 1741.84 70.1279   5
  -3   2   6 1578.93 64.2280  10
   3   2  -6 1717.74 77.7277  10
   3   2  -6 1732.03 62.9142   9
   3   2  -6 1701.25 75.8664   3
  -3   2   6 1506.03 46.3039   2
  -3   2   5 3950.75 134.719  13
  -3   2   5 4093.47 125.895  14
   3   2  -5 4241.11 147.764  14
   3   2  -5 4308.14 138.506  12
  -3   2   5 3805.00 113.956  11
   3   2  -5 4184.33 133.212   5
   3   2  -5 4320.10 140.618  10
   3   2  -5 4145.45 123.447   9
  -3   2   5 3949.62 114.750   2
   3   2  -5 4316.05 134.657   3
  -3   2   4 980.598 44.4565  14
  -3   2   4 1059.85 54.1442  13
   3   2  -4 1039.11 58.2255  14
   3   2  -4 1075.42 53.0994   5
   3   2  -4 1021.93 53.9383  12
  -3   2   4 980.919 41.4610  11
  -3   2   4 1035.44 54.2396   8
   3   2  -4 982.505 45.3398   9
   3   2  -4 1064.72 48.6709   3
  -3   2   4 1004.72 43.1586   2
  -3   2   3 5926.42 175.466  13
  -3   2   3 5608.24 161.649  14
   3   2  -3 5802.94 176.312   5
  -3   2   3 6020.10 164.768  11
   3   2  -3 6146.22 180.304  12
  -3   2   3 5905.07 171.371   8
   3   2  -3 5716.18 166.400   9
   3   2  -3 6029.74 163.105   3
  -3   2   3 5997.59 167.047   2
  -3   2   2 2965.75 92.3476  14
   3   2  -2 3199.23 107.068   5
   3   2  -2 3198.90 107.989  12
  -3   2   2 3079.69 97.4858  11
  -3   2   2 2970.22 95.7439   8
   3   2  -2 3042.61 98.3064   9
  -3   2   2 3058.29 99.8867   2
   3   2  -1 8822.18 244.481  12
   3   2  -1 8448.39 242.826   5
  -3   2   1 8771.76 228.987   8
   3   2  -1 8783.56 237.808   9
  -3   2   1 8709.45 240.989  13
   3   2   0 478.895 32.7169  12
   3   2   0 431.436 31.4239   5
   3   2   0 425.322 18.1891   3
   3   2   0 463.391 31.2168   9
  -3   2   0 429.988 33.0232   1
   3   2   1 5699.86 151.435   3
   3   2   1 5672.90 157.346  13
  -3   2  -1 5881.01 173.418   1
   3   2   1 5513.52 170.928   4
  -3   2  -1 5698.58 147.076   4
   3   2   1 5796.93 155.817   8
   3   2   1 5480.96 168.111   9
  -3   2  -1 5392.86 153.761   6
   3   2   2 204.187 20.5651   3
   3   2   2 173.187 16.8921  13
   3   2   2 210.182 22.0727  12
  -3   2  -2 195.185 24.1756   1
   3   2   2 174.863 16.5704   1
   3   2   2 218.344 26.9594   4
  -3   2  -2 176.992 17.5287   4
   3   2   2 201.511 20.5403   8
  -3   2  -2 197.109 21.8118   6
   3   2   3 2016.53 78.6967   3
  -3   2  -3 2116.55 86.5812   1
   3   2   3 2036.98 63.9893   1
   3   2   3 2076.90 74.5091  12
  -3   2  -3 2086.16 82.3151  11
   3   2   3 1998.88 62.9792  13
   3   2   3 2055.99 76.7586   5
  -3   2  -3 2139.11 75.4849   4
   3   2   3 2268.73 90.0783   4
   3   2   3 2057.33 76.8369   8
  -3   2  -3 2184.60 79.9722   6
   3   2   4 698.430 35.5587  12
  -3   2  -4 756.241 44.7439  11
  -3   2  -4 694.750 41.4978   4
   3   2   4 643.572 38.2199   5
   3   2   4 723.372 49.2043   4
   3   2   4 675.635 42.7693   8
  -3   2  -4 737.693 47.5647   1
   3   2   4 685.247 29.7864   1
   3   2   5 4849.71 141.654  12
   3   2   5 4928.91 147.610   5
  -3   2  -5 5347.96 164.091  11
   3   2   5 4999.09 170.062   9
  -3   2  -5 5198.98 149.356   9
  -3   2  -5 5317.28 172.627   1
  -3   2  -6 368.413 36.8778   2
   3   2   6 387.026 22.3313  12
  -3   2  -6 469.232 38.6263  11
   3   2   6 459.975 42.0959   9
  -3   2  -6 439.810 40.5707  10
  -3   2  -6 531.885 44.8144   1
  -3   2  -6 441.582 31.3123   9
   3   2   6 432.325 28.9304   5
  -3   2  -7 484.935 47.2723   4
   3   2   7 391.394 44.5824   9
  -3   2  -7 467.799 41.8408  11
  -3   2  -7 436.336 42.2593  10
  -3   2  -7 460.692 40.8739   2
  -3   2  -7 458.416 33.6569   9
  -3   2  -7 409.670 43.8137   1
  -3   2  -8 804.062 61.6337   1
  -3   2  -8 699.445 54.4298  10
   3   2   8 755.402 60.5063   9
  -3   2  -8 704.818 53.0928  11
  -3   2  -8 850.138 67.9652  14
  -3   2  -8 705.923 42.6954   9
  -3   2  -8 703.501 50.6748   2
  -3   2  -9 1222.32 79.2490   1
  -3   2  -9 1186.35 72.4200  10
  -3   2  -9 1099.19 55.3101   9
  -3   2  -9 1076.28 63.2135   2
  -3   2  -9 1129.53 82.7643  14
  -3   2 -10 437.506 52.7414   1
  -3   2 -10 573.945 65.5355  14
  -3   2 -11 383.662 52.1886   1
  -3   2 -11 374.631 57.4736  14
  -3   2 -12 642.510 67.1533   1
  -3   2 -12 665.305 77.1329  14
  -3   2 -13 123.723 40.2520   1
  -3   2 -13 134.762 46.9974  14
   3   3 -13 500.237 73.6224   1
   3   3 -13 617.445 75.6708  14
   3   3 -12 283.374 55.5586   1
   3   3 -12 353.877 59.2033  14
   3   3 -11 1134.09 100.202   1
   3   3 -11 1306.46 99.1350  14
   3   3 -10 546.121 61.8074  14
   3   3 -10 460.615 66.0743   1
   3   3 -10 439.728 42.2074  12
   3   3  -9 977.208 59.1495  12
   3   3  -9 1093.93 80.0365  14
  -3   3   9 707.611 39.3102  10
   3   3  -9 750.785 33.2243   9
   3   3  -9 859.987 33.3974   9
   3   3  -9 1004.07 85.9911   1
   3   3  -8 1092.85 83.0691   1
   3   3  -8 1111.08 77.6417  14
  -3   3   8 807.729 43.1200  10
   3   3  -8 934.821 40.0145   9
   3   3  -8 1002.37 59.9336  12
   3   3  -8 991.192 39.1570   9
   3   3  -8 978.806 66.3519   3
   3   3  -7 1375.80 82.7168  14
  -3   3   7 1217.58 53.8056  10
   3   3  -7 1205.52 73.0769  10
   3   3  -7 1358.77 69.5085  12
   3   3  -7 1391.99 49.5095   9
   3   3  -7 1308.63 72.1335   3
  -3   3   6 4138.42 134.335  13
   3   3  -6 4437.98 156.884  14
   3   3  -6 4406.07 141.775  12
  -3   3   6 4019.44 119.656  10
   3   3  -6 4502.90 146.824  10
  -3   3   6 4025.89 146.330   8
   3   3  -6 4229.37 113.697   9
   3   3  -6 4368.31 136.160   3
  -3   3   6 4172.13 114.238   2
  -3   3   5 714.422 35.7505  14
  -3   3   5 790.880 47.7661  13
   3   3  -5 771.931 55.1766  14
   3   3  -5 778.011 50.0279  12
  -3   3   5 641.037 31.1971  11
   3   3  -5 875.971 51.2373   5
   3   3  -5 702.378 50.5207  10
  -3   3   5 741.502 50.7771   8
   3   3  -5 730.371 35.2762   9
  -3   3   5 742.866 38.2997   2
   3   3  -5 754.004 43.9315   3
  -3   3   4 1001.61 53.4479  13
  -3   3   4 998.916 40.6583  14
   3   3  -4 1107.68 62.4257  14
  -3   3   4 959.071 42.2866  11
   3   3  -4 1101.74 58.8608  12
   3   3  -4 1074.43 57.0623   5
   3   3  -4 1101.26 59.8190  10
  -3   3   4 1069.22 56.9148   8
   3   3  -4 1098.25 45.2410   9
   3   3  -4 1033.33 46.7892   3
  -3   3   4 984.484 47.7242   2
  -3   3   3 188.433 23.4057   2
   3   3  -3 213.502 17.8871   3
   3   3  -3 227.659 27.9040  12
  -3   3   3 187.369 19.8979  11
  -3   3   3 257.019 26.7548  13
  -3   3   3 203.182 16.7409  14
   3   3  -3 204.414 27.6096   5
   3   3  -3 223.717 21.0243   9
  -3   3   3 207.509 25.7120   8
   3   3  -2 10147.5 280.727  12
  -3   3   2 9880.56 265.619  11
  -3   3   2 9356.73 253.226  14
   3   3  -2 10147.7 280.246   5
  -3   3   2 10131.0 269.099   8
   3   3  -2 10133.9 266.566   9
  -3   3   2 9885.08 271.638   2
   3   3  -1 975.958 47.8507   9
   3   3  -1 908.415 52.4616   5
   3   3  -1 894.351 51.6962  12
  -3   3   1 999.698 49.0975  11
   3   3   0 6376.76 188.102   9
   3   3   0 6466.79 192.639   5
   3   3   0 6284.31 191.270  12
   3   3   1 820.299 51.2678   4
  -3   3  -1 822.127 28.0020   4
   3   3   1 902.110 49.7778   9
  -3   3  -1 908.843 52.0613   1
   3   3   2 4526.04 129.896  13
   3   3   2 4523.87 143.289  12
   3   3   2 4485.45 153.085   4
   3   3   2 4448.54 145.527   5
   3   3   2 4794.03 141.888   8
   3   3   2 4440.27 150.445   9
  -3   3  -2 4728.12 154.098   1
  -3   3  -3 1378.42 67.8702   2
   3   3   3 1207.59 40.4134   1
  -3   3  -3 1422.39 71.0619   1
   3   3   3 1369.37 46.1846  13
   3   3   3 1450.30 60.9190  12
   3   3   3 1334.43 62.0368   5
   3   3   3 1350.93 70.5712   4
  -3   3  -3 1543.75 68.6623  11
   3   3   3 1434.35 62.8401   8
   3   3   3 1334.98 68.6520   9
  -3   3  -3 1360.19 62.4796   6
  -3   3  -4 2507.77 100.403   2
   3   3   4 2348.75 86.6447  12
   3   3   4 2403.29 90.3894   5
   3   3   4 2462.77 105.455   4
  -3   3  -4 2585.35 99.9737  11
   3   3   4 2431.84 95.8219   8
  -3   3  -4 2628.26 106.694   1
  -3   3  -5 1068.18 65.6144   1
  -3   3  -5 1037.71 61.3846   6
   3   3   5 1008.72 47.5638  12
   3   3   5 1040.31 66.7213   4
  -3   3  -5 1134.56 62.0633  11
   3   3   5 994.917 59.9063   8
  -3   3  -5 1080.31 61.1602   2
  -3   3  -6 2060.87 94.4506   6
   3   3   6 1867.54 69.5062  12
  -3   3  -6 2111.05 92.3404  11
   3   3   6 1950.55 97.6065   9
  -3   3  -6 2056.29 93.2720  10
  -3   3  -6 2033.07 89.7094   2
   3   3   6 1970.05 94.0752   8
  -3   3  -6 2122.73 101.253   1
  -3   3  -7 335.795 42.4067   1
  -3   3  -7 365.478 42.4583  10
  -3   3  -7 305.151 38.4643  11
  -3   3  -7 310.067 43.1722  14
   3   3   7 215.900 38.9944   9
  -3   3  -7 314.204 37.0695   2
  -3   3  -8 1053.05 77.4817  14
  -3   3  -8 1014.08 74.1121   1
  -3   3  -8 956.608 62.0716   2
  -3   3  -8 1011.82 68.4371  10
  -3   3  -9 968.675 74.6725   1
  -3   3  -9 878.549 60.2131   2
  -3   3  -9 963.806 79.5998  14
  -3   3 -10 1043.43 86.8001  14
  -3   3 -10 1062.74 82.7574   1
  -3   3 -11 742.053 79.9950  14
  -3   3 -11 722.624 70.9041   1
  -3   3 -12 154.441 48.5504  14
  -3   3 -12 141.639 39.9048   1
  -3   3 -13 621.138 79.2961  14
  -3   3 -13 567.988 66.9112   1
   3   4 -13 97.2807 45.9329  14
   3   4 -13 6.18601 38.3610   1
   3   4 -12 597.621 74.2654  14
   3   4 -12 583.630 76.5335   1
   3   4 -11 97.1126 42.2627  14
   3   4 -11 28.3925 31.2705   1
   3   4 -10 435.530 60.1002  14
   3   4 -10 347.983 42.0975  12
   3   4 -10 458.383 63.9128   1
   3   4  -9 533.025 63.5907  14
   3   4  -9 485.238 65.5917   1
   3   4  -9 576.863 50.0528  12
   3   4  -8 827.477 57.7805  12
   3   4  -8 929.639 73.5863  14
   3   4  -8 904.784 60.9439   3
   3   4  -8 742.305 74.3682   1
   3   4  -7 1599.70 101.046   1
   3   4  -7 1759.48 84.4439  12
  -3   4   7 1583.81 74.2389  13
   3   4  -7 1651.95 94.9292  14
  -3   4   7 1377.33 55.8886  10
  -3   4   7 1589.08 89.7472   8
  -3   4   7 1555.16 60.5841   2
   3   4  -7 1669.83 79.6442   3
   3   4  -6 468.841 53.8814   1
  -3   4   6 510.877 40.4378  13
   3   4  -6 472.770 50.3478  14
   3   4  -6 539.508 50.9372  10
   3   4  -6 538.896 47.6198  12
  -3   4   6 531.230 49.6975   8
   3   4  -6 535.752 25.5758   9
  -3   4   6 517.888 35.7164   2
   3   4  -6 576.867 41.7717   3
  -3   4   5 4096.52 137.869  13
   3   4  -5 4231.68 157.196  14
  -3   4   5 3741.19 118.336  11
   3   4  -5 4395.75 151.886  10
   3   4  -5 4257.43 149.335  12
  -3   4   5 3948.10 147.810   8
   3   4  -5 4131.40 118.147   9
  -3   4   5 4209.72 132.353   2
   3   4  -5 4277.05 131.118   3
  -3   4   4 954.551 52.7047  13
  -3   4   4 798.014 29.5549  14
   3   4  -4 1120.58 65.0904  14
   3   4  -4 953.728 58.4789  12
  -3   4   4 855.660 42.2330  11
   3   4  -4 936.554 58.1071  10
   3   4  -4 988.544 42.5977   9
  -3   4   4 938.337 56.1216   8
  -3   4   4 959.631 50.5596   2
   3   4  -4 880.905 52.4440   2
  -3   4   3 2485.98 91.6378  13
   3   4  -3 2359.26 97.7688  12
   3   4  -3 2549.91 99.3399   5
  -3   4   3 2284.72 81.5595  11
   3   4  -3 2351.49 94.7934  10
  -3   4   3 2395.01 93.0482   8
   3   4  -3 2410.11 80.9094   9
   3   4  -3 2364.63 93.1232   2
   3   4  -2 46.6412 18.4616  12
  -3   4   2 58.4866 17.0228  13
   3   4  -2 65.9196 20.1675   5
  -3   4   2 85.2192 17.2815  11
   3   4  -2 43.6275 15.2499   9
  -3   4   2 52.1816 19.1917   8
   3   4  -1 5308.11 174.114  12
   3   4  -1 5408.71 175.615   5
   3   4  -1 5532.38 165.359   9
  -3   4   1 5173.52 172.353   1
  -3   4   1 5380.44 164.995  11
   3   4   0 824.778 48.0365   9
   3   4   0 716.745 49.4668   5
   3   4   1 1678.03 77.2374   9
   3   4   1 1770.59 82.6163   4
  -3   4  -2 161.736 25.2448   1
   3   4   2 155.730 23.8950   8
   3   4   2 144.699 23.4625  12
   3   4   2 174.772 25.3520   5
   3   4   2 132.862 24.5667   9
   3   4   2 136.421 26.7093   4
  -3   4  -3 6304.65 201.389   1
   3   4   3 5982.77 163.302  13
   3   4   3 5735.89 182.592  12
   3   4   3 6004.55 198.239   4
   3   4   3 5888.46 196.301   9
  -3   4  -3 6105.59 192.411  11
   3   4   3 6021.03 186.850   8
  -3   4  -3 6182.48 194.185   2
  -3   4  -4 136.688 27.1120   2
  -3   4  -4 149.956 29.1379   1
   3   4   4 117.285 11.8774  13
   3   4   4 113.746 21.6809  12
   3   4   4 184.230 30.2881   4
  -3   4  -4 125.124 25.5456  11
   3   4   4 165.883 29.8535   9
   3   4   4 166.436 25.9576   8
  -3   4  -5 2738.54 109.699   2
   3   4   5 2480.83 93.9600  12
  -3   4  -5 2653.32 109.765  11
  -3   4  -5 2463.82 108.127  10
  -3   4  -5 2657.75 117.662   1
   3   4   5 2474.46 106.662   8
   3   4   5 2442.52 114.543   4
   3   4   6 294.083 39.7957   8
  -3   4  -6 297.018 39.9525  10
  -3   4  -6 331.760 39.3968  11
  -3   4  -6 274.486 36.0159   2
  -3   4  -6 302.905 42.3337   1
  -3   4  -7 2186.04 114.019  14
   3   4   7 2119.00 107.195   8
  -3   4  -7 2193.07 113.255   1
  -3   4  -7 2326.47 102.420   2
  -3   4  -8 620.074 62.1726   1
  -3   4  -8 549.558 49.3050   2
  -3   4  -8 613.007 61.8339  14
  -3   4  -9 1645.67 102.669   1
  -3   4  -9 1441.01 81.5320   2
  -3   4  -9 1542.07 103.734  14
  -3   4 -10 334.146 58.5847  14
  -3   4 -10 515.393 61.9455   1
  -3   4 -11 41.7067 36.9393  14
  -3   4 -11 119.452 37.9366   1
  -3   4 -12 546.246 73.5813  14
  -3   4 -12 540.133 69.2774   1
  -3   4 -13 356.656 60.9320   1
   3   5 -12 114.126 46.2518  14
   3   5 -12 106.309 45.8438   1
   3   5 -11 334.342 58.6753  14
   3   5 -11 280.170 58.0004   1
   3   5 -10 447.894 47.8661  12
   3   5 -10 458.198 63.5458  14
   3   5 -10 406.373 62.6976   1
   3   5  -9 486.784 50.4006  12
   3   5  -9 560.797 65.8026  14
   3   5  -9 419.182 61.1636   1
   3   5  -8 206.687 36.8655  12
   3   5  -8 232.905 47.2088   1
  -3   5   8 211.053 44.6151   8
   3   5  -8 223.713 44.3338  14
   3   5  -7 545.085 50.6059  12
   3   5  -7 475.570 59.9220   1
  -3   5   7 315.487 23.8292  10
  -3   5   7 452.754 52.7484   8
  -3   5   7 405.558 38.8740  13
   3   5  -7 414.620 52.0843  14
  -3   5   6 609.656 45.5264  13
   3   5  -6 669.204 60.1903  14
   3   5  -6 675.068 55.4904  12
   3   5  -6 655.549 65.2276   1
  -3   5   6 637.972 57.1736   8
   3   5  -6 630.055 49.4971   2
  -3   5   5 611.662 45.1649  13
   3   5  -5 636.853 54.9306  10
   3   5  -5 709.746 32.8555   9
   3   5  -5 725.977 55.2510  12
  -3   5   5 664.116 54.9992   8
   3   5  -5 618.792 49.4205   2
  -3   5   4 2046.91 87.3938  13
   3   5  -4 2200.17 100.528  12
   3   5  -4 2094.28 73.8809   9
   3   5  -4 2088.39 96.8688  10
  -3   5   4 1931.28 93.3952   8
   3   5  -4 2040.70 92.5754   2
   3   5  -3 246.720 24.4096   9
  -3   5   3 233.091 30.2299   2
   3   5  -3 227.188 33.8173   1
   3   5  -3 217.177 30.7091   2
  -3   5   3 220.973 28.7192  13
   3   5  -3 250.428 34.3296  12
  -3   5   3 208.317 31.3394   8
   3   5  -2 5085.87 175.259   1
   3   5  -2 4950.53 174.507  12
   3   5  -2 5183.06 171.687  14
   3   5  -2 5051.34 156.617   9
  -3   5   2 5039.42 166.687   8
  -3   5   2 4835.45 165.758   2
   3   5  -2 5056.66 170.513   2
   3   5  -1 438.624 41.0938  12
   3   5  -1 446.338 41.3914   2
  -3   5   1 491.457 42.4908   2
   3   5  -1 432.109 38.1989   1
  -3   5   1 509.731 42.2050   1
   3   5  -1 460.366 36.7288   9
   3   5  -1 456.056 39.1096  10
   3   5   0 3376.06 117.582   1
  -3   5   0 3133.71 125.559   1
   3   5   0 3374.14 122.150   9
  -3   5   0 3372.51 122.220  11
   3   5   1 269.136 31.2074   9
   3   5   1 294.853 35.9031   4
  -3   5  -1 234.028 32.4514   2
   3   5   1 233.906 24.1651   1
  -3   5  -2 8323.28 248.124   2
   3   5   2 8041.99 242.337  12
   3   5   2 8166.37 251.434   4
   3   5   2 7911.20 247.600   9
  -3   5  -2 8281.99 244.846  11
   3   5   2 8287.44 241.072   8
   3   5   2 7480.11 211.484   1
  -3   5  -3 319.066 39.7212   1
  -3   5  -3 326.273 35.5784  14
   3   5   3 344.148 35.1920  12
   3   5   3 403.579 42.5659   9
  -3   5  -3 365.488 40.4413  10
  -3   5  -3 309.104 36.6645  11
   3   5   3 341.327 36.9544   8
   3   5   3 296.353 38.1338   4
  -3   5  -3 379.477 40.9109   2
  -3   5  -4 3247.45 136.248   1
   3   5   4 3109.38 92.6644  13
  -3   5  -4 3199.95 128.665  14
   3   5   4 3095.10 118.451  12
   3   5   4 3190.08 133.291   4
   3   5   4 3017.81 132.772   9
  -3   5  -4 3397.89 130.289  11
  -3   5  -4 3013.13 126.053  10
   3   5   4 3286.40 126.608   8
  -3   5  -4 3253.27 128.644   2
  -3   5  -5 382.091 45.2489   1
  -3   5  -5 300.109 40.3353  14
   3   5   5 312.409 35.5905  12
  -3   5  -5 378.240 43.9464  10
  -3   5  -5 367.298 43.2408  11
   3   5   5 363.805 45.2246   9
   3   5   5 327.275 41.8171   8
   3   5   5 319.237 45.1284   4
  -3   5  -5 345.732 41.7136   2
   3   5   6 1789.48 100.809   4
   3   5   6 1652.55 91.2931   8
  -3   5  -6 1808.91 92.1231   2
  -3   5  -6 1795.78 101.213   1
   3   5   7 239.902 43.3526   8
  -3   5  -7 262.066 38.6321   2
  -3   5  -7 202.505 39.2487   1
   3   5   8 1353.62 91.7382   8
  -3   5  -8 1658.79 103.577   1
  -3   5  -9 510.261 63.5546  14
  -3   5  -9 464.482 60.0146   1
  -3   5 -10 339.418 58.2852  14
  -3   5 -10 409.143 58.2287   1
  -3   5 -11 550.513 71.7614  14
  -3   5 -11 430.848 63.6833   1
  -3   5 -12 481.718 72.2075  14
  -3   5 -12 422.289 64.0949   1
   3   6 -11 81.2004 41.3551  14
   3   6 -11 87.4562 42.1457   1
   3   6 -10 379.954 48.8290  12
   3   6 -10 351.551 59.6442  14
   3   6 -10 402.752 64.5459   1
   3   6  -9 522.344 55.5568  12
  -3   6   9 417.984 62.5145   8
   3   6  -9 591.040 69.2962  14
   3   6  -9 501.048 67.7124   1
   3   6  -8 592.159 58.1010  12
   3   6  -8 550.716 67.8552   1
  -3   6   8 480.478 61.0037   8
  -3   6   8 438.444 41.2298  13
   3   6  -8 499.914 63.1875  14
  -3   6   7 1036.19 60.4248  13
   3   6  -7 1312.95 88.4882  14
   3   6  -7 1124.87 75.6558  12
   3   6  -7 1261.68 94.2001   1
  -3   6   7 840.587 36.6645  10
  -3   6   7 768.676 36.6837  10
  -3   6   7 1071.60 79.3348   8
  -3   6   7 1146.43 62.4004   2
   3   6  -7 1105.02 69.9328   2
  -3   6   6 361.679 39.1628  13
  -3   6   6 325.975 46.3466   8
   3   6  -6 367.811 45.7782  12
   3   6  -6 358.977 43.6292   2
  -3   6   6 374.788 39.2920   2
   3   6  -5 1977.72 102.447  12
  -3   6   5 2056.49 89.9760  13
  -3   6   5 2029.92 101.947   8
   3   6  -5 2005.27 96.4270   2
  -3   6   5 1916.26 90.3469   2
   3   6  -4 603.758 57.7694   1
   3   6  -4 558.020 52.6397  12
   3   6  -4 543.441 52.7313  14
  -3   6   4 530.182 45.0044  13
   3   6  -4 605.386 36.5371   9
  -3   6   4 539.566 51.1940   8
   3   6  -4 479.623 48.9506   2
  -3   6   4 508.660 46.1106   2
   3   6  -3 3034.83 132.409   1
  -3   6   3 2816.09 114.418  13
   3   6  -3 3077.27 129.145  12
   3   6  -3 2862.92 123.572  14
   3   6  -3 3007.09 104.423   9
  -3   6   3 2723.85 119.485   8
   3   6  -3 3061.74 124.183   2
  -3   6   3 2918.07 118.981   2
   3   6  -2 432.441 44.1589   1
   3   6  -2 425.367 45.8804  12
  -3   6   2 421.752 20.4913  14
   3   6  -2 435.374 43.8015  14
   3   6  -2 484.290 37.9386   9
   3   6  -2 474.626 45.1294  10
  -3   6   2 543.482 46.7544   8
  -3   6   2 428.856 42.7642   2
   3   6  -2 606.765 51.4349   2
   3   6  -1 2400.97 100.115  14
  -3   6   1 2136.78 74.5167  14
   3   6  -1 2222.35 106.031  12
   3   6  -1 2339.81 96.0023   9
  -3   6   1 2163.42 94.8186  11
   3   6  -1 2263.94 97.3569  10
  -3   6   1 2178.58 100.643   2
   3   6  -1 2313.46 105.703   2
  -3   6   1 2283.45 101.785   1
   3   6  -1 2286.55 99.6134   1
  -3   6   0 128.857 13.5573   4
  -3   6   0 198.215 25.5969  14
   3   6   0 136.686 26.5297  14
   3   6   0 150.188 26.7107  10
  -3   6   0 241.113 34.1175  11
   3   6   0 135.898 26.6954   9
   3   6   0 138.079 23.6751   1
  -3   6   0 212.052 33.2904   1
   3   6   0 153.805 30.6155   2
   3   6   1 4199.18 160.714   4
   3   6   1 4336.14 157.311   9
  -3   6  -1 4440.50 155.618  11
   3   6   1 4153.05 141.879  10
  -3   6  -1 4193.61 157.591   2
   3   6   1 4323.38 137.413   1
  -3   6  -1 4085.60 157.714   1
  -3   6  -2 124.121 29.2537   2
   3   6   2 136.868 18.2855   1
  -3   6  -2 114.451 24.9142  14
   3   6   2 157.846 30.8247  12
   3   6   2 177.586 32.4504   9
   3   6   2 109.896 30.2191   4
  -3   6  -3 3735.62 132.581  14
   3   6   3 3841.10 136.822  12
   3   6   3 3709.67 143.180   4
  -3   6  -3 4050.13 141.707  11
   3   6   3 3633.00 143.254   9
   3   6   3 3947.05 138.831   8
  -3   6  -3 3904.66 141.781   2
   3   6   4 310.006 43.6257   4
  -3   6  -4 388.081 45.9371   1
  -3   6  -4 289.756 40.4110   2
   3   6   4 403.805 41.7236  12
  -3   6  -4 367.890 42.3401  14
   3   6   4 360.491 47.4105   9
   3   6   4 274.628 38.9271   8
   3   6   5 3417.49 128.071  12
   3   6   5 3168.59 140.836   4
  -3   6  -5 3373.64 140.098  14
   3   6   5 3028.06 87.6727  13
   3   6   5 3376.31 137.317   8
  -3   6  -5 3651.41 152.377   1
   3   6   6 264.745 44.1485   4
  -3   6  -6 340.702 47.2478  14
   3   6   6 329.027 46.9044   8
  -3   6  -6 386.118 51.4762   1
   3   6   7 1422.05 91.5211   8
  -3   6  -7 1484.05 96.3600  14
  -3   6  -7 1490.78 100.040   1
   3   6   8 691.094 70.1124   8
  -3   6  -8 783.812 75.8068   1
   3   6   9 412.072 62.3857   8
  -3   6  -9 621.009 69.5375   1
  -3   6 -10 153.647 45.2137  14
  -3   6 -10 202.587 49.3327   1
  -3   6 -11 153.192 45.9880  14
  -3   6 -11 178.860 46.8874   1
  -3   6 -12 336.318 61.8329   1
   3   7 -11 351.705 64.2375  14
   3   7 -11 201.792 59.9555   1
   3   7 -10 289.570 60.2922  14
   3   7 -10 316.078 60.9914   1
   3   7  -9 844.015 72.2902  12
  -3   7   9 619.132 74.0771   8
   3   7  -9 755.013 79.6430  14
   3   7  -9 643.612 80.7093   1
  -3   7   8 304.217 36.5796   2
  -3   7   8 281.852 54.2048   8
   3   7  -8 284.743 45.5729  12
  -3   7   8 300.927 35.6640  13
  -3   7   7 138.729 16.3017  10
  -3   7   7 240.218 35.0006   2
  -3   7   7 185.995 45.2086   8
  -3   7   7 301.804 36.4007  13
   3   7  -7 303.982 46.9131  12
  -3   7   6 1011.25 62.1518  13
   3   7  -6 1059.09 78.5115  12
  -3   7   6 819.250 44.9753  10
  -3   7   6 897.422 75.6662   8
  -3   7   6 971.177 65.7338   2
   3   7  -5 331.437 51.1260   1
  -3   7   5 322.835 40.9608   2
   3   7  -5 393.439 52.7181  14
  -3   7   5 365.680 48.3822   8
  -3   7   5 294.138 38.7267  13
   3   7  -5 416.432 50.8188  12
   3   7  -4 1779.17 103.451   1
   3   7  -4 1759.90 99.9592  12
  -3   7   4 1725.81 85.3478  13
   3   7  -4 1849.52 99.1053  14
  -3   7   4 1709.09 96.4516   8
  -3   7   4 1577.98 87.9450   2
   3   7  -3 534.793 54.9481   1
   3   7  -3 463.234 54.0948  12
   3   7  -3 464.076 49.2924  14
  -3   7   3 401.229 39.7715  10
  -3   7   3 520.175 51.7838   8
  -3   7   3 397.908 45.5258   2
   3   7  -2 2510.89 111.382   1
   3   7  -2 2518.98 116.952  12
   3   7  -2 2615.58 111.106  14
  -3   7   2 1950.10 59.6100  14
   3   7  -2 2527.27 97.7651   9
   3   7  -2 2392.26 106.440  10
  -3   7   2 2188.84 95.2153  10
  -3   7   2 2478.59 110.825   8
  -3   7   2 2286.02 107.363   2
   3   7  -1 156.609 30.7479  14
  -3   7   1 177.476 21.6331  14
   3   7  -1 161.445 35.4093  12
   3   7  -1 167.544 32.1744  10
  -3   7   1 217.980 35.1101  10
   3   7  -1 182.321 30.4810   9
   3   7  -1 166.551 30.6850   1
  -3   7   1 216.443 39.1481   2
  -3   7   1 138.881 29.8605   1
   3   7   0 4384.88 159.500   9
   3   7   0 4515.49 154.780  10
  -3   7   0 4367.16 156.459  10
   3   7   0 4245.78 152.234  14
  -3   7   0 4255.35 136.310  14
  -3   7   0 4157.81 119.475   4
   3   7   0 4331.01 150.791   1
  -3   7   0 4556.03 166.948   1
  -3   7  -1 38.5422 14.8481   4
   3   7   1 36.3284 28.0759   4
   3   7   1 70.3678 24.2771  10
  -3   7  -1 21.5961 24.2143  10
   3   7   1 63.5550 26.9457   9
   3   7   1 27.4691 16.2002   1
  -3   7  -1 22.8216 23.0873   1
  -3   7  -2 5086.27 169.161  14
   3   7   2 5290.45 187.270  12
   3   7   2 4961.39 186.324   4
   3   7   2 5027.61 185.333   9
   3   7   2 5019.90 181.455   8
  -3   7  -2 5179.70 189.667   1
   3   7   2 4638.84 146.440   1
  -3   7  -3 239.097 34.6276  14
   3   7   3 274.518 40.9793  12
   3   7   3 163.449 16.6401   1
   3   7   3 271.920 42.8657   8
   3   7   3 175.604 37.8020   4
   3   7   4 700.629 63.4764   4
  -3   7  -4 752.880 59.6430  14
   3   7   4 776.630 63.8539   8
   3   7   4 675.109 58.9922  12
   3   7   5 500.654 57.1552   4
   3   7   5 425.420 28.1929  13
  -3   7  -5 567.403 55.1475  14
   3   7   5 523.212 55.3157   8
  -3   7  -5 506.165 58.7861   1
   3   7   6 2186.60 120.759   4
   3   7   6 2076.59 114.733   8
  -3   7  -6 2376.37 121.225  14
  -3   7  -7 383.006 56.0534   1
   3   7   7 319.453 52.9712   8
  -3   7  -7 400.715 55.5112  14
  -3   7  -8 490.897 63.1917  14
  -3   7  -8 540.815 66.4942   1
   3   7   8 400.171 60.3473   8
  -3   7  -9 281.898 54.8751  14
   3   7   9 235.228 53.0894   8
  -3   7  -9 321.154 56.4244   1
  -3   7 -10 588.655 74.0578   1
  -3   7 -11 471.164 71.1039   1
  -3   8  10 201.039 60.4825   8
   3   8 -10 323.690 65.4498   1
  -3   8   9 223.657 52.7386   8
   3   8  -8 762.889 73.3586  12
  -3   8   8 632.557 74.5063   8
  -3   8   8 668.587 52.0630  13
   3   8  -7 659.760 68.2255  12
  -3   8   7 559.945 50.0758  13
   3   8  -7 639.138 70.0632  14
  -3   8   7 592.365 70.0844   8
   3   8  -7 661.192 75.9280   1
   3   8  -6 741.446 70.3689  12
  -3   8   6 616.741 52.3659  13
   3   8  -6 628.076 65.7991  14
  -3   8   6 467.408 35.6544  10
  -3   8   6 502.526 62.6010   8
   3   8  -6 527.569 68.1278   1
   3   8  -5 1670.76 103.781  12
  -3   8   5 1562.73 84.6319  13
   3   8  -5 1866.19 105.705  14
  -3   8   5 1553.48 99.8302   8
   3   8  -5 1705.74 109.179   1
  -3   8   4 614.285 55.3347  13
   3   8  -4 733.373 68.5097  12
   3   8  -4 737.651 66.1161  14
  -3   8   4 529.836 45.2107  10
  -3   8   4 714.035 66.9356   8
   3   8  -4 709.198 67.1793   1
   3   8  -3 2718.45 126.842  14
  -3   8   3 2534.70 108.180  10
  -3   8   3 2697.96 129.575   8
   3   8  -3 2658.30 129.518   1
   3   8  -2 357.776 45.0809  14
  -3   8   2 319.891 39.3799  10
   3   8  -2 302.554 46.9110  12
   3   8  -2 308.745 42.6291   1
  -3   8   2 333.669 48.5899   8
   3   8  -1 3585.82 151.996  12
   3   8  -1 3321.12 133.132  14
  -3   8   1 2894.42 97.5703  14
   3   8  -1 3386.26 134.583   1
  -3   8   1 3187.53 136.098   1
  -3   8   1 3134.74 128.468  10
  -3   8   0 94.0245 15.4759   4
   3   8   0 17.6010 22.7307  10
   3   8   0 2.55701 21.7573  14
   3   8   0 20.1205 19.0333   1
  -3   8   0 95.6073 32.7702   1
   3   8   1 3623.84 153.366  12
  -3   8  -1 3269.92 104.909   4
   3   8   1 3582.03 150.468   4
   3   8   1 3225.43 130.045  10
   3   8   1 3348.56 122.374   1
  -3   8  -1 3525.46 149.836   1
  -3   8  -1 3534.49 124.641  14
  -3   8  -2 426.401 43.1857  14
   3   8   2 404.645 50.7873  12
   3   8   2 317.264 30.1280   1
  -3   8  -2 376.595 48.7862   1
   3   8   2 415.353 52.7771   8
   3   8   2 323.626 48.7853   4
   3   8   3 2086.46 108.773  12
   3   8   3 2189.86 113.307   4
   3   8   3 2143.36 110.157   8
  -3   8  -3 2320.28 118.039   1
  -3   8  -3 2213.32 100.927  14
  -3   8  -4 326.660 45.3543  14
   3   8   4 309.614 48.8230   8
   3   8   4 400.564 53.3908   4
   3   8   5 1789.38 106.415   8
   3   8   5 1754.63 108.051   4
  -3   8  -5 1919.86 105.256  14
   3   8   6 449.234 60.9252   4
  -3   8  -6 544.200 65.3886   1
   3   8   6 458.745 58.3569   8
  -3   8  -6 563.919 62.8558  14
  -3   8  -7 691.135 75.4773   1
   3   8   7 506.984 66.0330   8
  -3   8  -7 628.556 68.7766  14
  -3   8  -8 586.237 72.5531   1
   3   8   8 475.884 65.7409   8
  -3   8  -8 590.297 69.4262  14
  -3   8  -9 302.172 57.9096  14
  -3   8  -9 320.023 62.2287   1
   3   8   9 254.824 57.3769   8
  -3   8 -10 311.951 61.4951  14
  -3   8 -10 237.158 57.1410   1
   3   8  10 207.611 57.9722   8
  -3   9   9 273.446 65.3375   8
   3   9  -9 525.600 73.4534  14
  -3   9   8 196.565 34.4527  13
   3   9  -8 193.610 51.9842   1
  -3   9   8 88.2810 44.1540   8
   3   9  -8 209.001 51.2223  14
  -3   9   7 278.761 37.7669  13
   3   9  -7 284.571 53.6258  12
   3   9  -7 243.661 53.6568   1
  -3   9   7 199.666 49.2195   8
   3   9  -7 259.254 50.7237  14
   3   9  -6 358.994 56.1471  12
   3   9  -6 416.073 59.7572  14
  -3   9   6 414.132 44.5545  13
   3   9  -6 379.593 60.6836   1
  -3   9   6 403.973 58.4576   8
   3   9  -5 240.997 49.2517  12
  -3   9   5 189.150 35.8761  13
   3   9  -5 195.778 44.0916  14
  -3   9   5 200.943 30.5427  10
  -3   9   5 203.951 46.5720   8
   3   9  -5 243.543 47.5648   1
   3   9  -4 1293.44 94.4585  12
  -3   9   4 1163.60 75.5591  13
   3   9  -4 1141.20 85.3877  14
  -3   9   4 1000.26 64.2046  10
  -3   9   4 1039.82 84.3996   8
   3   9  -4 1076.28 86.5791   1
   3   9  -3 212.993 45.3766  12
   3   9  -3 251.225 43.3442  14
  -3   9   3 195.073 33.6741  10
   3   9  -3 255.368 43.3842   1
  -3   9   3 168.082 45.3776   8
   3   9  -2 2045.31 116.523  12
  -3   9   2 1721.13 105.569   8
   3   9  -2 1826.69 102.934   1
   3   9  -2 1637.57 97.0985  14
   3   9  -1 153.141 34.8838   1
  -3   9   1 96.5142 30.5024   1
   3   9  -1 136.245 35.1488  14
  -3   9   1 112.997 18.7603  14
   3   9  -1 106.019 36.7227  12
   3   9   0 2242.12 117.410   4
  -3   9   0 1931.08 70.6419   4
   3   9   0 2065.52 97.9041   1
  -3   9   0 2154.64 112.692   1
   3   9   1 25.7453 30.3629  12
  -3   9  -1 11.8929 24.9442   1
   3   9   1 4.47700 18.3965   1
  -3   9  -1 6.38870 19.2267  14
   3   9   1 19.9123 27.8510   4
  -3   9  -1-10.8989 16.7861   4
   3   9   2 3266.26 149.343  12
   3   9   2 3012.25 141.329   4
  -3   9  -2 2898.63 100.233   4
   3   9   2 2966.31 140.567   8
  -3   9  -2 3026.75 144.193   1
  -3   9  -2 3143.78 122.675  14
   3   9   3 112.389 17.3411   1
  -3   9  -3 161.355 40.8959   1
  -3   9  -3 242.445 39.7959  14
   3   9   3 174.253 45.5724   8
   3   9   3 164.953 40.4403   4
   3   9   4 1611.08 103.684   4
   3   9   4 1436.08 100.146   8
  -3   9  -4 1696.92 96.1413  14
   3   9   5 211.833 44.3753   4
  -3   9  -5 339.103 54.4487   1
  -3   9  -5 270.622 44.4218  14
   3   9   5 283.736 52.2643   8
   3   9   6 749.082 74.7141   8
   3   9   6 849.741 80.9053   4
  -3   9  -6 919.202 77.6248  14
  -3   9  -7 388.310 57.8328  14
   3   9   7 370.214 59.6667   8
  -3   9  -8 746.370 79.2175  14
   3   9   8 514.487 70.7045   8
  -3   9  -8 591.076 77.9094   1
   3   9   9 379.637 68.4023   8
  -3   9  -9 430.145 66.0197  14
  -3   9  -9 537.767 74.7314   1
   3  10  -8 353.459 62.7390  14
  -3  10   8 281.813 62.5652   8
   3  10  -8 220.511 57.6802   1
   3  10  -7 706.400 83.4927   1
  -3  10   7 728.386 80.6347   8
  -3  10   7 556.776 54.6140  13
   3  10  -7 732.669 79.3355  14
   3  10  -6 305.297 56.9269   1
   3  10  -6 346.434 59.3726  14
  -3  10   6 240.981 52.7194   8
  -3  10   6 279.913 41.8078  13
   3  10  -5 1194.87 97.4444   1
  -3  10   5 1028.57 91.9536   8
  -3  10   5 994.467 73.9403  13
   3  10  -5 1153.39 92.5485  14
   3  10  -4 293.461 49.5696   1
   3  10  -4 200.156 43.2839  14
  -3  10   4 145.195 45.4826   8
  -3  10   4 269.199 44.5639  13
   3  10  -4 279.815 52.6657  12
   3  10  -3 778.097 73.8973   1
   3  10  -3 933.124 78.0764  14
  -3  10   3 888.022 81.9387   8
   3  10  -3 974.289 88.6870  12
   3  10  -2 3.85739 22.4159   1
   3  10  -2-4.99486 32.7859  12
   3  10  -2-10.5142 29.5381  14
  -3  10   2-4.35432 36.0919   8
  -3  10   1 996.946 77.4171   1
   3  10  -1 967.343 73.0184   1
   3  10  -1 959.669 73.7820  14
  -3  10   1 834.299 40.9203  14
   3  10   0-21.4030 44.5492   4
  -3  10   0 32.6018 28.8419   1
   3  10   0 35.1542 22.8024   1
   3  10   1 823.207 78.3870   4
   3  10   1 722.089 55.0714   1
  -3  10  -1 825.588 75.5279   1
  -3  10  -1 781.930 54.8119  14
  -3  10  -2 186.610 42.3724   1
   3  10   2 116.096 23.4964   1
  -3  10  -2 133.078 30.4297  14
   3  10   2 132.436 44.2936   8
   3  10   2 147.122 41.3640   4
   3  10   3 1205.87 93.1646   4
  -3  10  -3 1292.63 96.2787   1
   3  10   3 1216.74 94.8990   8
  -3  10  -3 1255.33 77.1353  14
   3  10   4 58.6588 32.0719   4
  -3  10  -4 215.170 48.6052   1
  -3  10  -4 198.955 38.0730  14
   3  10   4 91.9080 40.3996   8
   3  10   5 846.762 81.2156   4
  -3  10  -5 1113.82 95.7014   1
   3  10   5 904.237 86.8741   8
  -3  10  -5 915.938 76.9771  14
   3  10   6 102.039 39.3416   4
  -3  10  -6 123.009 38.3273  14
   3  10   6 155.937 48.2793   8
  -3  10  -6 108.790 40.1442   1
  -3  10  -7 742.854 76.7423  14
   3  10   7 770.834 82.6359   8
   3  10   8 121.130 50.6140   8
  -3  10  -8 144.656 46.4194  14
   3  11  -7 323.490 63.1626  14
   3  11  -6 899.761 90.3396   1
  -3  11   6 870.370 68.5277  13
   3  11  -6 830.035 83.8772  14
  -3  11   6 720.381 86.2244   8
   3  11  -5 122.720 42.1125   1
   3  11  -5 220.069 51.6870  14
  -3  11   5 201.531 41.1605  13
  -3  11   5 141.210 50.9228   8
   3  11  -4 635.645 71.0718   1
   3  11  -4 641.866 70.0256  14
  -3  11   4 585.535 62.1937  13
  -3  11   4 608.591 73.7119   8
   3  11  -3 23.9227 31.0408  14
  -3  11   3 63.3699 43.0674   8
   3  11  -3 45.0403 31.1361   1
  -3  11   2 996.118 92.4017   8
   3  11  -2 985.470 80.2682  14
   3  11  -2 1119.41 84.6247   1
   3  11  -1-3.28272 28.1181  14
  -3  11   1 4.12201 27.7794   1
   3  11  -1 3.58611 25.3772   1
   3  11  -1-36.7407 48.5581   4
  -3  11   1-57.0749 53.8304   8
   3  11   0 716.221 75.5621   4
   3  11   0 686.279 59.9788   1
  -3  11   0 712.379 72.7030   1
  -3  11  -1 60.1561 24.8977  14
  -3  11  -1 96.9327 37.9574   1
   3  11   1 74.6263 24.0855   1
  -3  11  -2 503.560 50.1242  14
   3  11   2 352.754 59.1220   4
   3  11   2 453.349 66.8367   8
   3  11   2 450.366 40.2975   1
  -3  11  -2 590.060 68.4974   1
  -3  11  -3 111.185 32.2137  14
  -3  11  -3 36.0577 33.4056   1
   3  11   3 120.288 40.9092   4
   3  11   3 54.3188 40.2757   8
  -3  11  -4 445.762 66.0870   1
  -3  11  -4 452.693 54.6534  14
   3  11   4 395.734 65.4134   8
   3  11   4 378.139 59.6713   4
  -3  11  -5-11.4862 42.4901   1
  -3  11  -5 32.3744 32.3896  14
   3  11   5 35.7131 43.3526   8
   3  11   5 29.0743 36.9780   4
  -3  11  -6 471.272 71.2563   1
  -3  11  -6 485.957 65.8754  14
   3  11   6 393.001 68.8482   8
   3  11   6 371.754 60.0094   4
  -3  11  -7 77.5934 41.9066  14
   3  12  -5 601.739 72.9585  14
  -3  12   5 561.276 60.3092  13
   3  12  -5 477.712 69.3183   1
   3  12  -4 20.3526 30.5968   1
   3  12  -4 70.8617 38.8470  14
  -3  12   4 122.534 49.1356   8
  -3  12   4 45.2980 37.3551  13
  -3  12   3 664.927 80.3972   8
   3  12  -3 521.653 65.6912   1
   3  12  -3 502.618 65.2364  14
   3  12  -2 92.3857 37.1304   1
   3  12  -2 68.3737 42.8481   4
  -3  12   2 36.6611 43.8093   8
   3  12  -2 74.0373 33.7020  14
   3  12  -1 491.221 68.5557   4
   3  12  -1 613.477 61.7801   1
  -3  12   1 471.908 71.7065   8
   3  12   0-28.6616 47.2467   4
  -3  12   0 41.6186 32.7253   1
   3  12   0 32.2401 26.9524   1
   3  12   1 280.897 56.3288   4
  -3  12  -1 391.091 58.2912   1
   3  12   1 284.172 63.6954   8
   3  12   2 28.5863 41.4552   4
  -3  12  -2 92.8575 40.1481   1
   3  12   2-31.8616 47.6040   8
  -3  12  -3 380.774 62.2356   1
  -3  12  -3 361.323 49.1596  14
   3  12   3 379.448 59.3443   4
   3  12   3 427.821 70.3220   8
  -3  12  -4 29.0024 32.4976  14
  -3  12  -4-22.8727 45.3448   1
   3  12   4 24.3516 33.6536   4
   3  12   4 26.9869 44.7386   8
   3  12   5 537.664 69.3931   4
  -3  12  -5 549.197 64.0333  14
  -3  12  -6 49.3126 38.1093  14
   3  13  -4 302.300 57.2194  14
   3  13  -3 40.6327 37.2162  14
  -3  13   3 59.1609 38.7038  13
   3  13  -3 66.2564 47.9547   4
   3  13  -3 9.47604 31.5304   1
   3  13  -2 712.521 83.5232   4
   3  13  -2 979.589 83.4962   1
   3  13  -1-9.90913 50.4391   4
  -3  13   0 675.722 74.4555   1
   3  13   0 642.039 77.3458   4
  -3  13  -1-5.09489 36.0530   1
   3  13   1-19.5114 47.9553   4
  -3  13  -2 644.632 77.7525   1
   3  13   2 374.673 62.2964   4
   4 -13  -1 240.873 52.0224  11
  -4 -12   3 1616.17 125.719   2
   4 -12  -2 96.0083 34.9710  11
  -4 -12   2 35.4028 36.0635  11
  -4 -12   2 105.097 45.7710   2
   4 -12  -1 870.804 80.7380  11
  -4 -12   1 930.037 92.9882  11
  -4 -12   0 305.397 63.8144   2
   4 -12   0 304.528 53.7015  11
  -4 -12   0 253.005 52.8595  11
  -4 -12  -1 573.165 77.1793   2
   4 -12   1 526.305 67.5250  11
  -4 -12  -1 363.543 60.4126  11
  -4 -12  -2 248.350 57.8128   2
   4 -12   2 176.454 43.8005   6
   4 -12   2 172.487 46.0242  11
  -4 -12  -2 185.550 45.5032  11
  -4 -12  -3 247.193 59.5161   2
   4 -12   3 202.087 47.1962   6
   4 -12   3 229.380 51.5090  11
  -4 -12  -3 231.841 50.5723  11
   4 -12   4 451.932 61.4650   6
   4 -12   4 501.032 70.2992   3
   4 -12   5 146.302 45.0831   6
   4 -12   5 146.773 48.3615   3
  -4 -11   8 645.432 74.6139   2
  -4 -11   7 10.4888 41.2005   2
  -4 -11   6 744.901 82.3942   2
  -4 -11   5 6.01123 35.5296  11
  -4 -11   5-16.6990 33.9790   2
  -4 -11   4 832.412 86.3777   2
  -4 -11   4 903.657 90.8316  11
  -4 -11   4 656.045 79.2338  10
  -4 -11   3 62.6073 37.8810   2
   4 -11  -3 56.4059 28.4322  11
  -4 -11   3 79.9567 41.3611  11
  -4 -11   3 10.2053 38.1688  10
  -4 -11   2 877.669 89.1244   2
   4 -11  -2 872.978 75.7811  11
  -4 -11   2 820.001 85.1926  11
  -4 -11   2 760.243 78.5104  10
   4 -11  -1 386.767 54.3294  11
  -4 -11   1 422.846 58.8421  10
   4 -11   0 1124.18 88.9911  11
   4 -11   0 1001.51 76.6171   6
  -4 -11   0 1069.83 98.3480   2
   4 -11   1 385.776 54.8564  11
  -4 -11  -1 301.468 58.5117   2
   4 -11   1 279.509 46.7966   6
   4 -11   2 913.778 85.7367  11
   4 -11   2 893.090 74.7517   6
  -4 -11  -2 904.887 90.4638   2
  -4 -11  -3 306.918 59.4161   2
   4 -11   3 315.688 55.8324  11
   4 -11   3 307.648 48.8457   6
   4 -11   4 196.377 47.4427  11
  -4 -11  -4 279.600 48.4256  11
   4 -11   4 276.429 50.3066   6
  -4 -11  -4 213.069 52.3097   2
   4 -11   4 240.874 54.0821   3
   4 -11   5 597.135 74.2289  11
  -4 -11  -5 581.872 75.6388   2
   4 -11   5 609.056 72.9922   3
   4 -11   5 524.891 65.4827   6
  -4 -11  -6 145.862 49.7125   2
   4 -11   6 153.160 50.0462   3
   4 -11   6 198.710 48.2546   6
  -4 -11  -7 246.434 54.9645   2
   4 -11   7 341.775 62.0947   6
   4 -11   7 340.352 62.8312   3
  -4 -10   9 386.532 58.5899   2
  -4 -10   8 38.1323 44.3807   7
  -4 -10   8-18.5870 39.7999   2
  -4 -10   7 600.085 70.4258   2
  -4 -10   7 484.463 70.9039  11
  -4 -10   7 657.102 83.1903  10
  -4 -10   6 45.0877 37.0688   2
  -4 -10   6 11.2012 41.4393  10
  -4 -10   5 768.036 79.4201   2
  -4 -10   5 932.401 89.2177  10
  -4 -10   4 5.16005 31.5098   2
   4 -10  -4 34.4451 23.1810  11
  -4 -10   4 86.6703 40.4366  10
   4 -10  -3 755.229 64.8054  11
  -4 -10   3 681.543 76.3798   2
  -4 -10   3 670.780 74.8443  10
  -4 -10   2 131.754 41.2141  10
   4 -10  -2 161.606 35.5826  11
  -4 -10   2 236.294 50.8399   2
  -4 -10   1 1108.22 87.2908  10
   4 -10  -1 1031.76 80.8357  11
   4 -10   0 97.4506 34.5797  11
  -4 -10   0 86.5957 34.8279  10
  -4 -10   0 58.5717 36.3981   2
   4 -10   0 95.8093 31.2249   6
   4 -10   1 1034.75 82.6788  11
  -4 -10  -1 997.568 76.6374  10
   4 -10   1 858.542 70.6794   6
  -4 -10  -1 918.982 90.5024   2
   4 -10   2 407.007 56.3511  11
  -4 -10  -2 281.556 43.8181  10
  -4 -10  -2 315.907 58.9187   2
   4 -10   2 380.552 48.0763   6
   4 -10   3 718.418 74.0544  11
  -4 -10  -3 605.241 74.1996   2
   4 -10   3 588.902 62.0078   6
   4 -10   4 472.673 63.0747  11
   4 -10   4 505.776 60.2866   6
  -4 -10  -4 437.754 64.8850   2
   4 -10   5 268.292 47.8096   6
   4 -10   5 352.901 57.7855  11
   4 -10   5 256.646 32.8511   9
   4 -10   5 272.639 54.2940   3
  -4 -10  -5 286.838 54.4805   2
   4 -10   6 879.907 82.9563   6
  -4 -10  -6 824.608 85.5739   2
   4 -10   6 1083.01 94.8022   3
  -4 -10  -7 340.198 60.0511   2
   4 -10   7 417.711 61.4232   6
   4 -10   7 360.355 61.7505   3
   4 -10   8 862.934 86.2811   6
   4 -10   8 785.311 93.6674   7
  -4 -10  -8 810.679 82.2256   2
   4 -10   8 907.958 91.1575   3
  -4  -9   9 116.301 43.9446  11
  -4  -9   9 51.0298 43.2931   6
  -4  -9   9 107.255 49.4689   7
  -4  -9   9 27.8794 33.3283   2
  -4  -9   8 725.006 82.5917   6
  -4  -9   8 657.885 81.5605   7
  -4  -9   8 538.412 63.5185   2
  -4  -9   8 639.151 77.1367  11
  -4  -9   7 217.262 50.0208  11
  -4  -9   7 237.246 55.7903  10
  -4  -9   7 220.418 46.1864   2
  -4  -9   6 407.264 62.1779  10
  -4  -9   6 388.146 60.0818  11
  -4  -9   6 380.254 56.4748   2
  -4  -9   5 25.2116 35.6833  10
   4  -9  -5 22.4676 19.8012  11
  -4  -9   5 9.22787 29.0355   2
   4  -9  -4 846.869 62.6037  11
  -4  -9   4 743.068 50.6975   9
  -4  -9   4 834.855 78.5362   2
  -4  -9   3 71.7579 34.5788  10
   4  -9  -3 50.3557 24.2777  11
  -4  -9   3 57.1329 25.3207   9
  -4  -9   3 9.45274 27.9561   2
  -4  -9   2 833.786 74.2024  10
  -4  -9   2 759.148 75.7122   2
   4  -9  -2 806.593 65.4855  11
  -4  -9   2 731.915 55.8993   9
  -4  -9   1 66.8143 31.2180  10
   4  -9  -1 83.7848 30.7547  11
  -4  -9   0 1314.09 86.6381  10
   4  -9   0 1131.83 81.7717  11
  -4  -9   0 1117.62 91.7109   2
   4  -9   0 1129.45 71.0096   6
  -4  -9  -1 701.649 53.4360  14
   4  -9   1 807.945 68.4696  11
   4  -9   1 695.527 57.4385   6
  -4  -9  -1 725.256 73.6242   2
  -4  -9  -1 732.092 62.7514  10
   4  -9   2 1300.62 90.1997  11
   4  -9   2 1271.68 78.7481   6
  -4  -9  -2 1276.17 96.6120   2
  -4  -9  -2 1188.61 76.1798  10
   4  -9   3 989.043 80.2689  11
   4  -9   3 906.906 71.3249   6
  -4  -9  -3 872.450 81.0717   2
  -4  -9  -3 743.989 59.5862  10
   4  -9   4 1237.76 91.5388  11
   4  -9   4 1322.18 85.8254   6
  -4  -9  -4 1079.22 90.6230   2
  -4  -9  -4 935.496 59.2538   3
   4  -9   5 366.568 52.2984   6
   4  -9   5 477.714 62.8168  11
   4  -9   5 387.315 37.4533   9
  -4  -9  -5 484.719 62.8655   2
   4  -9   5 456.877 61.4013   3
  -4  -9  -6 442.334 59.7677   2
   4  -9   6 502.586 61.6605   6
   4  -9   6 394.230 31.3841   9
   4  -9   6 507.573 67.7575   3
   4  -9   7 1053.75 92.2513  11
   4  -9   7 902.991 82.0846   6
  -4  -9  -7 866.944 83.2852   2
   4  -9   7 1052.23 93.1747   3
   4  -9   8 276.918 59.6263   7
   4  -9   8 196.625 53.2801   6
   4  -9   8 214.271 50.3268  11
  -4  -9  -8 201.107 47.0872   2
   4  -9   8 209.619 53.8966   3
   4  -9   9 738.627 82.7733  11
   4  -9   9 779.939 86.2183   3
   4  -9   9 674.287 77.6945   6
   4  -9   9 539.293 80.7312   7
  -4  -8  11 176.870 46.4643  11
  -4  -8  10 42.4850 43.6656   7
  -4  -8  10 56.4594 36.3459  11
  -4  -8  10 68.5641 41.8403  10
  -4  -8  10 66.1754 42.9344   6
  -4  -8   9 436.717 63.1611  11
  -4  -8   9 345.407 61.7094  10
  -4  -8   9 399.434 65.4229   6
  -4  -8   9 329.424 64.6768   7
  -4  -8   9 412.252 52.3983   2
  -4  -8   8 45.8301 32.5294  11
  -4  -8   8 25.7028 37.2295   6
  -4  -8   8 48.1373 40.9177   7
  -4  -8   8 63.6916 29.1766   2
  -4  -8   7 1039.52 93.5779   6
  -4  -8   7 983.291 89.6399   7
  -4  -8   7 919.730 86.6028  11
  -4  -8   7 1070.34 82.5496   2
  -4  -8   6 88.8926 33.0214   2
  -4  -8   6 142.715 42.8935  10
  -4  -8   5 1438.26 102.681  10
   4  -8  -5 1613.12 77.1821  11
  -4  -8   5 1418.29 96.1898   2
   4  -8  -5 1276.49 78.0767   1
  -4  -8   4 30.6142 30.2312  10
   4  -8  -4 20.3440 19.0315  11
  -4  -8   4 38.8383 20.3831   9
   4  -8  -4 35.7994 22.6477   1
  -4  -8   4 83.7368 33.2117   2
  -4  -8   3 1882.64 109.065  10
   4  -8  -3 1964.64 94.7122  11
  -4  -8   3 1677.83 80.2316   9
  -4  -8   3 1795.55 108.288   2
  -4  -8   2 253.070 34.1391   9
  -4  -8   2 282.712 47.3437   2
  -4  -8   2 287.373 47.3931  10
   4  -8  -2 261.319 39.0707  11
  -4  -8   1 2371.56 118.266  10
  -4  -8   1 2373.80 104.090   9
   4  -8  -1 2296.72 112.663  11
   4  -8   0 132.003 28.9879   6
  -4  -8   0 118.506 33.6558  10
   4  -8   0 108.283 31.4647  11
  -4  -8   0 156.956 40.3178   2
  -4  -8   0 143.386 30.3420  14
   4  -8   1 646.893 59.8260  11
  -4  -8  -1 431.302 44.9258  14
  -4  -8  -1 480.191 50.4241  10
  -4  -8  -1 659.327 66.5585   2
  -4  -8  -1 355.518 24.1535   3
   4  -8   1 572.200 49.7803   6
   4  -8   2 1823.18 103.553  11
  -4  -8  -2 1671.59 81.8834  14
  -4  -8  -2 1897.93 91.9120  10
  -4  -8  -2 1861.97 111.721   2
   4  -8   2 1929.01 93.0384   6
   4  -8   3 1126.01 81.7838  11
  -4  -8  -3 903.214 58.3198  14
  -4  -8  -3 1029.87 64.3453  10
  -4  -8  -3 947.621 80.4873   2
   4  -8   3 1098.31 71.7341   6
   4  -8   4 471.474 57.0937  11
  -4  -8  -4 552.365 44.6158  14
  -4  -8  -4 437.855 42.2151  10
   4  -8   4 624.921 58.7257   6
  -4  -8  -4 710.424 69.8352   2
  -4  -8  -4 506.027 42.3384   3
   4  -8   5 478.571 55.1071   6
   4  -8   5 492.232 40.1832   9
  -4  -8  -5 541.388 63.8098   2
  -4  -8  -5 516.489 47.2741   3
   4  -8   5 666.121 69.4095   3
   4  -8   5 527.344 61.5094  11
   4  -8   6 564.333 60.6301   6
   4  -8   6 528.036 36.0047   9
  -4  -8  -6 557.842 64.6381   2
   4  -8   6 530.900 66.4082   3
   4  -8   7 322.517 58.9204   7
   4  -8   7 332.505 53.3440  11
   4  -8   7 343.234 52.9099   6
  -4  -8  -7 309.515 50.1909   2
   4  -8   7 318.988 55.0025   3
   4  -8   8 508.965 72.3516   7
   4  -8   8 682.353 71.8703   6
   4  -8   8 582.404 70.3466  11
  -4  -8  -8 398.973 56.5950   2
   4  -8   8 546.029 72.2708   3
   4  -8   9 164.542 52.6066   7
   4  -8   9 270.245 52.1712  11
   4  -8   9 206.609 50.9081   6
  -4  -8  -9 217.888 44.6101   2
   4  -8   9 235.781 53.2551   3
   4  -8  10 505.162 69.7683  11
   4  -8  10 534.065 70.8306   6
   4  -8  10 529.552 73.5595   3
   4  -8  10 593.882 81.7402   7
  -4  -7  12 251.828 47.6790  11
  -4  -7  11 223.909 58.8287   7
  -4  -7  11 172.032 43.3786  11
  -4  -7  11 161.830 53.8429   6
  -4  -7  10 364.072 67.6519   7
  -4  -7  10 324.902 55.4606  11
  -4  -7  10 403.697 64.5228  10
  -4  -7  10 430.558 64.2120   6
  -4  -7   9 78.4004 42.6087  10
  -4  -7   9 32.9592 30.9425  11
  -4  -7   9 69.5573 37.9406   6
  -4  -7   9 75.8857 28.2174   2
  -4  -7   9 66.6010 40.7738   7
  -4  -7   8 1036.00 91.2617  10
  -4  -7   8 957.489 86.3177  11
  -4  -7   8 1092.88 92.6041   6
  -4  -7   8 959.212 88.5178   7
  -4  -7   8 1016.15 74.4513   2
  -4  -7   7 100.415 40.2366   7
  -4  -7   7 82.1497 35.9737   6
  -4  -7   7 171.947 36.8539   2
   4  -7  -7 130.026 28.0041   4
  -4  -7   6 1066.03 85.7477   6
  -4  -7   6 1079.22 85.7113  10
   4  -7  -6 866.144 56.1870   4
  -4  -7   6 1054.74 76.6064   2
   4  -7  -6 843.195 62.8807   1
  -4  -7   5-4.24673 28.9848  10
   4  -7  -5 18.2118 16.5427   6
  -4  -7   5 18.1731 26.3121   2
   4  -7  -5 10.2911 20.2139   1
   4  -7  -4 1514.71 83.0092   1
   4  -7  -4 1593.73 78.3998  11
  -4  -7   4 1679.20 98.0717   2
  -4  -7   3-18.6089 30.0548  10
   4  -7  -3-7.49538 18.2866  11
  -4  -7   3 1.75898 19.9987   9
  -4  -7   3-11.2780 22.5873   2
   4  -7  -3-5.32231 20.1023   1
   4  -7  -2 2256.16 104.381  11
  -4  -7   2 2343.19 115.865  10
   4  -7  -2 2406.50 107.487   1
  -4  -7   2 2195.66 93.6469   9
  -4  -7   2 2483.49 121.444   2
   4  -7  -1 131.247 29.8994   1
  -4  -7   1 170.434 35.2226  10
   4  -7  -1 179.393 32.8621  11
  -4  -7   1 128.535 27.8399   9
  -4  -7   1 142.017 29.6617  14
  -4  -7   0 1615.28 98.0667   2
  -4  -7   0 1609.93 82.1477  14
   4  -7   0 1701.98 91.2648  11
   4  -7   0 1587.26 88.7212   1
  -4  -7   0 1614.35 88.6291  10
  -4  -7   0 1726.99 84.5754   9
   4  -7   0 1689.21 76.9042   6
  -4  -7  -1 1545.56 94.1525   2
   4  -7   1 1576.23 88.7684  11
  -4  -7  -1 1572.34 76.6987  14
  -4  -7  -1 1619.98 83.1005  10
  -4  -7  -1 1591.88 82.1900   9
   4  -7   1 1562.70 74.7563   6
   4  -7   2 2741.39 125.611  11
  -4  -7  -2 2727.89 105.094  14
  -4  -7  -2 2785.04 111.097  10
  -4  -7  -2 2328.26 83.3910   3
  -4  -7  -2 2656.65 129.776   2
   4  -7   2 2562.99 107.886   6
   4  -7   3 740.043 64.2762  11
  -4  -7  -3 603.289 47.1342  14
  -4  -7  -3 640.911 48.5743  10
   4  -7   3 682.379 55.1638   6
  -4  -7  -3 624.885 63.4263   2
  -4  -7  -4 1168.63 63.9800   3
  -4  -7  -4 1355.52 89.8114   2
   4  -7   4 1519.41 91.4740  11
  -4  -7  -4 1239.88 66.5094  14
  -4  -7  -4 1229.03 63.2217  10
   4  -7   4 1196.12 63.9261   9
   4  -7   4 1385.94 79.9465   6
  -4  -7  -5 1240.80 70.2480   3
  -4  -7  -5 1191.00 86.7495   2
   4  -7   5 1414.94 93.0880   3
  -4  -7  -5 1194.58 66.5907  14
  -4  -7  -5 1178.17 74.4388  12
  -4  -7  -5 1215.45 58.3965  10
   4  -7   5 1324.92 61.7714   9
   4  -7   5 1384.87 84.0408   6
   4  -7   6 339.535 52.6531   3
   4  -7   6 341.701 48.8040   6
   4  -7   6 299.982 28.5356   9
  -4  -7  -6 343.948 51.4919   2
   4  -7   7 591.507 63.6834   6
   4  -7   7 604.478 68.6104   7
   4  -7   7 725.743 71.0793  11
   4  -7   7 424.149 27.3383   9
  -4  -7  -7 674.297 65.6282   2
   4  -7   7 621.195 69.6719   3
   4  -7   8 218.948 51.5866   7
   4  -7   8 242.624 46.8205  11
   4  -7   8 161.276 43.3440   6
   4  -7   8 182.845 47.6114   3
  -4  -7  -8 159.514 39.2276   2
   4  -7   9 597.451 72.2156  11
  -4  -7  -9 597.452 64.0817   2
   4  -7   9 647.429 76.5906   3
   4  -7   9 743.172 75.5186   6
   4  -7   9 508.186 71.9721   7
   4  -7  10 119.183 41.0395  11
   4  -7  10 253.626 52.6635   6
   4  -7  10 149.175 51.0406   7
   4  -7  10 202.830 52.4063   3
   4  -7  11 450.431 62.0121  11
   4  -7  11 281.883 67.0045   7
   4  -7  11 344.623 65.2902   3
  -4  -6  12 292.357 48.5049  11
  -4  -6  11 421.054 55.9979  11
  -4  -6  11 380.143 62.3768  10
  -4  -6  11 280.139 56.7646   6
  -4  -6  11 439.607 68.3730   7
  -4  -6  10 226.278 51.1310  10
  -4  -6  10 256.113 46.3151  11
  -4  -6  10 125.886 45.2044   6
  -4  -6  10 211.153 51.7523   7
  -4  -6   9 704.556 74.9876  10
  -4  -6   9 617.916 66.6542  11
  -4  -6   9 637.014 53.6287   2
  -4  -6   9 630.455 75.2258   7
  -4  -6   9 626.745 71.4590   6
  -4  -6   8 162.081 45.1172  10
  -4  -6   8 166.167 46.0745   7
  -4  -6   8 136.330 30.2364   2
  -4  -6   8 152.637 42.2442   6
  -4  -6   7 1411.71 94.3556   6
  -4  -6   7 1179.85 86.9879   7
   4  -6  -7 1192.75 71.5362   4
   4  -6  -7 1047.62 70.2592   1
  -4  -6   7 1322.28 78.4113   2
  -4  -6   6 246.729 45.4217   6
   4  -6  -6 218.871 26.6862   6
   4  -6  -6 202.945 30.5162   4
  -4  -6   6 226.720 38.6235   2
   4  -6  -6 211.909 34.1083   1
   4  -6  -5 2279.11 83.3758   6
  -4  -6   5 2561.91 124.993  10
  -4  -6   5 2537.94 114.383   2
   4  -6  -5 2183.55 101.377   1
   4  -6  -4 362.584 34.6933  11
   4  -6  -4 308.221 28.4647   4
  -4  -6   4 339.764 47.8047  10
   4  -6  -4 310.043 27.5375   6
   4  -6  -4 399.470 40.7771   1
  -4  -6   4 346.222 43.0852   2
  -4  -6   3 2315.31 105.952  14
   4  -6  -3 2300.74 97.2155  11
  -4  -6   3 2513.10 108.749   5
  -4  -6   3 2429.16 115.612  10
  -4  -6   3 2277.54 111.670   2
   4  -6  -3 2215.70 101.230   1
   4  -6  -2 721.964 55.0626   1
  -4  -6   2 856.032 59.2602  14
   4  -6  -2 783.387 53.7126  11
  -4  -6   2 791.513 61.5410  10
  -4  -6   2 795.760 50.0868   9
  -4  -6   2 807.788 62.6474   2
  -4  -6   1 3199.66 123.526  14
   4  -6  -1 3046.57 125.810  11
  -4  -6   1 3260.25 130.661  12
  -4  -6   1 3306.04 129.123   5
  -4  -6   1 3271.49 132.432  10
  -4  -6   1 3165.90 117.792   9
   4  -6  -1 3229.44 128.188   1
  -4  -6   0 483.092 52.5404   2
   4  -6   0 527.801 48.2841   1
  -4  -6   0 476.173 44.0765  14
  -4  -6   0 491.755 47.2677  12
   4  -6   0 602.607 49.9767  11
  -4  -6   0 583.518 50.9905   5
  -4  -6   0 622.866 50.5591  10
  -4  -6   0 469.714 43.2655   9
   4  -6   0 534.489 37.4944   6
  -4  -6  -1 944.458 36.7925   3
  -4  -6  -1 1043.39 73.8392   2
   4  -6   1 1099.53 70.3524   1
  -4  -6  -1 1120.44 62.4911  14
   4  -6   1 1128.36 70.3337  11
  -4  -6  -1 1037.74 66.9431  12
  -4  -6  -1 1093.20 67.8470   5
  -4  -6  -1 1199.73 66.6978  10
  -4  -6  -1 1150.65 67.1657   9
   4  -6   1 1305.95 61.7589   6
  -4  -6  -2 2483.94 85.6171   3
  -4  -6  -2 2579.59 123.731   2
   4  -6   2 2729.12 120.879   1
  -4  -6  -2 2701.40 104.321  14
  -4  -6  -2 2634.27 112.463  12
   4  -6   2 2807.88 122.564  11
  -4  -6  -2 2749.33 113.474   5
  -4  -6  -2 2884.86 109.240  10
  -4  -6  -2 2718.35 113.579   9
   4  -6   2 2756.82 106.399   6
  -4  -6  -3 1396.84 71.3912  14
   4  -6   3 1605.08 89.2200  11
  -4  -6  -3 1401.54 77.3097  12
  -4  -6  -3 1644.75 82.0480   5
  -4  -6  -3 1543.25 71.4953  10
   4  -6   3 1649.48 79.8596   6
  -4  -6  -3 1522.81 90.5846   2
  -4  -6  -3 1401.61 63.1231   3
  -4  -6  -4 830.243 66.9534   2
  -4  -6  -4 805.351 53.7561  14
   4  -6   4 868.651 67.7032  11
  -4  -6  -4 801.781 58.5896  12
   4  -6   4 922.915 64.4143  12
  -4  -6  -4 885.688 60.5793   5
  -4  -6  -4 901.780 50.1455  10
   4  -6   4 911.222 52.4033   9
   4  -6   4 837.983 59.5931   6
  -4  -6  -5 1019.52 61.7343   3
   4  -6   5 1156.40 81.9697   3
  -4  -6  -5 1005.70 75.5647   2
  -4  -6  -5 920.660 58.9574  14
   4  -6   5 999.754 67.6577  12
  -4  -6  -5 940.984 62.7957  12
  -4  -6  -5 986.915 63.4494   5
  -4  -6  -5 962.810 49.0278  10
   4  -6   5 1089.90 54.1748   9
   4  -6   5 1238.48 74.7426   6
  -4  -6  -6 1265.86 74.8964   3
   4  -6   6 1623.97 99.2983   3
  -4  -6  -6 1341.61 87.2194   2
  -4  -6  -6 1307.58 69.6971  14
   4  -6   6 1491.67 91.1491  11
   4  -6   6 1443.68 79.9804  12
  -4  -6  -6 1308.21 72.3077   5
  -4  -6  -6 1040.41 46.9908  10
   4  -6   6 1476.65 59.3542   9
   4  -6   6 1459.84 87.1540   6
   4  -6   7 385.834 57.2677   3
  -4  -6  -7 364.734 48.9576   2
  -4  -6  -7 323.070 38.3227  14
   4  -6   7 405.116 43.2651  12
   4  -6   7 376.689 50.8400   6
  -4  -6  -7 340.123 40.2443   5
   4  -6   7 439.461 55.1810  11
   4  -6   7 317.887 25.5566   9
   4  -6   7 474.718 59.4345   7
   4  -6   8 1234.86 89.9013  11
   4  -6   8 1220.68 96.2192   3
  -4  -6  -8 1138.43 82.6056   2
   4  -6   8 1333.01 92.2068   6
   4  -6   8 1154.76 91.5475   7
   4  -6   9 263.890 54.1127   7
   4  -6   9 302.830 53.0926   6
   4  -6   9 245.014 45.1277  11
   4  -6   9 314.414 58.2197   3
  -4  -6  -9 188.351 38.9987   2
   4  -6  10 1075.51 85.7638  11
   4  -6  10 1025.66 94.3689   7
   4  -6  10 936.798 87.6794   6
  -4  -6 -10 875.124 71.6603   2
   4  -6  10 1041.08 96.7683   3
   4  -6  11 105.789 36.9607  11
   4  -6  11 160.909 53.2187   7
   4  -6  11 94.9364 45.6262   6
   4  -6  11 153.260 49.0902   3
   4  -6  12 275.851 52.6032  11
  -4  -5  12 301.233 46.4720  11
  -4  -5  12 441.330 68.9643   7
  -4  -5  12 302.925 60.4535   6
  -4  -5  11 131.161 35.9009  11
  -4  -5  11 191.007 48.4763  10
  -4  -5  11 142.257 50.0715   7
  -4  -5  11 162.985 45.2436   6
  -4  -5  10 933.244 76.2086  11
  -4  -5  10 904.340 84.1509  10
  -4  -5  10 943.111 83.0933   6
  -4  -5  10 974.933 86.6673   7
  -4  -5   9 89.1792 36.6932  10
  -4  -5   9 95.1036 31.0500  11
  -4  -5   9 79.9747 36.1016   7
  -4  -5   9 63.8561 20.8518   2
  -4  -5   9 93.3180 37.5140   6
  -4  -5   8 919.304 78.9319   6
  -4  -5   8 1034.14 82.2940   7
  -4  -5   8 1119.93 86.0064  10
  -4  -5   8 946.472 61.2656   2
   4  -5  -8 828.307 64.2479   1
   4  -5  -7 394.103 45.0466   4
  -4  -5   7 424.232 47.8790   5
  -4  -5   7 491.478 58.3448   6
   4  -5  -7 385.448 34.8916   6
  -4  -5   7 497.848 57.0950   7
  -4  -5   7 473.691 57.9398  10
  -4  -5   7 532.411 47.0947   2
   4  -5  -7 411.648 45.7400   1
  -4  -5   6 369.444 42.6101   5
   4  -5  -6 346.023 36.8281   4
  -4  -5   6 397.632 42.3614   2
   4  -5  -6 294.946 39.1783   1
   4  -5  -6 369.145 30.7285   6
  -4  -5   6 449.727 54.4908   6
  -4  -5   6 504.195 54.4258   7
   4  -5  -5 35.1513 14.8623   6
   4  -5  -5 53.1779 28.1073   7
   4  -5  -5 53.1300 22.2838   1
  -4  -5   5 29.7261 20.8445   2
  -4  -5   5 23.9625 23.8566   5
   4  -5  -4 1703.79 85.0042   1
  -4  -5   4 1971.88 94.2756  14
   4  -5  -4 1633.01 67.6846   4
  -4  -5   4 1997.90 90.0418   5
  -4  -5   4 1955.75 99.5592  10
  -4  -5   4 1902.52 92.0703   2
   4  -5  -4 1830.59 64.1919   6
  -4  -5   3 179.582 31.8010  14
   4  -5  -3 217.420 27.1805  11
  -4  -5   3 188.609 31.0458   5
  -4  -5   3 229.349 36.6665  10
   4  -5  -3 170.312 28.3690   1
  -4  -5   3 204.009 32.5051   2
   4  -5  -3 154.527 17.2942   4
  -4  -5   2 1660.10 80.1091  14
   4  -5  -2 1556.86 74.5888  11
  -4  -5   2 1563.05 83.8349  10
  -4  -5   2 1535.66 83.5524   2
   4  -5  -2 1483.80 77.7608   1
  -4  -5   1 226.752 32.2387  14
  -4  -5   1 259.093 35.2524  12
   4  -5  -1 216.811 30.3344  11
  -4  -5   1 271.657 36.2243   5
  -4  -5   1 299.924 36.5446  10
  -4  -5   1 259.303 30.2540   9
   4  -5  -1 212.990 32.3784   1
  -4  -5   0 5078.97 180.194   2
   4  -5   0 5050.00 171.416   1
  -4  -5   0 4973.18 162.449  14
  -4  -5   0 4816.19 167.165  12
   4  -5   0 4825.72 169.236  11
  -4  -5   0 5122.66 167.968   5
  -4  -5   0 5033.61 169.207  10
  -4  -5   0 4844.96 160.250   9
   4  -5   0 4781.98 146.456   6
  -4  -5  -1 1455.89 82.0987   2
  -4  -5  -1 1227.95 42.9052   3
   4  -5   1 1460.23 76.6919   1
  -4  -5  -1 1458.04 69.2308  14
   4  -5   1 1438.94 76.2762  11
  -4  -5  -1 1311.26 70.4106  12
  -4  -5  -1 1476.71 73.3151   5
  -4  -5  -1 1398.21 70.0709  10
  -4  -5  -1 1332.88 68.7279   9
   4  -5   1 1328.82 60.2512   6
   4  -5   2 2945.23 120.631   1
  -4  -5  -2 2858.77 106.998  14
  -4  -5  -2 2858.73 111.186  12
   4  -5   2 2662.32 117.330  11
  -4  -5  -2 2814.84 110.787   5
  -4  -5  -2 2829.65 106.288  10
  -4  -5  -2 2812.49 123.849   2
  -4  -5  -2 2665.47 87.9357   3
   4  -5   2 2771.65 103.058   6
   4  -5   3 3034.92 124.271   1
  -4  -5  -3 2859.30 106.536  14
  -4  -5  -3 2726.83 108.993  12
   4  -5   3 2722.21 121.076  11
  -4  -5  -3 2853.07 110.857   5
  -4  -5  -3 2905.97 103.663  10
   4  -5   3 2848.05 109.354   6
  -4  -5  -3 2856.30 124.658   2
  -4  -5  -3 2554.05 94.6364   3
  -4  -5  -4 1869.45 97.8651   2
   4  -5   4 2034.54 100.369   1
  -4  -5  -4 1845.93 81.6714  14
  -4  -5  -4 1878.46 85.3195   5
  -4  -5  -4 1793.29 73.8877  10
   4  -5   4 1940.01 78.4340   9
  -4  -5  -4 1857.55 93.4895   9
   4  -5   4 1839.47 88.1637   6
   4  -5   5 1202.15 74.0506   6
  -4  -5  -5 1259.67 73.0348   7
   4  -5   5 1306.43 72.6423  12
  -4  -5  -5 1214.62 67.5277   5
  -4  -5  -5 1293.93 55.0770  10
   4  -5   5 1333.65 60.7689   9
  -4  -5  -5 1322.47 81.1877   2
  -4  -5  -5 1214.37 67.9429   3
   4  -5   6 932.672 68.4344   6
   4  -5   6 943.345 69.1215   7
   4  -5   6 865.865 67.1238  11
   4  -5   6 859.353 58.1464  12
  -4  -5  -6 885.018 55.2355   5
  -4  -5  -6 759.962 37.7289  10
   4  -5   6 901.126 46.3291   9
  -4  -5  -6 929.065 68.2034   2
  -4  -5  -6 845.905 60.1368   3
   4  -5   7 2520.93 121.090   6
   4  -5   7 2626.78 123.577   7
   4  -5   7 2547.93 122.113  11
   4  -5   7 2486.06 102.178  12
  -4  -5  -7 2377.01 95.1649   5
   4  -5   7 2239.06 81.1729   9
  -4  -5  -7 2135.23 110.331   2
  -4  -5  -8 102.253 31.3074   2
   4  -5   8 90.3354 40.4878   7
   4  -5   8 97.8994 24.7982  12
   4  -5   8 110.382 34.3645   6
   4  -5   8 139.988 34.7097  11
   4  -5   8 65.4220 15.4106   9
   4  -5   8 119.265 38.7199   3
   4  -5   9 1502.88 94.6786  11
   4  -5   9 1217.50 66.6939  12
   4  -5   9 1353.23 102.358   3
  -4  -5  -9 1345.85 83.1016   2
   4  -5   9 1364.16 98.9385   7
   4  -5   9 1312.01 95.2301   6
   4  -5  10 51.0137 37.1650   7
   4  -5  10 61.7387 37.7096   6
   4  -5  10 99.4397 35.1872  11
   4  -5  10 115.499 43.5592   3
  -4  -5 -10 84.2366 28.4347   2
   4  -5  11 762.715 71.3060  11
   4  -5  11 639.371 78.4204   7
   4  -5  11 662.834 75.2391   6
   4  -5  11 736.901 86.8270   3
   4  -5  12 23.9484 31.0706  11
   4  -5  12 29.6473 42.4512   3
   4  -5  12 69.5073 47.5852   7
  -4  -4  13 545.119 72.5699   6
  -4  -4  12 165.968 33.5787  11
  -4  -4  12 293.031 53.8221  10
  -4  -4  12 261.369 52.0561   6
  -4  -4  12 244.498 56.8340   7
  -4  -4  11 469.160 52.2324  11
  -4  -4  11 615.033 69.6875  10
  -4  -4  11 579.707 69.5564   6
  -4  -4  11 696.683 76.3641   7
  -4  -4  10 55.4648 34.1616  10
  -4  -4  10 40.0408 23.6362  11
  -4  -4  10 63.0048 35.7061   6
  -4  -4  10 30.4400 35.4446   7
   4  -4  -9 899.747 51.2240  14
   4  -4  -9 917.110 52.7164   5
  -4  -4   9 888.839 59.6068   5
  -4  -4   9 1037.59 82.6968  10
  -4  -4   9 724.347 45.7666   2
  -4  -4   9 1082.29 81.5139   6
  -4  -4   9 1049.89 82.4819   7
  -4  -4   8 114.972 35.1619  10
  -4  -4   8 75.4470 20.7741   2
  -4  -4   8 91.4805 26.1629   5
  -4  -4   8 151.903 37.5008   6
   4  -4  -8 77.2994 23.0123   6
  -4  -4   8 115.244 37.7443   7
   4  -4  -7 897.590 61.7489   4
  -4  -4   7 910.496 60.4907   5
  -4  -4   7 1046.86 75.4702  10
  -4  -4   7 884.667 54.8102   2
  -4  -4   7 965.173 71.5582   7
   4  -4  -7 895.335 50.4349   6
  -4  -4   7 1002.19 72.2057   6
  -4  -4   6 270.860 42.0926  10
  -4  -4   6 169.069 28.4100   2
   4  -4  -6 194.358 23.8253   6
  -4  -4   6 218.341 38.3831   6
   4  -4  -6 170.318 29.2694   4
  -4  -4   6 203.240 32.1003   5
   4  -4  -6 201.990 34.4766   7
  -4  -4   6 232.092 39.5205   7
   4  -4  -6 223.238 36.3174   8
  -4  -4   5 3206.30 130.104  14
  -4  -4   5 3336.30 121.887   5
   4  -4  -5 3077.76 123.266   1
  -4  -4   5 3253.51 121.128   2
   4  -4  -5 2964.62 96.8931   6
   4  -4  -5 3260.76 121.402   7
  -4  -4   5 3260.14 132.159   6
  -4  -4   5 3376.62 128.438   7
  -4  -4   4 67.0188 24.7963  10
   4  -4  -4 62.2671 22.1613   1
  -4  -4   4 93.5445 22.6130   2
   4  -4  -4 42.6419 15.2722   4
  -4  -4   4 93.1677 23.7850   5
   4  -4  -4 49.1107 11.7248   6
  -4  -4   4 37.5459 22.1512  14
  -4  -4   3 2018.13 90.0087   2
   4  -4  -3 1790.29 85.2102   1
  -4  -4   3 2001.90 88.9078  14
  -4  -4   3 1939.75 85.6565   5
   4  -4  -3 1857.58 64.2318   4
  -4  -4   3 1921.08 92.4551  10
  -4  -4   3 1766.40 73.0999   9
   4  -4  -3 1926.71 57.9614   6
  -4  -4   2 713.136 49.4185  14
   4  -4  -2 672.504 43.5017  11
   4  -4  -2 644.611 24.6636   4
  -4  -4   2 728.821 51.8648  10
  -4  -4   2 687.241 49.8048   2
   4  -4  -2 617.438 46.7950   1
  -4  -4   1 3563.85 124.816  14
   4  -4  -1 3394.47 123.405  11
  -4  -4   1 3660.26 130.295  10
  -4  -4   1 3419.03 123.861   5
   4  -4  -1 3328.93 126.080   1
   4  -4  -1 3379.76 97.9748   6
  -4  -4   0 70.1107 21.6039   5
   4  -4   0 97.2568 15.1603   6
   4  -4   0 86.3633 20.6773  11
  -4  -4   0 116.557 23.6442  10
  -4  -4   0 71.9804 21.6315  14
  -4  -4   0 66.8040 21.0316   2
   4  -4   0 80.6844 21.8616   1
   4  -4   1 2341.74 99.4518   1
  -4  -4  -1 2336.66 92.6926  14
   4  -4   1 2339.91 98.7461  11
  -4  -4  -1 2123.63 91.3884   5
  -4  -4  -1 2424.65 93.7269  10
  -4  -4  -1 2321.77 103.759   2
   4  -4   1 2295.59 80.7161   6
   4  -4   2 2071.88 93.2561   1
  -4  -4  -2 2010.92 83.6213  14
   4  -4   2 2012.02 92.4791  11
  -4  -4  -2 2022.12 85.4203   5
  -4  -4  -2 2045.94 82.4593  10
   4  -4   2 2071.03 79.0716   6
  -4  -4  -2 1903.32 68.3346   3
  -4  -4  -2 2046.36 96.8831   2
  -4  -4  -3 2759.46 95.5547   3
  -4  -4  -3 2774.58 118.890   2
   4  -4   3 2960.08 118.318   1
  -4  -4  -3 2706.20 103.249  14
   4  -4   3 2616.84 113.716  11
  -4  -4  -3 2707.95 98.1610  10
  -4  -4  -3 2845.76 105.540   5
  -4  -4  -3 2811.54 111.294   9
   4  -4   3 2740.71 101.314   9
   4  -4   3 2734.49 103.589   6
   4  -4   4 1131.07 63.4554   6
  -4  -4  -4 988.713 57.1768   5
  -4  -4  -4 1015.64 49.7819  10
  -4  -4  -4 1082.31 65.3679   9
   4  -4   4 1038.46 54.2289   9
   4  -4   4 1102.81 71.3009   3
  -4  -4  -4 1049.90 67.9103   2
   4  -4   5 851.898 62.8429   1
  -4  -4  -5 680.780 52.1682   7
   4  -4   5 811.799 57.1026   6
  -4  -4  -5 738.751 57.1575   6
   4  -4   5 747.112 56.2091   7
   4  -4   5 840.447 59.7832  11
  -4  -4  -5 851.505 50.6985   5
  -4  -4  -5 748.137 60.8589   4
  -4  -4  -5 708.835 39.4395  10
  -4  -4  -5 776.025 59.7701   9
   4  -4   5 805.143 45.3986   9
  -4  -4  -5 770.109 52.6159   3
  -4  -4  -5 764.245 58.6857   2
   4  -4   6 2470.40 110.553   6
  -4  -4  -6 2106.73 99.1328   7
   4  -4   6 2277.74 106.520   7
   4  -4   6 2448.26 110.998  11
   4  -4   6 2350.37 93.6458  12
  -4  -4  -6 2232.42 88.2281   5
  -4  -4  -6 2097.07 74.1689  10
   4  -4   6 2281.40 84.5416   9
  -4  -4  -6 2088.40 99.2169   8
  -4  -4  -6 2205.72 99.8866   3
  -4  -4  -6 2127.94 103.985   2
   4  -4   7 1364.75 82.8194   7
   4  -4   7 1332.94 81.5935   6
  -4  -4  -7 945.597 53.8017  11
   4  -4   7 1270.87 63.8183  12
   4  -4   7 1247.07 77.7290  11
  -4  -4  -7 1109.67 57.5780   5
  -4  -4  -7 1043.38 41.2974  10
   4  -4   7 1224.74 54.8036   9
  -4  -4  -7 1161.76 73.8144   2
   4  -4   8 1894.07 70.1566   9
   4  -4   8 2024.36 107.826   7
   4  -4   8 2049.67 109.079   6
  -4  -4  -8 1909.87 95.6090   2
   4  -4   8 2062.43 104.120  11
   4  -4   9 119.321 32.3168  11
  -4  -4  -9 143.437 31.4520   2
   4  -4   9 137.483 41.9934   7
   4  -4   9 192.915 42.5918   6
   4  -4  10 936.272 74.4934  11
  -4  -4 -10 839.896 64.2682   2
   4  -4  10 952.915 84.6862   7
   4  -4  10 944.665 84.9703   6
  -4  -4 -11 20.9114 27.4062  14
   4  -4  11 60.4673 44.0081   3
   4  -4  11 94.1773 31.0478  11
   4  -4  11 35.0134 37.8021   6
   4  -4  11 48.2720 42.6547   7
   4  -4  12 502.689 72.5355   7
   4  -4  12 463.160 68.4988   6
  -4  -3  13 322.167 62.1718   7
  -4  -3  13 185.658 49.8674   6
  -4  -3  12 755.016 73.0409  10
  -4  -3  12 829.903 85.9071   7
  -4  -3  12 673.929 72.1618   6
  -4  -3  12 552.821 50.4882  11
  -4  -3  11 297.171 54.2609   7
  -4  -3  11 335.187 52.5986   6
  -4  -3  11 304.150 50.6515  10
  -4  -3  11 254.885 37.6975  11
   4  -3 -10 776.539 56.7292  14
  -4  -3  10 838.125 73.4533   6
  -4  -3  10 868.092 78.7986   7
  -4  -3  10 825.809 72.6414  10
  -4  -3  10 693.541 58.6889  11
  -4  -3   9 196.892 40.2424   6
   4  -3  -9 177.025 31.9975   6
   4  -3  -9 206.871 25.2383   5
  -4  -3   9 220.345 41.2686  10
   4  -3  -9 223.465 32.0617  14
  -4  -3   9 162.495 38.9784   7
   4  -3  -8 3897.06 126.558  14
   4  -3  -8 3625.52 131.265  13
   4  -3  -8 3679.31 121.857   5
  -4  -3   8 4035.43 156.388  10
   4  -3  -8 3404.76 124.599   6
  -4  -3   8 3847.04 151.172   6
  -4  -3   8 3899.28 154.204   7
   4  -3  -7 15.9229 17.1919  14
   4  -3  -7 35.3507 22.5585  13
  -4  -3   7 26.0985 26.5843  10
  -4  -3   7 22.4050 15.4704   2
   4  -3  -7 25.5333 25.9996   7
  -4  -3   7 42.0282 27.6840   7
   4  -3  -7 22.7658 25.7575   8
  -4  -3   7 20.6524 23.0180   5
  -4  -3   7 35.8351 23.4669   6
   4  -3  -7 12.6711 18.4171   6
  -4  -3   6 3035.40 105.093   2
   4  -3  -6 2782.61 98.4848  14
  -4  -3   6 2938.30 109.876   5
  -4  -3   6 2821.15 124.068  10
   4  -3  -6 3023.87 116.664   8
  -4  -3   6 2979.63 122.376   6
   4  -3  -6 2898.20 115.606   7
   4  -3  -6 2721.27 95.3031   6
  -4  -3   6 3076.95 122.229   7
  -4  -3   5 117.547 23.4079   2
   4  -3  -5 165.962 29.5538   7
  -4  -3   5 171.449 32.1260   7
   4  -3  -5 134.218 27.5375   8
  -4  -3   5 171.484 32.7757   6
   4  -3  -5 105.368 17.6715   6
  -4  -3   5 121.336 26.3060   5
  -4  -3   4 3642.73 132.203  14
  -4  -3   4 3658.85 124.559   5
  -4  -3   4 3647.27 124.603   2
   4  -3  -4 3529.92 119.938   7
   4  -3  -4 3272.05 97.5537   6
  -4  -3   4 3748.80 126.643   7
  -4  -3   3 117.385 25.5411  10
  -4  -3   3 109.951 24.8685  14
   4  -3  -3 94.5301 23.7296   1
  -4  -3   3 98.2522 20.1682   2
   4  -3  -3 73.5509 8.21894   6
  -4  -3   3 103.982 22.3146   5
  -4  -3   2 3163.36 116.294  14
   4  -3  -2 3151.13 118.687   1
  -4  -3   2 3101.08 120.127  10
  -4  -3   2 3228.91 108.393   9
  -4  -3   2 3306.06 119.301   2
   4  -3  -1 2271.46 90.1663  11
   4  -3  -1 2318.37 94.8461   1
  -4  -3   1 2442.82 96.0489  10
  -4  -3   1 2302.39 86.8557   9
  -4  -3   1 2332.38 92.4229  14
  -4  -3   0 2050.86 82.6332  14
   4  -3   0 1938.14 82.6079  11
  -4  -3   0 1927.96 81.3287  10
  -4  -3   0 1879.36 86.9252   2
   4  -3   0 1917.11 60.3790   6
  -4  -3  -1 287.694 31.5937  14
   4  -3   1 298.875 30.7519  11
  -4  -3  -1 282.289 30.2315   5
  -4  -3  -1 301.199 29.4189  10
   4  -3   1 282.107 21.3001   6
  -4  -3  -1 292.344 33.3956   2
   4  -3   2 6752.85 205.164  11
  -4  -3  -2 6383.59 193.871   5
   4  -3   2 6533.42 186.019   6
   4  -3   2 6645.76 194.203   9
  -4  -3  -2 6247.41 178.230   3
  -4  -3  -3 1074.86 55.2948   5
   4  -3   3 1069.47 54.7170   6
  -4  -3  -3 1069.69 59.8030   9
   4  -3   3 1118.16 55.2079   9
  -4  -3  -3 1062.88 51.2771   3
   4  -3   4 1566.70 80.2846   1
   4  -3   4 1655.31 76.1100   6
   4  -3   4 1635.35 74.4664   7
  -4  -3  -4 1591.74 69.2174   5
  -4  -3  -4 1570.31 79.9993   4
   4  -3   4 1592.43 68.4716   9
  -4  -3  -4 1461.66 75.0398   9
   4  -3   4 1654.26 86.0756   3
   4  -3   5 2655.53 113.435   1
   4  -3   5 2749.16 113.330  11
   4  -3   5 2714.14 110.881   6
  -4  -3  -5 2725.34 110.215   6
  -4  -3  -5 2599.27 102.784   7
   4  -3   5 2687.91 108.750   7
  -4  -3  -5 2639.37 96.0036   5
  -4  -3  -5 2478.05 111.241   4
  -4  -3  -5 2588.02 108.912   9
   4  -3   5 2601.68 96.1742   9
  -4  -3  -5 2678.72 103.459   8
  -4  -3  -5 2428.53 102.186   3
   4  -3   5 2710.54 121.022   3
   4  -3   6 1104.51 70.6933   1
  -4  -3  -6 1008.22 63.6660   7
  -4  -3  -6 1031.02 67.3592   6
   4  -3   6 1157.22 69.2524   7
   4  -3   6 1019.69 67.6710   6
  -4  -3  -6 911.062 67.6655   4
  -4  -3  -6 920.203 62.0274   8
   4  -3   6 1129.35 55.3214   9
  -4  -3  -6 975.676 64.7089   9
  -4  -3  -6 863.119 50.5461  11
   4  -3   6 1079.29 66.6831  11
   4  -3   6 1154.97 77.2509   3
  -4  -3  -6 1023.79 64.5918   3
  -4  -3  -6 1021.75 65.0192   2
  -4  -3  -7 332.131 31.1816  11
   4  -3   7 481.662 46.6251  11
  -4  -3  -7 401.275 44.6448   7
   4  -3   7 422.639 48.3738   7
   4  -3   7 424.156 46.2706   6
  -4  -3  -7 431.118 46.8202   8
   4  -3   7 343.408 33.3256   9
   4  -3   7 433.794 53.7126   3
  -4  -3  -7 391.575 44.9608   3
  -4  -3  -7 466.499 46.6166   2
  -4  -3  -8 78.5422 27.6370   2
   4  -3   8 113.550 34.8795   7
   4  -3   8 98.5799 32.0597   6
   4  -3   8 63.8594 24.4040  11
  -4  -3  -8 54.2790 17.1611  11
  -4  -3  -8 79.5372 15.1616  10
   4  -3   8 65.2963 17.7327  12
   4  -3   8 90.0193 21.7420   9
   4  -3   8 123.032 38.6183   3
   4  -3   9 1430.12 55.9534  12
   4  -3   9 1572.21 88.3098  11
   4  -3   9 1430.21 66.3505   9
  -4  -3  -9 1407.54 81.1674   2
   4  -3   9 1548.87 98.3447   7
   4  -3   9 1675.71 102.289   6
   4  -3  10 32.1024 23.5014  11
   4  -3  10 51.2812 37.1828   7
   4  -3  10 35.8919 30.6243   6
   4  -3  10 20.5376 18.8822   5
  -4  -3 -10 8.06903 20.5305   2
   4  -3  11 354.001 57.9084   7
   4  -3  11 387.116 59.2303   6
  -4  -3 -11 316.780 48.8625  14
   4  -3  12 50.2887 42.3900   7
   4  -3  12 31.7890 37.0595   6
  -4  -3 -12 19.9186 31.5986  14
  -4  -2  13 124.714 51.5287   7
  -4  -2  13 180.726 45.3679   6
  -4  -2  12 115.528 37.4799  10
  -4  -2  12 131.581 39.7726   6
  -4  -2  12 115.963 50.0951   7
  -4  -2  11 352.118 49.9449  10
  -4  -2  11 250.556 33.3074  11
   4  -2 -11 371.836 47.3884  14
  -4  -2  11 328.732 55.4028   7
  -4  -2  11 413.042 55.3924   6
  -4  -2  10 267.122 43.1095  10
  -4  -2  10 168.994 28.7138  11
   4  -2 -10 212.991 36.8747  14
  -4  -2  10 223.432 41.0622   6
  -4  -2  10 153.661 42.7957   7
  -4  -2   9 879.988 70.0005  10
   4  -2  -9 988.582 61.9448  13
   4  -2  -9 1030.74 64.4731  14
   4  -2  -9 817.108 45.5508   5
  -4  -2   9 1084.84 75.1338   6
   4  -2  -9 860.071 60.1819   6
  -4  -2   9 1004.51 78.0047   7
  -4  -2   8 390.112 47.1295  10
   4  -2  -8 344.018 38.7498  13
   4  -2  -8 384.068 39.7567  14
  -4  -2   8 425.963 48.4349   7
  -4  -2   8 307.855 42.7955   6
   4  -2  -8 308.570 30.4003   5
   4  -2  -8 298.651 35.3633   6
   4  -2  -7 3165.89 116.631  13
   4  -2  -7 3199.84 114.734  14
   4  -2  -7 3153.56 107.299   5
  -4  -2   7 3214.06 129.515  10
   4  -2  -7 3025.74 121.594   8
   4  -2  -7 3013.65 107.918   6
  -4  -2   7 3099.06 124.262   6
  -4  -2   7 3390.91 130.660   7
   4  -2  -7 3203.55 125.040   7
   4  -2  -6 81.4080 21.7545  14
  -4  -2   6 68.5767 26.3198  14
   4  -2  -6 31.8188 20.5113  13
  -4  -2   6 51.5324 26.3720  10
  -4  -2   6 67.6004 16.2775   2
   4  -2  -6 59.7268 24.1757   7
  -4  -2   6 58.2063 23.7334   7
   4  -2  -6 43.8348 23.0065   8
   4  -2  -6 28.5808 16.9219   6
   4  -2  -6 60.0397 21.0267   5
  -4  -2   6 49.5716 23.2420   6
  -4  -2   5 5261.26 157.811   2
   4  -2  -5 5035.47 159.493  14
  -4  -2   5 5536.21 177.579  14
   4  -2  -5 5227.34 167.607  13
  -4  -2   5 5303.14 178.829  10
   4  -2  -5 5398.50 167.066   8
  -4  -2   5 5144.35 170.718   6
   4  -2  -5 4872.64 148.389   6
   4  -2  -5 5475.71 167.356   7
  -4  -2   5 5783.93 174.334   7
  -4  -2   4 44.9338 19.3150   6
  -4  -2   4 48.5900 15.7373   2
   4  -2  -4 63.2220 21.0326  13
   4  -2  -4 48.7012 17.6579   7
  -4  -2   4 64.4153 17.6865   7
   4  -2  -3 13039.0 349.889  13
   4  -2  -3 12691.5 336.687   7
  -4  -2   3 13079.0 340.981   7
   4  -2  -3 12681.6 337.550   8
  -4  -2   3 12902.9 347.561   2
  -4  -2   2 1172.83 59.5718  14
  -4  -2   2 1115.37 60.3670  10
  -4  -2   1 7384.85 215.250   9
  -4  -2   1 7575.92 222.943  10
  -4  -2   1 7897.96 222.533  14
  -4  -2   0 2278.12 89.5165  14
   4  -2   0 2345.97 68.1038   4
  -4  -2  -1 1752.77 73.3756   5
   4  -2   1 1888.59 61.8268   6
   4  -2   1 1637.95 75.4783  11
  -4  -2  -2 1468.95 66.1908   5
   4  -2   2 1650.34 63.3091   6
   4  -2   2 1705.08 71.2076   9
   4  -2   2 1544.43 72.5696  11
  -4  -2  -3 2198.53 83.9594   5
  -4  -2  -3 2382.89 93.6122   4
   4  -2   3 2137.01 83.9187   6
  -4  -2  -3 2140.23 78.9028   7
   4  -2   3 2131.61 81.5998   7
   4  -2   3 2300.97 86.4231   9
  -4  -2  -3 2217.70 88.9947   9
  -4  -2  -3 2280.65 80.2534   8
  -4  -2  -3 2146.97 81.8331   3
   4  -2   4 2980.10 113.065   1
   4  -2   4 2879.59 108.616   6
   4  -2   4 2844.74 104.344   7
  -4  -2  -4 2948.56 113.810   4
  -4  -2  -4 2827.04 100.567   8
   4  -2   4 2751.56 101.820   9
  -4  -2  -4 2923.81 109.572   9
   4  -2   4 2918.94 119.877   3
   4  -2   5 333.381 35.7195   1
   4  -2   5 324.932 34.4104  11
  -4  -2  -5 265.685 28.2796  11
  -4  -2  -5 273.644 31.6982   7
   4  -2   5 280.689 32.2554   7
   4  -2   5 283.148 33.6441   6
  -4  -2  -5 366.707 39.5929   4
   4  -2   5 336.263 30.9702   9
  -4  -2  -5 337.692 33.9803   8
  -4  -2  -5 342.424 36.5280   9
  -4  -2  -5 272.242 33.8510   3
   4  -2   5 343.431 41.4488   3
   4  -2   6 1287.11 73.0526   1
  -4  -2  -6 1267.12 59.7104  11
   4  -2   6 1282.82 70.2730  11
   4  -2   6 1413.28 74.3666   7
  -4  -2  -6 1212.08 67.5512   7
   4  -2   6 1304.86 74.2904   6
  -4  -2  -6 1247.07 75.4445   4
   4  -2   6 1220.46 61.9521   9
  -4  -2  -6 1225.20 68.8637   9
  -4  -2  -6 1292.67 67.8776   8
   4  -2   6 1232.81 79.2371   3
  -4  -2  -6 1124.96 69.1275   3
  -4  -2  -7 513.628 34.3938   1
   4  -2   7 447.778 47.7953   1
   4  -2   7 623.550 49.5153  11
   4  -2   7 527.944 33.6361  12
  -4  -2  -7 492.905 37.5569  11
   4  -2   7 477.170 50.3995   6
   4  -2   7 519.049 51.5022   7
  -4  -2  -7 562.491 49.9197   7
  -4  -2  -7 551.510 50.2859   8
  -4  -2  -7 461.030 45.9010   9
   4  -2   7 503.956 40.5714   9
   4  -2   7 594.222 58.5633   3
  -4  -2  -7 516.435 51.9943   3
   4  -2   8 479.906 54.1279   6
   4  -2   8 499.733 53.4882   7
   4  -2   8 523.993 47.5282  11
   4  -2   8 379.819 26.7130  12
  -4  -2  -8 362.164 32.9340  11
   4  -2   8 512.221 41.8801   9
  -4  -2  -8 410.791 32.9637  10
   4  -2   8 444.364 48.9882   1
  -4  -2  -8 405.054 32.7723   1
   4  -2   8 571.577 61.2659   3
   4  -2   9 174.174 41.2574   7
   4  -2   9 83.5296 32.7962   6
   4  -2   9 85.6531 18.2327   5
  -4  -2  -9 132.787 22.5584   1
  -4  -2  -9 96.3381 20.2952  11
   4  -2   9 131.568 26.0387   9
   4  -2   9 161.809 41.8077   3
   4  -2  10 898.523 79.1062   6
   4  -2  10 839.542 77.5085   7
  -4  -2 -10 765.977 57.6728   2
   4  -2  10 953.823 87.1524   3
  -4  -2 -10 706.383 46.7286   1
   4  -2  10 565.098 28.4850   5
   4  -2  11 27.0669 39.8553   7
   4  -2  11 48.3225 35.3767   6
  -4  -2 -11 32.1707 28.1357  14
   4  -2  12 422.481 65.5316   7
   4  -2  12 383.223 62.1432   6
  -4  -2 -12 491.707 61.5632  14
   4  -2  13-52.8598 47.0449   7
  -4  -2 -13-22.4014 35.5376  14
  -4  -1  14 59.0524 38.3103   6
   4  -1 -13 75.2828 40.2676   1
  -4  -1  13 171.585 43.0231   6
   4  -1 -12 768.518 67.6819  14
  -4  -1  12 702.403 63.8889  10
   4  -1 -12 636.732 72.2328   1
  -4  -1  12 744.540 81.4411   7
  -4  -1  12 733.094 70.5952   6
  -4  -1  11 297.846 30.1982  11
   4  -1 -11 478.960 54.4046  14
  -4  -1  11 444.549 60.8690   7
  -4  -1  11 443.185 54.4815   6
  -4  -1  11 367.815 48.2222  10
   4  -1 -10 660.132 48.7162  12
  -4  -1  10 890.687 67.9896  10
  -4  -1  10 653.711 47.3059  11
   4  -1 -10 953.520 68.7023  14
  -4  -1  10 957.677 78.6861   7
  -4  -1  10 944.218 71.0171   6
   4  -1  -9 28.3017 24.4190  13
   4  -1  -9 13.5078 22.0461  12
  -4  -1   9 36.1638 24.9871   6
   4  -1  -9 16.9976 17.0936   5
   4  -1  -9 44.4241 26.1271  14
  -4  -1   9 10.5777 33.1752   7
  -4  -1   9 55.8340 27.1009  10
   4  -1  -8 2091.19 80.3866   5
  -4  -1   8 2317.66 103.545  10
   4  -1  -8 2130.01 96.0884  13
   4  -1  -8 2208.16 99.1639  14
  -4  -1   8 2217.27 101.113   6
  -4  -1   8 2236.03 108.751   7
  -4  -1   7 287.344 37.8075  14
   4  -1  -7 211.007 32.0454  14
   4  -1  -7 256.065 33.4173  13
  -4  -1   7 206.116 33.9895  10
   4  -1  -7 203.860 36.4233   7
  -4  -1   7 297.510 40.0840   7
   4  -1  -7 195.676 33.9016   8
   4  -1  -7 206.223 26.6241   5
  -4  -1   7 291.787 35.1066   6
  -4  -1   6 2823.73 94.3576   2
  -4  -1   6 3332.87 125.207  14
   4  -1  -6 3214.21 119.359  13
   4  -1  -6 3390.90 120.249  14
   4  -1  -6 3311.60 111.698   5
  -4  -1   6 3492.96 128.325  10
   4  -1  -6 3311.04 119.735   8
  -4  -1   6 3320.43 119.243   6
  -4  -1   6 3279.83 123.856   7
   4  -1  -6 3319.24 120.623   7
   4  -1  -5 23.6151 16.9770  14
  -4  -1   5 2.10709 17.6133  14
   4  -1  -5 9.46791 17.8145  13
  -4  -1   5-2.24558 17.9718  10
  -4  -1   5-3.37704 10.4508   2
  -4  -1   5 17.1005 18.3396   7
   4  -1  -5 24.2804 17.5570   7
   4  -1  -5 19.4560 14.1066   5
  -4  -1   5-6.98906 15.4342   6
  -4  -1   4 4339.07 133.731   2
   4  -1  -4 4429.25 141.359  14
  -4  -1   4 4444.37 146.352  14
   4  -1  -4 4264.24 143.381  13
  -4  -1   4 4498.69 149.429  10
   4  -1  -4 4332.61 135.982   8
  -4  -1   4 4340.68 138.148   6
  -4  -1   4 4587.95 140.064   7
   4  -1  -4 4364.89 136.411   7
   4  -1  -4 4414.38 141.418   5
   4  -1  -3 408.115 27.9966   8
   4  -1  -3 415.330 28.6778   7
  -4  -1   3 433.362 29.4728   7
   4  -1  -3 365.675 33.6287  13
   4  -1  -2 4152.93 119.122   8
   4  -1  -2 4245.16 119.019   7
  -4  -1   2 4318.23 120.370   7
   4  -1  -1 1675.79 51.3773   7
  -4  -1   1 1688.26 52.5255   7
  -4  -1   1 1868.92 74.3588  14
  -4  -1   1 1705.60 72.4137  13
  -4  -1   0 11337.8 305.104  14
  -4  -1   0 11415.6 303.729  13
   4  -1   0 11371.3 307.463   9
  -4  -1   0 10699.2 302.362   9
   4  -1   0 11321.8 310.017   1
  -4  -1  -1 2979.14 99.7483  13
  -4  -1  -1 3026.81 82.0965   7
   4  -1   1 2812.23 82.5421   7
   4  -1   1 3149.23 94.5330   4
  -4  -1  -2 2781.77 95.6623  13
   4  -1   2 3153.54 98.2484   4
  -4  -1  -2 2929.31 87.7568   8
   4  -1   2 2941.87 96.8443   6
  -4  -1  -2 2934.43 87.6423   7
   4  -1   2 2870.10 88.8424   7
   4  -1   3 3913.54 137.175   3
  -4  -1  -3 3791.97 117.285  13
   4  -1   3 4080.83 132.322   1
  -4  -1  -3 3988.04 133.318   4
  -4  -1  -3 3994.56 117.876   8
  -4  -1  -3 3933.77 130.262   9
   4  -1   3 3946.02 129.963   9
   4  -1   3 3934.10 127.644   6
  -4  -1  -3 3832.43 117.790   7
   4  -1   3 3727.08 119.249   7
   4  -1   4 1628.24 80.7374   3
  -4  -1  -4 1621.95 59.1665  13
  -4  -1  -4 1519.30 68.1798  11
  -4  -1  -4 1640.90 66.2532   1
  -4  -1  -4 1648.73 76.7268   4
  -4  -1  -4 1755.09 67.6901   8
  -4  -1  -4 1600.93 72.6364   9
   4  -1   4 1623.51 72.0011   9
   4  -1   4 1694.95 75.2654   6
  -4  -1  -4 1578.18 66.2006   7
   4  -1   4 1603.21 68.8684   7
   4  -1   5 2012.90 96.7697   3
  -4  -1  -5 1904.32 86.3981   3
  -4  -1  -5 1939.49 66.9488  13
  -4  -1  -5 1990.94 79.8767  11
  -4  -1  -5 2092.65 78.0292   1
  -4  -1  -5 1936.63 90.1370   4
   4  -1   5 2001.01 83.9512   9
  -4  -1  -5 2081.32 86.0460   9
  -4  -1  -5 1912.54 79.8715   8
   4  -1   5 2041.14 84.7703   7
   4  -1   5 1997.72 90.3621   6
   4  -1   6 716.808 58.0704   3
  -4  -1  -6 609.823 50.2376   3
  -4  -1  -6 637.038 31.0839  13
  -4  -1  -6 559.440 39.9286  11
   4  -1   6 601.659 47.7484   1
  -4  -1  -6 635.527 40.5297   1
  -4  -1  -6 618.863 52.1193   4
   4  -1   6 626.767 44.6471   9
  -4  -1  -6 626.419 47.3117   9
  -4  -1  -6 603.521 44.9669   8
   4  -1   6 611.327 51.6741   6
   4  -1   6 657.453 48.5436   7
  -4  -1  -6 616.749 46.1432   7
   4  -1   7 1347.91 84.5904   3
  -4  -1  -7 1202.75 76.1775   3
  -4  -1  -7 1258.13 61.8415   1
   4  -1   7 1249.33 73.2185   1
  -4  -1  -7 1352.26 47.7136  13
  -4  -1  -7 1225.81 61.3926  11
   4  -1   7 1253.22 56.3187   5
   4  -1   7 1325.44 68.3492   9
  -4  -1  -7 1192.24 69.7842   8
  -4  -1  -7 1274.07 69.8912   9
   4  -1   7 1366.38 81.1492   6
   4  -1   7 1325.60 76.0537   7
  -4  -1  -7 1261.57 73.1034   7
  -4  -1  -8 23.0763 16.7522   1
   4  -1   8 57.4596 24.5411   1
   4  -1   8 85.3375 28.7515   7
   4  -1   8 49.2506 29.6614   6
  -4  -1  -8 38.2541 11.6545  13
   4  -1   8 37.0216 15.6210   5
  -4  -1  -8 46.1588 17.4745  11
  -4  -1  -8 14.6515 17.7626  10
   4  -1   8 33.7367 21.8600   9
  -4  -1  -8 18.7460 22.2049   9
   4  -1   8 27.7124 27.3680   3
   4  -1   9 764.328 74.2842   3
  -4  -1  -9 764.711 51.9734   1
   4  -1   9 664.200 31.5373   5
   4  -1   9 664.367 52.9620   9
  -4  -1  -9 738.579 46.7016  10
  -4  -1  -9 621.933 44.4787  11
  -4  -1  -9 633.032 54.0492   9
   4  -1   9 737.494 69.6564   6
   4  -1   9 726.028 66.4516   7
  -4  -1  -9 522.886 22.8109  13
  -4  -1 -10 141.978 37.9807  14
   4  -1  10 108.180 41.1595   7
   4  -1  10 105.032 41.5809   6
  -4  -1 -10 179.103 28.8901   1
   4  -1  11 778.142 80.8144   6
   4  -1  11 757.131 76.8046   7
  -4  -1 -11 818.203 76.4841  14
   4  -1  12-9.70491 37.7597   7
  -4  -1 -12 18.1912 32.1813  14
  -4  -1 -13 569.386 70.7840  14
  -4  -1 -14-14.8655 35.4705  14
   4   0 -13 262.684 51.3476  14
   4   0 -13 235.525 51.9302   1
  -4   0  13 176.387 44.1331   6
   4   0 -12 206.166 44.2442  14
  -4   0  12 184.892 35.9199  10
   4   0 -12 175.808 45.5437   1
  -4   0  12 170.934 40.8158   6
   4   0 -11 848.021 69.1448  14
  -4   0  11 726.175 63.2334   6
  -4   0  11 724.053 57.4430  10
   4   0 -10 77.3485 25.8518  12
  -4   0  10 123.547 30.0601  10
  -4   0  10 63.7889 16.3218  11
   4   0 -10 148.530 36.4930  14
  -4   0  10 82.2854 39.2730   7
  -4   0  10 159.862 34.2320   6
   4   0  -9 713.128 50.0080  12
   4   0  -9 681.136 42.4756   5
  -4   0   9 775.684 59.2088  10
   4   0  -9 836.656 65.0687  14
  -4   0   9 861.293 70.7400   7
  -4   0   9 879.837 62.2470   6
   4   0  -8 82.9108 23.5606  12
   4   0  -8 64.5488 26.3606  13
  -4   0   8 49.2804 22.9323  10
   4   0  -8 84.6155 19.7535   5
  -4   0   8 71.0106 27.4167  14
   4   0  -8 96.0517 28.8069  14
  -4   0   8 76.4610 27.4645   7
  -4   0   8 31.7514 23.7778   6
   4   0  -7 801.712 55.8671  13
  -4   0   7 705.097 53.3213  14
   4   0  -7 758.945 55.7164  14
   4   0  -7 730.543 44.1867   5
  -4   0   7 756.974 53.7850  10
   4   0  -7 624.645 53.0256   8
  -4   0   7 736.742 56.6834   7
   4   0  -7 731.644 57.2822   7
  -4   0   7 753.575 50.3065   6
  -4   0   6 7.86649 8.50666   2
  -4   0   6 42.2021 20.7519  14
   4   0  -6 25.3938 20.2456  14
   4   0  -6 44.4594 23.3048  13
  -4   0   6 34.6536 19.9764  10
  -4   0   6 24.6638 16.4728   6
   4   0  -6 13.0105 17.3819   5
   4   0  -6 27.6911 20.3683   8
  -4   0   6 42.3454 19.8398   7
   4   0  -6 53.8399 21.3236   7
   4   0  -5 8606.63 242.118   5
  -4   0   5 8638.47 250.316  10
   4   0  -5 8601.93 249.352  13
  -4   0   5 8432.10 247.135  14
   4   0  -5 8772.40 252.313  14
  -4   0   5 8401.33 236.677   6
  -4   0   5 8477.68 246.227   7
   4   0  -5 8231.70 242.431   7
   4   0  -4 24.3562 16.3147  14
  -4   0   4 11.9482 16.3859  14
   4   0  -4 31.0177 18.7949  13
  -4   0   4 31.4972 16.2575  10
   4   0  -4 51.7373 16.2739   8
  -4   0   4 22.9762 14.6354   7
   4   0  -4 26.4203 14.7186   7
  -4   0   4 25.0575 12.4324   6
   4   0  -4 42.4853 16.7426   5
   4   0  -3 1112.89 57.0058  14
   4   0  -3 1167.66 57.6817  13
  -4   0   3 1197.32 56.5194  14
   4   0  -3 1174.58 48.2817   8
  -4   0   3 1081.13 45.3095   6
  -4   0   3 1158.85 49.1562   7
   4   0  -3 1205.69 49.6261   7
   4   0  -3 1102.79 56.3132   5
  -4   0   2 415.830 35.0018  13
   4   0  -2 395.914 22.5923   8
  -4   0   2 384.287 22.0937   7
   4   0  -2 417.238 33.6972   5
   4   0  -1 12085.4 328.504   5
   4   0  -1 12078.6 296.801   8
   4   0  -1 12227.8 328.553   9
  -4   0   1 12495.4 329.105  13
   4   0   0 7.90089 15.9077   9
   4   0   0 32.4815 17.7453   5
  -4   0   0 2.90732 15.2117  13
  -4   0  -1 5968.02 173.222  13
   4   0   1 6306.26 173.981   4
   4   0   1 5864.17 178.452   9
  -4   0  -1 5874.95 148.075   8
  -4   0  -1 5897.88 164.586   6
   4   0   2 4139.16 134.147   3
  -4   0  -2 4100.11 127.486  13
  -4   0  -2 4114.59 133.783  11
   4   0   2 4171.27 131.371   1
  -4   0  -2 4220.18 131.356   4
   4   0   2 4229.59 132.159   4
  -4   0  -2 4163.51 114.042   8
  -4   0  -2 4072.73 131.736   9
   4   0   2 4048.27 115.176   7
  -4   0  -2 4054.01 126.351   6
   4   0   3 4653.92 151.822   3
   4   0   3 4679.94 143.623   1
  -4   0  -3 4736.64 147.340   1
  -4   0  -3 4446.35 137.718  13
  -4   0  -3 4669.84 146.703  11
   4   0   3 4607.34 143.608   5
  -4   0  -3 4749.70 147.081   4
   4   0   3 4820.16 149.466   4
  -4   0  -3 4686.64 133.621   8
  -4   0  -3 4611.26 145.422   9
   4   0   3 4497.37 135.178   7
  -4   0  -3 4574.12 143.703   6
  -4   0  -3 4349.27 133.654   7
   4   0   4 1.60127 12.2185   1
  -4   0  -4 11.9302 12.7420   1
   4   0   4 7.29783 15.1072   7
  -4   0  -4 15.3751 14.3091   7
  -4   0  -4 2.43830 12.4809  13
   4   0   4 13.0790 14.2006   5
  -4   0  -4-3.41286 13.7800  11
   4   0   4 7.73428 15.0462   9
  -4   0  -4 5.00210 15.6857   9
  -4   0  -4-7.85771 15.3515   8
  -4   0  -4-5.68826 17.1188   4
   4   0   4-13.6382 17.8571   3
  -4   0  -5 1180.26 58.1510   1
  -4   0  -5 1088.36 49.5747  13
  -4   0  -5 1045.45 55.1512  11
   4   0   5 1137.15 57.9728   7
   4   0   5 957.754 49.4672   5
  -4   0  -5 1129.01 62.4857   4
  -4   0  -5 1098.29 55.8239   8
   4   0   5 1081.76 60.1930   9
  -4   0  -5 1076.82 56.9744   9
   4   0   5 1008.43 63.8599   3
  -4   0  -6 7732.80 220.355   1
  -4   0  -6 7066.64 213.530  11
   4   0   6 7301.87 223.431   7
  -4   0  -6 7150.37 219.352   7
   4   0   6 6930.30 202.471   5
  -4   0  -6 7364.81 227.935   4
  -4   0  -6 7238.79 217.738   8
   4   0   6 7106.46 222.876   9
  -4   0  -6 7547.91 217.517   9
   4   0   6 7032.77 236.951   3
  -4   0  -7 1642.39 76.7421   1
   4   0   7 1593.90 77.4021   1
   4   0   7 1621.19 83.5656   7
  -4   0  -7 1622.34 82.0158   7
   4   0   7 1362.53 48.4514  12
  -4   0  -7 1626.13 72.9066  11
  -4   0  -7 1678.16 86.7774   4
   4   0   7 1535.30 61.0858   5
  -4   0  -7 1667.67 81.4136   8
  -4   0  -7 1564.79 74.6896   9
   4   0   7 1570.50 79.5853   9
   4   0   7 1746.04 95.0754   3
   4   0   8 2506.21 114.394   7
   4   0   8 2185.62 75.8275   5
  -4   0  -8 2322.13 95.1003  11
   4   0   8 2335.28 104.860   9
  -4   0  -8 2401.29 96.7528  10
   4   0   8 2419.79 122.834   3
  -4   0  -8 2445.94 99.4990   9
  -4   0  -8 2530.61 103.601   1
  -4   0  -9 132.682 26.6074  10
  -4   0  -9 100.106 23.8856  11
   4   0   9 84.9996 28.4984   9
  -4   0  -9 132.034 29.0050   9
   4   0   9 88.4058 36.6933   7
  -4   0  -9 106.595 27.3242   1
  -4   0 -10 1237.17 55.2603  13
  -4   0 -10 1481.64 96.4539  14
   4   0  10 1403.70 95.5508   7
  -4   0 -10 1303.92 78.2072   1
  -4   0 -11 2.94242 21.0622   1
  -4   0 -11-22.4660 32.1625  14
  -4   0 -12 1004.72 90.3609  14
  -4   0 -13 10.1383 34.1618  14
   4   1 -14 57.0661 43.1571   1
   4   1 -14 121.173 45.0308  14
   4   1 -13 107.442 42.7921   1
   4   1 -13 107.541 44.1268  14
   4   1 -12 574.365 73.0059   1
   4   1 -12 731.430 73.7835  14
   4   1 -11 522.082 60.9397  14
  -4   1  11 417.351 43.7949  10
   4   1 -11 368.462 59.6390   1
  -4   1  11 440.292 52.0618   6
   4   1 -10 785.904 52.9394  12
   4   1 -10 979.235 76.8406  14
  -4   1  10 823.652 64.5684   6
  -4   1  10 785.834 57.6805  10
   4   1  -9 23.0073 21.0584  12
  -4   1   9 40.4636 22.7618  10
  -4   1   9 13.8684 10.0075  11
  -4   1   9 20.8026 10.0820  11
   4   1  -9 20.4333 25.9908  14
  -4   1   9 46.8778 23.0093   6
  -4   1   8 2053.93 96.3760  14
   4   1  -8 2203.86 101.712  13
   4   1  -8 2273.65 108.204  14
   4   1  -8 2139.76 92.1435  12
   4   1  -8 2224.67 86.2992   5
  -4   1   8 2221.34 93.6823  10
  -4   1   8 2142.64 93.8463   6
   4   1  -8 2159.69 104.461   3
   4   1  -7 293.641 37.0802   3
  -4   1   7 260.426 33.2016  14
   4   1  -7 224.256 37.0490  14
   4   1  -7 240.268 31.9458  12
   4   1  -7 257.544 36.0429  13
   4   1  -7 208.555 28.0786   5
  -4   1   7 193.608 30.4126  10
   4   1  -7 203.119 36.4965   8
  -4   1   7 234.883 30.2059   6
  -4   1   6 3296.74 114.230  14
   4   1  -6 3290.96 120.326  13
   4   1  -6 3316.07 126.316  14
   4   1  -6 3288.39 116.911  12
   4   1  -6 3562.92 113.056   5
  -4   1   6 3192.72 113.100  10
  -4   1   6 3224.43 106.186   6
   4   1  -5 16.7207 21.1581  13
  -4   1   5 5.43494 16.5888  10
   4   1  -5 12.2819 17.9623   5
  -4   1   5-8.40796 15.2906  14
   4   1  -5 7.00047 17.8059  14
  -4   1   5 7.17271 12.5741   6
   4   1  -4 4405.87 141.367   5
  -4   1   4 4040.39 144.185  13
  -4   1   4 4141.39 135.518  14
   4   1  -4 4280.59 144.945  13
   4   1  -4 4525.63 149.342  14
   4   1  -4 4275.60 138.767   9
  -4   1   4 4402.77 123.145   6
   4   1  -3 467.378 35.9052   5
   4   1  -3 426.039 37.2020  14
  -4   1   3 440.691 31.9969  14
   4   1  -3 441.195 34.6192   9
  -4   1   3 440.410 21.2125   6
   4   1  -2 4210.87 137.474   9
   4   1  -2 4160.18 139.990   5
  -4   1   2 4474.73 134.870  14
  -4   1   2 4367.65 141.704  13
   4   1  -2 4426.33 143.026  14
   4   1  -1 1543.69 68.0489   9
  -4   1   1 1621.60 48.8677   8
   4   1  -1 1505.78 68.6563   5
  -4   1   1 1559.67 68.4838  13
   4   1   0 10895.5 305.427   5
   4   1   0 11140.1 274.851   8
  -4   1   0 11316.0 274.052   8
   4   1   0 10946.9 304.815   9
  -4   1   0 11057.6 279.488   6
  -4   1   0 11279.3 303.631  13
   4   1   1 2951.48 94.9255   3
   4   1   1 2900.21 96.7488  13
  -4   1  -1 2912.20 101.939  13
   4   1   1 2904.37 105.269   9
   4   1   1 2996.14 81.5479   8
  -4   1  -1 2865.24 88.8639   6
   4   1   2 2942.09 99.3535   3
   4   1   2 2872.67 93.7063  13
  -4   1  -2 2900.05 100.735  13
  -4   1  -2 2831.68 93.8912   6
  -4   1  -2 2779.01 94.2494   4
   4   1   2 2764.42 105.365   9
  -4   1  -2 2973.38 107.506   1
   4   1   2 3012.09 98.0263   1
   4   1   3 3676.40 116.690   1
  -4   1  -3 3848.27 130.166   1
  -4   1  -3 3719.46 126.344  11
  -4   1  -3 3768.00 121.792   6
   4   1   3 3782.11 123.189   5
  -4   1  -3 3755.34 120.975   4
  -4   1  -3 3796.62 122.905   9
   4   1   3 3564.62 125.046   3
  -4   1  -4 1656.64 73.0176  11
   4   1   4 1672.12 77.5978   3
  -4   1  -4 1631.90 71.8275   4
   4   1   4 1476.83 66.0212   5
   4   1   4 1542.72 75.8661   9
  -4   1  -4 1703.77 70.4161   9
   4   1   4 1730.21 65.6725   1
  -4   1  -4 1734.50 76.9027   1
  -4   1  -5 2043.30 88.3103   1
   4   1   5 2114.16 77.6003   1
  -4   1  -5 1921.88 83.1265  11
   4   1   5 1896.79 70.4191  12
  -4   1  -5 2067.90 88.1496   6
  -4   1  -5 1997.60 86.1443   4
   4   1   5 2014.96 76.5494   5
  -4   1  -5 1991.72 80.1472   9
   4   1   5 2063.60 91.3927   9
   4   1   5 1944.27 91.3399   3
  -4   1  -6 686.667 49.7881   1
   4   1   6 687.134 42.4027   1
  -4   1  -6 633.356 51.3200   6
   4   1   6 634.273 32.3184  12
  -4   1  -6 650.462 46.3282  11
  -4   1  -6 664.252 51.6548   4
   4   1   6 634.823 37.7438   5
  -4   1  -6 741.209 49.2532   8
   4   1   6 643.225 50.5714   9
  -4   1  -6 658.126 44.1186   9
   4   1   6 619.592 54.2335   3
   4   1   7 1214.51 77.8936   3
   4   1   7 1137.69 70.2413   9
  -4   1  -7 1084.03 61.7757  11
  -4   1  -7 1277.00 73.0794   4
   4   1   7 1163.77 49.5129   5
  -4   1  -7 1259.28 69.4034   8
  -4   1  -7 1167.29 59.6522   9
  -4   1  -7 1282.71 69.9308   1
  -4   1  -8 56.0111 20.8173  11
  -4   1  -8 24.8602 21.5579  10
   4   1   8 28.4606 13.9045   5
   4   1   8 46.8501 24.8964   9
  -4   1  -8 46.6056 22.1471   9
  -4   1  -8 39.6026 21.6036   1
  -4   1  -9 695.337 51.1167   9
  -4   1  -9 842.927 59.6959  10
  -4   1  -9 692.450 54.1547  11
   4   1   9 802.138 64.1221   9
  -4   1  -9 909.863 64.7653   1
  -4   1 -10 130.628 34.5377   1
  -4   1 -10 184.000 43.2210  14
  -4   1 -11 767.683 69.8266   1
  -4   1 -11 731.686 76.6510  14
  -4   1 -12 3.61164 28.3833   1
  -4   1 -12 85.9587 38.9738  14
  -4   1 -13 629.154 76.2921  14
   4   2 -13 171.796 48.0499   1
   4   2 -13 207.733 51.0109  14
   4   2 -12 86.4041 42.2270   1
   4   2 -12 114.763 41.8093  14
  -4   2  11 242.129 31.6839  10
   4   2 -11 362.051 55.8161  14
   4   2 -11 301.357 56.4797   1
   4   2 -10 224.542 32.2795  12
   4   2 -10 171.773 26.4355   9
   4   2 -10 152.551 40.6308  14
  -4   2  10 163.267 28.0917  10
   4   2  -9 878.194 58.4872  12
  -4   2   9 868.064 54.3707  10
   4   2  -9 885.048 51.1876   9
   4   2  -9 1013.38 76.3749  14
  -4   2   8 317.662 36.3258  14
   4   2  -8 272.998 42.9210  14
   4   2  -8 306.035 36.4289  12
   4   2  -8 272.193 32.9899   5
  -4   2   8 276.701 32.0582  10
   4   2  -8 280.273 30.7659   9
   4   2  -8 336.155 40.9038   3
  -4   2   7 2882.66 107.648  14
   4   2  -7 3246.77 124.335  13
   4   2  -7 3308.10 133.769  14
   4   2  -7 3284.55 119.032  12
   4   2  -7 3341.03 113.558   5
  -4   2   7 3089.94 108.163  10
   4   2  -7 3185.37 104.913   9
   4   2  -7 3341.20 120.428   3
  -4   2   6 63.5904 12.7755   2
  -4   2   6 65.0911 18.8044  14
   4   2  -6 65.3599 25.8793  14
   4   2  -6 61.1696 21.6396  12
   4   2  -6 38.5653 24.7174  13
   4   2  -6 69.2843 21.8322   5
  -4   2   6 50.6992 19.0144  10
  -4   2   6 54.1090 13.1262  11
   4   2  -6 70.9913 18.9230   9
   4   2  -6 64.4582 20.3780   3
   4   2  -5 5324.15 172.288  13
  -4   2   5 5232.06 169.631  13
  -4   2   5 5050.37 155.014  14
   4   2  -5 5424.31 179.400  14
   4   2  -5 5450.24 172.471  12
  -4   2   5 4649.04 146.321  11
   4   2  -5 5371.72 166.202   5
   4   2  -5 5139.71 156.807   9
   4   2  -5 5300.12 159.412   3
  -4   2   5 4823.95 145.922   2
  -4   2   4 65.0877 16.4396  14
   4   2  -4 42.5268 20.9139  14
   4   2  -4 57.5326 19.6942  12
  -4   2   4 80.8783 21.6436  13
   4   2  -4 57.8928 20.6163  13
   4   2  -4 69.6516 20.1812   5
  -4   2   4 47.6956 13.7483  11
  -4   2   4 69.2714 19.5620   8
   4   2  -4 52.0825 18.2901   9
  -4   2   4 50.6093 14.7693   2
   4   2  -3 13067.4 349.406   5
   4   2  -3 13196.2 352.878  12
  -4   2   3 12338.0 335.055  11
  -4   2   3 12581.4 333.920   8
   4   2  -3 12649.4 339.517   9
  -4   2   3 12500.1 331.770  14
   4   2  -2 1153.85 59.6772   5
   4   2  -2 1134.87 60.1214  12
  -4   2   2 1114.79 52.5889  11
  -4   2   2 1142.93 47.3812   8
   4   2  -2 1122.92 55.1610   9
  -4   2   2 1143.46 50.4606  14
   4   2  -1 7697.25 227.743   5
  -4   2   1 7586.22 219.763  11
   4   2  -1 7590.04 227.715  12
  -4   2   1 7969.04 204.973   8
   4   2  -1 7677.33 222.569   9
  -4   2   1 7728.10 225.085  13
  -4   2   0 2325.89 87.0433  13
   4   2   0 2086.13 79.8063  13
   4   2   0 2132.37 86.7688   5
   4   2   0 2241.54 86.3215   9
   4   2   0 2052.90 65.3775   3
   4   2   1 1898.49 65.1541   3
   4   2   1 1921.62 71.8309  13
  -4   2  -1 1941.03 79.4306  13
  -4   2  -1 2016.00 85.1482   1
   4   2   1 1829.06 80.2192   9
   4   2   1 1968.43 64.5641   8
  -4   2  -1 1819.64 64.0118   6
   4   2   2 1536.22 61.9015   3
   4   2   2 1472.02 58.4049  13
   4   2   2 1552.59 67.8950  12
   4   2   2 1521.66 60.0187   1
  -4   2  -2 1652.30 75.7705   1
  -4   2  -2 1632.80 58.4695   4
   4   2   2 1508.23 72.8303   9
   4   2   2 1552.40 58.3511   8
  -4   2  -2 1581.41 61.5834   6
   4   2   3 2300.27 87.5628   3
   4   2   3 2244.84 75.4824  13
  -4   2  -3 2270.20 91.6671  11
   4   2   3 2238.83 85.4705  12
  -4   2  -3 2438.16 87.7717   6
  -4   2  -3 2316.19 82.0154   4
   4   2   3 2368.23 89.4679   5
   4   2   3 2284.93 82.4441   8
   4   2   3 2339.92 77.6518   1
  -4   2  -3 2348.95 97.2218   1
   4   2   4 2829.86 106.271   3
   4   2   4 2632.34 94.4030  12
  -4   2  -4 2897.15 107.073  11
   4   2   4 2703.64 98.7644   8
  -4   2  -4 2842.15 112.191   1
   4   2   4 2740.81 87.2149   1
  -4   2  -4 2785.17 99.1983   4
   4   2   4 2567.76 97.5477   5
   4   2   5 305.216 25.8437  12
  -4   2  -5 271.962 32.5198  11
  -4   2  -5 296.565 34.7063   6
  -4   2  -5 327.193 33.4242   4
   4   2   5 345.819 30.6011   5
   4   2   5 266.048 34.9396   9
  -4   2  -5 307.243 35.8459   1
   4   2   5 246.474 22.4579   1
  -4   2  -6 1347.40 73.7781   6
   4   2   6 1224.40 51.2724  12
   4   2   6 1290.53 57.9202   5
  -4   2  -6 1385.28 71.3677   4
   4   2   6 1362.35 77.2557   9
  -4   2  -6 1308.36 69.3535  11
  -4   2  -6 1263.10 60.0064   9
  -4   2  -6 1451.35 77.8518   1
   4   2   6 1215.65 53.6017   1
   4   2   7 409.360 24.8997  12
   4   2   7 595.340 53.6894   9
  -4   2  -7 585.214 47.7495  11
  -4   2  -7 492.327 47.1026  10
  -4   2  -7 588.579 50.7217   1
  -4   2  -7 500.160 39.2045   9
  -4   2  -7 515.339 48.2299   4
   4   2   7 508.836 34.7648   5
  -4   2  -8 383.803 41.7355  11
  -4   2  -8 431.429 46.5465  10
  -4   2  -8 353.135 39.9851   2
   4   2   8 358.534 47.6734   9
  -4   2  -8 406.801 36.9065   9
  -4   2  -8 540.371 52.4501   1
  -4   2  -9 159.969 33.9453   1
  -4   2  -9 135.272 29.5047  11
  -4   2  -9 143.122 25.9994   9
   4   2   9 121.796 36.1788   9
  -4   2  -9 133.560 29.9150   2
  -4   2  -9 172.825 40.5728  14
  -4   2 -10 985.924 84.7329  14
  -4   2 -10 890.155 73.7874   1
  -4   2 -11 19.8275 32.9756  14
  -4   2 -11-31.4184 32.8293   1
  -4   2 -12 471.008 68.1733  14
  -4   2 -12 431.114 57.0541   1
  -4   2 -13 16.7002 39.3930  14
   4   3 -13 258.198 56.8685  14
   4   3 -13 241.205 58.8676   1
   4   3 -12 760.552 80.1603  14
   4   3 -12 790.419 89.5265   1
   4   3 -11 406.979 60.1674  14
   4   3 -11 357.061 60.9415   1
  -4   3  10 573.907 40.1676  10
   4   3 -10 878.212 78.2472  14
   4   3 -10 906.018 87.4157   1
   4   3 -10 590.904 52.4544  12
  -4   3   9 191.132 26.6404  10
   4   3  -9 170.159 32.8610  12
   4   3  -9 197.862 22.2532   9
   4   3  -9 200.775 44.4244  14
   4   3  -8 3936.85 162.005  14
   4   3  -8 4068.20 144.942  12
  -4   3   8 3576.67 123.863  10
   4   3  -8 3730.11 116.716   9
   4   3  -8 3795.66 143.337   3
  -4   3   7 23.8226 11.2542   2
  -4   3   7 18.1019 15.5337  14
   4   3  -7 3.40115 22.0249  14
   4   3  -7 40.8319 21.6877  12
   4   3  -7 22.6060 24.1524   5
  -4   3   7 47.3451 18.9788  10
  -4   3   7 7.97033 9.38137  11
   4   3  -7 25.3011 16.1575   9
   4   3  -7-24.0766 29.4084   3
  -4   3   6 2926.24 99.6454  14
  -4   3   6 3004.81 116.807  13
   4   3  -6 3223.40 131.952  14
   4   3  -6 3079.91 120.375  12
   4   3  -6 3241.20 118.313   5
   4   3  -6 2985.09 99.1711   9
  -4   3   6 2944.58 94.9774   2
   4   3  -6 3101.33 109.561   3
  -4   3   5 134.512 20.6884   2
  -4   3   5 107.235 19.0419  14
   4   3  -5 148.382 32.7224  14
   4   3  -5 137.146 29.1019  12
  -4   3   5 124.187 27.0725  13
   4   3  -5 144.636 29.1099   5
  -4   3   5 91.6444 16.1591  11
  -4   3   5 105.412 26.5331   8
   4   3  -5 160.959 23.8454   9
   4   3  -5 152.174 23.1292   3
  -4   3   4 3623.20 128.372  13
  -4   3   4 3357.10 108.113  14
   4   3  -4 3581.69 136.840  14
   4   3  -4 3683.57 134.185  12
  -4   3   4 3422.52 112.494  11
   4   3  -4 3605.84 130.134   5
  -4   3   4 3501.93 123.791   8
   4   3  -4 3652.82 117.435   9
   4   3  -4 3680.19 110.128   3
  -4   3   4 3514.47 117.802   2
  -4   3   3 113.465 20.7776   2
   4   3  -3 130.079 14.8349   3
   4   3  -3 113.193 24.5790  14
  -4   3   3 128.614 17.6896  14
   4   3  -3 139.946 26.3857  12
  -4   3   3 133.257 24.1981  13
   4   3  -3 137.006 25.0312   5
  -4   3   3 134.620 19.6752  11
   4   3  -3 153.302 21.5208   9
  -4   3   3 127.942 20.8110   8
  -4   3   2 2951.43 92.4889  14
   4   3  -2 3145.04 114.914  12
  -4   3   2 2982.38 101.149  11
  -4   3   2 3080.29 98.6308   8
   4   3  -2 3007.33 103.299   9
   4   3  -2 2656.10 74.7929   3
   4   3  -2 2937.28 111.354   5
   4   3  -1 2341.85 96.2130   5
  -4   3   1 2304.98 81.0469   8
   4   3  -1 2326.90 90.3536   9
   4   3  -1 2300.94 95.8952  12
   4   3   0 2088.65 80.1437  13
   4   3   0 2094.52 85.9105   9
  -4   3   0 1977.26 89.9116   1
   4   3   0 2058.17 88.6714   5
   4   3   1 302.196 27.4510  13
   4   3   1 350.256 36.5387   4
   4   3   1 324.557 26.9384   8
   4   3   1 287.936 31.1847   9
  -4   3  -1 347.936 34.7979   1
  -4   3  -2 6355.33 202.531   1
   4   3   2 6298.75 191.900  12
   4   3   2 6222.36 176.753  13
   4   3   2 6447.11 203.817   4
   4   3   2 6261.50 193.601   5
  -4   3  -2 6178.27 168.713   4
   4   3   2 6406.40 182.193   8
   4   3   2 6511.45 200.949   9
  -4   3  -2 6136.07 180.603   6
   4   3   3 1097.63 44.4946  13
   4   3   3 1109.73 56.2818  12
  -4   3  -3 1158.94 61.6645  11
   4   3   3 1192.91 68.1291   4
  -4   3  -3 1121.53 47.9114   4
   4   3   3 1025.15 56.9232   5
   4   3   3 1044.45 62.8731   9
   4   3   3 1031.74 52.6473   8
   4   3   3 994.563 41.3298   1
  -4   3  -3 1098.35 64.6931   1
  -4   3  -4 1546.91 80.6446   1
   4   3   4 1310.21 47.8779   1
  -4   3  -4 1523.11 71.5055   6
   4   3   4 1438.05 65.1726  12
   4   3   4 1497.83 69.8139   5
   4   3   4 1553.44 82.1719   4
  -4   3  -4 1583.12 65.6500   4
  -4   3  -4 1473.06 73.7863  11
   4   3   4 1561.14 70.6141   8
  -4   3  -4 1577.08 78.0319   2
  -4   3  -5 2542.09 113.062   1
   4   3   5 2174.58 69.9171   1
  -4   3  -5 2627.13 104.257   6
   4   3   5 2553.35 90.2125  12
  -4   3  -5 2555.89 96.5054   4
   4   3   5 2460.53 93.9559   5
   4   3   5 2406.17 113.183   4
  -4   3  -5 2663.66 105.930  11
   4   3   5 2416.22 100.507   8
  -4   3  -5 2541.86 106.455   2
  -4   3  -6 1087.41 67.5097   6
   4   3   6 992.348 49.2008  12
  -4   3  -6 974.946 60.0126   4
   4   3   6 979.199 54.1627   5
  -4   3  -6 1105.79 66.6012  11
   4   3   6 1092.62 71.8115   9
  -4   3  -6 1140.80 68.0611   2
  -4   3  -6 1189.83 73.6102   1
  -4   3  -7 395.411 43.0844   2
   4   3   7 318.626 26.9381  12
  -4   3  -7 454.443 44.9648  11
  -4   3  -7 397.948 46.6239  10
   4   3   7 364.745 47.4130   9
  -4   3  -7 428.334 44.1757   4
  -4   3  -7 441.153 48.7446   1
  -4   3  -8 105.598 32.2403   1
   4   3   8 72.9792 30.8345   9
  -4   3  -8 78.8296 26.3899   2
  -4   3  -8 129.129 34.0827  14
  -4   3  -9 1442.12 99.9710  14
  -4   3  -9 1437.37 83.3289   2
  -4   3 -10 48.0832 33.2341  14
  -4   3 -10 24.8464 28.9720   1
  -4   3 -11 269.198 52.9767  14
  -4   3 -11 384.808 54.9696   1
  -4   3 -12 11.0287 37.1640  14
  -4   3 -12 27.4114 33.8010   1
  -4   3 -13 574.688 69.5665   1
   4   4 -12 312.979 59.4059  14
   4   4 -12 243.648 56.7902   1
   4   4 -11 642.577 74.5947  14
   4   4 -11 427.562 69.6145   1
  -4   4  10 20.3086 12.8786  10
   4   4 -10 74.0698 35.3284  14
   4   4 -10 19.2881 26.2665  12
   4   4 -10 11.4030 30.7677   1
  -4   4   9 701.862 41.8148  10
   4   4  -9 853.426 87.1920   1
   4   4  -9 929.019 65.8262  12
   4   4  -8 113.563 37.7592   1
   4   4  -8 74.5888 27.6304  12
   4   4  -8 175.874 41.4483  14
  -4   4   8 89.2582 19.8192  10
   4   4  -8 108.855 15.2722   9
   4   4  -8 124.771 31.2801   3
   4   4  -7 1094.47 69.1885  12
  -4   4   7 930.647 60.9428  13
   4   4  -7 1054.80 75.9601  14
  -4   4   7 896.963 49.1147  10
   4   4  -7 1011.09 43.3216   9
  -4   4   7 825.890 44.8241   2
   4   4  -7 973.334 59.5716   3
  -4   4   6 184.360 24.8091   2
  -4   4   6 146.438 18.6800  14
   4   4  -6 176.759 37.0963  14
  -4   4   6 178.992 30.3856  13
   4   4  -6 215.879 35.0055  12
  -4   4   6 166.868 19.5046  11
   4   4  -6 174.368 22.1186   9
  -4   4   6 198.942 34.9186   8
   4   4  -6 185.470 27.9131   3
  -4   4   5 3324.87 125.113  13
  -4   4   5 2978.86 96.0729  14
   4   4  -5 3639.74 142.664  14
   4   4  -5 3460.10 134.435  12
   4   4  -5 3515.71 131.650   5
  -4   4   5 2999.81 103.818  11
   4   4  -5 3320.75 131.575  10
   4   4  -5 3433.29 108.373   9
  -4   4   5 3349.17 127.677   8
   4   4  -5 3406.02 107.875   3
   4   4  -4 57.8914 14.2677   3
  -4   4   4 65.3355 13.1613  14
   4   4  -4 63.2443 23.6674  14
  -4   4   4 34.9454 19.0540  13
   4   4  -4 56.2641 22.9914  12
   4   4  -4 87.5532 24.8944   5
  -4   4   4 59.1701 15.9444  11
   4   4  -4 63.0687 18.0318   9
  -4   4   4 48.4345 21.4845   8
   4   4  -3 1931.55 89.6714   5
   4   4  -3 1881.59 90.4382  12
   4   4  -3 1963.89 77.5334   9
  -4   4   3 1902.23 80.9682   8
  -4   4   3 1829.13 83.7034  13
  -4   4   3 1804.00 62.6327  14
   4   4  -3 1907.01 92.0249  14
   4   4  -2 670.514 50.7180   5
   4   4  -2 709.098 51.8025  12
   4   4  -2 772.004 46.4768   9
  -4   4   2 701.298 44.6583   8
  -4   4   2 728.245 35.2086  14
   4   4  -1 3473.73 131.479  12
  -4   4   1 3506.58 127.601   2
   4   4  -1 3306.14 129.405   5
   4   4  -1 3512.75 122.955   9
  -4   4   0 63.5660 18.3863  11
   4   4   0 69.9579 20.5253   9
   4   4   0 71.4925 21.5765   5
  -4   4  -1 2235.33 100.406   1
   4   4   1 2259.35 84.8474  13
   4   4   1 2329.41 102.424   4
   4   4   1 2310.75 97.7781   9
  -4   4  -1 2198.54 97.5878   2
  -4   4  -2 2210.00 99.1186   1
   4   4   2 2030.42 75.3989  13
   4   4   2 2189.54 91.4910  12
  -4   4  -2 2024.81 63.7134   4
   4   4   2 1961.42 95.3925   4
   4   4   2 2119.99 92.0084   5
  -4   4  -2 1977.22 89.5464  11
   4   4   2 1930.86 92.7458   9
   4   4   2 2049.10 83.3791   8
  -4   4  -2 2177.40 95.3113   2
  -4   4  -3 2770.97 118.358   1
   4   4   3 2346.08 78.1767   1
   4   4   3 2685.09 87.1715  13
   4   4   3 3072.05 109.713  12
   4   4   3 2621.20 117.063   4
  -4   4  -3 2816.98 88.5073   4
   4   4   3 2834.17 109.732   5
  -4   4  -3 2941.51 112.828  11
   4   4   3 2788.59 103.986   8
   4   4   3 2739.74 116.683   9
  -4   4  -3 2773.99 113.530   2
  -4   4  -4 1076.08 70.4570   1
   4   4   4 924.113 38.2314  13
   4   4   4 1010.66 56.5464  12
   4   4   4 1056.60 69.5694   4
  -4   4  -4 981.272 49.8500   4
   4   4   4 1010.95 59.3990   5
  -4   4  -4 1103.42 65.8237  11
   4   4   4 960.222 66.0455   9
   4   4   4 1066.68 60.0183   8
  -4   4  -4 1043.57 65.6233   2
  -4   4  -5 857.024 63.5837   1
  -4   4  -5 686.036 53.6794   6
   4   4   5 757.701 46.9554  12
  -4   4  -5 763.509 48.5554   4
   4   4   5 723.682 50.1036   5
   4   4   5 787.383 62.9799   4
  -4   4  -5 836.906 59.3669  11
   4   4   5 826.256 56.7445   8
  -4   4  -5 841.608 60.1353   2
  -4   4  -6 2287.02 114.597   1
  -4   4  -6 2454.55 108.195   6
   4   4   6 2123.12 86.6749  12
  -4   4  -6 2288.94 96.7988   4
   4   4   6 2465.21 120.383   4
  -4   4  -6 2376.50 107.612  11
   4   4   6 2265.97 105.008   8
  -4   4  -6 2235.85 104.836   2
  -4   4  -7 1255.40 85.0903  14
   4   4   7 1072.33 54.6051  12
   4   4   7 1414.30 89.7882   9
  -4   4  -7 1333.87 75.1012   4
  -4   4  -7 1363.86 78.1698   2
  -4   4  -7 1241.64 83.7195   1
   4   4   8 2283.77 120.723   9
  -4   4  -8 2090.54 116.007   1
  -4   4  -8 2062.85 117.840  14
  -4   4  -9 159.649 39.6542   1
  -4   4  -9 125.140 38.8894  14
  -4   4 -10 1233.08 93.5642   1
  -4   4 -10 1011.16 91.3662  14
  -4   4 -11-19.2343 38.8328   1
  -4   4 -11 75.5958 39.0898  14
  -4   4 -12 416.206 63.8782   1
  -4   4 -12 550.044 74.5374  14
  -4   4 -13 20.6250 36.0629   1
   4   5 -12 324.653 65.1851   1
   4   5 -12 408.397 67.1532  14
   4   5 -11 143.352 47.2665   1
   4   5 -11 214.640 51.9459  14
   4   5 -10 844.352 92.4194   1
   4   5 -10 966.945 87.7424  14
   4   5 -10 909.027 69.2691  12
  -4   5   9 40.2638 11.7767  10
   4   5  -9 134.691 42.8442   1
   4   5  -9 143.137 40.1934  14
   4   5  -9 79.5045 31.4814  12
   4   5  -8 1021.70 72.2902  12
   4   5  -8 987.533 88.3475   1
  -4   5   8 761.122 41.9853  10
   4   5  -8 1116.60 85.3282  14
  -4   5   8 859.198 47.2097   2
   4   5  -7 419.518 50.0355  12
   4   5  -7 453.595 61.6925   1
   4   5  -7 341.649 22.8025   9
  -4   5   7 411.654 51.3057   8
  -4   5   7 538.427 47.5558  13
   4   5  -7 561.719 61.0900  14
   4   5  -6 393.895 49.8883  14
  -4   5   6 309.021 38.2855  13
   4   5  -6 410.811 46.9302  12
   4   5  -6 366.527 27.8483   9
  -4   5   6 347.612 43.8782   8
   4   5  -5-3.40415 22.6548  14
  -4   5   5 7.11639 19.1678  13
   4   5  -5 77.4485 28.9592  12
  -4   5   5 30.7791 18.9310   2
  -4   5   5 32.2532 14.3421  11
   4   5  -5 35.4772 16.1811   9
  -4   5   5 37.6534 26.6086   8
  -4   5   4 1911.38 84.2470  13
   4   5  -4 1962.80 94.1933  12
   4   5  -4 1748.00 87.4921  10
   4   5  -4 1879.93 70.5215   9
  -4   5   4 1794.99 84.0591   8
  -4   5   4 1891.24 81.4867   2
  -4   5   3 172.928 28.7318   2
  -4   5   3 152.650 15.3001  14
  -4   5   3 204.306 30.6222  13
   4   5  -3 206.684 33.9803  12
   4   5  -3 220.099 33.0448   5
   4   5  -3 187.080 25.5899   9
  -4   5   3 171.052 29.4460   8
   4   5  -2 1584.84 86.1131  12
  -4   5   2 1595.19 80.1736  13
   4   5  -2 1543.25 84.5037   5
  -4   5   2 1667.75 75.5028  11
  -4   5   2 1709.97 78.6208   8
   4   5  -2 1677.99 75.5579   9
  -4   5   2 1648.79 81.7762   2
   4   5  -1 276.215 35.3123  14
   4   5  -1 246.149 36.1826  12
   4   5  -1 283.507 37.5482   5
   4   5  -1 299.134 33.1476   9
  -4   5   1 293.377 36.3843   2
  -4   5   1 249.555 30.8007  11
   4   5   0 5126.27 171.889   9
   4   5   0 5060.50 177.697   5
  -4   5   0 4956.23 168.292  11
   4   5   1 1361.65 79.4341   4
   4   5   1 1299.13 73.2800   9
  -4   5  -1 1420.03 76.7888   2
  -4   5  -2 2945.71 120.627   2
   4   5   2 2981.90 117.401  12
  -4   5  -2 2692.85 80.0982   4
   4   5   2 2875.99 117.532   5
   4   5   2 2736.21 123.034   4
   4   5   2 2893.74 121.562   9
   4   5   2 2702.11 108.931   8
  -4   5  -2 2953.36 126.004   1
  -4   5  -3 2935.09 122.411   1
   4   5   3 2768.00 87.5088  13
   4   5   3 2790.32 109.289  12
   4   5   3 2781.12 120.825   4
   4   5   3 2762.62 118.480   9
  -4   5  -3 2917.26 114.574  11
   4   5   3 2774.67 107.227   8
  -4   5  -3 2809.38 116.025   2
  -4   5  -4 1951.38 102.449   1
   4   5   4 1732.28 62.2118  13
   4   5   4 1819.21 85.9166  12
   4   5   4 1932.38 101.053   4
   4   5   4 1838.92 98.6034   9
  -4   5  -4 1924.30 94.6078  11
   4   5   4 1831.88 88.7273   8
  -4   5  -4 1967.19 96.2813   2
  -4   5  -5 1445.00 88.4832   1
  -4   5  -5 1283.01 80.6695  14
   4   5   5 1212.62 68.1138  12
   4   5   5 1374.27 85.8988   4
   4   5   5 1398.51 87.4968   9
   4   5   5 1337.06 76.8279   8
  -4   5  -5 1342.65 79.9616   2
   4   5   6 835.907 54.4177  12
   4   5   6 1009.93 76.2873   4
   4   5   6 946.026 67.9872   8
  -4   5  -6 953.912 74.3440   1
   4   5   7 2319.41 115.550   8
   4   5   7 2369.40 125.117   9
  -4   5  -7 2283.53 124.566   1
  -4   5  -8 71.3739 33.0453   1
  -4   5  -9 1432.08 105.488  14
  -4   5  -9 1698.43 110.699   1
  -4   5 -10 94.2958 41.2063  14
  -4   5 -10 79.7708 36.9413   1
  -4   5 -11 856.411 87.7993  14
  -4   5 -11 627.703 77.9064   1
  -4   5 -12 32.6133 40.2195   1
   4   6 -11 370.068 64.5343  14
   4   6 -11 375.343 67.2090   1
   4   6 -10 160.200 47.1831   1
   4   6 -10 235.229 53.0646  14
   4   6 -10 135.431 38.0542  12
   4   6  -9 601.275 79.8962   1
   4   6  -9 822.807 69.7641  12
   4   6  -9 619.005 73.0143  14
   4   6  -8 111.045 36.1463  12
  -4   6   8 91.5003 27.2053  13
   4   6  -8 181.101 47.0750   1
  -4   6   8 88.0888 22.2032   2
  -4   6   8 103.626 16.9356  10
  -4   6   8 117.735 40.7014   8
   4   6  -8 183.597 46.2701  14
   4   6  -7 1492.73 90.8517  12
  -4   6   7 1302.36 74.6569  13
   4   6  -7 1329.76 93.1183  14
  -4   6   7 1292.82 88.8900   8
  -4   6   7 1280.81 70.0941   2
  -4   6   6 202.694 33.9639  13
   4   6  -6 287.059 43.5522  12
  -4   6   6 212.806 32.8807   2
   4   6  -6 191.714 21.3032   9
  -4   6   6 204.480 40.5715   8
  -4   6   5 2373.44 104.081  13
   4   6  -5 2457.28 118.671  12
   4   6  -5 2571.70 130.523   1
   4   6  -5 2454.08 85.2717   9
  -4   6   5 2184.18 109.302   8
  -4   6   5 2142.52 100.361   2
   4   6  -4 353.155 46.0230  12
  -4   6   4 288.946 37.2671   2
   4   6  -4 365.176 48.2886   1
  -4   6   4 346.440 35.3078  11
   4   6  -4 370.534 32.8324   9
  -4   6   4 348.141 40.9327  13
  -4   6   4 281.632 41.5598   8
   4   6  -3 2279.48 113.619   1
   4   6  -3 2505.16 116.238  12
  -4   6   3 2208.76 101.502  13
   4   6  -3 2359.42 111.371  14
  -4   6   3 2231.75 94.3494  11
   4   6  -3 2339.05 92.6221   9
  -4   6   3 2266.28 103.360   8
  -4   6   3 2126.89 101.196   2
   4   6  -2 775.058 59.1194   1
   4   6  -2 791.299 62.1892  12
   4   6  -2 738.756 58.4567  14
  -4   6   2 666.037 32.6189  14
   4   6  -2 797.252 51.6972   9
  -4   6   2 758.126 51.9412  11
   4   6  -2 645.283 55.0195  10
  -4   6   2 775.292 56.5103   8
  -4   6   2 605.259 53.2938   2
   4   6  -1 3137.43 128.479  14
   4   6  -1 3292.38 137.213  12
  -4   6   1 3183.99 130.010   2
   4   6  -1 3055.52 126.432   1
  -4   6   1 3068.74 132.026   1
   4   6  -1 3178.51 123.065   9
  -4   6   1 3129.86 122.398  11
  -4   6   0 474.572 47.9886   1
   4   6   0 584.468 44.6207   1
   4   6   0 414.160 42.3692   9
  -4   6   0 437.112 43.7618  11
  -4   6  -1 1359.20 76.7595  11
   4   6   1 1459.39 80.4489   9
   4   6   1 1326.08 82.8326   4
   4   6   1 1307.48 63.9967   1
   4   6   2 2165.40 82.0574   1
  -4   6  -2 2571.99 103.670  14
   4   6   2 2581.85 112.592  12
   4   6   2 2275.28 114.089   4
   4   6   2 2454.94 114.295   9
   4   6   2 2353.16 105.777   8
  -4   6  -2 2630.93 115.848   2
  -4   6  -3 1657.03 82.4065  14
   4   6   3 1827.77 87.7240  12
   4   6   3 1710.93 93.6923   4
   4   6   3 1763.08 93.6459   9
   4   6   3 1643.81 83.7000   8
  -4   6  -3 1812.65 96.4310   1
  -4   6  -4 973.508 66.7550  14
   4   6   4 763.998 40.9884  13
   4   6   4 821.347 60.1582  12
   4   6   4 928.954 71.4921   4
   4   6   4 764.554 66.3393   9
   4   6   4 881.106 63.2651   8
  -4   6  -4 909.624 71.5363   1
  -4   6  -5 1031.94 72.9006  14
   4   6   5 816.872 34.2547  13
   4   6   5 1129.89 68.6713  12
   4   6   5 1073.88 79.8186   4
   4   6   5 1055.34 80.5534   9
   4   6   5 1037.28 70.0701   8
  -4   6  -5 1165.15 82.3613   1
  -4   6  -6 1469.56 93.1927  14
   4   6   6 1363.40 76.8737  12
   4   6   6 1475.24 97.9460   9
   4   6   6 1496.22 89.4084   8
  -4   6  -6 1734.14 105.599   1
   4   6   6 1480.74 96.5700   4
   4   6   7 379.718 53.6235   8
  -4   6  -7 392.187 55.6928  14
  -4   6  -7 473.850 59.3508   1
   4   6   8 1050.49 86.1027   8
  -4   6  -8 1375.64 98.2206   1
  -4   6  -9 308.855 54.6418   1
  -4   6 -10 1253.56 104.039   1
  -4   6 -11 81.1508 43.8775  14
  -4   6 -11 168.975 50.2016   1
   4   7 -10 381.199 54.2356  12
   4   7 -10 363.277 63.1783  14
   4   7 -10 339.180 64.9972   1
   4   7  -9 63.1803 33.3271  12
   4   7  -9 78.7589 40.3391   1
  -4   7   9 76.9128 41.7504   8
   4   7  -9 83.1458 44.1901  14
   4   7  -8 1165.92 83.7367  12
  -4   7   8 1007.33 84.2938   8
  -4   7   8 983.084 64.3562  13
  -4   7   7 114.561 20.5929  10
  -4   7   7 140.577 29.5084   2
  -4   7   7 117.542 38.8640   8
  -4   7   7 134.068 31.8543  13
   4   7  -7 123.567 37.6155  12
   4   7  -6 1150.13 83.0806  12
  -4   7   6 1043.66 68.2329  13
   4   7  -6 956.338 85.0901   1
  -4   7   6 933.382 76.4423   8
  -4   7   6 1006.42 68.0211   2
  -4   7   5 2.74651 26.5126  13
   4   7  -5 15.6116 28.8770  12
  -4   7   5 27.9108 23.3342   2
   4   7  -5-9.07127 24.9608   1
   4   7  -5 47.5956 28.3942  14
  -4   7   5 40.9161 30.7873   8
  -4   7   4 1587.60 87.7662  13
   4   7  -4 1749.29 101.567  14
   4   7  -4 1939.56 106.547  12
   4   7  -4 1733.12 104.652   1
   4   7  -4 1788.98 77.2309   9
  -4   7   4 1834.47 98.3062   8
  -4   7   4 1743.93 93.3762   2
   4   7  -3 22.3412 23.7720   1
  -4   7   3-2.91053 23.5040  13
   4   7  -3 3.77486 25.4394  12
   4   7  -3 3.42386 23.9451  14
   4   7  -3 12.8623 18.6513   9
  -4   7   3 9.22143 25.6937   8
   4   7  -2 2378.90 111.581  14
  -4   7   2 2025.66 67.1207  14
   4   7  -2 2346.76 99.5598   9
   4   7  -2 2451.55 119.183  12
  -4   7   2 2345.15 108.424   8
   4   7  -2 2228.91 110.015   1
   4   7  -1 134.643 32.8793  14
  -4   7   1 154.384 21.4759  14
   4   7  -1 148.724 35.6367  12
   4   7  -1 154.819 32.9162  10
  -4   7   1 166.367 32.1813  11
  -4   7   1 144.013 32.7344   1
   4   7  -1 128.925 29.2350   1
   4   7  -1 208.570 33.5297   9
   4   7   0 1672.79 81.9726   1
  -4   7   0 1633.32 94.9438   1
   4   7   0 1799.92 92.1545   9
  -4   7   0 1646.53 87.9303  11
   4   7   1 1684.50 94.2280  12
   4   7   1 1502.38 92.0207   4
   4   7   1 1452.10 86.5130   9
  -4   7  -1 1533.42 74.1738  14
   4   7   1 1476.20 70.3247   1
  -4   7  -1 1655.43 94.3382   1
  -4   7  -2 2467.27 106.504  14
   4   7   2 2644.18 121.578  12
   4   7   2 2609.01 125.885   4
   4   7   2 2607.28 123.497   9
   4   7   2 2569.71 116.462   8
   4   7   2 2236.24 86.4032   1
  -4   7  -2 2811.04 128.691   1
  -4   7  -3 636.185 52.9028  14
   4   7   3 637.013 56.5746  12
   4   7   3 648.410 61.4855   4
   4   7   3 628.287 61.4440   9
   4   7   3 513.567 53.0837   8
   4   7   4 1431.55 84.5303  12
   4   7   4 1354.57 90.6112   4
   4   7   4 1352.85 91.7206   9
   4   7   4 1300.92 82.6295   8
   4   7   4 1117.82 56.3305  13
  -4   7  -4 1472.50 84.3196  14
  -4   7  -5 1290.12 85.0100  14
   4   7   5 1061.71 46.0061  13
   4   7   5 1289.09 80.7640  12
   4   7   5 1214.31 90.4390   9
   4   7   5 1251.54 83.2299   8
  -4   7  -5 1466.52 96.8248   1
   4   7   5 1283.08 90.0624   4
   4   7   6 353.151 52.4994   4
  -4   7  -6 332.415 50.6743  14
   4   7   6 397.090 54.2695   8
  -4   7  -6 432.301 58.4606   1
  -4   7  -7 587.036 67.2534  14
   4   7   7 626.376 67.7517   8
  -4   7  -7 708.278 74.5920   1
   4   7   7 557.739 67.6937   4
   4   7   8 221.486 48.9009   8
  -4   7  -8 252.481 49.9591  14
  -4   7  -8 169.396 43.4187   1
   4   7   9 607.670 72.9666   8
  -4   7  -9 681.227 77.8670  14
  -4   7  -9 678.485 79.1088   1
  -4   7 -10 151.143 49.5258   1
  -4   8   9 287.990 57.9946   8
   4   8  -9 378.046 57.0245  12
  -4   8   8 31.7009 37.8793   8
  -4   8   8 65.0440 27.8280  13
   4   8  -8 70.4276 36.8187  12
   4   8  -7 1091.16 87.0774  12
   4   8  -7 994.091 93.6061   1
  -4   8   7 883.708 82.3429   8
  -4   8   7 924.568 66.9903  13
   4   8  -7 1012.17 90.1671  14
   4   8  -6 83.5416 36.7994  12
  -4   8   6 74.0786 28.7375  13
   4   8  -6 66.9545 34.3105   1
  -4   8   6 86.7594 22.9908  10
   4   8  -6 72.6375 35.3756  14
  -4   8   6 71.8931 38.1101   8
   4   8  -5 1453.25 104.733   1
  -4   8   5 1381.36 74.2673  10
  -4   8   5 1586.86 100.414   8
  -4   8   5 1514.59 86.4715  13
   4   8  -5 1645.08 104.712  14
  -4   8   4 18.4714 27.2066  13
   4   8  -4 38.7364 29.0182  12
   4   8  -4 65.0031 29.5888   1
  -4   8   4 39.9012 22.9609  10
   4   8  -4 27.7168 31.6998  14
  -4   8   4 36.2573 29.2920   8
  -4   8   3 1918.58 98.8878  13
   4   8  -3 1851.21 109.391  12
   4   8  -3 1878.66 105.726   1
  -4   8   3 1522.06 84.4210  10
  -4   8   3 1683.20 98.4695   8
   4   8  -3 1667.30 100.590  14
   4   8  -2 254.496 42.9872  14
  -4   8   2 167.822 13.6528  14
   4   8  -2 287.509 46.9883  12
   4   8  -2 261.695 41.3702   1
  -4   8   2 294.664 39.5034  10
   4   8  -2 300.377 38.4939   9
  -4   8   2 251.718 44.1719   8
   4   8  -1 2456.83 110.579   9
   4   8  -1 2412.32 125.402  12
   4   8  -1 2110.22 105.421   1
  -4   8   1 2431.92 119.634   1
   4   8  -1 2337.17 111.761  14
  -4   8   1 2163.63 79.5807  14
   4   8   0 138.166 33.2534   9
  -4   8   0 136.622 34.1560   1
   4   8   0 116.831 27.4789   1
  -4   8  -1 467.083 40.7997  14
   4   8   1 407.108 53.6134  12
   4   8   1 476.184 53.7186   9
   4   8   1 440.407 57.4712   4
   4   8   1 385.012 38.4005   1
  -4   8  -1 484.717 55.9400   1
  -4   8  -2 1925.57 90.0662  14
   4   8   2 2078.19 109.488  12
  -4   8  -2 1509.87 53.3210   4
   4   8   2 1828.63 106.775   4
   4   8   2 2001.73 107.927   9
   4   8   2 1810.51 100.145   8
   4   8   2 1620.19 69.7429   1
  -4   8  -2 2060.86 111.326   1
   4   8   3 1057.87 77.8526  12
  -4   8  -3 865.431 63.3684  14
   4   8   3 961.216 78.5563   4
   4   8   3 959.791 73.6375   8
  -4   8  -3 807.235 72.4579   1
   4   8   4 647.778 66.9997   4
  -4   8  -4 620.972 59.4298  14
   4   8   4 508.943 60.2831   8
   4   8   4 583.812 60.9407  12
   4   8   5 592.335 66.0258   4
  -4   8  -5 491.850 57.3343  14
   4   8   5 415.160 30.8600  13
   4   8   5 519.814 61.9153   8
   4   8   6 511.832 66.5906   4
  -4   8  -6 620.194 66.6417  14
  -4   8  -6 602.697 70.6511   1
   4   8   6 477.896 60.5518   8
   4   8   7 250.709 52.6379   4
  -4   8  -7 292.955 56.5775   1
   4   8   7 262.324 51.9304   8
  -4   8  -7 360.661 54.8694  14
  -4   8  -8 492.794 66.7476  14
  -4   8  -8 529.229 70.9161   1
   4   8   8 407.494 62.9243   8
  -4   8  -9 200.741 50.5767  14
  -4   8  -9 184.500 49.1315   1
   4   8   9 198.770 52.2599   8
  -4   8 -10 577.967 78.8666  14
  -4   9   9 5.07246 48.0482   8
   4   9  -9 109.085 44.9278  12
   4   9  -9 45.6679 43.1389  14
   4   9  -8 669.334 74.8805  12
   4   9  -8 591.268 78.5502   1
  -4   9   8 594.357 74.2221   8
  -4   9   8 546.431 55.0284  13
   4   9  -8 664.988 78.9385  14
   4   9  -7 266.452 50.9373  12
  -4   9   7 203.971 36.8978  13
   4   9  -7 266.035 56.3950   1
  -4   9   7 201.479 49.4247   8
   4   9  -7 147.919 47.6178  14
  -4   9   6 385.012 49.0089  13
   4   9  -6 523.673 65.9939  12
   4   9  -6 388.207 63.5491   1
  -4   9   6 458.866 62.0308   8
   4   9  -6 508.569 67.1389  14
  -4   9   5 12.7721 25.5534  13
   4   9  -5-4.81387 33.2621  12
   4   9  -5-4.50401 32.9641  14
  -4   9   5-12.5736 40.4527   8
   4   9  -5-9.96813 30.4244   1
   4   9  -4 982.306 85.3637  12
   4   9  -4 847.611 77.8941  14
  -4   9   4 879.096 70.7729  13
  -4   9   4 837.750 60.7029  10
  -4   9   4 902.866 78.9427   8
   4   9  -4 794.653 77.0872   1
   4   9  -3 45.5446 30.6544   1
  -4   9   3 20.9348 32.8458  13
   4   9  -3 89.5599 37.0502  12
   4   9  -3 66.0997 33.8490  14
  -4   9   3 51.2286 33.2340   8
   4   9  -2 846.284 78.2453  12
  -4   9   2 847.543 75.7587   8
   4   9  -2 779.976 69.7213  14
   4   9  -2 808.768 69.0892   1
  -4   9   1 122.436 35.2297   1
   4   9  -1 101.277 30.0135   1
   4   9  -1 68.6855 33.6019  12
   4   9  -1 156.058 35.9134  14
  -4   9   1 92.8782 18.4914  14
   4   9   0 1026.86 68.4153   1
  -4   9   0 1046.01 80.9100   1
   4   9   0 943.385 84.6009   4
   4   9   1 697.097 74.1902   4
   4   9   1 619.127 49.8336   1
  -4   9  -1 926.884 76.7223   1
   4   9   1 824.656 77.3826  12
  -4   9  -1 775.978 54.6995  14
   4   9   2 1318.10 92.6789  12
  -4   9  -2 1194.95 88.9901   1
   4   9   2 1159.07 90.3709   4
   4   9   2 1169.48 87.8538   8
  -4   9  -2 1193.53 71.3138  14
   4   9   3 825.768 74.0327  12
   4   9   3 861.177 78.6751   4
  -4   9  -3 891.529 78.8821   1
   4   9   3 777.996 72.5287   8
  -4   9  -3 910.380 66.2625  14
   4   9   4 993.503 87.1998   4
  -4   9  -4 1131.11 91.6741   1
   4   9   4 1201.42 90.1372   8
  -4   9  -4 1254.80 83.0809  14
   4   9   5 388.875 58.6762   4
   4   9   5 357.342 59.5315   8
  -4   9  -5 425.009 54.5193  14
   4   9   6 519.559 65.7201   4
  -4   9  -6 547.649 63.8341  14
   4   9   6 536.182 65.4142   8
   4   9   7 786.513 85.1971   4
   4   9   7 955.362 89.9948   8
  -4   9  -7 1128.04 93.0035  14
  -4   9  -7 1050.44 97.7546   1
  -4   9  -8 263.634 54.9386  14
   4   9   8 200.504 54.3618   8
  -4   9  -8 236.627 54.6709   1
  -4   9  -9 692.749 80.9662  14
   4   9   9 568.843 77.4926   8
  -4  10   8 51.3034 45.6687   8
   4  10  -7 559.992 75.5281   1
   4  10  -7 660.968 78.0767  14
   4  10  -7 634.249 76.5920  12
  -4  10   7 429.730 53.1829  13
  -4  10   7 614.776 75.8331   8
   4  10  -6 33.7921 36.9742   1
   4  10  -6 20.1159 36.8123  14
  -4  10   6-9.47675 40.2669   8
   4  10  -6 42.3917 37.5023  12
  -4  10   6 48.0206 30.1241  13
   4  10  -5 736.805 79.4909   1
  -4  10   5 746.648 69.5654  13
   4  10  -5 792.863 81.2239  14
  -4  10   5 825.095 83.3932   8
   4  10  -5 1019.43 93.0437  12
   4  10  -4 9.61232 26.4544   1
   4  10  -4 21.9790 35.8196  14
  -4  10   4 93.7141 41.7099   8
   4  10  -4 15.7314 34.8888  12
  -4  10   4 39.6149 32.5220  13
   4  10  -3 770.812 72.7351   1
   4  10  -3 641.801 68.5892  14
  -4  10   3 770.316 76.5763   8
  -4  10   3 638.262 65.1170  13
   4  10  -3 773.033 81.5473  12
   4  10  -2 173.016 38.0884   1
   4  10  -2 87.2229 40.8123  12
   4  10  -2 170.242 40.3354  14
  -4  10   2 98.9975 41.9257   8
   4  10  -1 1090.07 93.1658  12
  -4  10   1 803.975 39.7788  14
   4  10  -1 982.767 72.9084   1
  -4  10   1 1074.96 85.0093   1
   4  10   0 9.39432 49.4366   4
   4  10   0 117.218 29.8871   1
  -4  10   0 75.4788 31.8320   1
   4  10   1 828.442 82.8751   4
   4  10   1 631.735 53.5104   1
  -4  10  -1 967.420 82.6351   1
   4  10   1 886.891 84.3982  12
  -4  10  -1 877.006 57.7628  14
  -4  10  -2 334.510 42.0886  14
   4  10   2 343.532 56.4265  12
   4  10   2 289.124 57.1558   8
   4  10   2 260.856 54.8530   4
  -4  10  -2 440.480 59.7365   1
   4  10   2 236.228 29.1917   1
   4  10   3 650.266 73.0909   4
   4  10   3 676.501 72.7425   8
  -4  10  -3 629.682 72.4408   1
  -4  10  -3 737.102 62.6635  14
  -4  10  -4 595.809 72.2424   1
  -4  10  -4 458.166 55.6802  14
   4  10   4 491.397 66.4687   4
   4  10   4 498.887 65.6641   8
   4  10   5 252.273 50.0309   4
  -4  10  -5 335.348 59.4541   1
  -4  10  -5 312.803 49.2505  14
   4  10   5 200.025 53.9927   8
   4  10   6 1014.41 90.5382   8
  -4  10  -6 1002.39 86.2118  14
   4  10   6 935.613 90.1395   4
   4  10   7 338.062 61.1518   8
  -4  10  -7 434.223 63.1881  14
  -4  10  -8 883.770 88.1881  14
   4  10   8 851.565 89.0707   8
   4  11  -6 744.475 84.8630   1
  -4  11   6 803.625 86.7015   8
   4  11  -6 861.824 88.5944  14
  -4  11   6 742.429 67.7733  13
   4  11  -5-10.8380 30.9475   1
   4  11  -5 24.3564 38.2723  14
  -4  11   5-74.3684 53.2352   8
  -4  11   5-21.5883 31.5473  13
   4  11  -4 903.181 84.6855   1
   4  11  -4 924.661 85.0520  14
  -4  11   4 862.432 74.7964  13
  -4  11   4 836.226 84.4587   8
   4  11  -4 896.073 91.2954  12
   4  11  -3 22.6590 30.1488   1
   4  11  -3 21.2118 35.1666  14
  -4  11   3 9.58987 38.7228   8
  -4  11   3 12.1323 30.2380  13
   4  11  -3 28.3924 37.2757  12
   4  11  -2 902.241 77.1198   1
   4  11  -2 863.370 77.6619  14
  -4  11   2 952.898 89.5292   8
   4  11  -2 1119.28 99.6740  12
   4  11  -1 291.019 62.4599   4
   4  11  -1 357.184 47.8456   1
  -4  11   1 309.162 60.7374   8
   4  11   0 658.072 79.5905   4
   4  11   0 695.088 61.8299   1
   4  11   1 261.478 35.6268   1
  -4  11  -1 335.602 38.0545  14
   4  11   1 272.043 58.4891   8
   4  11   1 234.523 59.6704   4
   4  11   2 842.312 87.3919   4
   4  11   2 1018.98 91.6516   8
  -4  11  -2 887.228 65.5834  14
  -4  11  -3 356.512 47.0643  14
  -4  11  -3 313.347 57.0148   1
   4  11   3 288.418 56.4477   4
   4  11   3 273.044 56.6723   8
  -4  11  -4 277.428 55.3541   1
  -4  11  -4 255.094 45.7960  14
   4  11   4 276.807 57.0573   8
   4  11   4 262.408 55.0526   4
  -4  11  -5 650.768 82.3331   1
  -4  11  -5 673.274 68.0852  14
   4  11   5 412.792 69.3488   8
   4  11   5 508.811 69.9012   4
  -4  11  -6 238.454 48.6877  14
   4  11   6 173.034 50.6650   4
  -4  11  -7 288.584 55.7856  14
   4  12  -5 1244.27 105.135   1
   4  12  -5 1280.23 104.925  14
  -4  12   5 1225.41 90.0877  13
   4  12  -4-5.08995 31.5524   1
   4  12  -4 13.9591 39.8537  14
  -4  12   4-4.02233 32.7700  13
   4  12  -3 1531.08 107.657   1
   4  12  -3 1482.33 104.846  14
  -4  12   3 1356.41 110.956   8
  -4  12   3 1568.06 106.184  13
  -4  12   2 102.729 52.6249   8
   4  12  -2 42.4911 46.9616   4
   4  12  -2 112.470 36.8536   1
   4  12  -1 834.482 89.9619   4
  -4  12   1 703.156 83.2077   8
   4  12  -1 842.487 71.1079   1
  -4  12   0 227.759 49.4514   1
   4  12   0 130.416 52.6865   4
   4  12   1 550.579 75.5596   8
  -4  12  -1 541.697 69.4561   1
   4  12   1 441.905 70.9014   4
   4  12   2 157.108 54.9543   8
   4  12   2 93.8685 48.2677   4
   4  12   3 289.685 62.5456   8
   4  12   3 225.311 53.0751   4
  -4  12  -3 244.391 55.1789   1
  -4  12  -4 400.798 53.2371  14
   4  12   4 456.282 68.4870   4
  -4  12  -5 81.0699 38.6769  14
   4  12   5 75.3836 44.2910   4
  -4  12  -6 361.685 57.8649  14
   4  13  -3 32.6875 34.1852   1
   4  13  -1 75.5595 52.4473   4
   4  13   0 551.248 76.6614   4
   4  13   1 122.674 52.8495   4
  -4  13  -1 145.777 48.5041   1
   5 -12  -2 611.032 67.9650  11
   5 -12  -1 477.854 62.6467  11
  -5 -12   1 431.021 68.3057  11
   5 -12   0 672.516 74.6126  11
   5 -12   1 300.987 56.5794  11
  -5 -12  -3 79.3145 38.2484  11
  -5 -11   6 434.907 68.0090   2
  -5 -11   5 39.4007 38.4440   2
  -5 -11   5 99.0300 47.8969  10
  -5 -11   4 860.643 90.3635   2
  -5 -11   4 858.910 89.6033  10
  -5 -11   3 157.218 49.6091   2
   5 -11  -3 150.629 38.1433  11
  -5 -11   3 148.492 48.3573  10
  -5 -11   2 623.796 77.8564   2
   5 -11  -2 613.947 65.2400  11
  -5 -11   2 601.426 70.9961  10
   5 -11  -1 321.294 51.6319  11
  -5 -11   1 381.216 59.1542  10
  -5 -11   0 335.554 62.3276   2
   5 -11   0 393.282 59.4232  11
  -5 -11   0 389.713 57.0134  10
  -5 -11  -1 1060.20 84.9100  10
   5 -11   1 966.300 90.9602  11
  -5 -11  -1 1107.92 103.685   2
   5 -11   2 353.929 60.5858  11
  -5 -11  -2 242.644 46.2087  10
  -5 -11  -2 253.380 56.0063   2
   5 -11   2 273.607 45.3031   6
   5 -11   3 1353.69 107.763  11
   5 -11   3 1169.52 85.4310   6
  -5 -11  -3 1109.56 104.210   2
   5 -11   4 39.2530 39.2612  11
  -5 -11  -4 114.199 49.4313   2
   5 -11   4 65.4071 37.4139   6
   5 -11   4 130.567 49.4898   3
  -5 -11  -5 781.062 88.2297   2
   5 -11   5 840.433 88.5501   3
   5 -11   5 704.301 71.6481   6
   5 -11   6 21.9867 34.8722   6
   5 -11   6 10.9954 41.9518   3
  -5 -10   8 51.2177 34.4677   2
  -5 -10   7 427.954 62.4011   2
  -5 -10   7 435.704 72.3763   6
  -5 -10   7 336.139 63.5132  11
  -5 -10   6 60.8227 37.1348   2
  -5 -10   6 90.5892 46.9601   6
  -5 -10   6 87.0415 48.1276  10
  -5 -10   6 59.1853 38.3579  11
  -5 -10   5 592.708 73.0500   2
  -5 -10   5 707.539 80.5583  10
  -5 -10   4 211.619 50.0124   2
  -5 -10   4 249.533 53.9693  10
   5 -10  -4 183.584 36.2384  11
  -5 -10   3 743.875 78.6007  10
   5 -10  -3 622.682 60.6246  11
  -5 -10   3 586.052 72.6990   2
  -5 -10   2 436.043 65.9513   2
  -5 -10   2 465.122 62.7095  10
   5 -10  -2 512.987 56.9381  11
   5 -10  -1 632.604 53.7118   6
  -5 -10   1 703.343 72.7915  10
   5 -10  -1 651.523 66.1523  11
  -5 -10   0 796.123 74.6442  10
   5 -10   0 890.639 79.7660  11
   5 -10   0 818.767 62.0226   6
  -5 -10   0 787.291 85.1994   2
  -5 -10  -1 467.014 57.5372  10
   5 -10   1 463.908 60.2340  11
  -5 -10  -1 463.078 66.0349   2
   5 -10   1 444.322 49.3362   6
   5 -10   2 1379.55 100.473  11
  -5 -10  -2 1130.61 81.7527  10
   5 -10   2 1219.79 81.0943   6
  -5 -10  -2 1148.73 99.8812   2
   5 -10   3 80.9324 36.6561  11
  -5 -10  -3 76.8393 30.4463  10
   5 -10   3 36.8466 30.5058   6
  -5 -10  -3 118.009 42.9132   2
   5 -10   4 859.393 72.7781   6
   5 -10   4 945.120 88.7451  11
   5 -10   4 820.422 62.2139   9
  -5 -10  -4 893.294 89.4385   2
   5 -10   5-5.43907 35.2161  11
  -5 -10  -5 39.1709 36.2311   2
   5 -10   5-15.5320 38.7073   3
   5 -10   5 3.91711 30.4813   6
   5 -10   6 950.428 82.8803   6
  -5 -10  -6 920.359 91.8838   2
   5 -10   6 1034.42 95.7191   3
  -5 -10  -7 59.9472 42.4220   2
   5 -10   7 33.2307 46.3076   3
   5 -10   7 45.2815 38.1798   6
  -5 -10  -8 589.523 74.5626   2
   5 -10   8 516.460 69.3679   6
  -5  -9   9 39.6193 31.1363   2
  -5  -9   9 26.0771 46.4172   7
  -5  -9   8 1198.22 104.635  11
  -5  -9   8 1264.66 108.307   6
  -5  -9   8 1386.34 110.376   7
  -5  -9   8 1337.07 96.7639   2
  -5  -9   7 131.808 45.9773  10
  -5  -9   7 146.690 47.7394   6
  -5  -9   7 116.662 39.7658   2
  -5  -9   7 157.957 48.5625   7
  -5  -9   6 890.369 88.4959   6
  -5  -9   6 893.099 82.9331   2
  -5  -9   6 1025.69 93.9801  10
  -5  -9   5 459.355 61.9990   2
  -5  -9   5 522.318 68.8626  10
   5  -9  -4 555.953 54.4830  11
  -5  -9   4 580.933 69.0837   2
  -5  -9   3 541.193 66.2977  10
   5  -9  -3 602.999 57.6162  11
  -5  -9   3 566.177 69.4033   2
  -5  -9   2 363.616 56.2850   2
  -5  -9   2 250.689 49.8031  10
   5  -9  -2 275.443 42.1455  11
  -5  -9   1 827.049 75.0689  10
   5  -9  -1 871.393 71.5712  11
   5  -9  -1 846.055 56.8474   6
  -5  -9   0 248.939 44.9953  10
   5  -9   0 320.868 47.4600  11
  -5  -9   0 295.159 51.9335   2
   5  -9   0 257.708 35.5539   6
   5  -9   1 595.180 63.0728  11
  -5  -9  -1 581.128 58.5709  10
   5  -9   1 593.146 52.4322   6
  -5  -9  -1 595.009 69.2455   2
  -5  -9  -2 25.8807 27.9371  10
   5  -9   2 44.8846 28.2515  11
  -5  -9  -2 10.3301 32.9817   2
   5  -9   2 33.6857 25.8915   6
   5  -9   3 1344.07 98.1246  11
  -5  -9  -3 1272.96 80.3480  10
   5  -9   3 1434.71 85.6116   6
  -5  -9  -3 1298.69 102.066   2
   5  -9   4 158.410 37.5262   6
  -5  -9  -4 168.146 31.7710  10
   5  -9   4 190.241 43.3096  11
   5  -9   4 221.654 37.9756   9
  -5  -9  -4 192.797 47.5825   2
   5  -9   5 755.557 80.0330  11
   5  -9   5 836.711 72.5232   6
   5  -9   5 778.598 55.3354   9
  -5  -9  -5 911.916 87.3371   2
   5  -9   5 916.691 87.4582   3
   5  -9   6 36.1949 37.0273   3
   5  -9   6 84.3521 36.0212   6
   5  -9   6 46.1598 21.5224   9
  -5  -9  -6 20.7360 30.6588   2
   5  -9   7 1105.07 97.7922  11
   5  -9   7 916.657 83.9998   6
   5  -9   7 795.643 89.2435   7
  -5  -9  -7 963.371 90.0658   2
   5  -9   7 1088.68 99.4878   3
   5  -9   8-10.2433 41.3586   7
   5  -9   8 5.50435 31.4304  11
  -5  -9  -8-20.0671 37.5068   2
   5  -9   8 4.66832 35.9758   6
   5  -9   8 5.60917 42.8003   3
   5  -9   9 382.896 72.0803   7
   5  -9   9 412.490 64.3916   6
  -5  -8  10 5.17535 44.3304   7
  -5  -8  10 31.6586 35.1027  11
  -5  -8   9 525.180 69.8706  11
  -5  -8   9 653.885 80.9795  10
  -5  -8   9 430.117 73.2910   7
  -5  -8   9 514.224 57.5512   2
  -5  -8   9 592.486 78.1136   6
  -5  -8   8 172.274 39.1973   2
  -5  -8   8 176.743 51.2762   6
  -5  -8   8 178.721 50.9245   7
  -5  -8   7 745.408 80.9807   6
  -5  -8   7 729.105 79.8232   7
  -5  -8   7 695.307 67.8466   2
  -5  -8   6 233.130 44.6050   2
  -5  -8   6 209.293 48.6671  10
  -5  -8   6 281.269 57.1267   6
  -5  -8   5 730.086 77.2120  10
  -5  -8   5 719.448 71.2959   2
  -5  -8   4 456.965 61.8400  10
  -5  -8   4 486.021 60.6286   2
  -5  -8   4 381.349 38.3550   9
   5  -8  -4 443.782 46.7223  11
  -5  -8   3 611.006 66.6568  10
  -5  -8   3 632.271 66.9843   2
  -5  -8   3 579.072 49.2286   9
   5  -8  -3 797.350 60.9301  11
  -5  -8   2 1261.66 88.6148  10
  -5  -8   2 1170.35 90.5909   2
  -5  -8   2 1225.13 72.8517   9
   5  -8  -2 1311.44 81.3710  11
  -5  -8   1 786.839 69.2208  10
   5  -8  -1 836.315 66.3358  11
   5  -8  -1 737.223 48.9534   6
  -5  -8   0 993.621 74.9189  10
   5  -8   0 1174.77 80.2095  11
  -5  -8   0 984.801 83.9253   2
   5  -8   0 980.030 58.7702   6
  -5  -8  -1 699.557 61.3612  10
   5  -8   1 740.944 65.6405  11
  -5  -8  -1 676.660 70.9331   2
   5  -8   1 636.037 49.7556   6
  -5  -8  -2 395.353 45.9589  10
   5  -8   2 432.367 53.4766  11
   5  -8   2 483.365 45.2093   6
  -5  -8  -2 305.960 51.7256   2
  -5  -8  -3 73.7633 26.0691  14
   5  -8   3 14.0338 26.9300   6
  -5  -8  -3 21.3780 24.9833  10
   5  -8   3 60.3571 29.4322  11
  -5  -8  -3 19.6904 15.2746   3
  -5  -8  -3 23.6929 28.4793   2
   5  -8   4 1083.92 73.4894   6
   5  -8   4 1048.80 83.5090  11
  -5  -8  -4 894.300 61.4359  10
   5  -8   4 956.819 63.6867   9
  -5  -8  -4 1016.37 88.0188   2
  -5  -8  -4 849.346 52.2732   3
   5  -8   5 44.7800 28.3201   6
  -5  -8  -5 46.2620 22.2237  10
   5  -8   5 28.1229 31.1895  11
   5  -8   5 29.0295 23.0513   9
  -5  -8  -5 43.1084 35.0652   2
  -5  -8  -5 22.9027 20.9720   3
   5  -8   5 28.2490 32.5417   3
   5  -8   6 614.226 63.3772   6
   5  -8   6 599.854 44.1310   9
  -5  -8  -6 628.156 70.8946   2
   5  -8   7-4.53920 34.9865   7
   5  -8   7 33.1404 31.2983   6
   5  -8   7 45.1414 33.8069  11
  -5  -8  -7 52.4706 33.3650   2
   5  -8   7 5.20388 36.8290   3
   5  -8   8 744.348 74.9889   6
   5  -8   8 609.802 78.3439   7
   5  -8   8 893.116 84.2369  11
  -5  -8  -8 545.571 69.2297   2
   5  -8   8 836.021 86.6995   3
   5  -8   9 82.0737 41.3746   6
   5  -8   9 70.4726 46.4314   7
  -5  -8  -9 22.8608 31.2354   2
   5  -8   9 57.5297 38.3026  11
   5  -8   9 102.821 50.4750   3
   5  -8  10 871.417 92.8351   7
  -5  -7  11-9.56836 28.7451  11
  -5  -7  10 710.681 85.5302   7
  -5  -7  10 830.254 84.1957   6
  -5  -7  10 741.261 78.6226  11
  -5  -7  10 801.223 87.4608  10
  -5  -7   9-5.43897 34.2333  10
  -5  -7   9 39.0894 33.7720  11
  -5  -7   9 18.6016 42.5896   7
  -5  -7   9 24.8629 35.1968   6
  -5  -7   9 76.5083 29.1782   2
  -5  -7   8 1158.25 98.3323  10
  -5  -7   8 1043.10 77.2827   2
  -5  -7   8 1154.28 96.2997   6
  -5  -7   8 1111.86 93.9193   7
  -5  -7   7 127.398 43.1513   7
  -5  -7   7 181.109 38.4949   2
  -5  -7   7 143.383 43.6652   6
  -5  -7   6 1135.49 91.2092   6
  -5  -7   6 1324.69 87.8963   2
  -5  -7   6 1273.44 96.7279  10
  -5  -7   5 451.134 55.0978   2
  -5  -7   5 490.144 61.4672  10
   5  -7  -4 1063.85 49.1619   6
  -5  -7   4 1214.11 64.0198   9
  -5  -7   4 1175.41 84.2921   2
  -5  -7   3 491.298 58.5472  10
  -5  -7   3 423.550 53.9250   2
  -5  -7   3 465.777 42.4696   9
   5  -7  -3 449.399 45.2937  11
  -5  -7   2 550.522 59.6923  10
  -5  -7   2 514.865 58.1011   2
  -5  -7   2 537.474 47.6442   9
   5  -7  -2 638.430 53.6232  11
  -5  -7   1 1547.51 90.8181  10
   5  -7  -1 1439.28 62.6471   6
  -5  -7   1 1216.72 73.1124   9
   5  -7  -1 1337.48 81.7548  11
  -5  -7   0 418.833 48.2367  10
   5  -7   0 373.029 47.4187  11
   5  -7   0 347.010 34.0939   6
  -5  -7  -1 1031.59 67.3600  14
  -5  -7  -1 989.146 68.4338  10
   5  -7   1 1133.48 77.6039  11
  -5  -7  -1 1084.92 81.9783   2
   5  -7   1 1111.21 59.8353   6
  -5  -7  -2 648.523 53.3011  14
  -5  -7  -2 750.143 57.9901  10
   5  -7   2 799.955 66.1564  11
  -5  -7  -2 703.231 67.7636   2
   5  -7   2 684.205 51.1856   6
  -5  -7  -3 1356.33 76.8935  14
   5  -7   3 1723.41 99.4699  11
  -5  -7  -3 1553.04 79.5203  10
   5  -7   3 1669.59 82.1228   6
  -5  -7  -3 1185.18 58.3965   3
  -5  -7  -3 1637.97 102.048   2
   5  -7   4 45.7032 25.2402   6
  -5  -7  -4 19.5257 21.5955  10
   5  -7   4 37.1481 27.1021  11
  -5  -7  -4 27.7691 23.7003  14
   5  -7   4 18.1962 22.2370   9
  -5  -7  -4 38.9756 31.3564   2
  -5  -7  -5 1034.50 64.0649   3
  -5  -7  -5 1274.75 91.8897   2
   5  -7   5 1512.62 99.1012   3
  -5  -7  -5 1073.91 68.7645  14
  -5  -7  -5 1087.46 61.0604  10
   5  -7   5 1340.01 67.7504   9
   5  -7   5 1351.74 82.6785   6
  -5  -7  -6-24.7111 26.3979   3
   5  -7   6 47.1976 33.3977   3
   5  -7   6 17.8477 28.8250   6
  -5  -7  -6 4.08454 15.5488  10
   5  -7   6 10.4816 18.7569   9
  -5  -7  -6-8.77397 27.1949   2
   5  -7   7 794.967 71.0971   6
   5  -7   7 638.409 72.7334   7
   5  -7   7 781.894 74.2750  11
   5  -7   7 604.758 41.5588   9
  -5  -7  -7 605.870 65.5561   2
   5  -7   7 810.073 81.6280   3
   5  -7   8 8.94392 37.3805   7
   5  -7   8-4.29581 30.7502   6
   5  -7   8 61.8303 35.1868  11
  -5  -7  -8 4.35599 28.2044   2
   5  -7   8-5.28790 37.4188   3
   5  -7   9 934.066 84.2042  11
  -5  -7  -9 799.204 76.0155   2
   5  -7   9 987.801 92.6951   7
   5  -7   9 915.190 83.9865   6
   5  -7  10 44.4253 34.9451  11
   5  -7  10 93.0262 46.1169   3
   5  -7  10 60.4692 42.1337   7
   5  -7  10 10.0701 37.2641   6
   5  -7  11 188.223 47.1177  11
  -5  -6  12 16.7670 30.6813  11
  -5  -6  11 1038.45 93.2848   6
  -5  -6  11 897.256 89.5446   7
  -5  -6  11 750.149 75.3665  11
  -5  -6  11 761.815 86.8756  10
  -5  -6  10-18.7732 40.1999   7
  -5  -6  10 5.24444 37.5409  10
  -5  -6  10-26.6712 29.5714  11
  -5  -6  10-4.81091 35.2118   6
  -5  -6   9 526.068 68.6715  10
  -5  -6   9 367.745 63.5062   7
  -5  -6   9 621.444 70.8029   6
  -5  -6   9 440.011 47.0827   2
  -5  -6   8 395.805 61.0351  10
  -5  -6   8 342.635 43.6427   2
  -5  -6   8 520.209 63.0474   7
  -5  -6   8 390.350 58.1602   6
  -5  -6   7 1561.61 101.669   6
  -5  -6   7 1506.33 96.9964   7
  -5  -6   7 1511.15 87.7851   2
   5  -6  -7 1293.33 73.3360   4
  -5  -6   6 302.467 45.7269   7
  -5  -6   6 307.273 50.0233   6
  -5  -6   6 230.535 39.3200   2
   5  -6  -6 222.615 29.6951   4
  -5  -6   5 908.032 75.2360  10
   5  -6  -5 875.541 46.5069   4
  -5  -6   5 930.304 68.8379   2
   5  -6  -5 772.031 60.9622   1
   5  -6  -4 835.622 62.2878   1
  -5  -6   4 853.728 70.7374  10
   5  -6  -4 697.934 33.9242   6
  -5  -6   4 905.599 68.5801   2
   5  -6  -3 881.895 37.2693   6
   5  -6  -3 972.381 60.9801  11
   5  -6  -3 850.969 63.4158   1
  -5  -6   3 962.668 73.3961  10
  -5  -6   3 912.596 56.6713   9
  -5  -6   3 856.227 68.6823   2
   5  -6  -2 1073.06 45.0324   6
   5  -6  -2 1027.92 65.7327  11
   5  -6  -2 1073.49 71.5085   1
  -5  -6   2 1229.17 79.0216  10
  -5  -6   2 1054.25 62.1176   9
  -5  -6   2 1186.89 79.5066   2
  -5  -6   1 752.641 57.9127  14
   5  -6  -1 707.888 55.7624  11
   5  -6  -1 702.323 58.1911   1
  -5  -6   1 763.130 61.7062  10
  -5  -6   1 801.686 55.0891   9
   5  -6  -1 721.217 38.8660   6
  -5  -6   0 1262.17 73.8859  14
   5  -6   0 1347.32 79.0685  11
   5  -6   0 1334.16 79.9198   1
  -5  -6   0 1330.37 77.8576  10
  -5  -6   0 1144.82 70.2080   9
   5  -6   0 1339.20 57.7302   6
  -5  -6  -1 375.552 49.3804   2
   5  -6   1 479.187 49.1802  11
  -5  -6  -1 408.124 43.0144  14
  -5  -6  -1 419.306 44.2209  10
  -5  -6  -1 406.236 44.0215   9
   5  -6   1 477.753 36.7542   6
  -5  -6  -2 444.094 45.3159  14
   5  -6   2 533.487 52.8823  11
  -5  -6  -2 482.390 45.6776  10
  -5  -6  -2 443.073 52.8028   2
   5  -6   2 427.871 38.3927   6
  -5  -6  -3 108.287 27.7556  14
   5  -6   3 95.3133 25.4079   6
   5  -6   3 103.659 29.4417  11
  -5  -6  -3 110.593 26.6415  10
  -5  -6  -3 77.6755 31.9784   2
  -5  -6  -3 47.3618 17.7276   3
  -5  -6  -4 1451.17 93.9065   2
  -5  -6  -4 1383.91 76.7031  14
   5  -6   4 1594.91 94.8050  11
  -5  -6  -4 1464.47 71.3399  10
   5  -6   4 1440.55 73.3875   9
   5  -6   4 1531.83 80.4916   6
  -5  -6  -5 207.638 41.2802   2
  -5  -6  -5 180.445 32.0011  14
  -5  -6  -5 114.385 34.4692   5
   5  -6   5 182.109 35.3484   6
  -5  -6  -5 162.983 25.9349  10
   5  -6   5 198.898 29.8287   9
  -5  -6  -5 90.8524 29.4450   3
  -5  -6  -6 1023.69 79.4413   2
  -5  -6  -6 886.763 63.6986   3
  -5  -6  -6 831.112 60.8354  14
   5  -6   6 1013.74 78.2798  11
  -5  -6  -6 811.906 47.0384  10
   5  -6   6 1121.72 76.7886   6
   5  -6   6 1038.45 76.2669   7
   5  -6   6 967.828 55.2015   9
  -5  -6  -6 892.681 62.9294   5
  -5  -6  -7 80.7656 32.9616   2
   5  -6   7 100.378 36.3748   7
   5  -6   7 85.8115 32.0192   6
   5  -6   7 72.0809 31.0975  11
   5  -6   7 73.0307 20.4291   9
   5  -6   7 133.890 41.0058   3
   5  -6   8 1002.51 82.0858  11
   5  -6   8 897.709 81.0862   7
   5  -6   8 944.569 80.0191   6
   5  -6   8 704.267 42.7011   9
   5  -6   8 984.458 90.4795   3
  -5  -6  -8 954.000 77.4849   2
   5  -6   9 13.5460 32.3238   6
   5  -6   9 71.6211 40.7044   7
   5  -6   9-4.49206 30.2756  11
  -5  -6  -9 19.7959 30.5143   2
   5  -6   9 37.8941 38.3092   3
   5  -6  10 1859.34 117.244  11
   5  -6  10 1457.12 112.693   7
   5  -6  10 1724.45 116.327   6
   5  -6  10 1980.31 135.046   3
  -5  -6 -10 1466.62 99.2157   2
   5  -6  11-35.5874 47.5108   7
   5  -6  11 5.25649 38.8874   6
   5  -6  11-5.96877 40.2236   3
   5  -6  11 9.20433 29.7975  11
   5  -6  12 496.940 63.3526  11
  -5  -5  12 563.832 76.0492   7
  -5  -5  12 497.537 70.0101   6
  -5  -5  12 474.558 56.3769  11
  -5  -5  12 581.071 73.3932  10
  -5  -5  11 96.0797 45.5042   7
  -5  -5  11 51.8102 37.3674   6
  -5  -5  11 20.0688 35.5215  10
  -5  -5  11 46.9740 28.9827  11
  -5  -5  10 695.820 73.3867   6
  -5  -5  10 757.309 78.4758   7
  -5  -5  10 755.112 78.9350  10
  -5  -5  10 660.121 67.0903  11
  -5  -5   9 130.991 40.0801   6
  -5  -5   9 83.9320 38.7201  10
  -5  -5   9 90.4338 24.9068   2
  -5  -5   9 98.9571 38.6035   7
  -5  -5   8 1706.72 110.415  10
  -5  -5   8 1746.65 105.863   7
  -5  -5   8 1812.12 107.468   6
  -5  -5   8 1529.49 82.3650   2
  -5  -5   7 46.4902 31.6324  10
  -5  -5   7 48.3439 31.2118   7
  -5  -5   7 71.9585 33.7339   6
   5  -5  -7 63.0737 24.4746   4
  -5  -5   7 73.4167 23.7194   2
   5  -5  -6 1736.85 78.0948   4
   5  -5  -6 1656.36 92.4924   1
   5  -5  -6 1472.30 60.1776   6
  -5  -5   6 1888.68 103.371   6
  -5  -5   6 2126.93 101.350   7
  -5  -5   6 2082.36 95.8457   2
   5  -5  -5 464.831 36.1650   4
   5  -5  -5 439.663 46.7638   1
  -5  -5   5 593.015 60.0656  10
   5  -5  -5 392.897 24.3354   6
   5  -5  -5 513.974 48.0568   7
  -5  -5   5 513.689 50.0185   2
  -5  -5   4 935.797 64.4802   5
   5  -5  -4 1026.89 44.6866   4
   5  -5  -4 887.161 63.4003   1
  -5  -5   4 1099.03 75.6684  10
   5  -5  -4 811.207 31.4239   6
  -5  -5   4 1161.18 71.1766   2
   5  -5  -3 318.353 39.2948   1
  -5  -5   3 240.627 37.1341   2
  -5  -5   3 258.388 37.8293  14
   5  -5  -3 234.648 16.8053   4
  -5  -5   3 273.678 37.8978   5
  -5  -5   3 289.354 42.3024  10
  -5  -5   3 276.355 32.7363   9
   5  -5  -3 176.533 12.4067   6
  -5  -5   2 841.773 62.6869   2
   5  -5  -2 813.377 59.2200   1
  -5  -5   2 802.252 59.2115  14
   5  -5  -2 831.953 54.9473  11
  -5  -5   2 897.885 64.8644  10
  -5  -5   2 762.219 51.6030   9
   5  -5  -2 779.621 29.4947   6
   5  -5  -1 1390.43 78.0256   1
  -5  -5   1 1408.40 74.9900  14
   5  -5  -1 1188.08 70.9525  11
  -5  -5   1 1369.07 75.2726   5
  -5  -5   1 1380.17 78.8525  10
  -5  -5   1 1381.33 70.1672   9
   5  -5  -1 1289.64 47.5512   6
   5  -5   0 939.138 64.9170   1
  -5  -5   0 995.242 62.8419  14
   5  -5   0 999.525 64.8414  11
  -5  -5   0 960.884 62.6090   5
  -5  -5   0 1053.06 65.7818  10
  -5  -5   0 1064.43 62.2896   9
   5  -5   0 1023.63 44.7480   6
  -5  -5  -1 1601.55 89.7358   2
   5  -5   1 1580.07 83.8668   1
  -5  -5  -1 1333.19 72.6450  14
   5  -5   1 1352.52 78.6951  11
  -5  -5  -1 1421.10 75.8423  10
   5  -5   1 1425.50 60.5104   6
  -5  -5  -1 1368.07 74.1145   9
  -5  -5  -1 1425.40 77.5049   5
   5  -5   2-6.75869 15.5833   6
  -5  -5  -2 26.3528 23.4133   5
   5  -5   2 27.6118 20.9420  11
  -5  -5  -2 18.1553 20.0491  10
  -5  -5  -2 24.6948 22.5995  14
   5  -5   2 26.7615 22.2339   1
  -5  -5  -2 23.9941 22.5027   2
  -5  -5  -3 3486.75 147.452   2
  -5  -5  -3 3141.61 108.827   3
  -5  -5  -3 3340.78 126.720  14
   5  -5   3 3577.32 144.892  11
  -5  -5  -3 3355.10 123.865  10
   5  -5   3 3558.23 125.342   6
   5  -5   3 3331.06 125.918   9
  -5  -5  -3 3470.80 131.347   5
  -5  -5  -4 722.468 63.0872   2
  -5  -5  -4 671.014 53.5750   5
  -5  -5  -4 629.827 51.4366  14
  -5  -5  -4 749.434 48.8449  10
   5  -5   4 809.010 51.8192   9
   5  -5   4 771.139 54.2661   6
   5  -5   5 2176.34 103.479   6
  -5  -5  -5 2289.81 102.150   7
   5  -5   5 2466.47 108.969   7
  -5  -5  -5 2246.66 98.8923   5
  -5  -5  -5 2272.54 87.8538  10
   5  -5   5 2248.03 92.9107   9
  -5  -5  -5 2368.04 117.462   2
  -5  -5  -5 2194.30 95.7354   3
  -5  -5  -6 92.3134 30.1172   2
   5  -5   6 67.6832 31.5267   7
   5  -5   6 81.2901 26.4873  12
  -5  -5  -6 12.8667 26.3217   5
   5  -5   6 82.2721 28.4000   6
   5  -5   6 59.6207 27.0119  11
  -5  -5  -6 70.1470 19.4403  10
   5  -5   6 58.9950 21.5664   9
  -5  -5  -6 37.2953 26.4635   3
   5  -5   7 2013.85 106.377   7
   5  -5   7 2015.47 105.346   6
   5  -5   7 1739.53 87.4059  12
   5  -5   7 2043.10 108.992  11
  -5  -5  -7 1712.23 84.2873   5
  -5  -5  -7 1518.60 62.2373  10
   5  -5   7 1944.18 78.1445   9
  -5  -5  -7 1873.28 104.296   2
   5  -5   8 6.56393 20.8531  12
   5  -5   8 36.1150 27.7275  11
   5  -5   8-3.86534 30.6518   7
   5  -5   8 3.96875 29.3612   6
   5  -5   8 4.52147 16.5870   9
  -5  -5  -8 11.2071 25.8131   2
   5  -5   9 428.869 54.4239  11
   5  -5   9 463.089 61.0231   7
   5  -5   9 454.355 60.5920   6
   5  -5   9 283.254 29.0838   9
  -5  -5  -9 362.099 48.7443   2
   5  -5  10 168.266 49.4731   7
   5  -5  10 152.491 44.7038   6
   5  -5  10 172.539 39.7801  11
   5  -5  10 227.818 55.4181   3
  -5  -5 -10 132.635 35.8762   2
   5  -5  11 1062.44 87.0083  11
   5  -5  11 1125.56 104.464   3
   5  -5  11 1196.36 101.598   7
   5  -5  11 1224.51 100.439   6
   5  -5  12 67.8608 47.4919   7
  -5  -4  13 621.573 75.2169  10
  -5  -4  12 4.61455 35.9082   6
  -5  -4  12-24.8011 50.2116   7
  -5  -4  12 4.68714 34.3044  10
  -5  -4  11 834.434 80.9507   6
  -5  -4  11 964.755 87.3022   7
  -5  -4  11 815.148 79.8536  10
  -5  -4  10-24.7623 32.4220   6
  -5  -4  10-17.0736 35.6782   7
  -5  -4  10 22.3537 30.8911  10
  -5  -4  10 21.2446 25.0549  11
  -5  -4   9 416.295 55.0911   6
   5  -4  -9 406.688 39.5984   5
  -5  -4   9 450.183 58.4444  10
  -5  -4   9 305.602 30.8411   2
  -5  -4   9 365.412 55.3893   7
  -5  -4   8 314.930 49.4794  10
  -5  -4   8 218.979 29.6889   2
  -5  -4   8 164.118 37.4379   5
  -5  -4   8 281.574 46.7716   6
  -5  -4   8 303.419 47.1329   7
  -5  -4   7 809.402 61.1868   5
  -5  -4   7 930.457 74.9122  10
  -5  -4   7 800.518 54.0267   2
  -5  -4   7 1045.08 74.3425   6
   5  -4  -7 665.605 43.2286   6
  -5  -4   7 1008.94 72.3295   7
   5  -4  -6 12.5993 13.5178   6
  -5  -4   6 28.5028 24.4072   6
  -5  -4   6 4.72973 25.7746   5
   5  -4  -6-12.0568 28.6243   7
  -5  -4   6 17.0138 27.0259   7
   5  -4  -6-5.78238 29.1015   1
  -5  -4   6 26.0996 20.9592   2
  -5  -4   5 1623.94 80.6786   5
   5  -4  -5 1524.60 84.8466   1
  -5  -4   5 1600.39 78.6477   2
   5  -4  -5 1424.53 73.9960   7
  -5  -4   5 1755.59 82.5022   7
  -5  -4   4 669.095 54.7857  14
  -5  -4   4 608.861 50.2600   5
   5  -4  -4 574.448 51.3883   1
  -5  -4   4 707.909 58.9715  10
  -5  -4   4 616.613 50.4095   2
   5  -4  -4 561.400 45.0900   7
  -5  -4   3 2086.91 94.2680   5
   5  -4  -3 2077.95 68.2372   4
  -5  -4   3 2186.15 104.004  10
  -5  -4   3 2129.88 97.4752  14
  -5  -4   3 2061.30 98.0301   2
   5  -4  -3 2155.04 99.0631   1
   5  -4  -2 1062.71 65.8210   1
  -5  -4   2 1139.43 66.6973  14
  -5  -4   2 996.779 66.6246  10
  -5  -4   2 1142.04 59.3673   9
  -5  -4   2 1076.07 67.6558   2
   5  -4  -1 2949.39 119.604   1
  -5  -4   1 3141.52 117.626  14
   5  -4  -1 2971.13 116.239  11
  -5  -4   1 3263.31 118.833   5
  -5  -4   1 3003.30 121.125  10
  -5  -4   1 3176.50 111.784   9
   5  -4  -1 2748.39 76.8081   6
   5  -4   0 2091.80 98.1016   1
  -5  -4   0 2077.94 92.9579  14
   5  -4   0 1988.54 94.7207  11
  -5  -4   0 2147.93 93.7671   5
  -5  -4   0 2143.43 96.1732  10
  -5  -4   0 2269.15 92.8835   9
   5  -4   0 2219.32 68.8284   6
  -5  -4  -1 1361.17 81.4579   2
   5  -4   1 1456.96 78.3971   1
  -5  -4  -1 1510.68 74.2593  14
   5  -4   1 1452.66 77.4074  11
  -5  -4  -1 1410.34 73.1085   5
  -5  -4  -1 1453.60 73.1893  10
  -5  -4  -1 1446.95 72.5272   9
   5  -4   1 1355.68 56.1393   6
  -5  -4  -2 3896.96 156.741   2
   5  -4   2 4186.44 152.411   1
  -5  -4  -2 4248.68 144.241  14
   5  -4   2 3884.39 150.673  11
  -5  -4  -2 4014.06 142.101   5
  -5  -4  -2 3970.40 139.828  10
   5  -4   2 3954.78 141.722   9
   5  -4   2 4004.48 129.115   6
  -5  -4  -3 359.289 43.9625   2
  -5  -4  -3 404.677 31.2125   3
  -5  -4  -3 360.227 38.7115  14
   5  -4   3 372.119 42.1189  11
  -5  -4  -3 386.193 35.7102  10
   5  -4   3 360.832 34.3068   6
  -5  -4  -3 335.655 40.3825   9
   5  -4   3 429.460 37.9409   9
  -5  -4  -3 442.575 41.7117   5
  -5  -4  -4 2261.02 93.6599   5
  -5  -4  -4 2156.87 89.0088   7
   5  -4   4 2069.83 91.8350   6
  -5  -4  -4 2025.86 84.6717  10
  -5  -4  -4 2169.11 99.7556   9
   5  -4   4 2015.16 88.4018   9
  -5  -4  -4 2103.40 106.192   2
   5  -4   4 2026.63 106.405   3
  -5  -4  -5 33.4733 24.7666   2
  -5  -4  -5 28.1414 23.0099   7
   5  -4   5 41.4047 24.6658   7
   5  -4   5 18.3135 21.5042   6
  -5  -4  -5-8.03868 27.8595   5
  -5  -4  -5 12.9656 16.2236  10
   5  -4   5 55.0833 24.2277  11
   5  -4   5 17.7967 20.3593   9
  -5  -4  -5-4.28574 25.5441   3
   5  -4   5-7.37786 27.8679   3
  -5  -4  -6 3082.93 125.406   7
   5  -4   6 3302.38 133.091   7
   5  -4   6 3221.04 133.802   6
   5  -4   6 3168.58 138.139  11
  -5  -4  -6 3159.35 118.010   5
  -5  -4  -6 3274.01 108.036  10
   5  -4   6 3290.13 117.597   9
  -5  -4  -6 2916.28 135.010   2
   5  -4   6 3379.68 150.779   3
  -5  -4  -6 3122.53 125.914   3
  -5  -4  -7 27.7443 25.3986   2
   5  -4   7 40.7799 21.9119  12
   5  -4   7 44.4466 27.1272   6
   5  -4   7 51.9268 29.3154   7
  -5  -4  -7 43.2529 16.9459  10
  -5  -4  -7 29.6604 17.7483  11
   5  -4   7 42.4058 24.4347  11
   5  -4   7 37.4241 20.5135   9
   5  -4   7 34.9125 30.8944   3
   5  -4   8 1213.86 81.2432  11
   5  -4   8 1124.84 61.7954  12
   5  -4   8 1305.27 86.4627   7
   5  -4   8 1126.42 82.4036   6
  -5  -4  -8 860.765 43.0879  10
   5  -4   8 1091.69 59.1785   9
  -5  -4  -8 990.709 74.9586   2
   5  -4   9 111.645 23.2194  12
   5  -4   9 158.779 42.9385   7
   5  -4   9 118.842 40.5602   6
   5  -4   9 162.302 37.0035  11
   5  -4   9 131.108 23.4517   9
  -5  -4  -9 96.8330 31.8066   2
   5  -4  10 792.113 71.3101  11
   5  -4  10 837.667 80.3325   6
   5  -4  10 819.208 78.6609   7
  -5  -4 -10 719.773 64.2399   2
   5  -4  11 127.521 44.7808   7
   5  -4  11 70.6733 39.7235   6
   5  -4  12 566.448 75.0684   7
   5  -4  12 570.435 75.3884   6
  -5  -3  13-31.9577 40.3294   6
  -5  -3  13-16.9495 33.6063  10
  -5  -3  12 279.607 58.1694   7
  -5  -3  12 338.436 54.7049   6
  -5  -3  12 309.672 55.2197  10
  -5  -3  11 13.4008 38.8726   7
  -5  -3  11 59.3735 35.1637  10
  -5  -3  11 17.6596 23.3566  11
  -5  -3  11 93.5666 39.0287   6
  -5  -3  10 876.541 77.7786  10
   5  -3 -10 791.051 58.7354  14
  -5  -3  10 730.517 70.3724   6
  -5  -3  10 935.761 80.1583   7
   5  -3  -9 34.1796 23.1805  14
  -5  -3   9 54.9411 32.2608  10
  -5  -3   9 31.6214 28.3833   6
   5  -3  -9 29.5825 21.8701   5
  -5  -3   9 30.3979 12.1723   2
  -5  -3   9 37.1306 30.5249   7
   5  -3  -8 1673.60 77.0220  14
   5  -3  -8 1781.89 79.4679   5
  -5  -3   8 2002.33 105.849  10
  -5  -3   8 1799.39 95.6548   6
   5  -3  -8 1422.12 70.5402   6
  -5  -3   8 1872.38 100.491   7
  -5  -3   8 1349.95 63.3496   2
   5  -3  -7 243.601 36.1756  13
  -5  -3   7 289.850 44.3109  10
  -5  -3   7 159.686 25.5511   2
   5  -3  -7 224.401 32.8048   5
  -5  -3   7 177.551 34.1866   5
  -5  -3   7 321.845 42.7525   6
   5  -3  -7 250.376 38.4807   7
  -5  -3   7 249.740 41.4389   7
  -5  -3   6 1842.78 91.2059   6
   5  -3  -6 1735.66 84.6617   7
  -5  -3   6 1826.08 88.9745   7
  -5  -3   6 1808.99 97.4974  10
   5  -3  -6 1701.41 83.6857   8
  -5  -3   6 1665.96 76.6397   2
  -5  -3   6 1813.91 85.7909   5
   5  -3  -5 314.681 37.1578   7
  -5  -3   5 382.881 41.0184   6
  -5  -3   5 438.881 40.2707   7
   5  -3  -5 366.384 37.6333   8
  -5  -3   5 312.721 37.1237   5
  -5  -3   5 346.670 35.6311   2
  -5  -3   4 3796.56 137.852   5
  -5  -3   4 3905.48 138.797   2
   5  -3  -4 3818.91 129.059   7
  -5  -3   4 4008.18 134.452   7
  -5  -3   3 2756.64 111.399  14
  -5  -3   3 2633.80 105.568   5
  -5  -3   3 2555.27 113.803  10
   5  -3  -3 2488.63 111.247   1
  -5  -3   3 2727.90 109.308   2
   5  -3  -3 2773.00 94.8081   7
   5  -3  -2 1112.17 67.3746   1
  -5  -3   2 1123.79 66.7944  10
  -5  -3   2 1214.12 66.2606  14
  -5  -3   2 1218.86 67.6432   2
  -5  -3   1 2407.79 96.9408   5
   5  -3  -1 2244.55 64.3603   4
  -5  -3   1 2534.10 100.178  14
  -5  -3   1 2423.45 101.586  10
  -5  -3   1 2428.05 93.6784   9
   5  -3  -1 2333.82 101.028   1
   5  -3   0 2794.02 113.361   1
  -5  -3   0 2910.64 110.268  14
  -5  -3   0 2795.39 107.702   5
  -5  -3   0 2900.15 111.175  10
  -5  -3   0 2891.85 106.698   9
   5  -3   0 2697.23 79.3389   6
   5  -3   1 3453.41 129.506  11
   5  -3   1 3431.14 129.549   1
  -5  -3  -1 3455.53 123.677   5
  -5  -3  -1 3472.86 125.065  14
   5  -3   1 3292.62 102.277   6
  -5  -3  -2 1611.16 76.8452  14
  -5  -3  -2 1671.82 76.4539   5
   5  -3   2 1677.33 66.6753   6
  -5  -3  -2 1595.82 76.9969   9
   5  -3   2 1582.67 75.6617   9
   5  -3   2 1609.26 81.6035  11
  -5  -3  -3 4863.10 163.670   5
  -5  -3  -3 5258.55 156.176   7
   5  -3   3 5046.07 160.318   6
   5  -3   3 5294.87 168.515   9
  -5  -3  -3 5178.18 171.509   9
   5  -3   3 4878.26 175.651  11
   5  -3   4 484.685 46.4243   1
   5  -3   4 534.184 42.7488   6
   5  -3   4 585.941 42.7344   7
  -5  -3  -4 436.323 39.5132   5
   5  -3   4 500.628 40.4394   9
  -5  -3  -4 489.190 45.6802   9
   5  -3   4 434.032 47.8995   3
   5  -3   5 1783.16 91.1823   1
  -5  -3  -5 1756.87 79.3293   7
   5  -3   5 1727.59 85.5934   6
   5  -3   5 1858.87 83.8309   7
   5  -3   5 1742.07 89.7063  11
   5  -3   5 1846.09 99.3759   3
  -5  -3  -5 1537.92 78.7519   3
   5  -3   5 1731.79 78.7840   9
  -5  -3  -5 1581.45 76.8061   8
  -5  -3  -5 1740.05 87.6057   9
  -5  -3  -5 1570.78 87.7357   4
   5  -3   6 33.6811 23.8357   1
   5  -3   6 43.5324 26.0226   6
  -5  -3  -6 24.7781 22.2881   7
   5  -3   6 28.9552 25.5733   7
  -5  -3  -6 17.6709 24.2001   8
  -5  -3  -6 22.0575 18.2452  11
   5  -3   6 34.0166 23.3688  11
   5  -3   6 36.9502 19.7002   9
   5  -3   6 26.6241 27.5406   3
  -5  -3  -6 15.1005 24.9000   3
   5  -3   7 2672.13 119.647  11
  -5  -3  -7 2282.61 96.3467  11
   5  -3   7 2518.11 119.458   6
   5  -3   7 2504.09 114.806   7
  -5  -3  -7 2446.67 109.438   8
   5  -3   7 2637.44 102.738   9
   5  -3   7 2710.75 134.299   3
  -5  -3  -8 95.0643 30.5745   2
   5  -3   8 118.412 34.3765   7
   5  -3   8 119.213 34.9416   6
  -5  -3  -8 126.257 24.1684  11
   5  -3   8 153.653 33.7517  11
   5  -3   8 135.609 26.4951   9
   5  -3   8 117.931 38.6545   3
   5  -3   9 669.677 39.6200  12
   5  -3   9 655.476 49.0497   9
   5  -3   9 671.525 67.6053   6
   5  -3   9 780.643 70.7178   7
  -5  -3  -9 656.597 59.8494   2
   5  -3   9 802.937 80.2327   3
   5  -3  10 72.2351 21.4727   5
   5  -3  10 66.8805 37.8032   7
   5  -3  10 86.7400 36.9313   6
   5  -3  10 92.7119 24.0476   9
   5  -3  10 189.548 50.8665   3
  -5  -3 -10 119.210 31.9408   2
   5  -3  11 396.465 61.4352   7
   5  -3  11 369.010 59.3309   6
   5  -3  11 316.288 61.8560   3
  -5  -3 -12 111.738 41.5312  14
   5  -3  12 49.1259 43.4415   7
   5  -3  12 96.9267 43.5331   6
  -5  -2  13 233.610 59.1072   7
  -5  -2  13 288.247 50.6123   6
  -5  -2  13 263.268 48.2540  10
  -5  -2  12 8.12134 30.3593   6
  -5  -2  12-47.2050 41.3837   7
  -5  -2  12 7.80056 29.7615  10
   5  -2 -11 718.168 62.2507  14
  -5  -2  11 811.995 78.9166   7
  -5  -2  11 706.991 67.5387   6
  -5  -2  11 691.406 68.1866  10
  -5  -2  10 20.9004 28.1432   6
   5  -2 -10 60.9349 27.4077  14
  -5  -2  10 23.7029 33.8479   7
  -5  -2  10 37.1817 31.3494  10
   5  -2  -9 1053.75 59.0332   5
  -5  -2   9 1199.26 82.9298  10
   5  -2  -9 1167.04 72.2208  14
  -5  -2   9 994.038 74.2772   6
  -5  -2   9 1195.96 84.2731   7
  -5  -2   8 199.780 35.9020   6
   5  -2  -8 161.415 27.8483   5
  -5  -2   8 87.1802 15.4948   2
  -5  -2   8 200.838 39.0050  10
   5  -2  -8 203.408 33.4302  14
  -5  -2   8 139.193 35.4551   7
  -5  -2   7 1313.79 60.2610   2
   5  -2  -7 1700.33 78.8646  14
   5  -2  -7 1653.97 83.5148  13
   5  -2  -7 1644.91 76.4528   5
  -5  -2   7 1795.75 94.1823  10
   5  -2  -7 1491.45 80.8580   8
  -5  -2   7 1621.36 83.3529   6
  -5  -2   7 1916.38 91.1879   7
   5  -2  -7 1462.42 81.7668   7
   5  -2  -6 160.610 28.0074  14
  -5  -2   6 230.889 36.3490  14
   5  -2  -6 143.141 30.6608  13
  -5  -2   6 172.587 34.3353  10
  -5  -2   6 147.906 23.2279   2
  -5  -2   6 153.891 31.4295   7
   5  -2  -6 156.008 30.6869   7
   5  -2  -6 159.125 29.5064   8
   5  -2  -6 182.419 28.7381   5
  -5  -2   6 160.323 29.7092   6
  -5  -2   5 1477.77 67.0884   2
   5  -2  -5 1562.70 77.0657  13
  -5  -2   5 1439.22 78.4948  14
  -5  -2   5 1646.60 85.1813  10
   5  -2  -5 1312.70 66.8593   8
  -5  -2   5 1463.52 72.8375   6
   5  -2  -5 1422.01 69.1943   7
  -5  -2   5 1587.49 73.4284   7
   5  -2  -4 3952.76 137.807  13
  -5  -2   4 3835.39 132.413   2
   5  -2  -4 3758.36 123.861   7
  -5  -2   4 3773.46 127.350   7
  -5  -2   4 4001.52 135.888   5
   5  -2  -3 7913.30 236.002  13
   5  -2  -3 7945.16 217.216   7
  -5  -2   3 7821.76 219.218   7
  -5  -2   3 7868.46 234.832   2
  -5  -2   3 7947.82 234.051   5
  -5  -2   2 4008.31 145.899  10
  -5  -2   2 4116.49 142.464  14
   5  -2  -2 4112.72 119.896   7
  -5  -2   2 4210.94 122.379   7
  -5  -2   1 2179.94 91.0177  14
  -5  -2   0 5596.01 177.288  14
   5  -2   0 5574.93 152.553   4
  -5  -2  -1 3198.14 118.835   9
  -5  -2  -1 3384.43 121.575  14
  -5  -2  -1 3289.85 119.398   5
   5  -2   1 3517.48 102.046   4
  -5  -2  -2 4722.06 152.092   5
   5  -2   2 4496.70 153.521   9
   5  -2   2 4750.69 141.067   6
  -5  -2  -2 4776.12 133.192   7
   5  -2   2 4407.02 134.208   7
   5  -2   3 355.863 36.7745   1
  -5  -2  -3 350.282 28.5199  13
  -5  -2  -3 329.221 35.8567   9
   5  -2   3 488.720 39.1972   9
   5  -2   3 380.664 32.2838   6
  -5  -2  -3 408.119 29.9288   7
   5  -2   3 451.379 31.1876   7
   5  -2   4 2891.30 122.346   3
   5  -2   4 2712.07 112.482   1
  -5  -2  -4 2718.59 92.5449  13
  -5  -2  -4 2934.55 115.899   4
  -5  -2  -4 2754.07 98.3432   8
   5  -2   4 2872.84 109.230   9
  -5  -2  -4 2760.05 110.874   9
  -5  -2  -4 2792.56 110.346   6
   5  -2   4 2842.36 109.014   6
   5  -2   4 2822.33 101.999   7
   5  -2   5 10.3836 18.7939   1
  -5  -2  -5 13.3486 12.2426  13
  -5  -2  -5-2.41429 19.4985   6
  -5  -2  -5 39.7718 21.4612   7
   5  -2   5 14.2898 19.2068   7
  -5  -2  -5 10.5790 18.3510   8
   5  -2   5 9.76286 18.6262   6
  -5  -2  -5 13.9987 17.2668  11
  -5  -2  -5-2.37373 22.4791   9
   5  -2   5 14.9312 19.5335   9
   5  -2   5 3.25373 21.3595   3
  -5  -2  -5 28.9605 21.9032   3
  -5  -2  -5 24.2630 24.8576   4
   5  -2   6 1157.51 71.7627   1
  -5  -2  -6 1099.23 61.8135  11
   5  -2   6 1276.90 75.4419   6
   5  -2   6 1224.26 69.2603   7
  -5  -2  -6 1161.59 66.5493   7
  -5  -2  -6 1181.10 66.1864   8
   5  -2   6 1309.03 68.3875   9
  -5  -2  -6 1177.38 71.2479   9
   5  -2   6 1156.52 79.3199   3
  -5  -2  -6 1251.89 73.0134   3
   5  -2   7 41.4111 23.6771   1
   5  -2   7 5.64360 27.0692   7
  -5  -2  -7 29.2889 26.8643   7
  -5  -2  -7-2.35164 25.5080   8
   5  -2   7 25.9767 26.2258   6
  -5  -2  -7 14.1643 16.9209  11
   5  -2   7 31.6892 20.7318   9
   5  -2   7 35.9193 29.8420   3
   5  -2   8 1540.50 92.4062   6
   5  -2   8 1271.24 83.2046   7
   5  -2   8 1431.23 67.1870   5
   5  -2   8 1269.64 56.4798  12
  -5  -2  -8 1104.91 64.1730  11
   5  -2   8 1484.71 74.7640   9
   5  -2   8 1618.79 102.400   3
   5  -2   9 58.0464 31.3320   7
   5  -2   9 45.0554 32.1903   6
   5  -2   9 27.8966 11.4576  12
   5  -2   9 28.4487 36.5503   3
   5  -2   9 35.3987 21.6274   9
   5  -2   9 64.2655 20.8400   5
   5  -2  10 735.556 55.7535   9
   5  -2  10 849.259 85.6124   3
  -5  -2 -10 647.970 58.4704   2
   5  -2  10 860.264 79.7455   6
   5  -2  10 781.011 74.7017   7
   5  -2  10 675.481 39.4060   5
   5  -2  11 8.84539 39.0753   7
   5  -2  11 74.2328 39.6152   6
   5  -2  12 326.786 61.9555   7
  -5  -2 -12 388.013 59.1176  14
   5  -2  13 56.8772 46.0422   7
  -5  -2 -13 80.9591 39.1741  14
  -5  -1  14 302.721 52.7549   6
   5  -1 -13 70.4952 39.7559   1
  -5  -1  13 121.420 37.6425   6
   5  -1 -12 459.495 58.0587  14
  -5  -1  12 462.735 55.7955   6
  -5  -1  12 423.395 54.5487  10
   5  -1 -11 23.7735 29.3203  14
  -5  -1  11 12.8367 38.3558   7
  -5  -1  11-7.02470 26.8023   6
  -5  -1  11 6.87291 28.9641  10
  -5  -1  11 20.0035 16.8833  11
   5  -1 -10 797.317 59.3637  12
  -5  -1  10 922.532 72.3739  10
   5  -1 -10 979.531 73.7615  14
  -5  -1  10 1036.32 82.9717   7
  -5  -1  10 1023.09 73.2736   6
  -5  -1   9 61.5919 28.6469  10
   5  -1  -9 44.3109 27.6207  14
  -5  -1   9 54.9044 27.3772   6
   5  -1  -9 5.18862 26.6715   5
  -5  -1   9 44.8885 33.1301   7
  -5  -1   8 1745.32 93.6358  10
   5  -1  -8 1636.36 87.3487  14
  -5  -1   8 1675.38 85.0464   6
  -5  -1   8 1758.82 93.4330   7
   5  -1  -8 1734.76 77.2597   5
   5  -1  -7 455.717 40.9213   5
   5  -1  -7 473.444 46.2008  14
  -5  -1   7 418.348 46.4686  14
   5  -1  -7 391.385 42.6905  13
  -5  -1   7 475.118 48.4972  10
   5  -1  -7 380.287 44.8840   8
  -5  -1   7 526.535 43.6967   6
   5  -1  -7 385.818 44.8368   7
  -5  -1   7 510.039 47.1928   7
  -5  -1   7 278.017 23.7636   2
  -5  -1   6 1756.02 71.1385   2
   5  -1  -6 2025.56 86.6641   5
   5  -1  -6 2050.81 92.5374  13
   5  -1  -6 2038.33 91.0921  14
  -5  -1   6 1916.44 93.1822  14
  -5  -1   6 2169.58 99.1555  10
   5  -1  -6 1992.53 86.7025   8
  -5  -1   6 2095.42 86.7512   6
  -5  -1   6 2147.59 91.5828   7
   5  -1  -6 1934.37 86.7011   7
   5  -1  -5 2030.66 87.8223   5
   5  -1  -5 2101.88 92.4323  13
   5  -1  -5 2056.43 90.0511  14
  -5  -1   5 2111.25 93.9327  14
  -5  -1   5 2179.38 98.2379  10
  -5  -1   5 2235.43 88.5263   7
  -5  -1   5 2051.54 84.0754   6
   5  -1  -5 2127.66 85.0104   7
  -5  -1   5 2082.55 80.1115   2
   5  -1  -4 2067.50 87.3832   5
   5  -1  -4 1959.37 87.2674  13
  -5  -1   4 2035.33 89.1127  14
   5  -1  -4 2038.27 76.3337   8
  -5  -1   4 2073.58 79.8315   6
  -5  -1   4 2059.47 78.5862   7
   5  -1  -4 1983.06 76.4866   7
   5  -1  -3 516.306 40.8600   5
  -5  -1   3 532.080 41.3255  14
   5  -1  -3 457.112 40.3500  13
  -5  -1   3 568.583 32.1635   7
   5  -1  -3 508.969 30.6929   7
   5  -1  -3 531.206 30.8180   8
  -5  -1   2 832.971 34.4113   7
   5  -1  -2 834.312 33.9810   7
  -5  -1   1 4426.96 148.262  13
   5  -1  -1 4357.83 149.146   9
  -5  -1   1 4446.43 113.522   7
   5  -1  -1 4324.03 113.138   7
   5  -1   0 2411.67 97.5016   9
   5  -1   0 2343.73 82.5209   4
  -5  -1   0 2588.71 97.1243  14
  -5  -1   0 2346.05 93.6974  13
   5  -1   1 2135.77 77.1397   4
  -5  -1  -1 2232.14 85.4050  13
   5  -1   1 2118.42 59.1648   7
  -5  -1  -1 2036.46 58.5338   7
   5  -1   2 489.137 33.0553   4
   5  -1   2 474.371 24.8837   7
  -5  -1  -2 427.477 23.6830   7
  -5  -1  -2 439.757 33.3646  13
   5  -1   3 5439.66 178.000   3
  -5  -1  -3 5215.11 158.667  13
  -5  -1  -3 5173.99 168.649   9
   5  -1   3 5199.06 170.587   9
  -5  -1  -3 5272.89 149.905   8
   5  -1   3 5367.95 152.220   7
  -5  -1  -3 5210.57 150.011   7
   5  -1   4 1440.83 78.0097   3
  -5  -1  -4 1385.80 59.3173  13
  -5  -1  -4 1391.10 68.1302  11
   5  -1   4 1497.42 72.1734   1
  -5  -1  -4 1516.28 74.2572   4
  -5  -1  -4 1440.79 60.3124   8
  -5  -1  -4 1277.83 68.6337   9
   5  -1   4 1446.86 71.7898   9
   5  -1   4 1345.63 61.2183   7
  -5  -1  -4 1335.27 68.7004   6
  -5  -1  -4 1391.60 60.1930   7
   5  -1   5 3065.84 129.404   3
  -5  -1  -5 3097.59 99.2445  13
  -5  -1  -5 2927.19 111.214  11
   5  -1   5 3041.94 117.308   1
  -5  -1  -5 2789.54 118.496   4
  -5  -1  -5 3017.59 106.626   8
   5  -1   5 3035.86 117.671   9
  -5  -1  -5 2951.34 115.770   9
   5  -1   5 3023.96 120.787   6
   5  -1   5 2991.07 110.498   7
  -5  -1  -5 2986.13 117.169   6
   5  -1   6 460.618 50.8675   3
  -5  -1  -6 457.756 30.3457  13
  -5  -1  -6 434.518 39.8024  11
   5  -1   6 552.142 46.9336   1
  -5  -1  -6 434.422 38.4562   1
   5  -1   6 450.051 38.2388   5
  -5  -1  -6 435.012 47.4601   4
  -5  -1  -6 497.080 42.4974   8
  -5  -1  -6 500.084 45.1060   9
   5  -1   6 427.031 42.2068   9
  -5  -1  -6 395.325 43.4683   6
   5  -1   6 548.914 48.9351   6
   5  -1   6 514.276 44.2235   7
  -5  -1  -6 493.982 42.3320   7
   5  -1   7 2338.98 118.707   3
  -5  -1  -7 2294.27 92.4376   1
   5  -1   7 2154.71 100.656   1
  -5  -1  -7 2225.55 74.8243  13
  -5  -1  -7 2029.28 90.3949  11
   5  -1   7 2186.28 87.1086   5
   5  -1   7 2281.59 100.394   9
  -5  -1  -7 2253.09 100.165   9
  -5  -1  -7 2167.19 96.5577   8
   5  -1   7 2139.15 108.187   6
   5  -1   7 2263.69 103.486   7
  -5  -1  -7 1966.48 96.6279   7
  -5  -1  -8 33.4723 20.0897   1
   5  -1   8 34.3340 22.2864   1
   5  -1   8 73.3143 33.1105   6
   5  -1   8 37.1925 28.3967   7
  -5  -1  -8 38.9292 13.5818  13
   5  -1   8 41.9962 18.9413   5
  -5  -1  -8 44.6243 21.2881  11
   5  -1   8 52.0357 24.3347   9
   5  -1   8 41.9976 32.6956   3
  -5  -1  -9 810.268 57.4702   1
  -5  -1  -9 683.688 30.9036  13
  -5  -1  -9 794.237 53.9837  11
   5  -1   9 766.666 43.4755   5
   5  -1   9 875.265 63.9269   9
   5  -1   9 961.483 77.9096   6
   5  -1   9 970.213 75.2536   7
   5  -1   9 916.522 82.3763   3
   5  -1  10 54.9525 14.2582   5
   5  -1  10 66.8976 35.8206   7
   5  -1  10 88.8469 30.7469   9
   5  -1  10 106.004 44.6180   3
  -5  -1 -10 98.8664 25.8391   1
   5  -1  11 696.803 74.5457   7
  -5  -1 -11 645.738 72.0625  14
  -5  -1 -12 86.8376 41.3728  14
  -5  -1 -13 353.272 60.9854  14
   5   0 -13 425.722 62.2164  14
   5   0 -13 401.319 66.5046   1
  -5   0  13 413.453 55.2291   6
   5   0 -12 39.9419 33.6792  14
  -5   0  12 64.0544 32.1451   6
  -5   0  12 30.2424 28.0926  10
   5   0 -11 965.655 78.8399  14
  -5   0  11 867.497 69.5279   6
  -5   0  11 850.856 67.5880  10
   5   0 -10-44.6948 33.8681  12
  -5   0  10-6.00721 23.3743  10
   5   0 -10 10.6055 28.0344  14
  -5   0  10 2.94752 22.9379   6
   5   0  -9 648.782 53.5844  12
   5   0  -9 680.946 48.3532   5
  -5   0   9 752.858 60.7681  10
   5   0  -9 806.681 66.3120  14
  -5   0   9 677.941 56.0013   6
   5   0  -8 12.3742 22.5102  12
  -5   0   8 16.8000 24.1786  10
   5   0  -8 39.5941 25.2515  14
  -5   0   8 33.1059 25.9878   7
  -5   0   8 13.7957 20.0120   6
   5   0  -8 33.0492 20.2390   5
   5   0  -7 1969.86 80.2726   5
   5   0  -7 1796.24 87.1855  13
  -5   0   7 1928.84 88.9549  14
   5   0  -7 1932.19 91.3376  14
  -5   0   7 1828.07 87.7377  10
   5   0  -7 1716.41 83.4714   8
  -5   0   7 1938.35 89.1319   7
  -5   0   7 1926.59 78.7464   6
  -5   0   6 1266.68 53.9788   2
   5   0  -6 1510.83 79.6230  14
   5   0  -6 1322.86 74.7792  13
  -5   0   6 1470.39 75.7493  14
  -5   0   6 1370.96 75.7276  10
   5   0  -6 1444.64 70.8981   5
   5   0  -6 1524.56 71.5722   8
  -5   0   6 1374.53 64.1642   6
  -5   0   6 1524.76 74.1047   7
  -5   0   5 1982.91 91.4359  10
   5   0  -5 2067.79 92.0189  13
   5   0  -5 2111.56 93.5086  14
  -5   0   5 2218.12 91.8328  14
  -5   0   5 2078.28 77.9267   6
  -5   0   5 2032.35 84.8980   7
   5   0  -5 2079.88 88.4820   5
   5   0  -4 1580.13 76.1680  14
   5   0  -4 1491.04 73.9718  13
  -5   0   4 1558.72 73.1089  14
   5   0  -4 1582.53 63.1929   8
  -5   0   4 1569.26 64.3532   7
  -5   0   4 1436.16 58.1072   6
   5   0  -4 1503.13 72.1572   5
  -5   0   3 2800.41 112.110  13
   5   0  -3 2694.88 105.238  13
  -5   0   3 2953.45 105.749  14
   5   0  -3 2864.19 88.4392   8
  -5   0   3 2688.91 86.9408   6
   5   0  -3 2757.89 107.737   5
   5   0  -2 931.564 55.1179   5
  -5   0   2 848.205 53.5003  13
  -5   0   2 907.079 51.6259  14
   5   0  -2 896.432 34.2598   8
   5   0  -2 917.803 54.0952   9
   5   0  -1 2015.16 87.2717   5
  -5   0   1 2058.31 86.9264  13
   5   0  -1 2062.52 87.6225   9
   5   0   0 7250.49 220.649   5
   5   0   0 7144.43 220.175   9
  -5   0   0 7659.52 219.373  13
  -5   0  -1 102.001 19.9869  13
  -5   0  -1 100.162 16.9964   6
   5   0   1 102.220 22.4191   9
   5   0   1 114.145 20.8943   4
   5   0   2 2788.12 105.117   3
  -5   0  -2 2868.81 106.657  11
  -5   0  -2 2955.20 102.856  13
   5   0   2 2780.96 102.724   4
  -5   0  -2 2737.52 80.7381   8
  -5   0  -2 3036.59 107.195   9
  -5   0  -2 2778.46 96.7365   6
  -5   0  -3 2298.80 87.8349  13
  -5   0  -3 2438.24 95.4757  11
   5   0   3 2494.60 96.3100   4
   5   0   3 2358.48 93.8353   5
  -5   0  -3 2325.72 92.2991   4
  -5   0  -3 2308.92 76.4721   8
  -5   0  -3 2464.33 95.2074   9
   5   0   3 2256.58 96.7869   3
   5   0   4 2239.59 100.017   3
  -5   0  -4 2283.22 94.3694   1
  -5   0  -4 2186.75 85.1622  13
  -5   0  -4 2306.06 94.1104  11
   5   0   4 2318.82 91.7624   5
   5   0   4 2384.09 98.8962   4
  -5   0  -4 2227.81 94.1447   4
   5   0   4 2293.99 98.8089   9
  -5   0  -4 2374.24 82.8406   8
  -5   0  -4 2334.03 94.3426   9
   5   0   4 2296.67 84.7187   7
  -5   0  -4 2346.03 92.9626   6
  -5   0  -5 27.9372 17.5315   1
   5   0   5 74.3271 21.0890   7
  -5   0  -5 60.5170 19.6903   8
  -5   0  -5 22.4405 16.4883  13
  -5   0  -5 37.6658 21.4039   6
   5   0   5 10.8991 18.2007   5
  -5   0  -5 57.1676 20.4559  11
   5   0   5 49.1981 22.0684   9
  -5   0  -5 36.8835 22.1302   9
   5   0   5 46.2797 24.5937   3
  -5   0  -5 16.4163 21.3431   4
   5   0   6 3983.33 158.626   3
   5   0   6 4186.41 141.909   1
  -5   0  -6 4118.13 143.612   1
  -5   0  -6 4076.56 129.151  13
  -5   0  -6 3885.08 139.694  11
   5   0   6 3932.86 132.935   5
  -5   0  -6 3909.55 148.141   4
  -5   0  -6 3986.31 141.542   9
   5   0   6 3786.73 146.782   9
  -5   0  -6 4026.05 137.586   8
  -5   0  -6 3953.46 147.149   6
   5   0   6 4223.28 144.068   7
  -5   0  -7-23.8874 18.2273   1
   5   0   7 4.58918 17.5089   1
   5   0   7 39.5090 23.7804   7
  -5   0  -7-4.46351 26.6006   8
   5   0   7 16.3188 12.8607  12
  -5   0  -7 4.31347 15.2814  13
   5   0   7-4.84310 18.3541   5
  -5   0  -7 4.47773 17.5888  11
   5   0   7-5.52434 23.6585   9
  -5   0  -7-6.72244 23.3192   9
   5   0   7 36.5748 23.0138   3
   5   0   8 1720.13 101.857   3
   5   0   8 1549.88 81.1818   1
  -5   0  -8 1939.81 85.8847   1
  -5   0  -8 1710.76 65.6786  13
  -5   0  -8 1520.36 75.8792  11
   5   0   8 1579.65 64.0421   5
   5   0   8 1759.61 88.6655   9
  -5   0  -8 1582.08 80.0048   9
   5   0   8 1519.43 86.8464   7
   5   0   9-27.0889 32.3170   3
  -5   0  -9-3.87082 14.4027  13
  -5   0  -9-11.6938 18.8863  11
  -5   0  -9-2.24595 21.6776  10
  -5   0  -9-5.38019 20.3204   1
   5   0   9 9.14818 23.4998   9
   5   0   9 5.43838 14.8467   5
  -5   0 -10 1087.15 73.5717   1
   5   0  10 1081.24 78.2946   9
  -5   0 -11 173.665 34.8632   1
  -5   0 -11 143.010 42.2822  14
  -5   0 -12 207.439 51.1654  14
  -5   0 -13 265.565 57.6645  14
   5   1 -13 54.2220 41.6631   1
   5   1 -13 91.1765 44.5801  14
   5   1 -12 320.527 62.6385   1
   5   1 -12 462.279 62.7776  14
   5   1 -11-16.4995 31.4745  14
  -5   1  11 27.5352 25.3592   6
  -5   1  11-2.63179 25.5598  10
   5   1 -10 880.216 59.0523  12
  -5   1  10 876.692 61.6409  10
   5   1 -10 1079.51 79.9384  14
  -5   1  10 993.040 65.2208   6
   5   1  -9 53.5526 26.2726  12
   5   1  -9 49.2224 23.7781   5
  -5   1   9 70.4521 25.8287  10
  -5   1   9 30.9262 13.6380  11
   5   1  -9 61.2483 30.6314  14
  -5   1   9 43.1902 22.4490   6
   5   1  -8 1662.52 85.9709  12
   5   1  -8 1895.45 83.2028   5
  -5   1   8 1659.50 85.0605  10
  -5   1   8 1513.69 84.6270  14
   5   1  -8 1886.73 99.5046  14
  -5   1   8 1724.22 79.0724   6
  -5   1   7 231.446 17.4994   2
  -5   1   7 220.900 17.5971   2
  -5   1   7 399.753 40.6803  14
   5   1  -7 448.077 48.7361  14
   5   1  -7 532.617 46.3778  12
   5   1  -7 440.513 40.4063   5
  -5   1   7 410.648 42.2345  10
   5   1  -7 381.082 45.2289   8
  -5   1   7 480.580 36.8398   6
  -5   1   6 1762.01 67.3759   2
  -5   1   6 1978.39 86.9269  14
   5   1  -6 2001.74 94.1513  13
   5   1  -6 2121.64 99.9529  14
   5   1  -6 2104.91 95.3904  12
  -5   1   6 2074.49 91.2079  10
   5   1  -6 1964.77 86.5007   8
  -5   1   6 2061.63 76.6234   6
   5   1  -6 2131.45 90.1612   5
   5   1  -5 2159.31 100.360  14
  -5   1   5 2266.27 90.2526  14
   5   1  -5 2271.75 98.1740  13
   5   1  -5 2109.93 90.7594   9
  -5   1   5 2141.54 74.6712   6
   5   1  -5 2201.53 93.3872   5
   5   1  -4 2093.45 94.2025  14
  -5   1   4 1939.03 82.3933  14
   5   1  -4 2029.06 90.0518  13
   5   1  -4 2101.75 88.0032   9
  -5   1   4 2087.12 65.5135   6
   5   1  -4 2006.22 88.2002   5
   5   1  -3 603.707 44.9243  13
   5   1  -3 598.025 46.2892  14
  -5   1   3 593.708 41.4475  14
   5   1  -3 564.478 42.6883   9
  -5   1   3 637.843 24.2672   6
   5   1  -3 654.137 45.8534   5
   5   1  -2 845.346 51.3814   9
  -5   1   2 847.791 47.7519  14
  -5   1   2 832.135 52.9757  13
   5   1  -2 795.481 51.6078   5
  -5   1   1 4456.36 138.976  14
  -5   1   1 4265.77 144.807  13
   5   1  -1 4267.42 144.602   9
  -5   1   1 4199.05 110.716   6
   5   1  -1 4261.45 146.064   5
  -5   1   0 2323.07 92.4946  13
   5   1   0 2232.53 93.2085   9
  -5   1   0 2270.34 69.0057   6
   5   1   0 2195.46 92.9851   5
  -5   1  -1 2155.68 85.8640  13
   5   1   1 2038.77 85.9125   4
   5   1   1 1946.63 86.5256   9
  -5   1  -1 1998.48 69.1211   6
   5   1   2 500.820 35.9103   3
  -5   1  -2 525.405 38.5281  13
   5   1   2 520.087 34.9866  13
   5   1   2 548.342 37.5500   1
   5   1   2 457.325 38.3603   4
   5   1   2 422.354 39.2781   9
  -5   1  -2 424.025 30.9649   6
  -5   1  -3 5265.01 172.145  11
   5   1   3 5256.54 162.929   1
  -5   1  -3 5558.39 179.156   1
   5   1   3 5321.43 170.432   5
   5   1   3 5512.13 177.433   4
  -5   1  -3 5085.80 162.431   4
  -5   1  -3 5431.96 168.831  13
   5   1   3 5499.20 172.206   3
   5   1   4 1437.16 63.4019   1
  -5   1  -4 1443.96 74.4612   1
  -5   1  -4 1375.17 65.9094  13
  -5   1  -4 1398.91 70.3582  11
  -5   1  -4 1390.68 67.6981   6
   5   1   4 1413.75 67.6262   5
  -5   1  -4 1411.29 68.2196   4
   5   1   4 1388.04 75.1707   4
   5   1   4 1583.51 78.5055   9
  -5   1  -4 1442.14 68.6370   9
   5   1   4 1390.63 72.7039   3
   5   1   5 2872.21 105.816   1
  -5   1  -5 3171.67 121.966   1
  -5   1  -5 3174.91 111.561  13
   5   1   5 2902.33 104.003  12
  -5   1  -5 3202.03 118.640  11
  -5   1  -5 2932.10 115.281   6
  -5   1  -5 2989.81 115.531   4
   5   1   5 2958.55 109.278   5
  -5   1  -5 3053.79 107.956   8
  -5   1  -5 3154.08 113.697   9
   5   1   5 3167.89 125.174   9
   5   1   5 2955.15 123.633   3
  -5   1  -6 460.410 43.8338   1
   5   1   6 448.728 32.3307  12
  -5   1  -6 461.135 42.8772  11
  -5   1  -6 417.687 43.9805   6
   5   1   6 459.198 37.1240   5
  -5   1  -6 463.704 47.0327   4
  -5   1  -6 496.676 41.6122   8
   5   1   6 424.155 44.9862   9
  -5   1  -6 490.159 43.2777   9
   5   1   6 479.625 49.6974   3
   5   1   7 2190.01 110.856   3
   5   1   7 1848.40 69.7168  12
  -5   1  -7 2021.81 93.5516  11
  -5   1  -7 1835.03 96.5891   4
   5   1   7 2054.09 81.1380   5
  -5   1  -7 2142.91 95.0962   8
   5   1   7 2129.71 103.126   9
  -5   1  -7 2325.58 93.5058   9
  -5   1  -7 2219.71 101.052   1
   5   1   8 0.49975 11.3235  12
   5   1   8 33.4184 17.2708   5
   5   1   8 48.2164 25.9623   9
  -5   1  -8 44.6984 23.8751   9
  -5   1  -8 65.1315 25.3623   1
  -5   1  -8 47.5061 21.2510  11
  -5   1  -9 940.868 63.9668  11
   5   1   9 1068.38 75.8576   9
  -5   1  -9 924.013 65.4241  10
  -5   1  -9 998.034 62.8719   9
  -5   1  -9 1106.24 72.5385   1
   5   1  10 102.774 34.2803   9
  -5   1 -10 88.2289 24.2673  13
  -5   1 -10 99.4226 30.6394   1
  -5   1 -11 584.621 59.6653   1
  -5   1 -11 557.530 70.5529  14
  -5   1 -12 132.144 46.0943  14
  -5   1 -13 327.923 62.5332  14
   5   2 -13 163.983 51.2007   1
   5   2 -13 295.249 59.5998  14
   5   2 -12 6.10367 37.2614   1
   5   2 -12 28.2706 33.3440  14
  -5   2  11 558.327 48.2965  10
   5   2 -11 754.693 74.6687  14
   5   2 -11 587.649 75.9570   1
   5   2 -10 39.5378 25.2965  12
  -5   2  10 32.0185 22.0916  10
   5   2 -10 45.3801 21.6535   9
   5   2 -10 25.1748 31.0528  14
   5   2  -9 979.757 65.5433  12
   5   2  -9 976.397 61.7371   5
  -5   2   9 955.840 60.4526  10
   5   2  -9 1068.59 58.0702   9
  -5   2   9 1014.08 64.2656  14
  -5   2   8 164.964 29.3442  14
   5   2  -8 178.399 40.0070  14
   5   2  -8 169.824 33.0764  12
   5   2  -8 150.450 30.2539   5
  -5   2   8 81.6236 16.5117  11
  -5   2   8 153.180 30.1918  10
   5   2  -8 142.652 28.0330   9
  -5   2   7 1506.92 74.5468  14
   5   2  -7 1709.03 94.4458  14
   5   2  -7 1760.93 86.8779  12
  -5   2   7 1316.95 59.2005  11
   5   2  -7 1798.12 82.1424   5
  -5   2   7 1551.54 76.1617  10
   5   2  -7 1795.59 76.5642   9
  -5   2   7 1331.59 50.5423   2
   5   2  -7 1580.84 80.4072   3
  -5   2   6 150.730 21.0876   2
  -5   2   6 167.830 27.2661  14
   5   2  -6 221.689 37.9169  14
  -5   2   6 148.600 31.4270  13
   5   2  -6 240.673 35.7213  12
   5   2  -6 179.611 33.8802  13
   5   2  -6 265.537 34.5735   5
  -5   2   6 188.915 29.7090  10
  -5   2   6 152.907 21.7990  11
   5   2  -6 191.642 28.9884   9
   5   2  -6 189.267 29.1794   3
   5   2  -5 1557.78 81.3666  12
  -5   2   5 1511.69 79.8507  13
  -5   2   5 1464.79 67.3917  14
   5   2  -5 1557.59 80.8460  13
   5   2  -5 1455.11 81.9790  14
   5   2  -5 1632.68 78.6973   5
   5   2  -5 1506.76 71.2233   9
  -5   2   5 1432.15 63.3257   2
   5   2  -4 3971.62 141.110   5
   5   2  -4 3821.24 146.331  14
   5   2  -4 3835.80 140.647  13
  -5   2   4 3909.29 142.673  13
  -5   2   4 3779.15 126.975  14
   5   2  -4 3984.74 134.946   9
   5   2  -4 3988.53 145.918  12
   5   2  -3 8199.64 242.854   5
   5   2  -3 8222.40 247.140  14
   5   2  -3 8226.06 240.253  13
  -5   2   3 7672.20 225.266  14
  -5   2   3 7637.58 219.282   8
   5   2  -3 8150.28 235.735   9
   5   2  -3 8012.21 245.786  12
   5   2  -2 4041.35 141.888   5
  -5   2   2 3953.04 128.698  14
   5   2  -2 3927.30 143.136  14
  -5   2   2 3984.49 117.199   8
   5   2  -2 3836.06 135.522   9
   5   2  -2 4174.86 145.952  12
   5   2  -1 2019.18 89.5175   5
  -5   2   1 2098.83 89.5246  13
   5   2  -1 2048.24 86.8912   9
  -5   2   1 1999.21 64.8225   8
   5   2  -1 2061.10 91.9291  12
   5   2   0 5527.95 177.346   5
   5   2   0 5470.93 175.858   9
  -5   2   0 5614.76 145.424   8
  -5   2   0 5134.64 141.724   6
  -5   2   0 5635.71 176.197  13
   5   2   1 3292.66 105.230   3
  -5   2  -1 3458.82 123.353  13
   5   2   1 3510.04 127.401   9
   5   2   1 3372.00 97.9423   8
  -5   2  -1 3261.22 100.779   6
   5   2   2 4752.25 145.159   3
   5   2   2 4683.76 144.001  13
   5   2   2 4670.76 155.073  12
  -5   2  -2 4714.03 157.545  11
  -5   2  -2 4597.54 155.791  13
  -5   2  -2 4666.64 141.182   6
   5   2   2 4577.26 156.709   5
   5   2   2 4808.59 135.655   8
   5   2   2 4743.51 162.818   9
  -5   2  -2 4725.64 164.909   1
   5   2   2 4683.93 147.220   1
   5   2   3 446.501 31.8648  13
   5   2   3 487.754 38.2121  12
  -5   2  -3 437.044 39.8623  11
   5   2   3 528.465 38.0869   3
   5   2   3 464.479 39.7487   5
  -5   2  -3 507.493 34.5103   4
   5   2   3 492.192 32.2585   8
   5   2   3 471.930 43.0639   9
  -5   2  -3 474.840 42.4059   1
   5   2   3 475.128 32.7123   1
  -5   2  -4 2907.53 107.608   6
  -5   2  -4 2956.34 114.002  11
   5   2   4 2854.43 104.762  12
  -5   2  -4 2798.66 103.384   4
   5   2   4 2889.65 108.983   5
   5   2   4 2874.69 111.240   3
   5   2   4 2628.08 94.3022   1
  -5   2  -4 3039.13 121.240   1
  -5   2  -5 10.2232 19.8585   4
   5   2   5 2.58187 19.5038   3
   5   2   5 14.8490 14.4656  12
  -5   2  -5-6.70483 21.4370   6
   5   2   5 13.6179 17.5653   5
  -5   2  -5 24.1519 17.6776  11
   5   2   5-8.82654 23.3317   9
   5   2   5 10.8189 12.6401   1
  -5   2  -5 11.2651 17.9806   1
  -5   2  -6 1129.94 70.0326   6
   5   2   6 1102.21 53.8035  12
  -5   2  -6 1067.46 66.3259  11
  -5   2  -6 1171.47 67.4933   4
   5   2   6 1172.20 60.4360   5
   5   2   6 1137.33 74.7806   9
   5   2   6 1174.13 54.1382   1
  -5   2  -6 1267.83 74.7823   1
  -5   2  -7 2.69527 21.9612   4
   5   2   7 9.39325 13.9992  12
   5   2   7 20.4882 19.1500   5
  -5   2  -7 5.25981 19.2510  11
   5   2   7 23.3328 25.9401   9
  -5   2  -7 41.3308 24.5031   1
   5   2   7 14.9662 14.0836   1
   5   2   8 1639.58 91.1367   9
  -5   2  -8 1591.41 87.4639   1
   5   2   9 60.3134 30.7273   9
  -5   2  -9 28.7347 26.0200   1
   5   2  10 909.946 78.8415   9
  -5   2 -10 807.907 80.7791  14
  -5   2 -10 931.171 75.8519   1
  -5   2 -11 31.1021 34.9375  14
  -5   2 -11 19.7838 28.0045   1
  -5   2 -12 397.012 64.4002  14
  -5   2 -12 342.906 52.4756   1
   5   3 -12 373.016 61.8230  14
   5   3 -12 299.094 61.5614   1
   5   3 -11 81.2498 39.6322  14
   5   3 -11 24.3405 34.1401   1
   5   3 -10 867.589 64.4051  12
   5   3 -10 928.403 82.3504  14
  -5   3  10 682.446 50.1059  10
   5   3  -9 49.9173 26.9242  12
  -5   3   9 66.5635 23.3855  10
   5   3  -9 47.8499 19.3486   9
   5   3  -9 109.646 38.6408  14
   5   3  -8 1823.42 102.861  14
   5   3  -8 1764.38 88.8054  12
   5   3  -8 1814.27 86.6553   5
  -5   3   8 1676.37 75.7265  10
   5   3  -8 1921.53 71.6147   9
   5   3  -8 1650.54 83.3327   3
  -5   3   7 145.444 20.0103   2
  -5   3   7 155.529 26.8033  14
   5   3  -7 252.314 44.0036  14
   5   3  -7 270.840 40.6942  12
   5   3  -7 318.539 39.6305   5
  -5   3   7 194.543 29.5094  10
  -5   3   7 162.517 20.4242  11
   5   3  -7 228.007 28.1380   9
   5   3  -7 237.856 33.0229   3
  -5   3   6 1840.66 89.7962  13
  -5   3   6 1593.80 70.2494  14
   5   3  -6 1850.90 98.5675  14
   5   3  -6 1868.00 88.4405   5
   5   3  -6 1782.58 91.1175  12
  -5   3   6 1350.18 62.4973  11
   5   3  -6 1740.18 73.9713   9
   5   3  -6 1606.17 73.4590   3
  -5   3   6 1521.74 66.0573   2
   5   3  -5 384.431 43.2787  13
  -5   3   5 353.152 31.1906  14
  -5   3   5 347.497 41.1546  13
   5   3  -5 357.001 46.0248  14
   5   3  -5 382.179 41.4452   5
   5   3  -5 409.708 43.6368  12
   5   3  -5 364.798 35.4624   9
   5   3  -5 347.146 31.0542   3
  -5   3   5 314.858 31.4677   2
   5   3  -4 3749.92 148.091  14
  -5   3   4 3717.37 139.816  13
   5   3  -4 3874.76 141.286  13
  -5   3   4 3569.42 119.281  14
   5   3  -4 3960.39 143.062   5
   5   3  -4 3845.37 146.299  12
  -5   3   4 3723.43 128.615   8
   5   3  -4 3785.29 130.013   9
   5   3  -4 3784.39 114.592   3
   5   3  -3 2565.69 111.514  14
  -5   3   3 2543.55 89.9268  14
   5   3  -3 2659.54 109.205   5
   5   3  -3 2675.04 112.309  12
  -5   3   3 2545.58 92.5791   8
   5   3  -3 2437.55 98.0399   9
   5   3  -3 2491.23 77.2369   3
   5   3  -2 1202.88 68.0916   5
   5   3  -2 1113.66 67.6851  12
   5   3  -2 1214.15 63.1684   9
  -5   3   2 1137.16 52.0485   8
  -5   3   2 1225.84 55.4879  14
   5   3  -2 1241.05 69.4336  14
   5   3  -1 2610.32 106.932   5
   5   3  -1 2535.19 106.971  12
  -5   3   1 2413.31 96.7746  11
   5   3  -1 2398.23 99.6438   9
  -5   3   1 2475.50 84.5188   8
   5   3  -1 2485.98 97.8881  13
  -5   3   1 2524.74 103.013  13
  -5   3   0 3034.96 114.692  13
   5   3   0 2928.44 115.254   5
   5   3   0 2896.08 113.028   9
   5   3   0 2748.28 79.8556   3
  -5   3  -1 3194.63 124.820  13
  -5   3  -1 3369.91 134.153   1
   5   3   1 3383.63 129.322   9
   5   3   1 3524.44 108.254   8
   5   3   1 3340.99 100.373   3
   5   3   2 1664.74 65.1880   3
  -5   3  -2 1593.93 85.3071   1
   5   3   2 1585.97 77.4466  12
  -5   3  -2 1558.71 77.9824  11
   5   3   2 1727.86 68.3614  13
   5   3   2 1746.09 81.5425   5
   5   3   2 1757.18 67.3123   8
   5   3   2 1615.73 83.7602   9
  -5   3  -2 1698.40 67.4884   6
   5   3   3 5004.10 163.465  12
  -5   3  -3 5009.64 168.117  11
   5   3   3 4756.74 144.603  13
  -5   3  -3 4762.69 144.336   4
   5   3   3 5093.82 166.619   5
   5   3   3 4846.03 174.717   9
   5   3   3 4964.36 152.103   8
  -5   3  -3 5151.78 177.759   1
   5   3   3 4799.14 144.234   1
  -5   3  -4 537.037 43.5430   6
   5   3   4 564.395 44.4712   5
  -5   3  -4 538.831 37.9925   4
   5   3   4 482.442 40.0529  12
  -5   3  -4 498.494 45.0119  11
   5   3   4 512.746 40.3821   8
   5   3   4 424.597 28.5328   1
  -5   3  -4 526.372 48.9424   1
  -5   3  -5 1651.95 81.1982   6
   5   3   5 1617.03 72.8064  12
  -5   3  -5 1629.70 83.8411  11
  -5   3  -5 1700.72 75.1310   4
   5   3   5 1742.66 79.1836   5
   5   3   5 1537.72 76.9652   8
   5   3   5 1452.96 57.1049   1
  -5   3  -5 1789.35 92.6921   1
  -5   3  -6 33.7035 25.3599   2
   5   3   6 10.0449 16.0611  12
  -5   3  -6 18.6121 23.4880   6
   5   3   6 26.6815 20.7795   5
  -5   3  -6 15.8458 21.1577   4
  -5   3  -6 11.0232 19.5037  11
   5   3   6 10.3047 24.5893   9
  -5   3  -6 13.4616 21.7924   1
   5   3   6 11.8601 10.3782   1
   5   3   7 2825.32 130.086   9
  -5   3  -7 2592.82 111.905   4
   5   3   7 2691.37 101.177   5
  -5   3  -8 106.855 32.4939   1
   5   3   8 125.306 35.1628   9
   5   3   8 75.2775 16.2051  12
   5   3   9 759.762 72.9307   9
  -5   3  -9 773.587 76.3101  14
  -5   3  -9 767.253 71.1601   1
  -5   3 -10 110.755 41.4463  14
  -5   3 -10 97.7081 34.9992   1
  -5   3 -11 399.254 62.7078  14
  -5   3 -11 309.751 50.9797   1
  -5   3 -12 125.932 47.9056  14
  -5   3 -12 82.1832 38.5534   1
   5   4 -12-5.35689 41.2822  14
   5   4 -12-6.60090 38.3590   1
   5   4 -11 962.763 89.9566  14
   5   4 -11 804.810 91.6363   1
  -5   4  10-1.47890 16.8148  10
   5   4 -10-19.2550 32.0218  14
   5   4 -10-22.0151 28.9972  12
   5   4 -10 6.00782 35.5097   1
  -5   4   9 347.866 34.9628  10
   5   4  -9 560.516 65.8108  14
   5   4  -9 360.403 62.1478   1
   5   4  -9 498.273 53.1739  12
  -5   4   8 155.905 19.0215   2
   5   4  -8 182.109 42.8438  14
   5   4  -8 225.694 40.0537  12
  -5   4   8 189.584 28.4077  10
   5   4  -8 204.409 25.2648   9
   5   4  -8 167.867 35.2688   3
  -5   4   7 670.033 43.9944  14
  -5   4   7 1004.68 67.3981  13
   5   4  -7 880.481 74.3822  14
   5   4  -7 905.204 68.4844  12
   5   4  -7 963.761 67.5982   5
  -5   4   7 585.044 36.7599  11
  -5   4   7 790.355 51.4328  10
   5   4  -7 818.582 46.6005   9
  -5   4   7 721.308 44.8582   2
   5   4  -7 774.730 52.8803   3
  -5   4   6 21.0532 15.0710  14
   5   4  -6 11.0308 26.6227  14
  -5   4   6 38.5123 24.6646  13
   5   4  -6 31.6678 25.3496  12
   5   4  -6 35.3675 26.8048   5
  -5   4   6 22.2643 13.1887  11
  -5   4   6-5.37528 26.2689   8
   5   4  -6 21.1702 17.2273   9
   5   4  -6 43.1090 20.3939   3
   5   4  -5 1735.42 90.9150  12
  -5   4   5 1386.21 59.3029  14
   5   4  -5 1621.15 93.1277  14
  -5   4   5 1583.46 82.9895  13
   5   4  -5 1537.96 85.4953   5
  -5   4   5 1551.93 79.2524   8
   5   4  -5 1640.44 71.1358   9
   5   4  -5 1492.45 60.8338   3
   5   4  -4 751.725 58.8350  12
   5   4  -4 799.926 61.2316  14
   5   4  -4 713.295 56.6067  13
  -5   4   4 762.637 55.9675  13
  -5   4   4 705.926 38.4418  14
   5   4  -4 778.038 57.9850   5
  -5   4   4 705.558 49.3718   8
   5   4  -4 769.013 48.3062   9
  -5   4   4 680.155 49.0104   2
   5   4  -4 629.044 31.4404   3
   5   4  -3 2130.46 102.059  12
  -5   4   3 1896.09 83.0735  11
   5   4  -3 2090.17 101.790  14
  -5   4   3 1946.30 73.7683  14
  -5   4   3 2113.69 95.7094  13
   5   4  -3 2113.75 99.3970   5
   5   4  -3 2197.75 89.7269   9
  -5   4   3 2110.59 85.8135   8
  -5   4   3 2061.26 90.7034   2
   5   4  -2 1203.13 72.1473  12
  -5   4   2 1074.30 59.4834  11
  -5   4   2 1078.44 50.8312  14
   5   4  -2 1073.92 63.3092  13
   5   4  -2 1174.89 70.8788   5
  -5   4   2 1116.62 56.6041   8
   5   4  -2 1224.76 64.2885   9
  -5   4   2 1016.43 62.7991   2
   5   4  -1 3098.63 126.823  12
  -5   4   1 2978.09 114.871  11
   5   4  -1 3095.18 116.150  13
   5   4  -1 3124.98 126.694   5
  -5   4   1 3029.18 106.064   8
   5   4  -1 3242.99 120.844   9
  -5   4   1 2897.98 119.852   2
   5   4   0 2208.40 100.586   5
   5   4   0 2131.73 87.7597  13
   5   4   0 2053.64 94.2142   9
  -5   4   0 2089.95 91.9497  11
  -5   4   0 2067.24 95.0282  13
   5   4   1 1392.55 80.5865   4
   5   4   1 1407.59 77.2580   9
   5   4   1 1415.76 63.9819   8
  -5   4  -1 1328.31 79.3499   1
   5   4   2 3906.52 144.547  12
  -5   4  -2 3945.58 145.494  11
  -5   4  -2 3894.02 149.922   2
   5   4   2 3986.61 155.632   4
   5   4   2 4064.19 148.103   5
   5   4   2 4042.50 153.314   9
   5   4   2 3897.51 131.263   8
  -5   4  -2 4015.56 156.988   1
   5   4   3 386.213 27.4147   1
  -5   4  -3 429.762 46.2118   1
   5   4   3 435.798 31.5226  13
   5   4   3 399.183 39.5888  12
  -5   4  -3 430.459 43.0214  11
  -5   4  -3 404.577 28.2884   4
   5   4   3 364.833 44.6419   4
   5   4   3 480.241 43.3715   5
   5   4   3 441.315 46.7369   9
   5   4   3 420.401 37.2015   8
  -5   4  -3 463.408 48.1975   2
  -5   4  -4 1890.38 98.7587   1
   5   4   4 1884.81 64.8907  13
   5   4   4 2017.53 86.7138  12
   5   4   4 1875.12 88.1420   5
  -5   4  -4 1928.37 72.7806   4
   5   4   4 1861.57 98.9341   4
  -5   4  -4 1922.22 92.4671  11
   5   4   4 1962.43 99.9049   9
   5   4   4 1888.85 83.3805   8
  -5   4  -4 1879.77 94.6276   2
  -5   4  -5 35.4976 27.2755   2
   5   4   5 17.1770 19.2490  12
   5   4   5 21.5847 24.0025   8
  -5   4  -5 31.8318 23.2180   1
   5   4   5 5.41421 5.66745   1
   5   4   5 51.1459 25.5509   4
  -5   4  -5 34.5614 18.8305   4
   5   4   5 24.3685 22.7755   5
  -5   4  -5 37.0671 23.4017   6
   5   4   6 3124.03 115.881  12
   5   4   6 3123.69 129.754   8
  -5   4  -6 3440.30 148.106   1
   5   4   6 3265.86 124.112   5
   5   4   6 3186.13 146.404   4
  -5   4  -6 3133.37 119.969   4
   5   4   7 36.0927 18.4676  12
  -5   4  -7 15.1104 24.6195   4
   5   4   7 20.2020 27.9269   9
  -5   4  -7 47.8398 28.2193   1
  -5   4  -8 1214.85 90.7232  14
  -5   4  -8 1349.01 93.4940   1
   5   4   8 1188.39 91.1384   9
   5   4   9 134.915 39.8883   9
  -5   4  -9 140.898 43.3861  14
  -5   4  -9 183.166 43.2716   1
  -5   4 -10 884.100 87.9955  14
  -5   4 -10 942.465 85.0651   1
  -5   4 -11 16.7990 36.7732  14
  -5   4 -11 78.0459 36.8634   1
  -5   4 -12 580.612 77.8662  14
  -5   4 -12 537.423 72.1150   1
  -5   4 -13 214.573 50.1850   1
   5   5 -11 43.2316 41.2376  14
   5   5 -11 6.56576 34.7137   1
   5   5 -10 843.500 83.3482  14
   5   5 -10 676.093 84.3344   1
   5   5 -10 715.198 66.2415  12
  -5   5   9 99.4456 21.1074  10
   5   5  -9 135.260 44.3269  14
   5   5  -9 135.689 46.4369   1
   5   5  -9 176.585 39.3440  12
   5   5  -8 2059.00 105.482  12
  -5   5   8 1509.38 88.0863  13
   5   5  -8 2011.44 116.469  14
  -5   5   8 1398.26 68.6892  10
  -5   5   8 1382.88 65.5330   2
   5   5  -8 1640.75 116.779   1
  -5   5   7 39.2952 31.4710   8
   5   5  -7 91.5048 19.3037   9
   5   5  -7 122.885 38.5811  14
  -5   5   7 74.6664 28.9740  13
   5   5  -7 91.6672 31.8938  12
  -5   5   6 1694.31 92.5383  13
   5   5  -6 2011.07 112.421  14
   5   5  -6 1987.90 104.533  12
  -5   5   6 1904.79 98.3996   8
   5   5  -6 1949.90 76.6998   9
  -5   5   6 1830.57 84.4544   2
  -5   5   5 467.433 47.3742  13
  -5   5   5 326.711 23.9063  14
   5   5  -5 510.796 56.3730  14
   5   5  -5 461.283 52.4399  12
   5   5  -5 510.315 53.9910   5
   5   5  -5 519.435 39.6118   9
  -5   5   5 405.898 46.0775   8
  -5   5   5 447.060 41.5130   2
  -5   5   4 947.099 42.1395  14
  -5   5   4 1073.91 68.2774  13
   5   5  -4 1149.51 76.1220  12
   5   5  -4 1175.26 75.3135   5
  -5   5   4 988.876 56.8228  11
   5   5  -4 1180.39 60.6754   9
  -5   5   4 1030.00 64.5747   8
  -5   5   4 1024.72 64.2188   2
  -5   5   3 264.505 24.4894  14
   5   5  -3 389.721 46.1850  12
  -5   5   3 229.731 36.6755  13
   5   5  -3 366.611 45.8983   5
  -5   5   3 282.553 32.8288  11
  -5   5   3 300.236 36.2113   8
   5   5  -3 306.846 35.7674   9
  -5   5   3 263.630 36.2634   2
  -5   5   2 768.035 57.5725  13
   5   5  -2 877.776 64.0687  12
   5   5  -2 1005.67 66.9435   5
  -5   5   2 779.784 52.6686  11
   5   5  -2 796.465 53.8648   9
  -5   5   2 795.191 51.9150   8
  -5   5   2 768.664 57.5884   2
   5   5  -1 1280.56 78.8495  12
  -5   5   1 1349.69 71.8993  11
   5   5  -1 1375.01 81.8894   5
   5   5  -1 1409.75 74.4143   9
  -5   5   1 1349.51 67.2237   8
  -5   5   1 1293.19 75.8681   2
   5   5   0 1157.15 72.7290   5
  -5   5   0 945.236 61.2404  11
   5   5   0 1160.64 69.0665   9
   5   5   0 1111.69 62.7021  13
   5   5   1 1427.12 81.1064  12
   5   5   1 1621.58 89.4157   4
   5   5   1 1385.74 80.5330   9
   5   5   1 1381.90 68.2813  13
  -5   5  -2 34.1856 21.2037   1
   5   5   2 19.8422 21.4237  12
   5   5   2 12.6670 20.7674   8
   5   5   2 26.7909 24.6840   5
   5   5   2 47.2138 25.1998   9
  -5   5  -2 46.9951 23.9402   2
   5   5   2 34.2971 26.6979   4
  -5   5  -3 3455.31 140.133   2
   5   5   3 3427.69 133.586  12
   5   5   3 3651.31 149.377   4
   5   5   3 3532.72 137.539   5
  -5   5  -3 3309.55 99.1558   4
   5   5   3 3455.45 126.052   8
   5   5   3 3625.41 145.719   9
  -5   5  -3 3842.88 151.445   1
   5   5   4 655.167 35.1551  13
   5   5   4 736.295 53.8282  12
  -5   5  -4 713.353 38.8793   4
   5   5   4 742.523 56.2409   5
   5   5   4 710.237 62.7324   4
   5   5   4 758.244 63.2208   9
   5   5   4 678.859 51.5515   8
  -5   5  -4 728.957 61.5129   1
   5   5   5 2158.93 97.3382  12
   5   5   5 2005.69 113.173   4
  -5   5  -5 2119.23 86.1072   4
   5   5   5 2323.41 118.732   9
   5   5   5 2217.35 101.817   8
  -5   5  -5 2420.45 121.075   1
   5   5   6 36.9438 21.6109  12
   5   5   6 42.2613 29.2252   4
  -5   5  -6 41.8834 23.1868   4
   5   5   6 62.8384 27.9892   8
  -5   5  -6 82.9369 31.0256   1
   5   5   7 1662.20 81.4245  12
   5   5   7 2037.38 116.946   9
   5   5   7 1780.77 100.672   8
  -5   5  -7 2001.34 114.515   1
  -5   5  -7 1673.51 87.0148   4
   5   5   8-4.65098 29.2649   9
  -5   5  -8 9.29704 26.5434   1
  -5   5  -9 351.768 57.4012   1
  -5   5 -10 130.339 42.4038  14
  -5   5 -10 163.561 44.6048   1
  -5   5 -11 1290.15 109.246  14
  -5   5 -11 1230.99 102.997   1
  -5   5 -12 87.3679 42.1321   1
   5   6 -11 914.265 92.6723  14
   5   6 -10 6.46892 39.4884   1
   5   6 -10 37.8812 39.6066  14
   5   6 -10-18.9118 37.4080  12
   5   6  -9 528.211 76.3435   1
   5   6  -9 559.226 62.3341  12
   5   6  -9 501.855 68.6414  14
  -5   6   8 359.713 33.1573  10
  -5   6   8 378.799 54.7090   8
  -5   6   8 398.089 46.8279  13
   5   6  -8 466.406 58.8655  12
   5   6  -8 434.206 61.8709  14
   5   6  -7 1629.45 100.299  12
  -5   6   7 1508.10 86.1484  13
   5   6  -7 1539.52 104.636  14
  -5   6   7 1273.79 90.3445   8
  -5   6   7 1356.90 75.3184   2
   5   6  -6 267.736 47.4141  14
  -5   6   6 247.798 40.2579  13
   5   6  -6 258.072 43.8521  12
  -5   6   6 295.192 37.7915   2
   5   6  -6 262.258 28.4561   9
  -5   6   6 250.514 42.5999   8
   5   6  -5 813.425 77.1774   1
  -5   6   5 913.398 65.5135  13
  -5   6   5 834.860 53.5795  11
   5   6  -5 996.998 75.1929  12
   5   6  -5 911.283 52.7005   9
  -5   6   5 934.229 67.2407   8
  -5   6   5 840.392 61.3785   2
  -5   6   4 865.176 62.1929  13
  -5   6   4 839.975 53.1582  11
   5   6  -4 907.651 70.2328  12
   5   6  -4 903.592 53.0260   9
  -5   6   4 845.404 60.6316   8
  -5   6   4 908.796 61.3455   2
   5   6  -3 1068.32 75.0016  14
  -5   6   3 993.908 67.8143  13
  -5   6   3 884.154 39.2805  14
   5   6  -3 997.984 73.8390  12
  -5   6   3 1015.66 61.8516  11
  -5   6   3 1052.43 66.4883   8
   5   6  -3 1080.89 61.8829   9
  -5   6   3 939.734 67.1650   2
   5   6  -2 1223.43 77.9817  14
  -5   6   2 1014.20 68.7710  13
   5   6  -2 1093.44 76.7040  12
   5   6  -2 1048.26 76.0296   5
  -5   6   2 1003.37 64.1050  11
  -5   6   2 1088.40 67.6285   8
   5   6  -2 1138.78 67.1589   9
  -5   6   2 1092.92 72.7866   2
   5   6  -1 677.677 57.8068  14
   5   6  -1 755.041 64.0820  12
  -5   6   1 722.298 55.1864  11
   5   6  -1 849.383 65.9906   5
   5   6  -1 758.872 57.2453   9
  -5   6   1 717.474 60.1961   2
  -5   6   0 1244.92 74.5312  11
   5   6   0 1332.38 77.9118   9
  -5   6   0 1358.19 85.2034   1
   5   6   1 503.428 51.0535  12
   5   6   1 502.552 55.5506   4
   5   6   1 421.987 47.3997   9
   5   6   1 479.871 42.9222  13
   5   6   2 570.973 42.8988  13
   5   6   2 538.413 53.5102  12
   5   6   2 590.575 58.6887   4
   5   6   2 615.371 57.2520   9
   5   6   2 462.339 46.4099   8
   5   6   3 74.6832 15.3192   1
  -5   6  -3 117.213 34.0639   1
   5   6   3 90.1724 28.7047   8
   5   6   3 121.792 30.9650  12
  -5   6  -3 91.0703 14.3523   4
   5   6   3 159.258 36.0379   9
   5   6   3 78.1964 32.7559   4
   5   6   4 1333.36 58.2243  13
   5   6   4 1242.34 78.4723  12
  -5   6  -4 1399.83 58.2295   4
   5   6   4 1342.80 92.2460   4
   5   6   4 1459.90 93.4515   9
   5   6   4 1380.94 80.7743   8
  -5   6  -5 159.124 38.1066   1
  -5   6  -5 146.704 34.8595  14
   5   6   5 96.8138 15.7042  13
   5   6   5 148.802 31.7854  12
   5   6   5 166.675 39.5183   4
  -5   6  -5 106.791 23.9765   4
   5   6   5 187.023 42.8884   9
   5   6   5 178.545 37.4976   8
  -5   6  -6 1030.23 80.7954  14
   5   6   6 1029.40 68.5423  12
   5   6   6 1082.61 85.4626   4
  -5   6  -6 886.785 58.0688   4
   5   6   6 969.144 84.3717   9
   5   6   6 1010.87 73.9526   8
  -5   6  -6 958.511 81.4285   1
  -5   6  -7 106.755 38.7552  14
   5   6   7 105.940 40.9699   4
   5   6   7 100.672 36.2493   8
  -5   6  -7 81.5038 33.9900   1
   5   6   7 66.5702 27.3432  12
  -5   6  -8 930.805 84.6826  14
   5   6   8 914.952 81.2472   8
  -5   6  -8 1126.30 92.8860   1
  -5   6  -9 63.6014 36.2043   1
  -5   6 -10 1861.97 128.246   1
  -5   6 -11 45.6899 36.9941   1
   5   7 -10 862.623 78.0023  12
   5   7 -10 881.168 96.4614   1
   5   7 -10 801.074 89.8813  14
   5   7  -9 29.6015 35.9432  12
   5   7  -9 48.5811 38.2074  14
  -5   7   8 872.121 48.9104  10
  -5   7   8 1011.29 86.9497   8
  -5   7   8 1059.29 74.4033  13
   5   7  -8 1118.76 95.5444  14
   5   7  -8 1240.50 91.4739  12
  -5   7   7 186.433 38.6445  13
   5   7  -7 123.365 40.7157  12
  -5   7   7 154.215 42.9977   8
   5   7  -7 117.844 45.0657   1
  -5   7   7 180.362 32.6550   2
  -5   7   6 1157.92 76.7396  13
   5   7  -6 987.762 53.6795   9
   5   7  -6 1250.58 90.9780  12
  -5   7   6 1058.89 80.5618   8
   5   7  -6 1021.02 93.4782   1
   5   7  -5 421.153 56.8471  14
   5   7  -5 432.711 38.5589   9
  -5   7   5 414.277 48.8225  13
   5   7  -5 544.202 62.3525  12
  -5   7   5 450.862 54.2598   8
   5   7  -5 445.871 59.9355   1
   5   7  -4 1413.84 93.7861  14
  -5   7   4 1457.37 85.5384  13
   5   7  -4 1409.49 71.9183   9
  -5   7   4 1240.71 72.7738  11
   5   7  -4 1414.84 94.4955  12
  -5   7   4 1243.28 82.5846   8
   5   7  -4 1471.61 98.8696   1
   5   7  -3 475.837 54.9211  14
  -5   7   3 622.326 56.3825  13
  -5   7   3 460.357 44.4002  11
   5   7  -3 490.243 44.3327   9
   5   7  -3 474.424 55.3289  12
  -5   7   3 474.642 49.9330   8
   5   7  -3 566.160 57.4832   1
   5   7  -2 595.549 59.2279  14
  -5   7   2 523.490 32.4439  14
  -5   7   2 610.664 57.7520  13
   5   7  -2 608.755 62.6969  12
  -5   7   2 659.255 56.7766   8
  -5   7   2 545.637 50.5833  11
   5   7  -2 628.959 53.2819   9
   5   7  -2 566.180 58.6544   1
   5   7  -1 1521.71 84.7580   9
   5   7  -1 1499.78 94.2207  12
   5   7  -1 1413.89 83.5364   1
  -5   7   0 445.119 52.4674   1
   5   7   0 385.945 41.7471   1
   5   7   0 451.388 51.1713   9
   5   7   1 1001.04 75.8090  12
   5   7   1 1182.68 84.8725   4
   5   7   1 1072.41 75.5761   9
  -5   7  -1 1066.07 62.7759  14
  -5   7  -1 960.655 76.3079   1
   5   7   1 908.466 56.7769   1
   5   7   2 610.985 46.5772  13
  -5   7  -2 638.596 51.1176  14
   5   7   2 590.323 59.6032  12
   5   7   2 555.604 63.4101   4
   5   7   2 579.241 60.4047   9
   5   7   2 598.891 56.7140   8
   5   7   2 453.059 36.4758   1
  -5   7  -3 1608.78 85.3100  14
   5   7   3 1475.80 67.8740  13
   5   7   3 1588.87 91.0071  12
   5   7   3 1603.95 99.3787   4
  -5   7  -3 1271.02 41.9666   4
   5   7   3 1552.01 96.2201   9
   5   7   3 1530.34 85.9579   8
   5   7   4 35.1977 31.8582   4
  -5   7  -4 40.2897 30.9416   1
  -5   7  -4 37.8424 25.1904  14
   5   7   4 44.3443 28.7594  12
  -5   7  -4 25.7252 14.5044   4
   5   7   4 26.0999 31.1467   9
   5   7   4 38.5363 31.1982   8
  -5   7  -5 1231.95 84.5897  14
   5   7   5 1223.38 80.0114  12
   5   7   5 1352.85 96.0089   4
   5   7   5 1288.49 94.6874   9
   5   7   5 1214.27 82.6131   8
  -5   7  -5 1350.70 94.4301   1
  -5   7  -6 4.93162 29.6301   1
   5   7   6 21.6487 24.7502  12
   5   7   6 9.60072 29.3030   4
  -5   7  -6-16.9123 30.2643  14
   5   7   6-29.3178 34.1718   9
   5   7   6 43.5473 31.3280   8
  -5   7  -7 721.634 74.7515  14
   5   7   7 664.882 71.1664   8
  -5   7  -7 815.352 79.8723   1
   5   7   7 523.714 68.1961   4
  -5   7  -8 10.0456 32.9700  14
  -5   7  -8 16.3564 30.0002   1
   5   7   8-4.19188 35.6184   8
  -5   7  -9 1069.28 96.1785  14
  -5   7  -9 967.805 93.2978   1
  -5   7 -10 74.8810 42.1815  14
  -5   7 -10 47.2635 39.8396   1
  -5   8   9 418.912 68.1635   8
  -5   8   9 535.148 54.0643  13
   5   8  -9 620.095 70.1683  12
  -5   8   8 164.119 46.0625   8
   5   8  -8 165.857 50.1854   1
  -5   8   8 112.652 33.3918  13
   5   8  -8 232.641 48.5637  12
  -5   8   7 734.745 64.7583  13
   5   8  -7 968.787 90.4076  14
  -5   8   7 751.628 77.7686   8
   5   8  -7 755.352 83.3327   1
   5   8  -7 848.600 79.2882  12
   5   8  -6 254.421 51.5664  14
  -5   8   6 219.357 47.1916   8
  -5   8   6 216.935 40.3561  13
   5   8  -6 232.060 48.0830  12
   5   8  -6 220.181 47.7435   1
   5   8  -5 716.955 72.7534  12
   5   8  -5 653.853 72.7626  14
  -5   8   5 647.393 61.2768  13
  -5   8   5 681.019 67.9796   8
   5   8  -5 622.975 70.0540   1
   5   8  -4 530.836 63.9136  12
   5   8  -4 472.800 60.9901  14
  -5   8   4 463.355 54.1093  13
   5   8  -4 462.656 44.5741   9
  -5   8   4 475.181 56.2225   8
   5   8  -4 478.899 60.5511   1
   5   8  -3 602.719 65.5898  14
  -5   8   3 641.174 61.8495  13
   5   8  -3 701.654 56.1180   9
   5   8  -3 692.489 70.5614  12
  -5   8   3 597.082 60.3152   8
   5   8  -3 628.563 64.5000   1
  -5   8   2 1058.70 42.8805  14
   5   8  -2 1118.25 82.2428  14
  -5   8   2 981.777 42.6354  14
  -5   8   2 1284.49 84.0146  13
   5   8  -2 1248.03 91.2149  12
  -5   8   2 1491.21 88.3437   8
   5   8  -2 1258.44 76.9563   9
   5   8  -2 1211.50 82.3167   1
   5   8  -1 825.059 65.2034   9
   5   8  -1 701.748 60.7710   1
   5   8  -1 773.588 73.0363  12
   5   8   0 1057.18 86.1505   4
   5   8   0 1065.16 75.9990   9
  -5   8   0 907.523 54.5522  14
  -5   8   0 1006.04 80.1195   1
   5   8   1 752.850 70.2540  12
   5   8   1 638.534 69.4131   4
   5   8   1 657.970 63.9464   9
   5   8   1 606.796 48.2544   1
  -5   8  -1 783.306 71.8941   1
  -5   8  -1 701.232 52.2621  14
   5   8   2 395.967 57.0291   4
   5   8   2 354.140 52.0852  12
  -5   8  -2 409.063 44.7201  14
  -5   8  -2 398.091 54.6049   1
   5   8   2 263.564 29.7022   1
   5   8   2 408.758 54.1117   9
   5   8   2 397.294 50.5523   8
   5   8   3 50.5820 34.3860   4
   5   8   3 14.7846 10.5867   1
  -5   8  -3 15.8593 24.2134  14
   5   8   3 52.3185 22.2394  13
   5   8   3 91.2229 34.5136  12
   5   8   3 52.9210 31.9320   9
   5   8   3 56.1615 30.3106   8
   5   8   4 1075.78 82.2111  12
   5   8   4 1067.59 88.8696   4
   5   8   4 1097.72 90.0267   9
   5   8   4 1031.62 79.4546   8
  -5   8  -4 1059.11 77.5816  14
   5   8   4 1003.45 55.7442  13
  -5   8  -5 55.8241 37.9512   1
   5   8   5 39.4586 15.3350  13
   5   8   5 7.38916 26.4598  12
   5   8   5 19.5649 33.8077   4
  -5   8  -5 35.8201 27.1767  14
   5   8   5 54.7251 36.0237   9
   5   8   5 53.0546 33.2335   8
   5   8   6 614.989 72.0443   4
  -5   8  -6 643.453 68.6413  14
   5   8   6 616.879 66.9902   8
  -5   8  -6 648.896 73.4780   1
   5   8   7 32.0562 39.1054   4
  -5   8  -7 19.1136 34.2070  14
   5   8   7 25.4369 33.3089   8
  -5   8  -7 11.1480 35.5881   1
  -5   8  -8 785.671 86.0330   1
  -5   8  -8 737.869 80.6422  14
   5   8   8 674.551 75.9330   8
  -5   8  -9 18.1650 39.7528   1
  -5   8  -9 60.8919 40.5225  14
   5   8   9 23.8186 42.0850   8
  -5   9   9 9.91657 42.8132   8
   5   9  -9 64.3774 42.0867  12
   5   9  -8 1321.91 113.592   1
   5   9  -8 1532.21 110.517  12
  -5   9   8 1150.68 99.8548   8
  -5   9   8 1066.98 79.1309  13
   5   9  -8 1383.04 113.180  14
   5   9  -7 125.079 43.7092   1
  -5   9   7 144.329 36.5835  13
   5   9  -7 131.770 44.5454  12
   5   9  -7 117.358 44.7039  14
  -5   9   7 148.582 48.2044   8
   5   9  -6 917.957 89.2651   1
   5   9  -6 1086.00 93.9177  12
  -5   9   6 948.739 84.1000   8
   5   9  -6 1063.25 94.7141  14
  -5   9   6 917.451 74.4668  13
   5   9  -5 396.652 58.7879   1
   5   9  -5 499.181 67.0752  12
  -5   9   5 423.873 53.5061  13
   5   9  -5 379.127 59.7174  14
  -5   9   5 295.643 54.8931   8
   5   9  -4 629.155 69.8616   1
   5   9  -4 714.289 75.3154  12
  -5   9   4 696.479 70.6499   8
   5   9  -4 707.805 73.2680  14
  -5   9   4 687.144 66.6146  13
   5   9  -3 653.080 67.5432   1
   5   9  -3 527.457 66.0139  12
  -5   9   3 532.521 61.6839   8
   5   9  -3 665.393 70.7889  14
  -5   9   3 589.930 63.2061  13
   5   9  -2 403.577 60.3082  12
  -5   9   2 339.395 51.4333  13
   5   9  -2 265.532 48.2785  14
  -5   9   2 280.088 48.5819   8
   5   9  -2 338.279 47.5455   1
   5   9  -1 903.082 71.5333   9
  -5   9   1 806.497 71.7464   8
   5   9  -1 866.520 69.0522   1
  -5   9   1 785.843 44.2454  14
  -5   9   0 301.842 49.2859   1
   5   9   0 267.936 38.1215   1
  -5   9   0 247.779 30.4014  14
   5   9   0 375.578 50.7281   9
   5   9   0 209.748 50.8172   4
  -5   9  -1 625.672 49.9961  14
   5   9   1 666.582 71.0714  12
   5   9   1 651.038 73.3978   4
   5   9   1 720.141 69.4120   9
   5   9   1 647.534 67.5965   8
   5   9   1 493.193 45.4768   1
  -5   9  -1 601.587 67.0096   1
   5   9   2 19.3623 34.6488   4
  -5   9  -2-14.0888 22.9567  14
   5   9   2 36.2301 32.0463  12
   5   9   2 5.00642 14.4069   1
  -5   9  -2 9.67006 30.4231   1
   5   9   2-8.87660 31.4062   9
   5   9   2 27.1081 35.9485   8
   5   9   3 1311.22 93.2013  12
  -5   9  -3 1485.50 102.139   1
   5   9   3 1176.77 95.0818   4
   5   9   3 1360.49 91.5856   8
   5   9   3 1301.51 67.8587  13
  -5   9  -3 1404.14 82.4579  14
  -5   9  -4 165.138 36.7486  14
   5   9   4 175.882 42.6326  12
   5   9   4 209.915 46.0854   8
   5   9   4 186.159 45.6172   4
  -5   9  -4 146.552 44.3105   1
   5   9   5 797.528 82.4892   4
   5   9   5 828.144 78.2716   8
  -5   9  -5 886.707 77.2204  14
   5   9   6 58.8391 40.4288   4
  -5   9  -6 68.3068 40.3031   1
  -5   9  -6 44.9256 34.9866  14
   5   9   6 65.2252 39.8399   8
  -5   9  -7 1103.69 102.540   1
   5   9   7 1054.93 90.6103   8
  -5   9  -7 1135.78 94.4563  14
   5   9   7 926.599 94.1761   4
  -5   9  -8-37.0147 45.1522   1
  -5   9  -8-5.29260 37.4531  14
   5   9   8 4.80427 41.4760   8
   5  10  -8 37.9202 42.5668  12
   5  10  -7 293.574 63.0408   1
  -5  10   7 421.991 53.0848  13
   5  10  -7 415.391 67.4543  12
  -5  10   7 395.063 65.0602   8
   5  10  -6 68.7689 38.1372   1
   5  10  -6 78.4888 44.4744  14
  -5  10   6 39.0172 32.9449  13
   5  10  -6 38.3739 40.1370  12
  -5  10   6 13.8774 40.8741   8
   5  10  -5 442.007 65.4560   1
   5  10  -5 612.448 73.2089  14
  -5  10   5 678.729 65.8438  13
   5  10  -5 656.666 77.9908  12
  -5  10   5 519.980 68.0823   8
   5  10  -4 181.240 42.4774   1
   5  10  -4 111.753 42.2317  14
  -5  10   4 196.080 48.8039   8
   5  10  -4 201.023 53.2422  12
  -5  10   4 171.232 45.9869  13
   5  10  -3 611.848 66.3670   1
   5  10  -3 702.113 72.9280  14
  -5  10   3 611.740 65.8567  13
  -5  10   3 615.749 69.9193   8
   5  10  -3 813.602 84.1189  12
   5  10  -2 420.941 54.0813   1
   5  10  -2 333.875 51.4554  14
  -5  10   2 366.865 58.6047   8
   5  10  -2 442.208 64.1302  12
  -5  10   2 331.624 54.5284  13
  -5  10   1 461.697 31.2111  14
  -5  10   1 664.589 70.7644   8
   5  10  -1 549.570 56.2682   1
   5  10  -1 533.563 75.8592   4
   5  10   0 658.892 57.3893   1
  -5  10   0 754.268 75.9232   1
   5  10   0 684.052 81.9433   4
  -5  10   0 717.659 47.9472  14
  -5  10  -1 490.305 46.4614  14
   5  10   1 528.638 68.2052  12
   5  10   1 406.523 42.1958   1
  -5  10  -1 554.748 68.3756   1
   5  10   1 315.094 58.1490   8
   5  10   1 363.282 66.3879   4
   5  10   2 1355.24 103.390  12
   5  10   2 814.760 51.7294   1
  -5  10  -2 1372.34 102.023   1
   5  10   2 1004.11 93.5615   4
   5  10   2 957.453 86.9930   8
  -5  10  -2 1099.53 72.0149  14
  -5  10  -3 98.8481 32.2574  14
   5  10   3 77.9995 39.7654  12
   5  10   3 56.8297 40.3529   8
   5  10   3 83.5424 43.3237   4
  -5  10  -3 85.9888 38.5194   1
   5  10   4 816.653 87.3358   4
  -5  10  -4 972.497 91.5945   1
   5  10   4 773.518 78.4448   8
  -5  10  -4 900.936 75.5797  14
   5  10   5 32.5878 37.5290   4
  -5  10  -5 58.2093 39.7276   1
  -5  10  -5 45.8051 33.9259  14
   5  10   6 899.324 86.8352   8
   5  10   6 926.739 92.9947   4
  -5  10  -6 1030.12 87.4390  14
   5  10   7 23.1403 39.5002   4
  -5  10  -7 74.5618 40.1581  14
   5  10   7 53.7797 43.5218   8
  -5  11   6 506.490 60.9778  13
  -5  11   6 436.000 66.6521   8
   5  11  -6 459.577 70.5495   1
   5  11  -5 10.9780 35.0517   1
   5  11  -5 35.6968 41.1884  14
  -5  11   5 24.1962 45.8306   8
  -5  11   5 46.8842 37.4824  13
   5  11  -5 70.6573 45.3832  12
   5  11  -4 775.107 80.5789   1
   5  11  -4 772.452 80.5046  14
  -5  11   4 857.424 77.8475  13
  -5  11   4 810.156 83.5643   8
   5  11  -4 999.091 96.3574  12
   5  11  -3 161.493 42.9719   1
  -5  11   3 111.834 42.4284  13
   5  11  -3 139.933 49.2623  12
   5  11  -3 170.697 46.3708  14
  -5  11   3 144.987 50.3363   8
  -5  11   2 638.653 74.6429   8
  -5  11   2 586.060 68.7928  13
   5  11  -2 791.009 86.3410  12
   5  11  -2 608.491 64.4321   1
  -5  11   1 325.277 62.0817   8
   5  11  -1 233.263 64.1809   4
   5  11  -1 258.207 43.7421   1
   5  11   0 347.277 45.8428   1
   5  11   0 457.524 70.2870  12
   5  11   0 291.812 67.5428   4
   5  11   1 1246.52 104.587  12
   5  11   1 994.452 98.6855   4
   5  11   1 1003.78 92.6413   8
  -5  11  -1 1031.24 94.6510   1
  -5  11  -1 948.295 62.6036  14
  -5  11  -2 285.940 60.0716   1
  -5  11  -2 309.710 41.4048  14
   5  11   2 331.227 62.1202   8
   5  11   2 276.766 62.1202   4
   5  11   3 1159.53 101.541   4
   5  11   3 1127.45 96.3251   8
  -5  11  -3 1283.91 106.318   1
  -5  11  -3 1183.10 82.5606  14
  -5  11  -4 65.0418 41.8745   1
  -5  11  -4 141.196 37.6511  14
   5  11   4 9.66635 39.7558   8
   5  11   4 55.4016 43.5561   4
   5  11   5 705.487 82.1459   8
  -5  11  -5 782.340 73.9229  14
   5  11   5 687.282 82.5216   4
  -5  11  -6-4.57357 37.2612  14
  -5  12   5 507.956 64.0518  13
  -5  12   4 594.378 69.7234  13
   5  12  -4 534.708 72.0058  14
   5  12  -4 540.932 68.3019   1
   5  12  -3 766.359 78.7783   1
  -5  12   3 845.522 88.3800   8
  -5  12   3 837.796 80.7510  13
  -5  12   2 550.000 76.6240   8
   5  12  -2 633.956 85.4251   4
   5  12  -2 531.082 61.9909   1
  -5  12   2 655.137 74.6659  13
   5  12  -1 333.991 72.8118   4
  -5  12   1 398.661 68.7969   8
   5  12   0 484.524 78.9367   4
  -5  12   0 476.682 71.2070   8
   5  12   0 483.467 75.7741   8
   5  12   1 162.882 60.2408   4
  -5  12  -1 309.471 57.7605   1
   5  12   1 193.924 62.5359   8
   5  12   2 450.281 74.6201   4
  -5  12  -2 650.906 79.0456   1
   5  12   2 608.562 79.5853   8
   5  12   3 158.267 54.0020   4
  -5  12  -5 4.05759 36.6337  14
   6 -12  -2 839.331 81.0074  11
   6 -12  -1 43.5529 34.2578  11
  -6 -12   1 40.5943 38.3430  10
  -6 -12   0 760.345 80.3050  10
   6 -12   0 736.731 78.5612  11
  -6 -11   5 493.276 73.3984   2
  -6 -11   4 205.395 56.2845   2
  -6 -11   4 341.293 63.9713  10
  -6 -11   3 460.357 71.8886   2
  -6 -11   3 518.864 73.6073  10
   6 -11  -3 468.819 58.8185  11
  -6 -11   2 91.1895 47.3531   2
  -6 -11   2 88.8275 42.9930  10
   6 -11  -2 86.3906 34.9451  11
  -6 -11   1 646.153 84.1836   2
  -6 -11   1 895.880 84.4971  10
   6 -11  -1 773.351 77.3984  11
  -6 -11   0 59.8171 38.1627  10
   6 -11   0 53.5125 33.2285  11
  -6 -11  -1 908.777 82.2996  10
   6 -11   1 1194.11 97.0268  11
  -6 -11  -1 1087.52 103.531   2
  -6 -11  -2 37.6397 37.6935   2
   6 -11   2 5.32732 32.5225  11
   6 -11   3 752.371 82.8699  11
  -6 -11  -3 634.434 82.7333   2
  -6 -10   8 155.440 44.7566   2
  -6 -10   7 169.037 46.9048   2
  -6 -10   7 123.905 51.1421   7
  -6 -10   6 312.495 63.5297  10
  -6 -10   6 321.030 63.4101   6
  -6 -10   6 207.114 50.0724   2
  -6 -10   5 186.417 48.2793   2
  -6 -10   5 172.725 52.5276  10
  -6 -10   4 377.069 61.7122   2
  -6 -10   4 407.195 64.6334  10
  -6 -10   3 83.7005 43.0324   2
  -6 -10   3 57.4897 36.1488  10
   6 -10  -3 68.0345 30.8364  11
  -6 -10   2 662.461 78.8411   2
   6 -10  -2 711.336 69.2850  11
  -6 -10   2 893.939 84.2981  10
  -6 -10   1 18.6214 34.4541  10
   6 -10  -1 60.5533 32.0130  11
   6 -10   0 1256.54 93.1386  11
  -6 -10   0 1048.90 87.4828  10
  -6 -10  -1 128.691 44.7403   2
  -6 -10  -1 141.506 40.3404  10
   6 -10   1 115.125 40.5446  11
  -6 -10  -2 674.118 64.0733  10
  -6 -10  -2 688.608 82.4971   2
   6 -10   2 711.763 75.9701  11
  -6 -10  -3 23.2932 28.9513  10
   6 -10   3-5.21286 29.2307  11
   6 -10   3 24.4733 26.6161   6
  -6 -10  -3-5.91204 34.9440   2
   6 -10   4 557.166 59.7563   6
   6 -10   4 691.659 77.8438  11
   6 -10   4 582.314 57.4183   9
  -6 -10  -4 668.583 79.7929   2
   6 -10   5 100.409 41.3137  11
  -6 -10  -5 64.9048 39.8105   2
   6 -10   5 111.191 50.5887   3
   6 -10   5 66.4994 34.8092   6
  -6 -10  -6 432.915 70.4835   2
   6 -10   6 412.719 71.0041   3
   6 -10   6 441.797 61.5419   6
   6 -10   7 194.509 47.6239   6
  -6 -10  -7 172.969 51.1929   2
   6 -10   7 329.304 63.2631   7
  -6  -9   8 420.219 57.4144   2
  -6  -9   8 558.794 72.9648   7
  -6  -9   7 751.783 87.8217  10
  -6  -9   7 646.691 80.0068   6
  -6  -9   7 566.708 67.2772   2
  -6  -9   7 711.262 78.1604   7
  -6  -9   6 280.190 53.0643   2
  -6  -9   6 384.662 63.8746   6
  -6  -9   6 312.590 61.4987  10
  -6  -9   5 850.390 80.9581   2
  -6  -9   5 867.382 87.4147  10
  -6  -9   4 110.965 41.1908   2
  -6  -9   4 128.811 45.2593  10
   6  -9  -3 963.432 74.9060  11
  -6  -9   3 935.769 87.1722   2
  -6  -9   3 1056.27 90.1316  10
  -6  -9   2 184.790 44.9816  10
   6  -9  -2 132.721 34.3864  11
  -6  -9   2 99.3652 38.8226   2
  -6  -9   1 812.835 75.7772  10
   6  -9  -1 806.031 72.3507  11
   6  -9   0 13.5259 18.5329   6
  -6  -9   0-8.14233 30.7524  10
   6  -9   0-12.7571 25.9579  11
  -6  -9  -1 384.894 62.4242   2
   6  -9   1 437.436 43.0715   6
  -6  -9  -1 389.449 52.3950  10
   6  -9   1 428.930 55.8596  11
  -6  -9  -2 55.6249 30.7337  10
   6  -9   2 60.7781 32.7200  11
  -6  -9  -2 38.2394 36.3603   2
   6  -9   2 52.9750 25.5672   6
   6  -9   3 770.011 75.8902  11
  -6  -9  -3 639.035 60.5333  10
   6  -9   3 687.662 59.9412   6
  -6  -9  -3 786.554 83.1051   2
   6  -9   4 3.17599 24.7192   6
  -6  -9  -4 36.1009 26.4706  10
   6  -9   4 75.8841 37.0290  11
   6  -9   4 19.7172 27.5291   9
  -6  -9  -4-5.52650 30.4130   2
   6  -9   5 906.213 86.6687  11
   6  -9   5 828.738 70.9382   6
   6  -9   5 674.670 55.8329   9
  -6  -9  -5 636.287 78.7672   2
   6  -9   5 816.777 86.5472   3
   6  -9   6 177.065 40.7417   6
  -6  -9  -6 198.575 49.6534   2
   6  -9   6 205.329 52.0614   3
   6  -9   7 742.227 81.6441  11
  -6  -9  -7 661.643 79.1164   2
   6  -9   7 817.844 90.0666   3
   6  -9   7 622.238 68.9841   6
   6  -9   7 656.647 77.7477   7
   6  -9   8 109.028 49.9152   7
   6  -9   8 85.8268 41.6888   6
  -6  -9  -8 48.2759 40.5600   2
  -6  -8   9 228.777 55.5791   6
  -6  -8   9 152.646 52.2135   7
  -6  -8   9 230.129 51.0941  11
  -6  -8   8 409.545 63.5648   7
  -6  -8   8 313.320 58.8183   6
  -6  -8   8 292.823 49.2213   2
  -6  -8   7 300.194 59.8125  10
  -6  -8   7 186.196 51.4690   7
  -6  -8   7 322.939 50.0600   2
  -6  -8   6 628.018 73.8025  10
  -6  -8   6 546.889 70.9313   6
  -6  -8   6 489.009 59.9424   2
  -6  -8   5 466.356 60.1071   2
  -6  -8   5 465.823 65.1443  10
  -6  -8   4 882.508 60.2089   9
  -6  -8   4 915.912 82.2984   2
  -6  -8   4 1011.42 88.6396  10
  -6  -8   3 442.212 60.4674   2
  -6  -8   3 497.610 61.9583  10
   6  -8  -2 1221.92 80.8995  11
   6  -8  -2 984.914 47.9987   6
  -6  -8   2 1308.87 93.1469  10
  -6  -8   2 1072.24 89.2711   2
   6  -8  -1 84.3988 21.5298   6
  -6  -8   1 158.422 40.9600  10
   6  -8  -1 111.759 32.7512  11
  -6  -8   0 2453.12 123.967  10
   6  -8   0 2522.40 125.430  11
   6  -8   0 2330.34 91.0853   6
  -6  -8  -1 205.518 39.8058  10
   6  -8   1 173.793 39.9401  11
  -6  -8  -1 213.224 46.2481   2
   6  -8   1 175.944 28.3432   6
   6  -8   2 2018.94 115.648  11
  -6  -8  -2 1815.94 100.999  10
   6  -8   2 1896.13 89.0101   6
  -6  -8  -2 1882.22 121.191   2
  -6  -8  -3 56.4902 27.4370  10
   6  -8   3 58.7752 29.6995  11
   6  -8   3 44.4696 24.9573   6
  -6  -8  -3 35.3930 30.4006   2
   6  -8   4 1198.85 77.5563   6
   6  -8   4 1205.08 93.2279  11
  -6  -8  -4 1078.35 71.5289  10
   6  -8   4 1343.03 78.0236   9
  -6  -8  -4 1202.73 98.8612   2
   6  -8   5 109.344 34.6250   6
  -6  -8  -5 128.361 28.6172  10
   6  -8   5 131.833 38.8466  11
   6  -8   5 132.700 30.7437   9
  -6  -8  -5 153.783 44.7080   2
   6  -8   5 157.820 47.9961   3
  -6  -8  -6 658.002 77.2322   2
   6  -8   6 692.689 66.3385   6
   6  -8   6 738.104 52.9886   9
   6  -8   6 852.486 87.0356   3
   6  -8   7 116.672 38.4836   6
   6  -8   7 150.621 49.3279   7
  -6  -8  -7 128.059 43.2971   2
   6  -8   7 172.712 51.8225   3
   6  -8   7 140.278 42.4558  11
   6  -8   8 280.399 52.2230   6
   6  -8   8 242.227 56.1506   7
  -6  -8  -8 278.695 53.4369   2
   6  -8   8 342.865 65.2131   3
   6  -8   8 276.556 52.7139  11
   6  -8   9 307.981 56.6917  11
   6  -8   9 307.474 60.7118   7
   6  -8   9 255.680 52.8529   6
  -6  -8  -9 351.337 58.6984   2
  -6  -7  11 83.8950 39.5448  11
  -6  -7  10 242.350 51.5504  11
  -6  -7  10 310.113 61.5020   7
  -6  -7  10 306.378 58.9591   6
  -6  -7   9 349.861 63.2711  10
  -6  -7   9 302.153 57.2735   7
  -6  -7   9 216.807 38.3773   2
  -6  -7   9 203.155 51.6332   6
  -6  -7   8 434.003 64.8968  10
  -6  -7   8 426.110 51.9463   2
  -6  -7   8 361.969 60.8806   6
  -6  -7   8 445.054 63.9910   7
  -6  -7   7 790.158 77.5535   7
  -6  -7   7 820.862 72.3919   2
  -6  -7   6 786.761 78.8813   6
  -6  -7   6 637.692 72.2598   7
  -6  -7   6 740.684 69.3511   2
  -6  -7   6 832.953 81.6669  10
  -6  -7   5 1315.69 91.8144   2
  -6  -7   5 1286.40 98.3233  10
  -6  -7   4 746.090 71.3941   2
  -6  -7   4 709.011 72.9421  10
  -6  -7   3 2593.03 124.600  10
  -6  -7   3 2374.83 95.2207   9
  -6  -7   3 2516.45 122.158   2
   6  -7  -2 355.851 44.9439  11
  -6  -7   2 354.659 52.8489   2
  -6  -7   2 455.419 56.6640  10
   6  -7  -2 333.894 22.5874   6
  -6  -7   1 1337.60 88.9243  10
   6  -7  -1 1367.77 54.6064   6
   6  -7  -1 1343.57 84.8442  11
  -6  -7   0 45.7565 28.9334  10
   6  -7   0 28.9817 24.4224  11
   6  -7   0 21.7134 16.0558   6
   6  -7   1 3593.23 154.250  11
  -6  -7  -1 3237.93 142.177  10
   6  -7   1 3487.50 118.974   6
  -6  -7  -1 3346.16 160.079   2
  -6  -7  -2 45.5866 26.6535  10
   6  -7   2 51.9586 26.9451  11
   6  -7   2 28.4955 20.5005   6
  -6  -7  -2-4.57468 30.0373   2
   6  -7   3 1813.24 107.201  11
  -6  -7  -3 1643.33 88.6117  10
   6  -7   3 1709.13 83.3975   6
   6  -7   3 1670.08 89.7182   9
  -6  -7  -3 1645.86 108.839   2
  -6  -7  -4 371.586 42.1213  10
   6  -7   4 387.736 53.1645  11
   6  -7   4 412.205 44.9501   6
   6  -7   4 381.691 44.7252   9
  -6  -7  -4 389.322 58.2319   2
   6  -7   5 671.891 59.7163   6
  -6  -7  -5 600.663 49.1260  10
   6  -7   5 725.504 55.0970   9
  -6  -7  -5 592.255 67.3272   2
  -6  -7  -5 553.054 45.0522   3
  -6  -7  -6 300.176 52.1117   2
   6  -7   6 343.649 52.8765   7
   6  -7   6 254.104 43.0298   6
   6  -7   6 315.359 37.3780   9
   6  -7   6 300.003 56.6291   3
  -6  -7  -6 229.725 35.8738   3
   6  -7   7 668.311 71.4346  11
   6  -7   7 584.506 68.7600   7
   6  -7   7 645.375 65.5835   6
   6  -7   7 560.366 44.9569   9
   6  -7   7 658.981 77.8693   3
  -6  -7  -7 653.930 72.6754   2
   6  -7   8 398.912 56.6956   6
   6  -7   8 355.840 59.6185   7
  -6  -7  -8 345.704 55.6138   2
   6  -7   8 433.683 67.7959   3
   6  -7   8 472.605 63.3168  11
   6  -7   9 83.0196 39.8507   6
   6  -7   9 78.4518 44.5719   7
  -6  -7  -9 18.6308 33.7570   2
   6  -7   9 121.718 39.4992  11
   6  -7   9 64.9142 44.1505   3
   6  -7  10 43.9086 42.1558   7
   6  -7  10 109.233 44.8634   6
   6  -7  10 77.0137 38.4272  11
  -6  -6  11 531.057 73.5396   6
  -6  -6  11 617.947 76.6196   7
  -6  -6  11 512.235 63.4319  11
  -6  -6  10 261.258 53.2387   6
  -6  -6  10 218.307 55.1410  10
  -6  -6  10 131.467 50.3561   7
  -6  -6   9 653.677 77.2252  10
  -6  -6   9 599.421 71.1015   6
  -6  -6   9 697.017 75.3162   7
  -6  -6   9 528.061 51.3655   2
  -6  -6   8 480.779 65.7516  10
  -6  -6   8 379.908 45.9370   2
  -6  -6   8 374.673 59.2582   7
  -6  -6   8 365.022 57.5229   6
  -6  -6   7 523.035 63.3116   6
  -6  -6   7 497.394 63.2205   7
  -6  -6   7 457.956 51.6085   2
   6  -6  -7 479.848 43.3845   4
  -6  -6   6 860.608 78.2556   6
  -6  -6   6 782.424 70.2981   7
  -6  -6   6 831.983 68.6318   2
   6  -6  -5 250.119 25.4374   4
  -6  -6   5 358.473 48.3433   2
  -6  -6   5 372.487 53.9376  10
  -6  -6   4 1664.50 100.380   2
  -6  -6   4 1962.43 112.164  10
  -6  -6   3 386.350 41.8047   9
  -6  -6   3 335.121 48.2622   2
  -6  -6   3 434.125 54.6493  10
  -6  -6   2 1983.27 94.3882   9
  -6  -6   2 2038.34 111.624   2
  -6  -6   2 2172.10 112.730  10
   6  -6  -1 15.8056 22.1091  11
  -6  -6   1 34.6709 28.7395  10
  -6  -6   1 4.92093 24.6242   9
   6  -6  -1 10.7653 10.6999   6
  -6  -6   0 3457.53 143.090  10
   6  -6   0 3175.14 140.222  11
   6  -6   0 3331.35 103.654   6
   6  -6   1 213.657 38.6771  11
  -6  -6  -1 228.033 37.8769  10
  -6  -6  -1 209.836 42.6420   2
   6  -6   1 194.224 25.4707   6
   6  -6   2 1404.25 88.3576  11
  -6  -6  -2 1399.76 80.0482  10
   6  -6   2 1396.42 66.3697   6
  -6  -6  -2 1242.26 89.7767   2
   6  -6   3 91.1235 24.2432   6
   6  -6   3 123.100 33.5679  11
  -6  -6  -3 127.938 30.3253  10
   6  -6   3 120.072 30.8532   9
  -6  -6  -3 89.3783 33.5361   2
   6  -6   4 1201.10 84.7848  11
  -6  -6  -4 1167.77 68.5618  10
   6  -6   4 1227.36 71.6026   6
   6  -6   4 1201.97 71.3377   9
  -6  -6  -4 1189.79 88.7736   2
  -6  -6  -5 350.987 51.7344   2
   6  -6   5 354.088 44.4808   6
  -6  -6  -5 329.398 36.3509  10
   6  -6   5 296.844 38.7990   9
  -6  -6  -5 245.393 35.7777   3
   6  -6   6 634.357 65.3721  11
  -6  -6  -6 478.040 41.1902  10
   6  -6   6 679.052 60.3919   6
   6  -6   6 562.523 61.1298   7
   6  -6   6 594.572 49.6518   9
  -6  -6  -6 589.838 65.8032   2
  -6  -6  -6 562.900 49.8919   3
   6  -6   7 213.593 44.5874   7
   6  -6   7 244.981 43.2539   6
   6  -6   7 265.100 46.5321  11
   6  -6   7 179.783 29.9310   9
  -6  -6  -7 205.449 44.2023   2
   6  -6   8 661.593 71.1204  11
  -6  -6  -8 458.298 59.6648   2
   6  -6   8 463.747 40.8561   9
   6  -6   8 533.583 65.2521   7
   6  -6   8 537.592 62.7113   6
   6  -6   9 278.022 55.8393   7
   6  -6   9 409.298 58.5715   6
  -6  -6  -9 390.380 56.7629   2
   6  -6   9 492.229 61.7711  11
  -6  -6 -10 140.783 41.1676   2
   6  -6  10 218.925 50.2844   6
   6  -6  10 227.220 53.8520   7
   6  -6  10 216.332 58.5362   3
   6  -6  10 182.251 44.7505  11
   6  -6  11 513.406 73.2940   7
  -6  -5  12 267.362 56.5633   6
  -6  -5  11 349.734 61.4155   7
  -6  -5  11 252.869 54.5785   6
  -6  -5  11 318.790 58.7595  10
  -6  -5  11 278.848 47.7700  11
  -6  -5  10 930.199 84.0729   6
  -6  -5  10 744.715 77.4493   7
  -6  -5  10 888.856 85.9037  10
   6  -5  -9 445.368 47.0943   5
  -6  -5   9 473.823 60.4952   6
  -6  -5   9 531.477 62.5382   7
  -6  -5   9 374.686 40.2690   2
  -6  -5   9 603.122 70.2376  10
  -6  -5   8 694.078 72.8878   7
  -6  -5   8 790.002 74.1371   6
  -6  -5   8 644.192 54.4593   2
  -6  -5   8 778.171 77.8657  10
   6  -5  -7 1258.66 74.7146   4
  -6  -5   7 1501.89 96.7883   6
  -6  -5   7 1353.39 88.4809   7
  -6  -5   7 1423.92 81.1696   2
  -6  -5   7 1450.70 101.856  10
  -6  -5   6 348.074 49.5286   6
   6  -5  -6 302.197 33.6237   4
  -6  -5   6 353.552 49.0052   7
  -6  -5   6 381.140 45.5921   2
   6  -5  -5 1360.82 61.6973   4
  -6  -5   5 1500.69 96.7299  10
   6  -5  -5 1334.44 78.4028   7
  -6  -5   5 1580.94 83.8378   7
  -6  -5   5 1486.14 86.3486   2
  -6  -5   4 151.624 34.6163   2
   6  -5  -4 98.8360 17.4490   4
   6  -5  -4 138.254 29.5467   7
  -6  -5   3 1689.57 95.6492  10
  -6  -5   3 1601.31 90.8649   2
  -6  -5   2 64.4811 24.6478   9
  -6  -5   2 105.363 35.0304  10
  -6  -5   2 62.8303 28.2410   2
  -6  -5   1 1836.33 89.2027   9
  -6  -5   1 1958.79 100.188  10
  -6  -5   0 36.8566 24.6053  14
   6  -5   0 24.5552 19.8766  11
  -6  -5   0 21.0163 24.6765  10
  -6  -5   0 44.3121 24.3502   9
   6  -5   0 2.38680 10.6259   6
  -6  -5  -1 403.716 49.7515   2
  -6  -5  -1 448.766 46.3949  14
   6  -5   1 422.832 45.8397  11
  -6  -5  -1 461.667 47.8176  10
  -6  -5  -1 458.485 46.0780   9
   6  -5   1 377.272 29.4784   6
  -6  -5  -2 74.5576 28.6254  14
  -6  -5  -2 88.0219 31.2359   2
  -6  -5  -2 52.6637 24.3505  10
   6  -5   2 77.8442 26.4041  11
   6  -5   2 87.6227 28.0950   9
   6  -5   2 91.4579 20.4269   6
  -6  -5  -3 1331.33 89.1677   2
   6  -5   3 1476.71 88.4791  11
  -6  -5  -3 1221.62 75.3823  14
  -6  -5  -3 1266.31 72.4250  10
   6  -5   3 1381.54 76.5838   9
   6  -5   3 1391.97 68.3824   6
  -6  -5  -4 30.9908 27.3116  14
  -6  -5  -4 21.4730 23.1787   7
   6  -5   4 16.6447 19.5499   6
  -6  -5  -4 38.6435 23.9155  10
   6  -5   4 25.9087 24.3015  11
   6  -5   4 10.0332 23.6037   9
  -6  -5  -4 35.9875 26.9528   2
  -6  -5  -5 1123.21 70.7226   7
   6  -5   5 1144.98 72.2698   6
   6  -5   5 1433.55 79.4401   7
  -6  -5  -5 1133.61 71.6946   5
  -6  -5  -5 1128.51 64.0796  10
   6  -5   5 1310.20 70.5921   9
  -6  -5  -5 1139.73 85.3564   2
   6  -5   5 1320.86 92.1601   3
  -6  -5  -5 990.820 63.6708   3
  -6  -5  -6 429.679 55.8122   2
   6  -5   6 456.424 52.7209   7
   6  -5   6 412.351 48.6477   6
   6  -5   6 445.722 53.7715  11
  -6  -5  -6 330.137 44.3376   5
  -6  -5  -6 399.188 37.8160  10
   6  -5   6 472.768 44.1824   9
   6  -5   6 481.933 62.2217   3
  -6  -5  -6 306.810 42.8196   3
   6  -5   7 1036.38 81.6392  11
  -6  -5  -7 901.751 52.6104  10
   6  -5   7 1050.83 77.9893   6
   6  -5   7 1129.54 81.1010   7
   6  -5   7 1064.70 63.3274   9
  -6  -5  -7 1008.99 82.1386   2
   6  -5   7 1147.58 94.8419   3
   6  -5   8 52.6486 36.5682   7
   6  -5   8 79.5817 34.1299   6
   6  -5   8 68.6637 32.1358  11
   6  -5   8 76.5528 24.1785   9
  -6  -5  -8 104.446 36.1123   2
   6  -5   9 569.312 65.4451   6
   6  -5   9 605.374 67.3223   7
   6  -5   9 373.345 38.6610   9
   6  -5   9 509.304 62.0922  11
  -6  -5  -9 526.977 61.3037   2
   6  -5  10 606.172 73.0188   6
   6  -5  10 633.312 72.3636   7
  -6  -5 -10 592.393 64.2076   2
   6  -5  11 424.208 64.1750   7
   6  -5  11 401.687 63.8840   6
  -6  -4  12 282.645 62.6283   7
  -6  -4  12 275.784 52.8116   6
  -6  -4  12 305.901 56.2623  10
  -6  -4  11 652.521 70.9178   6
  -6  -4  11 726.634 77.2231   7
  -6  -4  11 607.062 72.8603  10
  -6  -4  11 477.771 56.2017  11
  -6  -4  10 407.233 58.7017   7
  -6  -4  10 379.400 55.7147   6
  -6  -4  10 392.153 61.0502  10
   6  -4  -9 677.286 53.4675   5
  -6  -4   9 679.166 73.2404  10
  -6  -4   9 698.655 70.5084   6
  -6  -4   9 647.311 66.7709   7
  -6  -4   9 439.353 38.1746   2
  -6  -4   8 345.731 53.0689  10
  -6  -4   8 227.868 32.1830   2
  -6  -4   8 345.321 48.4901   7
   6  -4  -8 344.069 42.2931   5
  -6  -4   8 315.709 47.4764   6
  -6  -4   7 409.620 52.3514   6
  -6  -4   7 304.544 45.3340   7
  -6  -4   7 342.196 38.8844   2
  -6  -4   7 391.536 54.4123  10
  -6  -4   6 1221.35 79.2649   6
  -6  -4   6 1359.58 76.8323   7
  -6  -4   6 1232.05 72.7348   2
   6  -4  -5 374.476 40.0299   7
  -6  -4   5 445.164 45.7985   7
  -6  -4   5 396.340 44.0786   2
   6  -4  -4 1271.09 83.0563   1
  -6  -4   4 1404.05 88.0581  10
   6  -4  -4 1440.12 69.5061   7
  -6  -4   4 1615.23 75.3805   7
  -6  -4   4 1390.57 80.2623   2
  -6  -4   3 282.326 41.5215  10
   6  -4  -3 260.383 38.9793   1
  -6  -4   3 260.196 38.1944   2
  -6  -4   3 272.618 38.6893   5
  -6  -4   2 1901.57 92.7996  14
   6  -4  -2 1762.80 94.7518   1
  -6  -4   2 2021.99 100.685  10
  -6  -4   2 1792.54 85.0939   9
  -6  -4   2 1849.48 96.0816   2
  -6  -4   1 251.918 37.6168   5
   6  -4  -1 286.768 39.0483   1
  -6  -4   1 245.153 39.1254   2
  -6  -4   1 297.672 40.8530  10
  -6  -4   1 254.367 36.3554   9
  -6  -4   1 267.598 39.6820  14
  -6  -4   0 4584.40 159.390   5
   6  -4   0 4242.87 162.536   1
  -6  -4   0 4265.67 159.236  10
  -6  -4   0 4120.34 151.920   9
  -6  -4   0 4653.65 159.838  14
  -6  -4  -1 1161.66 77.6581   2
   6  -4   1 1202.28 75.0584   1
  -6  -4  -1 1338.88 73.3516  14
  -6  -4  -1 1252.47 72.1411   5
  -6  -4  -1 1136.21 68.6536  10
  -6  -4  -1 1154.85 69.4493   9
   6  -4   1 1138.30 48.9649   6
  -6  -4  -2 1411.07 86.9930   2
   6  -4   2 1509.40 85.0315   1
  -6  -4  -2 1390.98 77.9934  14
   6  -4   2 1415.65 82.9685  11
  -6  -4  -2 1424.36 77.5711   5
  -6  -4  -2 1452.04 76.4528  10
   6  -4   2 1427.51 78.4423   9
   6  -4   2 1476.45 63.0894   6
  -6  -4  -3 144.240 31.5936  14
  -6  -4  -3 169.210 33.4246   5
   6  -4   3 243.501 29.7132   6
  -6  -4  -3 229.112 33.5195  10
   6  -4   3 232.267 37.7046  11
   6  -4   3 248.482 36.2428   9
  -6  -4  -3 244.581 40.2831   2
  -6  -4  -4 2021.12 95.9858   5
  -6  -4  -4 2252.83 90.3313   7
   6  -4   4 2242.25 95.1778   6
   6  -4   4 2113.13 92.4755   7
  -6  -4  -4 2155.22 92.7466  10
   6  -4   4 2128.56 97.0118   9
  -6  -4  -4 1997.96 109.324   2
  -6  -4  -5 41.6235 27.1446   2
  -6  -4  -5 101.877 27.1587   7
   6  -4   5 72.3107 26.2870   7
   6  -4   5 71.5254 26.4162   6
  -6  -4  -5 43.0857 26.8659   5
  -6  -4  -5 99.9760 23.8826  10
   6  -4   5 91.9998 28.4362   9
   6  -4   5 72.5602 32.0160   3
   6  -4   6 824.072 67.0888  11
  -6  -4  -6 755.780 50.3012  10
  -6  -4  -6 682.333 57.5235   7
   6  -4   6 821.270 62.9288   6
   6  -4   6 764.754 59.3773   7
   6  -4   6 754.904 55.8724   9
  -6  -4  -6 730.586 67.2594   2
   6  -4   6 674.830 68.9176   3
  -6  -4  -6 669.875 56.1221   3
  -6  -4  -7 341.888 48.5457   2
   6  -4   7 373.936 48.4592   6
   6  -4   7 387.476 49.4150   7
   6  -4   7 415.439 52.0491  11
  -6  -4  -7 320.661 38.2568  11
  -6  -4  -7 340.749 35.3678  10
   6  -4   7 359.091 40.2994   9
   6  -4   7 369.726 56.6571   3
   6  -4   8 761.503 53.4559  12
   6  -4   8 879.097 74.0555   6
   6  -4   8 717.410 67.9122   7
  -6  -4  -8 582.319 41.1641  10
   6  -4   8 665.243 51.6533   9
  -6  -4  -8 617.839 63.8740   2
   6  -4   8 725.103 77.9679   3
   6  -4   9 147.118 42.7347   7
   6  -4   9 94.2764 37.7147   6
  -6  -4  -9 157.889 38.4791   2
   6  -4   9 146.777 27.9351   9
   6  -4   9 150.274 46.8107   3
   6  -4  10 632.755 51.6118   5
   6  -4  10 582.686 70.9284   6
   6  -4  10 686.757 71.9541   7
   6  -4  10 670.397 80.9249   3
  -6  -4 -10 572.337 62.2193   2
   6  -4  10 504.521 44.4083   9
   6  -4  11 407.658 64.0813   7
   6  -4  11 428.513 64.2663   6
   6  -4  12 214.779 58.4069   7
  -6  -3  13-30.3697 35.9610   6
  -6  -3  13 40.4613 35.6498  10
  -6  -3  12 102.683 43.3565   7
  -6  -3  12 37.3277 34.4157   6
  -6  -3  12 77.3254 37.4157  10
  -6  -3  11 56.3053 40.4903   7
  -6  -3  11 50.9327 35.1352   6
  -6  -3  11 53.7469 33.8493  10
  -6  -3  11 31.7159 25.8612  11
  -6  -3  10 588.700 65.8834   7
  -6  -3  10 491.012 58.5470   6
  -6  -3  10 510.306 65.4111  10
  -6  -3   9 154.528 37.9365   6
   6  -3  -9 152.782 30.2212   5
  -6  -3   9 198.326 43.3265  10
  -6  -3   9 191.309 41.5397   7
  -6  -3   9 112.200 18.0429   2
  -6  -3   8 242.435 44.5526  10
  -6  -3   8 179.936 26.2560   2
  -6  -3   8 226.025 41.6963   7
   6  -3  -8 251.375 35.3193   5
  -6  -3   8 229.959 41.8226   6
  -6  -3   7 814.792 71.2179  10
   6  -3  -7 790.249 59.0299   5
  -6  -3   7 876.460 65.2305   7
   6  -3  -7 767.706 59.8023   7
  -6  -3   7 830.527 63.7241   6
  -6  -3   7 659.527 49.7439   2
  -6  -3   6 2202.90 102.863   6
   6  -3  -6 2105.92 95.0976   7
  -6  -3   6 2389.91 101.675   7
  -6  -3   6 2382.89 116.713  10
   6  -3  -6 2059.85 94.2925   8
  -6  -3   6 2116.25 93.1154   2
  -6  -3   5 2778.39 116.469   5
  -6  -3   5 2685.41 111.888   2
   6  -3  -5 2752.23 106.526   7
  -6  -3   5 2852.95 117.360   6
  -6  -3   5 2882.79 110.386   7
  -6  -3   4 765.157 58.5393   5
   6  -3  -4 779.504 63.5930   1
  -6  -3   4 834.302 57.3262   2
   6  -3  -4 771.416 48.7460   7
  -6  -3   4 917.546 51.9119   7
  -6  -3   3 3299.25 129.683  14
  -6  -3   3 3376.56 128.831   5
  -6  -3   3 3126.05 134.316  10
   6  -3  -3 3133.20 133.415   1
  -6  -3   3 3204.00 129.656   2
   6  -3  -3 3249.78 107.577   7
  -6  -3   3 3197.74 109.857   7
  -6  -3   2 278.751 38.9611  10
   6  -3  -2 212.948 34.8765   1
  -6  -3   2 255.901 35.9080   2
  -6  -3   2 278.212 36.3941  14
   6  -3  -1 2324.35 71.4028   4
  -6  -3   1 2475.00 104.100   5
   6  -3  -1 2350.91 109.051   1
  -6  -3   1 2363.26 107.444  10
  -6  -3   1 2523.16 101.429   9
  -6  -3   1 2598.41 106.823  14
  -6  -3   0 125.064 28.2385   5
   6  -3   0 156.561 30.3030   1
  -6  -3   0 154.276 30.1854  10
  -6  -3   0 127.134 28.9621   9
  -6  -3   0 117.889 27.6645  14
   6  -3   1 4583.25 170.908   1
   6  -3   1 4999.69 171.298   9
  -6  -3  -1 4851.57 165.816   5
  -6  -3  -1 4981.53 168.007  14
  -6  -3  -2 297.101 36.8616   5
  -6  -3  -2 305.395 38.2243  14
  -6  -3  -2 296.014 37.8677   9
   6  -3   2 313.396 38.2418   9
   6  -3   2 276.513 26.0087   6
  -6  -3  -3 1820.18 72.8772   7
   6  -3   3 1902.25 79.9045   6
   6  -3   3 1833.29 75.2626   7
  -6  -3  -3 1851.26 90.7354   9
   6  -3   3 1899.57 89.4734   9
   6  -3   3 1848.49 93.5629   1
  -6  -3  -3 1904.41 87.7122   5
   6  -3   4 44.3793 23.2924   1
  -6  -3  -4 43.1534 21.9664   6
   6  -3   4 100.871 24.4868   7
   6  -3   4 71.7272 22.1793   6
   6  -3   4 69.6190 30.7841   3
   6  -3   4 59.4001 23.9364   9
   6  -3   5 2665.25 111.457   6
  -6  -3  -5 2421.67 99.0977   7
   6  -3   5 2617.97 104.754   7
   6  -3   5 2553.54 108.459   9
   6  -3   5 2591.06 127.157   3
  -6  -3  -6 191.694 32.8311   7
   6  -3   6 180.894 33.1054   7
  -6  -3  -6 152.976 31.5196   8
   6  -3   6 145.950 32.5343   6
  -6  -3  -6 144.121 29.1044  11
   6  -3   6 159.444 31.8188   9
   6  -3   6 172.979 44.1674   3
   6  -3   7 1169.72 80.0478   6
   6  -3   7 1316.82 79.2726   7
   6  -3   7 1244.33 72.1210   9
   6  -3   7 1226.72 92.4560   3
  -6  -3  -7 1036.81 65.7501  11
   6  -3   8 178.396 38.9324   7
   6  -3   8 190.517 40.2242   6
   6  -3   8 244.948 31.3161  12
   6  -3   8 238.625 36.1864   9
   6  -3   8 280.823 53.2964   3
   6  -3   9 656.388 51.3354   5
   6  -3   9 711.297 71.2337   6
   6  -3   9 767.459 69.2609   7
   6  -3   9 542.607 50.5460   9
  -6  -3  -9 562.530 59.8677   2
   6  -3   9 699.993 79.4043   3
   6  -3  10 112.017 26.9417   5
   6  -3  10 121.879 42.1384   7
   6  -3  10 111.758 39.9774   6
   6  -3  10 104.017 29.3251   9
   6  -3  10 127.196 48.5588   3
  -6  -3 -10 123.236 35.4668   2
   6  -3  11 293.946 55.8838   6
   6  -3  11 216.348 51.7267   7
   6  -3  11 329.635 63.5356   3
   6  -3  12 356.612 62.7797   7
  -6  -3 -12 350.615 57.3855  14
  -6  -2  13 513.758 63.8456   6
  -6  -2  12 50.4580 42.5871   7
  -6  -2  12 7.69781 31.6393   6
  -6  -2  12 45.6828 36.9623  10
  -6  -2  11 493.422 64.3272   7
  -6  -2  11 609.716 61.9157   6
  -6  -2  11 509.367 62.8628  10
  -6  -2  11 355.109 42.1949  11
  -6  -2  10 402.150 55.8048  10
   6  -2 -10 339.908 47.5821  14
  -6  -2  10 380.862 49.8665   6
  -6  -2  10 410.553 56.4371   7
  -6  -2   9 536.302 59.7351  10
   6  -2  -9 381.307 45.8434  14
  -6  -2   9 459.177 54.6871   7
  -6  -2   9 379.538 47.8318   6
   6  -2  -9 427.162 42.3286   5
   6  -2  -8 838.664 58.3596   5
   6  -2  -8 739.170 57.3388  14
  -6  -2   8 767.437 68.5310  10
  -6  -2   8 808.109 61.3969   6
  -6  -2   8 824.969 65.3571   7
   6  -2  -7 998.965 63.7901   5
  -6  -2   7 845.248 60.1319   6
  -6  -2   7 939.026 64.3813   7
   6  -2  -7 921.305 63.8143   7
   6  -2  -7 827.691 60.0869   8
  -6  -2   7 785.785 49.3546   2
   6  -2  -6 451.079 46.3331   5
  -6  -2   6 541.728 46.3848   7
   6  -2  -6 442.325 42.7299   7
  -6  -2   6 481.310 45.0974   6
  -6  -2   6 438.557 51.4361  10
   6  -2  -6 445.907 42.2378   8
  -6  -2   6 375.948 37.0641   2
  -6  -2   5 874.296 55.1173   2
   6  -2  -5 892.826 62.8391  13
   6  -2  -5 969.841 63.1979   5
  -6  -2   5 863.922 65.6841  10
   6  -2  -5 878.871 53.2238   8
  -6  -2   5 971.977 58.4177   6
  -6  -2   5 1014.15 56.4205   7
   6  -2  -5 879.818 53.3122   7
   6  -2  -4 4171.63 147.509  13
  -6  -2   4 3991.36 148.122  14
  -6  -2   4 3863.04 140.742   2
  -6  -2   4 4041.01 129.316   7
   6  -2  -4 3817.80 125.677   7
  -6  -2   3 465.925 46.3076  10
   6  -2  -3 367.760 40.8924  13
   6  -2  -3 364.841 28.4339   7
  -6  -2   3 439.406 30.8932   7
   6  -2  -2 2364.06 74.8510   7
  -6  -2   2 2408.31 76.1903   7
   6  -2  -2 2161.63 104.833   1
  -6  -2   2 2203.16 104.384  10
  -6  -2   1 251.616 35.2094  14
   6  -2  -1 236.379 34.5093   1
   6  -2  -1 211.502 16.8301   7
  -6  -2   1 201.366 18.5176   7
   6  -2   0 6678.32 219.020   1
   6  -2   0 6828.32 188.290   4
  -6  -2   0 6872.67 214.720  14
   6  -2   1 203.544 21.0708   4
  -6  -2  -1 166.427 29.7609  14
  -6  -2  -1 189.925 16.0959   7
   6  -2   1 183.644 16.5031   7
   6  -2   2 4041.61 149.056   1
  -6  -2  -2 3966.98 137.618  13
   6  -2   2 4050.70 147.822   9
  -6  -2  -2 4242.09 146.933   9
  -6  -2  -2 4040.53 116.909   7
   6  -2   2 4066.77 118.598   7
   6  -2   3 807.827 57.7541   1
  -6  -2  -3 883.819 50.0332  13
   6  -2   3 785.061 56.4996   9
  -6  -2  -3 792.828 57.1868   9
  -6  -2  -3 793.452 53.8815   6
  -6  -2  -3 891.857 42.6912   7
   6  -2   3 839.521 42.9186   7
   6  -2   4 3977.47 155.277   3
  -6  -2  -4 3907.30 126.463  13
   6  -2   4 3625.51 135.168   6
  -6  -2  -4 3575.36 137.310   6
   6  -2   4 3774.61 125.642   7
   6  -2   4 3749.67 141.673   9
  -6  -2  -4 3776.29 142.532   9
   6  -2   4 4113.56 147.914   1
   6  -2   5 47.8524 22.9733   1
  -6  -2  -5 67.7643 18.6459  13
   6  -2   5 33.3166 22.1664   6
   6  -2   5 90.2712 25.0935   7
  -6  -2  -5 37.0859 20.9203   7
  -6  -2  -5 46.2734 24.3808   6
  -6  -2  -5 51.4352 22.8507   8
  -6  -2  -5 54.1059 22.4610  11
   6  -2   5 71.8200 26.1479   9
  -6  -2  -5 91.6536 29.6688   9
   6  -2   5 39.2253 27.2437   3
  -6  -2  -5 83.5752 30.9729   4
   6  -2   6 1363.61 78.7587   6
   6  -2   6 1345.00 72.5705   7
  -6  -2  -6 1177.11 67.3677   7
  -6  -2  -6 1213.12 69.8113  11
   6  -2   6 1226.13 77.2828   1
   6  -2   6 1217.64 72.9909   9
  -6  -2  -6 1214.73 67.4605   8
   6  -2   6 1218.67 85.4137   3
  -6  -2  -7 398.169 41.5738  11
   6  -2   7 340.859 46.8558   6
   6  -2   7 460.828 49.0792   7
  -6  -2  -7 441.568 45.8072   7
   6  -2   7 507.811 46.1523   5
   6  -2   7 491.292 47.9970   9
  -6  -2  -7 464.537 46.0673   8
   6  -2   7 491.308 60.3436   3
  -6  -2  -8 768.905 56.1099  11
   6  -2   8 933.702 75.1999   6
   6  -2   8 864.649 68.6892   7
   6  -2   8 869.903 57.0760   5
   6  -2   8 921.648 65.4175   9
   6  -2   8 842.707 79.7674   3
   6  -2   9 224.113 24.0066  12
   6  -2   9 269.924 49.5885   6
   6  -2   9 229.048 45.2264   7
   6  -2   9 321.845 41.6675   9
   6  -2   9 245.251 52.4260   3
   6  -2   9 258.483 33.1883   5
   6  -2  10 348.497 54.3817   7
   6  -2  10 269.788 40.1143   9
   6  -2  10 301.244 58.1641   3
   6  -2  10 274.773 30.6581   5
   6  -2  11 270.773 40.0807   9
   6  -2  11 365.594 57.9141   7
   6  -2  11 398.306 68.3785   3
  -6  -2 -12 258.200 54.4372  14
   6  -2  12 229.084 54.8799   7
  -6  -2 -13 297.181 57.4474  14
  -6  -1  13 15.0587 30.1302   6
  -6  -1  12 255.620 44.8742   6
  -6  -1  12 329.874 52.7210  10
   6  -1 -11 76.9954 35.8949  14
  -6  -1  11 102.471 33.1510   6
  -6  -1  11 127.085 36.1426  10
  -6  -1  11 76.6070 23.9637  11
   6  -1 -10 362.248 45.8117  12
  -6  -1  10 386.325 52.3423  10
   6  -1 -10 375.560 50.4796  14
  -6  -1  10 395.971 57.4820   7
  -6  -1  10 491.162 51.4752   6
  -6  -1   9 264.172 42.8672  10
   6  -1  -9 257.195 41.2268  14
  -6  -1   9 198.403 41.5425   7
   6  -1  -9 206.273 35.4276   5
  -6  -1   9 181.188 36.6540   6
   6  -1  -8 547.955 49.5786   5
   6  -1  -8 526.316 53.0645  14
  -6  -1   8 576.959 57.7278  10
  -6  -1   8 533.255 47.4267   6
  -6  -1   8 476.065 51.0149   7
   6  -1  -7 1294.82 71.7005   5
   6  -1  -7 1113.85 71.0254  14
  -6  -1   7 1210.75 79.3169  10
   6  -1  -7 1172.09 69.2629   8
  -6  -1   7 1293.66 67.7530   6
  -6  -1   7 1313.42 73.8681   7
   6  -1  -7 1157.15 70.5812   7
  -6  -1   6 771.453 47.1858   2
   6  -1  -6 803.566 59.8783  14
  -6  -1   6 817.450 64.3481  10
   6  -1  -6 867.812 59.7353   5
   6  -1  -6 777.930 52.6436   8
  -6  -1   6 872.686 52.8234   6
  -6  -1   6 928.430 57.0725   7
   6  -1  -6 710.405 52.3972   7
  -6  -1   5 743.725 58.8754  10
   6  -1  -5 699.941 55.3799  13
  -6  -1   5 703.205 56.2272  14
  -6  -1   5 696.432 46.5770   7
  -6  -1   5 757.115 46.6245   6
   6  -1  -5 693.116 46.8006   7
   6  -1  -5 760.575 54.7598   5
  -6  -1   4 1051.05 64.3694  14
   6  -1  -4 1049.19 65.1017  13
   6  -1  -4 1042.92 49.4422   8
  -6  -1   4 985.535 52.0994   6
  -6  -1   4 1044.39 50.9325   7
   6  -1  -4 928.489 48.6906   7
   6  -1  -4 1110.06 64.6310   5
   6  -1  -3 2889.07 114.008  13
  -6  -1   3 2861.58 113.091  14
   6  -1  -3 2798.05 88.9006   8
  -6  -1   3 2869.10 89.9985   7
   6  -1  -3 2739.31 88.6918   7
   6  -1  -3 2994.96 117.195   5
   6  -1  -2 740.767 53.4794  13
   6  -1  -2 840.032 56.1915   5
   6  -1  -2 868.290 57.9937   9
  -6  -1   2 831.441 31.9142   7
   6  -1  -2 771.814 31.0363   7
   6  -1  -1 3089.42 122.782   9
  -6  -1   1 3206.36 123.146  13
   6  -1  -1 3028.82 116.888  13
  -6  -1   0 196.060 30.7240  14
  -6  -1   0 199.269 29.4540  13
   6  -1   0 184.843 29.2529   9
   6  -1   0 190.434 23.3209   4
   6  -1   1 2999.75 103.254   4
  -6  -1  -1 2904.47 112.158  13
  -6  -1  -1 3015.74 114.336   9
   6  -1   1 2778.54 114.556   1
   6  -1   2 493.214 42.9024   1
  -6  -1  -2 636.940 43.3213  13
   6  -1   2 576.388 38.9442   4
  -6  -1  -2 528.442 45.3992   9
   6  -1   2 577.079 25.3848   7
  -6  -1  -2 460.493 24.1348   7
   6  -1   3 5426.04 188.436   3
   6  -1   3 5970.39 186.922   1
  -6  -1  -3 5305.07 171.596  13
   6  -1   3 5693.41 176.028   4
   6  -1   3 5506.67 186.161   9
  -6  -1  -3 5739.97 184.022   9
   6  -1   3 5621.52 156.823   7
  -6  -1  -3 5541.90 175.258   6
  -6  -1  -3 5336.96 154.539   7
   6  -1   4 227.572 32.0197   1
  -6  -1  -4 212.568 25.5573   7
  -6  -1  -4 249.809 26.2991   8
  -6  -1  -4 209.338 30.9680   6
   6  -1   4 236.141 26.8569   7
  -6  -1  -4 232.788 28.2814  13
   6  -1   4 225.514 32.8619   5
  -6  -1  -4 228.680 31.7057  11
   6  -1   4 192.567 32.3423   9
  -6  -1  -4 244.256 35.4953   9
   6  -1   4 198.931 34.3787   3
   6  -1   5 3411.95 144.488   3
  -6  -1  -5 3417.97 116.350  13
  -6  -1  -5 3320.95 128.409  11
   6  -1   5 3422.30 132.255   1
  -6  -1  -5 3321.26 134.147   4
   6  -1   5 3418.70 128.303   5
  -6  -1  -5 3428.91 116.500   8
   6  -1   5 3372.60 135.608   9
  -6  -1  -5 3470.47 133.393   9
   6  -1   5 3582.39 121.839   7
  -6  -1  -5 3504.54 131.986   6
   6  -1   6 1489.30 91.8360   3
  -6  -1  -6 1431.31 62.4974  13
  -6  -1  -6 1263.74 74.2017  11
   6  -1   6 1401.33 78.7557   1
   6  -1   6 1563.68 75.8156   5
  -6  -1  -6 1276.77 68.5714   8
   6  -1   6 1481.45 81.4114   9
  -6  -1  -6 1436.28 80.2390   9
   6  -1   6 1532.54 75.4469   7
  -6  -1  -6 1351.85 71.5142   7
   6  -1   7 2733.80 133.246   3
  -6  -1  -7 2656.10 89.7858  13
  -6  -1  -7 2299.87 104.633  11
   6  -1   7 2558.01 114.017   1
   6  -1   7 2365.42 101.113   5
  -6  -1  -7 2515.23 105.787   8
   6  -1   7 2605.26 115.302   9
   6  -1   7 2777.48 113.993   7
  -6  -1  -7 2334.67 106.056   7
   6  -1   8 570.285 64.7224   3
  -6  -1  -8 449.728 31.8471  13
  -6  -1  -8 433.111 43.4020  11
   6  -1   8 429.842 40.8059   5
   6  -1   8 557.237 54.5349   9
   6  -1   8 425.153 49.6039   7
   6  -1   9 345.639 24.4064  12
   6  -1   9 619.957 57.2182   9
   6  -1   9 514.091 59.7157   7
   6  -1   9 633.771 43.2404   5
   6  -1   9 702.082 74.1429   3
   6  -1  10 750.116 64.4271   9
   6  -1  10 730.216 70.7235   7
   6  -1  10 850.283 85.7984   3
   6  -1  10 622.479 41.5679   5
   6  -1  11 315.135 46.8964   9
  -6  -1 -12 235.113 52.6248  14
   6   0 -13 579.403 79.0934   1
   6   0 -12 155.016 43.4721  14
  -6   0  12 150.816 36.5646   6
  -6   0  12 103.168 35.1478  10
   6   0 -11 507.641 61.3053  14
  -6   0  11 430.621 49.8361   6
  -6   0  11 443.989 54.1993  10
   6   0 -10 101.975 32.8348  12
  -6   0  10 200.890 39.7420  10
   6   0 -10 170.262 41.0858  14
  -6   0  10 152.835 32.0588   6
   6   0  -9 888.246 68.8008  12
  -6   0   9 1077.34 75.9988  10
   6   0  -9 1055.34 78.9058  14
   6   0  -9 979.899 64.2763   5
  -6   0   9 1048.89 66.6989   6
  -6   0   8 581.830 57.0761  10
   6   0  -8 656.047 59.7530  14
  -6   0   8 547.381 47.2598   6
   6   0  -8 520.311 49.1861   5
   6   0  -7 701.641 58.8919  14
  -6   0   7 743.402 59.8628  10
   6   0  -7 726.460 54.7731   5
   6   0  -7 651.892 53.0570   8
  -6   0   7 702.023 46.7397   6
   6   0  -6 594.286 53.3348  14
  -6   0   6 519.432 48.9182  14
   6   0  -6 530.322 48.4260   5
  -6   0   6 485.424 49.7772  10
   6   0  -6 475.266 42.7093   8
  -6   0   6 601.781 39.7023   6
  -6   0   5 35.6549 22.3452  10
  -6   0   5-1.29447 13.8993   6
   6   0  -5 19.8600 22.0909   5
   6   0  -5-2.52594 24.9823  13
   6   0  -5-8.02702 21.7993  14
  -6   0   5 9.44174 20.5363  14
  -6   0   4 1208.74 67.8751  14
   6   0  -4 1338.13 72.7668  13
   6   0  -4 1234.07 70.6625   9
   6   0  -4 1299.12 55.2053   8
  -6   0   4 1241.48 51.6929   6
   6   0  -4 1316.72 71.7242   5
   6   0  -3 855.872 57.8979  13
  -6   0   3 995.380 64.3987  13
  -6   0   3 1042.07 59.9751  14
   6   0  -3 960.470 40.2375   8
   6   0  -3 938.207 60.4091   9
  -6   0   3 868.592 40.6686   6
   6   0  -3 928.938 60.2057   5
   6   0  -2 5269.63 172.837   9
   6   0  -2 5126.18 166.838  13
  -6   0   2 5087.75 172.809  13
  -6   0   2 5510.89 167.729  14
   6   0  -2 5383.87 173.151   5
  -6   0   1 4.76705 17.0615  13
   6   0  -1 2.43041 18.3590   9
  -6   0   1 6.25679 19.8768  14
   6   0  -1 4.83076 17.8692   5
   6   0   0 3184.11 122.596   1
   6   0   0 3149.13 123.043   5
   6   0   0 3150.49 123.836   9
  -6   0   0 3152.66 120.548  13
  -6   0  -1 30.3103 13.9083   6
  -6   0  -1 36.2061 18.9592  13
   6   0   1 30.5127 18.5287  13
   6   0   1 15.2855 17.7445   4
   6   0   1-2.48345 17.9851   9
   6   0   1 20.1511 17.5976   1
   6   0   2 5176.15 168.211   1
  -6   0  -2 5101.37 165.444  13
  -6   0  -2 4961.26 168.461  11
   6   0   2 4990.58 164.529   4
  -6   0  -2 5079.76 168.322   9
   6   0   2 5034.21 167.466   3
   6   0   3-2.15768 17.8854   1
  -6   0  -3 31.8267 11.1443   8
  -6   0  -3 1.78615 15.5406   6
  -6   0  -3-11.6031 17.2093  13
   6   0   3 23.2344 19.2593   5
   6   0   3 2.24570 16.9643   4
  -6   0  -3 2.31658 16.7704  11
  -6   0  -3-2.21622 20.9864   9
   6   0   3 2.47639 20.3523   3
   6   0   4 3627.36 139.709   3
  -6   0  -4 3569.49 123.609  13
  -6   0  -4 3546.21 132.129  11
   6   0   4 3631.27 128.774   1
   6   0   4 3508.26 130.276   5
   6   0   4 3691.52 136.033   4
  -6   0  -4 3504.01 130.327   4
   6   0   4 3232.02 135.171   9
  -6   0  -4 3463.57 110.481   8
  -6   0  -4 3476.32 130.455   9
  -6   0  -4 3454.68 126.904   6
   6   0   5 633.788 57.0593   3
  -6   0  -5 600.084 43.0577  13
  -6   0  -5 528.032 47.2397  11
   6   0   5 482.655 43.4687   1
   6   0   5 597.178 46.5356   5
  -6   0  -5 550.630 49.8545   4
   6   0   5 613.871 52.9485   9
  -6   0  -5 612.094 40.5096   8
  -6   0  -5 564.273 49.0185   9
  -6   0  -5 572.794 48.7435   6
   6   0   6 535.270 46.6691   1
  -6   0  -6 438.681 45.0463   1
  -6   0  -6 475.414 45.4936  11
  -6   0  -6 525.004 40.3104  13
   6   0   6 507.420 44.6118   5
  -6   0  -6 450.120 49.3696   4
   6   0   6 509.393 51.3157   9
  -6   0  -6 510.316 43.2809   8
  -6   0  -6 510.495 48.6522   9
   6   0   6 611.316 58.8659   3
   6   0   7 901.782 62.4725   1
  -6   0  -7 1053.27 65.8905   1
  -6   0  -7 851.100 61.3262  11
  -6   0  -7 954.450 53.4738  13
   6   0   7 1005.31 58.4350   5
   6   0   7 1025.43 69.9352   9
  -6   0  -7 873.835 60.0244   8
  -6   0  -7 957.192 64.9196   9
   6   0   7 841.533 73.2520   3
  -6   0  -8 1961.28 94.6909   1
   6   0   8 1760.19 92.0828   1
  -6   0  -8 1911.28 75.8520  13
   6   0   8 1715.52 78.0842   5
   6   0   8 1813.28 99.1817   9
   6   0   8 1941.73 112.905   3
  -6   0  -9 276.103 40.4311   1
   6   0   9 309.567 40.5428   1
  -6   0  -9 316.257 30.5296  13
   6   0   9 301.177 54.7557   3
   6   0   9 341.253 47.6100   9
   6   0   9 291.089 32.7147   5
   6   0  10 470.962 55.8830   9
  -6   0 -10 400.584 48.7092   1
   6   0  10 325.444 29.2507   5
   6   0  11 377.643 50.9000   9
  -6   0 -12 133.490 49.3336  14
   6   1 -13 55.5056 40.5716  14
   6   1 -12 412.062 63.5986  14
  -6   1  11 128.561 34.2965  10
   6   1 -11 145.711 42.5083  14
   6   1 -10 418.302 57.2550  14
   6   1 -10 395.958 47.0498  12
  -6   1  10 413.165 49.5152  10
   6   1 -10 379.150 45.2814   9
  -6   1  10 390.195 43.0263   6
   6   1  -9 305.880 47.8242  14
   6   1  -9 282.858 44.6173  12
   6   1  -9 218.932 36.2481   5
  -6   1   9 268.694 40.4775  10
   6   1  -9 271.035 40.1993   9
  -6   1   9 267.714 34.7424   6
   6   1  -8 637.538 62.5576  14
   6   1  -8 550.612 55.5360  12
   6   1  -8 508.640 49.7407   5
  -6   1   8 613.117 55.9629  10
   6   1  -8 523.618 50.4869   9
  -6   1   8 475.925 40.2829   6
   6   1  -7 1238.57 80.0880  14
  -6   1   7 1150.33 70.6601  14
   6   1  -7 1169.88 75.1819  12
  -6   1   7 1215.84 73.8786  10
   6   1  -7 1293.34 72.9195   5
   6   1  -7 1184.02 70.3468   8
   6   1  -7 1274.89 71.5742   9
  -6   1   7 1188.95 56.4301   6
   6   1  -6 767.343 62.6045  14
  -6   1   6 706.008 54.9411  14
  -6   1   6 824.155 58.8508  10
   6   1  -6 660.658 50.5867   8
   6   1  -6 859.255 58.8133   9
  -6   1   6 713.466 39.2765   6
   6   1  -6 823.983 59.3472   5
   6   1  -5 667.444 56.8948  14
   6   1  -5 783.052 58.4536  13
  -6   1   5 647.365 56.9932  13
  -6   1   5 583.484 48.0707  14
   6   1  -5 627.796 51.5726   9
  -6   1   5 724.305 34.0608   6
   6   1  -5 724.018 55.0186   5
   6   1  -4 967.395 64.5018  14
   6   1  -4 963.446 63.1376  13
  -6   1   4 1008.73 58.6042  14
   6   1  -4 943.071 47.0330   8
   6   1  -4 1044.31 62.8075   9
  -6   1   4 929.766 34.8576   6
   6   1  -4 945.988 62.3038   5
   6   1  -3 3046.39 114.399  13
  -6   1   3 2931.36 107.785  14
   6   1  -3 2884.79 87.6453   8
   6   1  -3 2763.20 112.243   9
  -6   1   3 2579.46 72.5464   6
   6   1  -3 3002.16 117.078   5
  -6   1   2 806.437 50.0622  14
  -6   1   2 766.854 54.5008  13
   6   1  -2 808.540 54.5298   5
   6   1  -2 724.958 29.2977   8
   6   1  -2 760.510 52.7605   9
  -6   1   2 696.978 22.0532   6
  -6   1   1 2905.39 117.014  13
  -6   1   1 2990.00 110.300  14
   6   1  -1 3072.06 119.520   5
  -6   1   1 2860.78 111.443  11
   6   1  -1 3087.64 119.022   9
  -6   1   1 2844.49 80.9520   6
  -6   1   0 271.963 32.8353  13
   6   1   0 221.292 28.4646  13
   6   1   0 226.484 30.8538   5
   6   1   0 148.700 28.7860   9
  -6   1   0 159.645 17.0650   6
  -6   1  -1 2928.10 112.512  13
   6   1   1 2838.44 104.722  13
  -6   1  -1 2642.42 109.344  11
   6   1   1 2754.95 108.823   1
   6   1   1 2905.44 112.019   4
   6   1   1 2796.39 115.636   9
  -6   1  -1 2753.70 90.3839   6
   6   1   2 528.103 40.2298   3
  -6   1  -2 403.532 40.4626  11
  -6   1  -2 580.067 44.1414  13
   6   1   2 572.880 45.7028   5
   6   1   2 565.382 45.3991   4
  -6   1  -2 546.278 24.1176   8
   6   1   2 558.418 47.4896   9
  -6   1  -2 481.304 34.4356   6
  -6   1  -3 5539.10 178.349  13
  -6   1  -3 5506.39 182.956  11
   6   1   3 5323.35 180.704   5
   6   1   3 5495.91 185.491   4
  -6   1  -3 5498.17 153.107   8
   6   1   3 5645.97 181.053   3
   6   1   4 225.995 35.1721   3
  -6   1  -4 157.601 28.6735   4
  -6   1  -4 203.676 29.9969  13
  -6   1  -4 228.822 31.3702   6
   6   1   4 240.336 34.9051   4
   6   1   4 229.739 32.6800   5
  -6   1  -4 223.453 32.7878  11
  -6   1  -4 245.694 24.3711   8
   6   1   4 213.122 35.0423   9
  -6   1  -4 206.700 33.9161   1
   6   1   5 3475.44 141.233   3
  -6   1  -5 3576.39 127.652  13
  -6   1  -5 3340.17 133.185  11
  -6   1  -5 3487.10 138.918   1
   6   1   5 3752.73 145.901   4
  -6   1  -5 3357.56 129.807   4
   6   1   5 3449.45 129.247   5
  -6   1  -5 3635.22 132.582   9
  -6   1  -5 3702.02 120.490   8
   6   1   5 3376.95 141.898   9
  -6   1  -5 3547.64 131.682   6
   6   1   6 1269.99 67.5222   1
  -6   1  -6 1476.73 81.3510   1
  -6   1  -6 1318.10 76.6667  11
   6   1   6 1308.65 63.8477  12
  -6   1  -6 1342.79 69.6021  13
  -6   1  -6 1369.13 78.1586   4
   6   1   6 1296.56 69.3340   5
  -6   1  -6 1277.22 67.8023   8
   6   1   6 1485.53 85.0609   9
  -6   1  -6 1375.90 75.4547   9
   6   1   6 1276.63 81.8126   3
   6   1   7 2680.05 105.105   1
  -6   1  -7 2824.45 121.078   1
   6   1   7 2410.47 91.3689  12
  -6   1  -7 2757.04 105.242  13
   6   1   7 2571.70 102.338   5
  -6   1  -7 2391.56 105.753   8
   6   1   7 2577.03 121.984   9
  -6   1  -7 2518.86 109.687   9
   6   1   7 2458.83 124.563   3
  -6   1  -8 477.614 50.6097   1
   6   1   8 451.914 43.2628   1
  -6   1  -8 513.576 43.8669  13
   6   1   8 348.905 28.6613  12
   6   1   8 457.185 59.0346   3
   6   1   8 468.610 54.7435   9
  -6   1  -8 510.873 48.6237   9
   6   1   8 402.601 38.3215   5
   6   1   9 761.348 68.9249   9
   6   1   9 531.207 41.6202   5
  -6   1  -9 702.089 50.4420  13
  -6   1  -9 743.683 64.2375   1
  -6   1 -10 682.771 66.9690   1
   6   1  10 819.047 72.4787   9
  -6   1 -11 404.304 64.4616  14
  -6   1 -11 390.105 52.0985   1
   6   1  11 326.037 52.8325   9
  -6   1 -12 166.375 48.4122  14
   6   2 -13 415.894 65.8644  14
   6   2 -12 48.4388 41.1665  14
   6   2 -12 25.7600 36.1202   1
   6   2 -11 444.994 63.2392  14
  -6   2  11 392.700 45.3554  10
  -6   2  10 328.498 42.2611  10
   6   2 -10 352.107 45.5164  12
   6   2 -10 413.584 58.1882  14
   6   2  -9 357.046 46.1697  12
  -6   2   9 240.209 24.3414  11
   6   2  -9 443.162 46.3912   5
  -6   2   9 396.751 44.1078  10
   6   2  -9 401.797 44.2019   9
   6   2  -9 436.025 59.4657  14
  -6   2   8 881.931 58.4548  14
   6   2  -8 899.169 73.4366  14
   6   2  -8 977.667 68.5075  12
   6   2  -8 961.558 63.6775   5
  -6   2   8 812.041 59.1643  10
   6   2  -8 858.797 56.5844   9
   6   2  -8 808.533 59.1148   3
   6   2  -7 950.342 74.2553  14
  -6   2   7 915.061 60.4889  14
   6   2  -7 1001.67 71.1599  12
   6   2  -7 992.204 66.2629   5
  -6   2   7 963.006 63.4311  10
   6   2  -7 916.255 61.9445   8
   6   2  -7 968.944 60.8296   9
   6   2  -7 838.838 58.5560   3
   6   2  -6 401.765 49.5986  14
  -6   2   6 363.680 38.7605  14
   6   2  -6 404.840 46.0907   5
   6   2  -6 424.721 47.4904  12
  -6   2   6 356.204 45.9109  13
  -6   2   6 371.005 34.2446  11
   6   2  -6 416.163 42.8792   9
  -6   2   6 322.732 31.1338   2
   6   2  -6 475.582 42.0432   3
   6   2  -5 909.753 65.1946  12
  -6   2   5 667.067 46.8017  11
   6   2  -5 806.856 55.8757   9
   6   2  -5 851.860 65.7067  14
  -6   2   5 823.458 62.5123  13
  -6   2   5 739.594 50.8195  14
   6   2  -5 847.393 60.4800   5
   6   2  -4 3918.62 153.404  12
  -6   2   4 3677.60 133.820  11
   6   2  -4 4068.57 144.625   9
   6   2  -4 3970.86 154.842  14
  -6   2   4 3924.17 151.366  13
  -6   2   4 4025.49 135.426  14
   6   2  -4 4256.40 150.875  13
   6   2  -4 4038.61 149.945   5
   6   2  -3 407.347 43.3419  12
  -6   2   3 339.031 34.9741  11
   6   2  -3 378.391 39.2294   9
   6   2  -3 389.979 43.0237  14
  -6   2   3 399.130 36.9128  14
   6   2  -3 443.892 43.3100  13
   6   2  -3 396.169 43.3547   5
  -6   2   2 2137.06 92.7389  11
   6   2  -2 2390.04 103.599   5
   6   2  -2 2217.61 97.7628   9
  -6   2   2 2224.17 90.0028  14
  -6   2   2 2239.05 100.934  13
  -6   2   1 163.647 28.4673  11
  -6   2   1 212.850 16.5866   8
   6   2  -1 219.815 30.9714   9
   6   2  -1 254.311 33.2227  13
  -6   2   1 282.403 34.2131  13
   6   2  -1 289.191 36.7237   5
   6   2   0 6789.41 197.962  13
  -6   2   0 6668.42 207.748  13
   6   2   0 6676.52 211.457   5
   6   2   0 6431.01 166.136   8
   6   2   0 6470.40 208.388   9
  -6   2   0 6483.00 164.280   8
  -6   2   0 5934.88 165.852   6
  -6   2  -1 237.272 32.0016  13
   6   2   1 168.696 25.9258  13
  -6   2  -1 194.431 20.4850   6
  -6   2  -1 155.040 27.0933  11
   6   2   1 196.178 16.1151   8
   6   2   1 202.942 31.6316   9
   6   2   1 164.932 22.9685   3
   6   2   1 239.998 33.2630   4
   6   2   2 4183.93 135.725   3
  -6   2  -2 4313.55 149.615  13
   6   2   2 4035.98 147.406  12
  -6   2  -2 4222.55 149.294  11
   6   2   2 4142.23 154.036   4
   6   2   2 4137.31 149.789   5
   6   2   2 4201.66 119.396   8
   6   2   2 4099.33 155.213   9
  -6   2  -2 3821.06 126.973   6
  -6   2  -3 832.713 55.3717  13
  -6   2  -3 851.366 57.4699  11
   6   2   3 693.064 51.5361  12
   6   2   3 840.572 51.3160   3
   6   2   3 753.384 54.8757   5
   6   2   3 863.480 60.9354   4
   6   2   3 829.473 61.0265   9
  -6   2  -3 836.836 61.5987   1
  -6   2  -4 3602.76 129.869   6
  -6   2  -4 4041.78 141.769  13
   6   2   4 3747.51 134.747  12
  -6   2  -4 3628.79 140.333  11
   6   2   4 3603.46 146.922   4
  -6   2  -4 3725.93 128.634   4
   6   2   4 3614.89 136.965   5
   6   2   4 3764.25 138.217   3
  -6   2  -4 3967.74 152.061   1
  -6   2  -5 25.8898 21.8764   4
   6   2   5 44.2648 24.8306   3
   6   2   5 36.9012 20.3147  12
  -6   2  -5 91.2089 23.9129  13
   6   2   5 57.2190 25.7136   4
  -6   2  -5 76.7589 25.3814   6
   6   2   5 33.0381 22.8119   5
  -6   2  -5 54.0787 23.7381  11
   6   2   5 72.7226 29.2248   9
  -6   2  -5 60.1397 25.8183   1
   6   2   6 1311.10 79.5276   3
   6   2   6 1170.72 61.1181  12
  -6   2  -6 1234.04 70.9249  13
   6   2   6 1205.69 79.6963   9
  -6   2  -6 1267.72 79.2640   1
  -6   2  -6 1109.89 69.3621   4
   6   2   6 1267.87 69.0349   5
   6   2   7 381.549 33.9346  12
   6   2   7 420.500 41.4201   5
  -6   2  -7 419.545 44.7644   8
   6   2   7 412.594 52.6182   9
  -6   2  -7 481.108 52.4601   1
   6   2   8 1054.46 79.1795   9
   6   2   8 816.372 52.6158   5
  -6   2  -8 1021.54 74.9411   1
   6   2   9 215.334 28.4285   5
   6   2   9 264.458 46.8161   9
  -6   2  -9 281.784 45.6896   1
   6   2  10 333.775 52.4204   9
  -6   2 -10 236.802 35.6829  13
  -6   2 -10 328.481 49.8519   1
  -6   2 -11 305.153 57.3873  14
  -6   2 -11 254.304 47.1704   1
  -6   2 -12 258.323 58.1080  14
   6   3 -12 114.124 48.8720  14
   6   3 -12 106.932 49.5127   1
   6   3 -11 94.3665 42.2352  14
   6   3 -11 51.2655 39.1545   1
  -6   3  10 441.076 44.9998  10
   6   3 -10 491.942 55.0686  12
   6   3 -10 509.699 66.9632  14
   6   3  -9 127.633 34.1476  12
   6   3  -9 128.590 34.2065   5
  -6   3   9 98.4165 27.8998  10
   6   3  -9 154.490 28.9146   9
   6   3  -9 187.434 46.2993  14
   6   3  -8 243.422 46.6013  14
  -6   3   8 208.320 31.2232  14
   6   3  -8 253.291 42.2425  12
   6   3  -8 202.220 39.0069   5
  -6   3   8 219.057 35.0749  10
  -6   3   8 130.316 20.0462  11
   6   3  -8 255.141 32.9055   9
  -6   3   8 145.957 17.8948   2
   6   3  -7 874.094 74.3531  14
  -6   3   7 728.394 51.8198  14
   6   3  -7 827.680 67.9561  12
   6   3  -7 870.310 65.2047   5
  -6   3   7 767.738 56.9724  10
   6   3  -7 816.340 54.7986   9
   6   3  -7 820.364 55.3643   3
  -6   3   7 620.332 41.6200   2
   6   3  -6 2288.02 115.601  14
  -6   3   6 2153.71 106.310  13
  -6   3   6 1937.70 85.5559  14
   6   3  -6 2515.17 109.524   5
   6   3  -6 2284.97 109.826  12
  -6   3   6 1731.37 80.2624  11
   6   3  -6 2263.21 94.1679   9
   6   3  -6 2141.97 86.8635   3
   6   3  -5 2796.87 128.220  14
  -6   3   5 2519.03 99.1830  14
  -6   3   5 2852.52 122.668  13
   6   3  -5 2870.17 121.791   5
   6   3  -5 2876.52 125.867  12
  -6   3   5 2557.26 101.094  11
   6   3  -5 2705.12 108.576   9
   6   3  -5 2691.18 94.8127   3
   6   3  -4 906.514 67.2365  14
  -6   3   4 854.455 50.3515  14
  -6   3   4 916.232 63.6800  13
   6   3  -4 847.491 62.5217   5
  -6   3   4 770.405 50.6561  11
   6   3  -4 981.614 68.5730  12
   6   3  -4 826.048 55.7704   9
  -6   3   4 812.927 54.2063   2
   6   3  -4 833.673 41.5787   3
   6   3  -3 3203.41 134.008  14
  -6   3   3 3224.44 112.171  14
   6   3  -3 3388.51 133.693   5
  -6   3   3 2993.94 115.922  11
   6   3  -3 3315.17 135.579  12
   6   3  -3 3106.95 122.134   9
  -6   3   3 3087.62 106.736   8
  -6   3   3 3065.17 120.632   2
   6   3  -2 270.654 38.9010   5
   6   3  -2 301.637 39.2621  12
  -6   3   2 261.793 32.3022  11
  -6   3   2 281.133 25.4699   8
   6   3  -2 312.434 37.2148   9
  -6   3   2 284.813 31.6185  14
  -6   3   1 2514.24 108.141  13
   6   3  -1 2614.22 102.382  13
   6   3  -1 2480.34 110.700  12
  -6   3   1 2461.86 102.156  11
   6   3  -1 2600.75 112.058   5
  -6   3   1 2460.66 81.1569   8
   6   3  -1 2549.39 107.285   9
   6   3  -1 2235.28 70.9727   3
  -6   3   0 80.5735 17.4753   8
   6   3   0 125.834 26.7527  13
  -6   3   0 144.490 29.2864  13
   6   3   0 98.1572 27.8412   5
  -6   3   0 121.148 26.0005  11
   6   3   0 126.923 29.9577   9
   6   3   0 84.1258 15.1351   3
  -6   3  -1 4903.04 170.657  13
   6   3   1 4870.07 155.647  13
   6   3   1 4850.39 139.991   3
   6   3   1 4690.24 139.853   8
   6   3   1 4652.68 172.636   9
   6   3   1 4914.33 171.643  12
  -6   3  -2 412.176 45.1287   1
  -6   3  -2 290.272 35.8580  11
   6   3   2 371.091 40.5820  12
  -6   3  -2 315.684 38.1917  13
  -6   3  -2 299.868 28.5165   6
   6   3   2 302.125 40.3294   5
   6   3   2 345.136 41.2682   9
   6   3   2 323.724 27.0301   8
   6   3   2 265.383 27.0113   3
   6   3   3 2192.19 85.4330   3
  -6   3  -3 2060.26 96.5763  11
   6   3   3 2103.83 95.0104  12
  -6   3  -3 2004.72 95.5109  13
   6   3   3 1951.72 94.7356   5
   6   3   3 2085.16 79.6394   8
   6   3   3 2009.48 101.937   9
  -6   3  -3 2039.82 104.628   1
   6   3   3 1859.27 77.6959   1
  -6   3  -4 78.1036 21.2044   4
   6   3   4 61.9298 23.1974   3
   6   3   4 49.9265 21.2183  12
  -6   3  -4 93.8668 24.5055   6
   6   3   4 88.5882 26.4257   5
  -6   3  -4 66.8179 24.6451  11
   6   3   4 63.2347 21.5064   8
  -6   3  -4 64.2489 26.3637   1
   6   3   4 60.8767 17.4229   1
  -6   3  -5 2426.52 96.8702   4
   6   3   5 2542.50 105.610   5
  -6   3  -5 2413.73 103.163   6
   6   3   5 2474.77 100.092  12
   6   3   5 2065.99 81.1871   1
  -6   3  -5 2494.25 118.537   1
  -6   3  -6 181.343 31.5985   4
   6   3   6 173.187 28.2790  12
   6   3   6 150.799 31.7577   5
   6   3   6 230.938 42.0598   9
  -6   3  -6 200.971 38.6472   1
   6   3   6 150.123 20.5454   1
   6   3   7 1114.67 83.5198   9
   6   3   7 1043.09 57.2897  12
   6   3   7 923.752 47.7512   1
   6   3   7 1108.41 66.5796   5
  -6   3  -7 1191.15 73.1426   4
   6   3   8 164.794 22.6600  12
   6   3   8 194.483 30.5203   5
   6   3   8 223.212 44.0544   9
  -6   3  -8 220.214 43.4363   1
  -6   3  -9 698.992 70.1877   1
   6   3   9 637.276 69.5608   9
  -6   3 -10 95.1972 40.8545  14
  -6   3 -10 156.791 42.6523   1
   6   3  10 105.536 41.5232   9
  -6   3 -11 321.245 60.0698  14
  -6   3 -11 314.985 53.5110   1
  -6   3 -12 304.001 54.2518   1
   6   4 -11 713.334 81.2387  14
   6   4 -11 551.986 79.7253   1
  -6   4  10 282.394 35.8752  10
   6   4 -10 409.611 52.5861  12
   6   4 -10 377.595 59.8084  14
   6   4 -10 360.180 65.1865   1
  -6   4   9 654.758 51.7856  10
   6   4  -9 743.520 66.5970  12
   6   4  -9 810.330 81.1517  14
  -6   4   8 218.931 29.4676  14
   6   4  -8 373.386 56.8688  14
   6   4  -8 340.165 48.6027  12
  -6   4   8 316.814 38.1978  10
  -6   4   8 149.531 20.3152  11
   6   4  -8 312.322 33.5806   9
  -6   4   8 208.878 24.2270   2
   6   4  -7 534.409 56.0153   5
   6   4  -7 493.104 55.5066  12
  -6   4   7 400.657 50.0608  13
   6   4  -7 476.026 41.6071   9
   6   4  -7 414.635 58.1533  14
  -6   4   7 377.508 35.2856  14
   6   4  -6 1380.10 89.7872  14
  -6   4   6 975.762 55.0217  14
  -6   4   6 1271.50 79.3737  13
   6   4  -6 1244.56 79.8545   5
   6   4  -6 1244.09 81.8673  12
  -6   4   6 915.694 54.8043  11
   6   4  -6 1195.34 64.9609   9
   6   4  -6 1139.74 56.2825   3
  -6   4   6 1068.05 61.9021   2
   6   4  -5 465.748 53.7045  14
  -6   4   5 332.998 32.0527  14
  -6   4   5 414.333 47.4049  13
   6   4  -5 387.149 48.1520   5
   6   4  -5 436.183 51.5150  12
  -6   4   5 417.374 37.4806  11
  -6   4   5 390.932 42.4908   8
   6   4  -5 419.432 40.7399   9
  -6   4   5 426.961 40.7029   2
   6   4  -5 353.106 28.9609   3
   6   4  -4 1369.95 87.4657  14
  -6   4   4 1552.52 84.8872  13
  -6   4   4 1331.34 61.4672  14
   6   4  -4 1539.03 89.0606  12
  -6   4   4 1387.43 69.8949  11
   6   4  -4 1657.17 89.5294   5
  -6   4   4 1459.20 71.6862   8
   6   4  -4 1673.72 78.3593   9
  -6   4   4 1324.57 73.5287   2
   6   4  -4 1224.53 46.4937   3
   6   4  -3 341.218 44.4355  14
  -6   4   3 332.731 32.1732  14
   6   4  -3 209.410 37.8723  12
  -6   4   3 236.659 38.2919  13
   6   4  -3 297.208 43.3160   5
  -6   4   3 276.877 33.0250  11
   6   4  -3 273.796 37.5333   9
  -6   4   3 318.316 32.1167   8
  -6   4   3 231.496 34.0687   2
  -6   4   2 2054.69 82.0524  14
   6   4  -2 2083.63 95.9047  13
   6   4  -2 1983.69 102.191  12
  -6   4   2 1948.95 90.0512  11
   6   4  -2 2218.90 104.933   5
  -6   4   2 2051.16 81.0894   8
   6   4  -2 2029.64 94.9673   9
  -6   4   2 1913.23 95.5257   2
  -6   4   1 234.002 28.0543   8
   6   4  -1 204.558 36.1875  12
   6   4  -1 280.999 36.4606  13
   6   4  -1 239.134 39.7405   5
  -6   4   1 193.861 31.5207  11
   6   4  -1 217.367 34.8677   9
  -6   4   1 228.480 36.2863   2
  -6   4   0 4425.30 161.839  13
   6   4   0 4204.38 147.465  13
   6   4   0 4433.86 164.767   5
   6   4   0 4398.84 161.865   9
  -6   4   0 3992.36 158.262   2
  -6   4   0 4478.97 156.778  11
   6   4   1 1173.76 72.3510  12
  -6   4  -1 1219.24 73.7665  13
   6   4   1 1178.95 74.2015   9
   6   4   1 1209.10 57.5307   8
   6   4   1 1154.03 62.7087  13
   6   4   2 1331.23 65.3754  13
  -6   4  -2 1368.04 77.9315  11
   6   4   2 1544.26 81.6647  12
  -6   4  -2 1310.68 78.2585  13
  -6   4  -2 1385.07 85.7579   1
   6   4   2 1500.17 81.8305   5
   6   4   2 1404.13 64.7132   8
   6   4   2 1465.25 84.5370   9
  -6   4  -2 1275.45 80.7186   2
   6   4   3 294.946 37.7887  12
  -6   4  -3 227.335 39.1295   1
   6   4   3 184.042 24.1418   1
   6   4   3 224.975 37.8369   5
   6   4   3 278.402 41.3312   9
   6   4   3 238.443 30.6512   8
   6   4   4 2023.75 76.1054  13
   6   4   4 2143.70 96.9490  12
  -6   4  -4 2177.86 92.1122   6
  -6   4  -4 2106.55 79.1335   4
   6   4   4 2232.07 101.905   5
   6   4   4 2287.79 113.420   9
   6   4   4 2112.73 89.4212   8
  -6   4  -4 2351.64 115.516   1
  -6   4  -5 66.0892 21.1149   4
   6   4   5 97.6542 31.4717   5
  -6   4  -5 35.1145 30.4204   6
   6   4   5 46.9088 22.8149  12
   6   4   5 107.196 27.9316   8
   6   4   5 55.2120 13.9518   1
  -6   4  -5 88.7313 32.8161   1
   6   4   6 681.174 56.5449   5
  -6   4  -6 642.940 50.2058   4
   6   4   6 612.787 49.7105  12
  -6   4  -6 704.405 67.4130   1
  -6   4  -7 295.855 39.7774   4
   6   4   7 368.547 37.5478  12
   6   4   7 338.175 42.1487   5
   6   4   7 298.802 49.8719   9
  -6   4  -7 358.069 52.8298   1
   6   4   8 731.671 73.6832   9
   6   4   8 574.776 43.5579  12
  -6   4  -8 824.038 76.0418   1
   6   4   9 186.739 44.8525   9
  -6   4  -9 64.4529 37.3037   1
  -6   4  -9 163.269 44.4950  14
   6   4  10 529.952 68.9729   9
  -6   4 -10 689.184 74.1397   1
  -6   4 -10 639.671 77.1921  14
  -6   4 -11 449.673 66.1502   1
  -6   4 -11 551.943 75.6355  14
  -6   4 -12 176.881 47.7299   1
   6   5 -11 308.922 65.0889   1
   6   5 -11 373.844 68.6030  14
   6   5 -10 928.112 91.0876  14
   6   5 -10 923.086 77.1451  12
   6   5 -10 780.251 91.1297   1
  -6   5   9 375.361 39.4641  10
   6   5  -9 552.126 69.1111  14
   6   5  -9 505.338 60.1409  12
   6   5  -9 526.753 75.8295   1
  -6   5   8 686.103 53.0889  10
  -6   5   8 737.450 65.0681  13
   6   5  -8 838.822 82.0919  14
   6   5  -8 807.331 73.1339  12
  -6   5   7 1546.11 90.4021  13
   6   5  -7 1492.20 101.716  14
   6   5  -7 1570.79 97.1052  12
   6   5  -7 1473.85 67.8161   9
  -6   5   7 1277.64 68.1402   2
   6   5  -6 403.457 56.2524  14
  -6   5   6 254.467 25.9178  14
  -6   5   6 257.770 42.4736  13
   6   5  -6 380.500 51.5109  12
   6   5  -6 416.847 53.0086   5
  -6   5   6 291.469 31.6071  11
   6   5  -6 361.757 37.2333   9
  -6   5   6 267.834 41.4385   8
  -6   5   6 386.144 39.7732   2
   6   5  -5 1510.96 96.5304  14
  -6   5   5 1546.41 88.4380  13
  -6   5   5 1232.94 56.3380  14
   6   5  -5 1494.38 92.1755  12
   6   5  -5 1711.09 95.7212   5
  -6   5   5 1247.91 67.9805  11
  -6   5   5 1474.40 80.5256   8
   6   5  -5 1541.12 74.5780   9
  -6   5   5 1330.93 75.9785   2
  -6   5   4 122.141 29.4285   2
   6   5  -4 196.159 39.7875  14
  -6   5   4 105.664 20.6221  14
  -6   5   4 141.050 31.5077  13
   6   5  -4 174.452 38.7407  12
   6   5  -4 241.071 42.6366   5
  -6   5   4 103.377 23.9206  11
   6   5  -4 132.630 28.0381   9
  -6   5   4 62.7302 27.1659   8
  -6   5   3 1464.10 64.8661  14
  -6   5   3 1657.14 90.5728  13
   6   5  -3 1684.43 96.4564  12
  -6   5   3 1524.08 78.2090  11
   6   5  -3 1591.62 94.0120   5
   6   5  -3 1699.68 83.8941   9
  -6   5   3 1626.03 77.8565   8
  -6   5   3 1512.29 84.7408   2
  -6   5   2 70.7510 27.8643   2
  -6   5   2 54.1555 20.3016  14
   6   5  -2 117.035 31.1287  12
   6   5  -2 42.0475 27.8275   5
  -6   5   2 54.6255 23.5612  11
   6   5  -2 46.1367 25.0686   9
  -6   5   2 84.5655 24.5222   8
   6   5  -1 1982.12 92.6994  13
   6   5  -1 1946.85 102.477  12
  -6   5   1 1770.75 89.9560  11
   6   5  -1 1979.34 103.537   5
  -6   5   1 1930.79 82.3186   8
   6   5  -1 2040.50 97.6701   9
  -6   5   1 1652.78 93.8586   2
  -6   5   0 16.3636 22.4169  11
   6   5   0 18.4731 22.0421   9
   6   5   0 9.13263 22.1776  13
  -6   5   0 25.1567 23.0183  13
   6   5   1 496.980 50.8601  12
  -6   5  -1 526.620 51.6383  13
  -6   5  -1 559.118 55.0698   1
   6   5   1 502.460 55.7069   4
   6   5   1 515.621 43.0932   8
   6   5   1 445.849 49.4932   9
   6   5   1 510.240 43.7557  13
  -6   5  -2 80.5674 30.1722   1
   6   5   2 63.4764 21.5557  13
   6   5   2 50.6875 24.9267  12
   6   5   2 71.1615 24.2739   8
   6   5   2 59.5607 30.3303   5
   6   5   2 28.0108 26.4850   9
   6   5   2 56.8536 30.6390   4
   6   5   3 1317.19 88.7981   4
   6   5   3 1321.32 80.9888   5
   6   5   3 1051.12 53.3392   1
  -6   5  -3 1386.03 89.7540   1
   6   5   3 1345.89 86.6132   9
   6   5   3 1255.68 67.9576   8
   6   5   3 1356.41 79.2439  12
  -6   5  -4 60.9734 30.0781   1
   6   5   4 19.3470 12.1508   1
   6   5   4 26.0543 23.4335   8
   6   5   4 29.2591 25.2663  12
   6   5   4 31.9046 26.0001   5
   6   5   4 35.4603 29.1546   9
  -6   5  -4 20.2298 14.5805   4
   6   5   4 28.5803 27.8719   4
   6   5   5 1197.62 74.3865  12
   6   5   5 1287.46 81.6066   5
   6   5   5 1354.92 93.0013   4
  -6   5  -5 1223.89 62.1043   4
   6   5   5 1360.09 93.0784   9
   6   5   5 1269.56 74.8769   8
  -6   5  -5 1313.72 90.6322   1
  -6   5  -6 350.478 39.3827   4
   6   5   6 433.738 45.5475  12
   6   5   6 457.803 59.7671   4
   6   5   6 479.023 50.8598   8
  -6   5  -6 480.971 60.3330   1
   6   5   7 1122.37 90.5194   9
   6   5   7 834.572 60.3344  12
  -6   5  -7 1198.34 91.9604   1
   6   5   7 953.063 86.0765   4
  -6   5  -8 101.138 35.6619   1
   6   5   8 108.734 42.3604   9
   6   5   8 37.8310 22.0698  12
   6   5   9 683.924 78.5461   9
  -6   5  -9 736.753 77.9734   1
  -6   5 -10 659.382 80.0565  14
  -6   5 -10 618.562 77.1930   1
  -6   5 -11 388.912 69.0174  14
  -6   5 -11 423.077 66.1006   1
   6   6 -10 148.916 50.8520   1
   6   6 -10 263.729 57.9777  14
   6   6 -10 225.357 48.2889  12
   6   6  -9 623.384 81.2268   1
   6   6  -9 687.548 72.2684  12
   6   6  -9 664.271 79.9885  14
  -6   6   8 376.171 39.2492  10
   6   6  -8 548.421 70.2863  14
  -6   6   8 465.108 53.9454  13
   6   6  -8 435.578 59.5148  12
   6   6  -7 557.067 69.3572  14
  -6   6   7 547.756 57.7318  13
   6   6  -7 514.541 63.7070  12
  -6   6   7 492.526 58.9121   8
  -6   6   7 561.738 48.7833   2
   6   6  -6 841.652 79.2368  14
  -6   6   6 798.728 68.3696  13
  -6   6   6 740.875 51.2276  11
   6   6  -6 816.268 53.6370   9
  -6   6   6 813.798 68.0106   8
  -6   6   6 859.438 61.3535   2
  -6   6   5 301.479 39.7312   2
  -6   6   5 193.094 17.8794  14
  -6   6   5 387.241 49.3948  13
   6   6  -5 329.033 50.9889  12
  -6   6   5 323.157 36.6036  11
   6   6  -5 353.140 38.5437   9
  -6   6   5 319.935 44.2716   8
   6   6  -4 1689.17 101.928  12
   6   6  -4 1869.32 104.577   5
  -6   6   4 1541.75 79.8957  11
   6   6  -4 1722.23 83.2565   9
  -6   6   4 1650.36 85.8138   8
  -6   6   4 1726.34 94.9345  13
  -6   6   3 423.167 49.9253  13
  -6   6   3 316.387 28.6911  14
   6   6  -3 344.809 49.3408  12
  -6   6   3 340.999 39.3992  11
   6   6  -3 362.981 42.0371   9
  -6   6   3 365.128 41.5714   8
   6   6  -2 2347.38 118.474  12
   6   6  -2 2319.79 117.850   5
  -6   6   2 2011.96 98.6244  11
   6   6  -2 2147.58 102.129   9
  -6   6   2 2180.24 97.2155   8
  -6   6   2 1965.48 79.5735  14
   6   6  -2 2115.59 111.692  14
  -6   6   2 2209.53 109.696  13
   6   6  -1 53.6337 33.5999   5
   6   6  -1 65.2305 27.6588   9
  -6   6   1 9.24031 24.4450   8
   6   6  -1 56.8943 32.5025  12
   6   6   0 3571.46 147.670   9
   6   6   0 3489.13 133.826  13
   6   6   1 176.542 34.2958   8
   6   6   1 219.233 32.7406  13
   6   6   1 184.281 38.1069  12
   6   6   1 209.092 39.1071   9
   6   6   1 219.815 46.1105   4
   6   6   2 1377.71 85.8874  12
  -6   6  -2 1209.72 88.2137   1
   6   6   2 1159.36 85.9489   4
   6   6   2 1253.39 84.7873   5
   6   6   2 1330.42 86.9803   9
   6   6   2 1327.82 74.3866   8
   6   6   2 1271.96 68.1190  13
   6   6   3 67.2876 16.5858   1
  -6   6  -3 102.845 32.4291   1
   6   6   3 95.0389 30.3009   8
   6   6   3 73.1835 22.0963  13
   6   6   3 105.601 33.1420  12
   6   6   3 125.749 35.7987   5
   6   6   3 108.085 34.8832   9
   6   6   3 47.0128 32.3438   4
   6   6   4 1285.20 77.7450  12
  -6   6  -4 1056.12 41.4783   4
   6   6   4 1060.75 81.9446   4
   6   6   4 1321.27 87.9673   9
   6   6   4 1195.26 69.5859   8
  -6   6  -4 1332.75 89.5369   1
   6   6   5 222.206 39.6263   8
   6   6   5 153.440 21.6410  13
   6   6   5 305.233 44.5091  12
   6   6   5 230.670 46.1890   4
   6   6   5 339.869 53.3712   9
  -6   6  -5 340.775 53.0779   1
  -6   6  -6 599.219 65.2128  14
   6   6   6 594.288 55.4415  12
   6   6   6 565.071 66.8129   4
   6   6   6 643.703 72.0942   9
   6   6   6 546.497 59.1558   8
  -6   6  -6 619.486 69.4149   1
  -6   6  -7 215.044 46.1761  14
   6   6   7 147.435 34.6386  12
   6   6   7 210.014 49.0218   4
   6   6   7 200.249 44.2744   8
  -6   6  -7 195.340 43.8049   1
   6   6   8 645.226 75.7454   9
  -6   6  -8 678.505 76.0584   1
  -6   6  -8 723.555 77.1986  14
  -6   6  -9 362.969 61.9979   1
  -6   6  -9 407.688 64.1105  14
  -6   6 -10 218.478 52.6121   1
   6   7 -10 256.182 52.3535  12
   6   7  -9 269.735 58.3956  14
  -6   7   9 202.434 41.0043  13
   6   7  -9 203.213 48.2747  12
  -6   7   8 338.601 49.8738  13
   6   7  -8 355.358 56.7309  12
   6   7  -8 412.259 66.9514  14
  -6   7   8 360.985 36.6107  10
  -6   7   8 383.876 59.1504   8
   6   7  -8 375.914 65.0834   1
   6   7  -7 1032.70 86.3901  12
  -6   7   7 890.805 78.3351   8
   6   7  -7 893.366 92.4447   1
  -6   7   7 820.561 70.5665  13
   6   7  -6 891.370 82.1840  12
  -6   7   6 805.131 69.5574  13
  -6   7   6 730.603 69.3657   8
   6   7  -6 837.285 84.0687   1
   6   7  -5 1479.66 101.475  12
  -6   7   5 1557.20 92.1852  13
  -6   7   5 1235.10 73.8531  11
   6   7  -5 1308.00 72.5550   9
  -6   7   5 1359.79 88.0290   8
   6   7  -5 1285.58 100.544   1
  -6   7   4 702.477 64.8716  13
   6   7  -4 865.346 76.6581  14
   6   7  -4 805.723 59.4990   9
  -6   7   4 780.413 63.8068   8
   6   7  -4 839.424 78.0927   1
   6   7  -4 837.375 77.8120  12
   6   7  -3 2448.45 126.223  14
  -6   7   3 2458.14 119.301  13
  -6   7   3 2476.72 111.244   8
   6   7  -3 2508.82 109.298   9
   6   7  -3 2462.51 127.190   1
   6   7  -3 2842.64 135.864  12
   6   7  -2 364.068 48.9625   1
  -6   7   2 344.500 30.7719  14
  -6   7   2 430.905 52.3726  13
   6   7  -2 425.876 48.3527   9
  -6   7   2 399.607 47.9522   8
   6   7  -2 469.953 58.5074  12
  -6   7   1 1437.65 90.1859  13
  -6   7   1 1444.64 80.6624   8
   6   7  -1 1337.57 83.9852   9
   6   7  -1 1170.82 80.6971   1
   6   7   0 10.6729 26.3357   9
   6   7   0 67.2005 26.2064   1
   6   7   1 3347.25 130.891  13
   6   7   1 3531.54 154.986  12
   6   7   1 3696.54 163.411   4
   6   7   1 3766.35 155.378   9
   6   7   1 3367.84 136.148   8
  -6   7  -1 3424.27 158.643   1
   6   7   2 3.80201 15.8998   1
   6   7   2 26.0550 28.6374   8
   6   7   2 19.4870 23.6041  13
   6   7   2 58.5494 32.3582  12
   6   7   2 36.6504 28.4844   9
   6   7   2 76.9498 36.2288   4
   6   7   3 1583.51 73.1113  13
   6   7   3 1768.30 99.6679  12
   6   7   3 1768.30 107.871   4
   6   7   3 1725.69 105.278   9
   6   7   3 1732.77 89.7968   8
  -6   7  -4 374.368 56.0326   1
  -6   7  -4 373.280 49.9892  14
   6   7   4 364.467 52.2179  12
   6   7   4 351.510 54.5087   9
   6   7   4 454.266 51.2866   8
   6   7   4 342.701 54.6218   4
   6   7   5 484.455 33.4472  13
  -6   7  -5 578.571 62.9430  14
   6   7   5 695.968 64.3247  12
   6   7   5 745.784 76.5457   4
   6   7   5 774.147 78.1352   9
   6   7   5 685.943 64.4806   8
  -6   7  -5 803.137 77.2855   1
  -6   7  -6 295.888 54.2961   1
   6   7   6 234.241 41.4199  12
  -6   7  -6 270.291 47.1669  14
   6   7   6 179.759 45.0162   4
   6   7   6 294.517 56.3010   9
   6   7   6 160.001 41.1508   8
  -6   7  -7 761.145 76.1990  14
   6   7   7 550.542 72.6218   4
   6   7   7 538.721 62.3784   8
   6   7   7 460.688 53.6041  12
  -6   7  -7 680.745 78.1001   1
   6   7   8 336.001 57.6435   8
  -6   7  -8 336.650 60.5789   1
  -6   7  -8 442.526 64.1653  14
  -6   7  -9 52.2695 40.1657   1
  -6   7  -9 94.9031 43.8897  14
  -6   8   9 228.592 42.9492  13
   6   8  -9 228.230 50.8273  12
  -6   8   8 267.661 54.3535   8
  -6   8   8 368.147 51.3642  13
   6   8  -8 364.023 58.7305  12
   6   8  -8 403.083 70.5529   1
  -6   8   7 338.173 56.9522   8
  -6   8   7 275.578 46.2832  13
   6   8  -7 315.541 57.7709  12
   6   8  -7 320.377 63.3332   1
   6   8  -6 623.918 71.8404  12
   6   8  -6 494.144 69.1159  14
  -6   8   6 545.744 59.1891  13
  -6   8   6 543.630 63.0989   8
   6   8  -6 430.161 66.9760   1
  -6   8   5 394.142 55.5940  13
   6   8  -5 409.192 61.5744  12
   6   8  -5 382.272 58.8674  14
   6   8  -5 416.249 42.7053   9
  -6   8   5 379.212 52.2630   8
   6   8  -5 367.979 58.6113   1
   6   8  -4 852.939 81.8417  12
   6   8  -4 841.945 79.7658  14
  -6   8   4 778.285 71.5681  13
   6   8  -4 965.531 65.7433   9
  -6   8   4 786.327 68.8959   8
   6   8  -4 749.344 79.0510   1
  -6   8   3 416.787 54.6631  13
   6   8  -3 447.466 62.6697  12
   6   8  -3 477.808 60.9049  14
   6   8  -3 505.415 51.7719   9
  -6   8   3 475.349 54.1552   8
   6   8  -3 514.919 61.1267   1
   6   8  -2 1344.46 96.5194  12
  -6   8   2 967.593 47.4290  14
  -6   8   2 1256.82 86.4601  13
  -6   8   2 901.460 47.1176  14
   6   8  -2 1317.01 82.3972   9
  -6   8   2 1209.23 80.1025   8
   6   8  -2 1091.30 83.8802   1
  -6   8   1 123.957 35.0718   8
  -6   8   1 95.7100 35.0552  13
   6   8  -1 146.033 36.1471   9
   6   8  -1 80.1580 29.0017   1
   6   8   0 2301.90 131.119   4
   6   8   0 2539.34 123.706   9
  -6   8   0 2183.93 93.3507  14
   6   8   1 202.475 46.4279   4
  -6   8  -1 203.282 42.5831   1
   6   8   1 180.343 30.5046   1
  -6   8  -1 166.924 31.1427  14
   6   8   1 171.867 42.4750  12
   6   8   1 223.007 43.4099   9
   6   8   1 111.308 37.1206   8
  -6   8  -2 1859.97 95.0115  14
   6   8   2 1810.77 110.666  12
   6   8   2 1911.90 119.391   4
   6   8   2 2226.08 120.881   9
   6   8   2 1790.05 100.465   8
  -6   8  -2 1937.79 118.008   1
   6   8   3 9.96045 36.0595   4
   6   8   3 27.2744 13.3734   1
  -6   8  -3 80.8082 28.8493  14
   6   8   3 46.0765 30.9981  12
   6   8   3 28.5180 21.0982  13
   6   8   3 23.5033 31.6873   9
   6   8   3 27.3068 31.4802   8
   6   8   4 1208.75 89.4768  12
   6   8   4 1243.10 99.6913   4
   6   8   4 1278.19 100.577   9
   6   8   4 1419.46 89.9194   8
   6   8   4 1095.25 60.7687  13
  -6   8  -4 1237.96 86.2307  14
  -6   8  -5 225.784 48.6819   1
  -6   8  -5 145.761 38.8435  14
   6   8   5 163.537 39.5967  12
   6   8   5 162.788 47.5606   4
   6   8   5 178.068 48.4349   9
   6   8   5 110.799 37.3656   8
  -6   8  -6 867.104 79.8610  14
   6   8   6 700.116 68.2294  12
   6   8   6 803.420 85.1480   9
   6   8   6 729.001 70.5369   8
  -6   8  -6 825.020 85.1482   1
   6   8   6 748.919 81.1211   4
  -6   8  -7 153.490 46.1037  14
   6   8   7 103.451 41.3270   8
  -6   8  -7 179.452 48.9217   1
   6   8   7 192.638 52.0049   4
  -6   8  -8 335.522 60.9333   1
  -6   8  -8 207.819 51.1214  14
   6   8   8 218.932 51.6601   8
  -6   8  -9 363.906 64.6472  14
  -6   9   8 335.154 60.2902   8
  -6   9   8 400.980 52.0792  13
   6   9  -8 343.245 61.9884  12
   6   9  -7 528.055 73.6255   1
   6   9  -7 664.203 77.5615  12
   6   9  -7 681.112 83.5504  14
  -6   9   7 566.117 62.1520  13
  -6   9   7 538.813 68.6306   8
   6   9  -6 339.646 60.8460   1
  -6   9   6 347.542 51.8046  13
   6   9  -6 404.238 64.7514  12
   6   9  -6 405.817 65.4186  14
  -6   9   6 336.855 53.4228   8
   6   9  -5 705.451 78.4983   1
   6   9  -5 950.395 88.7392  12
  -6   9   5 804.546 75.9286   8
   6   9  -5 831.753 84.9696  14
  -6   9   5 964.939 79.9303  13
  -6   9   4 119.588 38.8809  13
   6   9  -4 146.750 46.7761  12
   6   9  -4 142.913 40.3095   1
   6   9  -4 184.808 47.8308  14
  -6   9   4 172.777 43.4054   8
   6   9  -3 1075.72 93.9388  12
   6   9  -3 905.281 81.4150   1
   6   9  -3 1020.24 74.4548   9
  -6   9   3 1027.19 80.1231   8
   6   9  -3 1020.32 87.3892  14
  -6   9   3 968.146 82.7491  13
  -6   9   2 89.6263 15.1385  14
  -6   9   2 167.702 42.7638  13
   6   9  -2 96.9467 40.5485  12
   6   9  -2 128.700 37.6795   1
   6   9  -2 167.180 37.6782   9
  -6   9   2 154.043 42.5259   8
   6   9  -1 860.422 72.8670   9
   6   9  -1 675.807 63.1633   1
  -6   9   1 830.926 72.4894   8
  -6   9   1 704.556 73.7934  13
  -6   9   0-8.26495 18.7900  14
   6   9   0 3.01618 20.8428   1
   6   9   0-16.4730 29.1429   9
   6   9   0-61.9231 47.5777   4
   6   9   1 435.345 66.8509   4
   6   9   1 430.950 60.3281  12
  -6   9  -1 405.113 44.0706  14
  -6   9  -1 464.964 62.6662   1
   6   9   1 274.605 39.0539   1
   6   9   1 507.966 62.8689   9
   6   9   1 453.925 57.9880   8
   6   9   2 5.23470 38.3118   4
  -6   9  -2 52.0988 33.2601   1
   6   9   2-5.30122 16.7326   1
  -6   9  -2 14.9717 24.1801  14
   6   9   2-33.1706 36.5177  12
   6   9   2 4.71079 32.1504   9
   6   9   2 7.54065 32.5485   8
  -6   9  -3 808.421 66.6731  14
   6   9   3 674.455 74.3211  12
   6   9   3 722.497 80.7242   4
   6   9   3 829.781 82.4231   9
   6   9   3 651.819 68.5911   8
  -6   9  -3 709.299 79.0973   1
   6   9   4 5.40483 35.9531   4
  -6   9  -4-15.3560 26.8476  14
   6   9   4 4.46891 30.1160  12
   6   9   4 68.7215 40.3364   9
   6   9   4-11.7987 33.6856   8
   6   9   5 694.885 73.4773  12
   6   9   5 754.371 84.6419   4
   6   9   5 765.633 75.4335   8
  -6   9  -5 788.825 74.8271  14
   6   9   6 256.291 56.5597   4
  -6   9  -6 184.234 50.7554   1
  -6   9  -6 208.817 47.7794  14
   6   9   6 215.859 49.6673   8
  -6   9  -7 786.985 88.6092   1
   6   9   7 626.068 81.0968   4
   6   9   7 691.263 76.2609   8
  -6   9  -7 714.160 79.8578  14
   6   9   8 60.6434 44.4883   8
  -6   9  -8 75.5786 40.8116  14
  -6  10   7 191.650 44.2237  13
  -6  10   7 130.887 48.5418   8
   6  10  -6 264.467 56.7362   1
   6  10  -6 256.896 58.1495  14
  -6  10   6 328.393 52.0692  13
   6  10  -6 359.056 64.8249  12
  -6  10   6 179.269 49.5045   8
   6  10  -5 180.489 48.8487   1
   6  10  -5 259.779 55.9414  14
  -6  10   5 154.095 44.8215  13
   6  10  -5 205.292 54.5083  12
  -6  10   5 117.286 44.9118   8
   6  10  -4 292.451 55.5810   1
   6  10  -4 368.525 61.9424  14
   6  10  -4 356.708 63.4551  12
  -6  10   4 331.861 55.5889  13
  -6  10   4 405.261 58.0430   8
   6  10  -3 96.2686 35.7249   1
   6  10  -3 83.5693 38.2043  14
   6  10  -3 56.1590 41.5914  12
  -6  10   3 99.6596 39.7227  13
  -6  10   3 66.1978 37.6697   8
  -6  10   2 616.637 69.4113   8
  -6  10   2 607.792 73.1283  13
   6  10  -2 644.787 66.0253   1
  -6  10   1 64.3606 38.4298  13
   6  10  -1 46.9301 28.6310   1
   6  10  -1-22.0767 52.2639   4
  -6  10   1-24.2803 46.4227   8
   6  10   0 957.087 95.6559   4
   6  10   0 877.646 68.9451   1
  -6  10   0 999.283 59.3004  14
   6  10   1 147.966 44.9371  12
  -6  10  -1 71.5035 27.0618  14
  -6  10  -1 64.2766 35.6754   1
   6  10   1 65.5519 23.9350   1
   6  10   1 66.5930 44.7233   8
   6  10   1 66.1793 48.7452   4
   6  10   2 651.872 75.1645  12
  -6  10  -2 652.179 59.5151  14
  -6  10  -2 669.971 77.0613   1
   6  10   2 599.646 70.2562   8
   6  10   2 565.937 76.2805   4
   6  10   3-15.1144 33.9521  12
  -6  10  -3-3.42232 29.7743  14
  -6  10  -3 51.3837 39.4492   1
   6  10   3-16.9743 35.7653   8
   6  10   3-22.4425 36.3268   4
  -6  10  -4 702.434 68.4956  14
   6  10   4 670.515 74.6911  12
   6  10   4 511.689 75.5576   4
   6  10   4 652.405 71.7079   8
  -6  10  -4 808.376 87.1168   1
  -6  10  -5 106.989 38.1121  14
   6  10   5 31.0909 42.3571   8
   6  10   5 46.4160 39.1294   4
  -6  10  -6 501.626 64.5763  14
   6  10   6 420.778 63.9975   8
   6  10   6 337.900 64.7533   4
   6  10   7 204.380 56.9413   8
  -6  10  -7 274.198 55.6359  14
  -6  11   6 304.600 51.5069  13
   6  11  -5 394.740 66.1726   1
   6  11  -5 361.089 65.3111  14
  -6  11   5 491.930 63.2988  13
  -6  11   5 383.529 63.9914   8
   6  11  -4 205.464 48.6865   1
   6  11  -4 322.386 58.8458  14
  -6  11   4 265.594 56.4380   8
  -6  11   4 228.327 50.4961  13
  -6  11   3 442.409 63.7518   8
   6  11  -3 383.365 60.0986   1
   6  11  -3 535.766 76.8511  12
  -6  11   3 560.539 70.9525  13
   6  11  -2 66.9550 32.2977   1
   6  11  -2 89.4158 46.8637  12
  -6  11   2 94.5101 41.4651  13
  -6  11   2 44.7792 43.2566   8
   6  11  -2 88.0112 53.3801   4
   6  11  -1 589.548 60.6941   1
  -6  11   1 668.767 75.2915   8
  -6  11   1 765.558 80.8829  13
   6  11  -1 540.737 81.5237   4
   6  11   0 69.7630 43.4637  12
  -6  11   0 8.86385 42.5078   8
   6  11   0-18.2519 49.9722   8
   6  11   0-57.9925 59.3684   4
   6  11   1 789.005 92.7935   4
  -6  11  -1 1040.83 95.9100   1
   6  11   1 1016.00 91.1989   8
   6  11   1 1044.81 98.2178  12
  -6  11  -2 39.7629 27.9236  14
   6  11   2 16.7647 40.4532  12
  -6  11  -2 17.4990 33.8975   1
   6  11   2-18.3940 47.5969   8
   6  11   2-29.0999 51.4076   4
   6  11   3 731.433 81.9307  12
  -6  11  -3 728.906 85.4911   1
   6  11   3 824.103 83.5670   8
   6  11   3 678.950 86.6863   4
  -6  11  -3 662.262 64.7245  14
  -6  11  -4 121.816 38.7876  14
   6  11   4 79.6469 45.5302   8
   6  11   4 11.8292 39.8914   4
   6  11   5 655.205 78.3689   8
  -6  11  -5 813.708 77.4449  14
  -6  11  -6 102.198 43.4809  14
   6  12  -4 581.510 72.2469   1
   6  12  -3 14.0086 35.6320   1
  -6  12   2 863.714 87.8577   8
  -6  12   1-62.6436 56.5053   8
  -6  12   0 796.786 85.2594   8
   6  12   0 646.152 80.9620   8
   6  12   1-19.7983 52.8761   8
  -7 -11   2-5.41138 40.4598  10
   7 -11  -2 35.9240 30.6509  11
  -7 -11   1 470.841 67.0369  10
   7 -11  -1 491.762 64.5531  11
  -7 -11   0 115.096 42.4819  10
   7 -11   0 156.040 43.5734  11
  -7 -11  -1 490.132 63.5609  10
   7 -11   1 473.897 67.2587  11
   7 -11   3 258.526 47.5188   9
  -7 -10   7 15.1301 38.8675   2
  -7 -10   6 718.498 80.2337   2
  -7 -10   5-49.3410 44.2869   2
  -7 -10   4 475.012 70.2403   2
  -7 -10   4 626.051 78.9942  10
  -7 -10   3-11.5683 35.3086   2
  -7 -10   3 38.0085 39.3055  10
  -7 -10   2 318.537 59.8073   2
  -7 -10   2 510.357 67.8998  10
  -7 -10   1 131.792 47.5763   2
  -7 -10   1 107.268 42.8254  10
   7 -10  -1 99.8357 35.7472  11
  -7 -10   0 526.977 65.1080  10
   7 -10   0 439.466 59.6551  11
  -7 -10  -1 251.539 57.5517   2
  -7 -10  -1 264.510 50.8873  10
   7 -10   1 144.959 43.4402  11
  -7 -10  -2 656.603 67.8376  10
  -7 -10  -2 698.711 84.8553   2
   7 -10   2 858.898 84.7244  11
   7 -10   3 164.879 41.5110   9
   7 -10   3 194.688 47.2387  11
  -7 -10  -3 173.965 51.2343   2
   7 -10   4 415.287 52.2121   9
  -7 -10  -4 429.598 70.0084   2
   7 -10   4 541.994 70.6264  11
   7 -10   5 396.903 70.3058   3
  -7 -10  -5 354.139 66.9708   2
   7 -10   6 121.926 48.8875   7
  -7  -9   8 18.5137 41.7909   7
  -7  -9   8 26.2708 34.7245   2
  -7  -9   7 555.341 77.4174   6
  -7  -9   7 514.605 66.2550   2
  -7  -9   7 650.590 74.6472   7
  -7  -9   6-29.3867 43.0174  10
  -7  -9   6 10.7917 41.1748   6
  -7  -9   6-19.6362 39.9965   2
  -7  -9   6-25.5807 34.7372   7
  -7  -9   5 795.522 84.7415  10
  -7  -9   5 643.416 73.8145   2
  -7  -9   4 53.9829 39.5098  10
  -7  -9   4-15.7749 32.0991   2
  -7  -9   3 1197.45 98.7204  10
  -7  -9   3 986.307 93.3987   2
  -7  -9   2 21.9976 33.5972   2
  -7  -9   2 112.360 42.8481  10
  -7  -9   1 832.434 87.0796   2
  -7  -9   1 951.832 85.1237  10
   7  -9  -1 901.944 78.4950  11
  -7  -9   0 82.6872 37.5968  10
   7  -9   0 44.9859 30.3496  11
  -7  -9  -1 366.037 53.6049  10
   7  -9   1 395.211 57.6923  11
  -7  -9  -1 366.252 61.1682   2
  -7  -9  -2 142.950 39.1807  10
   7  -9   2 176.566 43.8616  11
  -7  -9  -2 271.353 54.8436   2
  -7  -9  -3 470.597 55.7266  10
   7  -9   3 565.507 69.2057  11
   7  -9   3 532.080 58.5742   9
  -7  -9  -3 651.697 79.2220   2
   7  -9   4 390.706 59.4153  11
   7  -9   4 283.366 44.5489   9
  -7  -9  -4 298.315 59.6899   2
   7  -9   5 349.299 49.2206   6
   7  -9   5 338.014 58.5491  11
   7  -9   5 362.981 47.3631   9
   7  -9   5 388.439 68.6034   3
  -7  -9  -5 322.431 63.1876   2
   7  -9   6 345.035 56.0283   7
   7  -9   6 409.319 54.0374   6
   7  -9   6 337.006 69.2506   3
  -7  -9  -6 327.808 64.0615   2
   7  -9   7 292.488 51.4169   6
   7  -9   7 260.253 57.0055   7
  -7  -9  -7 290.217 59.4713   2
   7  -9   8 334.375 56.7590   6
   7  -9   8 435.386 65.2241   7
  -7  -8   9 150.617 51.0735   7
  -7  -8   8 286.556 60.2012   6
  -7  -8   8 352.477 52.7245   2
  -7  -8   8 260.926 55.5998   7
  -7  -8   7 40.4600 39.9472  10
  -7  -8   7 117.496 46.4585   6
  -7  -8   7-8.56120 36.3822   2
  -7  -8   7 49.7845 39.5484   7
  -7  -8   6 877.038 87.3681   6
  -7  -8   6 750.458 75.8310   7
  -7  -8   6 746.122 73.8040   2
  -7  -8   6 929.163 91.3335  10
  -7  -8   5 69.3274 39.8838  10
  -7  -8   5 28.2198 31.7130   2
  -7  -8   4 796.089 80.0677   2
  -7  -8   4 887.534 84.9622  10
  -7  -8   3 33.9792 37.0484  10
  -7  -8   3 34.8287 34.3889   2
  -7  -8   2 1196.25 97.8741   2
  -7  -8   2 1364.31 100.058  10
  -7  -8   1 149.215 43.1544   2
  -7  -8   1 134.863 40.2669  10
   7  -8  -1 160.241 38.3433  11
  -7  -8   0 1970.24 114.907  10
   7  -8   0 2005.73 115.043  11
  -7  -8  -1 364.963 51.2014  10
   7  -8   1 308.566 49.1331  11
  -7  -8  -1 369.658 58.6354   2
   7  -8   1 306.518 32.4531   6
   7  -8   2 1466.32 100.964  11
  -7  -8  -2 1265.05 85.9732  10
   7  -8   2 1277.94 68.6950   6
  -7  -8  -2 1244.46 103.602   2
   7  -8   3 318.034 40.3471   6
  -7  -8  -3 414.728 50.1129  10
   7  -8   3 329.977 54.8265  11
   7  -8   3 433.441 53.3544   9
  -7  -8  -3 362.044 60.3875   2
   7  -8   4 738.399 75.2158  11
  -7  -8  -4 706.970 60.0593  10
   7  -8   4 740.146 60.0813   6
   7  -8   4 706.643 63.3796   9
  -7  -8  -4 588.885 74.4540   2
  -7  -8  -5 499.085 70.0367   2
   7  -8   5 435.741 61.5076  11
   7  -8   5 532.902 52.9048   9
   7  -8   5 524.678 74.1498   3
   7  -8   5 494.697 53.2482   6
  -7  -8  -6 296.694 56.3786   2
   7  -8   6 274.980 45.4052   6
   7  -8   6 302.419 53.2273   7
   7  -8   6 298.644 40.0660   9
   7  -8   6 318.676 61.8135   3
   7  -8   7 585.506 71.9554   7
   7  -8   7 588.564 63.3243   6
  -7  -8  -7 558.590 72.9543   2
   7  -8   7 587.168 80.3481   3
   7  -8   7 553.038 70.8195  11
   7  -8   8 116.204 44.7486  11
  -7  -8  -8 70.5208 42.2799   2
   7  -8   8 93.4151 43.5334   7
   7  -8   8 123.515 44.1487   6
  -7  -8  -9 281.235 57.9242   2
   7  -8   9 294.606 59.0025   7
   7  -8   9 257.845 53.2285   6
  -7  -7  10 59.1126 42.2336   7
  -7  -7   9 227.898 55.5852  10
  -7  -7   9 225.589 51.5801   6
  -7  -7   9 211.537 51.5164   7
  -7  -7   8-11.3163 38.6184  10
  -7  -7   8 9.63169 35.2490   6
  -7  -7   8 32.4925 40.4102   7
  -7  -7   8 32.3755 27.4522   2
  -7  -7   7 404.041 63.2274   6
  -7  -7   7 466.752 56.0958   2
  -7  -7   7 481.152 63.6871   7
  -7  -7   6-5.25189 36.7285  10
  -7  -7   6 18.2147 33.6879   6
  -7  -7   6 4.11232 26.9930   2
  -7  -7   6-7.17660 31.4575   7
  -7  -7   5 1276.59 95.7855   2
  -7  -7   5 1515.73 108.996  10
  -7  -7   4 53.2768 32.1634   2
  -7  -7   4 52.5877 36.8634  10
  -7  -7   3 2338.40 132.075   2
  -7  -7   3 2512.94 135.661  10
  -7  -7   2 9.24360 28.2152   2
  -7  -7   2 21.5655 30.8750  10
  -7  -7   1 1696.59 104.660  10
  -7  -7   1 1393.61 101.799   2
   7  -7   0 287.481 24.2883   6
   7  -7   0 326.233 47.2632  11
  -7  -7  -1 1972.37 106.329  10
   7  -7   1 1794.98 72.9145   6
  -7  -7  -1 1944.39 120.771   2
   7  -7   1 1868.95 109.276  11
   7  -7   2 442.399 55.8198  11
   7  -7   2 453.852 39.2666   6
  -7  -7  -2 503.461 54.7861  10
   7  -7   2 504.238 55.0992   9
  -7  -7  -2 515.056 65.5718   2
   7  -7   3 505.068 61.0400  11
   7  -7   3 544.147 46.7790   6
   7  -7   3 455.022 52.0987   9
  -7  -7  -3 467.209 63.4245   2
  -7  -7  -3 513.621 54.0258  10
   7  -7   4 342.242 40.9286   6
   7  -7   4 255.205 41.8908   9
  -7  -7  -4 274.885 51.9730   2
   7  -7   4 250.588 47.4609  11
  -7  -7  -4 280.736 41.2190  10
   7  -7   5 552.984 53.8164   6
   7  -7   5 508.620 58.6347   7
   7  -7   5 571.927 54.2381   9
  -7  -7  -5 436.877 62.9724   2
  -7  -7  -5 487.262 48.3094  10
   7  -7   6 376.863 50.1870   6
   7  -7   6 320.389 53.7287   7
   7  -7   6 350.937 43.1836   9
  -7  -7  -6 434.252 62.9751   2
   7  -7   7 35.2574 35.4011   7
   7  -7   7 79.4158 34.4192   6
   7  -7   7 86.7581 36.9739  11
   7  -7   7 82.5903 28.6232   9
  -7  -7  -7 31.0227 32.0872   2
   7  -7   8 782.775 80.7800  11
   7  -7   8 749.310 72.3441   6
   7  -7   8 712.415 76.6038   7
  -7  -7  -8 703.722 79.3805   2
   7  -7   9 259.775 51.5702  11
   7  -7   9 362.177 56.9148   6
   7  -7   9 198.824 51.0872   7
  -7  -7  -9 272.713 56.2106   2
   7  -7  10 18.6277 44.0990   7
  -7  -6  11 56.4078 35.5329  11
  -7  -6  10 537.551 73.9510  10
  -7  -6  10 479.457 64.8039   6
  -7  -6  10 465.100 64.6951   7
  -7  -6   9 297.755 59.2155  10
  -7  -6   9 208.111 49.1962   6
  -7  -6   9 272.276 52.4250   7
  -7  -6   8 565.694 72.4120  10
  -7  -6   8 394.208 48.5844   2
  -7  -6   8 587.118 67.5451   6
  -7  -6   8 507.494 63.7274   7
  -7  -6   7 55.7465 31.9263   2
  -7  -6   7 64.0537 37.1715   6
  -7  -6   7 38.4708 31.3733   7
  -7  -6   6 1130.61 89.0103   6
  -7  -6   6 1112.28 81.8597   7
  -7  -6   6 1081.72 81.0693   2
  -7  -6   5 119.634 33.4994   7
  -7  -6   5 182.944 40.1641   2
   7  -6  -5 95.7207 15.4759   4
  -7  -6   5 206.433 46.4835  10
   7  -6  -4 1671.05 87.6494   7
  -7  -6   4 1734.23 105.823   2
  -7  -6   4 1821.24 112.183  10
  -7  -6   3-16.4665 30.4572   2
  -7  -6   3-16.9395 29.9692  10
  -7  -6   2 1895.56 112.189   2
  -7  -6   2 2065.37 114.484  10
  -7  -6   1 232.432 43.3617  10
  -7  -6   1 155.454 38.6910   2
   7  -6   0 2137.32 67.4869   6
  -7  -6   0 2409.17 117.294  10
  -7  -6  -1 611.858 60.8063  10
   7  -6   1 648.972 37.8683   6
  -7  -6  -1 569.983 65.6296   2
   7  -6   1 640.651 62.2592  11
   7  -6   2 1993.78 113.431  11
   7  -6   2 2075.49 82.4001   6
  -7  -6  -2 2105.58 106.052  10
   7  -6   2 2089.04 106.291   9
  -7  -6  -2 1967.45 119.015   2
   7  -6   3 871.756 75.8312  11
   7  -6   3 823.619 54.0218   6
  -7  -6  -3 923.484 67.7671  10
   7  -6   3 1002.88 70.3097   9
  -7  -6  -3 805.850 78.2775   2
   7  -6   4 697.544 68.7557  11
  -7  -6  -4 691.738 57.6378  10
   7  -6   4 609.638 51.0745   6
   7  -6   4 694.673 59.9141   9
  -7  -6  -4 605.953 68.0486   2
  -7  -6  -5 461.051 62.9046   2
  -7  -6  -5 562.765 50.2818  10
   7  -6   5 550.940 52.5237   6
   7  -6   5 534.895 57.2117   7
   7  -6   5 579.012 53.7624   9
   7  -6   5 565.907 70.8521   3
  -7  -6  -6 364.384 57.8764   2
   7  -6   6 252.466 45.0576   7
   7  -6   6 356.777 47.1388   6
   7  -6   6 311.334 52.8389  11
  -7  -6  -6 297.166 37.7257  10
   7  -6   6 259.612 38.5485   9
   7  -6   6 311.620 57.3285   3
   7  -6   7 524.253 62.2053   7
   7  -6   7 583.101 60.5674   6
   7  -6   7 550.022 66.2171  11
   7  -6   7 616.145 53.1765   9
  -7  -6  -7 469.254 64.8869   2
   7  -6   8 48.7094 35.8926   6
   7  -6   8 54.3063 36.2894   7
   7  -6   8 67.9092 25.5576   9
   7  -6   8 88.2203 35.9097  11
  -7  -6  -8 97.7080 38.7763   2
  -7  -6  -9 323.133 56.5638   2
   7  -6   9 349.903 60.9480   7
   7  -6   9 289.116 52.0278   6
  -7  -6 -10 18.7764 33.6011   2
   7  -6  10 22.2697 41.6242   7
   7  -6  10-4.82137 34.5121   6
  -7  -5  11 222.579 49.4108   6
  -7  -5  11 276.134 57.0282   7
  -7  -5  11 343.267 64.7304  10
  -7  -5  10 72.8419 39.5290   6
  -7  -5  10 53.3225 40.7101  10
  -7  -5  10 45.7801 38.3957   7
  -7  -5   9 880.966 88.4503  10
  -7  -5   9 1089.92 85.7170   6
  -7  -5   9 1031.71 82.7995   7
  -7  -5   8 90.2188 39.7679  10
  -7  -5   8 56.2553 33.7493   7
  -7  -5   8 19.4085 23.5972   2
   7  -5  -8 78.4984 32.8784   5
  -7  -5   8 91.1146 37.5359   6
  -7  -5   7 1080.68 91.6445  10
   7  -5  -7 1002.11 63.7702   4
  -7  -5   7 1041.60 74.1268   2
  -7  -5   7 1313.16 91.4851   6
  -7  -5   7 1190.89 82.7298   7
  -7  -5   6-2.90671 28.7477   7
  -7  -5   6-3.32530 23.2551   2
  -7  -5   6 14.6688 27.9822   6
  -7  -5   5 1534.94 99.7260  10
   7  -5  -5 1267.10 75.7556   7
  -7  -5   5 1545.38 80.1924   7
  -7  -5   5 1383.88 86.4736   2
  -7  -5   4 33.3621 30.1918  10
   7  -5  -4 26.4922 22.2147   7
  -7  -5   4 49.9255 26.5418   7
   7  -5  -4 9.98854 11.1195   4
  -7  -5   4 36.1461 27.3080   2
  -7  -5   3 3045.92 141.874  10
  -7  -5   3 2817.39 133.859   2
  -7  -5   2 169.000 37.7542  10
  -7  -5   2 134.523 35.1323   2
  -7  -5   1 981.220 76.8427   2
  -7  -5   1 1049.03 76.4552  10
  -7  -5   0 84.3001 30.2927  10
   7  -5   1 1021.20 45.3251   6
   7  -5   1 1001.39 72.3163   9
  -7  -5  -1 1017.03 79.9257   2
  -7  -5  -1 1012.00 72.1498  10
   7  -5   2 466.310 36.0597   6
  -7  -5  -2 452.914 48.8318  10
   7  -5   2 605.663 56.2257   9
  -7  -5  -2 450.503 57.1651   2
   7  -5   3 1482.31 93.5120  11
   7  -5   3 1473.07 70.6902   6
  -7  -5  -3 1540.64 84.6848  10
   7  -5   3 1534.99 86.5460   9
  -7  -5  -3 1351.30 96.3209   2
   7  -5   4 711.828 67.9689  11
  -7  -5  -4 763.837 56.2221   7
   7  -5   4 819.125 56.7467   6
   7  -5   4 828.858 59.6100   7
   7  -5   4 825.997 63.5970   9
  -7  -5  -4 803.332 75.6085   2
  -7  -5  -4 888.376 62.6970  10
  -7  -5  -5 665.265 53.8594   7
   7  -5   5 611.757 54.4544   6
   7  -5   5 646.906 57.7861   7
  -7  -5  -5 707.428 55.6970  10
   7  -5   5 739.648 59.4892   9
  -7  -5  -5 686.885 70.1447   2
   7  -5   5 678.376 72.5414   3
   7  -5   6 729.209 69.7154  11
   7  -5   6 600.648 57.4758   6
   7  -5   6 617.600 59.0425   7
  -7  -5  -6 618.467 49.9620  10
   7  -5   6 672.061 57.9592   9
   7  -5   6 642.465 74.4953   3
  -7  -5  -6 605.167 66.8236   2
   7  -5   7 490.947 56.3982   7
   7  -5   7 539.041 57.5674   6
  -7  -5  -7 360.510 38.2048  10
   7  -5   7 483.898 48.9553   9
   7  -5   7 461.256 67.7319   3
  -7  -5  -7 375.208 56.4094   2
   7  -5   8 831.125 73.9327   6
   7  -5   8 710.265 68.6876   7
   7  -5   8 764.369 58.7092   9
  -7  -5  -8 746.149 74.5356   2
   7  -5   8 739.247 84.4251   3
   7  -5   9 31.4500 37.2519   7
   7  -5   9 87.6065 37.8407   6
   7  -5   9 63.8440 24.8898   9
   7  -5   9 70.3980 43.4229   3
  -7  -5  -9 41.4240 35.1484   2
  -7  -5 -10 658.931 73.1987   2
   7  -5  10 858.582 94.5371   3
   7  -5  10 792.676 81.1977   6
   7  -5  10 891.228 82.5317   7
   7  -5  11 59.2497 42.0449   7
  -7  -4  12 267.473 53.2209   6
  -7  -4  11 157.810 50.5943  10
  -7  -4  11 262.705 50.1669   6
  -7  -4  11 205.596 52.5308   7
  -7  -4  10 775.754 73.0772   6
  -7  -4  10 833.544 85.3101  10
  -7  -4   9 373.951 58.9278  10
  -7  -4   9 202.138 29.9339   2
  -7  -4   9 371.937 53.4543   7
  -7  -4   9 286.233 49.0386   6
   7  -4  -9 247.098 39.6568   5
   7  -4  -8 1137.95 77.7527   5
  -7  -4   8 1118.19 92.3459  10
  -7  -4   8 1246.16 83.0400   7
  -7  -4   8 1265.21 86.4117   6
  -7  -4   7 76.2212 37.1911  10
  -7  -4   7 58.7616 33.8820   7
   7  -4  -7 64.7644 30.7159   5
  -7  -4   7 77.6875 33.2376   6
  -7  -4   7 43.3929 23.0886   2
  -7  -4   6 1881.88 98.9655   2
  -7  -4   6 2327.03 111.162   6
   7  -4  -6 2004.43 98.1303   7
  -7  -4   6 2345.99 103.044   7
   7  -4  -5 46.6766 24.2281   7
  -7  -4   5 52.8297 26.5006   7
  -7  -4   5 77.9174 27.7683   2
  -7  -4   4 1728.60 103.387  10
   7  -4  -4 1611.18 76.4645   7
  -7  -4   4 1910.65 81.3785   7
  -7  -4   4 1721.86 94.1433   2
   7  -4  -3 82.2261 24.2065   7
  -7  -4   3 66.9231 23.7231   7
  -7  -4   3 92.2337 33.3535  10
  -7  -4   3 50.9283 28.6670   2
  -7  -4   2 2519.64 119.158  10
  -7  -4   2 2103.93 111.028   2
  -7  -4   1 378.084 43.4036   9
  -7  -4   1 345.131 45.2143  10
  -7  -4   1 319.114 46.0578   2
  -7  -4   0 1437.53 84.9550  10
   7  -4   1 1027.48 70.2095   9
  -7  -4  -1 961.540 75.9040   2
  -7  -4  -1 952.027 68.7318  10
   7  -4   2 2784.84 98.0190   6
   7  -4   2 3013.06 126.908   9
  -7  -4  -2 2743.40 134.880   2
  -7  -4  -2 2932.26 123.290  10
   7  -4   3 424.706 48.1080   9
   7  -4   3 363.409 36.0689   6
   7  -4   3 493.780 39.3725   7
  -7  -4  -3 362.376 43.3189  10
   7  -4   4 949.382 59.7390   6
  -7  -4  -4 928.799 55.9999   7
   7  -4   4 955.892 58.7288   7
   7  -4   4 918.505 77.3779   3
   7  -4   4 942.875 65.7680   9
   7  -4   5 1045.35 67.7592   6
  -7  -4  -5 955.496 61.7062   7
   7  -4   5 1077.11 66.2534   7
   7  -4   5 1135.82 72.4020   9
  -7  -4  -5 983.954 80.6167   2
   7  -4   5 1217.46 91.0739   3
  -7  -4  -6 133.393 33.2920   7
   7  -4   6 166.279 36.1663   7
   7  -4   6 231.770 38.2596   6
   7  -4   6 172.307 35.9311   9
   7  -4   6 206.516 45.2183   3
  -7  -4  -6 186.089 41.4636   2
   7  -4   7 641.428 62.0481   6
   7  -4   7 521.554 55.6941   7
   7  -4   7 565.903 54.4242   9
  -7  -4  -7 615.539 68.0915   2
   7  -4   7 695.690 75.7900   3
   7  -4   8 262.943 45.8119   7
   7  -4   8 235.403 44.7891   6
   7  -4   8 216.384 36.2249   9
   7  -4   8 283.433 56.5517   3
  -7  -4  -8 261.865 48.2523   2
   7  -4   9 598.782 66.5573   6
   7  -4   9 615.475 64.5621   7
  -7  -4  -9 505.057 63.7284   2
   7  -4   9 580.192 52.7686   9
   7  -4   9 702.733 82.1191   3
   7  -4  10 7.48214 25.5325   5
  -7  -4 -10-8.70916 30.0888   2
   7  -4  10 4.06676 34.8325   7
   7  -4  10-18.9774 33.5719   6
   7  -4  10-17.8680 44.5287   3
   7  -4  11 512.646 68.3918   7
   7  -4  11 554.116 72.8791   6
  -7  -3  12 282.461 56.3051  10
  -7  -3  12 303.771 57.0480   7
  -7  -3  12 282.368 49.8332   6
  -7  -3  11 417.733 63.3858  10
  -7  -3  11 325.152 52.4340   6
  -7  -3  11 414.526 60.3611   7
  -7  -3  10 256.749 52.8081  10
  -7  -3  10 167.369 49.1455   7
  -7  -3  10 188.147 40.4596   6
  -7  -3   9 389.361 56.7606  10
  -7  -3   9 196.635 25.6768   2
  -7  -3   9 393.631 53.4007   7
  -7  -3   9 379.648 49.8802   6
   7  -3  -9 369.970 45.2918   5
  -7  -3   8 218.701 48.0617  10
  -7  -3   8 100.679 24.1349   2
  -7  -3   8 222.690 40.7906   7
  -7  -3   8 175.023 36.8437   6
   7  -3  -8 225.656 38.6961   5
   7  -3  -7 1379.58 82.6345   5
  -7  -3   7 1348.99 93.7146  10
  -7  -3   7 1370.24 80.0014   7
  -7  -3   7 1437.07 81.9976   6
  -7  -3   6 88.0627 34.9131  10
  -7  -3   6 108.601 28.1339   7
   7  -3  -6 86.7938 27.6193   7
   7  -3  -6 147.505 34.1601   5
  -7  -3   6 114.239 31.2008   6
  -7  -3   6 90.9796 26.5789   2
  -7  -3   5 2600.17 113.393   6
  -7  -3   5 2797.27 105.686   7
   7  -3  -5 2609.25 101.908   7
  -7  -3   5 2542.14 113.362   2
   7  -3  -4 553.760 40.4518   7
  -7  -3   4 570.070 41.8586   7
  -7  -3   4 468.606 48.4428   2
   7  -3  -3 3664.20 117.630   7
  -7  -3   3 3839.49 120.228   7
  -7  -3   3 3645.21 147.663   2
  -7  -3   3 3772.59 154.761  10
  -7  -3   2 133.599 34.5416  10
  -7  -3   2 93.2291 27.8637   2
   7  -3  -2 111.785 18.3867   7
  -7  -3   2 91.0741 19.4581   7
  -7  -3   1 3060.40 130.067  10
  -7  -3   1 2960.79 119.969   9
   7  -3  -1 2861.61 88.4577   4
   7  -3   0 2243.08 107.567   1
  -7  -3   0 2270.44 101.005   9
  -7  -3   0 2218.64 102.759  14
   7  -3   0 2017.47 67.3694   4
  -7  -3   0 2056.00 99.0392   5
   7  -3   1 2501.52 113.397   9
  -7  -3  -1 2346.38 108.478  14
  -7  -3  -2 394.556 29.0988   7
   7  -3   2 410.491 30.4972   7
   7  -3   2 382.370 45.3335   9
  -7  -3  -3 330.615 29.2639   7
   7  -3   3 323.194 31.1949   7
   7  -3   3 376.646 45.7268   9
   7  -3   4 1329.84 64.0464   7
   7  -3   4 1388.70 89.9983   3
   7  -3   4 1217.12 76.4221   9
   7  -3   5 1008.25 67.3359   6
   7  -3   5 1081.16 62.3620   7
  -7  -3  -5 965.719 58.7919   7
   7  -3   5 1100.71 85.4907   3
   7  -3   5 1107.12 71.4214   9
   7  -3   6 671.827 59.2547   6
   7  -3   6 741.883 56.4204   7
  -7  -3  -6 777.150 55.0870   7
   7  -3   6 803.864 77.7261   3
   7  -3   6 784.442 62.2118   9
   7  -3   7 170.704 38.2091   6
   7  -3   7 151.191 33.7816   7
   7  -3   7 211.599 35.2906   9
   7  -3   7 191.512 46.9811   3
   7  -3   8 706.187 69.0107   6
   7  -3   8 887.510 69.9980   7
   7  -3   8 782.842 61.1442   5
   7  -3   8 814.116 64.0819   9
   7  -3   8 692.644 78.5676   3
   7  -3   9 469.883 56.7770   7
   7  -3   9 423.329 58.8779   6
  -7  -3  -9 430.674 56.6666   2
   7  -3   9 415.070 45.1446   5
   7  -3   9 391.799 47.8802   9
   7  -3   9 366.334 62.3956   3
   7  -3  10 389.244 57.0539   7
  -7  -3 -10 347.089 54.0076   2
   7  -3  10 390.409 46.4706   9
   7  -3  10 350.044 40.0951   5
   7  -3  10 422.161 68.3723   3
   7  -3  11 48.9054 43.7596   3
   7  -3  11-4.23602 43.6074   7
   7  -3  12 474.489 67.0187   7
  -7  -2  12 362.616 51.9136   6
  -7  -2  12 326.290 56.1008  10
  -7  -2  11 146.196 44.3717   7
  -7  -2  11 118.807 35.6552   6
  -7  -2  11 140.633 44.3477  10
  -7  -2  10 938.632 73.1382   6
  -7  -2  10 1022.12 81.4156   7
  -7  -2  10 1066.60 86.6666  10
  -7  -2   9 46.4049 35.5600  10
  -7  -2   9 19.3728 12.4560   2
  -7  -2   9 43.0375 31.1498   7
  -7  -2   9 47.2341 28.3212   6
   7  -2  -9 10.5700 25.8289   5
   7  -2  -8 1183.90 74.4084   5
  -7  -2   8 1070.20 82.9259  10
  -7  -2   8 1157.40 71.3664   6
  -7  -2   8 1102.27 74.2181   7
  -7  -2   7 35.1975 31.0275  10
  -7  -2   7 62.8897 21.2477   2
  -7  -2   7 42.5702 25.0786   6
   7  -2  -7 22.9905 27.9275   5
  -7  -2   7 53.4703 25.9396   7
   7  -2  -7 27.8339 25.1738   7
   7  -2  -7 33.8171 26.3333   8
  -7  -2   6 1533.89 74.9574   7
   7  -2  -6 1313.34 70.6552   7
  -7  -2   6 1197.48 70.1681   6
   7  -2  -6 1415.92 82.3575   5
  -7  -2   6 1308.46 87.7801  10
   7  -2  -6 1359.95 70.5037   8
  -7  -2   6 1256.33 70.3694   2
  -7  -2   5 103.233 32.7328  10
  -7  -2   5 135.977 26.1477   7
   7  -2  -5 133.670 25.4842   7
   7  -2  -5 108.749 30.7333   5
  -7  -2   5 133.081 28.7008   6
  -7  -2   5 127.011 27.7113   2
   7  -2  -4 583.299 54.0834   5
  -7  -2   4 532.257 49.1964   2
  -7  -2   4 598.653 38.6722   7
   7  -2  -4 517.183 36.8983   7
  -7  -2   3 344.053 44.8511  10
  -7  -2   3 416.496 28.7659   7
   7  -2  -3 373.752 28.0167   7
   7  -2  -2 1953.58 103.974   1
  -7  -2   2 2181.29 65.3383   7
   7  -2  -2 1975.15 63.8282   7
   7  -2  -1 87.0703 18.6119   4
  -7  -2   1 52.9099 30.1026  14
   7  -2  -1 47.7686 24.9863   1
   7  -2  -1 69.3849 26.4761   9
  -7  -2   1 52.1182 8.53620   7
   7  -2  -1 44.4275 8.21337   7
  -7  -2   0 3252.38 130.118  14
   7  -2   0 3302.83 107.779   4
  -7  -2  -1 561.118 50.8657  14
   7  -2   1 571.332 21.7979   7
  -7  -2  -1 517.772 20.9811   7
   7  -2   2 1553.10 67.0066   4
   7  -2   2 1464.92 83.8861   1
  -7  -2  -2 1611.99 78.7368  13
   7  -2   2 1448.54 83.1542   9
  -7  -2  -2 1300.20 77.8973   9
   7  -2   2 1588.77 52.3081   7
  -7  -2  -2 1445.39 50.6310   7
   7  -2   3 1120.09 71.6042   1
  -7  -2  -3 1062.74 62.1521  13
   7  -2   3 1142.67 72.0010   9
  -7  -2  -3 1036.26 63.8609   6
   7  -2   3 1155.41 48.9458   7
  -7  -2  -3 992.976 45.9188   7
   7  -2   4 1982.24 106.854   3
   7  -2   4 2002.64 100.176   1
   7  -2   4 2093.53 100.456   9
   7  -2   4 2059.72 77.8608   7
  -7  -2  -4 1934.82 93.3131   6
  -7  -2  -4 1777.73 73.8913   7
  -7  -2  -4 2018.52 85.9441  13
   7  -2   5 1047.94 78.6352   3
  -7  -2  -5 960.530 56.0235  13
   7  -2   5 1076.66 71.4315   9
   7  -2   5 1067.76 58.5743   7
   7  -2   6 839.927 61.7995   5
  -7  -2  -6 698.087 51.4996   8
   7  -2   6 685.551 59.8856   9
   7  -2   6 770.597 73.3340   3
   7  -2   6 877.804 57.6578   7
  -7  -2  -6 779.435 53.8157   7
   7  -2   7 1166.81 72.7850   5
  -7  -2  -7 1068.10 67.9297   8
   7  -2   7 1174.26 77.5811   9
   7  -2   7 1287.71 95.0567   3
   7  -2   7 1116.61 71.5170   7
  -7  -2  -7 1076.53 68.3285   7
   7  -2   8 172.440 33.1997   5
   7  -2   8 198.228 37.2600   9
   7  -2   8 142.477 46.9976   3
   7  -2   8 152.974 38.7826   7
   7  -2   9 553.473 48.9243   5
   7  -2   9 603.982 58.2916   9
   7  -2   9 663.537 78.7550   3
   7  -2   9 571.895 59.6333   7
   7  -2  10 73.4749 24.2363   5
   7  -2  10 124.437 37.7910   7
   7  -2  10 84.3348 32.0421   9
   7  -2  10 78.5799 43.3032   3
   7  -2  11 632.783 82.5486   3
   7  -2  11 750.699 76.9830   7
   7  -2  11 643.994 61.2454   9
  -7  -1  12 144.969 42.7173  10
   7  -1 -11 250.291 46.3834  14
  -7  -1  11 316.976 44.9557   6
  -7  -1  11 352.702 53.7100  10
   7  -1 -10 194.960 42.1051  12
   7  -1 -10 233.800 43.2476  14
  -7  -1  10 213.995 35.6842   6
  -7  -1  10 232.245 46.4271  10
  -7  -1   9 477.649 57.8294  10
   7  -1  -9 427.143 53.6995  14
  -7  -1   9 346.712 44.8121   6
   7  -1  -9 420.286 46.3247   5
  -7  -1   8 15.1887 28.9740  10
  -7  -1   8 5.14021 14.0050   2
  -7  -1   8 4.64806 21.1316   6
   7  -1  -8-30.4999 31.9463   5
  -7  -1   8 8.51949 26.7154   7
  -7  -1   7 961.098 59.8437   6
  -7  -1   7 1136.25 69.0712   7
   7  -1  -7 1248.81 74.9949   5
  -7  -1   7 1114.35 80.4794  10
   7  -1  -7 1050.77 64.0179   8
  -7  -1   6 115.407 34.0980  10
  -7  -1   6 124.190 27.6925   7
   7  -1  -6 114.581 27.1461   8
  -7  -1   6 153.740 27.2489   2
  -7  -1   6 108.261 26.1262   6
   7  -1  -6 147.431 35.0069   5
  -7  -1   5 1837.21 76.0371   7
  -7  -1   5 1689.17 74.9200   6
  -7  -1   5 1920.64 99.8784  10
   7  -1  -5 1800.70 92.6432   5
  -7  -1   4 122.744 30.2578  14
   7  -1  -4 56.6733 19.4967   8
  -7  -1   4 106.879 19.9732   7
   7  -1  -4 89.8238 29.0567   5
  -7  -1   4 51.9209 18.7698   6
   7  -1  -3 2504.36 111.912   5
   7  -1  -3 2432.52 113.281   9
   7  -1  -3 2494.31 109.793  13
  -7  -1   3 2429.39 108.563  14
   7  -1  -2 183.882 31.5235   5
   7  -1  -2 147.219 30.2246  13
  -7  -1   2 132.807 31.8724  14
   7  -1  -2 145.062 32.3112   9
   7  -1  -1 2044.72 98.8208   5
   7  -1  -1 2012.93 99.6152   9
  -7  -1   1 2002.84 97.8273  13
  -7  -1   0 169.360 31.8045  13
   7  -1   0 147.521 31.4862   5
   7  -1   0 180.265 34.0381   9
   7  -1   0 185.014 28.3063   4
   7  -1   1 2599.79 98.7903   4
   7  -1   1 2548.13 112.785   1
  -7  -1  -1 2544.56 108.413  13
  -7  -1  -2 548.542 45.8631  13
   7  -1   2 535.577 48.5871   1
   7  -1   2 507.484 40.1508   4
  -7  -1  -2 426.943 46.4307   9
  -7  -1  -2 523.309 40.9002   6
   7  -1   3 1040.04 69.3356   3
  -7  -1  -3 1030.12 60.7585  13
  -7  -1  -3 866.783 62.7263  11
   7  -1   3 1019.30 67.1136   1
   7  -1   3 1128.53 68.3886   5
   7  -1   3 1051.08 60.1431   4
   7  -1   3 1012.13 68.5011   9
  -7  -1  -3 1089.72 69.9487   9
  -7  -1  -3 971.262 59.4675   6
   7  -1   4 2226.83 107.929   3
  -7  -1  -4 1913.42 85.8547  13
  -7  -1  -4 1832.60 94.4428  11
   7  -1   4 2035.55 96.6397   5
   7  -1   4 2140.60 75.9748   7
  -7  -1  -4 1954.90 91.2173   6
  -7  -1  -4 1942.78 72.6728   8
   7  -1   4 2143.29 103.328   9
   7  -1   4 1955.66 95.5914   1
   7  -1   5 2019.93 107.864   3
   7  -1   5 1931.92 96.4598   1
  -7  -1  -5 1946.06 84.5156  13
   7  -1   5 1976.87 96.1990   5
   7  -1   5 2109.28 103.322   9
  -7  -1  -5 1863.60 77.5818   8
   7  -1   5 2103.03 82.4155   7
   7  -1   6 982.968 79.1174   3
   7  -1   6 852.510 64.1567   1
   7  -1   6 846.821 61.3968   5
  -7  -1  -6 913.270 53.4600  13
   7  -1   6 865.224 66.3573   9
  -7  -1  -6 813.519 54.4878   8
   7  -1   6 1047.97 61.2144   7
   7  -1   7 501.328 62.0461   3
   7  -1   7 569.651 51.3629   5
  -7  -1  -7 545.120 41.0252  13
   7  -1   7 685.310 61.8584   9
  -7  -1  -7 485.750 46.9297   8
   7  -1   7 593.944 52.3778   7
   7  -1   8 1399.68 103.645   3
  -7  -1  -8 1375.30 62.4353  13
   7  -1   8 1358.23 76.6313   5
   7  -1   8 1467.54 90.7946   9
   7  -1   8 1460.02 85.3385   7
   7  -1   9 80.6501 20.2334  12
   7  -1   9 165.515 39.1300   9
   7  -1   9 127.314 29.2230   5
   7  -1  10 866.083 72.5705   9
   7  -1  10 836.815 53.2936   5
   7  -1  10 916.356 93.0895   3
   7  -1  11 62.5803 31.8693   9
  -7   0  12 189.365 42.5550  10
   7   0 -12 179.850 49.4341  14
  -7   0  11 170.510 41.3225  10
   7   0 -11 117.482 40.6829  14
  -7   0  11 141.064 32.6440   6
   7   0 -10 582.779 63.6111  14
   7   0 -10 507.496 56.3163  12
  -7   0  10 584.081 61.9497  10
   7   0 -10 509.184 61.0941   9
  -7   0  10 505.018 48.9384   6
   7   0  -9 362.851 52.4376  14
   7   0  -9 303.080 45.5529  12
  -7   0   9 392.740 51.6743  10
  -7   0   9 389.780 39.6936   6
   7   0  -9 361.062 48.4815   9
   7   0  -9 273.406 42.2250   5
  -7   0   8 487.243 31.9518   2
   7   0  -8 818.677 61.5762   5
   7   0  -8 793.320 67.8615  14
  -7   0   8 913.360 71.6445  10
   7   0  -8 808.512 66.3689   9
  -7   0   8 861.185 52.6205   6
  -7   0   7-6.47677 16.4858   2
   7   0  -7 3.32758 25.3921  14
  -7   0   7 6.84654 26.3821  10
   7   0  -7-25.9482 29.8427   5
   7   0  -7-15.5310 28.4430   9
  -7   0   7 5.00503 16.3046   6
   7   0  -7-53.1176 33.3054   8
  -7   0   6 1503.19 88.4850  10
   7   0  -6 1504.26 84.3433   5
   7   0  -6 1567.85 87.9347   9
   7   0  -6 1391.48 69.5060   8
  -7   0   6 1462.13 63.1868   6
  -7   0   5 1075.85 70.9881  14
  -7   0   5 1113.95 74.3128  10
   7   0  -5 1108.25 72.9280   9
  -7   0   5 1104.50 50.2698   6
   7   0  -5 1286.93 75.8509   5
  -7   0   4 980.305 64.6412  14
   7   0  -4 960.538 66.5841   5
   7   0  -4 850.127 44.8255   8
  -7   0   4 981.775 43.7535   6
  -7   0   3 154.504 31.2066  14
  -7   0   3 88.0146 16.7562   6
   7   0  -3 208.932 33.5437   5
  -7   0   3 161.985 33.0473  13
   7   0  -3 121.778 30.2355  13
   7   0  -3 75.3540 27.9297   9
   7   0  -3 104.337 15.5335   8
   7   0  -2 2015.09 99.5548   9
  -7   0   2 1914.77 98.5772  13
  -7   0   2 1951.47 92.8030  14
   7   0  -2 2248.39 102.485   5
  -7   0   1 72.8298 25.7377  13
   7   0  -1 117.068 28.6537   5
   7   0  -1 92.0658 29.6935   9
  -7   0   1 82.0280 26.1221  14
  -7   0   0 615.369 51.5214  13
   7   0   0 556.520 47.4043  13
   7   0   0 585.307 52.6616   1
   7   0   0 620.541 52.3544   5
   7   0   0 692.031 48.2747   4
   7   0   0 612.523 52.3320   9
  -7   0   0 622.020 36.3030   6
  -7   0  -1 393.590 40.9741  13
  -7   0  -1 369.278 40.5152  11
   7   0   1 395.032 42.3492   1
   7   0   1 523.880 42.2427   4
   7   0   1 429.132 45.6781   9
  -7   0  -1 372.480 30.9466   6
  -7   0  -2 2412.62 107.991  11
   7   0   2 2460.26 107.481   1
   7   0   2 2487.09 110.745   5
   7   0   2 2519.55 104.863   4
  -7   0  -2 2682.01 108.843  13
   7   0   2 2689.20 109.896   3
   7   0   3 1435.75 80.9006   3
  -7   0  -3 1619.03 78.7415  13
  -7   0  -3 1566.44 82.5016  11
   7   0   3 1633.28 81.4111   1
   7   0   3 1594.16 83.7106   5
   7   0   3 1530.45 79.2389   4
  -7   0  -3 1686.27 84.6156   9
  -7   0  -3 1433.34 50.7231   8
  -7   0  -3 1544.49 72.9490   6
   7   0   4 1059.10 71.5164   3
  -7   0  -4 1159.29 63.8273  13
  -7   0  -4 962.257 65.7228  11
   7   0   4 1070.23 66.3492   5
   7   0   4 1028.21 65.5980   4
  -7   0  -4 967.585 61.0107   6
  -7   0  -4 1053.75 68.9636   9
  -7   0  -4 978.736 45.9761   8
   7   0   4 1074.30 72.1293   9
   7   0   4 1093.74 65.4465   1
   7   0   5 345.619 46.1536   3
   7   0   5 355.613 39.4175   1
  -7   0  -5 294.020 35.1013  13
   7   0   5 358.835 41.4638   5
  -7   0  -5 310.230 39.4536   6
   7   0   5 323.537 45.1379   9
  -7   0  -5 280.340 30.5544   8
   7   0   6 374.325 50.7917   3
   7   0   6 421.865 43.5761   1
  -7   0  -6 442.834 40.3594  13
   7   0   6 353.509 42.8620   5
   7   0   6 314.391 46.8018   9
  -7   0  -6 361.600 37.8993   8
   7   0   7 763.737 58.6072   1
  -7   0  -7 754.348 50.3406  13
   7   0   7 652.486 53.8582   5
   7   0   7 724.225 64.8724   9
  -7   0  -7 676.893 52.6215   8
   7   0   7 827.318 74.6942   3
   7   0   8 484.841 48.9413   1
  -7   0  -8 519.861 41.8389  13
   7   0   8 340.174 35.6651  12
   7   0   8 537.808 58.9448   9
   7   0   8 405.721 58.2853   3
   7   0   8 406.416 45.0856   5
   7   0   9 664.517 49.6176   5
   7   0   9 814.004 80.7844   3
   7   0   9 777.399 70.0252   9
   7   0  10 129.956 38.3231   9
   7   0  10 87.2012 24.0035   5
   7   0  11 781.600 75.0413   9
  -7   0 -12 56.0845 43.6628  14
   7   1 -12 146.504 46.2136  14
   7   1 -11 336.348 56.8290  14
  -7   1  11 312.302 48.2808  10
   7   1 -10 176.057 42.7097  12
  -7   1  10 217.115 41.0348  10
   7   1 -10 188.265 38.9761   9
   7   1 -10 207.802 47.7903  14
   7   1  -9 562.529 62.2372  14
   7   1  -9 445.995 53.8532  12
   7   1  -9 393.244 47.4413   5
  -7   1   9 441.884 52.3429  10
   7   1  -9 457.160 50.7253   9
  -7   1   9 453.146 40.2301   6
  -7   1   8 6.35720 15.2776   2
  -7   1   8-8.43892 15.4456   2
   7   1  -8 26.8738 28.4020  14
   7   1  -8 6.94402 30.6681  12
   7   1  -8 29.3543 28.8589   5
  -7   1   8 12.1171 17.7051  11
  -7   1   8 16.5276 25.4739  10
   7   1  -8-5.79759 24.0278   9
  -7   1   8 17.1442 15.2305   6
   7   1  -7 1162.05 82.5796  14
   7   1  -7 1191.75 81.0926  12
  -7   1   7 1098.48 75.3743  10
   7   1  -7 1183.63 76.4351   5
   7   1  -7 1058.59 65.3663   8
   7   1  -7 1079.31 73.8793   9
  -7   1   7 1016.64 50.3516   6
   7   1  -6 168.557 38.6936  14
  -7   1   6 116.712 31.9534  14
  -7   1   6 189.357 37.7209  10
   7   1  -6 145.944 35.0658   9
   7   1  -6 68.0105 28.2117   8
  -7   1   6 119.478 17.8386   6
   7   1  -6 141.547 35.2808   5
  -7   1   5 1802.91 99.7328  13
  -7   1   5 1731.11 87.8357  14
   7   1  -5 2073.61 97.1099   9
  -7   1   5 1729.02 56.3496   6
   7   1  -5 1817.69 94.8828   5
  -7   1   4 119.470 28.2959  14
   7   1  -4 64.9625 26.7807   9
  -7   1   4 44.7105 7.61487   6
   7   1  -4 85.3209 18.5020   8
   7   1  -4 125.930 31.8960   5
   7   1  -3 2463.19 111.968   5
   7   1  -3 2415.26 76.4655   8
   7   1  -3 2614.72 113.483   9
  -7   1   3 2497.23 115.301  13
   7   1  -3 2500.03 108.690  13
  -7   1   3 2293.93 101.638  14
  -7   1   2 166.015 30.9861  14
  -7   1   2 142.482 32.9253  13
   7   1  -2 182.762 32.2307   5
  -7   1   2 160.479 28.1349  11
   7   1  -2 133.830 31.2921   9
   7   1  -2 87.6855 9.42618   8
  -7   1   1 2137.65 93.6678  14
   7   1  -1 2052.56 92.5290  13
  -7   1   1 2188.79 101.636  13
  -7   1   1 2029.90 94.4427  11
   7   1  -1 2075.09 100.876   9
  -7   1   1 1942.28 61.2894   6
   7   1  -1 2153.78 102.352   5
  -7   1   0 152.762 18.2569   6
   7   1   0 191.328 34.2490   5
   7   1   0 205.084 35.4639   9
  -7   1   0 185.298 31.8221  13
   7   1   0 224.821 32.2861  13
  -7   1  -1 2654.80 112.404  13
   7   1   1 2779.36 107.316  13
  -7   1  -1 2517.94 110.916  11
   7   1   1 2739.66 112.321   1
   7   1   1 2721.85 112.830   4
   7   1   1 2719.20 118.837   9
  -7   1  -1 2477.10 87.5994   6
  -7   1  -2 479.566 45.5373  13
  -7   1  -2 536.479 48.5122  11
   7   1   2 548.060 46.8586   1
   7   1   2 653.216 52.8013   5
   7   1   2 584.134 49.8881   4
   7   1   2 615.159 54.3940   9
   7   1   2 528.529 44.0814   3
   7   1   3 993.013 62.7359   3
  -7   1  -3 948.445 61.6323  13
  -7   1  -3 881.402 62.4717  11
   7   1   3 1012.19 65.0350   5
   7   1   3 988.595 66.4577   4
  -7   1  -3 822.225 52.3315   6
  -7   1  -3 977.140 38.4300   8
   7   1   3 880.917 58.5659   1
   7   1   4 2099.62 100.462   3
   7   1   4 2028.34 91.2658   1
  -7   1  -4 2144.36 95.6094  13
   7   1   4 2095.19 98.6981   5
   7   1   4 2139.01 103.555   4
  -7   1  -4 2014.54 73.6041   8
   7   1   4 2251.68 109.007   9
  -7   1  -4 1990.29 89.1073   6
   7   1   5 2189.28 105.358   3
  -7   1  -5 1910.22 90.7118  13
   7   1   5 1899.90 88.0592   1
  -7   1  -5 1878.42 92.7864   4
   7   1   5 2061.14 104.277   4
   7   1   5 1926.31 94.6667   5
   7   1   5 2164.50 108.593   9
  -7   1  -5 1958.23 78.1360   8
  -7   1  -5 1911.73 91.7998   6
   7   1   6 863.400 58.7260   1
  -7   1  -6 958.724 69.5121   1
   7   1   6 799.668 55.1387  12
  -7   1  -6 996.115 62.0897  13
   7   1   6 878.399 61.8310   5
   7   1   6 864.144 71.1668   9
  -7   1  -6 832.999 53.2351   8
   7   1   6 909.697 71.6471   3
   7   1   7 516.898 46.3538   1
  -7   1  -7 543.398 55.3638   1
   7   1   7 392.079 41.2305  12
  -7   1  -7 621.877 50.7491  13
   7   1   7 530.859 49.4565   5
   7   1   7 651.844 63.1667   9
  -7   1  -7 530.837 47.3100   8
   7   1   7 602.689 62.3079   3
  -7   1  -8 1291.02 85.9358   1
   7   1   8 1098.53 70.5648   1
   7   1   8 1008.11 57.0494  12
  -7   1  -8 1420.10 73.6550  13
   7   1   8 1212.87 71.4257   5
   7   1   8 1300.99 90.8337   9
   7   1   8 1409.71 97.5652   3
  -7   1  -9 176.142 30.0055  13
   7   1   9 73.5207 18.1785  12
   7   1   9 147.536 30.5210   5
   7   1   9 202.387 43.1211   9
  -7   1  -9 178.144 39.6945   1
  -7   1 -10 880.744 76.6333   1
   7   1  10 981.192 83.7022   9
   7   1  11 25.4756 33.3615   9
   7   2 -12 346.002 61.1427  14
   7   2 -11 128.973 43.8566  14
  -7   2  11 138.068 34.7311  10
  -7   2  10 765.924 65.1168  10
   7   2 -10 886.540 72.5280  12
   7   2 -10 929.280 84.5178  14
   7   2  -9 43.0967 32.2086  12
   7   2  -9 72.8076 32.0913   5
  -7   2   9 68.6881 31.4423  10
   7   2  -9 31.2195 27.3827   9
   7   2  -9 4.36194 32.2858  14
   7   2  -8 1143.08 87.2467  14
   7   2  -8 1130.72 80.2804  12
  -7   2   8 741.804 50.0142  11
   7   2  -8 1070.23 74.3036   5
  -7   2   8 1167.09 75.8241  10
   7   2  -8 1036.81 69.0509   9
   7   2  -7 23.5909 30.0186  14
  -7   2   7 44.0034 24.3426  14
   7   2  -7 39.4518 28.9800  12
   7   2  -7 66.1689 29.6592   5
  -7   2   7 30.3172 25.7802  10
  -7   2   7 44.3616 21.1211  11
   7   2  -7 31.4332 25.5464   8
   7   2  -7 67.2907 27.4203   9
   7   2  -7 39.6942 23.7921   3
   7   2  -6 1431.11 91.0673  14
  -7   2   6 1344.74 87.3784  13
  -7   2   6 1335.41 74.5716  14
   7   2  -6 1358.48 86.7873  12
  -7   2   6 1172.49 67.9216  11
   7   2  -6 1492.58 85.7528   5
   7   2  -6 1324.21 70.2701   8
   7   2  -6 1494.25 81.6160   9
  -7   2   6 1147.29 64.8009   2
   7   2  -5 131.785 35.6384  12
  -7   2   5 133.216 34.9116  13
   7   2  -5 117.350 32.4366   5
  -7   2   5 102.867 24.0895  11
   7   2  -5 157.377 26.5987   8
   7   2  -5 145.264 32.1417   9
   7   2  -5 123.372 34.5839  14
  -7   2   5 134.678 28.6228  14
   7   2  -4 562.525 54.6210  12
  -7   2   4 502.382 45.1928  11
   7   2  -4 703.349 57.0206   9
  -7   2   4 582.273 47.5391  14
   7   2  -4 569.988 55.2502   5
   7   2  -3 455.772 50.3649  12
  -7   2   3 381.662 40.1073  11
   7   2  -3 336.541 43.1919   9
  -7   2   3 424.693 43.4010  14
   7   2  -3 517.687 50.4392   5
  -7   2   2 1793.43 89.7590  11
   7   2  -2 2124.34 102.285   5
   7   2  -2 2022.65 98.7105   9
  -7   2   2 2068.67 101.145  13
  -7   2   2 2089.07 90.9855  14
  -7   2   1 64.3859 24.5830  14
  -7   2   1 102.122 29.7310  13
   7   2  -1 106.791 27.8470  13
  -7   2   1 83.2100 24.9706  11
   7   2  -1 49.6230 25.0340   9
   7   2  -1 85.6635 29.3713   5
   7   2  -1 32.2039 9.82535   8
   7   2   0 3448.60 134.314   5
  -7   2   0 3467.16 132.248  13
   7   2   0 3205.90 119.818  13
   7   2   0 3309.83 133.549   9
   7   2   1 697.000 43.4890   3
   7   2   1 712.035 50.5494  13
  -7   2  -1 659.098 53.6846  13
   7   2   1 641.614 54.6103   4
   7   2   1 720.761 58.3786   9
  -7   2  -1 566.210 34.3774   6
   7   2   2 1469.25 70.1978   3
  -7   2  -2 1610.60 82.8891  13
   7   2   2 1369.16 70.8358  13
  -7   2  -2 1325.51 78.6393  11
   7   2   2 1483.43 81.3743  12
   7   2   2 1335.70 72.9896   1
   7   2   2 1655.47 87.8648   4
   7   2   2 1484.87 82.3829   5
   7   2   2 1506.21 86.6772   9
  -7   2  -2 1394.79 61.6401   6
   7   2   3 1168.99 66.2524   3
  -7   2  -3 1301.36 73.2912  13
   7   2   3 1243.30 73.2803  12
   7   2   3 1161.09 64.5014   1
   7   2   3 1135.62 75.7935   4
   7   2   3 1178.79 74.2091   5
   7   2   3 1291.40 80.6875   9
  -7   2  -3 1129.37 60.0230   6
   7   2   4 1959.36 92.8184   3
  -7   2  -4 2043.81 95.5750  13
   7   2   4 1770.26 89.8569  12
   7   2   4 1942.36 84.4783   1
   7   2   4 2021.39 103.656   4
   7   2   4 1901.88 95.5005   5
  -7   2  -4 1914.49 73.5554   8
  -7   2  -4 1859.57 85.3143   6
   7   2   5 1039.53 68.9414   3
  -7   2  -5 998.113 64.7920  13
   7   2   5 930.133 61.2352  12
   7   2   5 819.959 53.8365   1
  -7   2  -5 1067.59 75.7292   1
  -7   2  -5 977.411 62.5657   4
   7   2   5 1113.32 76.8038   4
   7   2   5 941.925 66.6433   5
  -7   2  -5 1053.24 55.5629   8
   7   2   5 1059.08 76.7069   9
  -7   2  -5 828.861 60.6876   6
   7   2   6 610.088 47.0528   1
  -7   2  -6 758.083 66.2197   1
   7   2   6 679.991 51.9905  12
  -7   2  -6 800.271 58.9995  13
   7   2   6 754.011 67.4587   4
  -7   2  -6 691.961 56.7038   4
   7   2   6 714.099 57.8534   5
  -7   2  -6 727.771 51.4684   8
   7   2   6 807.913 70.4215   9
   7   2   6 650.678 61.9355   3
   7   2   7 1015.25 60.2397   1
  -7   2  -7 1268.82 85.2817   1
   7   2   7 967.384 59.8936  12
  -7   2  -7 1200.36 72.1455  13
   7   2   7 1119.69 70.4011   5
  -7   2  -7 1029.03 66.0419   8
   7   2   7 1153.85 85.9340   9
   7   2   7 1177.13 84.8949   3
  -7   2  -8 197.354 35.2836  13
   7   2   8 148.198 24.8076  12
   7   2   8 165.020 32.3778   5
   7   2   8 206.450 43.1171   9
   7   2   8 210.357 29.4543   1
  -7   2  -8 228.586 42.2463   1
   7   2   9 617.532 67.5449   9
  -7   2  -9 567.865 52.3439  13
  -7   2  -9 646.763 65.9197   1
   7   2   9 506.032 44.4821   5
  -7   2 -10 86.0856 35.1883   1
   7   2  10 113.434 41.3225   9
  -7   2 -11 570.981 76.4323  14
  -7   2 -11 731.155 73.8053   1
   7   2  11 576.755 69.3507   9
   7   3 -11 403.535 66.1588  14
  -7   3  10 240.405 40.4126  10
   7   3 -10 196.520 44.1911  12
   7   3 -10 289.251 56.0207  14
  -7   3   9 383.283 45.5163  10
   7   3  -9 346.142 49.7602   5
   7   3  -9 363.273 50.8007  12
   7   3  -9 411.530 61.4178  14
   7   3  -8 208.810 46.1779  14
  -7   3   8 202.688 32.2426  14
   7   3  -8 193.638 40.1570  12
   7   3  -8 242.247 43.4703   5
  -7   3   8 188.388 36.8497  10
  -7   3   8 132.555 23.3631  11
   7   3  -8 206.893 34.6057   9
  -7   3   8 159.530 22.2445   2
   7   3  -7 1401.88 92.6762  12
   7   3  -7 1396.89 88.3489   5
  -7   3   7 1382.99 82.0727  10
   7   3  -7 1532.14 79.4805   9
   7   3  -7 1465.53 97.5450  14
  -7   3   7 1231.10 71.5864  14
   7   3  -6 159.962 41.4661  14
  -7   3   6 116.931 26.3939  14
   7   3  -6 59.6419 30.9969  12
  -7   3   6 107.046 34.5288  13
   7   3  -6 105.084 35.1735   5
  -7   3   6 94.9696 23.5781  11
   7   3  -6 111.954 28.6216   9
   7   3  -6 105.489 23.6746   3
  -7   3   6 101.033 23.7161   2
   7   3  -5 2979.87 134.338  14
  -7   3   5 2717.77 126.213  13
  -7   3   5 2492.08 103.161  14
   7   3  -5 2880.50 126.798   5
  -7   3   5 2301.48 102.928  11
   7   3  -5 2885.96 131.662  12
   7   3  -5 2669.26 113.218   9
  -7   3   5 2527.91 107.784   2
   7   3  -5 2562.71 93.3251   3
   7   3  -4 572.963 58.1439  14
  -7   3   4 518.931 43.4063  14
  -7   3   4 518.268 55.9302  13
   7   3  -4 560.553 56.2524   5
  -7   3   4 531.898 46.3307  11
   7   3  -4 569.507 58.5799  12
   7   3  -4 567.805 51.2047   9
  -7   3   4 442.935 46.3149   2
  -7   3   3 3478.60 138.171  11
   7   3  -3 4055.70 161.108  12
   7   3  -3 3892.92 156.279   5
   7   3  -3 3976.22 149.084   9
  -7   3   3 3859.55 135.125  14
   7   3  -2 163.729 35.4139  12
   7   3  -2 96.7016 28.8947  13
   7   3  -2 95.6504 29.4804   5
  -7   3   2 86.1440 25.6518  11
   7   3  -2 95.8715 29.7051   9
  -7   3   2 129.957 19.3917   8
  -7   3   2 148.208 28.6273  14
   7   3  -1 3109.31 121.886  13
  -7   3   1 2926.34 127.881  13
   7   3  -1 3019.60 131.548   5
   7   3  -1 3005.70 133.264  12
  -7   3   1 2932.27 121.646  11
  -7   3   1 3129.35 92.2502   8
   7   3  -1 2878.49 127.168   9
   7   3  -1 2910.60 90.7449   3
  -7   3   0 2157.31 104.309  13
   7   3   0 2289.58 96.5171  13
   7   3   0 2263.80 108.154   5
  -7   3   0 1945.29 96.8313  11
  -7   3   0 2091.93 68.5019   8
   7   3   0 2115.81 70.3935   8
   7   3   0 2095.60 104.171   9
   7   3   0 2090.12 73.1150   3
  -7   3  -1 2412.07 109.420  13
   7   3   1 2284.74 96.0521  13
   7   3   1 2312.93 109.405  12
   7   3   1 2142.29 108.945   4
   7   3   1 2179.72 109.674   9
   7   3   1 2269.08 74.6027   8
   7   3   1 2306.39 82.3717   3
   7   3   2 483.028 36.9182   3
  -7   3  -2 477.337 48.3310  13
   7   3   2 483.455 41.9577  13
   7   3   2 498.670 49.5445  12
   7   3   2 318.607 37.9995   1
   7   3   2 460.933 51.7721   4
   7   3   2 515.095 51.7334   5
   7   3   2 380.874 29.5080   8
   7   3   2 469.063 50.8472   9
  -7   3  -2 525.013 36.4047   6
   7   3   3 325.602 41.7189  12
  -7   3  -3 305.693 40.5933  13
   7   3   3 272.540 32.6277  13
   7   3   3 198.145 29.5359   1
  -7   3  -3 287.559 32.3183   6
   7   3   3 370.565 45.2382   5
   7   3   3 398.454 49.7849   9
   7   3   3 270.179 43.6118   4
   7   3   3 312.950 34.2279   3
  -7   3  -4 1357.39 80.3662  13
   7   3   4 1303.40 75.5173  12
  -7   3  -4 1225.99 69.1837   6
   7   3   4 1383.99 87.6830   4
   7   3   4 1372.47 81.6602   5
  -7   3  -4 1523.12 92.6498   1
   7   3   4 1344.85 72.2767   3
   7   3   5 1049.83 78.5110   4
   7   3   5 869.453 64.9483   5
  -7   3  -5 912.863 58.6397   4
   7   3   5 1002.30 65.1872  12
  -7   3  -5 1030.88 70.2697  13
  -7   3  -5 955.035 64.7915   6
  -7   3  -5 1089.25 79.5060   1
   7   3   6 754.632 55.5321  12
  -7   3  -6 879.417 63.9966  13
   7   3   6 911.159 78.3401   9
  -7   3  -6 813.237 71.6680   1
   7   3   6 838.525 74.7941   4
   7   3   6 838.758 63.7503   5
  -7   3  -6 624.161 52.9523   4
  -7   3  -7 148.739 34.1968  13
   7   3   7 171.738 29.5738  12
   7   3   7 118.918 31.1733   5
   7   3   7 182.354 43.5709   9
  -7   3  -7 119.975 36.6870   1
   7   3   7 116.441 21.2933   1
   7   3   8 856.918 79.2171   9
   7   3   8 709.872 56.6952   5
  -7   3  -8 797.428 64.5466  13
   7   3   8 605.574 45.1470  12
  -7   3  -8 810.823 75.3487   1
   7   3   9 374.231 40.7000   5
   7   3   9 383.127 58.4035   9
  -7   3  -9 414.487 57.3402   1
   7   3   9 211.571 25.2800  12
  -7   3  -9 375.997 48.4469  13
  -7   3 -10 408.496 58.2992   1
   7   3  10 377.051 60.0535   9
  -7   3 -11 70.6477 45.3970  14
  -7   3 -11 60.2516 36.4447   1
   7   3  11 69.7022 39.8752   9
   7   4 -11 265.761 58.5789  14
   7   4 -10 1094.48 96.0263  14
   7   4 -10 939.690 78.3855  12
  -7   4   9 320.978 42.4291  10
   7   4  -9 387.531 54.9190  12
   7   4  -9 482.916 66.3983  14
   7   4  -8 1258.32 91.0208  12
   7   4  -8 1207.10 87.3729   5
  -7   4   8 1143.94 74.3292  10
   7   4  -8 1120.12 68.1351   9
   7   4  -8 1255.61 98.6667  14
   7   4  -7 58.4705 34.6834  14
  -7   4   7 44.2479 20.8084  14
  -7   4   7 36.9531 29.5993  13
   7   4  -7 24.0334 33.5045  12
   7   4  -7 62.6554 33.5352   5
  -7   4   7 41.4315 19.2125  11
   7   4  -7 111.778 27.9059   9
  -7   4   7 51.8790 22.4623   2
   7   4  -6 2269.29 122.482  14
  -7   4   6 1790.78 82.5693  14
  -7   4   6 2046.45 110.606  13
   7   4  -6 2094.40 114.650  12
  -7   4   6 1590.15 82.6876  11
   7   4  -6 2391.78 116.361   5
   7   4  -6 2166.23 97.2677   9
  -7   4   6 1882.06 89.4109   2
  -7   4   5 61.2093 24.8279   2
   7   4  -5 133.784 38.6644  14
  -7   4   5 59.6139 21.5814  14
   7   4  -5 54.4558 30.8791  12
  -7   4   5 119.974 34.3012  13
   7   4  -5 54.8735 29.8398   5
  -7   4   5 76.9131 22.9463  11
   7   4  -5 36.9323 25.9760   9
   7   4  -5 43.6664 15.6050   3
  -7   4   4 1658.97 92.9213  13
   7   4  -4 1517.61 93.8737  14
  -7   4   4 1392.44 67.4463  14
  -7   4   4 1320.59 73.3449  11
   7   4  -4 1498.48 93.4847  12
   7   4  -4 1651.96 93.6101   5
  -7   4   4 1513.39 70.4325   8
   7   4  -4 1568.15 81.2576   9
  -7   4   4 1484.79 81.7182   2
  -7   4   3 118.333 25.8012  14
   7   4  -3 97.0167 33.9870  12
   7   4  -3 93.1341 32.6316   5
  -7   4   3 57.9205 22.8233  11
   7   4  -3 72.0591 28.2360   9
  -7   4   3 77.3223 21.9060   8
  -7   4   3 85.5404 27.5247   2
  -7   4   2 2613.74 100.811  14
   7   4  -2 2448.81 119.895   5
   7   4  -2 2559.58 123.526  12
  -7   4   2 2342.00 106.957  11
   7   4  -2 2744.03 117.822   9
  -7   4   2 2465.86 90.0100   8
  -7   4   2 2211.94 111.984   2
  -7   4   1 389.471 46.7223  13
   7   4  -1 392.184 50.5723   5
  -7   4   1 393.405 31.1495   8
   7   4  -1 314.984 43.3068   9
  -7   4   1 336.774 45.4904   2
  -7   4   1 343.352 40.5823  11
   7   4  -1 337.601 46.3322  12
   7   4  -1 335.117 40.9079  13
   7   4   0 1316.75 74.0624  13
  -7   4   0 1299.24 81.1018  13
  -7   4   0 1343.80 58.0357   8
   7   4   0 1337.13 59.0215   8
   7   4   0 1397.06 84.0547   9
   7   4   1 960.224 70.1272  12
   7   4   1 1034.53 49.9811   8
   7   4   1 974.138 71.6452   9
   7   4   1 918.890 59.3662  13
  -7   4  -1 892.118 67.6755  13
   7   4   2 2717.76 123.474  12
   7   4   2 2801.58 126.834   5
   7   4   2 2846.75 131.021   9
   7   4   2 2686.07 96.6094   8
  -7   4  -2 2751.46 124.038  13
   7   4   2 2702.33 106.090  13
   7   4   3 457.226 49.2842  12
  -7   4  -3 470.673 51.0993  13
  -7   4  -3 402.577 51.3757   1
   7   4   3 503.253 53.0727   5
   7   4   3 508.141 57.2029   9
   7   4   3 390.473 36.5379   8
   7   4   3 428.010 38.2434  13
   7   4   4 797.454 63.8067  12
  -7   4  -4 979.260 70.6583  13
  -7   4  -4 941.708 59.8635   6
   7   4   4 843.338 68.0149   5
   7   4   4 879.751 55.2827   8
   7   4   4 963.579 77.7453   9
  -7   4  -4 923.142 76.6783   1
   7   4   5 1065.85 73.5802   5
  -7   4  -5 997.088 56.8199   4
   7   4   5 1084.79 70.5776  12
  -7   4  -5 1118.83 84.0077   1
  -7   4  -5 938.343 64.5678   6
   7   4   6 183.685 32.9391  12
   7   4   6 140.941 35.7577   5
  -7   4  -6 195.729 31.4721   4
  -7   4  -6 231.778 43.8834   1
   7   4   6 91.5336 16.9973   1
   7   4   7 641.652 70.3162   9
   7   4   7 471.660 45.5829  12
  -7   4  -7 559.638 66.0258   1
   7   4   7 534.982 54.4752   5
   7   4   8 231.454 31.5214  12
   7   4   8 222.560 38.6109   5
   7   4   8 278.178 52.7227   9
  -7   4  -8 284.598 52.1609   1
  -7   4  -9 703.277 74.6625   1
   7   4   9 625.545 73.9066   9
  -7   4 -10 5.71781 35.4488  14
   7   4  10 41.9013 39.1619   9
  -7   4 -10 24.7830 31.1928   1
  -7   4 -11 582.681 73.6571   1
   7   5 -10 100.162 39.5524  12
   7   5 -10 71.5623 44.8778  14
   7   5 -10 27.3983 43.7589   1
  -7   5   9 793.840 59.6282  10
   7   5  -9 985.841 92.0482  14
   7   5  -9 994.695 84.1115  12
  -7   5   8 87.8285 29.8132  10
  -7   5   8 30.2168 32.9066  13
   7   5  -8 72.5913 38.3150  12
   7   5  -8 110.623 41.3601  14
   7   5  -7 1305.76 100.919  14
  -7   5   7 1171.62 86.7042  13
   7   5  -7 1160.48 90.4074  12
   7   5  -7 1384.88 95.1674   5
   7   5  -7 1255.02 70.5757   9
  -7   5   7 1164.21 68.8869   2
   7   5  -6 22.7540 34.0233  14
  -7   5   6 29.0563 17.9445  14
  -7   5   6-3.69219 27.6043  13
   7   5  -6-4.22818 35.9267  12
   7   5  -6-8.00492 32.3214   5
  -7   5   6 2.14323 17.9155  11
   7   5  -6-4.90261 23.2123   9
  -7   5   6 14.8145 21.8097   2
   7   5  -5 1451.73 97.4900  14
  -7   5   5 1098.26 59.6061  14
  -7   5   5 1293.27 88.1932  13
   7   5  -5 1438.68 96.0289  12
  -7   5   5 1246.90 71.2171  11
   7   5  -5 1454.33 95.1007   5
  -7   5   5 1158.03 73.4221   8
   7   5  -5 1500.09 79.9659   9
  -7   5   5 1317.18 78.7011   2
  -7   5   4 42.6824 28.2139  13
   7   5  -4 36.9084 28.6881  12
   7   5  -4 31.7134 27.7320   5
  -7   5   4 17.5287 19.3104  11
   7   5  -4 25.2508 24.4194   9
  -7   5   4 37.8347 22.7948   8
   7   5  -4 28.7037 31.9161  14
  -7   5   4 28.8108 19.1688  14
   7   5  -3 2981.72 137.211   5
  -7   5   3 2839.25 130.271  13
  -7   5   3 2624.76 101.801  14
   7   5  -3 2845.29 122.184   9
  -7   5   3 2676.46 106.303   8
   7   5  -3 3040.86 139.887  12
  -7   5   3 2564.86 114.216  11
   7   5  -2 51.1089 32.6606  12
  -7   5   2 91.7667 24.4340  14
   7   5  -2 89.0696 33.5033   5
  -7   5   2 106.585 25.5668   8
   7   5  -2 109.567 31.2219   9
   7   5  -1 1066.74 74.2448   9
  -7   5   1 1081.74 57.6510   8
   7   5  -1 1029.18 78.7690   5
   7   5   0 104.314 32.1277   9
   7   5   0 85.0594 28.1343  13
  -7   5   0 107.731 32.5447  13
  -7   5   0 80.8555 23.7943   8
   7   5   0 77.8197 24.0899   8
   7   5   1 1110.58 78.9452  12
   7   5   1 924.024 73.6138   9
   7   5   1 1074.26 58.7006   8
   7   5   1 966.429 62.1426  13
  -7   5  -1 1131.43 77.4537  13
   7   5   2 471.340 54.6988   5
   7   5   2 501.112 53.8753  12
  -7   5  -2 467.163 53.7535  13
   7   5   2 429.168 40.0130   8
   7   5   2 453.250 56.2047   9
   7   5   2 441.235 41.9839  13
   7   5   3 1361.80 70.9384  13
   7   5   3 1618.75 96.5640   5
   7   5   3 1487.98 89.9244  12
  -7   5  -3 1577.07 93.5604  13
   7   5   3 1663.39 100.687   9
   7   5   3 1564.81 75.1031   8
  -7   5  -3 1548.09 101.662   1
   7   5   4 741.241 46.5653  13
   7   5   4 788.311 65.3014  12
   7   5   4 917.736 78.5989   9
   7   5   4 819.280 56.6642   8
  -7   5  -4 876.183 76.3952   1
   7   5   4 945.394 74.3932   5
   7   5   5 719.014 60.1757  12
   7   5   5 693.104 55.4162   8
   7   5   5 646.876 70.7366   9
  -7   5  -5 909.643 78.0411   1
   7   5   5 747.718 65.0472   5
   7   5   6 661.426 57.6404  12
  -7   5  -6 800.520 76.7597   1
   7   5   6 661.836 63.5269   5
   7   5   7 435.591 46.7205  12
   7   5   7 410.325 63.0158   9
  -7   5  -7 582.663 67.9469   1
   7   5   8 957.636 90.1371   9
  -7   5  -8 805.270 81.3169   1
  -7   5  -9 47.0460 33.8592   1
   7   5   9 32.6297 40.6698   9
  -7   5 -10 768.271 83.3999   1
   7   5  10 842.736 89.7616   9
  -7   5 -11 5.48343 36.9530   1
   7   6 -10 425.767 60.4461  12
   7   6  -9 208.770 48.0485  12
   7   6  -9 260.740 58.9109  14
  -7   6   8 452.878 58.5523  13
   7   6  -8 640.507 70.9309  12
   7   6  -8 546.593 74.1737  14
  -7   6   8 508.738 48.8431  10
  -7   6   7 53.4009 33.4529  13
   7   6  -7 13.6968 38.8051  12
   7   6  -7 55.6061 37.4097  14
   7   6  -6 1189.55 93.0338  12
  -7   6   6 893.802 60.8587  11
  -7   6   6 996.022 74.0489   8
   7   6  -6 1131.51 68.8937   9
   7   6  -6 1223.94 96.6102  14
  -7   6   6 1067.61 82.7435  13
  -7   6   5 154.056 37.3415  13
   7   6  -5 125.177 43.0346  12
   7   6  -5 138.061 40.7518   5
  -7   6   5 184.176 31.4193  11
  -7   6   5 137.384 34.1581   8
   7   6  -5 147.272 31.5582   9
   7   6  -5 192.448 45.7331  14
  -7   6   5 149.868 21.3064  14
   7   6  -4 2078.71 116.337   5
  -7   6   4 1812.62 102.821  13
   7   6  -4 1845.22 93.0311   9
  -7   6   4 1876.63 91.2286   8
   7   6  -4 1731.32 109.026  12
  -7   6   3 22.2192 28.5382  13
   7   6  -3 21.6553 27.2519  12
  -7   6   3-3.10821 17.8273  14
   7   6  -3 8.56431 29.2251   5
   7   6  -3-12.2809 24.1197   9
  -7   6   3 2.38322 24.5329   8
   7   6  -2 2006.93 114.738   5
  -7   6   2 1696.08 78.8220  14
  -7   6   2 1840.27 105.074  13
  -7   6   2 2121.29 92.3073   8
   7   6  -2 1868.24 100.757   9
   7   6  -2 2263.47 120.706  12
   7   6  -1 177.727 39.0265   9
  -7   6   1 218.754 33.0753   8
   7   6  -1 218.171 46.4315   5
   7   6   0 2604.99 124.256   9
  -7   6   0 2313.42 99.9544   8
  -7   6   0 2378.99 121.127  13
   7   6   1 707.452 70.8330   4
   7   6   1 620.807 63.0699  12
  -7   6  -1 654.966 64.1255  13
   7   6   1 796.157 70.1445   9
   7   6   1 633.958 50.9406   8
   7   6   1 598.100 53.2956  13
   7   6   2 1947.42 92.5515  13
   7   6   2 2300.19 126.943   4
   7   6   2 2255.47 119.535   5
   7   6   2 2260.24 116.681  12
  -7   6  -2 2090.34 113.918  13
   7   6   2 2091.03 95.8429   8
   7   6   2 2155.44 118.886   9
  -7   6  -2 2018.06 120.144   1
   7   6   3 857.592 55.0439  13
   7   6   3 891.847 73.1889  12
   7   6   3 945.820 83.7282   4
   7   6   3 930.110 77.7968   5
   7   6   3 960.153 79.8392   9
   7   6   3 882.120 61.5203   8
  -7   6  -3 818.102 77.7062   1
   7   6   4 660.340 44.0599  13
   7   6   4 709.248 64.8046  12
   7   6   4 737.842 67.5422   5
   7   6   4 739.778 74.1423   4
   7   6   4 757.187 73.0732   9
   7   6   4 760.988 58.0758   8
  -7   6  -4 550.082 65.4719   1
   7   6   5 591.062 58.8628  12
   7   6   5 655.797 64.6459   5
   7   6   5 604.257 70.8286   4
   7   6   5 566.612 67.7200   9
   7   6   5 472.029 53.0077   8
  -7   6  -5 626.077 70.4384   1
   7   6   6 360.673 59.9002   4
  -7   6  -6 348.172 57.4436   1
   7   6   6 444.131 63.5548   9
   7   6   6 305.334 44.4317   8
   7   6   6 290.837 43.2641  12
   7   6   7 515.017 72.5855   4
  -7   6  -7 665.400 76.5019   1
   7   6   7 481.570 50.9824  12
  -7   6  -7 594.203 69.5052  14
  -7   6  -8 65.5139 40.8556   1
   7   6   8 51.4897 27.6998  12
  -7   6  -8 111.149 42.3951  14
   7   6   8 106.164 44.3440   9
  -7   6  -9 343.224 59.9595   1
  -7   6  -9 265.338 58.9106  14
   7   6   9 334.669 62.0931   9
  -7   6 -10 23.0895 37.3779   1
   7   7  -9 250.561 53.3629  12
   7   7  -8 6.52989 36.6145   1
  -7   7   8 23.0850 32.6919  13
   7   7  -8-14.6788 39.1576  12
   7   7  -8 5.56274 37.4875  14
   7   7  -7 399.793 65.2088   1
  -7   7   7 440.120 58.4345  13
   7   7  -7 386.990 59.3319  12
  -7   7   7 446.536 58.5341   8
   7   7  -7 574.472 73.8150  14
  -7   7   6 3.37489 31.7489   8
   7   7  -6 22.9857 32.8125   1
  -7   7   6 31.3332 31.0581  13
   7   7  -6-43.8773 43.0623  12
   7   7  -5 1222.25 102.153   1
   7   7  -5 1406.86 81.3948   9
  -7   7   5 1275.38 84.1789   8
   7   7  -5 1304.19 100.849  12
  -7   7   5 1421.87 94.7340  13
  -7   7   4 46.8256 32.3495  13
   7   7  -4-4.75898 37.7425  12
   7   7  -4 52.8336 25.9333   9
  -7   7   4 32.2105 27.9138   8
   7   7  -4 36.7693 35.0759  14
  -7   7   4 15.8907 14.1112  14
  -7   7   3 2496.43 126.149  13
  -7   7   3 2146.85 82.9730  14
  -7   7   3 2486.48 111.926   8
   7   7  -3 2622.73 118.748   9
   7   7  -3 2543.53 137.395  12
  -7   7   2 19.7915 31.0965  13
   7   7  -2-9.20322 37.4896  12
   7   7  -2-22.9541 38.3734   5
  -7   7   2 12.7975 19.3001  14
   7   7  -2 24.1044 24.3668   9
  -7   7   2-13.3772 29.7245   8
  -7   7   1 1552.49 84.2866   8
   7   7  -1 1488.88 94.4983   9
   7   7  -1 1586.74 106.845   5
   7   7   0 376.672 53.2765   9
  -7   7   0 410.580 46.1751   8
   7   7   0 451.329 62.5097   4
   7   7   1 1966.56 121.628   4
   7   7   1 1882.88 97.2507   8
   7   7   1 2297.79 120.771   9
  -7   7  -1 1981.62 114.773  13
   7   7   1 2103.69 119.552  12
   7   7   2 492.141 60.2183  12
   7   7   2 325.118 37.1353   1
   7   7   2 580.197 64.2659   9
   7   7   2 454.406 50.2572   8
   7   7   2 460.731 65.1411   4
   7   7   3 527.478 43.9062  13
   7   7   3 595.836 65.6558  12
   7   7   3 525.204 68.0270   4
   7   7   3 591.626 66.9313   9
   7   7   3 495.234 51.3817   8
  -7   7  -3 469.367 61.5659   1
   7   7   3 253.436 28.8986   1
   7   7   3 294.241 29.5474   1
  -7   7  -4 269.894 51.0940   1
   7   7   4 252.596 41.0021   8
   7   7   4 295.091 32.0693  13
   7   7   4 306.355 48.2099  12
   7   7   4 324.848 54.2285   9
   7   7   4 286.726 53.6326   4
  -7   7  -5 633.085 66.3521  14
   7   7   5 464.481 58.8885  12
   7   7   5 560.098 72.4957   4
   7   7   5 598.147 73.7882   9
   7   7   5 537.808 57.9487   8
  -7   7  -5 682.370 75.7860   1
   7   7   6 438.588 53.2612  12
  -7   7  -6 345.155 56.2435  14
   7   7   6 447.840 65.8441   4
   7   7   6 469.449 67.3747   9
   7   7   6 378.696 53.2041   8
  -7   7  -6 439.949 63.8554   1
   7   7   7 13.0573 30.1120  12
  -7   7  -7 115.825 42.1043  14
   7   7   7 36.8474 32.5610   8
   7   7   7 39.9614 37.4843   4
  -7   7  -7 28.3228 37.6931   1
  -7   7  -8 767.334 82.1620  14
  -7   7  -8 905.713 91.5627   1
  -7   7  -9 299.796 59.9293  14
  -7   7  -9 408.406 66.3006   1
  -7   8   9 82.2234 34.8010  13
   7   8  -9 184.280 51.2984  12
  -7   8   8 257.515 50.9257   8
   7   8  -8 432.926 72.3046   1
  -7   8   8 279.948 50.4428  13
   7   8  -8 456.941 66.2947  12
  -7   8   7-3.91537 35.3520   8
   7   8  -7 69.3864 41.4063   1
  -7   8   7 31.8957 34.6890  13
   7   8  -7-10.4433 39.0406  12
   7   8  -6 830.293 86.2684  14
  -7   8   6 755.282 72.4641  13
  -7   8   6 735.382 70.6641   8
   7   8  -6 692.681 82.7024   1
   7   8  -6 961.022 89.4740  12
  -7   8   5 40.6762 30.7349  13
   7   8  -5 36.4017 39.2884  12
   7   8  -5 15.1923 37.4714  14
  -7   8   5 24.3310 30.9391   8
   7   8  -5 38.5649 33.1093   1
   7   8  -4 946.154 88.6984  12
   7   8  -4 824.512 82.1425  14
  -7   8   4 855.412 78.3341  13
   7   8  -4 812.707 66.0679   9
  -7   8   4 764.213 68.1331   8
   7   8  -4 778.498 79.5268   1
   7   8  -3 55.8374 30.5521   1
  -7   8   3 33.3621 32.7704  13
   7   8  -3-5.06951 40.9447  12
  -7   8   3 23.6862 12.9153  14
   7   8  -3 43.0200 28.3541   9
  -7   8   3 73.0430 31.0421   8
   7   8  -2 1427.85 106.377  12
  -7   8   2 1380.62 96.9468  13
   7   8  -2 1350.02 89.5278   9
  -7   8   2 1421.06 86.7165   8
   7   8  -2 1123.51 87.3562   1
   7   8  -1 56.1561 29.2096   1
  -7   8   1 83.6913 22.8557  14
  -7   8   1 120.284 40.4690  13
  -7   8   1 55.0099 33.0471   8
  -7   8   0 1776.23 86.8899  14
   7   8   0 2021.53 122.710  12
   7   8   0 1865.42 125.385   4
   7   8   0 1961.00 113.198   9
  -7   8   0 1810.11 97.3239   8
   7   8   0 1544.82 93.6674   1
   7   8   1 187.546 54.9304   4
   7   8   1 262.706 37.1355   1
  -7   8  -1 320.735 41.1889  14
   7   8   1 339.053 54.9197  12
   7   8   1 346.041 54.3810   9
   7   8   1 262.866 49.4063   8
  -7   8  -2 1424.60 85.7107  14
   7   8   2 1445.83 102.722  12
   7   8   2 1322.37 105.103   4
   7   8   2 1408.17 102.277   9
   7   8   2 1386.78 87.0936   8
   7   8   3 348.037 59.2376   4
  -7   8  -3 374.260 49.8000  14
   7   8   3 328.471 56.1903  12
   7   8   3 180.672 22.5245   1
   7   8   3 329.265 54.9746   9
   7   8   3 330.392 47.7492   8
  -7   8  -4 788.290 82.2004   1
  -7   8  -4 781.105 72.7460  14
   7   8   4 682.760 72.2604  12
   7   8   4 747.578 80.5643   9
   7   8   4 523.426 61.3122   8
   7   8   4 638.961 78.3002   4
   7   8   5 444.526 60.4195  12
  -7   8  -5 510.705 63.9394  14
   7   8   5 431.281 65.3227   4
   7   8   5 520.404 70.1535   9
   7   8   5 586.270 61.2822   8
  -7   8  -5 462.474 69.0664   1
  -7   8  -6 275.922 55.6401   1
   7   8   6 275.867 49.3612  12
  -7   8  -6 346.843 56.8019  14
   7   8   6 385.889 63.7416   4
   7   8   6 248.581 56.8926   9
   7   8   6 218.330 47.1568   8
   7   8   7 490.980 60.1069  12
  -7   8  -7 611.376 72.9098  14
   7   8   7 547.098 77.1308   9
   7   8   7 625.932 68.5498   8
  -7   8  -7 652.394 80.1817   1
   7   8   7 508.021 74.7689   4
   7   8   8 25.3123 38.1101   8
  -7   8  -8 88.0696 41.5982  14
  -7   9   8 61.7240 45.8845   8
  -7   9   8 7.82555 33.5186  13
  -7   9   7 610.130 67.6878  13
  -7   9   7 593.481 68.7480   8
   7   9  -7 640.072 83.0420   1
   7   9  -7 579.405 75.7506  12
   7   9  -6-16.5639 40.4102  14
  -7   9   6-8.01576 38.4415   8
   7   9  -6 11.9274 36.9695   1
  -7   9   6 37.4546 36.7597  13
   7   9  -6 33.4236 43.3485  12
   7   9  -5 732.099 82.0272  14
  -7   9   5 698.160 72.6699  13
  -7   9   5 649.124 68.0656   8
   7   9  -5 469.159 68.0514   1
   7   9  -5 727.051 81.8045  12
  -7   9   4-21.5878 33.9196  13
   7   9  -4-5.50534 39.8531  12
   7   9  -4 25.1210 38.3374  14
  -7   9   4-51.5900 43.3791   8
   7   9  -4 20.6288 32.9247   1
   7   9  -3 1181.06 101.206  12
  -7   9   3 1048.83 89.3316  13
   7   9  -3 1123.40 80.3428   9
  -7   9   3 1106.65 82.7115   8
   7   9  -3 914.037 84.3530   1
  -7   9   2-7.02623 36.1721   8
  -7   9   2 31.4214 34.2597  13
   7   9  -2 21.4905 37.1307  12
   7   9  -2 94.7893 34.9661   9
   7   9  -2 29.7628 29.0282   1
  -7   9   1 682.974 48.5289  14
  -7   9   1 920.742 83.4790  13
   7   9  -1 784.184 88.1287   4
   7   9  -1 941.075 79.1593   9
  -7   9   1 852.657 72.0040   8
   7   9  -1 713.665 66.4171   1
   7   9   0-5.54604 48.6339   4
  -7   9   0 14.0339 40.7147  13
   7   9   0 77.8747 41.9397  12
  -7   9   0 75.7868 24.3089  14
   7   9   0 41.6264 24.2146   1
   7   9   0 53.0303 35.3848   9
  -7   9   0 31.0995 37.1194   8
   7   9   0 67.9962 37.0593   8
   7   9   1 250.552 59.1303   4
   7   9   1 428.123 63.9534  12
  -7   9  -1 402.960 45.7103  14
   7   9   1 310.475 39.0573   1
   7   9   1 363.009 57.0116   9
   7   9   1 320.316 51.0002   8
   7   9   2 128.960 49.6471   4
  -7   9  -2 169.480 36.6835  14
   7   9   2 174.162 47.8531  12
  -7   9  -2 150.815 44.4297   1
   7   9   2 120.342 23.8472   1
   7   9   2 160.420 46.0341   9
   7   9   2 166.819 43.1871   8
  -7   9  -3 495.124 56.6444  14
   7   9   3 479.077 65.3383  12
  -7   9  -3 666.392 78.4000   1
   7   9   3 608.746 73.2947   9
   7   9   3 496.827 59.9137   8
   7   9   3 415.106 67.7830   4
   7   9   4 230.868 54.0444   4
   7   9   4 271.735 53.2567  12
  -7   9  -4 273.610 46.8982  14
   7   9   4 305.730 59.8031   9
   7   9   4 420.171 56.0089   8
  -7   9  -5 442.238 69.3486   1
   7   9   5 345.194 56.3750  12
  -7   9  -5 309.858 55.2680  14
   7   9   5 306.499 60.5482   4
   7   9   5 343.650 64.6072   9
   7   9   5 320.778 54.3360   8
   7   9   6 343.765 56.3232  12
   7   9   6 379.562 65.3733   4
  -7   9  -6 399.310 61.2750  14
   7   9   6 438.431 61.3568   8
  -7   9  -6 429.915 68.5574   1
  -7   9  -7 264.633 56.9404  14
   7   9   7 291.897 56.3645   8
   7   9   8 340.492 59.7672   8
  -7  10   7-8.24394 35.5847  13
  -7  10   6 788.760 77.8863   8
  -7  10   6 695.389 73.4740  13
   7  10  -5 61.8432 37.4013   1
  -7  10   5 13.1350 36.9037  13
   7  10  -5 21.7213 39.7463  14
  -7  10   5-16.6119 40.8309   8
   7  10  -4 612.694 73.2726   1
   7  10  -4 625.517 79.6447  12
  -7  10   4 590.787 67.3005   8
  -7  10   4 663.234 74.3636  13
   7  10  -3-9.47814 28.9289   1
  -7  10   3 4.63019 35.6818  13
   7  10  -3 35.0633 41.3522  12
  -7  10   3-23.6958 35.6560   8
   7  10  -2 580.496 63.3214   9
   7  10  -2 468.292 59.1245   1
  -7  10   2 441.690 60.2260   8
   7  10  -2 543.397 73.9683  12
  -7  10   2 464.703 64.9976  13
  -7  10   1 34.0372 40.3272  13
  -7  10   1 38.8113 41.0583   8
   7  10  -1 78.2753 30.3985   1
   7  10  -1 81.3210 36.9746   9
   7  10  -1 29.4899 49.7276   4
  -7  10   0 527.470 67.8300  13
   7  10   0 617.195 77.2544  12
  -7  10   0 471.435 60.4144   8
   7  10   0 431.421 62.9897   8
   7  10   0 278.284 43.1410   1
   7  10   0 489.333 64.9778   9
   7  10   0 405.712 71.9401   4
   7  10   1 170.903 57.3936   4
  -7  10  -1 178.341 34.8095  14
   7  10   1 236.975 55.3154  12
  -7  10  -1 192.790 49.4579  13
   7  10   1 162.834 46.0038   9
   7  10   1 144.461 49.5568   8
  -7  10  -2 569.021 58.4854  14
   7  10   2 667.579 78.0758  12
  -7  10  -2 806.652 87.2021   1
   7  10   2 776.000 81.0150   9
   7  10   2 664.565 70.9654   8
   7  10   2 663.490 83.6644   4
   7  10   3 113.622 48.4544   4
   7  10   3 151.605 50.2983  12
  -7  10  -3 206.734 40.8995  14
  -7  10  -3 194.082 52.9156   1
   7  10   3 227.108 55.5744   9
   7  10   3 117.986 43.8635   8
  -7  10  -4 487.112 59.0624  14
  -7  10  -4 497.805 74.2991   1
   7  10   4 374.699 67.6428   4
   7  10   4 470.037 67.3934  12
   7  10   4 377.957 58.6882   8
   7  10   5 446.374 64.7949  12
  -7  10  -5 414.396 60.3288  14
   7  10   5 323.495 56.8336   8
  -7  10  -6 153.631 47.0079  14
   7  10   6 96.9876 45.9738   8
   7  11  -4 104.118 41.3760   1
  -7  11   4 154.240 49.7530  13
  -7  11   4 100.659 46.8356   8
   7  11  -3 526.967 67.4250   1
  -7  11   3 661.159 76.3577  13
  -7  11   3 558.971 68.4760   8
   7  11  -2-38.2424 38.9119   1
  -7  11   2-9.93689 40.1259  13
  -7  11   2-17.0746 46.9792   8
   7  11  -1 426.627 74.5493   4
  -7  11   1 342.823 61.9028  13
  -7  11   1 382.898 62.4256   8
   7  11   0 43.1699 49.4027   4
  -7  11   0 131.132 45.6862  13
  -7  11   0 68.0268 44.2988   8
   7  11   0 122.823 49.9184   8
   7  11   1 339.070 71.2902   4
   7  11   1 377.970 63.3839   8
   7  11   1 412.089 68.7186  12
   7  11   2 105.709 46.3802   8
   7  11   2 80.5625 49.3386  12
   7  11   3 252.345 53.1445   8
   7  11   3 280.014 59.2410  12
  -7  11  -4 335.836 53.6039  14
   7  11   4 251.607 56.1501   8
  -7  11  -5 424.247 61.2140  14
  -8 -11   0 409.902 63.2060  10
   8 -11   2 293.059 55.1788   9
  -8 -10   6 523.183 70.7885   7
  -8 -10   4 303.676 59.8928   2
  -8 -10   3 245.966 57.5465   2
  -8 -10   3 305.482 61.9984  10
  -8 -10   2 159.523 52.7491   2
  -8 -10   2 226.479 55.9993  10
  -8 -10   1 450.093 71.3754   2
  -8 -10   1 352.824 61.9176  10
  -8 -10   0 193.033 49.6181  10
  -8 -10  -1 455.800 73.3140   2
  -8 -10  -1 455.941 63.8953  10
   8 -10   1 344.547 57.7312  11
   8 -10   2 159.422 43.4325   9
  -8 -10  -2 188.202 45.7817  10
   8 -10   2 195.296 48.1091  11
   8 -10   3 505.520 61.4786   9
   8 -10   4 34.7398 33.3302   9
  -8  -9   7 320.365 56.2064   2
  -8  -9   7 389.092 60.3144   7
  -8  -9   6 28.2262 36.1577   7
  -8  -9   6 35.5373 35.9373   2
  -8  -9   6 70.3706 45.2573   6
  -8  -9   5 341.231 64.2842  10
  -8  -9   5 317.871 58.5487   2
  -8  -9   4 192.146 54.0837  10
  -8  -9   4 219.495 53.5197   2
  -8  -9   3 455.137 66.4077  10
  -8  -9   3 394.952 63.7885   2
  -8  -9   2 564.115 72.9333  10
  -8  -9   2 537.019 72.5217   2
  -8  -9   1 515.940 68.4391  10
  -8  -9   1 640.401 77.8073   2
  -8  -9   0 250.916 50.4986  10
  -8  -9  -1 226.980 46.9563  10
   8  -9   1 243.472 49.4526  11
  -8  -9  -1 223.191 54.3528   2
   8  -9   2 600.496 66.6007   9
  -8  -9  -2 564.911 64.2190  10
   8  -9   2 516.529 67.3989  11
  -8  -9  -2 426.477 73.4306   2
   8  -9   3 93.9610 37.9046   9
  -8  -9  -3 97.1858 35.9306  10
   8  -9   3 101.646 38.3678  11
  -8  -9  -3 110.624 46.4845   2
   8  -9   4 456.771 56.2256   9
   8  -9   4 558.185 70.7406  11
  -8  -9  -4 438.775 71.8126   2
   8  -9   5 34.0775 34.6829  11
   8  -9   5 38.3187 31.4071   9
  -8  -9  -5 24.7650 37.8052   2
   8  -9   5 78.8606 48.9953   3
  -8  -8   9-4.28072 44.5473   7
  -8  -8   8 642.233 72.1407   7
  -8  -8   7 42.8479 38.3320   7
  -8  -8   7 93.3675 40.7454   2
  -8  -8   7 81.5636 44.7220   6
  -8  -8   6 640.948 82.4342  10
  -8  -8   6 636.592 77.0572   6
  -8  -8   6 685.563 69.6703   7
  -8  -8   6 589.597 70.1548   2
  -8  -8   5 311.209 55.2853   2
  -8  -8   5 309.274 60.1333  10
  -8  -8   5 238.991 46.3085   7
  -8  -8   4 460.646 63.7821   2
  -8  -8   4 641.731 75.8355  10
  -8  -8   3 252.208 51.2150   2
  -8  -8   3 365.928 60.8359  10
  -8  -8   2 386.009 60.2857   2
  -8  -8   2 392.726 60.1864  10
  -8  -8   1 589.349 73.9610   2
  -8  -8   1 592.901 69.9625  10
  -8  -8   0 234.444 48.7673  10
  -8  -8  -1 1029.69 96.3772   2
  -8  -8  -1 1227.50 90.8082  10
  -8  -8  -2 359.945 51.6068  10
   8  -8   2 371.596 56.8719  11
   8  -8   2 327.193 51.7267   9
  -8  -8  -2 250.939 53.1579   2
  -8  -8  -3 685.547 64.8918  10
  -8  -8  -3 790.694 86.1738   2
   8  -8   3 814.936 72.7487   9
   8  -8   3 592.768 70.5803  11
  -8  -8  -4 231.931 41.3405  10
   8  -8   4 219.914 48.1689  11
   8  -8   4 159.637 40.2541   9
  -8  -8  -4 168.766 48.4603   2
   8  -8   5 1201.56 88.8597   7
   8  -8   5 1166.91 81.1745   9
  -8  -8  -5 1195.46 103.839   2
   8  -8   5 1127.36 97.7793  11
   8  -8   6 132.747 33.5465   9
   8  -8   6 133.204 43.0017   7
  -8  -8  -6 152.644 51.9600   2
  -8  -8  -7 426.548 67.7970   2
  -8  -7   9 304.128 56.7252   7
  -8  -7   9 337.269 59.7710   6
  -8  -7   8-17.7231 40.8204  10
  -8  -7   8 3.82537 36.2231   7
  -8  -7   8 4.75080 38.0202   6
  -8  -7   8-14.9470 27.6448   2
  -8  -7   7 380.550 59.1268   7
  -8  -7   7 363.471 54.2589   2
  -8  -7   7 459.917 65.9272   6
  -8  -7   6 60.9643 43.5625  10
  -8  -7   6 60.5162 32.6823   7
  -8  -7   6 56.5937 36.1117   2
  -8  -7   6 59.6277 38.9987   6
  -8  -7   5 461.186 60.2502   2
  -8  -7   5 595.571 73.5000  10
  -8  -7   5 442.463 54.9401   7
  -8  -7   4 402.521 62.2036  10
  -8  -7   4 519.210 63.3418   2
  -8  -7   3 892.487 84.7279  10
  -8  -7   3 774.865 79.6677   2
  -8  -7   2 468.683 62.1867  10
  -8  -7   2 301.925 55.9760   2
  -8  -7   1 777.381 75.9439  10
  -8  -7   1 707.420 77.2286   2
  -8  -7   0 1195.96 89.4067  10
   8  -7   1 256.545 47.8687   9
  -8  -7  -1 286.204 47.0456  10
   8  -7   2 887.332 76.1593   9
  -8  -7  -2 924.931 75.9042  10
  -8  -7  -2 913.895 87.6838   2
   8  -7   3 398.388 39.0680   6
  -8  -7  -3 301.164 47.7259  10
   8  -7   3 439.752 55.3091   9
  -8  -7  -3 336.595 58.9606   2
   8  -7   4 940.855 85.4002  11
   8  -7   4 858.173 61.0259   6
  -8  -7  -4 868.442 70.3144  10
   8  -7   4 1076.06 79.3997   9
  -8  -7  -4 830.428 85.8589   2
   8  -7   5 240.271 44.3351   7
   8  -7   5 283.851 42.2277   6
   8  -7   5 306.425 53.3359  11
  -8  -7  -5 258.706 41.2435  10
   8  -7   5 386.933 49.0098   9
   8  -7   5 361.541 63.9172   3
  -8  -7  -5 311.120 58.2506   2
   8  -7   6 658.766 59.5574   9
   8  -7   6 680.359 62.9117   6
   8  -7   6 622.162 65.8649   7
  -8  -7  -6 491.535 70.3079   2
   8  -7   7-19.5756 26.9918   9
   8  -7   7-3.68522 36.2300   7
   8  -7   7 18.3314 29.6065   6
  -8  -7  -7-11.1636 34.0735   2
   8  -7   8 587.018 66.2060   6
  -8  -7  -8 757.808 84.7905   2
  -8  -7  -9 59.8624 41.9633   2
   8  -7   9 61.8266 40.1812   6
  -8  -6  10 431.095 61.5380   7
  -8  -6  10 392.565 60.8313   6
  -8  -6   9-22.9941 37.2201   7
  -8  -6   9-26.6041 37.0633   6
  -8  -6   9 51.9027 45.3057  10
  -8  -6   8 612.291 78.6594  10
  -8  -6   8 761.365 71.3026   7
  -8  -6   8 689.565 73.8065   6
  -8  -6   8 549.426 58.1683   2
  -8  -6   7 29.6530 32.6174   7
  -8  -6   7 68.2034 38.2366   6
  -8  -6   7 85.4640 33.0964   2
  -8  -6   6 786.828 76.7819   6
  -8  -6   6 923.199 71.5590   7
  -8  -6   6 744.950 71.5162   2
  -8  -6   5 176.043 37.0231   7
  -8  -6   5 140.373 44.7893  10
  -8  -6   5 179.415 42.9004   2
  -8  -6   4 842.043 64.7460   7
  -8  -6   4 923.490 80.9698   2
  -8  -6   4 983.698 86.9940  10
  -8  -6   3 556.320 63.6515   2
  -8  -6   3 555.953 66.1833  10
  -8  -6   2 765.173 73.8999   2
  -8  -6   2 749.661 73.5376  10
  -8  -6   1 740.819 75.7705   2
  -8  -6   1 981.480 80.0529  10
  -8  -6   0 580.482 64.7056  10
   8  -6   1 1877.97 107.479   9
  -8  -6  -1 1832.37 106.875  10
  -8  -6  -2 200.484 41.0743  10
  -8  -6  -2 194.501 44.7204   2
   8  -6   2 282.151 47.7696   9
   8  -6   2 241.730 28.1113   6
  -8  -6  -3 1132.03 67.0345   7
   8  -6   3 1078.66 61.8350   6
  -8  -6  -3 1234.79 83.0070  10
   8  -6   3 1269.58 85.4302   9
  -8  -6  -3 1195.09 97.0049   2
  -8  -6  -4 44.2163 30.3433  10
  -8  -6  -4 31.0335 33.5345   2
   8  -6   4 132.814 36.9738   9
   8  -6   4 78.0295 25.5763   6
   8  -6   4 92.7466 30.9804   7
   8  -6   5 1203.48 76.3389   6
   8  -6   5 1265.22 83.0127   7
  -8  -6  -5 1248.14 79.9478  10
   8  -6   5 1335.67 86.4527   9
  -8  -6  -5 1274.48 102.503   2
   8  -6   5 1416.35 109.487   3
   8  -6   6 34.2477 30.4314   7
   8  -6   6 51.2056 30.3124   6
  -8  -6  -6 26.4670 27.5516  10
   8  -6   6 21.7815 29.2807   9
   8  -6   6-5.55015 39.7338   3
  -8  -6  -6 42.3427 33.7969   2
   8  -6   7 459.886 59.2654   7
   8  -6   7 595.043 61.4382   6
   8  -6   7 498.121 52.5362   9
  -8  -6  -7 600.873 73.2975   2
   8  -6   7 680.400 82.3785   3
   8  -6   8 80.3896 39.8379   7
   8  -6   8 72.1151 35.9280   6
   8  -6   8 43.4930 26.9058   9
   8  -6   8 48.6665 43.0597   3
  -8  -6  -8-5.30745 33.8999   2
  -8  -6  -9 315.105 57.2292   2
   8  -6   9 351.673 56.8883   6
  -8  -5  11 481.101 63.2073   6
  -8  -5  11 404.409 61.4402   7
  -8  -5  10 44.6183 46.2355  10
  -8  -5  10 28.9792 34.9003   6
  -8  -5  10 31.3525 35.8937   7
  -8  -5   9 752.555 71.5609   6
  -8  -5   9 628.031 66.6693   7
  -8  -5   9 623.080 79.6421  10
  -8  -5   8 47.8313 38.0477  10
  -8  -5   8 23.9596 23.5382   2
  -8  -5   8-16.5770 33.7584   7
   8  -5  -8 45.6194 32.1391   5
  -8  -5   8 70.2424 35.4894   6
  -8  -5   7 507.555 68.9997  10
  -8  -5   7 406.210 49.7087   2
  -8  -5   7 403.516 55.1805   6
  -8  -5   7 460.276 53.6686   7
  -8  -5   6 137.133 34.8393   2
  -8  -5   6 162.802 35.3593   7
  -8  -5   6 217.730 44.1639   6
   8  -5  -5 505.483 33.5552   4
  -8  -5   5 638.686 71.2919  10
  -8  -5   5 623.024 53.2721   7
  -8  -5   5 671.833 63.8337   2
  -8  -5   4 332.634 40.9534   7
  -8  -5   4 407.701 57.1628  10
  -8  -5   4 301.333 46.7870   2
  -8  -5   3 646.854 49.5433   7
  -8  -5   3 525.110 58.9497   2
  -8  -5   3 718.734 71.1900  10
  -8  -5   2 984.234 81.5775   2
  -8  -5   2 1123.75 86.1786  10
  -8  -5   1 1686.34 107.919   2
  -8  -5   1 1925.46 109.341  10
  -8  -5   0 165.709 38.9786  10
   8  -5   0 173.478 42.2899   9
  -8  -5  -1 538.219 59.0821  10
   8  -5   1 628.799 62.7943   9
  -8  -5  -2 1590.97 94.0297  10
   8  -5   2 1708.80 97.7016   9
  -8  -5  -2 1486.06 104.429   2
  -8  -5  -3 168.295 35.3692  10
  -8  -5  -3 138.957 40.9472   2
   8  -5   3 214.614 41.4885   9
  -8  -5  -3 198.079 29.7894   7
   8  -5   3 184.363 31.4534   7
   8  -5   4 830.044 57.5979   6
  -8  -5  -4 860.822 55.6406   7
   8  -5   4 802.811 59.5630   7
  -8  -5  -4 761.053 64.0550  10
   8  -5   4 793.965 68.9828   9
  -8  -5  -4 895.205 82.5984   2
  -8  -5  -5 45.3746 25.1499   7
   8  -5   5 30.1003 23.1035   6
   8  -5   5 77.7019 28.0123   7
  -8  -5  -5 98.0968 30.6946  10
  -8  -5  -5 54.7885 34.0208   2
   8  -5   5 68.9343 32.4944   9
   8  -5   5 50.0466 36.6541   3
   8  -5   6 996.401 71.7084   6
   8  -5   6 820.785 66.6520   7
  -8  -5  -6 891.608 65.3810  10
   8  -5   6 943.726 73.1647   9
  -8  -5  -6 808.080 81.9381   2
   8  -5   6 1120.88 99.5802   3
   8  -5   7-3.56938 26.1302   6
   8  -5   7 30.9163 31.1233   7
   8  -5   7 21.6249 27.0889   9
   8  -5   7 55.7182 43.3611   3
  -8  -5  -7 50.9065 34.7478   2
   8  -5   8 1018.05 82.7740   6
   8  -5   8 1024.62 79.2974   7
   8  -5   8 1010.58 72.5726   9
   8  -5   8 1050.81 101.316   3
  -8  -5  -8 821.775 84.6584   2
   8  -5   9 56.9180 38.7018   6
   8  -5   9 48.4558 36.4534   7
   8  -5   9 98.4117 47.4232   3
  -8  -5  -9 60.6993 39.0095   2
  -8  -5 -10 540.107 68.0242   2
   8  -5  10 447.450 66.2305   6
  -8  -4  11-12.0834 39.1186   7
  -8  -4  11 31.1487 35.4041   6
  -8  -4  10 676.620 68.2938   6
  -8  -4  10 668.224 67.7293   7
  -8  -4  10 654.327 78.6641  10
  -8  -4   9 30.7962 29.7730   7
  -8  -4   9 10.8053 29.3472   6
  -8  -4   9 15.4825 38.1822  10
   8  -4  -8 964.712 74.8664   5
  -8  -4   8 901.023 86.9628  10
  -8  -4   8 936.752 70.7950   7
  -8  -4   8 909.191 73.5183   6
  -8  -4   7 221.762 48.7614  10
  -8  -4   7 187.739 39.8162   7
   8  -4  -7 191.592 40.4230   5
  -8  -4   7 233.641 42.5836   6
  -8  -4   7 186.309 35.9926   2
   8  -4  -6 1304.06 88.9300   5
  -8  -4   6 1182.09 79.6282   2
  -8  -4   6 1263.39 85.1477   6
  -8  -4   6 1446.74 77.5176   7
  -8  -4   5 521.379 47.0088   7
  -8  -4   5 402.352 50.3358   2
   8  -4  -4 785.577 50.5229   7
  -8  -4   4 828.476 52.3664   7
  -8  -4   4 809.871 68.9236   2
  -8  -4   4 949.375 80.5487  10
   8  -4  -3 795.791 46.7721   7
  -8  -4   3 816.621 48.3582   7
  -8  -4   3 784.402 68.5966   2
  -8  -4   3 732.795 70.3656  10
   8  -4  -2 886.536 47.3169   7
  -8  -4   2 872.779 46.9764   7
  -8  -4   2 882.807 74.2406   2
  -8  -4   2 995.445 76.5618  10
  -8  -4   1 477.161 56.6088   2
  -8  -4   1 658.899 63.6736  10
   8  -4   0 478.062 55.9529   9
  -8  -4   0 447.085 53.6477  10
   8  -4   1 1199.95 81.6989   9
  -8  -4  -1 1140.28 79.3624  10
   8  -4   2 957.193 72.5596   9
  -8  -4  -2 751.232 44.4261   7
   8  -4   2 803.284 45.9115   7
  -8  -4  -2 872.571 67.8628  10
   8  -4   3 1898.06 102.380   9
   8  -4   3 1858.01 76.9795   7
  -8  -4  -3 1771.66 97.3056  10
  -8  -4  -4 238.724 30.0518   7
   8  -4   4 190.766 30.0324   7
   8  -4   4 169.303 45.6446   3
   8  -4   4 252.495 42.9832   9
  -8  -4  -5 1067.74 62.3767   7
   8  -4   5 1158.75 68.6730   7
   8  -4   5 1221.20 81.6615   9
   8  -4   5 1342.28 97.9180   3
   8  -4   6 24.9071 32.0495   7
  -8  -4  -6 21.8562 28.3264   7
   8  -4   6 52.3860 28.9437   9
   8  -4   6 130.804 42.7632   3
  -8  -4  -6 72.0295 32.7937   2
   8  -4   7 1066.93 73.6224   7
   8  -4   7 1026.04 75.9033   9
  -8  -4  -7 906.292 86.3553   2
   8  -4   7 1102.87 95.8918   3
   8  -4   8 57.2200 34.4956   7
  -8  -4  -8 78.6202 38.2555   2
   8  -4   8 44.0498 27.8179   9
   8  -4   8 28.2409 40.4473   3
   8  -4   9 863.667 74.1125   7
   8  -4   9 873.795 69.2343   5
  -8  -4  -9 677.062 76.7541   2
   8  -4   9 938.322 96.0580   3
   8  -4   9 842.534 67.2916   9
  -8  -4 -10 149.766 44.3809   2
  -8  -3  11 260.634 54.2184  10
  -8  -3  11 308.391 49.0220   6
  -8  -3  11 254.801 50.8371   7
  -8  -3  10 34.7222 36.6993  10
  -8  -3  10 50.4488 31.0124   6
  -8  -3  10-21.5334 40.9887   7
  -8  -3   9 237.736 51.9660  10
  -8  -3   9 318.340 47.2096   7
  -8  -3   9 296.692 44.6890   6
   8  -3  -9 227.128 43.0870   5
  -8  -3   8 89.3048 40.2727  10
  -8  -3   8 38.9055 22.7942   2
  -8  -3   8 40.4752 30.1055   7
  -8  -3   8 48.3686 27.7015   6
   8  -3  -8 32.7355 30.8146   5
   8  -3  -7 610.188 59.7919   5
  -8  -3   7 514.436 64.7384  10
  -8  -3   7 632.033 53.7036   7
  -8  -3   7 529.038 53.4421   6
  -8  -3   7 424.117 45.3650   2
  -8  -3   6 157.459 43.9765  10
  -8  -3   6 196.574 32.6808   7
   8  -3  -6 181.792 38.1657   5
  -8  -3   6 201.566 36.8606   6
  -8  -3   6 150.751 32.3377   2
   8  -3  -5 1647.97 94.6769   5
  -8  -3   5 1454.40 86.6834   2
  -8  -3   5 1623.69 73.1930   7
  -8  -3   5 1536.85 84.3386   6
  -8  -3   4 70.7103 20.4661   7
   8  -3  -4 62.3986 20.0669   7
  -8  -3   4 30.2461 25.4231   2
  -8  -3   3 1975.29 110.411  10
  -8  -3   3 2129.29 73.9504   7
   8  -3  -3 1891.32 71.1347   7
  -8  -3   3 2043.91 106.819   2
  -8  -3   2 1091.42 78.2523  10
   8  -3  -2 844.161 44.6025   4
   8  -3  -2 1088.88 77.8856   9
   8  -3  -2 836.253 38.6231   7
  -8  -3   2 1011.83 40.9402   7
   8  -3  -1 1647.51 53.5709   7
  -8  -3   1 1743.88 54.4201   7
   8  -3  -1 1645.45 61.7103   4
  -8  -3   0 1808.62 53.1122   7
   8  -3   0 1659.59 61.9896   4
   8  -3   1 819.859 32.7793   7
   8  -3   1 906.703 69.2809   9
  -8  -3  -2 1792.62 63.0942   7
   8  -3   2 1986.61 65.4542   7
   8  -3   2 1930.27 103.008   9
   8  -3   3 488.502 34.2665   7
  -8  -3  -3 427.584 32.6965   7
   8  -3   3 472.672 55.8829   9
   8  -3   4 2540.85 92.0990   7
   8  -3   4 2298.16 126.019   3
   8  -3   4 2383.54 117.777   9
   8  -3   5 163.960 29.2656   7
  -8  -3  -5 143.339 27.1733   7
   8  -3   5 124.872 40.4222   3
   8  -3   5 158.734 37.3377   9
   8  -3   6 1063.08 65.8450   7
  -8  -3  -6 989.377 61.1542   7
   8  -3   6 919.542 73.6674   9
   8  -3   7 13.0457 25.0256   7
   8  -3   7-6.77185 26.3482   9
   8  -3   7 5.09343 34.3250   3
   8  -3   7 19.3081 28.6361   5
   8  -3   8 1231.66 80.2765   7
   8  -3   8 1180.22 82.5677   9
   8  -3   8 1171.55 103.688   3
   8  -3   8 1104.55 78.3363   5
   8  -3   9 39.9572 36.8531   7
   8  -3   9 80.7608 32.0842   5
   8  -3   9 62.6798 32.0784   9
   8  -3   9 85.9155 44.5984   3
   8  -3  10 345.448 54.8267   7
  -8  -3 -10 433.535 60.1104   2
   8  -3  10 464.139 75.6553   3
   8  -3  10 428.702 51.4268   9
  -8  -2  12 359.144 58.4597  10
  -8  -2  11 28.1933 39.6081  10
  -8  -2  10 235.941 40.7033   6
  -8  -2  10 279.147 53.4709  10
  -8  -2   9 53.1770 32.2103   7
  -8  -2   9 24.9300 25.3763   6
   8  -2  -9-3.07141 36.0123   5
  -8  -2   9 100.235 39.9503  10
   8  -2  -8 1008.55 73.9671   5
  -8  -2   8 1042.71 87.1225  10
  -8  -2   8 1007.06 67.1855   6
  -8  -2   8 1052.50 71.4635   7
  -8  -2   7 141.344 40.3680  10
  -8  -2   7 122.107 27.3310   2
  -8  -2   7 56.6899 30.0436   7
   8  -2  -7 104.319 29.7898   8
  -8  -2   7 86.6400 25.8264   6
   8  -2  -7 142.311 36.3282   5
   8  -2  -6 1287.23 83.2697   5
  -8  -2   6 1100.69 85.4125  10
  -8  -2   6 1112.01 63.6666   7
  -8  -2   6 1192.63 68.7381   6
  -8  -2   5 110.665 36.5186  10
  -8  -2   5 91.0857 29.3305   2
  -8  -2   5 90.3733 21.9749   7
   8  -2  -5 85.8432 22.4447   7
   8  -2  -5 114.920 35.0664   5
  -8  -2   5 134.531 28.5864   6
  -8  -2   4 750.911 40.9177   7
   8  -2  -4 809.177 66.2027   5
  -8  -2   3 177.800 38.7259  10
   8  -2  -3 136.033 35.1590   9
  -8  -2   3 135.409 17.6360   7
   8  -2  -3 192.733 37.5554   5
   8  -2  -2 1676.88 97.4201   9
   8  -2  -2 1783.52 97.4948   5
   8  -2  -1 839.138 67.6652   9
   8  -2  -1 834.313 48.5860   4
   8  -2   0 718.009 44.8692   4
   8  -2   1 1393.05 64.0645   4
   8  -2   2 1135.97 77.1712   9
  -8  -2  -2 1052.64 65.0799   6
   8  -2   2 1041.21 56.3452   4
  -8  -2  -3 1998.69 96.6248  13
   8  -2   3 2232.11 111.190   9
   8  -2   3 2132.30 69.2345   7
  -8  -2  -3 2143.04 98.1120   6
   8  -2   4 409.096 55.0930   3
  -8  -2  -4 467.648 44.7480  13
   8  -2   4 537.953 56.5215   9
   8  -2   4 495.719 35.1304   7
  -8  -2  -4 386.722 32.6090   7
   8  -2   4 512.824 53.8664   5
   8  -2   5 3404.73 117.485   7
   8  -2   5 3440.90 147.123   9
   8  -2   5 3483.15 158.459   3
   8  -2   5 3325.29 142.664   5
   8  -2   6 140.405 29.6436   7
  -8  -2  -6 79.1319 26.0731   7
   8  -2   6 70.5506 31.7149   9
   8  -2   6 112.829 39.6414   3
   8  -2   6 123.371 34.0535   5
   8  -2   7 854.512 61.5710   7
  -8  -2  -7 801.446 57.6972   7
   8  -2   7 1058.16 77.6038   9
   8  -2   7 913.474 85.7689   3
   8  -2   7 804.702 66.9462   5
   8  -2   8-16.9107 35.7290   7
   8  -2   8 39.2679 29.3383   9
   8  -2   8 10.3873 35.0007   3
   8  -2   8 8.78163 26.4291   5
   8  -2   9 808.055 69.0130   7
   8  -2   9 767.768 61.6335   5
   8  -2   9 732.494 85.4570   3
   8  -2   9 786.975 71.7126   9
   8  -2  10 75.8753 45.8706   3
   8  -2  10 45.6146 30.3192   9
  -8  -1  12 12.9172 33.5065  10
  -8  -1  11 803.264 77.6367  10
   8  -1 -10-62.8513 44.0729  12
   8  -1 -10-64.9279 38.8886   9
  -8  -1  10-10.1683 25.7444   6
  -8  -1  10-4.34637 36.0339  10
  -8  -1   9 1349.42 98.5567  10
   8  -1  -9 1440.75 89.5036   5
  -8  -1   9 1391.75 77.9263   6
  -8  -1   8 75.0530 37.9196  10
  -8  -1   8 25.4892 18.0739   2
  -8  -1   8 55.3479 22.2832   6
   8  -1  -7 883.117 69.0773   5
  -8  -1   7 711.656 51.4555   6
  -8  -1   7 763.066 72.2065  10
   8  -1  -7 817.851 72.4860   9
   8  -1  -7 657.520 51.1745   8
  -8  -1   7 565.207 47.9971   2
   8  -1  -6 583.162 59.4067   5
  -8  -1   6 584.737 43.0993   6
   8  -1  -6 368.688 40.9435   8
  -8  -1   6 584.229 63.0439  10
   8  -1  -6 468.490 56.4114   9
  -8  -1   6 486.598 47.5234   2
  -8  -1   5 2283.71 119.116  10
   8  -1  -5 2574.17 122.780   9
  -8  -1   5 2252.90 89.1623   6
   8  -1  -5 2448.27 117.508   5
   8  -1  -4 873.830 69.8635   9
  -8  -1   4 758.726 47.3346   6
   8  -1  -4 849.499 67.1796   5
   8  -1  -3 863.324 68.7489   9
   8  -1  -3 814.305 66.1992   5
   8  -1  -2 1656.35 93.3631   9
   8  -1  -2 1463.85 88.5210   5
   8  -1  -1 831.976 66.9416   9
  -8  -1   1 952.139 68.7062  13
   8  -1  -1 849.612 66.4006   5
   8  -1   0 1742.34 97.4738   9
   8  -1   0 1860.95 98.3667   5
   8  -1   0 1874.71 82.7448   4
  -8  -1   0 1787.51 95.0327  13
   8  -1   1 485.217 42.0806   4
  -8  -1  -1 444.020 38.7689   6
  -8  -1  -1 488.167 49.4562  13
   8  -1   2 1204.85 77.9554   5
   8  -1   2 1230.96 66.0996   4
  -8  -1  -2 1198.76 72.9860  13
  -8  -1  -2 1108.92 63.2577   6
  -8  -1  -3 34.0322 23.8219  13
   8  -1   3 80.5173 31.0996   5
   8  -1   3 38.6100 20.8533   4
  -8  -1  -3 19.9144 23.1690   6
   8  -1   3 24.1550 26.6089   9
   8  -1   3 66.8418 31.4543   3
   8  -1   4 454.149 54.6492   3
  -8  -1  -4 453.024 44.9169  13
   8  -1   4 459.375 50.9977   5
   8  -1   4 481.048 54.2262   9
  -8  -1  -4 393.571 42.9585   6
   8  -1   5 15.6980 28.3494   5
  -8  -1  -5 32.5807 23.0209  13
   8  -1   5 21.5776 27.4449   9
   8  -1   5 3.94100 28.5320   3
  -8  -1  -6 1102.68 64.8324  13
   8  -1   6 1021.37 77.6551   9
   8  -1   6 1150.81 88.8549   3
   8  -1   6 1068.33 74.8923   5
  -8  -1  -7-13.7493 22.3345  13
   8  -1   7-11.2362 26.5061   9
   8  -1   7-18.4958 35.6359   3
   8  -1   7-23.8021 32.2687   5
   8  -1   8 619.787 64.6879   9
   8  -1   8 584.362 73.6240   3
   8  -1   8 558.925 53.5495   5
   8  -1   9 40.4794 20.3905  12
   8  -1   9 51.4255 28.3261   5
   8  -1   9 88.5133 35.5056   9
   8  -1   9 74.2010 42.4356   3
   8  -1  10 505.638 60.4481   9
   8  -1  10 689.930 81.6409   3
   8  -1  11 68.6402 35.6573   9
   8  -1  11 24.0734 43.0960   3
   8   0 -11 33.4487 35.2471  14
  -8   0  11 32.2800 36.4381  10
   8   0 -10 1504.87 100.344  12
  -8   0  10 1576.82 104.312  10
   8   0 -10 1646.55 101.771   9
   8   0 -10 1583.79 105.898  14
   8   0  -9-11.4571 38.4395  12
  -8   0   9 12.0263 32.0817  10
   8   0  -9-59.7008 48.5475   5
   8   0  -9 21.0956 31.2867   9
  -8   0   9 32.2025 21.4391   6
  -8   0   8 1383.61 64.1350   6
   8   0  -8 1327.24 84.8256   5
  -8   0   8 1528.32 97.1476  10
   8   0  -8 1324.84 90.2852   9
   8   0  -7 126.241 35.2081   5
  -8   0   7 87.3423 21.4347   6
   8   0  -7 94.3529 30.1145   8
  -8   0   7 122.290 38.9794  10
   8   0  -7 166.768 39.9273   9
  -8   0   7 79.5248 24.3249   2
  -8   0   6 2213.28 114.977  10
   8   0  -6 2274.95 112.076   5
   8   0  -6 1971.80 86.0512   8
   8   0  -6 2222.81 112.690   9
  -8   0   6 2065.58 76.8131   6
  -8   0   5 777.626 67.8357  10
   8   0  -5 669.285 64.1914   9
  -8   0   5 687.381 38.9417   6
   8   0  -5 777.611 64.1615   5
   8   0  -4 1597.51 90.0552   9
  -8   0   4 1373.17 51.7258   6
   8   0  -4 1560.60 89.3460   5
  -8   0   3 1683.27 97.8365  13
   8   0  -3 1909.56 99.1536   5
   8   0  -3 1883.24 99.3777   9
  -8   0   3 1618.11 60.5079   6
   8   0  -2 335.821 45.8507   9
   8   0  -2 377.021 46.2852   5
  -8   0   2 324.527 46.5919  13
  -8   0   1 400.599 47.7964  13
   8   0  -1 337.823 44.8856   5
   8   0  -1 323.850 47.0644   9
  -8   0   1 298.615 27.1086   6
  -8   0   0 51.1247 16.4575   6
  -8   0   0 95.6966 29.2759  13
   8   0   0 115.066 29.9370   5
   8   0   0 61.2797 26.7060   1
   8   0   0 77.4448 32.3361   9
   8   0   0 53.8706 25.1200   4
   8   0   1 1945.13 99.1641   1
   8   0   1 1938.81 91.8221   4
   8   0   1 1897.37 102.156   9
  -8   0  -1 2034.75 99.3984  13
  -8   0  -2 161.908 32.8438  13
   8   0   2 171.326 32.7252   1
   8   0   2 216.908 36.8722   5
  -8   0  -2 156.456 26.6969   6
   8   0   2 199.332 36.0835   3
   8   0   2 156.437 30.3227   4
   8   0   3 155.287 31.5746   4
  -8   0  -3 110.369 25.3846   6
   8   0   3 147.536 35.1259   5
   8   0   3 166.748 33.0296   1
  -8   0  -3 141.815 30.9200  13
   8   0   3 178.032 35.9955   3
  -8   0  -4-6.11056 17.2704   8
  -8   0  -4 26.1879 22.7861  13
  -8   0  -4 55.5346 24.0825   6
   8   0   4 3.17037 30.0224   5
   8   0   4 15.0221 22.9275   4
   8   0   4 41.8435 24.0843   1
   8   0   4-3.64353 26.0825   9
   8   0   4 23.5489 26.9247   3
  -8   0  -5 517.652 46.8791  13
   8   0   5 435.463 45.4651   1
   8   0   5 536.225 53.2633   5
   8   0   5 502.328 56.4430   9
  -8   0  -5 355.705 31.6390   8
   8   0   5 432.264 53.3223   3
  -8   0  -6 67.2084 25.4082  13
   8   0   6 51.5732 28.9386   5
  -8   0  -6 11.4957 28.2701   8
   8   0   6 96.2316 33.7676   9
   8   0   6 60.5038 33.1716   3
  -8   0  -7 626.312 50.6317  13
   8   0   7 614.957 57.1260   5
   8   0   7 568.655 63.2635   9
   8   0   7 578.215 66.7256   3
   8   0   8-43.8366 32.2576   5
   8   0   8-40.8195 28.1253  12
  -8   0  -8-6.32372 20.4811  13
   8   0   8 4.06064 28.7402   9
   8   0   8-28.3848 34.6293   3
   8   0   9 651.508 53.7375   5
   8   0   9 709.833 71.2290   9
   8   0   9 780.840 80.4546   3
   8   0  10 21.9830 37.0363   3
   8   0  10-24.9858 33.3267   9
   8   0  11 564.935 65.8948   9
   8   1 -12 14.0214 38.7413  14
   8   1 -11 977.638 88.5210  14
  -8   1  11 900.574 75.6739  10
  -8   1  10 3.76103 31.7036  10
   8   1 -10-72.7713 46.2124  12
   8   1 -10-8.85890 35.7738  14
   8   1  -9 1357.35 94.6203  12
   8   1  -9 1443.16 91.5410   5
  -8   1   9 1464.66 96.3740  10
   8   1  -9 1471.70 93.4007   9
   8   1  -9 1377.85 100.183  14
   8   1  -8-31.3772 41.0359  12
   8   1  -8-47.1154 39.7835   5
  -8   1   8-7.41047 29.9226  10
   8   1  -8 13.0561 29.6806   9
   8   1  -8 4.09275 30.9173  14
   8   1  -7 775.666 70.8772  12
  -8   1   7 768.642 67.8338  10
   8   1  -7 843.662 68.8702   5
   8   1  -7 669.160 51.2818   8
   8   1  -7 765.559 66.5390   9
  -8   1   6 514.670 57.3101  10
   8   1  -6 497.421 41.5954   8
   8   1  -6 532.596 57.3739   9
   8   1  -6 603.588 60.5273   5
   8   1  -5 2508.52 118.356   9
   8   1  -5 2442.89 119.525   5
   8   1  -4 803.123 65.6317   9
   8   1  -4 724.175 38.5670   8
   8   1  -4 895.274 69.8448   5
   8   1  -3 891.568 66.6950   9
  -8   1   3 808.536 67.7002  13
  -8   1   3 825.602 60.4057  14
   8   1  -3 763.758 64.0210   5
   8   1  -2 1347.61 83.7143   9
  -8   1   2 1355.36 78.3000  14
  -8   1   2 1351.93 85.1410  13
   8   1  -2 1335.35 84.1850   5
  -8   1   1 786.439 59.6534  14
  -8   1   1 1021.34 70.3132  13
   8   1  -1 873.716 66.8991   5
   8   1  -1 965.940 68.9234   9
  -8   1   1 648.797 30.2420   6
   8   1   0 1841.66 90.3434  13
  -8   1   0 1988.99 99.0960  13
   8   1   0 1803.74 96.1477   1
   8   1   0 1877.55 99.6611   5
   8   1   0 1867.28 93.4106   4
   8   1   0 1846.66 98.4766   9
  -8   1   0 1582.60 61.4318   6
   8   1   1 505.300 44.8221   3
  -8   1  -1 514.373 51.2315  13
   8   1   1 459.000 45.8715  13
   8   1   1 485.803 49.4999   4
  -8   1  -1 474.212 33.9551   6
   8   1   1 505.240 54.0536   9
   8   1   1 450.882 47.4077   1
  -8   1  -2 1097.96 71.1497  13
   8   1   2 975.429 67.0284   1
   8   1   2 1081.12 73.2174   5
   8   1   2 1051.86 70.0713   4
   8   1   2 1147.51 78.1982   9
   8   1   2 1007.05 64.4833   3
  -8   1  -3 44.1332 21.3285   6
   8   1   3 42.2358 29.3399   5
   8   1   3-13.1363 21.6014   1
  -8   1  -3 25.7448 24.3145  13
   8   1   3 69.6931 27.7424   3
   8   1   3 28.2252 23.6986   4
   8   1   4 530.652 53.9219   3
  -8   1  -4 581.935 51.9117  13
   8   1   4 458.989 45.5731   1
   8   1   4 660.483 58.3521   5
   8   1   4 519.902 53.8873   4
  -8   1  -4 484.389 30.5761   8
   8   1   4 501.607 57.8264   9
  -8   1  -4 473.502 44.2256   6
  -8   1  -5 23.5232 19.1362   8
  -8   1  -5 27.1947 24.7327  13
   8   1   5 6.88539 30.6392   3
   8   1   5 18.0056 25.4874   4
   8   1   5 3.14257 28.9787   5
   8   1   5 31.3747 27.1034   9
   8   1   5 33.1161 20.3930   1
   8   1   6 988.218 66.9566   1
   8   1   6 1005.37 66.7801  12
  -8   1  -6 1214.63 71.9485  13
   8   1   6 1033.13 73.6385   5
   8   1   6 1155.75 85.9392   9
   8   1   6 1146.24 83.4452   3
   8   1   7-16.5094 29.6802  12
  -8   1  -7-10.2781 24.8006  13
   8   1   7 20.6968 28.9482   3
   8   1   7 8.74794 30.5078   5
   8   1   7 16.7666 30.0036   9
   8   1   7 12.8717 20.9734   1
  -8   1  -8 582.922 51.2888  13
   8   1   8 591.050 54.1997   5
   8   1   8 464.896 42.8827  12
   8   1   8 514.093 61.7744   9
   8   1   8 592.569 68.4982   3
   8   1   9 17.2052 28.8171   5
   8   1   9 35.2819 33.9915   9
   8   1  10 571.875 68.3583   9
   8   1  11 13.6602 35.4338   9
   8   1  12 576.125 69.8858   9
   8   2 -11 39.4736 39.4989  14
  -8   2  10 306.857 47.1860  10
   8   2 -10 276.932 49.1460  12
   8   2 -10 262.757 53.5090  14
   8   2  -9 8.04968 31.6197  12
   8   2  -9 34.3308 32.2969   5
  -8   2   9-3.52009 27.9142  10
   8   2  -9 17.8211 28.3077   9
   8   2  -9-9.19098 36.4417  14
   8   2  -8 1157.42 87.3355  12
   8   2  -8 1158.29 82.4668   5
  -8   2   8 995.882 78.3349  10
   8   2  -8 1100.53 77.8209   9
   8   2  -8 999.364 86.3713  14
  -8   2   7 88.8507 24.0820   2
   8   2  -7 113.802 37.5816  14
   8   2  -7 92.6343 35.9182  12
   8   2  -7 100.059 34.5727   5
  -8   2   7 89.6553 33.9837  10
  -8   2   7 87.0416 24.2000  11
   8   2  -7 155.074 36.7396   9
   8   2  -7 101.615 29.5287   8
   8   2  -6 1315.14 87.2353   5
  -8   2   6 840.890 60.1671   2
   8   2  -6 1187.01 87.8465  12
  -8   2   6 994.794 65.7291  11
   8   2  -6 1129.22 62.2461   8
   8   2  -6 1139.99 77.7079   9
   8   2  -5 140.559 38.5904   5
   8   2  -5 92.1064 33.3329   9
   8   2  -5 121.344 34.6744  12
  -8   2   5 92.5309 35.6438  13
   8   2  -4 692.000 63.8486   5
  -8   2   4 759.243 57.0081  14
   8   2  -4 682.963 40.4668   8
   8   2  -4 744.966 62.5719   9
   8   2  -4 717.703 67.9095  12
   8   2  -3 188.578 37.2091   5
  -8   2   3 132.303 31.9707  14
   8   2  -3 146.091 18.1010   8
   8   2  -3 172.672 37.7167   9
   8   2  -3 165.104 38.8014  12
   8   2  -2 1517.19 86.0086   9
   8   2  -2 1524.32 88.1659   5
  -8   2   2 1531.31 78.3483  14
  -8   2   2 1612.06 90.2477  13
   8   2  -1 943.098 69.3828   9
   8   2  -1 861.906 69.6814   5
  -8   2   1 754.955 64.0849  13
  -8   2   1 847.035 61.5852  14
   8   2   0 693.801 45.5693   3
  -8   2   0 799.491 64.0847  13
   8   2   0 762.108 57.0994  13
   8   2   0 845.017 64.3866   4
   8   2   0 781.453 66.2198   5
   8   2   0 838.873 66.2056   9
  -8   2   0 592.101 29.4609   6
   8   2   1 1323.01 66.1372   3
  -8   2  -1 1404.77 82.6647  13
   8   2   1 1341.65 74.4980  13
   8   2   1 1179.22 76.7466   1
   8   2   1 1415.66 84.3313   4
   8   2   1 1396.50 86.1590   9
  -8   2  -1 1183.98 52.5630   6
  -8   2  -2 1093.37 73.4095  13
   8   2   2 937.583 62.2941  13
   8   2   2 1022.61 72.8704  12
   8   2   2 952.350 64.6963   1
   8   2   2 1071.09 74.7964   4
   8   2   2 1061.72 75.9291   5
   8   2   2 1110.11 78.5036   9
   8   2   2 1106.35 62.6162   3
   8   2   3 2112.27 95.0352   3
  -8   2  -3 2139.50 103.292  13
   8   2   3 2160.71 104.324  12
   8   2   3 1734.62 89.9454   1
   8   2   3 1993.72 105.480   4
   8   2   3 2034.37 105.402   5
  -8   2  -3 2020.00 63.6894   8
   8   2   3 2259.52 115.219   9
  -8   2  -3 1824.93 82.4001   6
   8   2   4 501.444 50.3093   3
  -8   2  -4 504.954 51.6092  13
   8   2   4 504.957 52.3200  12
   8   2   4 412.532 42.2091   1
   8   2   4 475.923 54.9503   4
   8   2   4 554.562 55.6850   5
  -8   2  -4 449.470 32.2281   8
  -8   2  -4 367.376 39.8532   6
   8   2   5 3090.44 123.394   1
   8   2   5 3069.97 131.450  12
  -8   2  -5 3374.31 138.304  13
   8   2   5 3458.39 151.261   4
   8   2   5 3527.19 143.447   5
  -8   2  -5 3256.20 111.248   8
   8   2   5 3558.41 157.428   9
   8   2   5 3522.96 141.908   3
   8   2   6 128.526 29.7434  12
  -8   2  -6 109.281 31.5179  13
   8   2   6 141.474 35.5073   3
   8   2   6 126.073 37.5028   4
   8   2   6 131.308 34.0235   5
   8   2   6 111.474 39.0875   9
   8   2   6 100.316 24.5782   1
   8   2   7 842.956 56.2223   1
  -8   2  -7 836.671 75.1423   1
   8   2   7 755.672 57.3842  12
  -8   2  -7 945.332 68.0121  13
   8   2   7 900.220 67.6591   5
   8   2   7 923.588 82.9042   9
   8   2   7 968.115 79.3091   3
  -8   2  -8 42.6056 26.5478  13
   8   2   8-10.2276 22.1876  12
   8   2   8 47.2403 26.9914   5
   8   2   8 9.19337 32.9058   9
  -8   2  -8 41.6766 30.5055   1
   8   2   9 787.304 79.7107   9
  -8   2  -9 806.426 77.6175   1
   8   2   9 650.352 55.8309   5
  -8   2 -10 43.0254 32.1917   1
   8   2  10 67.8405 39.4987   9
   8   2  11 398.342 63.0632   9
   8   2  12 112.254 45.6897   9
   8   3 -11 347.875 62.0816  14
  -8   3  10 25.6413 30.3535  10
   8   3 -10 12.3499 32.9482  12
   8   3 -10 20.4214 40.8600  14
  -8   3   9 299.634 45.4772  10
   8   3  -9 318.976 49.7438   5
   8   3  -9 247.772 47.8193  12
   8   3  -9 299.801 56.3059  14
   8   3  -8 29.5035 32.4967  12
   8   3  -8 14.9964 29.1917   5
  -8   3   8 43.0692 27.2464  10
   8   3  -8 70.9054 29.5329   9
   8   3  -8 65.9219 40.6624  14
   8   3  -7 522.316 66.5450  14
   8   3  -7 550.618 62.9116  12
  -8   3   7 410.384 41.1468  11
   8   3  -7 613.341 63.0119   5
  -8   3   7 448.151 52.4330  10
   8   3  -7 571.056 54.7439   9
  -8   3   7 423.039 40.2482   2
   8   3  -6 137.869 39.0951  14
  -8   3   6 138.788 31.9464  14
   8   3  -6 232.907 45.4964  12
  -8   3   6 116.238 38.1560  13
   8   3  -6 242.998 45.2393   5
  -8   3   6 149.536 29.1223  11
   8   3  -6 218.425 33.2651   8
   8   3  -6 157.632 35.7498   9
  -8   3   6 144.110 29.5123   2
  -8   3   5 1853.30 106.803  13
  -8   3   5 1453.79 80.0275  14
   8   3  -5 1453.04 95.7076   5
   8   3  -5 1682.77 104.501  12
   8   3  -5 1753.02 93.5182   9
  -8   3   5 1491.89 83.2302   2
  -8   3   4 16.2406 28.9909  14
   8   3  -4 49.1765 32.6647   5
   8   3  -4 12.0565 27.0929  12
  -8   3   4 11.3394 27.9726  13
   8   3  -4 35.0679 28.3780   9
  -8   3   4 70.8278 26.9524   2
   8   3  -3 2365.55 118.733   5
   8   3  -3 2102.97 114.697  12
   8   3  -3 2215.06 109.277   9
  -8   3   3 2097.97 97.6509  14
   8   3  -2 1089.09 78.0889   5
   8   3  -2 939.695 76.1193  12
   8   3  -2 1048.90 73.6978   9
  -8   3   2 847.250 60.6070  14
  -8   3   2 876.565 70.1081  13
  -8   3   1 1692.33 86.8584  14
  -8   3   1 1797.43 99.3394  13
   8   3  -1 1752.72 57.1757   8
   8   3  -1 1810.46 99.7071   9
   8   3  -1 1725.93 64.9805   3
   8   3  -1 2023.47 106.186   5
  -8   3   0 1654.09 94.4157  13
   8   3   0 1758.28 99.7250   4
  -8   3   0 1540.30 48.2080   8
   8   3   0 1733.33 52.3451   8
   8   3   0 1767.43 66.9841   3
   8   3   1 875.413 60.8768  13
  -8   3  -1 962.613 70.5378  13
   8   3   1 833.540 68.7847  12
   8   3   1 814.912 69.9665   4
  -8   3  -1 818.037 31.8441   8
   8   3   1 860.755 70.9995   9
   8   3   1 940.608 49.0517   3
  -8   3  -2 1870.48 101.846  13
   8   3   2 1905.58 90.6754  13
   8   3   2 2003.48 104.952  12
   8   3   2 1812.45 91.3726   1
   8   3   2 2031.22 108.980   4
   8   3   2 1971.31 106.239   5
   8   3   2 2005.66 110.741   9
   8   3   2 2090.48 84.1745   3
   8   3   3 445.781 42.1033   3
  -8   3  -3 472.398 50.8286  13
   8   3   3 515.265 53.2289  12
   8   3   3 538.223 46.2473  13
   8   3   3 450.733 44.2015   1
   8   3   3 472.954 58.1892   4
   8   3   3 461.588 53.3756   5
   8   3   3 421.957 55.1886   9
  -8   3  -3 516.596 42.0513   6
  -8   3  -4 2444.51 114.869  13
   8   3   4 2299.28 110.623  12
   8   3   4 2358.08 122.073   4
   8   3   4 2436.68 117.253   5
  -8   3  -4 2261.71 97.6363   6
   8   3   4 2457.04 103.950   3
   8   3   5 212.124 42.5827   4
   8   3   5 107.665 34.7906   5
   8   3   5 175.238 34.5378   3
   8   3   5 99.3613 29.4269  12
  -8   3  -5 180.717 35.6094  13
   8   3   5 115.436 24.8941   1
  -8   3  -6 972.739 72.5208  13
   8   3   6 929.907 65.9818  12
   8   3   6 1076.28 87.4292   9
  -8   3  -6 1108.69 85.6191   1
   8   3   6 983.580 83.0605   4
   8   3   6 988.242 73.3831   5
  -8   3  -7-16.2958 29.2141  13
   8   3   7-10.1382 25.5108  12
   8   3   7-6.21556 25.9770   5
   8   3   7 37.8193 34.5991   9
  -8   3  -7 8.94841 28.1526   1
   8   3   8 897.426 61.0724  12
   8   3   8 1063.50 73.9637   5
   8   3   8 1209.50 97.6579   9
  -8   3  -8 1163.13 80.5292  13
  -8   3  -8 1235.75 94.2925   1
   8   3   9 86.4522 30.3873   5
   8   3   9 151.520 45.9710   9
  -8   3  -9 32.6965 31.1407   1
  -8   3  -9 116.634 33.5666  13
   8   3  10 472.630 67.8017   9
  -8   3 -10 394.265 61.2985   1
   8   3  11 68.3759 42.5047   9
   8   4 -10 713.552 71.7513  12
   8   4 -10 639.093 79.2206  14
  -8   4   9-3.07979 27.2037  10
   8   4  -9 3.88658 35.8340   5
   8   4  -9 21.9770 33.2019  12
   8   4  -9 10.4345 38.5973  14
  -8   4   8 719.505 64.6907  10
   8   4  -8 932.270 80.3685   5
   8   4  -8 831.382 84.5674  14
   8   4  -8 965.712 83.4430  12
   8   4  -7 247.738 47.5622   5
   8   4  -7 325.588 55.9545  14
   8   4  -7 252.540 39.7956   9
   8   4  -7 212.155 47.3370  12
  -8   4   7 206.751 46.7388  13
   8   4  -6 1216.72 94.4588  12
   8   4  -6 1420.81 101.417  14
  -8   4   6 1269.76 93.4364  13
  -8   4   6 1128.99 66.0387  14
   8   4  -6 1416.73 95.7698   5
   8   4  -6 1315.37 81.5200   9
  -8   4   6 1194.00 72.9505   2
   8   4  -5 442.276 58.0851   5
  -8   4   5 395.664 41.0382  14
   8   4  -5 431.361 50.1651   9
   8   4  -5 375.023 54.3291  12
  -8   4   5 412.232 55.3118  13
   8   4  -4 925.555 76.7029   5
  -8   4   4 802.433 56.1165  14
  -8   4   4 867.695 74.8705  13
   8   4  -4 916.142 69.5035   9
   8   4  -4 907.115 78.3938  12
   8   4  -3 871.346 75.4311   5
  -8   4   3 754.624 55.5895  14
   8   4  -3 726.534 63.8971   9
   8   4  -3 727.895 69.4593  12
   8   4  -2 1072.17 81.2434   5
  -8   4   2 983.344 64.2157  14
  -8   4   2 998.021 49.6706   8
   8   4  -2 1169.22 79.5059   9
   8   4  -2 1144.92 84.5937  12
   8   4  -1 548.895 60.6163   5
  -8   4   1 483.602 55.8745  13
  -8   4   1 515.932 33.9208   8
   8   4   0 479.883 57.9039   4
  -8   4   0 426.955 30.2529   8
   8   4   0 335.222 31.2275   8
   8   4   0 452.108 54.2120   9
  -8   4   0 446.609 52.8949  13
   8   4   1 1131.64 85.5122   4
  -8   4  -1 1268.64 83.7477  13
  -8   4  -1 1209.52 52.1343   8
   8   4   1 1185.58 85.3354   9
   8   4   1 1187.13 52.3241   8
   8   4   1 1112.76 81.2786  12
   8   4   2 891.808 72.0197  12
  -8   4  -2 975.538 72.9300  13
   8   4   2 898.662 59.5030  13
   8   4   2 768.066 74.0955   4
   8   4   2 983.899 76.6792   5
   8   4   2 851.458 46.2607   8
   8   4   2 945.483 77.9952   9
   8   4   2 729.646 56.6296   1
   8   4   3 1953.55 104.090  12
   8   4   3 1650.04 82.5643  13
  -8   4  -3 1996.35 105.854  13
   8   4   3 1759.10 107.913   4
   8   4   3 1801.82 103.487   5
   8   4   3 1841.65 74.6681   8
   8   4   3 2006.40 113.236   9
   8   4   3 1469.61 80.0342   1
   8   4   4 172.660 36.7654  12
  -8   4  -4 208.327 41.4084  13
   8   4   4 123.021 38.1534   4
   8   4   4 208.219 42.2903   5
  -8   4  -4 207.069 32.1585   6
   8   4   4 247.985 47.0022   9
   8   4   4 128.644 24.7743   1
   8   4   5 1106.67 76.6488  12
  -8   4  -5 1297.94 86.4801  13
   8   4   5 1262.32 93.7699   4
   8   4   5 1155.52 82.9246   5
  -8   4  -5 1211.07 93.7041   1
   8   4   6 86.8414 38.3163   4
   8   4   6 124.490 37.3764   5
  -8   4  -6 85.3431 35.5107   1
  -8   4  -6 108.580 36.0710  13
   8   4   6 65.7258 25.4736  12
   8   4   7 978.334 68.9424  12
   8   4   7 1037.20 92.5672   4
   8   4   7 1075.78 79.6410   5
   8   4   7 1175.45 97.8774   9
  -8   4  -7 1091.58 82.1276  13
  -8   4  -7 1232.50 96.1602   1
  -8   4  -8 61.4006 30.9741  13
   8   4   8 39.7069 23.9611  12
   8   4   8 83.2058 32.9567   5
   8   4   8 119.733 45.3166   9
  -8   4  -8 69.6414 37.6069   1
  -8   4  -9 819.655 72.2532  13
  -8   4  -9 751.975 80.5422   1
   8   4   9 912.070 91.2196   9
  -8   4 -10 184.804 54.7810  14
  -8   4 -10 191.381 52.2667   1
   8   4  10 204.833 55.5927   9
  -8   4 -11 214.301 51.0202   1
   8   5 -10-13.5841 37.8498  12
  -8   5   9 557.849 54.9644  10
   8   5  -9 692.868 73.7346  12
   8   5  -9 671.606 81.2805  14
  -8   5   8 54.1922 29.7933  10
   8   5  -8 42.6722 35.3845   5
   8   5  -8 47.6149 39.5664  14
  -8   5   8 42.0924 35.7797  13
   8   5  -8 23.2885 34.4724  12
   8   5  -7 487.241 63.4227   5
   8   5  -7 425.571 63.7116  14
   8   5  -7 528.165 52.2502   9
   8   5  -7 596.493 67.5954  12
  -8   5   7 471.842 60.6337  13
   8   5  -6 127.114 42.1879   5
   8   5  -6 208.541 49.2198  14
   8   5  -6 101.271 32.6386   9
  -8   5   6 152.729 40.2432  13
   8   5  -6 208.269 48.2916  12
   8   5  -5 734.796 73.3863   5
   8   5  -5 687.371 73.2381  14
  -8   5   5 609.605 46.9334  14
  -8   5   5 724.086 70.2956  13
   8   5  -5 628.331 60.6248   9
   8   5  -5 581.308 67.8732  12
   8   5  -4 373.690 56.8063   5
  -8   5   4 326.698 34.8968  14
   8   5  -4 369.932 48.5174   9
  -8   5   4 258.072 36.8969   8
  -8   5   4 327.449 51.4006  13
   8   5  -4 387.712 57.2685  12
   8   5  -3 659.057 69.0084   5
  -8   5   3 631.221 64.7950  13
  -8   5   3 597.103 47.7253  14
  -8   5   3 627.383 47.2761   8
   8   5  -3 646.992 60.6746   9
   8   5  -3 633.027 67.5306  12
   8   5  -2 1288.88 91.1176   5
  -8   5   2 1070.84 66.0148  14
   8   5  -2 1199.97 82.7099   9
  -8   5   2 1244.74 61.0800   8
   8   5  -2 1010.94 84.1793  12
   8   5  -1 1953.40 111.828   5
  -8   5   1 1627.07 72.2690   8
   8   5  -1 1752.84 102.374   9
  -8   5   1 1720.32 102.635  13
   8   5   0 234.236 43.9484   9
  -8   5   0 215.060 42.8393  13
  -8   5   0 126.336 25.5769   8
   8   5   0 149.673 28.6214   8
  -8   5  -1 656.189 63.7034  13
   8   5   1 478.628 41.0711   8
   8   5   1 644.653 65.9594   9
   8   5   1 629.024 64.1940  12
   8   5   2 1377.51 92.1425  12
   8   5   2 1430.86 76.9907  13
  -8   5  -2 1641.92 98.3423  13
   8   5   2 1634.28 101.256   5
   8   5   2 1474.70 98.7918   9
   8   5   2 1454.75 68.3858   8
   8   5   3 175.038 29.7500  13
  -8   5  -3 225.112 42.6824  13
   8   5   3 151.095 37.1142  12
   8   5   3 201.287 30.5023   8
   8   5   3 216.507 44.9215   5
   8   5   3 175.048 42.4016   9
   8   5   3 94.1784 24.2921   1
   8   5   4 822.393 53.4916  13
   8   5   4 833.626 70.8525  12
  -8   5  -4 1041.17 80.2533  13
   8   5   4 871.314 58.3920   8
   8   5   4 916.519 84.1606   9
  -8   5  -4 881.031 82.5802   1
   8   5   4 944.642 79.3170   5
  -8   5  -5 55.2950 34.6351  13
   8   5   5 34.3560 28.4889  12
   8   5   5 9.81388 32.6517   9
  -8   5  -5 109.682 38.4291   1
   8   5   5 22.7879 14.0898   1
   8   5   5 57.5983 33.9272   5
  -8   5  -6 981.299 81.9419  13
   8   5   6 793.013 66.9111  12
  -8   5  -6 1015.97 90.0115   1
   8   5   6 976.568 79.1437   5
  -8   5  -7 19.9598 30.1572  13
   8   5   7 5.89068 23.7882  12
   8   5   7 52.7268 32.1889   5
   8   5   7-10.6459 37.2280   9
  -8   5  -7 41.9008 38.3355   1
   8   5   8 1031.00 97.0803   9
  -8   5  -8 1183.17 99.6508   1
  -8   5  -8 1233.67 90.0340  13
  -8   5  -9 95.1231 38.3127  13
  -8   5  -9 60.2703 40.1563   1
   8   5   9 120.500 49.9660   9
  -8   5 -10 579.990 76.1940   1
   8   6 -10 362.426 60.4148  12
   8   6  -9-19.5223 37.6141  12
  -8   6   8 620.489 58.6566  10
   8   6  -8 705.838 83.8406  14
  -8   6   8 626.044 70.2853  13
   8   6  -8 620.220 73.2544  12
   8   6  -7 149.347 48.5601  14
  -8   6   7 105.951 38.8826  13
   8   6  -7 68.9024 38.7412  12
   8   6  -6 1009.16 87.0911   5
   8   6  -6 720.275 79.8304  14
  -8   6   6 861.213 79.1803  13
   8   6  -6 803.925 63.2882   9
   8   6  -6 954.633 86.6356  12
   8   6  -5 230.006 51.1306   5
   8   6  -5 215.434 48.9468  14
   8   6  -5 247.824 39.6334   9
  -8   6   5 150.290 36.8603   8
  -8   6   5 226.205 46.3469  13
   8   6  -5 150.601 47.1333  12
   8   6  -4 843.801 80.6721   5
  -8   6   4 913.606 78.0702  13
  -8   6   4 889.422 63.0459   8
   8   6  -4 853.269 69.1569   9
   8   6  -4 911.058 84.0025  12
   8   6  -3 503.369 67.0762   5
  -8   6   3 666.926 66.8008  13
  -8   6   3 479.321 41.6789  14
   8   6  -3 645.187 60.5959   9
  -8   6   3 544.286 47.7186   8
   8   6  -3 584.850 69.3577  12
   8   6  -2 846.152 79.3905   5
  -8   6   2 814.386 54.7471  14
   8   6  -2 764.284 76.8078  12
   8   6  -2 737.571 67.8524   9
  -8   6   2 680.905 52.0301   8
  -8   6   1 838.993 56.5154   8
   8   6  -1 750.697 70.3214   9
   8   6  -1 863.931 81.0079   5
  -8   6   0 643.237 64.9123  13
   8   6   0 577.001 66.7373  12
   8   6   0 511.092 47.9281   8
   8   6   0 585.597 64.8826   9
  -8   6   0 587.191 47.6182   8
   8   6   1 1741.30 108.496   9
   8   6   1 1599.06 81.3455   8
   8   6   1 1730.06 108.317  12
   8   6   2 233.999 49.3375   5
   8   6   2 189.929 33.9259   8
   8   6   2 203.802 45.1047   9
  -8   6  -2 353.918 51.8936  13
   8   6   2 188.856 44.6885  12
   8   6   3 1074.20 84.1117  12
  -8   6  -3 1367.98 94.4550  13
   8   6   3 1054.67 63.1419  13
   8   6   3 1227.61 92.2902   5
   8   6   3 1176.93 93.3334   9
   8   6   3 1170.26 68.8492   8
   8   6   4 86.6066 29.0506   8
   8   6   4 78.3592 24.2964  13
  -8   6  -4 67.9428 35.2343  13
   8   6   4 101.571 35.0544  12
   8   6   4 59.3912 35.1996   5
   8   6   4 9.91632 31.2392   9
  -8   6  -4 62.6591 32.8947   1
  -8   6  -5 1397.00 98.1998  13
   8   6   5 1260.21 89.2453  12
   8   6   5 1286.98 96.0900   5
   8   6   5 1284.66 103.093   9
   8   6   5 1302.05 79.4358   8
  -8   6  -5 1491.39 109.777   1
   8   6   6 59.6953 37.5060   9
  -8   6  -6 30.2611 33.9709  13
   8   6   6 13.9907 28.2559  12
  -8   6  -6 43.7925 34.4531   1
   8   6   7 418.929 51.9689  12
  -8   6  -7 594.697 75.4962   1
   8   6   8 19.7482 27.5904  12
   8   6   8 58.9071 40.7181   9
  -8   6  -8 55.2920 39.1415  14
  -8   6  -8 91.8516 43.8184   1
  -8   6  -9 427.654 68.5581   1
   8   7  -9 226.236 54.6315  12
  -8   7   8 8.51308 33.4415  13
   8   7  -8-15.6311 40.9343  12
   8   7  -8-46.3711 48.4517  14
   8   7  -8-6.79223 42.7397   1
  -8   7   7 413.724 60.2052  13
   8   7  -7 497.290 67.4996  12
   8   7  -7 523.912 72.7583  14
   8   7  -7 424.117 71.5671   1
  -8   7   6 60.6405 34.3172   8
  -8   7   6 95.2882 37.4362  13
   8   7  -6 78.2588 45.4272  12
  -8   7   5 442.572 53.3215   8
   8   7  -5 559.530 54.9103   9
  -8   7   5 453.804 60.8969  13
   8   7  -5 548.584 69.6473  12
   8   7  -4 490.419 66.5510   5
  -8   7   4 359.032 46.1449   8
   8   7  -4 517.740 55.2215   9
  -8   7   4 460.131 60.0136  13
   8   7  -4 459.720 66.9946  12
   8   7  -3 867.279 86.1533   5
  -8   7   3 850.943 79.4173  13
   8   7  -3 982.381 88.5442  12
   8   7  -3 805.833 69.9891   9
  -8   7   3 747.006 61.2002   8
   8   7  -2 525.001 65.8055   5
  -8   7   2 449.101 59.6839  13
   8   7  -2 406.325 64.0749  12
  -8   7   2 496.543 50.0709   8
   8   7  -2 511.268 59.3397   9
   8   7  -1 815.806 83.7038   5
   8   7  -1 807.094 72.4330   9
  -8   7   1 666.298 57.2761   8
   8   7   0 1029.34 94.9788   4
  -8   7   0 1081.55 70.5370   8
   8   7   0 1053.60 71.6814   8
   8   7   0 1299.88 94.1130   9
   8   7   0 1152.08 93.8327  12
  -8   7  -1 314.265 51.3276  13
   8   7   1 343.969 55.7062  12
   8   7   1 150.049 40.3786   8
   8   7   1 225.767 51.3810   5
   8   7   1 340.248 54.1627   9
   8   7   1 161.369 53.6050   4
   8   7   2 832.627 87.4732   4
   8   7   2 1112.23 92.1566   5
   8   7   2 916.911 66.7264   8
   8   7   2 1109.70 91.8416   9
  -8   7  -2 953.269 83.7926  13
   8   7   2 969.523 86.1433  12
   8   7   3 187.455 28.0114   1
   8   7   3 292.833 44.4093   8
  -8   7  -3 416.778 58.8638  13
   8   7   3 338.240 55.9096  12
   8   7   3 357.500 60.0995   5
   8   7   3 449.701 63.0270   9
   8   7   3 375.132 63.9850   4
  -8   7  -4 1016.67 87.0124  13
   8   7   4 803.613 75.1900  12
   8   7   4 1012.08 93.4574   4
   8   7   4 1039.62 93.2902   9
   8   7   4 1139.61 71.8673   8
  -8   7  -4 1086.50 94.9554   1
   8   7   5 387.536 64.3266   4
  -8   7  -5 405.108 63.2709   1
   8   7   5 385.209 63.6031   9
   8   7   5 261.404 44.6894   8
   8   7   5 281.694 51.7860  12
   8   7   6 545.267 61.9257  12
  -8   7  -6 778.381 78.5660  14
   8   7   6 594.957 76.5641   4
   8   7   6 599.127 79.3456   9
   8   7   6 667.768 63.6108   8
  -8   7  -6 648.829 80.4671   1
   8   7   7-30.0090 42.4715   4
  -8   7  -7-5.97306 35.8895   1
   8   7   7-24.4500 34.7520  12
  -8   7  -7-5.26825 35.9571  14
  -8   7  -8 928.907 95.3036   1
  -8   7  -8 735.565 85.3643  14
  -8   8   8 684.988 73.8524  13
   8   8  -7 6.54767 36.7166   1
  -8   8   7 13.1249 35.9570  13
   8   8  -7 44.2597 42.6373  12
   8   8  -6 654.041 79.9411   1
   8   8  -6 692.653 82.7224  12
  -8   8   6 517.412 61.0695   8
  -8   8   6 745.194 76.1297  13
  -8   8   5 329.781 49.0090   8
   8   8  -5 259.521 56.0780   1
  -8   8   5 258.795 52.3034  13
   8   8  -5 281.245 58.7020  12
   8   8  -4 571.543 58.0221   9
  -8   8   4 466.700 55.2452   8
  -8   8   4 541.036 67.8361  13
   8   8  -4 683.561 78.6085  12
   8   8  -4 412.152 63.1799   1
  -8   8   3 415.388 59.8953  13
   8   8  -3 296.757 60.0825  12
   8   8  -3 297.473 46.5899   9
   8   8  -3 265.639 51.9537   1
  -8   8   3 256.821 43.6947   8
  -8   8   2 397.090 62.7215  13
   8   8  -2 372.326 64.2573  12
  -8   8   2 335.171 46.2373   8
   8   8  -2 439.525 56.0731   9
   8   8  -2 321.562 51.9762   1
  -8   8   1 525.205 66.0901  13
  -8   8   1 476.824 55.4518   8
   8   8  -1 587.886 63.6985   9
   8   8  -1 451.019 73.5702   4
   8   8  -1 456.940 56.6541   1
   8   8   0 165.182 35.9125   1
  -8   8   0 74.1023 38.4153   8
   8   8   0 127.880 41.4636   8
   8   8   0 205.305 53.2148  12
   8   8   0 202.313 46.1292   9
   8   8   0 22.2168 50.9512   4
  -8   8  -1 1249.24 96.6037  13
   8   8   1 1072.85 91.2880  12
   8   8   1 915.848 95.9085   4
   8   8   1 1084.83 90.6476   9
   8   8   1 1000.04 73.9633   8
   8   8   1 713.385 62.5652   1
   8   8   2 270.561 44.8582   8
  -8   8  -2 412.719 60.9792  13
   8   8   2 332.343 59.8065  12
   8   8   2 222.697 33.5520   1
   8   8   2 352.087 57.0563   9
   8   8   2 219.784 56.4602   4
  -8   8  -3 660.555 75.9612  13
   8   8   3 765.217 77.4173  12
   8   8   3 784.332 82.7303   9
   8   8   3 772.410 64.5894   8
   8   8   3 645.672 80.6254   4
   8   8   4 185.617 51.7243   4
  -8   8  -4 165.686 49.9839   1
  -8   8  -4 130.693 38.7477  14
   8   8   4 68.1830 41.4663  12
   8   8   4 133.693 45.5066   9
   8   8   4 179.460 40.6146   8
  -8   8  -5 1199.47 95.1641  14
   8   8   5 1053.89 87.2597  12
   8   8   5 1091.13 101.735   4
   8   8   5 1247.23 108.645   9
   8   8   5 1162.54 82.2557   8
  -8   8  -5 1266.34 109.205   1
   8   8   6 98.7716 39.8184  12
  -8   8  -6 178.636 47.9735  14
   8   8   6 176.076 52.0777   4
   8   8   6 164.020 55.3059   9
   8   8   6 32.1960 35.0663   8
  -8   8  -6 154.897 51.8637   1
   8   8   7 363.495 55.0412  12
  -8   8  -7 372.178 60.9278  14
   8   8   7 469.554 59.8419   8
  -8   9   7 350.212 58.4045  13
  -8   9   6 31.7826 37.3339  13
   8   9  -6 74.4922 40.2112   1
  -8   9   5 354.041 58.2589  13
   8   9  -5 373.151 67.1137  12
   8   9  -5 332.109 60.8896   1
  -8   9   4 242.023 51.4486  13
   8   9  -4 318.749 61.7842  12
  -8   9   4 183.671 44.6700   8
   8   9  -4 135.385 43.9993   1
  -8   9   3 463.446 65.9148  13
   8   9  -3 442.569 71.6890  12
   8   9  -3 487.561 57.9679   9
  -8   9   3 433.872 53.0424   8
   8   9  -3 302.998 53.1917   1
  -8   9   2 389.255 62.3803  13
  -8   9   2 453.516 55.3852   8
   8   9  -2 418.818 56.7546   9
   8   9  -2 314.103 52.6535   1
  -8   9   1 652.683 73.5002  13
   8   9  -1 501.079 59.1256   1
   8   9  -1 650.633 68.8720   9
  -8   9   1 499.068 58.7524   8
   8   9  -1 574.864 81.0011   4
   8   9   0 242.555 62.4021   4
  -8   9   0 178.263 51.1917  13
   8   9   0 230.071 55.6529  12
  -8   9   0 209.879 34.5153  14
   8   9   0 156.595 36.3020   1
   8   9   0 198.486 48.3418   9
  -8   9   0 179.659 43.9975   8
   8   9   0 234.397 47.8888   8
   8   9   1 53.4050 49.7363   4
  -8   9  -1 202.716 37.5587  14
   8   9   1 235.806 54.6825  12
   8   9   1 114.461 30.9427   1
   8   9   1 271.141 53.2163   9
   8   9   1 125.593 43.9569   8
  -8   9  -1 144.256 44.0585   8
  -8   9  -2 577.622 75.4810  13
   8   9   2 637.585 76.2852  12
  -8   9  -2 588.827 58.7765  14
   8   9   2 715.820 79.4500   9
   8   9   2 463.884 58.2013   8
   8   9   2 566.799 79.7893   4
   8   9   3 54.3433 43.7776   4
  -8   9  -3 129.548 35.6916  14
   8   9   3 83.8677 43.5765   9
   8   9   3 111.216 38.6904   8
   8   9   3 101.584 46.2481  12
  -8   9  -3 119.089 45.7999  13
   8   9   4 476.684 74.5533   4
  -8   9  -4 475.866 61.2896  14
   8   9   4 451.428 64.2737  12
   8   9   4 474.124 72.3095   9
   8   9   4 442.943 56.4158   8
  -8   9  -5 46.0383 35.4826  14
   8   9   5 4.68659 39.1774  12
  -8   9  -5 19.1531 39.5801   1
   8   9   5 37.3267 45.0367   4
   8   9   5 24.3779 42.6243   9
   8   9   5 7.42252 33.9863   8
  -8   9  -6 487.956 67.2922  14
   8   9   6 406.000 60.9674  12
   8   9   6 439.083 59.7901   8
   8   9   7-16.2226 38.6537   8
   8  10  -5 109.705 44.6559   1
  -8  10   5 226.459 53.0428  13
   8  10  -4 347.810 59.2968   1
  -8  10   4 418.950 67.1597  13
   8  10  -3 127.129 41.8114   1
  -8  10   3 320.462 55.4885  13
   8  10  -2 145.115 40.0892   1
   8  10  -2 295.565 66.0277   4
  -8  10   2 346.917 61.6337  13
   8  10  -2 270.972 59.8133  12
  -8  10   1 343.261 66.1091  13
   8  10  -1 343.230 57.7011   8
   8  10  -1 286.096 46.1737   1
   8  10  -1 411.954 60.5931   9
   8  10  -1 268.655 65.8294   4
   8  10   0 98.7562 47.2279   8
   8  10   0 157.072 46.6174   9
   8  10   0 149.675 58.0031   4
   8  10   0 181.287 52.9196  12
  -8  10   0 172.202 49.2210  13
   8  10   1 367.266 57.8461   8
   8  10   1 401.936 65.5305   9
   8  10   1 293.703 68.3151   4
   8  10   1 372.400 65.1192  12
   8  10   2 43.9050 48.4439   4
  -8  10  -2 137.915 37.8068  14
   8  10   2 231.965 54.7192   9
   8  10   2 140.340 46.7802   8
   8  10   2 145.453 52.7279  12
  -8  10  -3 462.196 56.8589  14
   8  10   3 429.076 69.0604   9
   8  10   3 494.933 72.1698  12
   8  10   3 388.097 58.7030   8
   8  10   4 15.6907 37.4391  12
   8  10   4-15.6790 38.5366   8
  -8  10  -4 41.4983 37.1991  14
   8  10   5 309.515 58.7615  12
   8  10   5 285.790 54.6066   8
  -8  10  -5 359.091 56.8622  14
   8  10   6-20.8621 41.9962   8
   8  10   6 14.1716 36.7590  12
   8  11  -3 313.133 55.0332   1
   8  11  -1 250.053 57.1985   8
   8  11   0 274.422 57.4828   8
   8  11   1 82.7934 46.8933   8
   8  11   2 194.505 51.1292   8
   8  11   3 50.0672 40.0352   8
  -9 -10   1 364.633 64.2440  10
  -9 -10   0 20.3160 37.9749  10
   9 -10   1 503.370 68.4304   9
  -9 -10  -1 567.897 71.3836  10
   9 -10   2 13.0852 38.2392   9
   9 -10   3 566.502 68.6237   9
  -9  -9   6 104.412 44.7846   2
  -9  -9   5 307.147 60.5140   2
  -9  -9   4 245.403 57.0804   2
  -9  -9   3 82.5167 45.0217   2
  -9  -9   3 91.0825 45.1889  10
  -9  -9   2 960.191 96.2867   2
  -9  -9   2 1031.15 97.3314  10
  -9  -9   1 178.637 51.6851   2
  -9  -9   1 197.811 50.4443  10
  -9  -9   0 857.006 94.7724   2
  -9  -9   0 849.506 84.3734  10
  -9  -9  -1 18.6513 34.4955  10
   9  -9   1-9.08356 38.5910   9
  -9  -9  -2 1026.06 86.5307  10
   9  -9   2 955.076 86.3426   9
  -9  -9  -2 923.200 97.9038   2
   9  -9   3 52.9691 35.1976   9
   9  -9   4 474.136 61.1362   9
  -9  -8   7 504.655 69.4297   6
  -9  -8   7 280.429 53.6754   2
  -9  -8   6 165.648 43.0781   7
  -9  -8   6 176.728 48.1704   2
  -9  -8   6 219.796 53.2713   6
  -9  -8   5 433.917 65.3059   2
  -9  -8   5 524.935 75.5847  10
  -9  -8   5 631.525 61.9544   7
  -9  -8   4 59.0880 39.3436   2
  -9  -8   4 45.4804 42.5301  10
  -9  -8   4 82.6033 37.8168   7
  -9  -8   3 674.737 78.9127   2
  -9  -8   3 725.729 82.6549  10
  -9  -8   2-11.3287 34.5771   2
  -9  -8   2 5.23338 34.8126  10
  -9  -8   1 698.536 82.5578   2
  -9  -8   1 739.521 79.2785  10
  -9  -8   0-17.6494 37.0178   2
  -9  -8   0 19.0040 32.8276  10
   9  -8   1 509.875 64.8970   9
  -9  -8  -1 549.612 66.0806  10
   9  -8   2 46.7257 36.6745   9
  -9  -8  -2 18.1949 38.1659   2
  -9  -8  -2 8.48593 31.7261  10
   9  -8   3 651.005 68.9754   9
  -9  -8  -3 699.677 86.5042   2
  -9  -8  -3 633.923 67.2512  10
   9  -8   4 111.396 40.0133   9
  -9  -8  -4 37.1498 40.1278   2
   9  -8   5 680.998 66.0945   9
  -9  -8  -5 554.421 78.9695   2
  -9  -7   8 204.649 49.9259   6
  -9  -7   7 167.512 40.9314   7
  -9  -7   7 149.540 40.6683   2
  -9  -7   7 222.979 52.9756   6
  -9  -7   6 344.288 63.7556  10
  -9  -7   6 318.915 47.2017   7
  -9  -7   6 297.997 52.2274   2
  -9  -7   6 347.804 58.7349   6
  -9  -7   5 38.5835 32.5145   2
  -9  -7   5 39.3898 40.2889  10
  -9  -7   5 37.2360 29.9811   7
  -9  -7   4 265.045 52.0301   2
  -9  -7   4 330.947 60.4647  10
  -9  -7   4 346.668 45.4638   7
  -9  -7   3 25.7293 31.4204   2
  -9  -7   3 36.4116 35.0615  10
  -9  -7   2 952.226 89.8486   2
  -9  -7   2 1121.99 93.2136  10
  -9  -7   1 70.4352 37.0243   2
  -9  -7   1 86.0249 38.9804  10
   9  -7   0 751.747 76.4063   9
  -9  -7   0 813.964 84.6494   2
  -9  -7   0 898.966 82.0673  10
   9  -7   1 38.8283 33.6013   9
  -9  -7  -1 86.7907 38.9240  10
   9  -7   2 963.407 82.6706   9
  -9  -7  -2 884.129 89.4060   2
  -9  -7  -2 975.033 81.2359  10
   9  -7   3 55.8820 35.7820   9
  -9  -7  -3 5.82536 33.2662   2
  -9  -7  -3 3.87401 33.1843  10
   9  -7   4 1527.04 98.6272   9
  -9  -7  -4 1386.87 114.497   2
  -9  -7  -4 1284.83 89.4772  10
   9  -7   5 118.296 48.2368   3
  -9  -7  -5 53.5896 39.6680   2
   9  -7   5 105.920 36.1876   9
   9  -7   6 576.554 81.7159   3
   9  -7   6 515.895 59.1379   9
  -9  -7  -6 461.218 70.6860   2
  -9  -7  -7 83.7506 46.5934   2
  -9  -6   9 227.429 49.5225   6
   9  -6  -8 220.333 48.8109   5
  -9  -6   8 207.764 49.7720   6
  -9  -6   8 231.989 44.9107   7
  -9  -6   7 209.906 43.0570   7
  -9  -6   7 277.854 53.2801   6
  -9  -6   7 236.838 46.2239   2
  -9  -6   6 315.871 43.3169   7
  -9  -6   6 199.519 44.8642   2
  -9  -6   6 281.085 51.0581   6
  -9  -6   5 481.252 61.8210   2
  -9  -6   5 428.102 64.1373  10
  -9  -6   5 573.672 53.1733   7
  -9  -6   4 287.734 49.1861   2
  -9  -6   4 309.427 55.9792  10
  -9  -6   4 212.707 36.0226   7
  -9  -6   3 273.601 51.8891   2
  -9  -6   3 258.056 51.7178  10
  -9  -6   3 240.108 35.4327   7
  -9  -6   2 128.738 41.8284   2
  -9  -6   2 109.400 43.0385  10
  -9  -6   1 740.872 77.4199   2
  -9  -6   1 843.985 80.3988  10
   9  -6   0 151.166 42.5339   9
  -9  -6   0 124.555 40.0718   2
  -9  -6   0 56.6745 35.2930  10
   9  -6   1 854.647 77.6432   9
  -9  -6  -1 717.244 70.8817  10
   9  -6   2-8.12081 30.9826   9
  -9  -6  -2-21.6679 32.0170   2
  -9  -6  -2 19.8682 30.0158  10
   9  -6   3 977.750 81.4330   9
  -9  -6  -3 1088.07 96.4701   2
  -9  -6  -3 957.398 78.3786  10
   9  -6   4 72.7010 36.7103   9
  -9  -6  -4 33.6775 33.1867   2
  -9  -6  -4 17.7797 28.4713  10
   9  -6   5 1253.82 88.8982   9
  -9  -6  -5 1067.94 100.151   2
   9  -6   5 1273.60 108.493   3
  -9  -6  -5 1205.19 83.8860  10
   9  -6   6 82.3705 46.2780   3
  -9  -6  -6 97.4231 43.3489   2
   9  -6   6 102.503 35.6497   9
   9  -6   7 704.626 89.4443   3
   9  -6   7 593.892 61.2018   9
  -9  -6  -7 597.368 76.0884   2
  -9  -6  -8 97.2659 45.0082   2
  -9  -5   9 255.644 48.1421   7
  -9  -5   9 313.614 50.5909   6
  -9  -5   8 185.085 55.2846  10
  -9  -5   8 160.978 41.3929   7
  -9  -5   8 135.350 35.0055   2
   9  -5  -8 224.746 47.4772   5
  -9  -5   8 167.047 42.9595   6
  -9  -5   7 523.982 70.2224  10
  -9  -5   7 441.275 49.7972   7
   9  -5  -7 421.048 58.0276   5
  -9  -5   7 468.379 57.8473   6
  -9  -5   7 376.436 51.0993   2
  -9  -5   6 287.620 41.4680   7
  -9  -5   6 331.127 48.2899   2
  -9  -5   6 294.127 49.7624   6
  -9  -5   5 549.893 69.9186  10
  -9  -5   5 504.891 46.3042   7
  -9  -5   5 494.044 59.0318   2
  -9  -5   4 319.248 51.7447   2
  -9  -5   4 420.902 60.8507  10
  -9  -5   4 371.312 38.5917   7
  -9  -5   3 76.0142 32.0524   2
  -9  -5   3 131.913 42.8716  10
  -9  -5   3 54.8404 21.7365   7
  -9  -5   2 962.917 83.4748  10
  -9  -5   2 852.031 50.8008   7
   9  -5  -1 475.886 60.6494   9
  -9  -5   1 525.383 64.0233  10
  -9  -5   1 414.275 58.7556   2
   9  -5   0 1364.89 93.7176   9
  -9  -5   0 1196.25 89.8487  10
   9  -5   1 8.14335 31.0732   9
  -9  -5  -1 43.8513 34.4188  10
  -9  -5  -2 1255.16 87.6802  10
   9  -5   2 1179.56 60.9092   7
   9  -5   2 1411.46 95.0220   9
  -9  -5  -2 1206.95 99.8321   2
  -9  -5  -3 18.2351 31.7302  10
  -9  -5  -3 1.52461 17.7214   7
   9  -5   3 18.8887 20.2154   7
   9  -5   3-3.90171 28.8659   9
  -9  -5  -3 36.7531 33.9956   2
  -9  -5  -4 778.567 68.2432  10
   9  -5   4 721.350 52.9919   7
   9  -5   4 797.409 71.8984   9
  -9  -5  -4 781.687 81.9385   2
   9  -5   4 838.251 84.3945   3
   9  -5   5 26.7607 37.4384   3
   9  -5   5 74.4264 32.6338   9
  -9  -5  -5 32.6583 37.6183   2
  -9  -5  -5 9.87020 27.9672  10
   9  -5   6 1025.56 82.7999   9
  -9  -5  -6 1074.62 97.3834   2
   9  -5   6 1118.25 102.268   3
  -9  -5  -6 1140.13 78.9193  10
   9  -5   7 49.3248 32.2750   9
  -9  -5  -7 11.1002 36.9324   2
   9  -5   7 70.6320 46.2506   3
   9  -5   8 174.822 39.7745   9
   9  -5   8 209.449 57.7063   3
  -9  -5  -8 122.209 48.8600   2
  -9  -5  -9 280.340 56.7599   2
   9  -5   9 335.438 51.5818   5
  -9  -4   9 305.156 61.1824  10
  -9  -4   9 275.244 45.0077   7
  -9  -4   9 261.061 45.4232   6
  -9  -4   8 431.054 66.6360  10
  -9  -4   8 385.240 48.1202   7
  -9  -4   8 304.522 42.6726   2
  -9  -4   8 431.325 53.2371   6
   9  -4  -8 488.588 58.9549   5
  -9  -4   7 403.428 64.2790  10
  -9  -4   7 266.680 43.8753   2
   9  -4  -7 400.103 55.0828   5
  -9  -4   7 403.288 46.1701   7
  -9  -4   7 482.380 53.7611   6
  -9  -4   6 293.490 44.7688   2
  -9  -4   6 338.843 39.3166   7
   9  -4  -6 376.207 53.9795   5
  -9  -4   6 356.002 48.1341   6
  -9  -4   5 1175.44 65.1166   7
  -9  -4   5 1114.93 79.8837   6
   9  -4  -5 1342.94 92.6338   5
  -9  -4   5 1134.25 84.6473   2
  -9  -4   4 469.327 63.3695  10
  -9  -4   4 426.680 37.0423   7
  -9  -4   4 524.680 60.8679   2
  -9  -4   3 849.295 77.2604  10
  -9  -4   3 719.618 39.9909   7
  -9  -4   3 737.123 69.9580   2
  -9  -4   2 171.922 42.9203  10
  -9  -4   2 151.939 20.3307   7
   9  -4  -2 203.091 45.1191   9
  -9  -4   2 117.131 38.2107   2
  -9  -4   1 654.276 66.9106  10
  -9  -4   1 494.413 29.9138   7
  -9  -4   1 594.693 66.4783   2
  -9  -4   0 352.983 52.0707  10
  -9  -4   0 218.911 20.1038   7
   9  -4   0 340.125 51.6888   9
  -9  -4   0 330.853 51.4145   2
   9  -4   1 1068.44 82.8096   9
  -9  -4  -1 1058.80 80.6492  10
  -9  -4  -1 822.123 38.3941   7
   9  -4   1 933.662 40.2446   7
   9  -4   2 19.5835 29.2854   9
  -9  -4  -2 33.1819 31.0762  10
  -9  -4  -2 3.61565 13.8357   7
   9  -4   2 31.2040 14.8875   7
   9  -4   3 592.409 64.6756   9
  -9  -4  -3 647.826 62.5709  10
   9  -4   3 574.558 38.5564   7
  -9  -4  -3 470.166 35.5856   7
   9  -4   4-15.2887 29.4559   9
   9  -4   4 14.4156 32.3831   3
   9  -4   4-15.5905 21.0815   7
   9  -4   5 922.905 77.4333   9
   9  -4   5 1160.53 98.4770   3
   9  -4   5 998.256 60.8449   7
   9  -4   6-18.6273 32.1611   9
  -9  -4  -6 15.8493 35.6028   2
   9  -4   6 21.4200 38.3308   3
   9  -4   7 820.549 73.6050   9
  -9  -4  -7 935.925 88.9597   2
   9  -4   7 833.728 90.6473   3
   9  -4   8 191.867 42.4694   5
   9  -4   8 207.348 42.2981   9
  -9  -4  -8 150.735 47.0288   2
   9  -4   8 148.294 51.3847   3
   9  -4   9 467.175 56.2449   5
   9  -4   9 577.739 80.9730   3
   9  -4   9 459.589 56.0705   9
  -9  -4  -9 450.723 68.4831   2
  -9  -4 -10 153.081 49.1370   2
  -9  -3  10 236.576 55.2925  10
  -9  -3   9 547.879 55.2529   6
  -9  -3   9 506.216 56.3631   7
  -9  -3   9 631.436 75.8669  10
  -9  -3   8 292.913 57.9103  10
  -9  -3   8 241.505 38.6744   7
  -9  -3   8 240.706 40.4186   6
   9  -3  -8 265.360 48.1744   5
  -9  -3   8 147.661 31.8106   2
  -9  -3   7 137.637 44.7414  10
  -9  -3   7 101.864 28.6622   7
  -9  -3   7 80.3084 28.7338   6
   9  -3  -7 106.063 36.6163   5
  -9  -3   7 44.9340 25.9390   2
  -9  -3   6 423.420 59.9272  10
  -9  -3   6 356.708 37.4857   7
  -9  -3   6 241.428 40.4825   2
   9  -3  -6 331.584 52.0388   5
  -9  -3   6 313.209 42.8227   6
  -9  -3   5 150.503 26.9422   7
  -9  -3   5 181.177 38.9149   2
   9  -3  -5 183.021 40.4957   5
  -9  -3   5 160.738 32.9041   6
   9  -3  -4 1009.29 80.9213   5
  -9  -3   4 753.791 43.1879   7
   9  -3  -4 879.494 80.0961   9
  -9  -3   4 830.699 71.6738   2
   9  -3  -3 250.705 45.7856   5
  -9  -3   3 189.144 18.9515   7
  -9  -3   3 288.009 49.4640  10
   9  -3  -3 265.927 49.5598   9
  -9  -3   3 149.057 36.2433   2
  -9  -3   2 1822.56 107.497  10
   9  -3  -2 1523.78 64.5604   4
   9  -3  -2 1661.86 103.057   9
   9  -3  -1 45.5421 15.6327   4
  -9  -3   1 71.0093 33.2699  10
   9  -3   0 1744.69 66.0604   4
   9  -3   1 31.2054 31.7877   9
   9  -3   2 2165.98 116.884   9
   9  -3   3 309.226 23.3019   7
  -9  -3  -3 250.103 21.4406   7
   9  -3   4 842.040 45.4841   7
   9  -3   4 991.407 78.5671   9
   9  -3   4 1056.26 88.2096   3
   9  -3   5 206.983 28.2145   7
   9  -3   5 191.752 41.8982   9
   9  -3   5 215.471 50.8791   3
   9  -3   5 248.816 46.4825   5
   9  -3   6 439.530 43.1515   7
   9  -3   6 546.424 61.3669   9
   9  -3   6 514.468 60.7143   5
   9  -3   6 619.834 72.4895   3
   9  -3   7 126.342 38.6801   9
   9  -3   7 176.374 41.2426   5
   9  -3   7 113.211 47.0208   3
   9  -3   8 374.709 53.3869   9
   9  -3   8 507.394 57.1278   5
   9  -3   8 484.048 70.0729   3
   9  -3   9 163.009 39.7530   9
   9  -3   9 167.106 52.0571   3
   9  -3   9 145.551 37.7779   5
  -9  -3 -10 325.903 57.4583   2
  -9  -2  11 19.9143 37.2240  10
  -9  -2  10 148.799 49.1840  10
   9  -2 -10 149.453 48.7357   9
  -9  -2   9 215.069 50.7853  10
   9  -2  -9 184.457 50.7944   9
  -9  -2   9 193.867 35.1791   6
   9  -2  -9 156.800 39.6838   5
   9  -2  -8 693.839 66.1797   5
  -9  -2   8 646.264 54.0341   6
  -9  -2   8 690.113 74.0281  10
   9  -2  -8 552.519 68.7381   9
  -9  -2   7 345.279 55.8228  10
  -9  -2   7 234.123 36.8259   2
   9  -2  -7 377.503 55.6019   9
  -9  -2   7 292.844 38.0669   6
   9  -2  -7 287.727 48.5541   5
   9  -2  -6 349.017 50.9937   5
  -9  -2   6 338.859 39.2346   6
  -9  -2   6 343.542 53.9280  10
   9  -2  -6 270.158 51.4458   9
  -9  -2   6 243.679 39.4942   2
  -9  -2   5 762.034 56.0930   6
  -9  -2   5 918.083 79.8172  10
   9  -2  -5 981.379 78.6544   5
  -9  -2   5 747.700 65.2898   2
   9  -2  -5 881.795 79.0183   9
   9  -2  -4 715.960 71.0030   9
   9  -2  -4 736.154 70.2859   5
   9  -2  -3 1888.78 110.807   9
  -9  -2   3 2129.38 116.573  10
   9  -2  -3 1835.82 107.996   5
   9  -2  -2 90.7315 36.4045   9
   9  -2  -2 47.4522 23.1353   4
   9  -2  -2 84.1633 35.7855   5
   9  -2  -1 2665.42 130.884   9
   9  -2  -1 2748.64 130.828   5
   9  -2  -1 2459.04 97.3339   4
   9  -2   0 103.301 22.0197   4
   9  -2   0 60.7461 33.3538   5
   9  -2   1 1161.61 61.1710   4
   9  -2   2 50.2954 32.6173   9
  -9  -2  -2 56.1215 24.7372   6
   9  -2   2 3.75989 28.9864   5
   9  -2   2 27.9989 19.7962   4
   9  -2   3 2105.86 112.154   5
   9  -2   3 1906.13 111.030   3
   9  -2   3 1972.56 111.100   9
   9  -2   4 347.739 50.3975   5
   9  -2   4 421.957 58.3357   3
   9  -2   4 405.140 55.2680   9
   9  -2   5 1146.01 83.6979   5
   9  -2   5 1096.72 90.5210   3
   9  -2   5 1242.32 89.7713   9
   9  -2   6 175.210 39.0551   5
   9  -2   6 245.513 51.6349   3
   9  -2   6 183.176 41.4770   9
   9  -2   7 592.910 60.4732   5
   9  -2   7 585.953 73.5680   3
   9  -2   7 654.365 67.1871   9
   9  -2   8 188.993 39.6187   5
   9  -2   8 256.159 55.3582   3
   9  -2   8 155.614 40.8735   9
   9  -2   9 481.069 53.0810   5
   9  -2   9 537.027 64.1140   9
   9  -2   9 534.645 74.9245   3
   9  -2  10 101.132 38.0856   9
  -9  -1  11 447.578 64.3344  10
  -9  -1  10 242.880 50.8794  10
   9  -1 -10 229.188 52.2878   9
   9  -1 -10 148.535 43.8857  12
  -9  -1   9 649.013 72.6414  10
   9  -1  -9 592.246 68.6489   9
   9  -1  -9 630.179 64.5058   5
   9  -1  -8 272.740 48.1192   5
  -9  -1   8 356.817 37.0349   6
  -9  -1   8 218.367 50.4259  10
   9  -1  -8 364.737 54.4971   9
  -9  -1   8 157.939 29.6855   2
   9  -1  -7 584.502 62.1294   5
  -9  -1   7 537.846 42.3344   6
  -9  -1   7 456.697 61.4149  10
   9  -1  -7 459.128 59.9336   9
  -9  -1   7 389.189 44.3167   2
  -9  -1   6 752.388 49.5284   6
  -9  -1   6 828.476 76.2060  10
   9  -1  -6 1021.69 79.2936   5
   9  -1  -6 1027.77 83.5780   9
  -9  -1   6 688.207 59.5016   2
   9  -1  -5 327.030 53.4890   5
   9  -1  -5 428.352 57.5167   9
  -9  -1   5 321.292 32.6304   6
  -9  -1   5 328.175 51.9450  10
  -9  -1   4 1053.11 55.3288   6
   9  -1  -4 1132.10 86.5329   9
   9  -1  -3 228.459 44.9729   9
   9  -1  -3 246.776 46.5162   5
   9  -1  -2 1790.27 105.136   9
   9  -1  -2 1784.97 104.724   5
   9  -1  -1 248.744 46.1381   5
   9  -1  -1 310.268 36.3872   4
   9  -1  -1 279.788 49.0430   9
  -9  -1   1 262.875 43.4950  13
  -9  -1   0 1742.88 99.1683  13
   9  -1   0 1848.58 103.932   5
   9  -1   0 1722.42 83.1778   4
   9  -1   0 1980.71 108.016   9
  -9  -1   0 1570.16 74.1026   6
  -9  -1  -1 9.37126 17.5188   6
   9  -1   1 20.9711 22.4924   4
  -9  -1  -1 16.6205 27.5547  13
   9  -1   2 2265.43 116.939   5
   9  -1   2 2232.25 98.4140   4
  -9  -1  -2 2448.84 114.327  13
  -9  -1  -2 2097.14 95.0034   6
  -9  -1  -3 54.2826 28.9346  13
   9  -1   3 55.0643 33.3876   5
   9  -1   3 10.5195 20.8685   4
  -9  -1  -3 30.2942 23.0600   6
   9  -1   3 50.9969 32.2478   9
   9  -1   3 25.6358 29.0509   3
  -9  -1  -4 798.413 62.1450  13
   9  -1   4 718.487 68.3588   5
   9  -1   4 803.777 73.5108   9
   9  -1   4 732.444 71.0390   3
   9  -1   5 139.408 40.4619   5
  -9  -1  -5 175.114 34.1291  13
   9  -1   5 199.146 43.1494   9
   9  -1   5 139.663 43.0211   3
  -9  -1  -6 781.701 58.4857  13
   9  -1   6 767.344 71.9293   9
   9  -1   6 833.861 80.3152   3
   9  -1   6 797.910 69.4381   5
  -9  -1  -7 129.954 29.7454  13
   9  -1   7 84.6835 34.9713   5
   9  -1   7 185.488 45.6950   3
   9  -1   7 71.0581 34.7487   9
   9  -1   8 372.779 48.0068   5
   9  -1   8 259.942 56.8737   3
   9  -1   8 286.597 51.3948   9
   9  -1   9 198.828 37.9877   5
   9  -1   9 254.475 48.9371   9
   9  -1   9 225.596 54.3512   3
   9  -1  10 234.920 49.0888   9
   9  -1  10 244.673 57.8977   3
  -9   0  11 47.8674 36.9925  10
  -9   0  10 188.753 47.8699  10
   9   0 -10 181.783 48.7874   9
   9   0 -10 271.128 52.7327  12
  -9   0   9 271.506 52.9145  10
   9   0  -9 221.051 49.7325   5
   9   0  -9 253.317 48.4432   9
   9   0  -9 191.625 48.2967  12
   9   0  -8 582.593 67.6378  12
  -9   0   8 556.751 65.5318  10
   9   0  -8 586.207 67.2020   9
   9   0  -8 730.508 68.9072   5
   9   0  -7 631.768 65.2073   5
  -9   0   7 476.792 33.4286   6
  -9   0   7 582.948 65.3139  10
   9   0  -7 673.909 67.2351   9
  -9   0   7 438.175 45.1162   2
  -9   0   6 1197.55 89.2537  10
   9   0  -6 1130.20 86.5599   5
  -9   0   6 1002.69 46.0503   6
  -9   0   5 1558.54 100.010  10
   9   0  -5 1616.50 100.583   9
  -9   0   5 1474.00 53.3690   6
   9   0  -5 1543.15 98.7904   5
  -9   0   4 449.321 27.2454   6
   9   0  -4 565.478 62.2756   5
  -9   0   3 947.676 78.5056  13
   9   0  -3 1036.92 77.9751   9
  -9   0   3 851.559 39.6763   6
   9   0  -3 1091.70 81.5634   5
  -9   0   2 786.371 69.3908  13
   9   0  -2 765.468 69.8795   9
  -9   0   2 665.640 36.3623   6
  -9   0   1 1361.59 89.1817  13
   9   0  -1 1380.91 91.4419   5
   9   0  -1 1408.52 78.7014   4
   9   0  -1 1571.98 94.9976   9
  -9   0   1 1219.88 54.6585   6
   9   0   0 93.9057 30.9498   5
   9   0   0 114.714 29.5576   4
   9   0   0 84.3864 33.1882   9
  -9   0   0 77.3697 30.4416  13
   9   0   1 1828.90 91.6607   4
   9   0   1 1621.95 101.031   9
  -9   0  -1 1845.14 99.5170  13
   9   0   2 44.4071 28.2391   5
  -9   0  -2-1.87350 18.6423   6
   9   0   2 21.7703 26.6400   3
   9   0   2 17.2033 22.3139   4
  -9   0  -2 9.75328 26.2557  13
  -9   0  -3 2127.87 104.893  13
   9   0   3 1987.76 109.168   5
   9   0   3 2002.09 99.8184   4
  -9   0  -3 1765.50 87.3346   6
   9   0   3 2117.93 106.996   3
   9   0   4 103.666 30.3210   4
   9   0   4 28.9625 34.7637   5
  -9   0  -4 69.1907 29.4436  13
   9   0   4 86.3793 35.2705   9
   9   0   4 58.3245 30.0043   3
  -9   0  -5 1029.03 72.1541  13
   9   0   5 1179.69 83.5481   5
   9   0   5 1153.01 88.4932   9
   9   0   5 1164.24 86.1324   3
   9   0   6 155.839 40.2076   5
  -9   0  -6 202.719 36.3034  13
   9   0   6 188.469 43.1507   3
  -9   0  -7 648.076 54.8775  13
   9   0   7 618.514 56.3561  12
   9   0   7 779.150 75.2000   9
   9   0   7 700.617 75.6519   3
   9   0   7 665.333 62.5567   5
   9   0   8 289.969 39.2619  12
   9   0   8 384.728 49.1890   5
   9   0   8 420.058 61.3660   3
   9   0   8 356.907 56.3427   9
   9   0   9 356.509 47.6561   5
   9   0   9 365.365 58.4843   9
   9   0   9 416.927 64.7982   3
   9   0  10 288.222 53.1150   9
   9   0  10 197.377 56.4109   3
   9   0  11 44.9555 36.6412   9
  -9   1  11 525.484 63.7029  10
  -9   1  10 181.742 45.6959  10
   9   1 -10 212.488 48.5425  12
  -9   1   9 600.850 67.0822  10
   9   1  -9 570.995 64.9743   5
   9   1  -9 540.759 64.4482   9
   9   1  -9 541.987 66.7085  12
   9   1  -8 231.508 54.0244  12
   9   1  -8 295.542 51.6884   5
  -9   1   8 308.087 49.6671  10
   9   1  -8 352.516 51.8742   9
  -9   1   8 146.127 29.1725   2
  -9   1   7 563.640 64.2251  10
   9   1  -7 436.763 57.6708   5
   9   1  -7 462.184 58.4550   9
   9   1  -7 565.796 67.8087  12
  -9   1   6 928.191 78.0542  10
   9   1  -6 930.646 79.4968   5
   9   1  -6 654.536 48.6023   8
   9   1  -6 858.280 74.7121   9
   9   1  -6 796.768 79.3210  12
   9   1  -5 370.521 53.0873   5
   9   1  -5 414.459 53.7735   9
   9   1  -4 1259.56 89.0499   5
   9   1  -4 1204.04 85.7984   9
   9   1  -3 248.645 46.9344   5
   9   1  -3 276.411 46.4013   9
  -9   1   3 279.207 48.5460  13
   9   1  -2 1857.63 106.736   5
   9   1  -2 1821.31 104.759   9
  -9   1   2 1688.32 103.155  13
  -9   1   1 173.704 16.3250   6
   9   1  -1 272.439 47.8100   5
   9   1  -1 240.140 46.0495   9
  -9   1   1 319.022 48.2707  13
  -9   1   0 1722.81 98.4358  13
   9   1   0 1919.10 104.266   5
   9   1   0 1774.06 92.7768   4
   9   1   0 1648.18 98.7455   9
   9   1   1 22.9939 23.8798   3
   9   1   1-3.19119 27.7666   4
   9   1   1 31.5317 30.0780   9
  -9   1  -1 27.7865 27.0309  13
   9   1   2 2319.13 104.977   3
  -9   1  -2 2352.17 113.655  13
   9   1   2 2215.99 115.484   5
   9   1   2 2171.81 109.191   4
   9   1   2 2400.99 122.632   9
  -9   1  -2 1925.24 84.1439   6
  -9   1  -3 59.9637 22.7712   6
   9   1   3 88.7085 30.6178   4
   9   1   3 107.373 35.5420   5
   9   1   3 33.5043 25.5012   3
  -9   1  -3 45.7347 27.1168  13
   9   1   4 784.345 67.4054   3
  -9   1  -4 928.840 68.8212  13
   9   1   4 812.061 68.7607   4
   9   1   4 782.128 69.7335   5
   9   1   4 810.549 75.7939   9
  -9   1  -4 803.632 57.5301   6
   9   1   5 111.484 35.6363   4
   9   1   5 125.583 37.9198   5
   9   1   5 145.245 36.8816  12
  -9   1  -5 187.615 36.5450  13
   9   1   5 200.989 43.8810   9
   9   1   5 176.387 40.2193   3
  -9   1  -6 842.845 65.0041  13
   9   1   6 669.556 59.8375  12
   9   1   6 771.874 76.3508   9
   9   1   6 794.841 74.0797   3
   9   1   6 822.101 69.4350   5
   9   1   7 27.6275 30.3209  12
  -9   1  -7 163.194 34.8729  13
   9   1   7 105.879 38.2076   9
   9   1   7 117.150 38.6597   3
   9   1   7 40.1520 33.1509   5
   9   1   8 223.344 35.2454  12
  -9   1  -8 370.249 44.6911  13
   9   1   8 290.578 46.1102   5
   9   1   8 361.762 57.0939   3
   9   1   8 245.581 51.1667   9
   9   1   9 155.057 38.1719   5
   9   1   9 205.557 49.1107   9
   9   1   9 167.591 48.2645   3
   9   1  10 197.936 51.2620   9
   9   1  11 266.630 55.4819   9
  -9   2  10 196.781 43.6853  10
   9   2 -10 165.779 43.8719  12
  -9   2   9 187.575 45.5886  10
   9   2  -9 260.566 49.7828   5
   9   2  -9 298.160 55.2657  12
  -9   2   8 542.611 63.1080  10
   9   2  -8 663.947 69.8245   5
   9   2  -8 752.398 68.1943   9
   9   2  -8 645.359 71.2732  12
  -9   2   7 390.685 53.7681  10
   9   2  -7 447.667 58.9110   5
   9   2  -7 441.989 54.2248   9
   9   2  -7 424.727 58.7783  12
   9   2  -6 270.357 51.2475  12
   9   2  -6 270.986 31.3915   8
   9   2  -6 322.970 51.0265   5
   9   2  -6 306.342 46.5749   9
  -9   2   6 221.133 35.8361   2
   9   2  -5 918.746 78.9801   5
  -9   2   5 907.038 80.5038  13
   9   2  -5 852.154 78.6914  12
   9   2  -5 974.945 76.4984   9
   9   2  -4 640.978 67.6989   5
   9   2  -4 706.686 65.5647   9
   9   2  -4 525.987 31.2138   8
   9   2  -4 708.425 70.8697  12
   9   2  -3 1780.70 107.627   5
  -9   2   3 1799.76 110.004  13
   9   2  -3 1789.21 109.851  12
   9   2  -3 2070.40 109.080   9
   9   2  -2 71.7057 33.0768   5
   9   2  -2 83.0298 35.5577   9
   9   2  -2 65.9830 33.0606  12
  -9   2   2 109.514 35.6166  13
   9   2  -1 2582.12 127.424   5
   9   2  -1 2423.09 123.846   9
  -9   2   1 2258.81 120.991  13
   9   2   0 63.0783 23.5478   3
   9   2   0 63.8508 32.2927   4
   9   2   0 51.1943 32.6794   9
  -9   2   0 88.5406 32.3804  13
   9   2   1 1244.78 66.6645   3
   9   2   1 1116.86 82.3073  12
  -9   2  -1 1264.08 84.4256  13
   9   2   1 1114.26 80.2947   4
   9   2   1 1192.47 87.2422   9
  -9   2  -1 955.385 48.0498   6
   9   2   2 3.85139 30.5490   5
   9   2   2 38.7143 23.3650   3
   9   2   2 22.0839 28.6502   4
   9   2   2 8.34063 31.5096   9
   9   2   2 59.7857 32.7655  12
  -9   2  -2 49.0844 28.3213  13
   9   2   3 2060.58 97.5660   3
  -9   2  -3 1934.53 104.549  13
   9   2   3 1922.78 106.187  12
   9   2   3 2107.34 111.986   4
   9   2   3 1934.01 109.338   5
   9   2   3 2218.80 120.983   9
  -9   2  -3 1707.49 81.6837   6
  -9   2  -4 294.745 36.5118   6
   9   2   4 337.355 49.8886   5
   9   2   4 309.594 48.7741   4
   9   2   4 462.240 50.5423   3
   9   2   4 293.797 39.0196   1
   9   2   4 406.471 51.6477  12
  -9   2  -4 387.330 49.0462  13
   9   2   5 950.051 66.0706   1
   9   2   5 1138.64 78.2322  12
  -9   2  -5 1088.79 78.1772  13
   9   2   5 1119.36 86.0390   4
   9   2   5 1152.15 82.9893   5
   9   2   5 1170.58 92.6911   9
   9   2   5 1120.41 79.7031   3
   9   2   6 138.817 35.0594  12
  -9   2  -6 175.147 37.0135  13
   9   2   6 126.247 36.2035   3
   9   2   6 111.250 39.4359   4
   9   2   6 110.422 36.8063   5
   9   2   6 117.766 40.1531   9
   9   2   6 145.687 29.7409   1
  -9   2  -7 563.911 59.0242  13
   9   2   7 541.313 52.7299  12
   9   2   7 559.264 70.5694   9
   9   2   7 584.471 65.0710   3
   9   2   7 633.521 62.2577   5
   9   2   8 162.847 39.6662   5
  -9   2  -8 284.742 42.7802  13
   9   2   8 131.386 31.6837  12
   9   2   8 174.325 47.3542   9
   9   2   9 445.351 66.4986   9
   9   2   9 489.336 52.9594   5
   9   2  10 128.835 49.5232   9
  -9   3  10 247.603 46.8924  10
   9   3 -10 297.613 53.0090  12
   9   3 -10 248.057 56.4444  14
  -9   3   9 476.499 57.5454  10
   9   3  -9 517.242 64.3894   5
   9   3  -9 538.860 68.0394  12
   9   3  -9 405.468 67.2337  14
  -9   3   8 241.834 46.5199  10
   9   3  -8 231.936 47.0498   5
   9   3  -8 313.381 45.7218   9
   9   3  -8 217.641 48.5653  12
  -9   3   7 86.0186 36.1831  10
   9   3  -7 117.436 35.7473   9
   9   3  -7 92.1432 36.8023   5
   9   3  -7 129.674 44.2076  12
   9   3  -6 397.413 52.6989   9
   9   3  -6 454.885 58.9435   5
   9   3  -6 505.397 63.9478  12
  -9   3   6 395.974 58.7320  13
   9   3  -5 148.930 37.7178   9
   9   3  -5 248.888 47.9212   5
   9   3  -5 122.472 41.7384  12
  -9   3   5 199.593 46.0614  13
   9   3  -4 842.013 45.8280   8
   9   3  -4 945.008 77.0163   9
   9   3  -4 1121.71 85.6735   5
   9   3  -4 1040.28 86.5782  12
   9   3  -3 165.453 19.8155   8
   9   3  -3 227.313 43.1474   9
   9   3  -3 260.384 47.2912   5
   9   3  -3 135.892 40.6419  12
   9   3  -2 1790.46 102.381   5
   9   3  -2 1564.22 98.7315  12
   9   3  -2 1862.73 99.7176   9
  -9   3   2 1507.50 94.8791  13
   9   3  -1 74.6020 37.1740   5
  -9   3   1 121.129 37.5000  13
   9   3  -1 74.7272 33.1740   9
   9   3  -1 29.3731 18.2786   3
  -9   3   0 1939.27 109.218  13
   9   3   0 1799.32 107.679   4
   9   3   0 1851.12 74.8337   3
   9   3   0 1846.57 109.097   9
   9   3   1 4.00368 34.2981  12
  -9   3  -1 22.4510 27.3935  13
   9   3   1 16.7717 30.6941   9
   9   3   1 56.1711 20.1316   3
   9   3   1 3.99464 33.1169   4
  -9   3  -2 2166.46 114.089  13
   9   3   2 2021.21 112.757  12
   9   3   2 2111.93 116.765   4
   9   3   2 2182.99 118.297   5
   9   3   2 2057.21 118.923   9
   9   3   2 2097.07 89.3236   3
  -9   3  -3 345.525 35.5865   6
   9   3   3 382.841 50.3969  12
  -9   3  -3 266.878 45.5023  13
   9   3   3 244.440 36.8505   1
   9   3   3 412.976 55.7744   5
   9   3   3 326.061 53.1725   9
   9   3   3 368.631 53.6899   4
   9   3   3 380.286 41.2700   3
  -9   3  -4 913.397 73.3504  13
   9   3   4 802.969 69.2907  12
   9   3   4 639.338 55.3015   1
   9   3   4 880.701 77.5702   4
   9   3   4 892.030 75.6053   5
  -9   3  -4 798.165 55.6821   6
   9   3   4 799.822 61.6068   3
   9   3   5 167.096 40.1358   5
   9   3   5 162.904 43.0286   4
   9   3   5 183.322 36.0305   3
   9   3   5 164.036 38.5254  12
  -9   3  -5 158.094 39.5459  13
   9   3   5 156.551 27.8317   1
   9   3   6 521.088 68.6749   9
   9   3   6 517.812 54.9857  12
  -9   3  -6 479.749 57.3458  13
   9   3   6 608.768 62.9428   5
   9   3   6 496.897 65.3947   4
   9   3   7 163.813 45.5913   9
  -9   3  -7 80.5157 33.8398  13
   9   3   7 61.0540 26.5018  12
   9   3   7 59.7606 32.2426   5
   9   3   8 336.867 42.8583  12
   9   3   8 382.856 66.4026   9
  -9   3  -8 469.659 55.3958  13
   9   3   8 390.441 51.7045   5
   9   3   9 111.537 35.1577   5
   9   3   9 145.046 49.9537   9
   9   3  10 340.408 63.5040   9
   9   4 -10 317.652 57.7541  12
  -9   4   9 275.352 46.1506  10
   9   4  -9 302.021 54.0641   5
   9   4  -9 200.711 50.0935  12
   9   4  -9 227.848 55.2449  14
  -9   4   8 396.115 52.2345  10
   9   4  -8 430.874 60.4996   5
   9   4  -8 430.876 66.4225  14
   9   4  -8 463.608 65.4664  12
   9   4  -7 493.420 63.0358   5
   9   4  -7 453.965 64.2448  12
  -9   4   7 429.528 62.4564  13
   9   4  -7 389.667 50.2312   9
   9   4  -6 321.759 54.0469   5
   9   4  -6 320.782 47.8664   9
   9   4  -6 301.825 53.0432  12
  -9   4   6 368.027 58.2362  13
   9   4  -5 1138.12 91.4132   5
  -9   4   5 1180.80 93.3032  13
   9   4  -5 1189.19 94.7551  12
   9   4  -5 1146.97 83.1357   9
   9   4  -4 564.182 67.5052   5
   9   4  -4 509.527 63.7441  12
  -9   4   4 401.407 58.1126  13
   9   4  -4 559.303 59.7340   9
   9   4  -3 932.443 82.0557   5
   9   4  -3 785.926 75.5212  12
   9   4  -3 719.404 69.6882   9
   9   4  -2 197.453 43.6413   5
   9   4  -2 231.063 43.9585   9
   9   4  -2 162.493 41.8710  12
  -9   4   2 186.060 41.6332  13
   9   4  -1 719.156 71.4578   5
   9   4  -1 520.255 31.6742   8
   9   4  -1 815.153 72.5990   9
  -9   4   1 615.859 65.3231  13
   9   4   0 465.930 58.7911  12
  -9   4   0 391.251 52.8919  13
   9   4   0 208.949 21.4952   8
  -9   4   0 206.205 18.6085   8
   9   4   0 268.172 47.1139   9
   9   4   0 317.333 54.9971   4
   9   4   1 1079.73 84.3252  12
   9   4   1 1027.16 86.2690   4
   9   4   1 886.472 40.9720   8
   9   4   1 1140.33 88.6893   9
  -9   4  -1 991.910 38.7244   8
  -9   4  -1 1254.64 86.4136  13
  -9   4  -2 9.36513 13.9958   8
   9   4   2 8.14134 30.4343  12
  -9   4  -2 7.86975 27.1897  13
   9   4   2-4.46054 32.9998   4
   9   4   2 50.6412 33.1540   5
   9   4   2 9.00035 30.3277   9
   9   4   2 8.18221 22.4158   1
   9   4   3 582.000 62.4851  12
  -9   4  -3 689.435 67.4903  13
   9   4   3 731.628 73.6438   4
   9   4   3 668.194 69.1811   5
   9   4   3 648.570 71.6321   9
   9   4   3 490.976 49.4541   1
   9   4   4-30.2394 29.4141  12
  -9   4  -4-19.5100 31.2276  13
   9   4   4-18.8163 30.4575   4
   9   4   4-8.14661 30.4535   5
   9   4   4 19.3777 33.4736   9
   9   4   4 11.2343 18.3062   1
   9   4   5 855.070 82.5405   4
   9   4   5 929.921 78.8769   5
   9   4   5 933.569 74.5765  12
  -9   4  -5 1033.68 82.0193  13
   9   4   6-35.7091 34.3777   4
   9   4   6-7.72160 31.4541   5
  -9   4  -6 19.3592 30.9856  13
   9   4   6 10.0602 24.8082  12
   9   4   7 772.820 82.4635   4
   9   4   7 856.312 74.4862   5
   9   4   7 662.391 61.0261  12
   9   4   7 936.001 90.6192   9
  -9   4  -7 867.881 77.4156  13
  -9   4  -8 204.516 46.2038  13
   9   4   8 146.601 33.1255  12
   9   4   8 182.645 52.5373   9
  -9   4  -8 120.800 45.4899   1
   9   4   8 135.331 40.1491   5
  -9   4  -9 441.396 68.6892   1
   9   4   9 426.972 69.1910   9
  -9   4 -10 48.2052 40.4750   1
   9   5  -9 238.509 54.4525  12
  -9   5   8 181.187 41.8041  10
   9   5  -8 147.964 46.7463   5
   9   5  -8 176.823 52.5068  14
   9   5  -8 236.854 51.4897  12
  -9   5   7 377.346 60.4316  13
   9   5  -7 378.942 60.5663  12
   9   5  -7 534.067 69.5348   5
   9   5  -6 314.600 56.9438   5
  -9   5   6 273.443 53.8062  13
   9   5  -6 276.774 55.4843  12
   9   5  -6 232.594 44.3813   9
   9   5  -5 618.226 71.3803   5
  -9   5   5 499.081 64.4120  13
   9   5  -5 568.535 71.1696  12
   9   5  -5 523.721 58.0026   9
   9   5  -4 341.760 56.9621   5
   9   5  -4 423.246 61.5716  12
  -9   5   4 478.434 62.5506  13
   9   5  -4 412.864 52.9353   9
   9   5  -3 122.615 40.7682   5
   9   5  -3 24.2194 35.8988  12
  -9   5   3 91.4497 35.8523  13
   9   5  -3 130.819 37.1982   9
   9   5  -2 949.808 84.8147   5
  -9   5   2 820.020 47.7082   8
   9   5  -2 960.847 78.7743   9
   9   5  -2 908.648 84.2956  12
   9   5  -1 486.428 64.2527   5
   9   5  -1 289.439 34.5584   8
   9   5  -1 425.405 56.5608   9
  -9   5   1 378.258 32.2698   8
  -9   5   1 470.141 59.9113  13
   9   5   0 1219.51 96.4509   4
   9   5   0 1039.48 54.1846   8
   9   5   0 1254.23 92.4902   9
  -9   5   0 1046.33 51.2134   8
  -9   5   0 1318.74 92.1709  13
   9   5   0 1157.01 91.8397  12
   9   5   1 3.99883 17.4989   8
  -9   5  -1-18.5986 24.0095   8
   9   5   1-43.0675 47.0446   4
   9   5   1 13.5456 31.5767   9
   9   5   1 8.88055 32.8490  12
  -9   5  -1 16.8098 32.7016  13
   9   5   2 1318.88 95.0144  12
  -9   5  -2 1425.75 95.3785  13
   9   5   2 975.816 89.0696   4
   9   5   2 1175.01 93.0540   5
   9   5   2 1116.32 57.3374   8
   9   5   2 1207.77 95.6680   9
   9   5   2 999.919 68.7089   1
  -9   5  -3-29.3469 33.8548  13
   9   5   3-12.4962 34.8171  12
   9   5   3-14.8704 35.8815   4
   9   5   3-17.6777 34.3899   5
   9   5   3 31.1315 20.0818   8
   9   5   3 9.79452 33.0025   9
   9   5   3 9.20730 18.4211   1
   9   5   4 744.762 73.5088   5
   9   5   4 816.754 82.0842   4
   9   5   4 650.901 66.8780  12
   9   5   4 709.750 78.4492   9
  -9   5  -4 705.502 71.4144  13
   9   5   5 47.6514 37.9017   9
   9   5   5 36.6991 33.9482   4
   9   5   5 8.45877 32.5968   5
  -9   5  -5 46.2599 32.7285  13
   9   5   5-7.58338 30.0712  12
   9   5   6 1139.50 100.129   4
   9   5   6 1199.11 91.5407   5
   9   5   6 1005.30 79.3941  12
  -9   5  -6 1245.59 93.0188  13
  -9   5  -7-4.19159 34.7445  13
   9   5   7 3.25545 29.1827  12
   9   5   7 50.9523 39.1192   9
  -9   5  -7 44.3888 35.9265   1
   9   5   7-11.6851 34.4058   5
   9   5   7 34.0797 38.7662   4
  -9   5  -8 170.329 45.6770  13
  -9   5  -8 101.536 44.9135   1
  -9   5  -9 375.074 56.1111  13
  -9   5  -9 325.885 61.6544   1
  -9   6   8 199.315 50.2294  13
   9   6  -8 236.979 56.7292  12
  -9   6   8 166.956 39.1292  10
   9   6  -7 263.786 55.9556   5
   9   6  -7 217.992 55.6830  14
  -9   6   7 302.218 55.3656  13
   9   6  -7 343.499 60.7189  12
   9   6  -6 332.585 59.9176   5
  -9   6   6 273.639 54.5202  13
   9   6  -6 221.888 51.7144  12
   9   6  -5 558.313 72.4701   5
  -9   6   5 530.492 67.2204  13
   9   6  -5 629.533 76.0961  12
   9   6  -5 557.541 59.0839   9
   9   6  -4 426.001 63.6858   5
  -9   6   4 305.854 54.4086  13
   9   6  -4 362.948 59.8231  12
   9   6  -4 352.487 51.3575   9
   9   6  -3 252.519 54.6260   5
   9   6  -3 258.106 44.3500   9
  -9   6   3 329.400 55.2694  13
   9   6  -3 276.074 54.4559  12
   9   6  -2 165.392 46.3352   5
  -9   6   2 120.427 26.0303   8
   9   6  -2 145.869 44.8896  12
   9   6  -2 184.937 43.3601   9
   9   6  -1 695.364 54.6212   8
   9   6  -1 830.982 77.0646   9
  -9   6   1 837.454 52.6106   8
  -9   6   0 102.499 38.7784  13
   9   6   0 67.5901 37.2125  12
  -9   6   0 45.4398 26.5774   8
   9   6   0-38.0953 36.3149   8
   9   6   0 108.152 39.2120   9
   9   6   0-15.4282 48.0661   4
   9   6   1 695.648 77.1935   5
  -9   6  -1 686.885 72.3549  13
   9   6   1 665.001 73.5460   9
   9   6   1 609.845 48.8335   8
  -9   6  -1 690.939 49.1921   8
   9   6   1 710.693 73.9265  12
   9   6   2 4.80144 38.0742   5
   9   6   2 7.57130 21.0293   8
   9   6   2 24.6559 34.4856   9
  -9   6  -2-26.8222 36.7383  13
   9   6   2-18.2839 37.5652  12
   9   6   3 1096.31 92.9816   5
  -9   6  -3 1252.61 95.6093  13
   9   6   3 1112.51 89.3154  12
   9   6   3 1171.50 98.1332   9
   9   6   3 1058.23 63.9216   8
   9   6   4 32.3722 35.9874   5
   9   6   4 26.7131 34.1087   9
   9   6   4-15.6381 28.0114   8
  -9   6  -4 9.03135 33.4078  13
   9   6   4 33.9498 33.6527  12
   9   6   5 1350.72 99.7274   5
  -9   6  -5 1373.71 99.4646  13
   9   6   5 1125.74 101.665   9
   9   6   5 1224.95 90.4862  12
   9   6   6 56.0129 38.6490   5
  -9   6  -6 110.376 45.2280   1
   9   6   6 92.0636 46.0709   9
  -9   6  -6 22.7274 44.1692  13
   9   6   6 45.5670 36.2183  12
   9   6   7 580.036 80.1499   4
  -9   6  -7 798.954 77.3242  13
  -9   6  -7 757.102 85.4901   1
   9   6   7 488.840 56.9489  12
  -9   6  -8 102.244 45.9519   1
  -9   6  -8 94.7177 41.3655  13
  -9   6  -9 435.843 62.8872  13
  -9   7   8 273.906 54.8114  13
  -9   7   7 197.599 49.4566  13
   9   7  -7 205.626 53.8544  12
  -9   7   6 335.734 57.7731  13
   9   7  -6 294.242 60.6794  12
   9   7  -5 80.3177 44.4191   5
  -9   7   5 70.9471 39.9042  13
   9   7  -5 77.3088 44.2292  12
   9   7  -4 265.387 46.5155   9
   9   7  -4 353.999 61.1036   5
  -9   7   4 287.039 53.2291  13
   9   7  -4 284.273 57.3164  12
   9   7  -3 47.9438 31.6917   9
   9   7  -3 58.9421 41.3009   5
  -9   7   3 56.1425 39.4389  13
   9   7  -3-10.7893 43.9577  12
   9   7  -2 1115.66 97.2872   5
   9   7  -2 935.198 89.8245  12
   9   7  -2 975.368 82.4127   9
  -9   7   2 1001.67 87.8385  13
   9   7  -1 42.3973 38.3634   5
   9   7  -1 58.1499 36.1212   9
   9   7  -1-51.1474 34.8532   8
   9   7   0 808.106 83.5592  12
   9   7   0 794.094 79.2496   9
   9   7   0 713.211 57.2182   8
  -9   7   0 848.430 81.4138  13
   9   7   1 57.0945 39.2090   5
  -9   7  -1 37.8806 35.7698  13
   9   7   1 4.99727 39.6293  12
   9   7   1 39.3750 36.0247   9
   9   7   1-20.4155 32.1056   8
   9   7   2 1056.60 94.4559   5
   9   7   2 991.587 88.3349  12
   9   7   2 941.285 87.3817   9
   9   7   2 775.132 59.5726   8
  -9   7  -2 895.738 84.2160  13
  -9   7  -3-14.3975 35.1262  13
   9   7   3-32.9670 39.0382  12
   9   7   3 20.0207 38.5733   5
   9   7   3-5.36276 37.9495   9
   9   7   3-26.7729 29.3667   8
   9   7   4 1238.37 97.6010  12
   9   7   4 1474.68 110.319   5
   9   7   4 1401.72 111.456   9
  -9   7  -4 1489.73 107.863  13
   9   7   4 1366.86 80.8100   8
   9   7   5 75.8078 44.9566   9
   9   7   5 30.7285 33.7270   8
  -9   7  -5 29.1975 40.0121  13
   9   7   5 90.7799 37.3403  12
   9   7   6 576.371 79.4534   9
  -9   7  -6 743.389 79.0097  13
   9   7   6 577.802 65.3889  12
  -9   7  -6 646.527 81.4119   1
   9   7   7 119.094 39.2957  12
  -9   7  -7 215.032 50.9741  13
  -9   7  -7 120.758 46.7665  14
  -9   8   7 346.628 61.4043  13
  -9   8   6 149.392 48.0581  13
   9   8  -6 128.072 46.4725   1
  -9   8   5 523.745 69.3476  13
   9   8  -5 466.677 73.7295  12
   9   8  -5 420.700 68.6352   1
  -9   8   4 67.9803 41.6247  13
   9   8  -4 81.0416 45.0769  12
   9   8  -4 67.2162 37.2992   1
   9   8  -3 647.283 80.7924  12
   9   8  -3 639.671 66.3550   9
  -9   8   3 680.866 74.7910  13
   9   8  -3 543.588 70.0320   1
   9   8  -2 25.9727 34.6431   9
  -9   8   2-53.8946 48.4572  13
   9   8  -2 28.2607 40.9154  12
   9   8  -1 727.166 87.0880   4
   9   8  -1 869.192 80.0439   9
   9   8  -1 646.964 62.7330   8
  -9   8   1 706.622 77.7351  13
   9   8   0 7.54374 24.0818   1
   9   8   0-56.9969 42.2413   8
   9   8   0 14.5571 34.3375   9
   9   8   0-17.7281 52.1973   4
   9   8   0-27.2473 39.0082  12
   9   8   1 345.747 45.0300   1
   9   8   1 369.924 50.7669   8
   9   8   1 561.387 69.3379   9
   9   8   1 344.112 69.4294   4
  -9   8  -1 556.284 72.2828  13
   9   8   1 650.044 76.9745  12
   9   8   2 5.48064 31.0151   8
  -9   8  -2 35.4551 34.9983  13
   9   8   2-41.4808 45.7997  12
   9   8   2-5.35608 34.1944   9
   9   8   2-53.7309 46.9017   4
   9   8   3 758.426 85.1763   9
   9   8   3 789.690 64.0113   8
   9   8   3 652.304 83.8230   4
  -9   8  -3 531.069 74.9411  13
   9   8   3 688.410 78.9982  12
   9   8   4 50.3066 31.7985   8
  -9   8  -4 61.8612 45.8904  13
   9   8   4 62.5789 39.9204  12
   9   8   4 35.2110 41.5459   9
   9   8   4 61.1984 44.3189   4
  -9   8  -5 659.257 75.0170  14
  -9   8  -5 783.867 83.5018  13
   9   8   5 651.109 76.2995  12
   9   8   5 604.652 83.0341   4
   9   8   5 801.754 91.4214   9
   9   8   5 803.552 67.7616   8
  -9   8  -5 662.771 83.9719   1
   9   8   6 46.3281 36.2628   8
   9   8   6 47.5138 38.4572  12
  -9   8  -6 67.2590 40.6647  14
   9   9  -5 259.593 56.0053   1
   9   9  -4 219.299 53.4127   1
  -9   9   4 455.196 67.6082  13
   9   9  -3 10.3611 32.1274   1
  -9   9   3 95.8670 45.5634  13
   9   9  -2 887.004 101.351   4
   9   9  -2 1150.88 91.5112   9
   9   9  -2 875.810 83.6836   1
  -9   9   2 1012.23 93.2989  13
   9   9  -1 56.8035 45.3410   8
  -9   9   1 196.621 50.7071  13
   9   9  -1 93.9200 60.5554   4
   9   9  -1 275.117 52.8395   9
   9   9  -1 189.095 44.1318   1
   9   9   0 866.436 90.5980  12
   9   9   0 769.615 95.0186   4
   9   9   0 836.164 84.7087   9
   9   9   0 820.584 71.2891   8
   9   9   0 592.533 62.1305   1
   9   9   1-45.0976 44.7021  12
   9   9   1-10.6411 38.5151   9
  -9   9  -1 12.8546 27.7439  14
   9   9   2 1075.17 99.2617  12
   9   9   2 837.718 98.4401   4
   9   9   2 968.225 94.4601   9
   9   9   2 848.230 72.9577   8
  -9   9  -2 923.586 75.9426  14
  -9   9  -2 1026.28 96.6797  13
  -9   9  -3 24.1521 33.0892  14
   9   9   3 52.7904 44.3130   9
   9   9   3 44.6965 34.6311   8
   9   9   3 5.31370 42.5309  12
  -9   9  -4 462.067 61.5348  14
   9   9   4 448.961 55.8676   8
   9   9   4 276.608 56.8798  12
  -9   9  -5 143.131 44.9588  14
   9   9   5 78.1856 43.2416  12
   9   9   6 343.716 59.5007  12
   9  10  -3 246.786 51.6101   1
   9  10  -2 54.4757 37.3303   1
   9  10  -1 398.964 63.5037   9
   9  10   0 36.3657 40.8219   9
   9  10   1 528.608 74.8109   9
  -9  10  -4-8.58271 34.3436  14
 -10  -9   0 689.442 81.1839  10
  10  -9   0 936.966 90.5267   9
 -10  -9  -1 118.815 46.0587  10
  10  -9   1 140.252 49.3306   9
 -10  -9  -2 307.029 56.8544  10
  10  -9   2 327.515 60.0045   9
  10  -9   3 144.601 45.4851   9
  10  -9   4 194.550 48.3328   9
 -10  -8   6-5.08054 34.2379   2
 -10  -8   5 419.245 65.6162   2
 -10  -8   4 89.7727 47.3367   2
 -10  -8   3 434.582 70.1457   2
 -10  -8   3 449.178 70.5487  10
 -10  -8   2-17.8465 36.8772   2
 -10  -8   2 49.8938 42.3015  10
 -10  -8   1 451.509 67.2362  10
 -10  -8   1 389.207 67.5563   2
  10  -8  -1 327.592 62.1951   9
 -10  -8   0 5.07418 40.9753  10
 -10  -8   0 12.4271 39.0967   2
  10  -8   0-14.8299 38.0946   9
 -10  -8  -1 570.231 72.0589  10
  10  -8   1 668.008 77.7727   9
 -10  -8  -2 91.2937 43.5722  10
 -10  -8  -2 89.7969 47.5143   2
  10  -8   2 128.202 46.6762   9
  10  -8   3 373.329 58.8073   9
 -10  -8  -3 416.088 59.4853  10
  10  -8   4 230.553 50.4690   9
  10  -8   5 268.871 49.9897   9
 -10  -7   7 26.6834 34.9374   2
 -10  -7   7-22.6674 38.5203   6
 -10  -7   6 288.091 54.3399   2
 -10  -7   6 324.993 56.0153   6
 -10  -7   5 15.2146 33.7379   2
 -10  -7   4 342.907 60.3884   2
 -10  -7   4 424.627 68.1513  10
 -10  -7   3-5.45505 36.2905   2
 -10  -7   3 55.3506 41.8132  10
 -10  -7   2 185.255 51.3500   2
 -10  -7   2 298.840 58.9918  10
  10  -7  -1 109.423 42.6831   9
 -10  -7   1 138.515 45.8428   2
 -10  -7   1 87.3809 43.4014  10
  10  -7   0 748.273 79.9704   9
 -10  -7   0 661.194 80.8640   2
 -10  -7   0 723.314 76.6251  10
  10  -7   1 79.4783 41.3036   9
 -10  -7  -1 4.69835 36.2166  10
  10  -7   2 914.082 84.4417   9
 -10  -7  -2 680.124 84.8428   2
 -10  -7  -2 711.723 77.9381  10
  10  -7   3 455.399 61.0414   9
 -10  -7  -3 310.986 62.2143   2
 -10  -7  -3 397.998 56.7268  10
 -10  -7  -4 472.384 73.5817   2
  10  -7   4 582.217 67.5845   9
  10  -7   4 736.963 89.5131   3
 -10  -7  -4 591.018 65.8397  10
 -10  -7  -5 241.219 58.8047   2
  10  -7   5 237.882 47.8049   9
  10  -7   6 164.258 43.9942   9
 -10  -6   8 32.5988 34.0693   6
  10  -6  -7 431.692 63.8017   5
 -10  -6   7 343.529 54.8502   6
 -10  -6   7 291.507 50.3131   2
 -10  -6   6 24.4389 35.1632   6
 -10  -6   6-4.49684 32.5524   2
 -10  -6   5 530.484 65.4314   2
 -10  -6   5 607.867 79.8799  10
 -10  -6   4 19.7988 32.0630   2
 -10  -6   4 77.1194 40.3284  10
 -10  -6   3 678.924 76.9237   2
 -10  -6   3 723.630 80.2795  10
  10  -6  -2 24.7887 37.8353   9
 -10  -6   2 26.5368 30.8488   2
 -10  -6   2 30.7505 34.9840  10
  10  -6  -1 661.829 76.3145   9
 -10  -6   1 616.139 76.9622   2
 -10  -6   1 844.196 82.6802  10
  10  -6   0 65.9299 37.0266   9
 -10  -6   0 67.0328 41.3528   2
 -10  -6   0 56.9299 36.9474  10
  10  -6   1 554.230 68.7924   9
 -10  -6  -1 446.249 61.7210  10
  10  -6   2 116.040 40.4015   9
 -10  -6  -2 105.169 45.1215   2
 -10  -6  -2 148.306 44.2531  10
  10  -6   3 405.184 59.9980   9
 -10  -6  -3 404.478 66.1066   2
 -10  -6  -3 357.942 55.5962  10
 -10  -6  -4 229.665 57.7129   2
  10  -6   4 457.160 59.8475   9
  10  -6   4 293.483 62.2345   3
 -10  -6  -4 284.032 50.5604  10
 -10  -6  -5 134.463 48.1170   2
  10  -6   5 155.551 43.8401   9
  10  -6   5 143.090 52.7546   3
 -10  -6  -5 103.550 37.9881  10
 -10  -6  -6 436.460 71.1369   2
  10  -6   6 441.189 58.6397   9
  10  -6   6 631.419 85.5351   3
  10  -6   7 297.822 51.1449   9
 -10  -5   8 620.887 65.8542   6
  10  -5  -8 830.593 79.4203   5
 -10  -5   7 190.389 52.6742  10
  10  -5  -7 271.322 54.2585   5
 -10  -5   7 148.278 39.8920   6
 -10  -5   7 220.405 44.4144   2
  10  -5  -6 1245.12 97.6950   5
 -10  -5   6 1109.02 85.0988   6
 -10  -5   6 1081.80 87.3196   2
  10  -5  -5 27.2927 33.6591   5
 -10  -5   5 38.1403 39.8837  10
 -10  -5   5 26.6081 30.2743   2
 -10  -5   4 896.420 89.3101  10
 -10  -5   4 848.973 80.5479   2
 -10  -5   3 188.375 49.2657  10
 -10  -5   3 145.203 42.5775   2
  10  -5  -3 201.121 49.7816   9
 -10  -5   3 130.453 21.6852   7
 -10  -5   2 912.147 45.0067   7
 -10  -5   2 1086.81 90.7638   2
 -10  -5   1 260.655 49.7291  10
 -10  -5   1 217.112 47.8127   2
  10  -5  -1 332.720 56.8912   9
  10  -5   0 884.607 81.9620   9
 -10  -5   0 648.560 76.0299   2
 -10  -5   0 923.885 82.0894  10
  10  -5   1 354.782 56.4557   9
 -10  -5  -1 316.204 52.5245  10
  10  -5   2 260.261 51.6325   9
 -10  -5  -2 239.697 53.4771   2
 -10  -5  -2 265.835 47.4968  10
  10  -5   3 177.695 44.0278   9
 -10  -5  -3 165.266 48.1717   2
 -10  -5  -3 129.533 38.7543  10
 -10  -5  -4 151.053 50.2104   2
  10  -5   4 114.750 40.3134   9
  10  -5   4 98.0497 47.0845   3
 -10  -5  -4 65.8302 33.7730  10
 -10  -5  -5 477.391 71.4459   2
  10  -5   5 452.325 61.4729   9
  10  -5   5 465.558 72.6066   3
 -10  -5  -5 504.638 60.1749  10
  10  -5   6 109.340 38.1305   9
  10  -5   6 41.5267 41.5185   3
 -10  -5  -6 47.7023 37.5535   2
  10  -5   7 169.357 45.3089   9
  10  -5   7 117.126 50.3392   3
 -10  -5  -7 137.788 49.7740   2
  10  -5   8 78.9617 34.7093   9
  10  -5   8 61.7522 39.0197   5
 -10  -4   8 157.510 37.8394   6
  10  -4  -8 111.712 42.4797   5
 -10  -4   8 129.584 48.3649  10
  10  -4  -7 853.787 80.1842   5
 -10  -4   7 960.379 93.1798  10
 -10  -4   7 825.972 67.9984   6
 -10  -4   7 713.104 67.2799   2
 -10  -4   6 38.9908 28.5435   2
  10  -4  -6-4.36467 33.6413   5
 -10  -4   6 37.3462 29.2841   6
 -10  -4   5 1146.85 80.9935   6
  10  -4  -5 1392.68 100.065   5
  10  -4  -5 1313.05 103.263   9
 -10  -4   5 1145.71 88.7486   2
 -10  -4   4 63.1265 17.2233   7
  10  -4  -4 62.4095 34.0326   5
 -10  -4   4 78.9337 33.8115   2
  10  -4  -4 48.2237 36.8129   9
  10  -4  -4 17.3093 15.9597   4
 -10  -4   4 60.5535 41.1255  10
  10  -4  -3 1288.65 92.1422   5
  10  -4  -3 1271.64 96.2646   9
 -10  -4   3 1086.92 86.2423   2
 -10  -4   3 1220.04 95.4548  10
  10  -4  -2 9.27915 33.5855   9
 -10  -4   2 19.0145 30.7783   2
 -10  -4   2-4.70033 31.2671  10
 -10  -4   1 794.077 81.4120   2
 -10  -4   1 978.798 84.6393  10
  10  -4   0 214.951 49.2559   9
 -10  -4   0 166.269 45.0672   2
 -10  -4   0 197.318 47.5374  10
 -10  -4  -1 449.825 59.0898  10
  10  -4   1 366.428 57.2002   9
 -10  -4  -2 312.143 51.0257  10
  10  -4   2 279.535 51.8999   9
 -10  -4  -3 453.202 58.1309  10
  10  -4   3 397.316 58.7193   9
 -10  -4  -4 46.1059 31.8636  10
  10  -4   4 46.2849 37.6533   3
  10  -4   4 38.4208 33.5531   9
 -10  -4  -5 210.696 43.5761  10
  10  -4   5 143.355 43.8853   9
  10  -4   5 247.980 55.9892   3
  10  -4   6 678.011 72.1121   5
 -10  -4  -6 609.850 78.1017   2
 -10  -4  -6 480.163 60.9533  10
  10  -4   6 645.926 69.9582   9
  10  -4   6 616.103 79.1625   3
  10  -4   7 386.948 55.3056   5
  10  -4   7 336.384 53.6773   9
  10  -4   7 342.876 63.2997   3
 -10  -4  -7 232.374 54.1133   2
 -10  -4  -8 169.057 54.8301   2
  10  -4   8 280.489 50.4613   5
  10  -4   8 322.446 54.0099   9
 -10  -3   9 38.3385 39.2088  10
  10  -3  -9 14.8021 41.5893   9
 -10  -3   8 679.694 82.0270  10
  10  -3  -8 609.045 77.3388   9
  10  -3  -8 598.561 67.7183   5
 -10  -3   7 105.525 45.9335  10
 -10  -3   7 62.8280 30.7409   2
  10  -3  -7 97.2222 44.5418   9
 -10  -3   7 54.4613 28.1743   6
  10  -3  -7 62.9985 40.0612   5
 -10  -3   6 441.722 65.4172  10
  10  -3  -6 412.113 62.8332   9
 -10  -3   6 307.755 41.9924   6
  10  -3  -6 380.268 56.1529   5
 -10  -3   6 310.369 46.5474   2
  10  -3  -5 66.0636 38.8154   9
  10  -3  -5 73.5056 38.5113   5
 -10  -3   5 59.0839 26.7837   6
 -10  -3   5 82.4098 32.0138   2
  10  -3  -4 766.052 75.5615   5
  10  -3  -4 775.169 79.0621   9
 -10  -3   4 669.645 68.0869   2
  10  -3  -3 17.4490 32.6134   5
 -10  -3   3-4.34013 26.0765   2
  10  -3  -3-22.8456 36.2321   9
  10  -3  -3 26.9181 18.4032   4
 -10  -3   3-18.6218 33.3237  10
  10  -3  -2 340.241 52.8898   5
  10  -3  -2 400.437 59.6845   9
  10  -3  -2 248.135 29.0559   4
 -10  -3   2 333.864 53.3554  10
  10  -3  -1 4.35334 30.0821   5
 -10  -3   1 26.2656 30.2497  10
  10  -3   0 1224.28 90.9514   5
 -10  -3   0 1119.71 87.5050  10
  10  -3   1 192.093 45.1748   9
  10  -3   2 1703.81 107.412   5
  10  -3   2 1533.32 105.324   9
  10  -3   3 483.250 61.0754   5
  10  -3   3 465.307 62.9437   3
  10  -3   3 488.827 63.4954   9
  10  -3   4 1156.02 89.8801   5
  10  -3   4 1190.46 98.2549   3
  10  -3   4 1188.30 92.0631   9
  10  -3   5 292.478 50.0050   5
  10  -3   5 229.587 53.1909   3
  10  -3   5 274.648 50.7066   9
  10  -3   6 560.965 64.4236   5
  10  -3   6 526.575 72.3793   3
  10  -3   6 373.379 57.6569   9
  10  -3   7 679.391 69.8839   5
  10  -3   7 706.961 85.1689   3
  10  -3   7 749.418 74.1846   9
  10  -3   8 205.251 44.8272   5
  10  -3   8 171.919 54.8798   3
  10  -3   8 234.778 48.3443   9
  10  -3   9 417.242 56.3894   5
  10  -3   9 482.187 60.4411   9
  10  -2 -10 18.5563 40.6716   9
 -10  -2   9 334.225 59.9944  10
  10  -2  -9 224.265 53.5171   9
 -10  -2   8 10.2979 37.6902  10
  10  -2  -8 70.0075 40.9208   9
  10  -2  -8 12.1263 34.9009   5
  10  -2  -7 427.528 58.2013   5
 -10  -2   7 364.862 46.2014   2
 -10  -2   7 418.662 64.2382  10
  10  -2  -7 463.626 64.4364   9
 -10  -2   7 420.358 41.2304   6
 -10  -2   6 246.010 51.3873  10
 -10  -2   6 186.429 37.5091   2
  10  -2  -6 183.583 47.4457   9
 -10  -2   6 154.420 29.4603   6
  10  -2  -6 194.510 46.7371   5
 -10  -2   5 853.830 57.1192   6
 -10  -2   5 920.132 85.3496  10
  10  -2  -5 1014.92 83.6611   5
 -10  -2   5 801.771 71.5527   2
  10  -2  -5 980.338 89.2400   9
  10  -2  -4 67.2738 39.6206   9
  10  -2  -4 21.4066 32.3472   5
 -10  -2   4 22.1303 20.1448   6
  10  -2  -3 1500.65 103.973   9
 -10  -2   3 1521.32 105.574  10
  10  -2  -3 1423.14 99.7893   5
 -10  -2   2 174.837 44.5095  10
  10  -2  -2 227.970 48.0227   9
  10  -2  -2 187.148 31.8323   4
  10  -2  -2 244.269 48.5214   5
  10  -2  -1 1724.17 108.292   9
  10  -2  -1 1402.07 73.2391   4
  10  -2  -1 1705.08 107.514   5
  10  -2   0-7.80858 22.5912   4
  10  -2   0-8.50895 31.8080   5
 -10  -2  -1 924.437 62.8712   6
  10  -2   1 924.653 57.8274   4
  10  -2   2 648.436 68.5077   5
  10  -2   2 520.992 64.7107   9
  10  -2   3 969.484 82.9160   5
  10  -2   3 955.419 84.0857   3
  10  -2   3 1026.78 87.7083   9
  10  -2   4 450.895 59.6607   5
  10  -2   4 575.668 67.8689   3
  10  -2   4 436.864 60.9109   9
  10  -2   5 533.215 63.2032   5
  10  -2   5 595.884 72.0815   3
  10  -2   5 633.481 70.6690   9
  10  -2   6 410.171 57.3349   5
  10  -2   6 340.893 59.6595   3
  10  -2   6 456.338 59.5319   9
  10  -2   7 521.682 62.8478   5
  10  -2   7 495.849 71.8699   3
  10  -2   7 561.685 66.1279   9
  10  -2   8 494.355 59.2042   5
  10  -2   8 556.192 75.5794   3
  10  -2   8 558.875 66.5059   9
  10  -2   9 72.1400 34.0878   5
  10  -2   9 134.987 41.8561   9
  10  -2   9 201.504 56.1878   3
  10  -2  10 479.530 62.3292   9
 -10  -1  10 269.213 55.7494  10
  10  -1 -10 261.245 54.5547   9
 -10  -1   9 104.711 43.4500  10
  10  -1  -9 101.479 44.2215   9
 -10  -1   8 566.088 71.2797  10
  10  -1  -8 655.766 74.4912   9
  10  -1  -8 562.580 65.2870   5
 -10  -1   7 33.8009 39.7267  10
 -10  -1   7 64.3386 27.3932   2
  10  -1  -7 137.097 44.8066   9
  10  -1  -7 108.000 43.0341   5
  10  -1  -6 639.806 68.3737   5
 -10  -1   6 458.120 35.6942   6
 -10  -1   6 522.402 66.0751  10
  10  -1  -6 488.361 63.5254   9
 -10  -1   6 450.265 51.1264   2
 -10  -1   5 4.57931 30.8599  10
  10  -1  -5 39.3356 34.0101   9
 -10  -1   5-6.43806 16.4405   6
  10  -1  -5 8.49268 36.3704   5
  10  -1  -4 1067.54 87.8960   9
  10  -1  -4 1095.95 86.3477   5
 -10  -1   4 842.096 48.8330   6
  10  -1  -3 25.8887 31.2396   9
  10  -1  -3-59.7002 46.9311   5
  10  -1  -2 1330.81 95.2096   9
  10  -1  -2 1194.44 90.3088   5
  10  -1  -2 1056.12 71.0008   4
  10  -1  -1 190.484 47.2045   5
 -10  -1   1 162.713 25.6853   6
  10  -1  -1 258.345 49.1212   9
  10  -1  -1 130.953 34.4005   4
 -10  -1   0 1508.91 98.3977  13
  10  -1   0 1455.34 80.8039   4
  10  -1   0 1655.62 105.747   5
  10  -1   0 1630.18 104.917   9
 -10  -1   0 1416.75 71.0371   6
 -10  -1  -1 138.484 26.7970   6
  10  -1   1 127.192 30.0996   4
 -10  -1  -1 108.504 35.3294  13
  10  -1   2 1331.01 96.5670   5
  10  -1   2 1350.30 77.6043   4
 -10  -1  -2 1355.52 88.6042  13
 -10  -1  -2 1134.14 69.4944   6
  10  -1   2 1281.55 89.9616   3
 -10  -1  -3 545.417 56.7482  13
  10  -1   3 449.388 61.5827   9
  10  -1   3 416.233 56.0867   3
  10  -1   3 392.926 46.3242   4
  10  -1   3 395.685 57.7294   5
 -10  -1  -4 954.434 73.0385  13
  10  -1   4 900.776 82.2176   9
  10  -1   4 972.729 83.4536   3
  10  -1   4 941.843 80.9160   5
 -10  -1  -5 368.997 46.8962  13
  10  -1   5 375.438 57.1783   9
  10  -1   5 377.997 56.8896   3
  10  -1   5 345.154 53.9347   5
 -10  -1  -6 328.875 43.9613  13
  10  -1   6 458.430 58.1946   5
  10  -1   6 331.695 56.8132   3
  10  -1   6 411.633 60.4989   9
  10  -1   7 374.520 55.0109   5
  10  -1   7 352.958 59.8377   3
  10  -1   7 368.895 58.0481   9
  10  -1   8 79.3206 35.9626   5
  10  -1   8 91.6535 46.9756   3
  10  -1   8 166.439 44.6974   9
  10  -1   9 443.706 55.9447   5
  10  -1   9 513.261 66.5606   9
  10  -1   9 442.724 69.6411   3
  10  -1  10 54.5016 37.3481   9
 -10   0  10 47.2305 39.8221  10
 -10   0   9 265.468 56.3825  10
  10   0  -9 328.507 55.6722   9
  10   0  -9 201.149 50.6111  12
 -10   0   8 37.6173 39.3201  10
  10   0  -8 45.1532 42.2702   5
  10   0  -8 58.8735 38.7882   9
  10   0  -8 47.2078 40.7692  12
 -10   0   7 810.231 79.0947  10
  10   0  -7 956.051 80.2037   5
  10   0  -7 816.064 77.5593   9
  10   0  -6 8.46791 31.9827   9
  10   0  -6 4.24964 33.6992   5
 -10   0   6 13.5558 32.7100  10
  10   0  -5 1199.09 91.7455   9
  10   0  -5 1222.88 91.9329   5
 -10   0   5 1019.38 87.3499  10
  10   0  -4-25.6780 41.3067   5
  10   0  -4 16.9519 31.6846   9
  10   0  -3 2017.39 112.139   5
  10   0  -3 1859.84 109.171   9
  10   0  -2-42.6621 41.6880   5
 -10   0   2-1.64586 12.5272   6
  10   0  -2 21.2823 34.0637   9
 -10   0   2 25.5431 35.5844  13
 -10   0   1 2778.13 136.575  13
  10   0  -1 3204.90 145.221   5
  10   0  -1 2841.30 121.076   4
  10   0  -1 2885.58 140.405   9
  10   0   0 4.22847 42.8241   5
  10   0   0 107.501 31.9264   4
  10   0   0 68.9911 34.8445   9
 -10   0   0 39.4634 29.5326  13
 -10   0  -1 879.550 74.4287  13
  10   0   1 779.776 63.5892   4
  10   0   1 963.236 82.2602   9
 -10   0  -1 749.236 48.9408   6
  10   0   2 316.478 55.0520   5
 -10   0  -2 335.094 36.7596   6
  10   0   2 363.269 48.9681   3
  10   0   2 304.276 42.5870   4
 -10   0  -2 337.163 49.8660  13
 -10   0  -3 1040.54 78.0588  13
  10   0   3 1116.72 87.1598   5
  10   0   3 1109.17 77.1819   4
 -10   0  -3 946.535 62.0595   6
  10   0   3 1066.83 81.4713   3
  10   0   4 400.455 50.9968   4
  10   0   4 332.840 55.4653   5
 -10   0  -4 457.010 52.7729  13
  10   0   4 472.329 62.6314   9
  10   0   4 476.529 59.4263   3
  10   0   5 390.730 56.1712   5
 -10   0  -5 375.505 48.3717  13
  10   0   5 340.973 58.8325   9
  10   0   5 412.082 57.5752   3
 -10   0  -6 642.067 59.2903  13
  10   0   6 635.181 72.2963   9
  10   0   6 591.083 67.2336   3
  10   0   6 665.532 68.1108   5
  10   0   7 34.7493 29.5302  12
  10   0   7 14.4015 32.3578   9
  10   0   7 9.62810 33.6736   3
  10   0   7 60.1053 35.8083   5
  10   0   8 274.680 41.9612  12
  10   0   8 344.879 51.1366   5
  10   0   8 454.763 68.0352   3
  10   0   8 417.967 62.3823   9
  10   0   9-3.28587 36.1601   5
  10   0   9 24.4126 36.5028   9
  10   0   9-16.2713 40.9696   3
  10   0  10 377.177 60.8492   9
  10   1 -10 181.106 47.8476  12
 -10   1  10 286.100 54.2051  10
 -10   1   9 144.171 44.8962  10
  10   1  -9 125.472 42.8094   9
  10   1  -9 61.7523 40.1166  12
 -10   1   8 590.049 68.6250  10
  10   1  -8 613.322 69.5794   5
  10   1  -8 601.168 67.6304   9
  10   1  -8 546.696 68.3329  12
 -10   1   7 199.664 45.4913  10
  10   1  -7 38.6375 38.8400   5
  10   1  -7 113.827 40.2836   9
  10   1  -7 95.9023 41.1466  12
 -10   1   6 599.608 66.4198  10
  10   1  -6 524.426 64.4553   5
  10   1  -6 514.495 67.3339  12
  10   1  -6 566.377 64.9158   9
  10   1  -5-34.7869 44.0207   5
  10   1  -5-4.13423 32.1743   9
  10   1  -4 1023.53 85.7900   5
  10   1  -4 1028.24 84.9568   9
 -10   1   4 966.989 86.1764  13
  10   1  -3 21.7441 35.4342   5
  10   1  -3 25.1447 32.6153   9
 -10   1   3 22.1653 32.8002  13
  10   1  -2 1294.77 93.9926   5
  10   1  -2 1410.08 97.3183   9
 -10   1   2 1183.64 91.7948  13
  10   1  -1 211.139 44.1721   5
  10   1  -1 113.110 39.3852   4
  10   1  -1 222.721 46.2763   9
 -10   1   1 269.835 50.1373  13
 -10   1   0 1639.44 100.008  13
  10   1   0 1405.59 88.1101   4
  10   1   0 1676.62 104.061   9
  10   1   1 146.257 34.2897   3
  10   1   1 34.6411 33.9366   4
  10   1   1 141.584 41.9660   9
 -10   1  -1 97.4737 35.0327  13
  10   1   2 1323.65 81.3752   3
  10   1   2 1162.73 81.5258   4
  10   1   2 1317.05 94.6597   5
 -10   1  -2 1373.73 91.0584  13
  10   1   2 1241.63 93.7518   9
 -10   1  -2 1072.16 60.1976   6
  10   1   3 395.875 51.7103   4
  10   1   3 553.537 63.5356   5
 -10   1  -3 451.620 55.3113  13
 -10   1  -3 477.131 42.8108   6
  10   1   3 473.085 54.2127   3
 -10   1  -4 871.993 71.8419  13
  10   1   4 865.334 82.3360   9
  10   1   4 883.580 73.7091   3
  10   1   4 773.876 70.6363   4
  10   1   4 947.457 80.0060   5
  10   1   5 426.866 54.3091  12
 -10   1  -5 340.821 48.2854  13
  10   1   5 361.939 59.3806   9
  10   1   5 422.481 54.9628   3
  10   1   5 378.139 53.2436   4
  10   1   5 350.070 55.6644   5
  10   1   6 319.353 47.5633  12
 -10   1  -6 364.744 48.9531  13
  10   1   6 414.345 63.3822   9
  10   1   6 372.664 55.3158   3
  10   1   6 423.174 56.4782   5
  10   1   7 258.258 43.7866  12
 -10   1  -7 383.090 49.0281  13
  10   1   7 426.524 63.3712   9
  10   1   7 342.668 55.1395   3
  10   1   7 244.822 48.5164   5
  10   1   8 36.0085 30.0970  12
  10   1   8 71.2347 38.0943   5
  10   1   8 138.061 46.2033   9
  10   1   8 140.481 45.6094   3
  10   1   9 483.438 70.0201   9
  10   1   9 358.357 63.1884   3
  10   1  10 113.056 47.1317   9
 -10   2  10 29.4598 36.6211  10
 -10   2   9 291.582 51.0975  10
  10   2  -9 247.406 52.7450  12
 -10   2   8 64.5089 35.9648  10
  10   2  -8 47.6121 38.2482   5
  10   2  -8 57.0816 35.5806   9
  10   2  -8 19.6051 35.1009  12
 -10   2   7 547.833 64.3012  10
  10   2  -7 467.553 62.1505   5
  10   2  -7 397.440 62.5237  12
  10   2  -7 460.692 58.3793   9
  10   2  -6 209.928 48.8909   5
  10   2  -6 146.338 46.7110  12
  10   2  -6 215.020 44.6794   9
  10   2  -5 982.683 85.4713   5
  10   2  -5 930.996 86.5845  12
  10   2  -5 914.440 80.3375   9
  10   2  -4 53.7747 34.2102   5
  10   2  -4 57.4916 31.6644   9
  10   2  -4 23.7702 32.0552  12
  10   2  -3 1468.89 102.146   5
 -10   2   3 1210.26 95.1715  13
  10   2  -3 1355.41 100.673  12
  10   2  -3 1488.45 99.8281   9
  10   2  -2 244.383 50.2976   5
  10   2  -2 165.270 42.1957   9
  10   2  -2 197.359 46.1901  12
 -10   2   2 226.525 46.7922  13
  10   2  -1 1647.48 101.825   4
  10   2  -1 1723.05 109.428   5
  10   2  -1 1630.32 108.039   9
 -10   2   1 1826.72 111.104  13
  10   2   0 43.6815 23.5734   3
  10   2   0 7.70730 36.0168   4
  10   2   0 13.2477 32.3228   9
  10   2   0 35.1578 32.5156  12
 -10   2   0-8.24599 31.1477  13
  10   2   1 940.720 62.7621   3
  10   2   1 853.882 77.3504  12
 -10   2  -1 1074.42 82.4370  13
  10   2   1 863.747 74.2509   4
  10   2   1 892.158 81.5290   9
  10   2   2 601.651 66.1397  12
 -10   2  -2 557.415 61.3000  13
  10   2   2 595.247 64.6876   4
  10   2   2 516.738 63.3153   5
  10   2   2 594.597 68.9939   9
  10   2   2 574.777 52.4758   3
  10   2   3 1001.18 80.9279  12
 -10   2  -3 976.646 77.6913  13
  10   2   3 838.124 75.9345   4
  10   2   3 1077.13 85.6983   5
  10   2   3 972.917 70.3107   3
 -10   2  -3 818.990 54.2773   6
  10   2   4 398.042 54.5883  12
 -10   2  -4 482.550 57.8887  13
  10   2   4 536.937 61.8856   4
  10   2   4 377.443 56.5417   5
 -10   2  -4 476.602 44.9455   6
  10   2   4 541.423 54.7106   3
 -10   2  -5 572.994 61.3908  13
  10   2   5 614.687 68.1853   4
  10   2   5 505.407 62.3065   5
  10   2   5 508.837 58.8462  12
  10   2   5 662.345 73.5162   9
  10   2   5 600.596 61.2238   3
  10   2   6 383.064 55.9829   5
  10   2   6 459.669 54.4059  12
 -10   2  -6 387.568 52.0955  13
  10   2   6 415.881 62.9382   9
  10   2   6 381.636 52.3543   3
 -10   2  -7 529.941 57.8801  13
  10   2   7 362.542 50.0237  12
  10   2   7 508.162 60.4917   5
  10   2   7 463.525 60.3201   3
  10   2   7 521.072 71.8040   9
  10   2   8 583.920 75.3504   9
  10   2   8 423.610 54.4671   5
  10   2   9 91.9261 43.7215   9
 -10   3   9 4.07034 34.3121  10
  10   3  -9 64.8141 40.9793  12
 -10   3   8 568.083 66.2576  10
  10   3  -8 673.747 73.7608   5
  10   3  -8 664.432 75.2005  12
 -10   3   7 74.7206 39.6303  10
  10   3  -7 108.822 39.3285   9
  10   3  -7 123.903 44.0759   5
  10   3  -7 85.8344 41.9151  12
  10   3  -6 313.778 52.7158   9
  10   3  -6 374.911 57.9947   5
  10   3  -6 391.921 62.6235  12
 -10   3   6 337.016 60.9062  13
  10   3  -5 67.6969 34.4008   9
  10   3  -5 51.1302 37.2205   5
  10   3  -5 39.8150 36.8406  12
 -10   3   5 52.5413 40.2765  13
  10   3  -4 877.453 79.1152   9
  10   3  -4 921.395 84.0179   5
  10   3  -4 731.888 77.7759  12
  10   3  -3-16.7219 32.8420   9
  10   3  -3 4.64506 33.6251   5
  10   3  -3-4.83375 29.9646  12
  10   3  -2 325.871 53.8888   9
  10   3  -2 392.953 58.6623   5
  10   3  -2 227.912 50.5043  12
 -10   3   2 338.750 54.5122  13
  10   3  -1 13.7816 35.0531   5
 -10   3   1 26.1073 29.6964  13
  10   3  -1 35.2807 34.6457   9
  10   3  -1-4.24939 18.9685   3
  10   3  -1-38.3842 46.0228   4
 -10   3   0 1072.69 86.0027  13
  10   3   0 848.856 79.6528   4
  10   3   0 1148.11 91.6219  12
  10   3   0 915.273 54.8100   3
  10   3   0 1020.14 86.6311   9
  10   3   1 164.512 43.5942  12
 -10   3  -1 116.770 39.3944  13
  10   3   1 121.246 40.4154   9
  10   3   1 190.913 29.2040   3
  10   3   1 111.941 44.9463   4
 -10   3  -2 1697.02 103.659  13
  10   3   2 1352.74 99.6068   4
  10   3   2 1619.07 108.373   5
  10   3   2 1371.13 99.8825  12
  10   3   2 1360.17 101.574   9
  10   3   2 1524.77 77.0781   3
 -10   3  -3 470.030 58.6346  13
 -10   3  -3 335.354 35.5139   6
  10   3   3 485.749 62.1466   5
  10   3   3 363.760 53.8710  12
  10   3   3 443.140 62.2553   9
  10   3   3 438.514 58.9365   4
  10   3   3 421.588 45.2180   3
  10   3   4 1241.35 95.8762   4
  10   3   4 1265.71 94.4561   5
  10   3   4 1129.32 86.6783  12
 -10   3  -4 1092.02 86.4255  13
  10   3   4 1103.30 74.1005   3
  10   3   5 287.534 49.7370   5
  10   3   5 258.455 51.2375   4
  10   3   5 236.520 44.1898  12
 -10   3  -5 229.986 44.9390  13
  10   3   5 278.525 42.8278   3
  10   3   6 413.831 67.6811   9
  10   3   6 436.057 53.3341  12
 -10   3  -6 463.309 59.7746  13
  10   3   6 445.147 58.3860   5
  10   3   6 401.586 61.6807   4
  10   3   7 604.207 59.3575  12
  10   3   7 754.367 83.4552   9
 -10   3  -7 662.352 66.5660  13
  10   3   7 715.637 70.0317   5
  10   3   8 191.742 44.4409   5
 -10   3  -8 242.988 46.1072  13
  10   3   8 229.788 54.6840   9
 -10   4   9 393.112 56.5947  10
  10   4  -9 313.736 60.1221  12
 -10   4   8 91.0411 38.7640  10
  10   4  -8 123.724 47.9646   5
  10   4  -8 114.661 45.7623  12
  10   4  -7 1002.46 90.7724   5
  10   4  -7 784.018 83.3329  12
  10   4  -7 885.495 78.1830   9
 -10   4   7 787.627 84.8180  13
  10   4  -6 15.2074 31.7824   9
  10   4  -6 14.5971 37.5000   5
  10   4  -6 36.4055 36.8049  12
 -10   4   6 19.6687 38.6325  13
  10   4  -5 1644.84 112.076   5
  10   4  -5 1403.78 106.951  12
  10   4  -5 1414.66 98.5803   9
 -10   4   5 1302.32 103.560  13
  10   4  -4 90.1833 38.0984   9
  10   4  -4 77.7707 42.3292   5
  10   4  -4 117.368 44.0925  12
 -10   4   4 37.9970 38.0565  13
  10   4  -3 1339.18 96.8695   9
  10   4  -3 1284.15 100.096   5
  10   4  -3 1172.23 97.2678  12
  10   4  -2 17.5082 31.6898   9
  10   4  -2 9.64094 34.1151   5
  10   4  -2 34.6211 35.8069  12
 -10   4   2 36.6305 33.5164  13
  10   4  -1 1097.50 91.7129   5
  10   4  -1 1033.78 87.4095   9
 -10   4   1 1023.03 87.4540  13
  10   4   0 166.261 45.7420  12
 -10   4   0 202.741 44.2923  13
  10   4   0 107.574 46.7086   4
  10   4   0 199.948 46.9785   9
  10   4   1 277.914 51.1677  12
 -10   4  -1 438.474 57.9816  13
  10   4   1 388.267 58.2028   9
  10   4   1 315.803 58.1492   4
  10   4   2 279.352 53.6842   5
  10   4   2 328.001 52.2960  12
 -10   4  -2 377.820 54.7319  13
  10   4   2 267.291 52.0402   9
  10   4   2 301.046 57.2031   4
  10   4   3 398.729 59.1096   5
  10   4   3 455.906 59.6885  12
 -10   4  -3 361.927 57.2890  13
  10   4   3 444.036 65.1905   9
  10   4   3 379.769 59.7683   4
  10   4   4 58.4555 39.4455   5
  10   4   4 50.0940 31.5649  12
 -10   4  -4 42.1697 33.4697  13
  10   4   4 73.7946 40.6452   9
  10   4   4 84.9425 38.9072   4
 -10   4  -5 171.293 47.3275  13
  10   4   5 238.100 45.3861  12
  10   4   5 164.956 46.8019   4
  10   4   5 254.457 48.9917   5
  10   4   6 482.364 58.4646  12
  10   4   6 522.000 72.2930   9
 -10   4  -6 586.765 64.1894  13
  10   4   6 487.493 70.0639   4
  10   4   6 603.596 66.5934   5
  10   4   7 338.258 55.1622   5
 -10   4  -7 243.889 48.1189  13
  10   4   7 263.586 44.4217  12
  10   4   7 304.952 61.5187   9
  10   4   8 214.479 45.1884   5
  10   4   8 222.781 56.8180   9
 -10   4  -8 210.497 47.0343  13
 -10   5   8 737.833 72.8177  10
  10   5  -8 943.236 89.9560   5
  10   5  -8 890.012 89.9542  12
  10   5  -7 228.964 55.6495   5
 -10   5   7 180.301 51.4855  13
  10   5  -7 184.447 49.8935  12
  10   5  -6 1227.31 101.988   5
 -10   5   6 1159.08 99.3339  13
  10   5  -6 1252.47 103.360  12
  10   5  -6 1102.93 86.2257   9
  10   5  -5 5.14729 37.6731   5
  10   5  -5 11.7895 31.1637   9
 -10   5   5 24.6165 37.1902  13
  10   5  -5 5.38826 39.0057  12
  10   5  -4 1197.74 98.9947   5
 -10   5   4 1025.53 92.7945  13
  10   5  -4 1024.02 96.6409  12
  10   5  -4 1069.51 86.8200   9
  10   5  -3 158.910 48.3392   5
  10   5  -3 115.676 45.5142  12
  10   5  -3 145.759 41.2535   9
  10   5  -2 1373.47 104.126   5
  10   5  -2 973.950 49.4249   8
  10   5  -2 1204.66 92.7139   9
  10   5  -2 1159.88 98.2310  12
 -10   5   1 209.114 47.2081  13
  10   5  -1 120.190 21.2829   8
  10   5  -1 242.676 54.9725   5
  10   5  -1 285.997 51.1611   9
  10   5  -1 213.149 56.5230   4
  10   5   0 751.727 81.7793   4
 -10   5   0 927.393 81.6058  13
  10   5   0 856.392 80.9070   9
  10   5   0 735.469 79.5312  12
  10   5   1 347.416 59.4025   5
  10   5   1 225.108 56.0032   4
  10   5   1 366.335 58.5272   9
  10   5   1 349.047 57.5731  12
 -10   5  -1 314.745 54.6786  13
  10   5   2 166.502 47.7557   5
  10   5   2 191.323 49.7829   4
  10   5   2 189.696 49.9790   9
 -10   5  -2 213.235 50.8260  13
  10   5   2 150.730 45.6671  12
  10   5   3 207.336 49.7273   5
  10   5   3 115.690 44.0594   4
  10   5   3 122.193 45.6047   9
 -10   5  -3 99.4657 39.4503  13
  10   5   3 113.798 41.4994  12
  10   5   4 132.530 44.8575   5
  10   5   4 69.7797 42.2089   4
 -10   5  -4 72.0095 41.5361  13
  10   5   4 78.5512 36.8262  12
  10   5   4 38.5928 43.3516   9
  10   5   5 410.704 62.2287   5
  10   5   5 441.430 66.2813   4
 -10   5  -5 461.116 63.6194  13
  10   5   5 389.457 56.0495  12
  10   5   5 437.746 67.6887   9
 -10   5  -6 119.930 42.3886  13
  10   5   6 96.9051 35.8045  12
  10   5   6 51.1875 40.7692   4
  10   5   6 98.1636 43.1212   5
  10   5   7 131.970 42.6644   5
  10   5   7 70.8853 45.1332   4
 -10   5  -7 87.7277 42.3998  13
  10   5   7 99.4051 34.5569  12
  10   5   7 89.8884 47.5760   9
  10   5   8 63.2464 38.1752   5
 -10   5  -8 47.4057 37.2273  13
  10   6  -7 413.752 68.9841   5
 -10   6   7 448.585 69.1385  13
  10   6  -6 5.39330 41.9697   5
 -10   6   6 5.03899 37.2802  13
  10   6  -6 39.5511 38.0783  12
  10   6  -5 821.643 87.1478   5
 -10   6   5 742.109 79.6943  13
  10   6  -5 804.170 86.6079  12
  10   6  -5 677.174 67.8660   9
  10   6  -4 103.556 47.8254   5
  10   6  -4 78.3249 36.7402   9
 -10   6   4 84.6553 40.9758  13
  10   6  -4 83.6539 42.1765  12
  10   6  -3 722.971 84.2489   5
 -10   6   3 778.799 79.9754  13
  10   6  -3 654.410 70.3106   9
  10   6  -3 688.674 78.8864  12
  10   6  -2 10.8068 42.4515   5
  10   6  -2 14.1524 20.8568   8
  10   6  -2 36.2348 33.5112   9
  10   6  -2 27.1484 38.4240  12
  10   6  -1 673.137 83.1594   4
  10   6  -1 698.078 81.4411   5
  10   6  -1 565.213 42.0125   8
  10   6  -1 708.535 74.6430   9
 -10   6   1 613.540 72.6245  13
 -10   6   0 91.4350 43.1438  13
  10   6   0 67.8511 37.7900  12
  10   6   0 9.62422 23.1412   8
  10   6   0 88.6036 41.1526   9
  10   6   0-27.3838 51.1880   4
  10   6   1 489.984 69.6718   5
  10   6   1 413.292 69.8298   4
  10   6   1 379.516 63.4270   9
  10   6   1 390.834 35.5442   8
 -10   6  -1 542.872 69.9033  13
  10   6   1 437.602 65.7538  12
  10   6   2 124.568 46.2340   5
  10   6   2 88.9386 45.7306   4
  10   6   2 117.448 44.6728   9
  10   6   2 55.6674 22.4777   8
 -10   6  -2 153.691 45.2313  13
  10   6   2 89.0233 39.6358  12
  10   6   3 275.809 57.5921   5
  10   6   3 349.766 62.3181   4
  10   6   3 348.705 60.8708   9
 -10   6  -3 373.913 64.9165  13
  10   6   3 367.430 58.3724  12
  10   6   4 220.141 55.9815   5
  10   6   4 275.314 58.1121   4
 -10   6  -4 354.052 58.5615  13
  10   6   4 297.372 51.4975  12
  10   6   4 246.205 56.0030   9
  10   6   5 136.057 46.4295   5
  10   6   5 176.005 50.3602   4
 -10   6  -5 186.160 48.7077  13
  10   6   5 104.530 39.1825  12
  10   6   5 112.271 52.6865   9
  10   6   6 484.653 67.7922   5
  10   6   6 468.774 72.1729   4
 -10   6  -6 570.246 71.5259  13
  10   6   6 384.416 57.9013  12
  10   6   6 419.786 70.9452   9
 -10   6  -7 301.155 56.2164  13
  10   6   7 242.744 46.2110  12
 -10   7   6 306.419 60.3104  13
 -10   7   5 5.12145 39.0790  13
  10   7  -5-5.86127 41.4755  12
  10   7  -5 28.4575 45.9605   5
  10   7  -4 383.110 67.3948   5
 -10   7   4 327.020 59.3547  13
  10   7  -4 407.315 67.3994  12
  10   7  -4 448.982 58.8726   9
  10   7  -3 11.4640 41.4947   5
 -10   7   3-5.07747 40.2647  13
  10   7  -3 46.0720 41.2243  12
  10   7  -3 17.5279 33.1022   9
  10   7  -2 131.440 47.9444   5
  10   7  -2 166.606 46.7622   9
 -10   7   2 227.452 52.4771  13
  10   7  -1 85.2483 47.9282   5
  10   7  -1 58.5831 51.3856   4
  10   7  -1 68.1187 37.8995   9
  10   7   0 538.830 79.2119   4
  10   7   0 758.584 80.5656   9
  10   7   0 645.605 76.9722  12
 -10   7   0 671.034 80.2384  13
  10   7   1 22.2922 41.6661   5
  10   7   1-47.1074 53.1636   4
  10   7   1 10.6159 33.8869   9
 -10   7  -1 40.4367 39.7094  13
  10   7   1 16.0171 38.6490  12
  10   7   2 847.941 93.9489   4
  10   7   2 882.502 90.1341   5
 -10   7  -2 820.503 86.7832  13
  10   7   2 861.202 88.3692   9
  10   7   2 748.280 82.6918  12
  10   7   3 407.909 68.4175   5
  10   7   3 354.220 65.4415   4
  10   7   3 412.305 67.4760   9
 -10   7  -3 375.221 64.2423  13
  10   7   3 387.117 61.1143  12
  10   7   4 556.140 71.1726  12
 -10   7  -4 710.699 79.6223  13
  10   7   4 701.040 80.4041   5
  10   7   4 559.165 80.3452   4
  10   7   4 580.923 78.4289   9
 -10   7  -5 324.829 60.5722  13
  10   7   5 220.631 49.9962  12
  10   7   6 162.991 44.3247  12
  10   8  -3 436.499 61.9554   9
 -10   8   3 412.870 66.0699  13
  10   8  -2 23.4884 36.2093   9
 -10   8   2 41.8121 44.0554  13
  10   8  -1 426.604 63.8323   9
  10   8  -1 369.017 70.7148   5
  10   8   0 67.7026 40.1398   9
  10   8   0-5.76811 44.8900  12
  10   8   1 637.922 78.3384   9
 -10   8  -1 557.250 76.7440  13
  10   8   1 512.605 72.1659  12
  10   8   2 68.2142 44.2624   9
 -10   8  -2 122.482 48.1049  13
  10   8   2 21.9411 45.8770  12
  10   8   3 527.997 75.4693   9
  10   8   3 408.550 68.1600  12
  10   8   4 233.798 54.0275  12
 -10   8  -5 336.235 58.2918  14
  10   8   5 284.169 56.9408  12
  10   8   6 411.402 61.3336  12
  10   9  -3 42.9080 41.3456   1
  10   9  -2 596.618 72.2964   9
  10   9  -2 479.938 65.5375   1
  10   9  -1 65.5712 45.2394   9
  10   9   0 801.033 86.0606   9
 -10   9  -2 321.644 52.5038  14
 -10   9  -3 248.751 49.3601  14
 -10   9  -4 201.618 47.1560  14
 -11  -8  -1 107.804 47.4003  10
 -11  -8  -2 336.267 60.0380  10
 -11  -7   6 279.028 55.3822   2
 -11  -7   6 381.299 60.3271   6
 -11  -7   5 153.218 48.1793   2
 -11  -7   4 552.825 74.0071   2
 -11  -7   3 131.969 49.2456   2
 -11  -7   2 260.493 58.1276   2
 -11  -7   2 215.195 55.9609  10
 -11  -7   1 213.244 53.9653  10
 -11  -7   1 182.933 55.2592   2
  11  -7  -1 201.760 56.0470   9
 -11  -7   0 173.657 51.5933  10
 -11  -7   0 162.541 52.8560   2
  11  -7   0 191.140 51.8671   9
  11  -7   1 366.826 62.5865   9
 -11  -7  -1 453.976 67.3711  10
  11  -7   2 19.5452 39.1064   9
 -11  -7  -2 14.4504 41.5845  10
  11  -7   3 564.609 71.0706   9
 -11  -7  -3 544.356 68.7887  10
  11  -7   4 68.6186 40.4397   9
  11  -7   5 206.020 48.7189   9
 -11  -6   6 71.1471 39.1000   6
 -11  -6   6 4.71462 34.1377   2
  11  -6  -5 404.015 66.5340   5
 -11  -6   5 385.690 57.5545   6
 -11  -6   5 409.645 63.3561   2
 -11  -6   4 152.077 47.4175   2
 -11  -6   4 70.1327 45.5534  10
 -11  -6   3 956.805 92.6369   2
 -11  -6   3 924.620 95.7144  10
  11  -6  -2 148.645 51.6619   9
 -11  -6   2 118.681 46.1592   2
 -11  -6   2 148.252 51.4174  10
  11  -6  -1 473.040 71.6375   9
 -11  -6   1 424.533 67.0844   2
 -11  -6   1 536.049 72.2016  10
  11  -6   0 355.602 62.0322   9
 -11  -6   0 274.365 58.8088   2
 -11  -6   0 363.122 63.4133  10
  11  -6   1 377.394 63.7054   9
 -11  -6  -1 443.397 64.7618  10
  11  -6   2 583.767 73.6245   9
 -11  -6  -2 477.621 65.7536  10
  11  -6   3 232.667 53.9697   9
 -11  -6  -3 177.610 54.5577   2
 -11  -6  -3 212.753 48.8565  10
 -11  -6  -4 361.512 58.0889  10
  11  -6   4 258.799 54.6580   9
  11  -6   4 296.461 66.6577   3
  11  -6   5 22.3750 36.4620   9
  11  -6   6 396.726 59.8004   9
  11  -5  -7 47.1065 42.2398   5
 -11  -5   6 950.676 76.1880   6
  11  -5  -6 1026.16 92.1086   5
 -11  -5   5 86.9814 49.6804  10
 -11  -5   5 85.2953 38.9601   2
  11  -5  -5 16.3430 43.6119   9
  11  -5  -5 64.0297 42.2020   5
 -11  -5   5 17.4724 31.1171   6
 -11  -5   4 822.660 88.3429  10
 -11  -5   4 638.869 75.1328   2
  11  -5  -4 793.269 86.9616   9
  11  -5  -4 862.349 86.3363   5
 -11  -5   3 164.198 50.5863  10
 -11  -5   3 93.5434 41.7395   2
  11  -5  -3 126.392 49.9923   9
  11  -5  -3 250.882 55.3308   5
 -11  -5   2 436.409 66.2041   2
 -11  -5   2 498.912 69.8600  10
  11  -5  -1 593.705 73.9313   9
 -11  -5   1 539.645 73.3383   2
 -11  -5   1 590.869 72.5313  10
  11  -5   0 279.263 56.3118   9
 -11  -5   0 292.037 56.3420   2
 -11  -5   0 258.486 53.7779  10
  11  -5   1 373.009 60.5110   9
 -11  -5  -1 335.036 57.4358  10
  11  -5   2 275.545 56.0588   9
 -11  -5  -2 258.281 51.1522  10
  11  -5   3 512.668 66.6422   9
 -11  -5  -3 587.795 76.8142   2
 -11  -5  -3 416.916 59.9742  10
  11  -5   4 132.365 49.7679   3
  11  -5   4 186.448 47.5423   9
 -11  -5  -4 87.1579 47.1170   2
 -11  -5  -4 97.8612 38.7983  10
  11  -5   5 352.357 67.0084   3
 -11  -5  -5 397.206 57.7904  10
 -11  -5  -5 347.355 66.0358   2
  11  -5   5 465.385 64.8743   9
  11  -5   6 57.8172 39.2994   9
  11  -5   6 33.1725 41.8727   5
  11  -5   7 142.634 45.8716   9
  11  -5   7 197.385 52.3391   5
  11  -4  -7 547.262 70.0344   5
 -11  -4   6 125.984 49.4824  10
  11  -4  -6 85.2844 45.3411   9
  11  -4  -6 104.352 45.2556   5
 -11  -4   6 62.9289 36.5614   2
  11  -4  -5 468.033 66.7093   5
 -11  -4   5 586.746 58.1315   6
  11  -4  -5 621.173 77.0898   9
 -11  -4   5 494.620 64.2036   2
 -11  -4   4 168.539 50.5787  10
  11  -4  -4 121.670 46.2053   5
  11  -4  -4 186.935 52.0712   9
 -11  -4   4 109.132 39.4710   2
 -11  -4   3 1077.26 94.6694  10
  11  -4  -3 973.433 89.3444   5
  11  -4  -3 1131.54 97.8987   9
 -11  -4   2 240.954 53.1657  10
  11  -4  -2 318.798 55.6301   5
  11  -4  -2 317.341 58.8967   9
 -11  -4   2 221.902 49.6018   2
 -11  -4   1 821.211 80.9533  10
  11  -4  -1 819.133 82.3588   5
 -11  -4   0 806.316 80.1653  10
  11  -4   0 783.143 80.6538   5
 -11  -4   0 536.671 73.1263   2
  11  -4   0 731.057 79.7924   9
  11  -4   1 345.059 59.9863   9
 -11  -4  -1 261.268 51.8305  10
  11  -4   2 654.141 75.0178   9
 -11  -4  -2 642.166 70.7075  10
  11  -4   2 543.802 69.0639   5
 -11  -4  -3 258.666 50.1952  10
  11  -4   3 255.441 52.8599   5
  11  -4   3 214.165 51.6979   9
  11  -4   3 267.437 57.1771   3
 -11  -4  -4 720.552 75.5211  10
  11  -4   4 806.192 80.4314   5
  11  -4   4 823.046 83.3174   9
  11  -4   4 785.175 85.2764   3
  11  -4   5 17.0456 40.6740   3
 -11  -4  -5 16.3161 33.8143  10
  11  -4   5 18.7764 37.2268   5
  11  -4   5 37.1508 37.8374   9
 -11  -4  -5 24.4072 37.8287   2
  11  -4   6 461.232 73.5370   3
 -11  -4  -6 471.495 59.3882  10
  11  -4   6 514.450 66.0667   5
 -11  -4  -6 352.481 66.5871   2
  11  -4   6 435.763 63.7112   9
  11  -4   7-26.9624 37.8763   9
  11  -4   7-8.89984 36.5732   5
  11  -4   8 443.946 60.4392   9
  11  -4   8 488.390 63.4812   5
  11  -3  -8 390.043 60.0815   5
 -11  -3   7 16.8882 41.2065  10
  11  -3  -7 13.7561 38.6520   5
  11  -3  -7 72.4467 44.3278   9
 -11  -3   7 25.1788 29.8224   2
 -11  -3   6 529.125 73.2130  10
  11  -3  -6 515.167 67.8536   5
 -11  -3   6 484.900 58.7603   2
  11  -3  -6 632.108 79.2463   9
 -11  -3   5 186.138 34.1732   6
  11  -3  -5 236.977 51.6383   5
 -11  -3   5 205.485 43.8624   2
  11  -3  -5 234.227 55.1702   9
  11  -3  -4 410.913 60.2117   5
 -11  -3   4 267.757 39.0288   6
  11  -3  -4 422.510 65.6159   9
 -11  -3   4 336.182 55.1655   2
  11  -3  -3 89.2468 22.3742   4
 -11  -3   3 126.790 44.5367  10
  11  -3  -3 148.812 44.6365   5
  11  -3  -3 104.442 41.9966   9
 -11  -3   3 128.221 39.7795   2
 -11  -3   2 227.275 50.0471  10
  11  -3  -2 302.650 54.1666   5
  11  -3  -2 200.595 26.7137   4
  11  -3  -2 280.508 55.9801   9
 -11  -3   2 280.875 51.8605   2
 -11  -3   1 283.780 56.3520  10
  11  -3  -1 268.631 53.0130   5
  11  -3  -1 171.792 26.0057   4
 -11  -3   0 595.600 69.6898  10
  11  -3   0 574.311 70.8739   5
  11  -3   1 429.195 64.3439   9
  11  -3   2 189.485 48.4236   5
  11  -3   2 177.557 47.3807   9
  11  -3   3 1226.77 96.4371   5
  11  -3   3 938.791 89.4483   3
  11  -3   3 1012.35 90.6903   9
  11  -3   4 357.931 58.4119   5
  11  -3   4 303.102 57.1105   3
  11  -3   4 357.080 59.8001   9
  11  -3   5 791.761 78.1486   5
  11  -3   5 748.334 85.0660   3
  11  -3   5 809.394 82.9049   9
  11  -3   6 17.8741 36.0862   5
  11  -3   6 22.5051 41.1791   3
  11  -3   6 4.72518 35.3282   9
  11  -3   7 925.811 84.6625   5
  11  -3   7 1135.50 105.870   3
  11  -3   7 1081.67 92.0863   9
  11  -3   8 18.2980 33.4819   9
  11  -3   8 12.4075 34.8591   5
  11  -2  -8-9.92634 41.4856   9
  11  -2  -8 17.6943 41.6142   5
 -11  -2   7 389.716 65.7255  10
  11  -2  -7 537.008 67.1035   5
  11  -2  -7 427.183 70.1166   9
 -11  -2   7 319.712 46.3732   2
 -11  -2   6 79.6582 45.1399  10
  11  -2  -6 13.9227 38.4870   5
  11  -2  -6 118.808 43.7428   9
 -11  -2   6 34.1685 29.5684   2
 -11  -2   5 441.235 65.4027  10
  11  -2  -5 474.751 66.3392   5
 -11  -2   5 402.486 55.5853   2
  11  -2  -5 403.609 63.2246   9
 -11  -2   4 282.941 34.9420   6
  11  -2  -4 458.803 64.2416   5
  11  -2  -4 356.746 59.2565   9
 -11  -2   4 343.261 53.0190   2
 -11  -2   3 413.534 61.7584  10
  11  -2  -3 369.457 58.1247   5
  11  -2  -3 335.120 59.1106   9
  11  -2  -3 272.297 37.6854   4
  11  -2  -2 560.387 70.8495   9
 -11  -2   2 620.261 71.8505  10
  11  -2  -2 724.187 76.7759   5
  11  -2  -1 637.848 71.4376   5
  11  -2  -1 464.624 46.0493   4
  11  -2  -1 621.375 73.5238   9
  11  -2   0 777.038 76.4456   5
  11  -2   0 497.107 48.3882   4
  11  -2   1 219.700 35.8954   4
  11  -2   2 544.614 69.2966   5
  11  -2   2 595.365 72.1431   9
  11  -2   3 87.6454 41.4106   5
  11  -2   3 91.6454 40.8380   3
  11  -2   3 105.915 43.5246   9
  11  -2   4 774.717 76.4319   5
  11  -2   4 602.147 72.6741   3
  11  -2   4 637.291 76.8193   9
  11  -2   5 17.9341 36.5594   5
  11  -2   5 101.256 41.6349   3
  11  -2   5 87.3889 42.9099   9
  11  -2   6 574.080 67.8285   5
  11  -2   6 671.741 79.8349   3
  11  -2   6 622.859 74.4257   9
  11  -2   7-8.46867 37.1246   5
  11  -2   7 27.9765 43.5429   3
  11  -2   7-48.3284 40.7347   9
  11  -2   8 535.887 67.9681   9
  11  -2   8 547.486 64.7086   5
  11  -2   9-9.40493 38.9781   9
  11  -1  -8 550.796 71.7498   9
 -11  -1   8 522.861 73.4115  10
  11  -1  -8 514.959 68.2476   5
 -11  -1   7-10.4166 37.2808  10
  11  -1  -7-4.56193 38.4482   5
  11  -1  -7 33.4101 39.5611   9
 -11  -1   7-6.50462 29.9858   2
  11  -1  -6 728.176 76.8411   5
  11  -1  -6 673.908 77.4091   9
 -11  -1   6 496.436 57.9527   2
 -11  -1   6 515.868 68.9202  10
  11  -1  -5 23.8899 38.5948   9
  11  -1  -5 79.5510 39.1254   5
 -11  -1   5 19.9989 34.5589  10
  11  -1  -4 616.955 72.9723   5
  11  -1  -4 672.837 74.9639   9
 -11  -1   3 191.329 25.2966   6
  11  -1  -3 141.607 47.7243   5
  11  -1  -3 233.567 50.8609   9
  11  -1  -2 514.481 68.3153   5
  11  -1  -2 354.284 44.8002   4
  11  -1  -2 481.395 65.4278   9
  11  -1  -1 368.005 47.3820   4
  11  -1  -1 462.574 63.1621   9
  11  -1   0 360.517 58.9701   5
  11  -1   0 294.173 43.8452   4
  11  -1   0 310.837 57.0303   9
  11  -1   1 485.952 49.8636   4
  11  -1   2 384.794 45.7730   4
  11  -1   2 272.493 53.6746   5
 -11  -1  -2 389.340 55.5733  13
  11  -1   2 389.841 55.6989   3
 -11  -1  -3 804.002 72.2894  13
  11  -1   3 736.513 76.1776   5
  11  -1   3 810.082 81.8014   9
  11  -1   3 869.210 78.5347   3
  11  -1   4 257.569 54.9522   5
 -11  -1  -4 291.484 47.2663  13
  11  -1   4 276.217 55.4880   9
  11  -1   4 327.360 54.3257   3
 -11  -1  -5 674.350 63.5031  13
  11  -1   5 643.144 71.5169   5
  11  -1   5 735.116 76.5923   3
  11  -1   5 518.320 71.1710   9
  11  -1   6 38.8536 36.4336   5
  11  -1   6 125.618 43.7561   3
  11  -1   6 90.1748 41.9174   9
  11  -1   7 604.074 68.0717   5
  11  -1   7 741.361 82.2581   3
  11  -1   7 748.633 80.6248   9
  11  -1   8 19.8232 36.3077   5
  11  -1   8 10.0125 38.2049   9
  11  -1   8 55.5183 41.9417   3
  11  -1   9 348.059 61.2716   9
  11   0  -9 250.208 55.7155   9
 -11   0   8 65.9072 43.1319  10
  11   0  -8 103.539 48.8683   5
  11   0  -8 59.1378 41.9978   9
  11   0  -8 159.074 51.0977  12
 -11   0   7 401.543 63.9187  10
  11   0  -7 428.418 61.6645   5
  11   0  -7 520.147 68.8064   9
 -11   0   7 351.864 47.5031   2
  11   0  -6 18.5584 36.7909   9
  11   0  -6-32.7053 42.1825   5
 -11   0   6 14.7906 37.9939  10
  11   0  -5 237.679 52.7220   9
  11   0  -5 372.856 58.4829   5
 -11   0   5 276.961 52.1050  10
  11   0  -4 99.4311 43.7450   5
  11   0  -4 135.623 42.9142   9
  11   0  -3 951.871 87.1513   5
  11   0  -3 859.603 83.1563   9
  11   0  -2 330.849 58.0671   5
  11   0  -2 334.788 58.5981   9
  11   0  -2 259.995 45.0909   4
  11   0  -1 456.825 63.9075   5
 -11   0   1 452.715 60.9137  13
  11   0  -1 339.805 53.0209   4
  11   0  -1 536.444 68.7427   9
 -11   0   0 432.612 59.1369  13
  11   0   0 535.748 68.0051   9
  11   0   0 319.513 51.0239   4
 -11   0  -1 527.382 63.4650  13
  11   0   1 585.172 70.6608   9
  11   0   1 545.268 57.8650   4
  11   0   1 548.550 59.5012   3
  11   0   2 532.932 56.3523   4
  11   0   2 535.132 69.0983   5
 -11   0  -2 712.061 69.8195  13
  11   0   2 558.171 62.4019   3
  11   0   3 415.564 51.0079   4
  11   0   3 387.806 62.4846   5
 -11   0  -3 344.749 52.8303  13
  11   0   3 358.500 60.9270   9
  11   0   3 306.505 51.3198   3
 -11   0  -4 653.346 66.3412  13
  11   0   4 566.503 72.9045   9
  11   0   4 710.780 75.6571   5
  11   0   4 714.868 65.9068   4
 -11   0  -5 96.6428 35.2909  13
  11   0   5 153.611 45.9755   9
  11   0   5 92.6529 39.0629   3
  11   0   5 123.702 44.8024   5
  11   0   6 410.797 55.3220  12
 -11   0  -6 484.224 55.8563  13
  11   0   6 532.656 70.3994   9
  11   0   6 553.736 68.3218   3
  11   0   6 438.836 61.9386   5
  11   0   7 35.1985 36.2445  12
  11   0   7 37.2883 38.9866   5
  11   0   7 64.5652 39.7568   3
  11   0   7 15.6368 38.9787   9
  11   0   8 381.346 56.8256   5
  11   0   8 272.669 59.8622   3
  11   0   8 324.745 61.3788   9
 -11   1   9 24.2462 38.8119  10
 -11   1   8 516.481 68.4377  10
  11   1  -8 536.669 70.9121   5
  11   1  -8 635.619 71.8711   9
  11   1  -8 545.985 74.1521  12
 -11   1   7 48.2814 41.3546  10
  11   1  -7-9.39940 40.5727   5
  11   1  -7 17.7599 35.2091   9
  11   1  -7-5.22177 43.2829  12
 -11   1   6 526.808 67.9841  10
  11   1  -6 706.834 74.3133   9
  11   1  -6 566.375 71.9284   5
  11   1  -6 515.196 69.9076  12
  11   1  -5 50.0708 36.7605   9
  11   1  -5 19.1687 40.3912   5
  11   1  -5-5.15786 36.0738  12
  11   1  -4 634.966 73.3126   9
  11   1  -4 681.940 75.6674   5
  11   1  -3 264.868 53.8851   9
  11   1  -3 240.191 49.5546   5
 -11   1   3 262.950 52.1101  13
  11   1  -2 397.775 61.3513   5
 -11   1   2 500.695 64.6451  13
  11   1  -2 464.666 65.2357   9
  11   1  -2 345.349 54.2409   4
  11   1  -1 534.389 66.8164   5
  11   1  -1 489.152 66.1166   9
  11   1  -1 360.034 56.4058   4
 -11   1   1 462.976 63.4960  13
  11   1   0 424.273 62.6726   9
  11   1   0 319.733 43.5687   3
 -11   1   0 382.619 57.5079  13
 -11   1  -1 539.802 64.6153  13
  11   1   1 593.066 70.6474   9
  11   1   1 481.678 61.3222   4
  11   1   1 625.158 57.6340   3
  11   1   2 364.008 58.6658   5
 -11   1  -2 330.837 53.7306  13
  11   1   2 359.995 59.9261   9
  11   1   2 343.975 47.7066   3
  11   1   2 342.937 49.9975   4
  11   1   3 784.727 72.7176   4
  11   1   3 853.253 80.9044   5
 -11   1  -3 889.183 78.3716  13
  11   1   3 841.193 71.9953   3
  11   1   4 218.198 44.3926   4
  11   1   4 231.529 49.7931   5
  11   1   4 203.247 46.9336  12
 -11   1  -4 251.410 48.0991  13
  11   1   4 259.554 54.0213   9
  11   1   4 252.510 46.7078   3
 -11   1  -5 731.175 68.5476  13
  11   1   5 546.624 62.9223  12
  11   1   5 637.586 78.0288   9
  11   1   5 654.730 68.1846   3
  11   1   5 666.852 71.0384   5
  11   1   6 3.81387 37.0798  12
 -11   1  -6 105.254 36.3611  13
  11   1   6 96.4714 45.5714   9
  11   1   6 147.231 42.3493   3
  11   1   6 43.2906 40.2224   5
  11   1   7 564.211 61.1347  12
  11   1   7 687.040 72.1718   5
  11   1   7 851.388 81.0555   3
  11   1   7 699.073 80.3249   9
  11   1   8-7.86855 40.0632   5
  11   1   8 93.7281 42.2630   3
  11   1   8 49.3403 41.4224   9
 -11   2   9 138.939 45.6516  10
 -11   2   8-4.67240 35.6534  10
  11   2  -8 37.6190 40.2773   5
  11   2  -8 10.5904 41.9905  12
 -11   2   7 486.536 66.5872  10
  11   2  -7 514.447 69.9276   5
  11   2  -7 530.499 66.2850   9
  11   2  -7 537.213 71.3718  12
 -11   2   6 23.3681 37.7418  10
  11   2  -6 43.8308 36.9418   9
  11   2  -6 24.4054 38.7068   5
  11   2  -6-42.4498 50.2458  12
  11   2  -5 468.901 63.7663   9
  11   2  -5 590.657 70.8675   5
  11   2  -5 447.949 66.6543  12
  11   2  -4 408.903 60.3316   9
  11   2  -4 448.606 64.4786   5
  11   2  -4 291.621 60.1595  12
  11   2  -3 388.016 60.8404   9
  11   2  -3 305.170 58.0921   5
  11   2  -3 390.183 63.2663  12
 -11   2   3 363.912 59.7157  13
  11   2  -2 598.079 74.0610   5
  11   2  -2 610.546 74.9652  12
  11   2  -2 672.411 74.0015   9
 -11   2   2 623.545 72.1584  13
 -11   2   1 607.122 69.1626  13
  11   2  -1 580.795 71.5979   5
  11   2  -1 593.901 71.4345   9
  11   2  -1 378.725 63.7832   4
 -11   2   0 760.511 76.5851  13
  11   2   0 683.833 74.5560   4
  11   2   0 703.019 76.1053  12
  11   2   0 642.773 54.5333   3
  11   2   0 641.137 74.2052   9
  11   2   1 246.335 52.0369  12
 -11   2  -1 377.986 57.3516  13
  11   2   1 330.693 57.0800   9
  11   2   1 339.077 42.2278   3
 -11   2  -2 610.753 68.7871  13
  11   2   2 556.657 69.5047   5
  11   2   2 493.808 64.2929  12
  11   2   2 604.413 73.8291   9
  11   2   2 476.208 62.0203   4
  11   2   2 526.954 52.6532   3
  11   2   3 45.8955 28.2522   3
  11   2   3 51.7406 33.9079   4
  11   2   3 70.5184 43.0743   5
  11   2   3 102.946 41.0126  12
 -11   2  -3 76.0794 36.2344  13
  11   2   4 613.179 68.6064   4
  11   2   4 601.580 70.6015   5
  11   2   4 651.520 69.4326  12
 -11   2  -4 667.303 69.3601  13
  11   2   4 739.810 64.8374   3
  11   2   5 63.4970 40.6745   5
  11   2   5 55.6383 36.1013   4
  11   2   5 49.3129 36.8571  12
 -11   2  -5 48.0034 33.1814  13
  11   2   5 92.7289 42.4642   9
  11   2   5 32.6940 29.3620   3
 -11   2  -6 673.605 67.1984  13
  11   2   6 586.006 64.2979  12
  11   2   6 632.947 78.9598   9
  11   2   6 717.433 70.1674   3
  11   2   6 638.303 70.7196   5
  11   2   7-7.05431 36.3085  12
  11   2   7-4.20932 38.8093   5
  11   2   7-12.8861 34.3751   3
  11   2   7 22.5949 40.8903   9
  11   2   8 518.029 62.4843   5
 -11   3   9 26.4812 35.6460  10
 -11   3   8 318.696 56.9407  10
  11   3  -8 419.850 65.3121   5
 -11   3   7-27.2491 42.1580  10
  11   3  -7 28.9228 35.3896   9
  11   3  -7 9.94033 38.3018   5
  11   3  -7-16.3356 37.1627  12
  11   3  -6 521.923 66.3072   9
  11   3  -6 543.114 70.8137   5
  11   3  -6 500.632 71.8014  12
  11   3  -5 242.049 50.3202   9
  11   3  -5 293.638 57.0277   5
  11   3  -5 210.727 52.7492  12
 -11   3   5 166.423 49.8538  13
  11   3  -4 352.077 58.8178   9
  11   3  -4 432.142 64.2656   5
  11   3  -4 261.952 57.1108  12
  11   3  -3 92.5245 42.1114   9
  11   3  -3 71.1513 39.9751   5
  11   3  -3 100.236 41.4921  12
 -11   3   3 69.9304 40.3848  13
  11   3  -2 322.581 55.2332   9
  11   3  -2 349.757 59.9490   5
  11   3  -2 301.286 58.5272  12
 -11   3   2 361.610 59.2565  13
  11   3  -1 337.965 58.1617   5
  11   3  -1 443.647 63.4201   9
  11   3  -1 218.217 55.6484   4
 -11   3   1 373.274 59.6476  13
 -11   3   0 580.880 69.2627  13
  11   3   0 593.803 71.8033  12
  11   3   0 491.529 68.4396   4
  11   3   0 720.964 78.6226   9
  11   3   1 424.268 61.9838  12
 -11   3  -1 422.429 60.7273  13
  11   3   1 507.866 67.2032   9
  11   3   1 361.848 61.5824   4
  11   3   2 211.316 51.9558   5
  11   3   2 208.858 46.9625  12
 -11   3  -2 242.829 47.5893  13
  11   3   2 251.825 52.7650   9
  11   3   2 190.434 49.3906   4
  11   3   3 841.691 82.2581  12
  11   3   3 1128.66 98.7445   9
 -11   3  -3 959.922 83.6145  13
  11   3   3 964.887 87.8866   4
  11   3   3 998.371 90.3606   5
  11   3   4 260.764 49.7287  12
 -11   3  -4 293.252 52.4035  13
  11   3   4 228.087 50.8870   4
  11   3   4 266.556 53.7441   5
  11   3   5 792.994 76.0121  12
 -11   3  -5 978.224 82.4845  13
  11   3   5 926.877 87.3986   4
  11   3   5 867.491 83.2970   5
  11   3   6 5.76615 38.8630   9
  11   3   6-19.6704 32.6145  12
 -11   3  -6-32.8990 34.0921  13
  11   3   6-13.4423 37.7693   5
  11   3   6-52.2141 46.8072   4
  11   3   7 780.529 70.1649  12
  11   3   7 818.917 79.0953   5
 -11   3  -7 984.865 82.4753  13
  11   3   7 976.207 97.6465   9
  11   3   8 40.4222 36.2460   5
 -11   4   8 34.5612 35.5134  10
 -11   4   7 437.645 61.9372  10
  11   4  -7 518.211 72.2778   5
  11   4  -6 88.1156 40.2847   9
  11   4  -6 62.9947 44.2798   5
  11   4  -6 67.1266 43.5658  12
 -11   4   6 79.8803 46.0077  13
  11   4  -5 532.585 66.9916   9
  11   4  -5 615.865 75.1367   5
  11   4  -5 517.434 72.9061  12
 -11   4   5 467.386 69.1738  13
  11   4  -4 90.4389 40.6512   9
  11   4  -4 137.142 47.3817   5
  11   4  -4 182.134 50.9802  12
  11   4  -3 1111.47 92.8295   9
  11   4  -3 1000.65 93.9590   5
  11   4  -3 943.096 92.6610  12
  11   4  -2 284.509 54.2543   9
  11   4  -2 298.919 58.9308   5
  11   4  -2 349.200 60.6293  12
 -11   4   2 225.347 52.2756  13
 -11   4   1 708.226 76.8871  13
  11   4  -1 819.834 84.1024   5
  11   4  -1 704.927 78.6751   9
  11   4  -1 580.643 76.8074   4
 -11   4   0 729.678 77.6192  13
  11   4   0 614.978 73.6650  12
  11   4   0 755.036 78.3755   9
  11   4   0 482.074 72.9637   4
  11   4   1 395.764 65.6476   5
  11   4   1 338.089 57.9283  12
 -11   4  -1 375.328 58.5561  13
  11   4   1 387.908 61.9691   9
  11   4   1 205.009 57.6646   4
 -11   4  -2 700.807 74.2872  13
  11   4   2 639.853 75.3404   5
  11   4   2 441.602 63.6370  12
  11   4   2 566.671 72.5828   9
  11   4   2 516.358 71.8638   4
  11   4   3 295.550 56.5181   5
  11   4   3 227.597 50.2559  12
 -11   4  -3 313.028 54.5430  13
  11   4   3 232.615 53.1471   9
  11   4   3 241.121 52.5943   4
  11   4   4 713.796 81.3387   4
  11   4   4 873.816 85.0425   5
  11   4   4 633.322 71.6900  12
  11   4   4 825.567 88.1204   9
 -11   4  -4 806.215 80.2764  13
  11   4   5 28.7185 37.6036   5
  11   4   5 43.0321 38.5043   4
 -11   4  -5-13.3735 37.5725  13
  11   4   5 8.65756 32.0260  12
  11   4   6 383.669 68.9445   9
  11   4   6 476.985 66.3582   5
  11   4   6 389.929 65.8460   4
 -11   4  -6 498.794 64.8844  13
  11   4   6 424.442 57.8174  12
  11   4   7 17.6999 39.9510   5
 -11   4  -7-25.6248 37.4413  13
  11   5  -6 1153.16 104.268   5
  11   5  -5 56.1402 38.1511   9
  11   5  -5 33.1308 42.9740   5
  11   5  -5-28.8322 44.8773  12
 -11   5   5 69.2472 43.7818  13
  11   5  -4 799.140 78.1018   9
  11   5  -4 851.405 88.8214   5
  11   5  -4 726.938 84.4820  12
 -11   5   4 594.987 76.1335  13
  11   5  -3 192.656 49.3330   9
  11   5  -3 192.974 52.3694   5
  11   5  -3 130.088 50.8650  12
 -11   5   2 642.202 77.6063  13
  11   5  -2 599.584 71.8792   9
  11   5  -2 572.315 79.5225   4
  11   5  -2 632.824 77.4367   5
 -11   5   1 603.092 73.7330  13
  11   5  -1 535.655 74.7986   5
  11   5  -1 568.959 79.2138   4
  11   5  -1 676.124 76.9690   9
  11   5   0 215.055 54.2018  12
 -11   5   0 384.459 60.5958  13
  11   5   0 281.657 55.5370   9
  11   5   0 231.290 61.2294   4
  11   5   1 344.157 63.2279   5
  11   5   1 377.856 62.7586  12
 -11   5  -1 325.662 57.6059  13
  11   5   1 322.715 59.9597   9
  11   5   1 227.041 61.3767   4
  11   5   2 297.194 59.4225   5
 -11   5  -2 253.458 54.0981  13
  11   5   2 147.872 49.4355  12
  11   5   2 199.837 52.7700   9
  11   5   2 120.138 49.5233   4
  11   5   3 600.847 74.0770   5
 -11   5  -3 511.992 67.8414  13
  11   5   3 428.642 64.0660  12
  11   5   3 503.746 72.5275   9
  11   5   3 519.138 72.2912   4
  11   5   4 171.267 54.5340   9
  11   5   4 102.487 45.0253   5
 -11   5  -4 124.528 47.1834  13
  11   5   4 122.667 42.3984  12
  11   5   5 369.693 67.0795   9
  11   5   5 396.549 68.6264   4
  11   5   5 364.260 63.3120   5
 -11   5  -5 468.319 65.0957  13
  11   5   5 429.328 61.4330  12
  11   5   6-9.63529 38.5561   5
 -11   5  -6 4.66169 38.3119  13
  11   5   6 45.8763 35.4381  12
  11   5   7 155.980 47.7024   5
 -11   5  -7 233.123 52.4007  13
  11   6  -4 139.676 44.0966   9
  11   6  -4 81.3628 46.9947   5
 -11   6   4 91.3023 45.7005  13
  11   6  -4 94.9519 47.1232  12
  11   6  -3 1045.01 101.591   5
  11   6  -3 899.985 94.2826  12
  11   6  -3 963.884 87.6562   9
 -11   6   3 884.032 90.0243  13
  11   6  -2 133.177 45.9188   9
  11   6  -2 104.231 53.1352   4
  11   6  -2 214.096 58.0094   5
 -11   6   1 438.479 67.3530  13
  11   6  -1 502.825 68.9486   9
  11   6  -1 523.495 72.7782   5
 -11   6   0 295.100 58.7329  13
  11   6   0 369.335 62.2603  12
  11   6   0 261.113 54.6849   9
  11   6   0 236.669 61.7347   4
 -11   6  -1 461.824 67.1488  13
  11   6   1 409.156 66.2652  12
  11   6   1 491.768 70.7100   9
  11   6   1 295.594 66.6018   4
  11   6   1 378.536 66.3733   5
 -11   6  -2 515.936 70.3720  13
  11   6   2 476.976 69.2498  12
  11   6   2 555.404 77.6560   9
  11   6   2 479.297 75.6371   4
  11   6   2 557.758 77.8204   5
 -11   6  -3 101.674 48.5918  13
  11   6   3 153.444 48.5747  12
  11   6   3 189.335 54.3036   9
  11   6   3 165.290 51.0968   4
  11   6   3 180.904 54.6654   5
 -11   6  -4 368.539 62.5036  13
  11   6   4 337.592 59.4525  12
  11   6   4 436.588 70.6607   4
  11   6   4 353.756 65.7782   5
 -11   6  -5 25.0478 39.7271  13
  11   6   5-9.29133 36.4990  12
  11   6   5 72.8423 46.6404   5
  11   6   6 352.337 56.7137  12
  11   6   6 323.778 62.0543   5
  11   6   7-28.2431 41.5832   5
  11   7  -3 237.337 52.0417   9
  11   7  -2 209.958 51.9840   9
  11   7  -1 261.173 60.5962  12
  11   7  -1 171.873 60.5154   4
  11   7  -1 151.944 50.1380   9
  11   7   0 203.355 55.1236  12
  11   7   0 142.041 50.1404   9
  11   7   0 92.1270 51.8768   4
  11   7   1 476.492 70.5485  12
  11   7   1 419.859 68.6793   9
  11   7   1 357.575 71.1555   4
  11   7   1 474.470 74.7980   5
  11   7   2 70.0186 49.1953   5
  11   7   2 47.0400 44.8871   9
  11   7   2 55.1489 42.5210  12
  11   7   3 506.301 71.4670  12
  11   7   4 15.3327 38.9998  12
  11   7   5 164.829 50.8728  12
  11   8  -2 170.949 51.6337   9
  11   8  -1 222.454 55.0780   9
 -12  -6   0 606.230 80.6018  10
 -12  -6  -1 42.1979 44.1014  10
 -12  -6  -2 563.205 73.0576  10
 -12  -6  -3 38.8437 39.2201  10
 -12  -5   6 316.562 54.4002   2
 -12  -5   5 289.964 55.4514   2
 -12  -5   4 227.486 53.8289   2
 -12  -5   3 800.680 87.0276   2
 -12  -5   2 130.366 52.0108  10
  12  -5  -2 140.790 49.6986   5
 -12  -5   2 154.841 51.1443   2
 -12  -5   1 672.218 81.8571  10
  12  -5  -1 667.294 79.5778   5
  12  -5  -1 768.582 86.1882   9
 -12  -5   1 634.917 80.8669   2
 -12  -5   0 138.956 48.2803  10
  12  -5   0 16.2711 43.8289   5
 -12  -5   0 79.2881 44.1811   2
  12  -5   0 53.8397 44.2772   9
 -12  -5  -1 496.795 70.5368  10
  12  -5   1 711.078 82.8295   9
 -12  -5  -1 625.953 82.0286   2
  12  -5   2 41.8014 44.4046   9
 -12  -5  -2 19.9733 36.9489  10
  12  -5   2 42.9790 42.2127   5
  12  -5   3 405.957 65.2727   9
  12  -5   3 536.797 79.0830   3
 -12  -5  -3 403.337 64.7320  10
 -12  -5  -4 129.029 47.0350  10
  12  -5   4 156.163 48.7395   9
 -12  -4   6 89.0120 38.4800   2
 -12  -4   5 158.116 45.2325   2
  12  -4  -4 504.221 72.5985   5
 -12  -4   4 354.750 60.4778   2
 -12  -4   3 442.027 69.1505  10
  12  -4  -3 476.197 69.5281   5
  12  -4  -3 449.576 71.5025   9
 -12  -4   3 378.171 63.2885   2
 -12  -4   2 728.028 84.1200  10
  12  -4  -2 732.960 83.9173   5
  12  -4  -2 797.882 87.8607   9
 -12  -4   2 564.961 74.3410   2
 -12  -4   1 133.802 50.8129  10
  12  -4  -1 175.238 52.3352   5
 -12  -4   1 154.549 48.3830   2
 -12  -4   0 905.075 88.3794  10
  12  -4   0 1039.31 94.4315   5
  12  -4   0 943.773 93.3462   9
 -12  -4   0 765.466 87.5006   2
 -12  -4  -1 60.7619 45.4025  10
  12  -4   1 10.5582 39.4851   9
 -12  -4  -1 96.6175 49.2104   2
  12  -4   2 924.480 93.0379   9
 -12  -4  -2 953.635 89.5096  10
  12  -4   2 1097.41 98.8414   5
  12  -4   3 71.6530 46.8328   3
 -12  -4  -3 23.8477 38.5154  10
  12  -4   3-5.20399 39.3095   5
  12  -4   3-25.8375 43.1936   9
 -12  -4  -3-6.30584 38.4929   2
 -12  -4  -4 562.426 69.8337  10
  12  -4   4 703.983 80.9823   5
  12  -4   4 669.162 79.7604   9
  12  -4   4 593.558 80.0423   3
  12  -4   5 50.4085 42.1527   9
 -12  -4  -5 31.0346 37.9932  10
  12  -4   5 80.7585 45.2599   5
 -12  -3   6 166.122 44.7927   2
  12  -3  -6 222.421 53.9138   5
 -12  -3   5 142.687 43.2379   2
  12  -3  -5 251.765 55.6183   5
  12  -3  -4 217.744 53.2235   5
  12  -3  -4 113.423 46.4325   9
 -12  -3   4 181.249 45.6473   2
 -12  -3   3 213.831 57.8654  10
  12  -3  -3 203.230 53.2646   5
  12  -3  -3 198.716 56.3930   9
 -12  -3   3 189.964 46.9276   2
 -12  -3   2 240.876 54.4074  10
  12  -3  -2 219.361 51.2715   5
  12  -3  -2 256.336 58.6910   9
 -12  -3   2 133.404 47.3882   2
 -12  -3   1 308.311 57.5158  10
  12  -3  -1 370.935 63.2918   5
 -12  -3   0 25.5374 36.5622  10
  12  -3   0 15.6386 38.1551   5
  12  -3   1 599.400 77.4569   9
 -12  -3  -1 599.088 72.4915  10
  12  -3   2 31.3796 37.0291   9
  12  -3   2 49.9448 39.9898   3
  12  -3   2 82.4292 41.6213   5
  12  -3   3 807.038 87.0639   9
  12  -3   3 776.978 84.8154   3
  12  -3   3 872.403 85.7530   5
  12  -3   4-25.9245 39.5633   9
  12  -3   4 5.38836 41.5248   3
  12  -3   4 5.03167 38.7760   5
  12  -3   5 644.905 80.0379   9
  12  -3   5 756.894 86.4543   3
  12  -3   5 780.576 82.1680   5
  12  -3   6 19.2700 38.9201   5
  12  -3   6 97.3043 46.9075   9
  12  -2  -6 210.942 54.3808   5
 -12  -2   6 172.407 42.4915   2
 -12  -2   5 145.021 50.0684  10
  12  -2  -5 76.4841 44.7803   5
 -12  -2   5 93.4510 39.6886   2
  12  -2  -5 153.474 51.1489   9
  12  -2  -4 180.343 52.2580   5
  12  -2  -4 148.046 48.8539   9
 -12  -2   4 99.2141 39.2909   2
  12  -2  -3-26.3991 38.2219   9
 -12  -2   3 53.4117 38.6659  10
  12  -2  -3 31.0641 41.0571   5
  12  -2  -2 252.929 55.4041   9
 -12  -2   2 261.662 55.3172  10
  12  -2  -2 181.204 53.2865   5
  12  -2  -1 57.8393 43.2232   9
 -12  -2   1 25.6865 34.6339  10
  12  -2  -1 46.5124 40.6117   5
  12  -2   0 653.963 78.2789   5
  12  -2   0 567.958 48.6212   4
  12  -2   1 8.75853 27.5560   4
  12  -2   2 421.945 64.1975   5
  12  -2   2 393.656 61.3202   3
  12  -2   2 367.416 63.7709   9
  12  -2   3-5.03611 40.6712   5
  12  -2   3 19.3145 35.3437   3
  12  -2   3 63.1635 42.8861   9
  12  -2   4 601.174 73.3413   5
  12  -2   4 707.902 79.0426   3
  12  -2   4 617.220 78.3051   9
  12  -2   5 19.5083 40.0848   5
  12  -2   5 42.2118 39.0394   3
  12  -2   5 10.5717 39.5226   9
  12  -2   6 588.209 73.5063   5
  12  -2   6 601.240 78.3059   3
  12  -2   6 658.026 80.6696   9
  12  -2   7 59.3030 39.4064   5
  12  -1  -7 251.501 55.1164   5
 -12  -1   6 329.994 64.0487  10
  12  -1  -6 448.232 67.8655   5
  12  -1  -6 488.986 69.9964   9
 -12  -1   6 337.685 53.6680   2
  12  -1  -5 496.520 72.1572   9
  12  -1  -5 581.240 73.6659   5
 -12  -1   5 377.514 65.0179  10
  12  -1  -4 259.409 59.2441   9
  12  -1  -4 210.453 52.2552   5
  12  -1  -3 706.935 81.0831   9
  12  -1  -3 721.139 80.1811   5
  12  -1  -3 529.201 56.5521   4
  12  -1  -2 98.9067 44.6113   9
  12  -1  -2 39.8906 29.5289   4
  12  -1  -2 77.3249 46.5650   5
  12  -1  -1 532.228 72.8256   9
  12  -1  -1 483.343 52.4299   4
  12  -1  -1 690.123 79.0701   5
  12  -1   0-5.23297 35.2731   9
  12  -1   0-44.4728 36.2500   4
  12  -1   1 888.257 78.0952   3
  12  -1   1 667.934 59.5512   4
  12  -1   2-8.50831 31.1356   3
  12  -1   2 20.4607 25.2336   4
  12  -1   2-10.1134 39.7255   5
  12  -1   3 389.453 67.2916   9
  12  -1   3 424.797 63.1281   3
  12  -1   3 585.320 72.6536   5
  12  -1   4 53.8968 42.7471   9
  12  -1   4 51.6155 39.2306   3
  12  -1   4 4.92479 39.7779   5
  12  -1   5 509.136 72.9808   9
  12  -1   5 602.194 74.5543   3
  12  -1   5 520.509 68.8398   5
  12  -1   6 86.5587 46.4144   9
  12  -1   6 160.671 50.4080   3
  12  -1   6 98.4963 45.0661   5
  12  -1   7 390.720 58.9357  12
  12  -1   7 442.658 65.4611   5
  12  -1   8 8.55314 39.4298   5
  12   0  -7 178.011 50.6813   9
  12   0  -7 49.8773 43.1293   5
  12   0  -6 480.933 70.5111   9
 -12   0   6 425.678 66.3813  10
  12   0  -6 476.923 72.2241   5
  12   0  -5 237.752 55.1315   9
 -12   0   5 178.981 50.1463  10
  12   0  -5 292.711 60.9502   5
  12   0  -4 616.261 74.9161   9
 -12   0   4 713.265 79.7362  10
  12   0  -4 729.079 80.7716   5
  12   0  -3 46.1463 38.7396   9
  12   0  -3 48.7289 34.6382   4
  12   0  -3 5.18225 41.8563   5
  12   0  -2 676.332 79.8795   9
  12   0  -2 828.356 86.2836   5
  12   0  -2 609.635 63.8367   4
  12   0  -1 41.6002 38.8772   9
  12   0  -1-15.4750 43.4752   5
 -12   0   0 865.037 84.6240  13
  12   0   0 747.398 68.9071   4
  12   0   0 957.876 75.9651   3
  12   0   0 822.983 86.8379   9
 -12   0  -1 46.1555 36.9418  13
  12   0   1 31.8041 35.7257   9
  12   0   1 80.4285 36.8011   3
  12   0   1-27.0057 35.8812   4
  12   0   2 682.286 76.8246   5
  12   0   2 597.060 60.3894   4
 -12   0  -2 618.224 70.7976  13
  12   0   2 612.653 65.1865   3
  12   0   3 60.8721 30.6858   4
  12   0   3-4.99802 41.0871   5
 -12   0  -3 42.7460 36.0407  13
  12   0   3 27.2310 37.6447   9
  12   0   3 77.3575 37.0341   3
 -12   0  -4 614.105 66.4703  13
  12   0   4 567.418 75.3417   9
  12   0   4 478.815 63.4061   3
  12   0   4 492.293 67.1527   5
 -12   0  -5 50.5908 33.8669  13
  12   0   5 55.4738 41.9114   9
  12   0   5 36.5445 36.2330   3
  12   0   5-4.81754 39.9399   5
  12   0   6 286.298 52.8190  12
  12   0   6 266.811 55.9512   5
  12   0   6 289.074 55.8991   3
  12   0   6 256.594 58.7300   9
  12   0   7 86.0603 45.3960   3
  12   0   7 26.9847 44.7631   5
  12   0   8 259.898 51.3671   5
  12   1  -7 215.230 54.5605   9
  12   1  -7 380.541 63.0381   5
 -12   1   6 528.559 72.6054  10
  12   1  -6 474.987 71.2635   5
  12   1  -6 463.350 68.6336   9
  12   1  -6 331.246 64.9856  12
 -12   1   5 329.928 60.7607  10
  12   1  -5 529.822 68.7557   9
  12   1  -5 458.578 69.8357   5
  12   1  -5 402.247 67.6208  12
  12   1  -4 301.068 55.9990   9
  12   1  -4 188.424 54.7243   5
  12   1  -4 182.748 52.3649  12
  12   1  -3 848.097 85.5994   9
  12   1  -3 679.310 71.0820   4
  12   1  -3 791.603 85.2900   5
  12   1  -2 104.693 46.9433   5
 -12   1   2 82.3260 40.8262  13
  12   1  -2 118.149 46.3999   9
  12   1  -2-3.90264 37.2207   4
  12   1  -1 621.290 76.5105   5
 -12   1   1 564.674 71.5226  13
  12   1  -1 429.323 60.7542   4
  12   1  -1 656.430 77.5836   9
 -12   1   0-9.70996 34.3636  13
  12   1   0-26.4058 38.2376   9
  12   1   0-57.8760 46.3707   4
  12   1   1 751.229 83.3717   9
 -12   1  -1 707.423 77.4765  13
  12   1   1 656.729 68.8846   4
  12   1   2 7.89541 31.3043   4
  12   1   2-20.4202 38.1665   5
 -12   1  -2 18.2904 34.5402  13
  12   1   2-16.4124 40.0398   9
  12   1   3 460.719 65.3406  12
 -12   1  -3 398.241 60.0059  13
  12   1   3 504.069 67.2371   5
  12   1   3 428.660 56.5449   4
  12   1   4-9.90628 44.0783   5
  12   1   4 8.40694 30.4322   4
  12   1   4 9.25364 35.6592  12
 -12   1  -4 68.3016 36.8555  13
  12   1   4 33.7682 37.9305   9
  12   1   5 489.520 66.9619   5
  12   1   5 543.513 65.7482  12
 -12   1  -5 528.771 64.7482  13
  12   1   5 580.787 77.3045   9
  12   1   6 58.2383 38.1259  12
  12   1   6 84.7568 44.6180   5
  12   1   7 583.802 72.2966   5
  12   2  -7 254.102 54.9498   9
 -12   2   6 212.532 58.0635  10
  12   2  -6 252.742 58.7705   5
  12   2  -6 242.357 55.0416   9
  12   2  -5 122.509 49.5207   5
  12   2  -5 96.5759 47.1679  12
  12   2  -5 126.379 46.4061   9
  12   2  -4 107.099 45.5456   5
  12   2  -4 73.2919 45.5725  12
 -12   2   4 81.7878 45.6214  13
  12   2  -4 79.3773 43.5398   9
  12   2  -3 75.0630 44.8225   5
  12   2  -3 40.4335 40.8206   9
  12   2  -3 16.7142 39.8869  12
 -12   2   3 5.33212 39.4538  13
  12   2  -2 187.208 50.9056   5
  12   2  -2 253.065 52.2559   4
  12   2  -2 231.576 54.6497   9
 -12   2   2 187.487 51.7606  13
  12   2  -1 31.9664 40.2442   5
  12   2  -1-69.3906 46.7997   4
  12   2  -1 83.8502 43.8049   9
 -12   2   1 5.08832 36.4220  13
  12   2   0 679.990 73.2504   4
 -12   2   0 655.006 75.4208  13
  12   2   0 813.638 87.0147   9
  12   2   0 776.563 82.8386  12
  12   2   1 84.0024 45.6781   5
  12   2   1-34.8926 43.6490   4
  12   2   1 60.1569 40.4600   9
  12   2   1-10.3316 40.5844  12
 -12   2  -1 33.8760 36.5580  13
  12   2   2 415.793 63.7679   5
  12   2   2 321.883 53.8652   4
  12   2   2 286.839 57.5777  12
 -12   2  -2 457.421 62.6881  13
  12   2   2 312.548 63.4445   9
  12   2   3 41.0103 44.2547   5
  12   2   3-18.0159 32.2399   4
  12   2   3-29.2572 41.4329  12
 -12   2  -3-4.59291 35.0463  13
  12   2   4 586.753 70.2222   4
  12   2   4 736.482 82.1716   5
 -12   2  -4 660.393 72.5571  13
  12   2   4 600.864 71.6552  12
  12   2   5-39.4239 43.2038   5
  12   2   5-19.1975 31.0765   4
  12   2   5-5.85522 38.9511   9
  12   2   5-35.7786 39.5052  12
 -12   2  -5 30.2216 35.7877  13
  12   2   6 649.004 75.4199   5
 -12   2  -6 614.388 68.6118  13
  12   2   6 439.843 59.7022  12
  12   2   7 68.3316 42.3186   5
  12   3  -6 269.223 56.3700   9
  12   3  -5 321.501 62.8108   5
  12   3  -5 215.582 51.5473   9
  12   3  -4 274.309 59.4543   5
  12   3  -4 195.652 53.3373  12
  12   3  -4 226.492 54.4605   9
  12   3  -3 225.440 53.9799   5
  12   3  -3 217.374 56.1383   9
  12   3  -3 193.577 55.1962  12
 -12   3   3 232.192 55.5222  13
  12   3  -2 252.641 55.1478   5
  12   3  -2 201.704 51.7625   4
  12   3  -2 145.324 47.4095   9
 -12   3   2 174.775 52.2643  13
  12   3  -1 229.854 53.4935   5
  12   3  -1 200.748 53.6945   4
 -12   3   1 316.768 59.3476  13
  12   3  -1 281.633 58.5088   9
  12   3   0-62.1843 48.9745   4
  12   3   0-21.8037 38.5786   9
  12   3   0-16.2260 40.4433  12
 -12   3   0-15.2588 35.9988  13
  12   3   1 528.477 71.3407   5
  12   3   1 471.133 66.9732   4
  12   3   1 735.671 83.5420   9
  12   3   1 560.162 72.2485  12
 -12   3  -1 568.671 72.6576  13
  12   3   2-5.33165 39.8607   5
  12   3   2-4.85818 38.1658   4
  12   3   2 5.68525 36.2950   9
  12   3   2 10.2849 33.7546  12
 -12   3  -2 4.88090 35.3320  13
  12   3   3 720.385 80.0060   4
  12   3   3 887.432 88.3838   5
 -12   3  -3 854.072 83.6060  13
  12   3   3 732.404 78.9332  12
  12   3   3 818.665 89.7581   9
  12   3   4-20.1285 36.4268   4
  12   3   4-5.15133 39.6979   5
  12   3   4 14.3666 34.6659  12
 -12   3  -4 27.9682 35.2106  13
  12   3   5 642.761 75.8751   4
  12   3   5 632.252 77.4405   5
 -12   3  -5 734.236 75.6839  13
  12   3   5 640.162 72.0758  12
  12   3   6 42.5460 37.6031  12
 -12   3  -6 57.0825 38.5165  13
  12   3   6 67.8207 41.5131   5
  12   3   7 504.286 66.5746   5
  12   4  -5 132.869 47.8678   9
  12   4  -4 401.628 68.7553   5
  12   4  -4 462.550 67.3325   9
  12   4  -3 577.706 77.1411   5
  12   4  -3 371.246 64.9563   9
  12   4  -3 485.302 75.7410  12
  12   4  -2 763.471 84.2197   5
  12   4  -2 564.550 80.0819   4
  12   4  -2 670.473 79.0369   9
 -12   4   2 610.439 77.1317  13
  12   4  -1 152.044 50.1847   5
  12   4  -1-5.20649 54.5407   4
  12   4  -1 150.618 49.6711   9
 -12   4   1 186.173 52.0501  13
  12   4   0 765.649 87.1771   4
 -12   4   0 909.774 89.4732  13
  12   4   0 922.932 92.2081   9
  12   4   0 878.247 90.5555  12
  12   4   1 110.778 45.5423   5
  12   4   1 96.4212 45.8240   9
  12   4   1 65.1490 41.8629  12
 -12   4  -1 149.118 50.8754  13
  12   4   2 937.197 91.8602   5
  12   4   2 839.207 91.0147   4
 -12   4  -2 1014.28 92.8596  13
  12   4   2 1046.47 99.1273   9
  12   4   2 860.583 88.5101  12
  12   4   3 43.1619 42.3857   5
  12   4   3-5.34131 35.9961   4
  12   4   3 5.11034 37.4027  12
 -12   4  -3-9.90865 38.9221  13
  12   4   3 41.6366 42.0904   9
  12   4   4 569.135 70.8015  12
 -12   4  -4 568.368 71.1016  13
  12   4   4 532.977 72.7253   4
  12   4   4 661.746 79.7471   5
 -12   4  -5 85.4490 44.0767  13
  12   4   5 23.2595 35.5080  12
  12   4   5 16.6756 34.9876   4
  12   4   5 51.4767 43.7488   5
 -12   4  -6 272.893 54.9163  13
  12   4   6 182.158 46.1428  12
  12   4   6 204.293 53.4758   5
  12   5  -5 317.567 57.5184   9
  12   5  -4 161.055 49.2730   9
  12   5  -3 1050.93 94.7347   9
  12   5  -2 163.224 50.2444   9
  12   5  -2 50.6628 49.7867   4
  12   5  -1 503.549 76.4779  12
 -12   5   1 790.886 85.7692  13
  12   5  -1 625.861 83.3831   5
  12   5  -1 605.781 85.8133   4
  12   5  -1 610.293 77.8660   9
  12   5   0 78.7235 45.0153   9
  12   5   0 34.4453 40.6394  12
 -12   5   0 37.6532 38.5197  13
  12   5   1 611.717 80.4158  12
 -12   5  -1 652.132 78.4639  13
  12   5   1 690.501 84.0018   5
  12   5   1 751.096 85.7051   9
  12   5   1 507.123 78.1689   4
  12   5   2 28.4553 42.5493   5
  12   5   2-5.68170 48.2780   4
  12   5   2-35.6601 45.3516   9
 -12   5  -2-36.6052 44.0745  13
  12   5   2-5.45759 39.9449  12
  12   5   3 426.331 70.3002   5
 -12   5  -3 427.242 64.6374  13
  12   5   3 516.105 71.2657  12
  12   5   3 361.193 65.4009   4
  12   5   4 50.3865 41.0677  12
  12   5   5 314.622 59.1312  12
  12   5   6 53.1947 37.6870  12
  12   6  -4 638.425 76.2677   9
  12   6  -3 116.716 47.5055   9
  12   6  -2 587.854 75.1767   9
  12   6  -1 82.5643 47.5584   9
 -13  -3   5 564.472 71.7298   2
 -13  -3   4 5.20246 36.8136   2
 -13  -3   3 722.488 82.5924   2
 -13  -3   2 51.2860 39.8702   2
 -13  -3   1 365.526 64.5303   2
  13  -3   2 202.770 53.4459   3
  13  -3   3 123.510 50.6039   3
 -13  -2   5 9.48464 36.1865   2
 -13  -2   4 227.317 51.1334   2
  13  -2   1 32.6264 35.9269   3
  13  -2   2 487.172 67.6656   3
  13  -2   3 45.1041 42.9381   3
  13  -2   4 385.301 65.6888   3
 -13  -1   5 373.708 60.8160   2
  13  -1  -1 473.029 74.5906   9
  13  -1  -1 500.105 71.1434   5
  13  -1   0 118.794 50.7855   9
  13  -1   1 658.017 71.3794   3
  13  -1   2 128.254 43.7903   3
  13  -1   2 49.0584 43.2758   5
  13  -1   3 378.593 61.8870   3
  13  -1   4 106.046 46.0088   3
  13  -1   5 201.920 51.0377   3
  13   0  -3-17.7150 32.8917   4
  13   0  -2 378.912 68.7293   9
  13   0  -2 281.362 47.7442   4
  13   0  -2 352.411 66.2990   5
  13   0  -1 5.62166 41.5909   9
  13   0  -1-20.6284 33.3930   4
  13   0  -1-33.5023 46.2840   5
  13   0   0 550.962 59.9687   4
  13   0   0 612.805 81.4578   9
  13   0   1 48.3569 37.5263   4
  13   0   1 165.611 56.8712   5
  13   0   1 120.252 49.4854   9
 -13   0  -2 838.710 83.4837  13
  13   0   2 750.039 69.5484   4
  13   0   2 956.660 94.4219   5
 -13   0  -3 73.5940 45.2328  13
  13   0   3 47.4640 31.2914   4
  13   0   3 16.1841 45.4802   5
 -13   0  -4 425.970 61.5340  13
  13   0   5 75.5417 42.3592  12
  13   0   6 204.428 50.0763  12
  13   1  -4-16.6112 33.8353   4
  13   1  -3 832.135 89.6909   9
  13   1  -3 590.654 67.8914   4
  13   1  -2-33.3329 41.1001   9
  13   1  -2 16.0622 38.7583   4
 -13   1   1 430.365 68.5432  13
  13   1  -1 478.565 74.9333   9
  13   1  -1 477.419 61.2055   4
  13   1  -1 405.698 69.6234   5
 -13   1   0 52.3078 41.8671  13
  13   1   0 28.0055 38.2333  12
  13   1   0 97.0644 51.5542   9
  13   1   0-11.9279 40.2544   4
 -13   1  -1 563.388 72.3384  13
  13   1   1 405.446 66.5793  12
  13   1   1 499.788 77.6681   9
  13   1   1 491.265 60.8251   4
  13   1   1 467.444 73.4705   5
  13   1   2 117.429 48.5428  12
 -13   1  -2 34.4268 40.7757  13
  13   1   2 20.2590 34.1617   4
  13   1   2 11.0137 48.2860   5
  13   1   3 227.589 55.6544  12
 -13   1  -3 280.068 55.8054  13
  13   1   3 269.452 48.6365   4
  13   1   3 363.994 65.6201   5
  13   1   4 134.389 47.8630  12
 -13   1  -4 109.616 45.3021  13
  13   1   4 188.785 46.4270   4
  13   1   5 251.144 53.7217  12
  13   1   6 199.961 49.8301  12
  13   2  -4 328.654 58.1389   4
  13   2  -3 54.6358 41.1269   4
  13   2  -2 455.311 64.3148   4
  13   2  -2 433.225 73.1988   9
 -13   2   1 10.9203 41.2480  13
  13   2  -1-62.7443 46.8923   4
  13   2  -1 5.67108 41.9578   9
  13   2   0 380.812 67.1580  12
 -13   2   0 410.640 66.6547  13
  13   2   0 375.891 69.4422   9
  13   2   0 277.542 56.7575   4
  13   2   1 28.2877 44.0362   5
  13   2   1 22.4650 36.6191   4
  13   2   1 72.2055 44.0559  12
 -13   2  -1 57.2326 41.6511  13
  13   2   2 394.951 58.6357   4
  13   2   2 200.063 54.6105  12
 -13   2  -2 354.305 62.9479  13
  13   2   3 69.1046 37.5841   4
  13   2   3 104.617 46.5880  12
 -13   2  -3 78.6504 47.4850  13
  13   2   4 255.514 53.0676   4
  13   2   4 180.901 50.5495  12
 -13   2  -4 213.926 51.3015  13
  13   2   5 234.194 53.0969  12
 -13   2  -5 398.311 61.3422  13
  13   3  -3 945.739 92.5094   4
  13   3  -2 69.5185 45.4978   4
  13   3  -1 464.500 69.1836   4
  13   3   0-19.7427 46.7386   4
  13   3   1 64.4821 46.6876   4
  13   3   2 79.8880 41.1087   4
  13   3   2 137.510 48.2841  12
  13   3   3 86.1214 41.7079   4
  13   3   3 127.674 46.7035  12
  13   3   4 118.426 45.2276   4
  13   4  -2 522.655 75.9472   4
  13   4  -1-5.37274 50.8750   4
  13   4   0 375.741 70.5623   4
  13   4   1 177.926 57.4600   4
  13   4   2 352.068 64.8417   4
  14   2  -1 45.2382 43.9482   4
  14   2   0 126.517 47.1183   4
  14   2   1 122.288 46.2008   4
  14   2   2 265.174 53.2852   4
   0   0   0    0.00    0.00   0

TITL AF296_YuBu_Mo_ref2 in P2(1)
REM P2(1) (#4 in standard setting)
CELL 0.71073   9.192265   8.977541   9.598817  90.0000  90.2250  90.0000
ZERR    2.00   0.000292   0.000220   0.000295   0.0000   0.0026   0.0000
LATT -1
SYMM -x, y+1/2,-z
SFAC C H N F Pd
UNIT 32.00 24.00 4.00 8.00 2.00
TREF
HKLF 4
END
;
_shelx_hkl_checksum              68955
_olex2_date_sample_data_collection 2019-09-11
_olex2_date_sample_submission    2019-09-09
_olex2_exptl_crystal_mounting_method
;
 The crystal was immersed in a film of perfluoropolyether oil, mounted on a 
 polyimide microloop (MicroMounts of MiTeGen) and transferred to stream of cold 
 nitrogen (Oxford Cryostream 800).
;
_olex2_submission_original_sample_id YPB-424
_olex2_submission_special_instructions 'No special instructions were received'
_oxdiff_exptl_absorpt_empirical_details
;
Empirical correction (ABSPACK) includes:
- Absorption correction using spherical harmonics
- Frame scaling
;
_oxdiff_exptl_absorpt_empirical_full_max 1.153
_oxdiff_exptl_absorpt_empirical_full_min 0.910
loop_
_space_group_symop_operation_xyz
'x, y, z'
'-x, y+1/2, -z'
loop_
_atom_site_label
_atom_site_type_symbol
_atom_site_fract_x
_atom_site_fract_y
_atom_site_fract_z
_atom_site_U_iso_or_equiv
_atom_site_adp_type
_atom_site_occupancy
_atom_site_site_symmetry_order
_atom_site_calc_flag
_atom_site_refinement_flags_posn
_atom_site_refinement_flags_adp
_atom_site_refinement_flags_occupancy
_atom_site_disorder_assembly
_atom_site_disorder_group
Pd1 Pd 0.41979(2) 0.41799(4) 0.23616(2) 0.01592(6) Uani 1 1 d . . . . .
F1 F 0.4776(3) 0.1997(3) 0.4860(3) 0.0325(6) Uani 1 1 d . . . . .
N1 N 0.6289(4) 0.3341(4) 0.2050(3) 0.0222(7) Uani 1 1 d . . . . .
C1 C 0.7454(4) 0.2926(4) 0.2085(4) 0.0209(7) Uani 1 1 d . . . . .
F2 F 0.2069(3) 0.2045(3) 0.0678(3) 0.0260(6) Uani 1 1 d . . . . .
N2 N 0.4954(4) 0.6314(4) 0.1915(3) 0.0209(6) Uani 1 1 d . . . . .
C2 C 0.8953(5) 0.2386(5) 0.2173(5) 0.0303(9) Uani 1 1 d . . . . .
H2A H 0.949784 0.273047 0.135937 0.046 Uiso 1 1 calc GR . . . .
H2B H 0.895343 0.129422 0.219600 0.046 Uiso 1 1 calc GR . . . .
H2C H 0.941143 0.276990 0.302380 0.046 Uiso 1 1 calc GR . . . .
F3 F 0.1794(3) 0.5659(4) 0.0479(3) 0.0327(6) Uani 1 1 d . . . . .
C3 C 0.5399(4) 0.7481(4) 0.1751(4) 0.0200(7) Uani 1 1 d . . . . .
F4 F 0.2399(2) 0.4319(5) 0.5198(2) 0.0280(5) Uani 1 1 d . . . . .
C4 C 0.5977(4) 0.8987(6) 0.1563(4) 0.0245(11) Uani 1 1 d . . . . .
H4A H 0.649772 0.904389 0.067560 0.037 Uiso 1 1 calc GR . . . .
H4B H 0.664752 0.922172 0.232885 0.037 Uiso 1 1 calc GR . . . .
H4C H 0.517376 0.970490 0.155939 0.037 Uiso 1 1 calc GR . . . .
C5 C 0.2207(4) 0.4930(4) 0.2808(4) 0.0173(7) Uani 1 1 d . . . . .
C6 C 0.2548(4) 0.1348(4) 0.1877(4) 0.0188(7) Uani 1 1 d . . . . .
C7 C 0.2085(4) -0.0108(4) 0.2075(4) 0.0233(8) Uani 1 1 d . . . . .
H7 H 0.146627 -0.058357 0.141620 0.028 Uiso 1 1 calc R . . . .
C8 C 0.2553(4) -0.0847(9) 0.3264(3) 0.0236(6) Uani 1 1 d . . . . .
H8 H 0.225613 -0.184451 0.343096 0.028 Uiso 1 1 calc R . . . .
C9 C 0.3457(4) -0.0125(4) 0.4210(4) 0.0232(8) Uani 1 1 d . . . . .
H9 H 0.378438 -0.061294 0.503201 0.028 Uiso 1 1 calc R . . . .
C10 C 0.3868(4) 0.1329(4) 0.3919(4) 0.0205(7) Uani 1 1 d . . . . .
C11 C 0.3445(4) 0.2140(4) 0.2761(4) 0.0171(7) Uani 1 1 d . . . . .
C12 C 0.1307(4) 0.5582(4) 0.1827(4) 0.0214(7) Uani 1 1 d . . . . .
C13 C -0.0058(5) 0.6190(5) 0.2076(4) 0.0257(8) Uani 1 1 d . . . . .
H13 H -0.060811 0.662838 0.134358 0.031 Uiso 1 1 calc R . . . .
C14 C -0.0594(5) 0.6140(5) 0.3425(4) 0.0258(8) Uani 1 1 d . . . . .
H14 H -0.152429 0.654235 0.363021 0.031 Uiso 1 1 calc R . . . .
C15 C 0.0243(5) 0.5494(5) 0.4474(4) 0.0249(8) Uani 1 1 d . . . . .
H15 H -0.010611 0.544307 0.540314 0.030 Uiso 1 1 calc R . . . .
C17 C 0.1597(4) 0.4929(4) 0.4132(4) 0.0201(7) Uani 1 1 d . . . . .
loop_
_atom_site_aniso_label
_atom_site_aniso_U_11
_atom_site_aniso_U_22
_atom_site_aniso_U_33
_atom_site_aniso_U_23
_atom_site_aniso_U_13
_atom_site_aniso_U_12
Pd1 0.01654(10) 0.01223(10) 0.01899(11) 0.00095(15) 0.00026(7) -0.00023(16)
F1 0.0449(17) 0.0254(15) 0.0271(13) 0.0028(11) -0.0167(11) -0.0040(12)
N1 0.0230(17) 0.0181(15) 0.0257(17) -0.0011(13) 0.0018(13) -0.0004(13)
C1 0.0218(18) 0.0169(16) 0.0240(19) -0.0033(14) -0.0008(14) -0.0007(14)
F2 0.0268(13) 0.0282(13) 0.0229(13) 0.0016(11) -0.0064(9) -0.0036(11)
N2 0.0225(16) 0.0165(14) 0.0237(16) 0.0013(12) 0.0031(12) -0.0006(12)
C2 0.022(2) 0.030(2) 0.039(2) -0.0090(18) -0.0024(17) 0.0044(16)
F3 0.0372(16) 0.0433(17) 0.0177(12) 0.0069(12) 0.0040(10) 0.0185(13)
C3 0.0197(18) 0.0204(17) 0.0200(18) 0.0003(14) 0.0036(13) 0.0008(14)
F4 0.0313(10) 0.0360(16) 0.0167(9) 0.0047(13) -0.0021(7) 0.0006(14)
C4 0.0290(17) 0.015(3) 0.0292(17) -0.0010(16) 0.0086(13) -0.0042(16)
C5 0.0210(18) 0.0122(15) 0.0185(17) -0.0003(13) -0.0015(13) -0.0017(13)
C6 0.0180(17) 0.0192(16) 0.0193(17) 0.0002(14) 0.0005(13) 0.0007(14)
C7 0.0211(18) 0.0189(18) 0.030(2) -0.0065(15) 0.0026(15) -0.0042(14)
C8 0.0257(15) 0.0129(12) 0.0323(16) 0.000(3) 0.0115(12) 0.000(3)
C9 0.029(2) 0.0163(17) 0.0247(19) 0.0049(14) 0.0045(15) 0.0034(15)
C10 0.0239(19) 0.0188(16) 0.0189(18) -0.0008(14) -0.0013(14) 0.0012(14)
C11 0.0173(17) 0.0138(15) 0.0201(17) -0.0017(13) 0.0009(13) 0.0008(13)
C12 0.026(2) 0.0213(17) 0.0166(17) -0.0007(14) 0.0019(13) 0.0032(15)
C13 0.024(2) 0.028(2) 0.025(2) 0.0013(16) -0.0016(15) 0.0072(16)
C14 0.0205(19) 0.025(2) 0.032(2) -0.0053(16) 0.0041(15) 0.0038(15)
C15 0.026(2) 0.028(2) 0.0204(18) -0.0030(15) 0.0037(14) -0.0046(16)
C17 0.0227(18) 0.0170(17) 0.0206(17) 0.0015(14) -0.0021(14) -0.0044(14)
loop_
_atom_type_symbol
_atom_type_description
_atom_type_scat_dispersion_real
_atom_type_scat_dispersion_imag
_atom_type_scat_source
C C 0.0033 0.0016 'International Tables Vol C Tables 4.2.6.8 and 6.1.1.4'
H H 0.0000 0.0000 'International Tables Vol C Tables 4.2.6.8 and 6.1.1.4'
F F 0.0171 0.0103 'International Tables Vol C Tables 4.2.6.8 and 6.1.1.4'
N N 0.0061 0.0033 'International Tables Vol C Tables 4.2.6.8 and 6.1.1.4'
Pd Pd -0.9988 1.0072 'International Tables Vol C Tables 4.2.6.8 and 6.1.1.4'
loop_
_exptl_crystal_face_index_h
_exptl_crystal_face_index_k
_exptl_crystal_face_index_l
_exptl_crystal_face_perp_dist
-1 2 -2 0.0564
0 -1 -1 0.0647
0 -1 0 0.0607
0 0 1 0.0355
1 2 0 0.0680
-1 -2 1 0.0511
1 2 -2 0.0581
-1 -2 2 0.0434
1 0 0 0.0523
-2 0 1 0.0135
0 1 -2 0.0623
1 -2 2 0.0523
1 -2 0 0.0609
1 0 2 0.0344
1 -1 0 0.0552
1 -2 -2 0.0640
-2 1 -1 0.0484
-2 -1 2 0.0232
-2 -2 -1 0.0575
loop_
_geom_angle_atom_site_label_1
_geom_angle_atom_site_label_2
_geom_angle_atom_site_label_3
_geom_angle
_geom_angle_site_symmetry_1
_geom_angle_site_symmetry_3
_geom_angle_publ_flag
N2 Pd1 N1 89.68(13) . . ?
C5 Pd1 N1 175.69(14) . . ?
C5 Pd1 N2 92.34(14) . . ?
C11 Pd1 N1 90.95(14) . . ?
C11 Pd1 N2 178.91(15) . . ?
C11 Pd1 C5 87.09(15) . . ?
C1 N1 Pd1 169.8(3) . . ?
N1 C1 C2 178.4(4) . . ?
C3 N2 Pd1 175.9(3) . . ?
N2 C3 C4 179.1(4) . . ?
C12 C5 Pd1 122.9(3) . . ?
C12 C5 C17 112.4(3) . . ?
C17 C5 Pd1 124.7(3) . . ?
F2 C6 C7 116.4(3) . . ?
C11 C6 F2 117.9(3) . . ?
C11 C6 C7 125.8(4) . . ?
C8 C7 C6 117.9(4) . . ?
C7 C8 C9 119.9(6) . . ?
C10 C9 C8 118.0(4) . . ?
F1 C10 C9 116.5(3) . . ?
F1 C10 C11 118.0(3) . . ?
C11 C10 C9 125.5(4) . . ?
C6 C11 Pd1 124.2(3) . . ?
C6 C11 C10 112.9(3) . . ?
C10 C11 Pd1 122.7(3) . . ?
F3 C12 C5 117.9(3) . . ?
F3 C12 C13 116.1(3) . . ?
C5 C12 C13 126.0(4) . . ?
C14 C13 C12 118.2(4) . . ?
C13 C14 C15 119.4(4) . . ?
C17 C15 C14 118.4(4) . . ?
F4 C17 C5 117.6(3) . . ?
F4 C17 C15 116.8(3) . . ?
C15 C17 C5 125.6(4) . . ?
loop_
_geom_bond_atom_site_label_1
_geom_bond_atom_site_label_2
_geom_bond_distance
_geom_bond_site_symmetry_2
_geom_bond_publ_flag
Pd1 N1 2.088(3) . ?
Pd1 N2 2.083(3) . ?
Pd1 C5 1.998(4) . ?
Pd1 C11 1.996(4) . ?
F1 C10 1.366(4) . ?
N1 C1 1.133(5) . ?
C1 C2 1.463(6) . ?
F2 C6 1.381(4) . ?
N2 C3 1.136(5) . ?
F3 C12 1.372(4) . ?
C3 C4 1.464(7) . ?
F4 C17 1.372(4) . ?
C5 C12 1.382(5) . ?
C5 C17 1.391(5) . ?
C6 C7 1.388(5) . ?
C6 C11 1.378(5) . ?
C7 C8 1.387(7) . ?
C8 C9 1.389(7) . ?
C9 C10 1.388(5) . ?
C10 C11 1.384(5) . ?
C12 C13 1.390(6) . ?
C13 C14 1.388(6) . ?
C14 C15 1.391(6) . ?
C15 C17 1.385(6) . ?
loop_
_geom_torsion_atom_site_label_1
_geom_torsion_atom_site_label_2
_geom_torsion_atom_site_label_3
_geom_torsion_atom_site_label_4
_geom_torsion
_geom_torsion_site_symmetry_1
_geom_torsion_site_symmetry_2
_geom_torsion_site_symmetry_3
_geom_torsion_site_symmetry_4
_geom_torsion_publ_flag
Pd1 C5 C12 F3 2.6(5) . . . . ?
Pd1 C5 C12 C13 -176.8(3) . . . . ?
Pd1 C5 C17 F4 -2.6(5) . . . . ?
Pd1 C5 C17 C15 177.4(3) . . . . ?
F1 C10 C11 Pd1 3.8(5) . . . . ?
F1 C10 C11 C6 179.2(3) . . . . ?
F2 C6 C7 C8 179.5(3) . . . . ?
F2 C6 C11 Pd1 -4.0(5) . . . . ?
F2 C6 C11 C10 -179.4(3) . . . . ?
F3 C12 C13 C14 -179.9(4) . . . . ?
C5 C12 C13 C14 -0.6(6) . . . . ?
C6 C7 C8 C9 0.0(6) . . . . ?
C7 C6 C11 Pd1 175.3(3) . . . . ?
C7 C6 C11 C10 0.0(6) . . . . ?
C7 C8 C9 C10 -0.3(6) . . . . ?
C8 C9 C10 F1 -179.0(4) . . . . ?
C8 C9 C10 C11 0.5(6) . . . . ?
C9 C10 C11 Pd1 -175.7(3) . . . . ?
C9 C10 C11 C6 -0.3(6) . . . . ?
C11 C6 C7 C8 0.2(6) . . . . ?
C12 C5 C17 F4 -179.5(4) . . . . ?
C12 C5 C17 C15 0.4(5) . . . . ?
C12 C13 C14 C15 0.2(6) . . . . ?
C13 C14 C15 C17 0.4(6) . . . . ?
C14 C15 C17 F4 179.2(4) . . . . ?
C14 C15 C17 C5 -0.8(6) . . . . ?
C17 C5 C12 F3 179.6(3) . . . . ?
C17 C5 C12 C13 0.2(6) . . . . ?
loop_
_exptl_oxdiff_crystal_face_indexfrac_h
_exptl_oxdiff_crystal_face_indexfrac_k
_exptl_oxdiff_crystal_face_indexfrac_l
_exptl_oxdiff_crystal_face_x
_exptl_oxdiff_crystal_face_y
_exptl_oxdiff_crystal_face_z
-0.9994 2.0022 -2.0010 0.0048 0.2085 -0.0969
0.0000 -1.0004 -1.0010 -0.0046 -0.0515 -0.0952
-0.0003 -1.0006 -0.0003 -0.0215 -0.0715 -0.0260
-0.0003 -0.0002 1.0008 -0.0169 -0.0200 0.0692
1.0010 2.0007 0.0004 0.1151 0.1174 0.0625
-1.0013 -2.0010 1.0003 -0.1320 -0.1374 0.0066
1.0015 2.0012 -2.0011 0.1490 0.1574 -0.0758
-1.0015 -2.0012 2.0011 -0.1490 -0.1574 0.0758
1.0005 -0.0005 -0.0001 0.0721 -0.0255 0.0106
-2.0012 0.0009 1.0009 -0.1611 0.0311 0.0481
0.0008 1.0011 -2.0013 0.0554 0.1114 -0.1124
0.9994 -2.0022 2.0010 -0.0048 -0.2085 0.0969
1.0000 -2.0018 -0.0006 0.0290 -0.1685 -0.0414
0.9999 -0.0009 2.0015 0.0382 -0.0655 0.1489
1.0002 -1.0012 -0.0003 0.0506 -0.0970 -0.0154
1.0005 -2.0014 -2.0021 0.0629 -0.1286 -0.1798
-2.0004 1.0019 -1.0004 -0.1057 0.1426 -0.0643
-2.0017 -1.0000 2.0014 -0.1995 -0.0604 0.0913
-2.0012 -2.0000 -1.0012 -0.1702 -0.0719 -0.1423
