#------------------------------------------------------------------------------
#$Date: 2020-04-04 07:13:24 +0300 (Sat, 04 Apr 2020) $
#$Revision: 250068 $
#$URL: file:///home/coder/svn-repositories/cod/cif/4/13/43/4134374.cif $
#------------------------------------------------------------------------------
#
# This file is available in the Crystallography Open Database (COD),
# http://www.crystallography.net/
#
# All data on this site have been placed in the public domain by the
# contributors.
#
data_4134374
loop_
_publ_author_name
'Ma, Ni'
'Li, Yan-Yan'
'Chen, Ling'
'Wu, Li-Ming'
_publ_section_title
;
 \a-CsCu<sub>5</sub>Se<sub>3</sub>: Discovery of a Low-Cost Bulk Selenide
 with High Thermoelectric Performance.
;
_journal_issue                   11
_journal_name_full               'Journal of the American Chemical Society'
_journal_page_first              5293
_journal_page_last               5303
_journal_paper_doi               10.1021/jacs.0c00062
_journal_volume                  142
_journal_year                    2020
_chemical_formula_sum            'Cs Cu5 Se3'
_chemical_formula_weight         687.49
_space_group_crystal_system      tetragonal
_space_group_IT_number           136
_space_group_name_Hall           '-P 4n 2n'
_space_group_name_H-M_alt        'P 42/m n m'
_audit_creation_method           SHELXL-2014/7
_cell_angle_alpha                90
_cell_angle_beta                 90
_cell_angle_gamma                90
_cell_formula_units_Z            4
_cell_length_a                   13.2026(12)
_cell_length_b                   13.2026(12)
_cell_length_c                   4.0499(3)
_cell_measurement_reflns_used    2152
_cell_measurement_temperature    100(2)
_cell_measurement_theta_max      29.35
_cell_measurement_theta_min      3.09
_cell_volume                     705.93(10)
_computing_structure_refinement  'SHELXL-2014/7 (Sheldrick, 2014)'
_diffrn_ambient_temperature      100(2)
_diffrn_measured_fraction_theta_full 0.995
_diffrn_measured_fraction_theta_max 0.926
_diffrn_measurement_device_type  'Bruker APEX-II CCD'
_diffrn_radiation_type           MoK\a
_diffrn_radiation_wavelength     0.71073
_diffrn_reflns_av_R_equivalents  0.0768
_diffrn_reflns_av_unetI/netI     0.0509
_diffrn_reflns_Laue_measured_fraction_full 0.995
_diffrn_reflns_Laue_measured_fraction_max 0.926
_diffrn_reflns_limit_h_max       16
_diffrn_reflns_limit_h_min       -16
_diffrn_reflns_limit_k_max       18
_diffrn_reflns_limit_k_min       -18
_diffrn_reflns_limit_l_max       5
_diffrn_reflns_limit_l_min       -5
_diffrn_reflns_number            4612
_diffrn_reflns_point_group_measured_fraction_full 0.995
_diffrn_reflns_point_group_measured_fraction_max 0.926
_diffrn_reflns_theta_full        25.242
_diffrn_reflns_theta_max         29.595
_diffrn_reflns_theta_min         3.086
_exptl_absorpt_coefficient_mu    35.250
_exptl_absorpt_correction_T_max  0.854
_exptl_absorpt_correction_T_min  0.623
_exptl_absorpt_correction_type   multi-scan
_exptl_crystal_colour            black
_exptl_crystal_density_diffrn    6.469
_exptl_crystal_description       prism
_exptl_crystal_F_000             1208
_exptl_crystal_size_max          1.0
_exptl_crystal_size_mid          0.8
_exptl_crystal_size_min          0.6
_exptl_transmission_factor_max   0.844
_exptl_transmission_factor_min   0.613
_refine_diff_density_max         2.215
_refine_diff_density_min         -2.909
_refine_diff_density_rms         0.551
_refine_ls_extinction_method     none
_refine_ls_goodness_of_fit_ref   1.124
_refine_ls_hydrogen_treatment    undef
_refine_ls_matrix_type           full
_refine_ls_number_parameters     31
_refine_ls_number_reflns         551
_refine_ls_number_restraints     0
_refine_ls_restrained_S_all      1.124
_refine_ls_R_factor_all          0.0717
_refine_ls_R_factor_gt           0.0518
_refine_ls_shift/su_max          0.000
_refine_ls_shift/su_mean         0.000
_refine_ls_structure_factor_coef Fsqd
_refine_ls_weighting_details
'w=1/[\s^2^(Fo^2^)+(0.0099P)^2^+55.8183P] where P=(Fo^2^+2Fc^2^)/3'
_refine_ls_weighting_scheme      calc
_refine_ls_wR_factor_gt          0.0941
_refine_ls_wR_factor_ref         0.1042
_reflns_Friedel_coverage         0.000
_reflns_number_gt                462
_reflns_number_total             551
_reflns_threshold_expression     'I > 2\s(I)'
_cod_data_source_file            ja0c00062_si_004.cif
_cod_data_source_block           y
_cod_depositor_comments
'Adding full bibliography for 4134372--4134374.cif.'
_cod_original_cell_volume        705.93(14)
_cod_database_code               4134374
_shelx_shelxl_version_number     2014/7
_shelx_space_group_comment
;
The symmetry employed for this shelxl refinement is uniquely defined
by the following loop, which should always be used as a source of
symmetry information in preference to the above space-group names.
They are only intended as comments.
;
_shelx_estimated_absorpt_t_min   0.623
_shelx_estimated_absorpt_t_max   0.854
_shelx_res_file
;

    y.res created by SHELXL-2014/7


TITL y         P 42/m n m   R =  New: P42/mnm
CELL  0.71073   13.2026   13.2026    4.0499    90.000    90.000    90.000
ZERR  4           0.0012    0.0012    0.0003     0.000     0.000     0.000
LATT   1
SYMM     0.50000 - Y ,    0.50000 + X ,    0.50000 + Z
SYMM             - X ,            - Y ,              Z
SYMM     0.50000 + Y ,    0.50000 - X ,    0.50000 + Z
SYMM     0.50000 + X ,    0.50000 - Y ,    0.50000 - Z
SYMM               Y ,              X ,            - Z
SYMM     0.50000 - X ,    0.50000 + Y ,    0.50000 - Z
SYMM             - Y ,            - X ,            - Z
SFAC Cs Cu Se
UNIT     4   20  12
L.S. 5
FMAP 2
PLAN -20
ACTA
BOND $H
CONF
WGHT    0.009900   55.818291
FVAR       0.05047
CS1   1    0.889171    0.110829    0.000000    10.25000    0.00418    0.00418 =
         0.00418    0.00000    0.00000   -0.00015
CU1   2    0.579138    0.208242    0.000000    10.50000    0.01242    0.00156 =
         0.01513    0.00000    0.00000   -0.00062
CU2   2    0.983989    0.395864    0.000000    10.50000    0.00248    0.00531 =
         0.00773    0.00000    0.00000    0.00094
CU3   2    1.184934    0.184934    0.000000    10.25000    0.02462    0.02462 =
         0.00473    0.00000    0.00000   -0.01486
SE1   3    0.610697   -0.166205    0.000000    10.50000    0.00257    0.00242 =
         0.00382    0.00000    0.00000   -0.00085
SE2   3    0.615343    0.384657    0.000000    10.25000    0.00202    0.00202 =
         0.00553    0.00000    0.00000    0.00016

HKLF 4

REM  y         P 42/m n m   R =  New: P42/mnm
REM R1 =  0.0518 for     462 Fo > 4sig(Fo)  and  0.0717 for all     551 data
REM     31 parameters refined using      0 restraints

END

WGHT      0.0000     61.0673

REM Highest difference peak  2.215,  deepest hole -2.909,  1-sigma level  0.551
Q1    1   0.6999  0.3698  0.0000  10.50000  0.05    2.22
Q2    1   0.5409  0.2945  0.0000  10.50000  0.05    2.17
Q3    1   0.8778  0.3834  0.0000  10.50000  0.05    2.12
Q4    1   0.9543  0.1332  0.0000  10.50000  0.05    2.12
Q5    1   1.0837 -0.0837 -0.3903  10.50000  0.05    2.11
Q6    1   1.2050  0.1265  0.0000  10.50000  0.05    2.02
Q7    1   0.9571  0.0244  0.0000  10.50000  0.05    1.99
Q8    1   0.8825  0.2002  0.0000  10.50000  0.05    1.99
Q9    1   0.5926  0.3428  0.0000  10.50000  0.05    1.96
Q10   1   1.1237  0.4730  0.0000  10.50000  0.05    1.94
Q11   1   0.5859  0.1471  0.0000  10.50000  0.05    1.93
Q12   1   0.7416  0.2584  0.0000  10.25000  0.05    1.91
Q13   1   0.4738  0.0914  0.0000  10.50000  0.05    1.90
Q14   1   0.5879  0.0803  0.0000  10.50000  0.05    1.87
Q15   1   0.5866  0.4134  0.0000  10.25000  0.05    1.79
Q16   1   1.0358 -0.1231 -0.5000  10.50000  0.05    1.75
Q17   1   1.2818  0.0346  0.0000  10.50000  0.05    1.74
Q18   1   1.2970  0.2111  0.0000  10.50000  0.05    1.72
Q19   1   0.9749  0.0833  0.0000  10.50000  0.05    1.71
Q20   1   0.7787  0.3655  0.0000  10.50000  0.05    1.65
;
_shelx_res_checksum              70501
_shelx_hkl_file
;
  -2  -1   0    6.98    0.73
   1  -2   0    6.41    0.66
   1  -2   0    7.36    0.62
   2   1   0    7.13    0.72
   0   2   0    3.78    0.41
  -2   0   0    3.31    0.45
   0  -2   0    3.94    0.41
   2   0   0    2.83    0.43
  -1  -2   0    8.12    0.70
   2  -1   0    7.31    0.70
   1   2   0    8.23    0.71
  -2   1   0    8.40    0.74
  -2  -2   0    0.70    0.22
   2   2   0    0.38    0.19
   2  -2   0    0.37    0.16
  -2   2   0    0.62    0.22
   3   2   0   27.85    2.20
   2  -3   0   28.52    2.02
  -3  -2   0   31.25    2.27
   1  -3   0    1.18    0.35
   3   1   0    0.68    0.32
  -1   3   0    0.77    0.27
  -3  -1   0    0.54    0.26
   3   0   0    0.17    0.23
   0   3   0    0.27    0.15
   0  -3   0    0.02    0.08
  -3   0   0    0.14    0.16
   3  -1   0    1.08    0.35
  -1  -3   0    0.59    0.20
  -3   1   0    0.60    0.25
   3  -2   0   31.53    2.18
   2   3   0   31.18    2.24
  -2  -3   0   29.09    2.16
  -3   2   0   31.55    2.22
   3   3   0   50.59    3.50
  -3  -3   0   50.67    3.45
   3  -3   0   48.99    3.38
  -3   3   0   51.25    3.37
   4   3   0   17.58    1.70
   3  -4   0   16.47    1.46
  -4  -3   0   19.10    1.72
  -4  -2   0    0.23    0.25
   2  -4   0    0.16    0.16
   2  -4   0    0.33    0.17
   4   2   0    0.11    0.19
   1  -4   0   26.22    1.93
  -4  -1   0   22.06    2.02
  -1   4   0   23.79    1.90
   4   1   0   21.63    2.52
   0   4   0  503.13   30.00
  -4   0   0  508.82   30.20
   0  -4   0  558.44   30.02
  -4   1   0   23.23    2.03
  -1  -4   0   28.64    1.99
   1   4   0   26.79    2.00
   4  -1   0   24.67    2.29
  -2  -4   0    0.18    0.15
   4  -2   0    0.14    0.15
   2   4   0    0.62    0.27
  -4   2   0    0.04    0.16
  -4   3   0   18.01    1.63
   3   4   0   18.84    1.72
  -3  -4   0   20.48    1.68
   4  -3   0   18.16    1.58
   4  -4   0   68.34    4.52
  -4   4   0   69.05    4.59
   4   4   0   65.48    4.74
  -4  -4   0   71.73    4.71
  -5  -4   0   98.42    6.34
   5   4   0   93.21    6.35
   4  -5   0   89.03    5.96
   3  -5   0    5.63    0.76
  -5  -3   0    6.19    0.98
   5   3   0    5.66    0.92
   3  -5   0    4.16    0.79
   2  -5   0   16.28    1.43
   2  -5   0   15.32    1.54
  -5  -2   0   15.67    1.69
   5   2   0   14.41    1.61
  -5  -1   0   78.21    5.68
   5   1   0   77.85    5.66
  -1   5   0   83.52    5.50
   1  -5   0   95.78    5.55
   5   0   0   -0.03    0.20
  -5   0   0   -0.03    0.15
   0   5   0   -0.08    0.14
   5  -1   0   81.85    5.91
  -1  -5   0   96.66    5.77
   1   5   0   92.25    5.82
  -5   1   0   89.92    5.95
  -5   2   0   17.15    1.64
  -2  -5   0   16.55    1.50
   5  -2   0   16.58    1.58
   2   5   0   15.34    1.54
  -3  -5   0    6.06    0.82
   3   5   0    5.09    0.83
   5  -3   0    5.06    0.77
  -5   3   0    5.57    0.85
  -5   4   0  100.16    6.40
   4   5   0   97.60    6.52
   5  -4   0   91.29    6.21
  -4  -5   0  100.76    6.38
  -5  -5   0  994.96   55.57
   5  -5   0  922.55   55.26
  -5   5   0 1000.00   55.46
   5   5   0  957.42   55.71
   6   5   0   65.05    5.06
   5  -6   0   66.08    4.67
  -6  -5   0   71.16    5.03
   4  -6   0   30.49    2.44
   6   4   0   30.84    2.79
  -6  -4   0   29.24    2.72
   4  -6   0   28.84    2.67
   6   3   0   38.78    3.34
   3  -6   0   40.41    3.04
  -6  -3   0   42.37    3.48
   3  -6   0   43.13    3.36
   2  -6   0    0.35    0.45
   6   2   0    0.02    0.31
   2  -6   0    0.76    0.37
  -6  -2   0    0.27    0.34
   6   1   0   13.63    1.68
   1  -6   0   17.92    1.66
  -6  -1   0   17.79    1.89
  -1   6   0   14.79    1.59
   0   6   0   18.16    1.91
   6   0   0   16.31    1.82
   0  -6   0   16.48    1.61
  -6   0   0   18.39    1.88
  -1  -6   0   17.95    1.62
  -6   1   0   17.96    1.83
   1   6   0   17.00    1.69
   6  -1   0   15.18    1.74
   2   6   0    0.68    0.24
   6  -2   0   -0.09    0.22
  -2  -6   0    0.45    0.21
  -6   2   0    0.20    0.35
   3   6   0   42.03    3.27
   6  -3   0   41.68    3.19
  -3  -6   0   40.28    3.10
  -6   3   0   41.65    3.30
   4   6   0   28.92    2.70
  -6   4   0   33.80    2.77
   6  -4   0   30.78    2.57
  -4  -6   0   32.15    2.62
  -5  -6   0   68.64    4.81
   5   6   0   69.09    5.03
  -6   5   0   65.65    4.80
   6  -5   0   63.12    4.62
   6  -6   0   22.84    2.13
   6   6   0   23.05    2.45
  -6   6   0   22.77    2.23
  -6  -6   0   22.44    2.27
   6  -7   0   22.33    2.14
  -7  -6   0   22.39    2.39
   7   6   0   22.54    2.49
   5  -7   0    6.16    0.97
   5  -7   0    4.58    1.15
  -7  -5   0    6.75    1.20
   7   5   0    7.07    1.54
   4  -7   0   11.06    1.54
   7   4   0   10.32    1.58
  -7  -4   0    9.59    1.52
   4  -7   0   12.00    1.37
   7   3   0    0.58    0.44
   3  -7   0    0.52    0.39
  -7  -3   0    1.55    0.71
   3  -7   0    0.94    0.43
   7   2   0    5.60    1.06
  -7  -2   0    5.52    1.09
   2  -7   0    5.99    1.00
  -7  -1   0    2.77    0.93
  -1   7   0    1.79    0.57
   7   1   0    2.78    0.83
   0  -7   0    0.20    0.24
   0   7   0    0.21    0.27
  -7   0   0   -0.08    0.30
   7   0   0    0.24    0.35
   7  -1   0    4.11    1.07
  -7   1   0    4.67    0.92
  -1  -7   0    3.37    0.84
   1   7   0    4.05    0.77
  -7   2   0    4.83    0.98
   2   7   0    5.29    0.94
   7  -2   0    6.57    1.01
  -3  -7   0    1.36    0.53
  -7   3   0    0.16    0.42
   7  -3   0    0.60    0.36
   3   7   0    0.69    0.45
  -4  -7   0   10.82    1.33
   4   7   0   10.68    1.47
   7  -4   0   11.51    1.41
  -7   4   0    9.68    1.42
   7  -5   0    6.46    1.03
  -5  -7   0    5.17    0.97
   5   7   0    7.54    1.19
  -7   5   0    6.61    1.15
  -7   6   0   24.01    2.39
   6   7   0   23.81    2.54
   7  -6   0   20.79    2.11
  -6  -7   0   21.53    2.26
  -7  -7   0   32.06    3.00
   7  -7   0   33.09    2.84
   7   7   0   28.36    3.08
   7  -8   0   17.01    2.00
   7  -8   0   19.81    2.48
   8   7   0   17.74    2.43
  -8  -7   0   20.92    2.34
   6  -8   0   -0.52    0.42
   6  -8   0    1.05    0.48
  -8  -6   0   -0.05    0.43
   8   6   0   -0.32    0.47
   5  -8   0   16.57    2.09
  -8  -5   0   15.22    2.05
   8   5   0   14.41    2.00
   5  -8   0   17.46    1.79
   4  -8   0   85.38    6.16
  -8  -4   0   79.71    6.28
   4  -8   0   87.12    5.83
   8   4   0   83.68    6.29
   3  -8   0   50.93    3.78
   8   3   0   49.89    4.21
  -8  -3   0   43.61    4.13
   3  -8   0   52.21    4.04
   8   2   0   26.17    2.72
  -8  -2   0   25.58    2.73
   2  -8   0   25.18    2.44
   8   1   0   16.09    2.05
  -8  -1   0   17.78    2.12
  -1   8   0   15.99    1.86
   1  -8   0   17.78    1.86
   8   0   0   60.17    4.85
  -8   0   0   68.16    4.92
   0   8   0   56.50    4.50
   0  -8   0   59.50    4.43
   8  -1   0   16.50    2.05
  -8   1   0   20.27    2.16
   1   8   0   18.80    1.97
  -1  -8   0   16.48    1.79
   2   8   0   29.55    2.58
  -8   2   0   23.07    2.51
  -2  -8   0   26.81    2.38
   8  -2   0   24.31    2.55
  -8   3   0   45.46    3.96
  -3  -8   0   50.42    3.76
   8  -3   0   45.98    3.89
   3   8   0   52.36    4.02
   4   8   0   88.30    6.14
  -4  -8   0   82.42    5.76
   8  -4   0   76.59    5.80
  -8   4   0   84.41    6.08
   5   8   0   18.46    2.07
  -5  -8   0   14.84    1.75
  -8   5   0   14.32    1.89
   8  -5   0   15.43    1.81
  -8   6   0   -0.53    0.45
  -6  -8   0    0.41    0.42
   8  -6   0    0.23    0.36
   6   8   0    0.94    0.48
   7   8   0   16.98    2.38
  -8   7   0   21.07    2.37
  -7  -8   0   21.04    2.47
   8   8   0   91.22    7.29
  -8  -8   0   96.36    7.03
   8  -8   0   96.95    6.74
   8  -9   0    9.13    1.45
   8  -9   0    6.49    1.89
  -9  -8   0   10.46    2.14
   9   8   0    6.62    1.69
  -9  -7   0    2.03    0.85
   7  -9   0    0.84    0.82
   7  -9   0    1.40    0.60
   9   7   0    0.19    0.76
   6  -9   0    0.80    0.53
   9   6   0    1.13    0.64
   6  -9   0    0.56    0.51
   9   5   0  237.04   14.90
   5  -9   0  216.79   14.10
   5  -9   0  233.75   14.68
  -9  -5   0  227.23   14.82
   4  -9   0    0.73    0.55
  -9  -4   0    0.60    0.63
   9   4   0    0.19    0.43
   4  -9   0    0.12    0.35
  -9  -3   0   24.57    2.92
   9   3   0   29.60    3.01
   3  -9   0   28.12    2.76
   3  -9   0   28.33    2.58
   2  -9   0    2.62    0.85
  -9  -2   0    1.47    0.81
   9   2   0    3.00    1.11
   9   1   0    4.14    1.15
   1  -9   0    4.97    1.22
  -9  -1   0    4.38    1.12
  -1   9   0    3.07    0.99
   0   9   0    0.48    0.39
   0  -9   0    0.10    0.39
  -9   0   0    0.57    0.40
   9   0   0    0.00    0.38
   1   9   0    5.63    1.09
  -1  -9   0    5.11    0.98
   9  -1   0    5.57    1.28
  -9   1   0    4.72    1.23
  -9   2   0    2.48    0.97
   2   9   0    2.71    0.92
  -2  -9   0    1.88    0.59
   9  -2   0    2.55    0.99
  -9   3   0   22.71    2.62
   9  -3   0   24.74    2.59
  -3  -9   0   25.68    2.43
   3   9   0   28.27    2.76
  -4  -9   0    0.56    0.37
   4   9   0    0.22    0.48
  -9   4   0    0.34    0.50
   9  -4   0    0.34    0.36
   9  -5   0  216.05   14.60
   5   9   0  213.32   13.95
  -9   5   0  212.75   13.85
  -5  -9   0  219.61   13.53
  -6  -9   0    0.17    0.57
   6   9   0    0.30    0.39
   9  -6   0    0.79    0.37
  -9   6   0    1.05    0.70
  -9   7   0    1.01    0.72
   7   9   0    0.83    0.63
   9  -7   0    1.62    0.73
  -7  -9   0    1.12    0.67
  -8  -9   0    7.86    1.53
   8   9   0    8.68    2.14
   9  -8   0    9.62    1.49
   9   9   0  180.42   12.72
   9  -9   0  182.84   12.63
   9  -9   0  179.26   11.86
  -9  -9   0  183.87   12.23
 -10  -9   0   33.54    3.79
  10   9   0   39.61    4.06
   9 -10   0   37.82    4.20
   9 -10   0   39.57    3.54
   8 -10   0    4.01    1.08
   8 -10   0    3.32    1.17
  10   8   0    3.94    1.62
 -10  -8   0    5.04    1.51
 -10  -7   0    7.12    1.90
   7 -10   0    9.65    1.57
   7 -10   0   10.10    1.95
  10   7   0   13.47    2.09
   6 -10   0    1.11    0.57
 -10  -6   0    0.33    0.58
  10   6   0    2.34    0.93
  10   5   0    9.33    1.41
   5 -10   0    8.59    1.40
 -10  -5   0    7.63    1.55
   5 -10   0    8.06    1.55
   4 -10   0   43.85    3.64
  10   4   0   43.66    4.07
   4 -10   0   43.75    3.92
 -10  -4   0   37.99    3.99
 -10  -3   0   21.39    2.80
  10   3   0   26.79    2.91
   3 -10   0   23.95    2.45
   3 -10   0   22.33    2.55
   2 -10   0    8.52    1.38
 -10  -2   0    8.54    1.67
  10   1   0  156.32   11.06
 -10  -1   0  166.95   10.78
   1 -10   0  143.83   10.07
   0  10   0  314.59   20.87
  10   0   0  362.85   21.61
   0 -10   0  352.66   20.77
 -10   1   0  171.32   10.50
  -1 -10   0  152.40    9.85
   1  10   0  136.68    9.99
  10  -1   0  141.71   11.36
  -2 -10   0    6.30    1.17
 -10   2   0    9.89    1.70
  10  -2   0    8.24    2.34
   2  10   0    8.13    1.79
   3  10   0   21.53    2.60
 -10   3   0   21.04    2.62
  10  -3   0   24.68    2.68
  -3 -10   0   25.66    2.46
   4  10   0   41.46    3.83
  10  -4   0   40.65    3.63
  -4 -10   0   39.31    3.41
 -10   4   0   34.81    3.65
  10  -5   0    7.61    1.33
   5  10   0    6.89    1.60
 -10   5   0    7.57    1.48
  -5 -10   0   12.62    2.76
  -6 -10   0    1.08    0.63
  10  -6   0    1.65    0.72
 -10   6   0   -0.26    0.54
   6  10   0    0.42    0.85
  -7 -10   0    8.17    1.50
  10  -7   0    7.21    1.32
 -10   7   0    8.15    1.78
   7  10   0    7.55    1.77
  10  -8   0    3.17    1.00
   8  10   0    5.57    1.44
  -8 -10   0    4.54    1.30
 -10   8   0    3.01    1.18
  10  -9   0   35.46    3.52
   9  10   0   37.63    4.11
  -9 -10   0   37.70    3.75
  10  10   0   32.41    3.67
  10 -10   0   26.22    3.65
 -10 -10   0   29.68    3.40
  10 -10   0   31.33    3.09
 -11 -10   0   14.13    2.42
  10 -11   0   20.18    2.85
  10 -11   0   13.49    2.70
  11  10   0   15.64    3.04
 -11  -9   0   18.38    2.56
   9 -11   0   16.06    2.11
   9 -11   0   15.50    2.79
  11   9   0   18.55    2.63
   8 -11   0   12.82    1.81
   8 -11   0   13.25    2.19
  11   8   0   12.93    2.21
 -11  -8   0   10.63    2.01
 -11  -7   0    1.25    0.91
   7 -11   0    1.95    0.96
  11   7   0    2.21    0.86
   6 -11   0    6.29    1.43
  11   6   0    5.66    1.66
   6 -11   0    4.70    1.43
   5 -11   0   -0.68    0.65
   5 -11   0    1.14    0.67
  11   5   0   -0.66    0.56
   4 -11   0    8.40    1.40
  11   4   0    6.03    1.50
 -11  -4   0    5.56    1.55
   4 -11   0    8.30    1.60
   3 -11   0    0.40    0.65
   3 -11   0    0.30    0.55
 -11  -3   0    0.18    0.68
   2 -11   0  117.66    8.55
   2 -11   0  128.20    8.58
  11   2   0  122.96    9.03
 -11  -2   0  129.36    9.18
  -1  11   0    6.46    1.59
 -11  -1   0    9.75    1.81
  11   1   0   10.43    1.67
   1 -11   0   10.71    1.58
   0 -11   0    0.82    0.70
  11   0   0    3.05    0.96
   0  11   0    0.63    0.37
 -11   0   0   -0.70    0.61
  -1 -11   0    8.83    1.47
  11  -1   0    8.85    1.58
   1  11   0    9.78    1.64
 -11   1   0   10.85    1.86
  11  -2   0  110.12    8.19
   2  11   0  106.22    8.05
  -2 -11   0  118.32    7.84
   3  11   0    0.75    0.50
  -3 -11   0    0.56    0.44
  11  -3   0    0.39    0.68
 -11   4   0    5.09    1.45
   4  11   0    4.44    1.33
  -4 -11   0    6.22    1.72
  11  -4   0    4.11    1.15
  11  -5   0    0.50    0.59
  -5 -11   0    0.03    0.44
   5  11   0    0.12    0.65
 -11   6   0    4.42    1.36
  -6 -11   0    6.44    1.28
   6  11   0    5.80    1.81
  11  -6   0    5.27    1.34
  11  -7   0    1.90    0.79
   7  11   0    3.13    1.51
  -7 -11   0    1.07    0.86
 -11   7   0    0.28    0.86
  -8 -11   0   12.55    1.91
 -11   8   0   13.42    2.21
  11  -8   0   12.13    1.87
   8  11   0   11.94    2.29
  11  -9   0   18.68    2.35
   9  11   0   15.86    2.66
  -9 -11   0   16.34    2.43
  11 -10   0   12.82    3.14
  11 -10   0   16.78    2.48
  10  11   0   22.05    2.76
  11  11   0    1.60    1.21
 -11 -11   0    2.06    0.89
  11 -11   0    3.02    1.03
  11 -11   0   -0.71    1.52
  10 -12   0    9.22    1.60
 -12 -10   0    5.90    1.92
  10 -12   0    6.77    2.40
   9 -12   0   12.09    1.81
   9 -12   0    8.63    2.17
 -12  -9   0   11.89    1.73
  12   9   0    6.41    1.99
   8 -12   0    0.19    0.89
 -12  -8   0    0.53    1.01
  12   8   0   -0.62    0.84
   8 -12   0    0.70    0.69
  12   7   0   36.18    3.88
 -12  -7   0   30.27    3.67
   7 -12   0   35.84    3.40
   7 -12   0   29.35    3.69
  12   6   0    2.04    0.75
   6 -12   0    0.47    0.64
 -12  -6   0   -0.03    0.72
   5 -12   0   13.57    1.95
 -12  -5   0   11.64    2.24
  12   5   0   15.92    2.40
   5 -12   0   11.43    2.13
  12   4   0   18.30    2.59
 -12  -4   0   16.52    2.54
   4 -12   0   18.24    2.29
   4 -12   0   21.97    2.62
   3 -12   0   20.30    2.58
  12   3   0   20.16    2.62
   3 -12   0   20.19    2.44
 -12  -3   0   22.84    2.94
   2 -12   0    9.85    1.71
 -12  -2   0   12.41    2.16
  12   2   0   13.30    1.91
   2 -12   0    9.02    1.66
  12   1   0   28.86    3.10
 -12  -1   0   28.37    3.27
   1 -12   0   23.84    2.79
  12   0   0   14.56    1.90
   0 -12   0   12.29    1.90
   0  12   0   12.52    2.07
 -12   0   0   16.59    2.36
   1  12   0   20.62    2.69
  -1 -12   0   23.10    2.65
  12  -1   0   26.93    2.89
 -12   1   0   27.26    3.08
  -2 -12   0    8.74    1.53
 -12   2   0   11.77    2.02
   2  12   0    9.89    1.74
  12  -2   0   11.22    1.78
 -12   3   0   19.93    2.75
  -3 -12   0   22.03    2.43
   3  12   0   16.21    2.51
  12  -3   0   19.01    2.48
  -4 -12   0   17.33    2.18
 -12   4   0   18.58    2.57
  12  -4   0   21.16    2.41
   4  12   0   19.38    2.64
 -12   5   0    9.81    2.00
  -5 -12   0   12.58    1.83
  12  -5   0   14.13    2.05
   5  12   0   13.15    2.22
   6  12   0    1.62    0.94
  12  -6   0    1.52    0.69
  -6 -12   0    1.23    0.72
   7  12   0   28.36    3.52
  -7 -12   0   29.44    3.15
 -12   7   0   29.54    3.42
  12  -7   0   25.13    3.03
  12  -8   0    0.53    0.60
 -12   8   0    0.26    0.94
  12  -9   0    7.68    1.46
  -9 -12   0    4.22    1.62
   9  12   0    6.00    1.47
  12 -10   0    3.17    1.14
  12 -10   0    4.61    2.17
  10  12   0    3.39    1.94
 -10 -12   0    5.83    1.67
  11  12   0    2.02    1.33
  12 -11   0   -1.82    1.62
  12 -12   0   -3.76    2.00
  11 -13   0    1.42    2.25
  10 -13   0    8.49    2.55
  10 -13   0    4.30    2.11
  13   9   0  141.59   10.90
   9 -13   0  137.42   10.72
   9 -13   0  139.12   10.04
 -13  -8   0    5.14    1.60
   8 -13   0    4.43    1.34
   8 -13   0    5.51    2.32
   7 -13   0    4.19    1.21
  13   7   0    3.37    1.48
   7 -13   0    3.60    1.49
 -13  -7   0    7.01    1.81
 -13  -6   0    3.15    1.23
   6 -13   0    3.02    1.03
  13   5   0   87.57    7.23
   5 -13   0   90.18    7.08
 -13  -5   0   81.82    7.22
   5 -13   0   80.30    6.54
   4 -13   0   23.99    2.88
 -13  -4   0   25.11    3.37
  13   4   0   29.95    3.40
   4 -13   0   24.23    3.06
 -13  -3   0   53.52    5.18
   3 -13   0   52.98    4.79
  13   3   0   56.02    5.16
   3 -13   0   50.12    4.59
 -13  -2   0   16.95    2.51
   2 -13   0   12.77    2.01
  13   2   0   11.48    2.25
   2 -13   0   14.21    1.97
   1 -13   0   36.57    3.78
 -13  -1   0   48.11    4.56
  13   1   0   42.51    4.32
 -13   0   0    0.30    0.83
  13   0   0    1.62    0.88
   0  13   0   -0.86    0.58
   0 -13   0   -0.91    0.52
 -13   1   0   44.13    4.23
   1  13   0   30.31    3.73
  -1 -13   0   36.77    3.88
  13  -1   0   38.36    4.02
  13  -2   0   10.74    2.01
   2  13   0   11.09    4.03
  -2 -13   0   12.75    1.98
 -13   2   0   16.09    2.44
  -3 -13   0   46.21    4.29
 -13   3   0   57.43    5.06
   3  13   0   46.87    4.78
  13  -3   0   47.36    4.66
  -4 -13   0   26.91    2.88
 -13   4   0   27.45    3.38
  13  -4   0   24.67    2.90
   4  13   0   20.73    3.05
  13  -5   0   70.79    6.03
 -13   5   0   68.57    7.03
  -5 -13   0   73.30    5.85
   5  13   0   77.01    6.65
 -13   6   0    2.10    1.09
  -6 -13   0    2.53    0.94
   6  13   0    1.45    1.21
  13  -6   0    5.13    1.57
 -13   7   0    4.03    1.26
  -7 -13   0    2.58    1.23
  13  -7   0    3.53    1.10
   7  13   0    7.48    2.18
   8  13   0    6.15    1.64
 -13   8   0    1.91    1.55
  -8 -13   0    4.15    1.53
  13  -8   0    7.92    1.47
   9  13   0  110.37    9.59
  -9 -13   0  121.17    8.88
  10  13   0    8.42    2.31
   9 -14   0    0.61    2.03
   8 -14   0   45.99    4.49
   8 -14   0   43.49    5.16
   7 -14   0   -0.80    1.29
  14   7   0    4.18    1.30
   6 -14   0   14.95    2.73
 -14  -6   0   13.06    2.54
  14   6   0   19.81    2.69
   6 -14   0   13.57    2.62
   5 -14   0    0.52    1.08
   5 -14   0    0.97    0.97
  14   5   0    1.42    1.24
 -14  -5   0    1.44    0.93
  14   4   0   62.68    5.68
 -14  -4   0   58.51    5.54
   4 -14   0   56.71    5.29
   4 -14   0   56.49    5.10
   3 -14   0    1.34    0.95
 -14  -3   0    1.51    1.17
   3 -14   0    0.79    0.86
   2 -14   0    2.54    1.25
 -14  -2   0    2.34    1.50
   2 -14   0    1.82    1.41
  14   2   0    2.37    1.06
   1 -14   0    4.39    1.49
  14   1   0    4.23    1.44
 -14  -1   0    6.04    1.81
   0  14   0   97.18    9.93
   0 -14   0  127.87    8.72
  14   0   0  120.65    9.07
  -1 -14   0    4.00    1.18
  14  -1   0    5.16    1.47
 -14   1   0    6.94    1.73
  14  -2   0    1.09    1.01
   2  14   0    1.41    1.12
  -2 -14   0    0.97    0.86
 -14   2   0    3.17    1.53
 -14   3   0   -0.44    0.80
  14  -3   0    0.67    1.24
   3  14   0    1.02    1.17
  -3 -14   0    1.99    0.89
  14  -4   0   44.36    4.65
  -4 -14   0   52.85    4.49
   4  14   0   41.26    4.94
  14  -5   0    1.91    0.78
   5  14   0    1.29    1.40
 -14   5   0    1.29    1.10
  -5 -14   0    0.62    0.92
 -14   6   0   12.56    2.45
  14  -6   0   11.66    1.96
   6  14   0    9.77    2.47
  -6 -14   0   11.94    2.08
   7  14   0   -0.75    1.08
  14  -7   0    0.41    1.11
  -8 -14   0   43.78    4.40
   8  14   0   42.42    5.09
   9  14   0    1.15    1.62
   8 -15   0   14.83    4.66
   7 -15   0   17.99    2.88
   7 -15   0   21.10    4.06
   6 -15   0   17.63    3.76
   6 -15   0   12.07    2.37
   5 -15   0   19.75    2.47
  15   4   0   87.67    7.47
   4 -15   0   78.34    6.82
   4 -15   0   73.62    6.48
   3 -15   0   -0.06    1.14
   3 -15   0    2.96    0.96
  15   3   0    1.29    1.02
 -15  -2   0   -0.31    0.98
   2 -15   0    1.39    0.96
  15   2   0    2.52    1.04
 -15  -1   0    2.30    1.12
  15   1   0    2.91    1.19
   1 -15   0    3.02    1.05
  15   0   0    2.19    1.14
 -15   0   0    1.50    1.05
 -15   1   0    2.26    1.26
  15  -1   0    2.08    1.34
 -15   2   0    1.52    1.22
  15  -2   0    3.73    1.09
  -2 -15   0    0.12    0.84
   2  15   0    0.52    0.84
  -3 -15   0   -0.56    0.74
   3  15   0   -0.33    0.82
  15  -3   0    0.98    0.71
  15  -4   0   75.84    7.09
   4  15   0   62.74    6.28
  -4 -15   0   68.55    5.90
   5  15   0    9.19    2.40
  -5 -15   0   12.73    2.60
   6  15   0   16.35    3.73
  -6 -15   0   16.14    2.53
   7  15   0   15.95    3.14
  -7 -15   0   14.87    2.57
   8  15   0   26.63    3.87
   6 -16   0    4.02    1.34
   6 -16   0    3.38    2.11
   5 -16   0   11.23    3.21
   5 -16   0   15.66    2.39
   3 -16   0   34.06    3.52
   3 -16   0   23.45    3.63
   2 -16   0    6.58    1.77
   2 -16   0    5.94    2.05
   1 -16   0    1.21    1.19
   1 -16   0    1.91    1.36
   0 -16   0    1.67    1.00
  -1 -16   0    1.71    1.24
   2  16   0    5.05    1.28
  -3 -16   0   33.66    3.53
   4  16   0    0.48    1.11
  -5 -16   0   16.40    2.35
  -6 -16   0   11.64    2.10
   4 -17   0   12.98    2.95
   4 -17   0   17.00    3.86
   3 -17   0    0.81    1.78
   3 -17   0    3.34    1.90
   2 -17   0   26.03    3.65
   1 -17   0   28.76    3.64
   1 -17   0   20.94    3.18
   0 -17   0   -1.62    1.51
   0 -17   0   -1.49    1.62
  -1 -17   0   20.38    3.06
   2  17   0    8.68    2.43
  -2 -17   0   15.07    3.51
  -3 -17   0    3.16    1.70
   3  17   0    3.53    1.51
  -4 -17   0   30.64    3.52
   5  17   0   21.51    4.23
   2 -18   0   27.87    4.01
   1 -18   0    1.90    1.77
   0 -18   0  100.81    8.66
   0 -18   0   94.92    8.58
  -1 -18   0    2.55    2.24
  -2 -18   0    3.54    2.58
   3  18   0    3.09    1.97
   0   0  -1    0.04    0.07
   0   0   1    0.08    0.10
   0   1  -1    1.69    0.24
  -1   0  -1    2.85    0.43
   0  -1  -1    1.74    0.31
   0  -1   1    2.11    0.30
   1   0   1    2.11    0.49
   0   1   1    1.96    0.29
  -1  -1  -1    0.72    0.32
   1  -1  -1    0.88    0.16
  -1   1  -1    1.79    0.31
   1   1   1    1.19    0.35
   1  -1   1    1.04    0.33
  -1  -1   1    1.10    0.17
  -1  -1   1    1.02    0.16
  -1   1   1    1.16    0.16
   1  -2  -1   17.87    1.23
   2   1  -1   17.71    1.14
  -2  -1   1   18.19    1.15
   1  -2   1   16.33    1.35
  -1   2   1   16.48    1.21
   2   1   1   16.02    1.54
   0  -2  -1    0.10    0.08
   2   0   1    0.15    0.21
   0  -2   1    0.04    0.09
   0   2   1    0.23    0.14
   2  -1  -1   17.07    1.08
   2  -1  -1   16.96    1.10
  -1  -2  -1   17.46    1.49
  -1  -2   1   16.42    1.22
   2  -1   1   16.66    1.50
   1   2   1   17.69    1.41
   2  -2  -1  240.56   14.38
   2  -2  -1  259.35   14.48
   2   2  -1  255.51   14.51
   2   2   1  236.99   14.85
   2  -2   1  265.55   14.82
  -2  -2   1  254.95   14.45
   3   2  -1    3.72    0.44
  -2   3  -1    3.25    0.53
   2  -3  -1    3.86    0.51
  -3  -2  -1    3.47    0.90
   2  -3   1    3.38    0.55
  -3  -2   1    3.69    0.48
   3   2   1    3.62    0.86
   3   1  -1  103.47    5.53
   1  -3  -1  100.79    5.66
  -3  -1  -1   84.66    6.09
  -1   3   1   96.67    5.64
   3   1   1   81.57    6.04
  -3  -1   1   80.28    5.54
   1  -3   1   99.99    5.75
   0  -3  -1   39.96    2.49
   3   0  -1   32.41    2.27
  -3   0  -1   32.74    2.71
   0  -3   1   35.70    2.50
  -3   0   1   35.02    2.26
   0   3   1   39.10    2.46
   0  -3   1   37.82    2.43
   3   0   1   31.15    2.75
   1   3  -1   89.78    5.86
   3  -1  -1  101.54    5.67
  -3   1  -1   90.37    6.09
  -3   1   1   97.01    5.59
   1   3   1  104.16    5.99
   3  -1   1   89.57    6.18
  -1  -3   1   95.05    5.79
  -2  -3  -1    3.03    0.59
   3  -2  -1    2.55    0.42
  -3   2  -1    3.49    0.61
   3  -2  -1    3.79    0.40
   2   3  -1    3.68    0.50
   2   3   1    3.28    0.61
   3  -2   1    2.88    0.58
  -2  -3   1    3.13    0.43
  -3   3  -1   36.38    2.68
   3  -3  -1   34.66    2.33
   3  -3  -1   34.85    2.48
  -3  -3  -1   34.12    2.84
   3   3  -1   35.34    2.47
   3  -3   1   36.76    2.69
   3   3   1   35.24    2.81
  -3  -3   1   34.85    2.41
   3  -4  -1   14.15    1.21
  -3   4  -1   16.18    1.48
   4   3  -1   14.34    1.33
   3  -4  -1   14.24    1.36
  -4  -3  -1   13.79    1.66
   4   3   1   12.44    1.55
  -4  -3   1   14.98    1.33
   3  -4   1   15.71    1.47
  -2   4  -1   13.11    1.28
  -4  -2  -1   12.45    1.60
   2  -4  -1   15.39    1.31
   4   2  -1   14.43    1.24
  -4  -2   1   13.84    1.28
  -2   4   1   12.91    1.25
   4   2   1   14.32    1.59
   2  -4   1   15.16    1.36
   4   1  -1  170.48    9.40
  -4  -1  -1  147.50    9.96
   1  -4  -1  177.64    9.48
   4   1   1  136.10    9.87
   1  -4   1  156.05    9.63
  -4  -1   1  140.38    9.38
  -1   4   1  166.64    9.46
   1  -4   1  164.10    9.48
  -4   0  -1    0.03    0.22
   4   0  -1    0.12    0.13
  -4   0   1   -0.08    0.13
   0  -4   1    0.19    0.18
   0   4   1    0.17    0.19
   4  -1  -1  150.59    9.48
  -4   1  -1  146.97    9.91
   1   4  -1  152.99    9.69
  -1  -4   1  166.04    9.60
   1   4   1  179.62    9.78
   4  -1   1  153.12   10.06
  -4   1   1  173.30    9.47
   2   4  -1   14.55    1.36
  -4   2  -1   14.24    1.52
   4  -2  -1   15.45    1.22
  -2  -4  -1   16.80    1.53
   2   4   1   14.66    1.48
  -2  -4   1   14.47    1.26
  -4   2   1   14.52    1.19
   4  -2   1   14.19    1.53
  -4   3  -1   13.65    1.49
   3   4  -1   14.25    1.35
  -3  -4  -1   14.14    1.55
   4  -3  -1   15.13    1.23
  -3  -4   1   15.18    1.30
   3   4   1   14.32    1.57
   4  -3   1   15.04    1.52
   4  -4  -1    0.55    0.33
  -4  -4  -1    0.35    0.34
   4   4  -1    1.20    0.39
  -4   4  -1    1.01    0.55
   4  -4  -1    0.74    0.30
   4   4   1    0.76    0.50
  -4  -4   1    0.55    0.26
   4  -5  -1    2.53    0.64
   4  -5  -1    3.41    0.54
  -4   5  -1    2.69    0.67
  -5  -4  -1    3.05    0.98
   5   4  -1    2.78    0.67
   5   4   1    1.68    0.63
  -5  -4   1    3.07    0.61
   4  -5   1    3.34    0.67
   5   3  -1    0.30    0.26
   3  -5  -1    0.09    0.27
  -5  -3  -1    0.03    0.24
  -3   5  -1    0.03    0.16
   3  -5  -1    0.08    0.14
  -5  -3   1   -0.13    0.16
   5   3   1    0.19    0.34
   3  -5   1    0.20    0.23
   2  -5  -1    0.53    0.26
  -5  -2  -1    0.37    0.50
   5   2  -1    0.72    0.27
  -5  -2   1    0.27    0.23
   5   2   1    0.16    0.31
   2  -5   1    0.57    0.39
   2  -5   1    0.31    0.20
  -2   5   1    0.28    0.21
  -5  -1  -1   41.52    4.07
   5   1  -1   53.15    3.42
  -5  -1   1   42.93    3.35
   1  -5   1   48.56    3.36
  -1   5   1   50.06    3.38
   5   1   1   43.42    3.80
   1  -5   1   52.58    3.58
  -5   0  -1  601.32   32.69
   5   0  -1  480.40   31.72
   0  -5   1  581.94   31.90
   5   0   1  518.66   32.40
  -5   0   1  560.03   31.76
   0   5   1  576.48   31.84
   5  -1  -1   45.08    3.47
  -5   1  -1   51.58    4.64
   1   5  -1   45.81    3.61
  -1  -5  -1   52.11    3.62
  -5   1   1   54.25    3.50
   1   5   1   57.81    3.72
  -1  -5   1   54.46    3.57
   5  -1   1   50.25    4.03
   5  -2  -1    0.57    0.23
   2   5  -1    0.52    0.36
  -2  -5  -1    0.17    0.26
  -5   2  -1    0.40    0.29
   5  -2   1    0.18    0.24
   2   5   1    0.76    0.37
  -5   2   1    0.58    0.28
  -2  -5   1    0.48    0.28
   5  -3  -1   -0.06    0.14
   3   5  -1    0.34    0.30
  -5   3  -1    0.08    0.26
  -3  -5  -1   -0.08    0.22
  -5   3   1    0.14    0.19
   5  -3   1    0.17    0.25
   3   5   1    0.23    0.23
  -3  -5   1    0.28    0.19
   4   5  -1    2.89    0.73
  -5   4  -1    3.10    0.77
  -4  -5  -1    3.27    0.92
   5  -4  -1    2.94    0.53
  -4  -5   1    3.12    0.57
   5  -4   1    2.96    0.85
   4   5   1    4.41    0.78
   5   5  -1    0.13    0.24
  -5  -5  -1    0.41    0.38
   5  -5  -1    1.22    0.40
   5  -5  -1    0.45    0.35
  -5   5  -1    0.86    0.44
   5  -5   1    0.73    0.34
  -5  -5   1    0.43    0.25
   5   5   1    0.18    0.29
   6   5  -1   24.57    2.33
   5  -6  -1   23.28    2.02
   5  -6  -1   24.73    2.32
  -6  -5  -1   21.96    2.52
  -5   6  -1   25.10    2.34
  -6  -5   1   24.23    2.20
   6   5   1   20.89    2.45
   5  -6   1   25.52    2.31
  -6  -4  -1    0.52    0.52
   4  -6  -1    0.64    0.30
  -4   6  -1    0.70    0.47
   6   4  -1    0.23    0.32
   4  -6  -1    1.13    0.49
   6   4   1    1.43    0.55
   4  -6   1    1.14    0.41
  -6  -4   1    0.68    0.39
  -6  -3  -1   19.95    2.34
   6   3  -1   19.90    1.91
   3  -6  -1   19.64    1.73
  -6  -3   1   18.43    1.90
   3  -6   1   23.24    1.96
   3  -6   1   17.44    2.01
   6   3   1   20.49    2.24
  -6  -2  -1  431.03   26.65
   6   2  -1  466.68   26.01
  -6  -2   1  415.92   26.00
   6   2   1  425.00   26.52
   2  -6   1  465.77   26.24
   2  -6   1  479.93   25.98
  -2   6   1  428.14   25.89
   6   1  -1  149.01    9.10
  -6  -1  -1  132.09    9.55
   1  -6   1  158.15    9.06
  -6  -1   1  135.44    9.05
   1  -6   1  155.26    9.22
   6   1   1  135.47    9.59
  -1   6   1  147.06    9.03
   0  -6  -1    0.37    0.18
  -6   0  -1   -0.15    0.28
   0  -6   1    0.13    0.29
   0   6   1    0.33    0.22
  -6   0   1    0.16    0.19
   6   0   1    0.20    0.40
   1   6  -1  139.80    9.43
  -1  -6  -1  155.69    9.38
  -6   1  -1  156.47    9.84
   6  -1  -1  135.97    9.29
   1   6   1  163.18    9.49
  -1  -6   1  155.86    9.31
   6  -1   1  147.51    9.91
  -6   1   1  151.17    9.29
  -6   2  -1  425.66   27.46
   2   6  -1  457.69   27.25
  -2  -6  -1  472.70   27.23
   6  -2  -1  453.13   27.05
   6  -2   1  457.63   27.65
   2   6   1  496.86   27.39
  -2  -6   1  483.25   27.06
  -6   2   1  486.65   27.08
   6  -3  -1   20.44    1.78
  -3  -6  -1   19.60    2.03
  -6   3  -1   20.10    2.13
   3   6  -1   20.92    1.97
   6  -3   1   20.61    2.10
  -3  -6   1   18.10    1.73
   3   6   1   22.27    2.13
  -6   3   1   19.95    1.80
  -4  -6  -1    0.38    0.39
   6  -4  -1    0.95    0.39
   4   6  -1    0.83    0.41
  -6   4  -1    1.51    0.64
   6  -4   1    1.98    0.60
  -6   4   1    0.41    0.28
   4   6   1    1.13    0.70
  -4  -6   1    0.38    0.25
  -5  -6  -1   23.97    2.45
   6  -5  -1   23.74    2.01
  -6   5  -1   25.33    2.43
   5   6  -1   22.95    2.25
   5   6   1   22.58    2.43
  -5  -6   1   25.03    2.13
   6  -5   1   20.91    2.21
   6  -6  -1   89.71    6.56
   6   6  -1   99.93    6.66
   6  -6  -1   93.82    6.20
  -6   6  -1   98.53    6.71
  -6  -6  -1   97.63    6.93
   6   6   1   93.12    6.94
   6  -6   1   91.04    6.51
  -6  -6   1   96.12    6.39
   6  -7  -1    1.43    0.48
   7   6  -1    1.18    0.57
  -6   7  -1    1.06    0.67
  -7  -6  -1    0.83    0.68
  -7  -6   1    2.36    0.80
   7   6   1    0.90    0.71
   6  -7   1    0.75    0.47
   7   5  -1    2.16    0.75
  -7  -5  -1    2.85    1.07
   5  -7  -1    2.16    0.59
  -7  -5   1    1.94    0.69
   5  -7   1    1.85    0.57
   7   5   1    1.87    0.67
   7   4  -1   -0.10    0.29
  -7  -4  -1    0.15    0.50
   4  -7  -1   -0.06    0.17
   7   4   1   -0.42    0.31
   4  -7   1    0.54    0.41
   4  -7   1    0.26    0.30
  -7  -3  -1   75.00    5.93
   7   3  -1   81.83    5.46
   3  -7  -1   65.29    5.16
  -7  -3   1   75.75    5.44
   3  -7   1   72.75    5.60
   3  -7   1   76.39    5.58
   7   3   1   83.01    5.92
  -7  -2  -1    4.40    1.15
   7   2  -1    7.18    1.10
   2  -7  -1    6.38    0.98
   2  -7   1    5.71    1.05
   7   2   1    7.32    1.23
  -7  -2   1    5.18    1.20
  -2   7   1    5.25    0.93
   2  -7   1    6.67    0.96
   1  -7  -1   83.04    5.38
   7   1  -1   75.61    5.42
  -7  -1  -1   73.06    5.88
   7   1   1   73.60    5.89
  -7  -1   1   84.08    5.56
   1  -7   1   76.62    5.44
   1  -7   1   82.49    5.39
  -1   7   1   73.38    5.32
   7   0  -1   10.65    1.40
   0  -7  -1   13.28    1.48
  -7   0  -1   14.97    1.89
   0  -7   1   12.87    1.48
  -7   0   1   15.33    1.60
   7   0   1   14.11    1.81
   0   7   1   12.07    1.41
   1   7  -1   70.89    5.46
   7  -1  -1   76.07    5.42
  -1  -7  -1   82.56    5.43
  -7   1  -1   83.84    5.92
  -7   1   1   70.32    5.30
   1   7   1   85.18    5.54
   7  -1   1   81.90    6.02
  -1  -7   1   78.72    5.33
   7  -2  -1    5.64    0.92
   2   7  -1    6.14    1.02
  -7   2  -1    5.92    1.12
  -2  -7  -1    4.67    0.89
  -7   2   1    5.65    0.94
  -2  -7   1    6.62    0.92
   2   7   1    6.79    1.09
   7  -2   1    5.83    1.18
   3   7  -1   84.35    5.73
  -3  -7  -1   78.12    5.62
   7  -3  -1   78.37    5.44
  -7   3  -1   75.64    5.86
   3   7   1   87.24    5.90
  -3  -7   1   82.79    5.44
  -7   3   1   80.77    5.51
   7  -3   1   79.97    5.93
   4   7  -1   -0.30    0.26
   7  -4  -1    0.09    0.24
  -7   4  -1   -0.11    0.33
  -4  -7  -1   -0.18    0.26
   7  -4   1   -0.03    0.31
  -7   4   1    0.07    0.28
   4   7   1   -0.38    0.22
  -4  -7   1    0.24    0.22
   7  -5  -1    1.86    0.78
  -5  -7  -1    1.09    0.61
  -7   5  -1    1.56    0.71
   5   7  -1    1.92    0.75
  -5  -7   1    1.57    0.59
   7  -5   1    1.36    0.54
   5   7   1    1.77    0.70
   7  -6  -1    0.64    0.45
  -6  -7  -1    0.82    0.54
   6   7  -1    1.15    0.52
  -7   6  -1    1.51    0.78
   7  -6  -1    1.51    0.48
  -6  -7   1    0.26    0.40
   6   7   1    0.95    0.66
   7  -6   1    1.53    0.57
  -7  -7  -1   89.18    6.72
   7  -7  -1   86.22    6.58
   7   7  -1   93.53    6.60
  -7   7  -1   94.29    6.60
   7  -7  -1   87.30    6.01
  -7  -7   1   90.64    6.24
   7  -7   1   88.26    6.36
   7   7   1   78.12    6.62
  -7   8  -1   14.33    1.98
   8   7  -1   12.45    1.95
  -8  -7  -1   13.54    2.14
   7  -8  -1   15.71    1.74
  -8  -7   1   14.94    1.85
   8   7   1   15.03    2.23
   7  -8   1   15.20    1.90
   6  -8  -1   59.64    4.38
  -8  -6  -1   61.14    5.22
   8   6  -1   60.89    4.89
   8   6   1   57.51    5.11
  -8  -6   1   57.16    4.65
   6  -8   1   61.58    4.68
   5  -8  -1   13.94    1.85
   5  -8  -1   16.66    1.71
  -8  -5  -1   14.98    2.20
   8   5  -1   14.96    1.91
   5  -8   1   13.90    1.77
   5  -8   1   15.13    2.08
   8   5   1   14.49    2.16
  -8  -5   1   16.50    1.90
   8   4  -1    5.25    1.03
   4  -8  -1    6.80    1.16
  -8  -4  -1    5.31    1.41
   4  -8  -1    7.22    1.01
   8   4   1    7.95    1.78
  -8  -4   1    5.76    1.14
   4  -8   1    5.95    1.08
   4  -8   1    5.53    1.35
   3  -8  -1    6.01    1.09
   8   3  -1    6.58    1.77
  -8  -3  -1    6.38    1.64
   3  -8   1    6.67    1.07
   8   3   1    7.91    1.48
  -8  -3   1    7.11    1.17
   3  -8   1    6.74    1.23
   8   2  -1   13.05    1.58
   2  -8  -1   12.12    1.48
  -8  -2  -1    9.36    1.71
   2  -8   1   11.57    1.57
  -8  -2   1   10.19    1.52
   2  -8   1   12.94    1.79
   8   2   1   12.30    1.86
  -2   8   1    9.60    1.36
   1  -8  -1   15.50    1.73
  -8  -1  -1   15.52    2.11
   8   1  -1   13.49    1.77
  -1   8   1   16.39    1.79
  -8  -1   1   19.54    2.10
   1  -8   1   16.95    1.76
   1  -8   1   16.47    1.85
   8   1   1   14.66    2.09
   8   0  -1    0.05    0.35
   0  -8  -1    0.09    0.27
  -8   0  -1    0.06    0.41
   0   8   1    0.07    0.29
   8   0   1    0.53    0.41
   0  -8   1    0.10    0.28
  -8   0   1    0.24    0.44
   8  -1  -1   16.38    1.90
  -1  -8  -1   16.32    1.81
   1   8  -1   15.72    1.93
  -8   1  -1   21.49    2.36
  -8   1   1   18.46    1.99
  -1  -8   1   17.09    1.78
   1   8   1   18.21    1.95
   8  -1   1   16.90    2.20
   8  -2  -1   10.91    1.43
   2   8  -1   13.25    1.66
  -8   2  -1   11.16    1.68
  -2  -8  -1   12.18    1.51
  -8   2   1   11.50    1.50
   8  -2   1   11.84    1.80
   2   8   1   11.01    1.54
  -2  -8   1   12.00    1.40
   3   8  -1    5.92    1.12
  -3  -8  -1    6.63    1.08
  -8   3  -1    5.87    1.44
   8  -3   1    6.89    1.29
  -8   3   1    5.79    1.04
   3   8   1    4.64    1.14
  -3  -8   1    5.82    0.95
  -4  -8  -1    6.03    1.11
   8  -4  -1    5.40    0.93
   4   8  -1    6.13    1.46
  -8   4  -1    5.23    1.23
  -8   4   1    7.28    1.15
   4   8   1    6.65    1.24
   8  -4   1    6.21    1.13
  -4  -8   1    6.51    1.01
  -8   5  -1   14.39    1.96
   5   8  -1   15.10    1.90
  -5  -8  -1   13.96    1.84
   8  -5  -1   14.93    1.61
   5   8   1   12.87    1.86
   8  -5   1   14.69    1.88
  -8   5   1   12.88    1.63
  -5  -8   1   14.13    1.62
  -8   6  -1   60.56    4.92
   6   8  -1   57.70    4.78
   8  -6  -1   57.98    4.34
  -6  -8  -1   60.49    4.85
   6   8   1   57.91    5.01
   8  -6   1   61.16    4.78
  -6  -8   1   58.60    4.43
   8  -7  -1   15.27    2.06
   8  -7  -1   14.58    1.69
  -8   7  -1   16.00    2.13
   7   8  -1   14.44    2.04
  -7  -8  -1   14.86    2.11
  -7  -8   1   16.00    1.78
   7   8   1   14.50    2.13
   8  -7   1   14.80    1.91
   8   8  -1    1.54    0.72
  -8   8  -1    1.72    0.80
  -8  -8  -1    0.90    0.64
   8  -8   1    0.21    0.53
   8   8   1    1.31    0.78
  -8  -8   1    0.15    0.48
  -9  -8  -1    1.21    1.28
   8  -9  -1    2.14    0.75
   8  -9  -1    1.37    0.97
   8  -9   1    1.85    0.82
  -9  -8   1    2.31    0.98
   9   8   1    1.03    0.99
  -9  -7  -1    3.93    1.28
   7  -9  -1    3.85    1.33
   7  -9  -1    1.71    0.67
   9   7  -1    2.85    1.04
   7  -9   1    1.22    0.84
  -9  -7   1    2.34    0.90
   9   7   1    3.04    1.06
   7  -9   1    2.82    0.89
   9   6  -1   98.95    7.37
  -9  -6  -1   97.77    7.73
   6  -9  -1   99.05    6.82
   6  -9  -1   99.43    7.24
  -9  -6   1   94.74    7.15
   9   6   1  102.39    7.74
   6  -9   1  105.84    7.18
   6  -9   1  101.65    7.66
   9   5  -1   20.81    2.51
   5  -9  -1   23.61    2.52
   5  -9  -1   22.54    2.17
  -9  -5  -1   18.54    2.70
   9   5   1   21.29    2.75
   5  -9   1   21.96    2.66
  -9  -5   1   20.37    2.38
   5  -9   1   20.27    2.25
   4  -9  -1    4.97    0.86
   4  -9  -1    2.90    0.97
   9   4  -1    2.52    0.96
  -9  -4  -1    4.09    1.45
   4  -9   1    3.84    1.22
   4  -9   1    3.20    0.92
  -9  -4   1    3.38    1.06
   9   4   1    3.85    1.17
  -9  -3  -1    2.51    1.19
   3  -9  -1    3.50    0.87
   9   3  -1    2.80    0.95
   3  -9   1    2.96    1.04
  -9  -3   1    4.95    0.94
   9   3   1    3.56    1.15
   3  -9   1    4.29    1.03
   9   2  -1    1.99    0.79
  -9  -2  -1    1.08    0.90
   2  -9  -1    1.53    0.58
   2  -9   1    1.10    0.64
   9   2   1    1.33    0.78
  -9  -2   1    1.69    0.74
   2  -9   1    2.15    0.74
  -2   9   1    1.75    0.66
   1  -9  -1    0.02    0.33
  -9  -1  -1    0.24    0.53
  -9  -1   1    0.01    0.25
   1  -9   1    0.28    0.32
   9   1   1    0.00    0.49
  -1   9   1    0.32    0.30
   1  -9   1    0.41    0.36
  -9   0  -1   34.42    3.25
   0  -9  -1   25.40    2.64
   9   0  -1   21.09    2.49
   0   9   1   26.60    2.59
   0  -9   1   25.49    2.50
   9   0   1   27.12    2.99
   1   9  -1   -0.32    0.28
  -1  -9  -1    0.40    0.29
   9  -1  -1   -0.29    0.30
  -9   1  -1   -0.20    0.37
  -9   1   1   -0.36    0.33
  -1  -9   1    0.23    0.41
   9  -1   1    1.60    0.59
  -2  -9  -1    2.96    0.94
  -9   2  -1    2.63    1.00
   2   9  -1    1.48    0.61
   9  -2  -1    1.90    0.77
  -9   2   1    1.79    0.57
   9  -2   1    2.87    1.01
  -2  -9   1    2.25    0.97
   2   9   1    1.44    0.58
  -3  -9  -1    3.07    0.95
  -9   3  -1    3.55    1.20
   3   9  -1    3.06    0.97
   9  -3  -1    2.46    0.80
  -3  -9   1    2.94    0.79
   9  -3   1    2.44    0.98
  -9   3   1    4.81    1.16
   3   9   1    3.02    0.88
   4   9  -1    3.49    1.09
  -4  -9  -1    3.36    1.05
   9  -4  -1    2.81    0.82
  -9   4  -1    2.02    0.95
  -9   4   1    3.20    1.00
  -4  -9   1    3.73    1.03
   9  -4   1    3.04    1.15
  -5  -9  -1   20.72    2.34
   9  -5  -1   18.32    2.03
   5   9  -1   21.55    2.43
  -9   5  -1   18.90    2.45
   5   9   1   22.73    2.62
  -5  -9   1   19.29    2.04
  -9   5   1   20.08    2.21
   9  -5   1   18.14    2.32
   6   9  -1   97.55    7.23
  -9   6  -1   95.57    7.30
   9  -6  -1   91.24    6.63
  -6  -9  -1   99.53    7.14
  -6  -9   1   98.14    6.74
  -9   6   1  105.73    7.06
   9  -6   1   95.16    7.06
   6   9   1   93.11    7.38
   9  -7  -1    1.98    0.69
  -7  -9  -1    3.08    1.25
  -9   7  -1    2.58    1.04
   7   9  -1    2.21    0.91
  -7  -9   1    3.41    0.95
   7   9   1    2.70    1.17
   9  -7   1    2.94    0.94
   9  -8  -1    1.99    0.64
  -9   8  -1    0.91    0.76
   8   9  -1    1.57    0.89
  -8  -9  -1    1.46    1.00
  -8  -9   1    1.53    0.74
   9  -8   1    2.22    0.95
   8   9   1    1.61    1.16
   9   9  -1    1.64    0.90
  -9  -9  -1    1.34    0.94
   9  -9  -1    0.07    0.79
   9  -9  -1    0.83    0.59
   9  -9   1    1.37    0.73
   9   9   1   -0.17    1.14
 -10  -9  -1    2.02    1.33
   9 -10  -1    4.53    1.58
  10   9  -1    5.46    1.95
   9 -10  -1    1.14    1.16
 -10  -9   1    2.56    1.04
  10   9   1    2.47    1.44
   9 -10   1    2.15    1.25
   9 -10   1    2.18    1.16
   8 -10  -1    1.19    0.50
 -10  -8  -1   -0.44    0.80
   8 -10  -1    0.27    0.94
  10   8  -1    0.41    0.56
 -10  -8   1    0.05    0.84
   8 -10   1   -0.01    0.67
  10   8   1    0.64    1.03
   8 -10   1   -0.62    0.65
 -10  -7  -1   24.07    3.29
   7 -10  -1   30.10    2.85
   7 -10  -1   31.57    3.30
  10   7  -1   28.06    3.25
   7 -10   1   29.94    3.56
 -10  -7   1   30.49    3.09
  10   7   1   31.17    5.14
   7 -10   1   30.92    3.15
   6 -10  -1    3.96    1.18
 -10  -6  -1    3.25    1.48
  10   6  -1    1.35    1.03
   6 -10  -1    3.41    0.91
  10   6   1    3.44    1.24
 -10  -6   1    2.77    0.95
   6 -10   1    2.07    1.14
   6 -10   1    2.88    0.89
   5 -10  -1   25.67    2.54
   5 -10  -1   25.41    2.80
  10   5  -1   25.78    2.94
 -10  -5  -1   26.15    3.27
 -10  -5   1   25.73    2.91
  10   5   1   25.58    3.11
   5 -10   1   27.75    2.82
   5 -10   1   29.93    3.15
   4 -10  -1   70.02    5.47
  10   4  -1   72.45    5.69
 -10  -4  -1   65.78    6.02
   4 -10  -1   71.25    5.22
   4 -10   1   75.27    5.82
   4 -10   1   70.76    5.39
 -10  -4   1   67.75    5.57
  10   4   1   69.68    5.98
 -10  -3  -1   16.99    2.50
  10   3  -1   14.90    2.08
   3 -10  -1   17.55    1.90
   3 -10  -1   13.73    1.92
   3 -10   1   17.56    2.24
  10   3   1   16.97    2.42
 -10  -3   1   16.76    2.19
   3 -10   1   16.93    2.02
   2 -10  -1   20.88    2.35
  10   2  -1   22.70    2.53
 -10  -2  -1   27.45    3.10
  10   2   1   21.10    2.84
   2 -10   1   21.60    2.33
   2 -10   1   23.74    2.55
  -2  10   1   18.57    2.27
 -10  -2   1   23.29    2.57
   1 -10  -1   29.83    2.99
 -10  -1  -1   36.71    3.62
  10   1  -1   29.33    3.00
   1 -10   1   27.80    2.80
  -1  10   1   26.28    2.83
   1 -10   1   30.17    2.87
 -10  -1   1   34.07    3.15
  10   1   1   24.05    3.22
   0 -10  -1    0.66    0.41
 -10   0  -1    0.29    0.56
  10   0  -1    0.04    0.37
  10   0   1   -0.97    0.55
 -10   0   1   -0.10    0.46
   1  10  -1   22.96    2.81
 -10   1  -1   33.15    3.36
  -1 -10  -1   30.64    2.83
  10  -1  -1   27.66    2.87
  10  -1   1   27.52    3.27
   1  10   1   26.67    2.84
  -1 -10   1   27.07    2.66
 -10   1   1   32.82    3.05
  10  -2  -1   21.55    2.42
  -2 -10  -1   22.90    2.37
   2  10  -1   18.78    2.46
  -2 -10   1   22.49    2.27
  10  -2   1   21.44    2.77
   2  10   1   21.48    2.46
 -10   2   1   22.22    2.47
 -10   3  -1   14.57    2.21
  10  -3  -1   15.22    1.94
  -3 -10  -1   16.21    1.96
   3  10  -1   14.30    1.94
  10  -3   1   14.92    2.21
 -10   3   1   13.74    1.91
   3  10   1   16.75    2.17
  -3 -10   1   15.24    1.79
  10  -4  -1   58.75    4.93
   4  10  -1   62.69    5.26
  -4 -10  -1   68.76    5.18
 -10   4  -1   62.79    5.44
  10  -4   1   63.67    5.43
  -4 -10   1   67.60    4.92
   4  10   1   70.84    5.56
 -10   4   1   64.49    5.13
  -5 -10  -1   23.23    2.60
   5  10  -1   22.95    2.73
 -10   5  -1   22.17    3.07
  10  -5  -1   22.07    2.42
   5  10   1   25.41    2.97
  10  -5   1   19.81    2.61
 -10   5   1   24.75    2.63
  -5 -10   1   25.12    2.42
  10  -6  -1    2.65    0.83
  -6 -10  -1    4.38    1.34
   6  10  -1    3.15    1.35
 -10   6  -1    3.45    1.17
   6  10   1    4.73    1.58
  -6 -10   1    4.24    0.82
 -10   6   1    4.43    1.21
  10  -6   1    3.64    1.09
 -10   7  -1   25.00    3.07
   7  10  -1   32.03    3.33
  10  -7  -1   26.95    2.74
  -7 -10  -1   29.42    3.18
  -7 -10   1   29.40    2.81
  10  -7   1   27.63    3.02
   7  10   1   27.47    3.36
  10  -8  -1    0.96    0.74
  -8 -10  -1   -0.64    0.68
 -10   8  -1   -0.51    0.70
   8  10  -1    1.39    0.63
  -8 -10   1   -0.57    0.54
   8  10   1   -0.78    0.62
  10  -8   1    0.66    0.72
  -9 -10  -1    4.79    1.53
 -10   9  -1    4.74    1.42
   9  10  -1    5.60    1.56
  10  -9   1    3.38    1.07
  -9 -10   1    3.43    1.10
   9  10   1    1.96    1.06
  10 -10  -1    2.77    1.09
 -10 -10  -1    0.16    0.85
  10  10  -1    1.97    1.43
  10  10   1   -0.43    1.26
 -10 -10   1    0.79    0.88
  10 -10   1   -0.35    0.79
  11  10  -1    3.87    2.29
 -11 -10  -1    5.22    1.67
  11  10   1    6.55    2.08
  10 -11   1    7.03    2.42
  10 -11   1    5.92    1.42
   9 -11  -1   -0.73    0.61
  11   9  -1    0.09    0.83
 -11  -9  -1    0.26    0.78
   9 -11  -1    1.36    0.98
   9 -11   1    0.06    0.85
 -11  -9   1   -0.47    0.83
  11   9   1    0.51    1.26
   9 -11   1   -1.48    1.00
   8 -11  -1    1.72    1.13
  11   8  -1    0.62    1.02
   8 -11  -1    6.23    1.88
 -11  -8  -1    2.55    1.19
   8 -11   1    1.12    1.10
 -11  -8   1    2.14    1.13
  11   8   1    4.64    1.80
  11   7  -1  286.88   18.86
 -11  -7  -1  278.11   18.97
   7 -11  -1  307.99   18.66
   7 -11  -1  283.16   17.91
   7 -11   1  312.58   19.19
 -11  -7   1  268.84   18.38
  11   7   1  295.60   19.14
   6 -11  -1    9.73    1.30
 -11  -6  -1    6.21    1.92
   6 -11  -1    7.04    1.82
  11   6  -1   10.00    1.68
   6 -11   1    6.40    1.51
  11   6   1    6.56    1.90
   6 -11   1    7.66    2.10
 -11  -6   1    7.88    1.53
 -11  -5  -1    0.45    0.79
   5 -11  -1    2.25    0.71
   5 -11  -1    1.25    0.84
  11   5  -1    0.03    0.79
 -11  -5   1    1.68    0.88
  11   5   1    1.61    1.04
   5 -11   1    1.84    1.21
   5 -11   1    1.34    0.91
  11   4  -1   42.48    3.98
   4 -11  -1   36.79    3.67
 -11  -4  -1   35.66    4.16
   4 -11  -1   43.14    3.55
   4 -11   1   40.66    4.07
   4 -11   1   37.20    3.61
  11   4   1   47.56    5.32
 -11  -4   1   37.53    3.80
   3 -11  -1  333.62   20.42
  11   3  -1  349.43   20.99
 -11  -3  -1  320.01   21.42
  11   3   1  332.24   21.39
   3 -11   1  346.02   20.90
   3 -11   1  336.65   20.59
 -11  -3   1  329.09   20.90
   2 -11  -1    0.55    0.55
 -11  -2  -1    1.25    1.18
  11   2  -1    0.90    0.63
 -11  -2   1    2.03    0.74
   2 -11   1    0.46    0.51
   2 -11   1    1.78    0.59
  11   2   1    1.07    0.87
  -2  11   1   -0.03    0.45
  11   1  -1   38.24    3.68
   1 -11  -1   35.36    3.43
 -11  -1   1   47.68    3.95
   1 -11   1   41.00    3.59
   1 -11   1   38.81    3.52
  11   1   1   33.44    3.85
  -1  11   1   31.49    3.56
  11   0  -1    5.28    1.25
   0 -11  -1    1.89    0.69
   0 -11   1    2.79    0.86
 -11   0   1    4.20    1.22
   0  11   1    4.52    1.24
  11   0   1    2.87    1.11
   1  11  -1   34.14    3.71
  11  -1  -1   37.50    3.67
 -11   1  -1   45.70    5.42
  -1 -11  -1   38.91    3.59
 -11   1   1   48.94    4.03
   1  11   1   41.61    3.83
  -1 -11   1   37.52    3.49
  11  -1   1   41.92    4.23
  11  -2  -1   -0.19    0.52
 -11   2  -1    0.24    0.78
  -2 -11  -1    1.28    0.61
   2  11  -1    1.13    0.58
  -2 -11   1    1.03    0.54
   2  11   1    1.14    0.58
 -11   2   1    1.22    0.55
  11  -2   1    2.32    0.90
   3  11  -1  297.20   19.88
 -11   3  -1  355.19   20.44
  -3 -11  -1  336.42   19.68
  11  -3  -1  301.91   19.61
   3  11   1  331.56   20.10
  11  -3   1  315.64   20.35
 -11   3   1  290.78   19.64
  -3 -11   1  316.06   19.38
   4  11  -1   33.06    3.55
 -11   4  -1   35.09    3.76
  -4 -11  -1   35.55    3.39
  11  -4  -1   33.21    3.28
 -11   4   1   30.04    3.30
  -4 -11   1   37.54    3.25
  11  -4   1   36.64    4.07
   4  11   1   35.57    3.76
 -11   5  -1    1.22    0.70
  -5 -11  -1    0.12    0.54
   5  11  -1    0.40    0.62
  11  -5  -1    0.30    0.44
  -5 -11   1    1.20    0.57
  11  -5   1    1.31    0.98
   5  11   1    0.11    0.73
 -11   5   1   -0.23    0.63
  -6 -11  -1    8.08    1.85
 -11   6  -1    7.83    1.99
   6  11  -1    7.03    1.92
  11  -6  -1    5.21    1.39
  11  -6   1    8.54    1.59
   6  11   1    5.48    1.81
  -6 -11   1    5.69    1.33
 -11   6   1    8.04    1.52
   7  11  -1  267.96   17.19
  11  -7  -1  251.26   16.69
  -7 -11  -1  272.39   18.01
 -11   7  -1  249.39   16.99
   7  11   1  265.09   17.38
  11  -7   1  230.91   16.54
  -7 -11   1  277.41   16.38
 -11   8  -1    2.99    1.38
   8  11  -1    2.64    0.88
  11  -8  -1    3.49    1.02
  11  -8  -1    2.29    1.17
  -8 -11  -1    2.71    1.18
  -8 -11   1    3.22    0.99
  11  -8   1    1.39    0.91
   8  11   1    1.41    1.49
   9  11  -1   -0.80    0.73
 -11   9  -1   -1.22    0.73
  -9 -11  -1   -0.70    0.77
  11  -9  -1   -0.84    0.52
  11  -9   1    0.88    0.82
 -10 -11  -1    4.76    1.57
  10  11  -1    9.98    1.79
  11 -10  -1    5.16    1.87
  10  11   1    7.45    2.37
  11 -10   1    7.24    1.41
 -11 -11  -1  158.69   11.77
  11 -11  -1  159.67   11.72
  11 -11   1  159.18   12.13
  11  11   1  154.44   12.08
  11 -11   1  158.25   11.25
 -12 -11  -1    2.48    1.43
  11 -12  -1   -0.65    1.75
  12  11   1    5.60    2.39
  11 -12   1    4.35    1.42
  11 -12   1    0.92    2.10
  10 -12  -1   -0.84    1.41
 -12 -10  -1    0.71    1.33
  10 -12   1    1.40    1.14
  10 -12   1    0.08    1.49
  12  10   1    4.36    1.63
   9 -12  -1    0.49    1.45
 -12  -9  -1    2.94    1.32
   9 -12   1    1.15    1.00
   9 -12   1    2.75    1.27
   8 -12  -1    3.50    1.25
   8 -12  -1    1.31    1.08
 -12  -8  -1    3.47    1.83
  12   8  -1    5.71    1.40
   8 -12   1    3.70    1.21
  12   8   1    5.81    1.79
   8 -12   1    3.33    1.59
   7 -12  -1   36.31    3.68
 -12  -7  -1   28.99    3.72
   7 -12  -1   26.45    3.37
  12   7  -1   29.60    3.65
 -12  -7   1   26.74    3.33
   7 -12   1   32.65    3.88
   7 -12   1   25.40    3.18
  12   7   1   34.89    4.08
  12   6  -1   46.57    4.35
   6 -12  -1   41.37    3.69
   6 -12  -1   41.62    4.12
 -12  -6  -1   34.66    4.30
   6 -12   1   43.47    4.47
  12   6   1   41.76    4.44
 -12  -6   1   38.39    4.01
   6 -12   1   48.21    5.32
   5 -12  -1   16.55    3.71
 -12  -5  -1   16.87    2.83
  12   5  -1   20.99    3.24
   5 -12  -1   18.36    2.22
   5 -12   1   15.98    2.36
   5 -12   1   19.72    2.66
  12   5   1   18.52    2.89
 -12  -5   1   18.30    2.41
 -12  -4  -1    2.39    1.29
  12   4  -1    1.91    0.94
   4 -12  -1    3.61    1.13
   4 -12  -1    2.90    1.19
  12   4   1    3.02    1.31
   4 -12   1    0.70    1.03
   4 -12   1    2.83    1.08
   3 -12  -1    5.05    1.34
  12   3  -1    5.09    1.41
 -12  -3  -1    5.23    1.64
   3 -12  -1    6.77    1.32
   3 -12   1    6.16    1.58
  12   3   1    5.68    1.53
   3 -12   1    8.26    1.49
 -12  -3   1    4.71    1.30
 -12  -2  -1   38.24    4.07
  12   2  -1   36.48    3.69
   2 -12  -1   31.98    3.42
  12   2   1   37.36    4.15
 -12  -2   1   42.12    3.80
   2 -12   1   35.70    3.56
   2 -12   1   32.50    3.45
 -12  -1  -1    3.32    1.33
  12   1  -1    3.56    1.26
   1 -12  -1    1.18    0.73
   1 -12   1    2.06    0.92
   1 -12   1    1.36    0.83
 -12  -1   1    1.36    0.77
  12   1   1    4.33    1.39
  -1  12   1    0.43    0.50
  12   0  -1    1.70    0.64
 -12   0  -1    1.97    0.96
  12   0   1    1.26    0.85
  12  -1  -1    3.24    0.95
 -12   1  -1    3.54    1.31
  -1 -12  -1    2.00    0.80
  12  -1   1    4.56    1.39
  -1 -12   1    2.67    1.00
 -12   1   1    3.05    1.13
   1  12   1    2.12    0.95
   2  12  -1   24.91    3.23
  -2 -12  -1   28.97    3.13
  12  -2  -1   30.85    3.31
 -12   2   1   40.34    3.61
   2  12   1   29.33    3.38
  12  -2   1   34.57    3.76
  -2 -12   1   32.59    3.12
  -3 -12  -1    5.38    1.45
   3  12  -1    3.19    1.29
 -12   3  -1    5.70    1.76
  12  -3  -1    4.62    1.42
  -3 -12   1    4.57    1.15
  12  -3   1    4.77    1.42
 -12   3   1    4.45    1.18
   3  12   1    5.04    1.57
  12  -4  -1    2.73    0.92
 -12   4  -1    2.41    1.22
  -4 -12  -1    3.42    1.27
   4  12  -1    2.11    0.99
   4  12   1    1.06    0.97
  -4 -12   1    1.78    0.83
  12  -4   1    3.29    1.13
 -12   4   1    0.56    1.35
  -5 -12  -1   16.13    2.26
  12  -5  -1   16.10    2.61
 -12   5  -1   18.39    2.67
   5  12  -1   16.37    2.49
   5  12   1   13.50    2.55
  12  -5   1   12.39    2.24
 -12   5   1   12.02    2.20
  -5 -12   1   16.61    2.07
   6  12  -1   34.35    3.92
  12  -6  -1   30.39    3.31
 -12   6  -1   35.27    4.02
 -12   6   1   36.65    3.71
  12  -6   1   36.22    3.78
  -6 -12   1   38.64    3.43
   6  12   1   28.91    3.83
  12  -7  -1   25.41    2.74
  -7 -12  -1   23.05    3.02
 -12   7  -1   23.58    3.24
   7  12  -1   25.46    3.47
  -7 -12   1   23.14    2.74
  12  -7   1   29.97    3.31
   7  12   1   19.48    3.31
 -12   8  -1    3.48    1.26
  12  -8  -1    3.60    1.02
   8  12  -1    5.31    1.88
  -8 -12  -1    4.77    1.66
   8  12   1    1.15    1.46
  12  -8   1    5.70    1.46
  -8 -12   1    2.91    1.15
  -9 -12  -1    2.68    1.21
 -12   9  -1    0.43    1.19
   9  12   1    2.83    1.72
  12 -10  -1    2.35    2.28
  12 -10   1    8.22    1.37
  10  12   1    5.20    1.28
 -11 -12  -1    1.96    1.64
  12 -11   1    2.24    2.12
  11  12   1    2.32    0.99
  12 -11   1    4.26    1.03
 -12 -12  -1    4.30    1.60
  12 -12   1    2.97    1.31
  12 -12   1   -1.20    2.19
  12  12   1   -0.17    1.24
  13  11   1   14.51    3.35
  11 -13   1   15.63    2.92
  11 -13   1   14.31    3.56
 -13 -10  -1    6.86    1.85
  10 -13   1    4.76    2.18
   9 -13  -1    4.53    1.91
 -13  -9  -1    5.63    2.10
   9 -13   1    5.72    1.63
   9 -13   1   12.70    3.07
   8 -13  -1    8.82    2.83
 -13  -8  -1    5.86    1.77
   8 -13   1    5.30    1.71
  13   8   1   10.47    2.29
   8 -13   1    6.75    2.16
 -13  -7  -1    1.07    1.37
   7 -13  -1    2.95    1.42
   7 -13  -1    2.92    0.97
  13   7   1    2.10    1.35
   7 -13   1    4.18    1.37
   7 -13   1    0.93    1.41
   6 -13  -1   14.08    1.93
  13   6  -1   13.97    2.40
   6 -13  -1   13.30    2.20
   6 -13   1   15.29    3.28
   6 -13   1   11.69    2.20
  13   6   1   15.30    2.57
  13   5  -1    0.88    0.78
 -13  -5  -1    3.62    1.25
   5 -13   1    0.94    1.23
   5 -13   1    2.27    1.11
  13   5   1    2.54    1.09
 -13  -5   1    2.76    0.95
  13   4  -1    4.55    1.16
   4 -13  -1    4.28    1.02
 -13  -4  -1    1.84    1.51
   4 -13  -1    2.23    0.91
   4 -13   1    5.38    1.65
  13   4   1    2.99    1.41
   4 -13   1    2.63    1.20
 -13  -4   1    4.95    1.28
   3 -13  -1   -0.65    0.62
 -13  -3  -1   -0.69    0.70
   3 -13  -1    0.50    0.62
 -13  -3   1    0.60    0.70
   3 -13   1   -0.08    0.72
  13   3   1   -0.86    0.85
   3 -13   1    0.59    0.84
   2 -13  -1   10.13    2.21
  13   2  -1    8.07    1.85
 -13  -2  -1    5.69    1.86
   2 -13   1    6.31    1.70
 -13  -2   1    3.88    1.26
   2 -13   1    7.18    1.74
  13   2   1    5.54    1.78
 -13  -1  -1    3.49    1.36
   1 -13  -1    1.94    0.96
  13   1  -1    5.31    1.61
  13   1   1    4.37    1.54
  -1  13   1    1.38    0.85
   1 -13   1    2.84    1.16
   1 -13   1    2.55    0.98
 -13  -1   1    3.66    1.31
  13   0  -1    2.87    1.20
 -13   0  -1    2.73    1.32
  13   0   1    2.45    1.29
   0 -13   1    2.72    0.97
 -13   0   1    2.38    0.91
   0  13   1    1.53    1.11
   0 -13   1    1.12    0.67
 -13   1  -1    2.98    1.16
  13  -1  -1    3.26    1.26
  -1 -13   1    5.44    1.04
   1  13   1    1.57    1.07
 -13   1   1    5.55    1.47
  13  -1   1    4.80    1.47
  -2 -13  -1    4.59    1.37
 -13   2  -1    8.36    2.21
   2  13  -1    5.71    1.64
  13  -2  -1    7.58    1.49
  13  -2   1    6.82    1.90
   2  13   1    6.04    1.66
  -2 -13   1    8.22    1.84
 -13   2   1    4.75    1.38
   3  13  -1    1.77    0.74
 -13   3  -1   -0.77    0.66
  -3 -13  -1    0.01    0.64
  13  -3  -1   -0.81    0.65
 -13   3   1   -1.15    0.82
  13  -3   1    0.73    1.02
  -3 -13   1    1.30    0.67
 -13   4  -1    4.90    1.69
  13  -4  -1    3.21    1.11
  -4 -13  -1    4.02    1.32
   4  13  -1    4.66    1.26
  -4 -13   1    3.32    0.91
  13  -4   1    4.65    1.51
 -13   4   1    6.63    1.27
   5  13  -1    0.27    0.94
 -13   5  -1    1.04    1.02
  13  -5  -1    1.39    0.74
  -5 -13  -1    0.67    1.22
  -5 -13   1   -0.43    0.87
  13  -5   1    3.01    1.14
 -13   5   1    0.23    0.94
  13  -6  -1   11.10    1.87
   6  13  -1   10.97    2.92
  -6 -13  -1   10.63    2.33
 -13   6  -1   13.40    2.95
  -6 -13   1   13.21    1.81
   6  13   1   11.37    2.62
  13  -6   1   11.97    2.24
  -7 -13  -1    1.29    1.03
 -13   7  -1    0.36    1.42
   7  13  -1    2.92    1.04
  -7 -13   1    2.31    0.90
  13  -7   1    3.87    1.33
   7  13   1    2.23    0.96
   8  13  -1   11.52    2.99
 -13   8  -1    8.57    2.71
  -8 -13  -1    8.84    1.78
   8  13   1    5.76    1.97
  13  -8   1    9.59    1.91
 -13   9  -1    7.19    2.04
   9  13   1    5.55    1.71
  13  -9   1    4.49    1.52
 -10 -13  -1   12.68    3.56
  10  13   1   15.15    2.69
 -11 -13  -1   22.67    3.35
  11  13   1   18.84    4.15
  10 -14   1    9.86    3.62
  10 -14   1    6.26    2.18
   9 -14   1    3.33    1.77
  14   9   1    3.76    1.81
 -14  -8  -1    2.98    1.75
   8 -14   1    1.32    1.65
   8 -14   1    5.82    1.48
  14   8   1    4.68    1.77
 -14  -7  -1    2.42    1.58
   7 -14  -1    1.50    1.63
   7 -14   1    0.17    0.94
   6 -14  -1    0.86    1.33
   6 -14  -1    3.25    0.98
   6 -14   1    2.21    1.29
   6 -14   1    2.17    1.40
  14   6   1    4.32    1.52
   5 -14  -1   -1.41    1.02
 -14  -5  -1   -0.86    1.05
   5 -14   1   -1.09    0.92
   5 -14   1    0.99    0.95
  14   5   1   -1.13    0.91
 -14  -4  -1    0.38    1.19
   4 -14  -1    1.57    0.73
   4 -14   1    2.41    1.32
   4 -14   1    1.63    0.97
  14   4   1    0.90    1.04
   3 -14  -1    1.14    1.09
  14   3  -1    0.27    1.12
 -14  -3  -1    1.65    1.38
   3 -14   1    0.91    0.99
  14   3   1    2.77    1.28
   3 -14   1    1.44    1.19
   2 -14  -1   11.43    2.40
 -14  -2  -1   12.91    2.91
  14   2  -1   11.44    1.99
   2 -14   1    9.88    2.23
  14   2   1   12.91    2.77
   2 -14   1   13.80    2.20
   1 -14  -1   43.88    4.30
  14   1  -1   50.92    4.54
  -1  14   1   35.72    4.20
   1 -14   1   44.93    4.29
  14   1   1   48.65    4.88
   1 -14   1   43.12    4.17
 -14   0  -1    0.73    0.92
   0 -14  -1   -0.92    0.64
  14   0  -1    0.77    0.83
  14   0   1    1.69    1.11
   0 -14   1    0.48    0.64
   0  14   1   -0.04    0.77
   0 -14   1   -0.72    0.72
 -14   0   1    0.75    1.21
 -14   1  -1   55.01    5.19
  -1 -14  -1   40.69    4.17
  14  -1  -1   48.78    4.51
  14  -1   1   49.77    4.86
  -1 -14   1   43.19    4.20
   1  14   1   36.17    4.41
  14  -2  -1   10.44    1.89
   2  14  -1    6.72    2.14
  -2 -14  -1    9.19    1.79
 -14   2  -1   11.90    2.71
  14  -2   1   12.03    2.14
  -2 -14   1    8.98    1.77
   2  14   1   11.35    2.04
  14  -3  -1    0.93    0.93
 -14   3  -1    1.02    1.05
  -3 -14  -1    1.96    0.76
   3  14  -1    1.55    0.87
  14  -3   1    2.54    1.10
  -3 -14   1    2.26    1.11
   3  14   1    1.48    1.08
   4  14  -1    0.08    0.83
 -14   4  -1   -0.86    1.06
  -4 -14  -1    0.25    0.89
   4  14   1   -1.19    0.98
  -4 -14   1   -0.13    0.70
  14  -4   1    1.44    1.22
  -5 -14  -1   -0.48    1.02
   5  14  -1    2.52    1.24
  14  -5   1    1.22    1.03
  -5 -14   1    0.75    0.82
   5  14   1    1.48    1.05
  -6 -14  -1    1.67    1.00
 -14   6  -1    1.59    1.43
   6  14  -1    3.08    1.48
  -6 -14   1    2.18    0.99
  14  -6   1    1.06    1.33
  -7 -14  -1    5.89    1.76
 -14   7  -1    3.54    1.79
   7  14   1    3.18    1.92
  -8 -14  -1    3.99    1.10
 -14   8  -1    2.65    1.53
   8  14   1    1.76    1.60
  14  -8   1    0.51    1.45
  -9 -14  -1    6.99    2.26
  14  -9   1    7.44    2.07
   9  14   1    3.49    1.80
 -10 -14  -1    8.35    2.25
  11  14   1   40.03    5.76
   9 -15   1   26.40    3.45
   9 -15   1   16.75    4.03
   8 -15   1   16.84    4.08
   8 -15   1   12.59    3.32
   7 -15   1   52.82    5.75
   7 -15   1   43.80    4.90
  15   7   1   59.05    5.81
 -15  -6  -1   20.22    3.40
  15   6   1   23.42    3.59
   6 -15   1   23.33    3.11
 -15  -5  -1    1.24    1.22
   5 -15  -1   -1.41    1.23
   5 -15   1    0.90    1.31
  15   5   1    2.58    1.37
   4 -15  -1   19.65    2.53
 -15  -4  -1   19.53    3.29
   4 -15  -1   13.95    2.87
  15   4   1   20.91    3.09
   4 -15   1   20.59    2.84
   4 -15   1   14.95    2.78
 -15  -3  -1   17.74    3.22
   3 -15  -1   22.15    2.57
   3 -15  -1   12.57    2.61
  15   3   1   26.35    4.06
   3 -15   1   15.12    2.60
   3 -15   1   18.62    2.98
 -15  -2  -1    4.82    2.04
   2 -15  -1    2.22    1.18
   2 -15  -1    4.45    1.03
   2 -15   1    4.33    1.99
  15   2   1    2.70    1.40
   2 -15   1    3.00    1.45
   1 -15  -1    5.61    1.74
 -15  -1  -1    7.45    2.15
   1 -15   1    5.48    2.03
   1 -15   1    5.62    1.78
   0 -15  -1    2.47    1.21
 -15   0  -1   -0.36    1.23
   0  15   1   -0.01    0.89
   0 -15   1   -0.75    0.75
   0 -15   1    1.54    1.14
  15   0   1    0.33    1.14
 -15   1  -1    4.75    1.67
  -1 -15  -1    4.49    1.54
  -1 -15   1    5.81    1.76
  15  -1   1    7.72    2.18
  -2 -15  -1    4.24    1.62
  15  -2   1    6.22    2.25
  -2 -15   1    3.54    1.40
 -15   3  -1   17.84    2.96
   3  15  -1   13.04    2.70
  -3 -15  -1   16.07    2.64
  -3 -15   1   20.51    2.71
   3  15   1   25.54    5.70
  15  -3   1   15.74    3.58
  -4 -15  -1   17.71    2.69
 -15   4  -1   21.49    3.27
   4  15  -1   12.52    3.09
  -4 -15   1   17.66    2.52
  15  -4   1   17.72    2.83
   4  15   1   19.70    3.92
  -5 -15  -1   -1.39    1.22
 -15   5  -1   -0.32    1.39
   5  15   1   -0.85    1.28
  15  -5   1    2.29    1.36
 -15   6  -1   20.81    3.48
  -6 -15  -1   17.18    2.76
   6  15   1   23.40    4.68
  15  -6   1   16.48    2.86
  -7 -15  -1   43.10    4.97
   7  15   1   43.57    5.44
  15  -7   1   49.38    7.24
  -8 -15  -1    7.89    2.71
   8  15   1   13.57    3.20
  -9 -15  -1   21.56    4.03
   8 -16   1   72.37    6.46
   7 -16   1    5.23    1.40
   7 -16   1    2.76    2.46
   6 -16   1   98.02    8.93
   6 -16   1   79.89    7.08
   5 -16   1    4.77    2.80
   5 -16   1    3.16    1.53
   4 -16  -1   -1.83    1.69
   4 -16   1    1.95    1.25
   4 -16   1    0.90    2.12
  16   4   1    6.58    2.50
   3 -16   1    7.01    2.42
   3 -16   1    7.93    2.36
   2 -16  -1  222.62   15.68
   2 -16  -1  225.34   16.64
  16   2   1  256.84   16.59
   2 -16   1  220.27   15.74
   2 -16   1  239.51   15.84
 -16  -1  -1    4.27    1.89
   1 -16   1    2.37    1.33
   1 -16   1    2.55    1.54
  16   1   1    3.11    1.74
   0 -16  -1    0.17    1.15
 -16   0  -1   -2.15    1.33
  16   0   1    1.94    1.45
   0 -16   1   -2.39    1.62
   0 -16   1    1.26    1.04
   0  16   1    1.10    0.96
 -16   1  -1    5.73    2.21
  16  -1   1    3.33    1.77
  -1 -16   1    1.96    1.32
   1  16   1    1.47    1.18
  -1 -16   1    0.35    1.44
  -2 -16  -1  216.74   14.59
  16  -2   1  197.27   14.89
  -2 -16   1  220.41   14.44
  -3 -16  -1    5.83    1.97
   3  16   1    4.08    1.78
  16  -3   1    8.57    2.16
  -4 -16  -1    1.38    1.41
   4  16   1   -1.89    1.17
  -5 -16  -1    1.87    1.27
  -6 -16  -1   58.73    6.13
   6  16   1   60.12    6.39
  -7 -16  -1    2.82    2.84
  -8 -16  -1   45.50    6.13
   8  16   1   64.19    7.00
   4 -17   1    5.92    1.68
   4 -17   1    7.54    2.14
   3 -17   1    5.65    1.84
   3 -17   1    1.42    1.76
   2 -17   1   12.87    2.42
   1 -17   1    4.87    1.74
   0 -17  -1    2.53    2.44
   0 -17   1   12.76    2.52
   1  17   1    5.78    1.74
  -2 -17  -1   -0.77    1.78
   2  17   1    2.37    1.57
  -4 -17  -1    0.18    3.38
   1   0  -2    0.14    0.09
   0   1  -2    0.06    0.15
   0  -1  -2    0.64    0.38
  -1   0  -2    0.03    0.15
   1   0   2   -0.14    0.24
   0  -1   2    0.13    0.21
  -1   0   2    0.04    0.09
   0   1   2    0.32    0.20
   1  -1  -2   16.99    1.25
  -1  -1  -2   15.27    1.56
  -1   1  -2   19.64    1.49
  -1   1   2   20.01    1.21
   1  -1   2   15.05    1.61
   1   1   2   15.05    1.52
  -1  -1   2   15.55    1.34
   1  -2  -2    2.82    0.53
  -2  -1  -2    3.16    0.80
  -1   2  -2    3.85    0.54
  -1   2   2    3.67    0.43
   1  -2   2    3.66    0.71
   2   1   2    4.37    0.72
   0  -2  -2    2.39    0.62
   0   2  -2    2.15    0.36
  -2   0  -2    2.21    0.62
   0   2   2    2.53    0.43
   0  -2   2    2.47    0.60
   2   0   2    3.46    0.92
  -1  -2  -2    5.33    0.83
  -2   1  -2    2.99    0.59
   1   2   2    4.31    0.67
  -1  -2   2    3.70    0.55
  -1  -2   2    3.62    0.48
   2  -1   2    4.20    0.74
  -2  -2  -2    0.38    0.33
   2  -2  -2    0.11    0.15
  -2   2  -2    0.41    0.24
  -2   2   2    0.00    0.10
   2  -2   2    0.19    0.34
  -2  -2   2    0.08    0.16
   2   2   2   -0.17    0.16
  -2  -2   2    0.19    0.12
   2  -3  -2   16.62    1.36
  -2   3  -2   18.01    1.57
  -3  -2  -2   13.44    1.79
  -3  -2   2   17.17    1.17
  -2   3   2   15.67    1.26
  -3  -2   2   17.72    1.19
   3   2   2   15.41    1.77
   2  -3   2   15.76    1.68
  -1   3  -2    0.86    0.32
  -3  -1  -2    0.49    0.37
   1  -3  -2    1.06    0.33
   1  -3   2    0.18    0.28
   3   1   2    0.96    0.51
  -1   3   2    0.67    0.24
   0  -3  -2    0.49    0.28
   0  -3   2   -0.01    0.18
   0  -3   2    0.29    0.23
   3   0   2    0.08    0.33
   0   3   2   -0.11    0.10
  -3   1  -2    0.96    0.44
  -1  -3  -2    0.58    0.43
   1   3   2    1.28    0.42
   3  -1   2    0.56    0.45
  -1  -3   2    0.48    0.23
  -1  -3   2    0.94    0.36
   3  -2  -2   16.92    1.07
   3  -2  -2   16.40    1.14
  -3   2  -2   17.47    1.68
  -2  -3  -2   13.95    1.74
  -2  -3   2   17.53    1.35
  -2  -3   2   15.55    1.25
   3  -2   2   14.99    1.80
   2   3   2   15.89    1.65
  -3  -3  -2   23.94    2.63
   3  -3  -2   31.31    2.02
   3  -3  -2   29.91    1.89
  -3  -3   2   29.03    1.95
   3   3   2   25.18    2.49
   3  -3   2   27.65    2.57
  -3  -3   2   28.72    1.99
   3  -4  -2   13.77    1.21
   4   3  -2   11.25    1.14
   3  -4  -2   12.54    1.06
   3  -4   2   12.40    1.52
   4   3   2   12.10    1.63
  -4  -3   2   13.26    1.10
   2  -4  -2    0.18    0.21
  -2   4  -2    0.05    0.16
   2  -4   2    0.40    0.31
  -2   4   2    0.25    0.18
  -4  -2   2    0.12    0.15
   4   2   2   -0.09    0.33
   1  -4  -2   19.68    1.67
   4   1   2   15.74    2.03
  -1   4   2   19.39    1.54
   1  -4   2   18.06    1.72
   0  -4  -2  351.09   19.58
   4   0   2  286.51   20.00
   0  -4   2  337.49   19.39
   0   4   2  346.58   19.31
   0  -4   2  332.51   19.42
  -1  -4  -2   18.78    1.91
   4  -1   2   16.18    2.09
  -1  -4   2   17.79    1.70
  -1  -4   2   19.45    1.61
   1   4   2   21.59    1.81
  -2  -4  -2   -0.03    0.27
  -4   2  -2   -0.08    0.20
   4  -2  -2    0.29    0.11
   4  -2  -2    0.08    0.14
  -2  -4   2    0.12    0.20
   2   4   2    0.31    0.28
   4  -2   2    0.16    0.40
  -2  -4   2    0.18    0.13
   4  -3  -2   12.16    1.05
   4  -3  -2   13.24    1.01
  -4   3  -2   12.67    1.51
  -3  -4   2   13.50    1.14
   4  -3   2   11.70    1.61
   3   4   2   11.60    1.52
   4   4  -2   48.02    3.53
  -4   4  -2   54.62    3.92
   4  -4  -2   53.51    3.43
  -4  -4  -2   47.44    4.24
   4  -4  -2   49.53    3.24
   4   4   2   46.02    3.98
   4  -4   2   52.14    4.03
   4  -5  -2   67.04    4.36
  -5  -4  -2   61.59    5.23
  -4   5  -2   65.21    4.68
   4  -5  -2   59.97    4.45
  -5  -4   2   68.39    4.29
   5   4   2   58.84    4.94
   4  -5   2   63.94    4.79
  -5  -3  -2    4.35    1.39
   5   3  -2    4.00    0.62
  -3   5  -2    4.74    0.81
   3  -5  -2    4.72    0.73
   3  -5   2    5.60    1.16
   5   3   2    4.01    0.99
  -5  -2  -2    9.05    1.58
   2  -5  -2   11.51    1.22
   5   2  -2   11.51    0.99
  -2   5   2   11.27    1.16
   5   2   2   11.77    1.73
  -5  -2   2    9.80    1.00
   2  -5   2   12.17    1.41
  -5  -1  -2   62.20    4.93
   1  -5  -2   64.17    4.25
   5   1  -2   63.25    3.68
   1  -5   2   59.88    4.29
  -5  -1   2   56.95    3.68
   1  -5   2   61.56    4.41
   5   1   2   56.31    4.89
  -1   5   2   63.62    4.36
   0  -5  -2    0.23    0.25
  -5   0  -2   -0.04    0.35
   0  -5   2    0.28    0.22
   5   0   2   -0.02    0.46
   0  -5   2    0.37    0.22
   0   5   2   -0.04    0.19
  -1  -5  -2   64.50    4.57
  -5   1  -2   56.51    4.68
   1   5   2   68.05    4.44
  -1  -5   2   61.65    4.22
  -1  -5   2   61.90    4.26
   5  -1   2   62.17    5.07
   5  -2  -2   12.35    0.95
  -5   2  -2   10.80    1.49
   5  -2  -2   10.12    0.96
  -2  -5  -2   12.13    1.53
   5  -2   2    8.92    1.56
  -2  -5   2   11.73    1.31
  -2  -5   2   11.71    1.26
   2   5   2   10.19    1.35
   5  -3  -2    4.53    0.57
  -5   3  -2    4.84    0.94
  -3  -5   2    4.14    0.59
   3   5   2    5.04    1.13
   5  -3   2    4.17    1.08
   5  -4  -2   67.14    4.20
   5  -4  -2   63.81    4.24
   4   5  -2   55.31    4.66
  -4  -5  -2   56.93    4.92
  -5   4  -2   67.46    4.79
   4   5   2   63.22    4.85
   5  -4   2   60.10    4.81
  -4  -5   2   61.56    4.11
  -5  -5  -2  656.14   39.59
   5  -5  -2  647.19   38.19
   5  -5  -2  713.65   38.53
  -5   5  -2  690.41   39.03
   5   5  -2  661.63   38.63
  -5  -5   2  699.09   38.39
   5  -5   2  659.45   39.10
   5   5   2  622.98   39.21
  -6  -5  -2   43.68    4.37
   5  -6  -2   46.11    3.30
  -5   6  -2   50.89    3.94
   6   5  -2   46.79    3.60
   5  -6  -2   46.96    3.58
   5  -6   2   48.61    3.96
   6   5   2   44.12    4.11
  -6  -5   2   47.73    3.48
  -4   6  -2   18.68    2.00
   4  -6  -2   19.12    1.86
  -6  -4  -2   20.30    2.58
   6   4  -2   19.99    1.83
   4  -6  -2   21.43    1.74
  -6  -4   2   20.37    1.85
   4  -6   2   19.05    2.09
   6   4   2   19.08    2.35
   6   3  -2   26.41    2.14
  -6  -3  -2   23.89    2.90
   3  -6  -2   28.19    2.28
   6   3   2   24.82    2.78
   3  -6   2   25.54    2.45
  -6  -3   2   25.36    2.18
  -6  -2  -2    0.37    0.52
   2  -6  -2    0.56    0.31
   6   2  -2    0.32    0.23
   6   2   2    0.38    0.34
   2  -6   2    0.20    0.35
   2  -6   2    0.30    0.47
  -6  -2   2    0.61    0.29
  -2   6   2    0.68    0.63
   1  -6  -2   14.54    1.49
  -6  -1  -2   13.07    1.92
   6   1  -2   14.36    1.12
   1  -6   2   12.86    1.48
   6   1   2   11.51    1.87
   1  -6   2   11.15    1.71
  -6  -1   2   13.37    1.20
  -1   6   2   12.69    1.39
  -6   0  -2   11.34    1.71
   6   0  -2   12.48    1.01
   0  -6  -2   12.52    1.43
   6   0   2   11.43    1.86
   0   6   2   11.54    1.33
  -6   0   2   11.01    0.94
   0  -6   2   12.16    1.39
   0  -6   2   11.45    1.36
   6  -1  -2   12.41    1.13
  -6   1  -2   11.44    1.69
  -1  -6  -2   13.33    1.57
  -1  -6   2   13.71    1.45
   6  -1   2   11.73    1.91
  -1  -6   2   12.79    1.38
   1   6   2   13.48    1.50
   6  -2  -2    0.59    0.23
  -6   2  -2   -0.11    0.31
   6  -2  -2    0.61    0.27
   6  -2   2    1.08    0.63
   2   6   2    0.16    0.35
  -2  -6   2    0.29    0.20
  -2  -6   2    0.74    0.37
   6  -3  -2   23.97    1.98
  -3  -6  -2   23.55    2.53
   6  -3  -2   24.49    2.42
  -6   3  -2   28.15    2.70
  -3  -6   2   25.02    2.06
   3   6   2   26.06    2.50
   6  -3   2   24.89    2.73
   6  -4  -2   19.92    1.78
   6  -4  -2   19.22    1.63
  -6   4  -2   20.33    2.24
  -4  -6  -2   19.30    2.31
   4   6  -2   19.64    2.03
   6  -4   2   16.91    2.19
   4   6   2   20.51    2.24
  -4  -6   2   19.60    1.71
   6  -5  -2   48.35    3.50
   6  -5  -2   46.93    3.25
   5   6  -2   44.17    3.64
  -5  -6  -2   48.37    4.28
  -6   5  -2   46.78    4.00
   6  -5   2   44.69    3.94
   5   6   2   43.78    4.02
  -5  -6   2   45.04    3.34
   6   6  -2   16.35    1.86
  -6  -6  -2   17.08    2.32
   6  -6  -2   17.15    1.59
   6  -6  -2   18.05    1.82
  -6   6  -2   17.83    2.10
   6  -6   2   16.34    2.24
  -6  -6   2   15.72    1.65
   6   6   2   15.17    2.22
  -6   7  -2   16.51    2.07
   6  -7  -2   19.25    2.01
   6  -7  -2   15.96    1.63
   7   6  -2   15.80    1.90
  -7  -6  -2   15.79    2.42
   6  -7   2   16.07    2.07
  -7  -6   2   16.73    1.75
   7   6   2   17.30    2.40
   5  -7  -2    4.97    0.77
   7   5  -2    5.64    0.91
   5  -7  -2    5.21    1.31
  -7  -5  -2    5.63    1.74
  -5   7  -2    5.88    1.13
   7   5   2    3.99    1.18
  -7  -5   2    4.33    0.92
   5  -7   2    5.80    1.35
  -7  -4  -2    9.05    1.75
   7   4  -2    8.94    1.18
   4  -7  -2    8.48    1.06
   4  -7  -2    9.98    1.29
   4  -7   2    9.80    1.36
   7   4   2    8.22    1.57
  -7  -4   2    6.97    1.15
   7   3  -2    1.09    0.42
  -7  -3  -2    0.07    0.55
   3  -7  -2    1.38    0.46
   3  -7   2    0.67    0.48
   3  -7   2    1.15    0.51
   7   3   2    0.78    0.67
  -7  -3   2    0.44    0.45
  -7  -2  -2    3.26    1.15
   7   2  -2    3.10    0.59
   2  -7  -2    4.84    0.83
  -7  -2   2    3.38    0.66
  -2   7   2    3.30    0.89
   7   2   2    3.04    1.00
   2  -7   2    3.44    0.84
   2  -7   2    3.64    1.01
   1  -7  -2    3.95    0.98
   7   1  -2    2.71    0.60
  -7  -1  -2    1.94    0.93
  -1   7   2    1.99    0.64
   1  -7   2    3.76    0.94
  -7  -1   2    2.67    0.62
   1  -7   2    2.07    0.62
   7   1   2    1.69    0.87
  -7   0  -2   -0.14    0.69
   7   0  -2    0.28    0.25
   0  -7  -2    0.44    0.36
   0   7   2    0.17    0.22
   0  -7   2    0.84    0.30
   0  -7   2    0.19    0.26
   7   0   2    0.69    0.58
  -7   0   2    0.91    0.39
  -7   1  -2    1.13    0.73
  -1  -7  -2    2.25    0.72
   7  -1  -2    2.19    0.58
  -1  -7   2    1.91    0.64
   7  -1   2    2.79    1.08
  -1  -7   2    2.05    0.71
  -7   1   2    2.23    0.52
   1   7   2    2.76    0.78
   7  -2  -2    2.68    0.67
  -7   2  -2    2.73    0.91
   7  -2   2    2.63    1.01
  -2  -7   2    3.38    0.79
  -2  -7   2    3.88    0.73
  -7   3  -2    1.15    0.81
   7  -3  -2    0.69    0.38
   7  -3  -2    0.56    0.33
  -3  -7  -2    0.48    0.41
  -3  -7   2    0.28    0.26
   3   7   2    1.35    0.70
   7  -3   2    1.24    0.87
   7  -4  -2    9.92    1.06
  -7   4  -2    9.92    2.00
  -4  -7  -2    9.65    1.58
   4   7  -2    6.98    1.26
   7  -4  -2    8.53    1.15
   4   7   2    9.98    1.51
  -4  -7   2    7.72    1.03
   7  -4   2    9.53    1.68
   5   7  -2    3.45    0.96
  -5  -7  -2    3.51    1.17
  -7   5  -2    3.65    1.07
   7  -5  -2    5.80    0.83
   7  -5  -2    5.49    0.74
   5   7   2    6.34    1.53
  -5  -7   2    4.18    0.77
   7  -5   2    4.55    1.25
   7  -6  -2   15.23    1.85
  -7   6  -2   16.10    2.18
  -6  -7  -2   16.84    2.36
   7  -6  -2   14.50    1.54
   6   7  -2   18.37    2.05
   7  -6   2   17.78    2.19
   6   7   2   17.00    2.99
  -6  -7   2   17.41    1.75
   7  -7  -2   20.56    2.19
   7   7  -2   18.19    2.20
  -7   7  -2   19.91    2.43
  -7  -7  -2   17.31    2.57
   7  -7  -2   19.27    1.85
   7  -7   2   17.36    2.30
   7   7   2   17.77    2.56
  -7  -7   2   19.77    1.97
   8   7  -2   13.69    1.85
   7  -8  -2   16.37    1.67
   7  -8  -2   14.28    1.92
  -8  -7  -2   11.67    2.24
  -7   8  -2   15.02    2.11
   8   7   2   14.49    2.39
   7  -8   2   13.99    2.06
  -8  -7   2   15.38    1.86
   6  -8  -2   -0.04    0.24
   8   6  -2   -0.34    0.41
  -8  -6  -2    0.49    0.68
   6  -8   2    0.43    0.51
   8   6   2    0.14    0.54
  -8  -6   2    0.79    0.48
   5  -8  -2   15.19    1.70
   8   5  -2   12.98    1.57
   5  -8  -2   13.11    1.46
  -8  -5  -2   12.72    2.28
   5  -8   2   15.09    2.50
   8   5   2   15.14    2.19
  -8  -5   2   11.07    1.61
   4  -8  -2   61.61    4.52
   8   4  -2   61.87    4.70
  -8  -4  -2   62.49    5.74
   4  -8  -2   68.28    4.90
   4  -8   2   66.61    5.02
  -8  -4   2   60.03    4.75
   4  -8   2   69.93    5.40
   8   4   2   69.90    5.71
  -8  -3  -2   32.04    3.73
   8   3  -2   35.85    2.91
   3  -8  -2   39.79    3.19
   3  -8   2   34.97    3.17
   8   3   2   36.18    3.75
  -8  -3   2   33.90    3.02
   3  -8   2   36.55    3.44
   2  -8  -2   19.19    2.05
  -8  -2  -2   19.52    2.69
   8   2  -2   19.96    1.85
   8   2   2   21.49    2.66
  -2   8   2   16.55    1.92
   2  -8   2   18.27    2.10
   2  -8   2   17.61    2.05
  -8  -2   2   21.98    2.01
   8   1  -2   15.89    1.55
   1  -8  -2   13.55    1.66
  -8  -1  -2   18.42    2.48
   8   1   2   14.14    2.24
  -8  -1   2   14.76    1.58
  -1   8   2   14.08    1.69
   1  -8   2   16.98    1.89
   1  -8   2   14.80    1.79
  -8   0  -2   57.22    4.74
   0  -8  -2   51.82    3.97
   8   0  -2   51.11    3.64
   8   0   2   47.05    4.63
   0   8   2   51.19    3.92
   0  -8   2   49.61    3.92
  -8   0   2   41.02    3.44
   0  -8   2   48.45    3.87
  -8   1  -2   13.83    2.09
   8  -1  -2   12.87    1.49
   8  -1   2   16.61    2.39
   1   8   2   15.55    1.81
  -8   1   2   14.16    1.43
  -1  -8   2   14.82    1.64
  -1  -8   2   16.16    1.77
  -8   2  -2   20.65    2.51
   8  -2  -2   17.16    1.78
  -2  -8  -2   16.09    2.03
   8  -2   2   22.41    2.60
  -8   2   2   20.31    1.71
  -2  -8   2   18.59    1.83
  -2  -8   2   16.87    1.94
   2   8   2   17.75    2.08
  -3  -8  -2   36.99    3.37
   8  -3  -2   34.84    2.85
  -8   3  -2   36.61    3.57
  -3  -8   2   34.71    2.87
   3   8   2   35.98    3.35
   8  -3   2   32.67    3.55
   4   8  -2   60.45    4.85
   8  -4  -2   55.14    4.24
  -4  -8  -2   61.54    4.99
   8  -4  -2   58.89    4.43
  -8   4  -2   60.04    5.08
   8  -4   2   60.21    5.23
   4   8   2   64.33    5.04
  -4  -8   2   62.06    4.35
   8  -5  -2   13.51    1.65
  -8   5  -2   12.50    1.96
  -5  -8  -2   11.98    1.90
   5   8  -2   11.73    1.75
   8  -5  -2   12.26    1.38
   8  -5   2   13.14    1.93
  -5  -8   2   14.62    1.58
   5   8   2   11.52    1.93
  -8   6  -2    0.23    0.57
   8  -6  -2    0.42    0.51
   8  -6  -2    0.29    0.36
  -6  -8  -2   -0.92    0.53
   6   8  -2    0.43    0.50
   8  -6   2    0.25    0.56
  -6  -8   2    0.79    0.45
   6   8   2    0.80    0.67
   7   8  -2   13.55    2.06
   8  -7  -2   14.05    1.59
  -7  -8  -2   16.56    2.53
   8  -7  -2   18.41    2.15
  -8   7  -2   13.45    2.15
   8  -7   2   13.20    2.11
  -7  -8   2   16.65    1.79
   7   8   2   13.16    2.19
  -8  -8  -2   73.43    6.23
   8  -8  -2   79.06    5.73
   8  -8  -2   73.31    5.32
  -8   8  -2   70.53    5.91
   8   8  -2   66.68    5.75
   8  -8   2   70.09    5.82
   8   8   2   73.31    6.28
  -8  -8   2   68.56    5.31
   8  -9  -2    6.40    1.58
   9   8  -2    7.96    1.88
   8  -9  -2    7.28    1.20
  -9  -8  -2    4.78    1.54
   9   8   2    4.83    1.66
   8  -9   2    7.38    1.77
  -9  -8   2    8.00    1.26
   7  -9  -2    0.43    0.44
   9   7  -2    1.30    0.90
   7  -9  -2    0.34    0.87
  -9  -7  -2    0.90    1.00
   9   7   2    0.60    0.99
  -9  -7   2   -0.20    0.54
   7  -9   2    2.43    0.82
   6  -9  -2    0.07    0.42
   9   6  -2    0.46    0.45
  -9  -6  -2   -0.72    0.51
   6  -9  -2    0.05    0.50
   9   6   2    1.03    0.79
   6  -9   2    0.72    0.78
  -9  -6   2    1.40    0.64
   6  -9   2   -0.47    0.55
   5  -9  -2  179.00   11.14
   9   5  -2  177.77   11.51
  -9  -5  -2  175.60   12.64
   5  -9  -2  187.29   11.62
   9   5   2  179.01   12.45
   5  -9   2  176.91   12.15
   5  -9   2  173.84   11.71
  -9  -5   2  172.64   11.48
   9   4  -2   -0.16    0.44
   4  -9  -2    1.11    0.45
  -9  -4  -2   -0.85    0.56
   4  -9  -2    0.30    0.43
   9   4   2   -0.05    0.73
  -9  -4   2   -0.57    0.45
   4  -9   2    0.28    0.62
   4  -9   2   -0.44    0.48
  -9  -3  -2   21.87    3.03
   9   3  -2   20.29    2.09
   3  -9  -2   18.61    2.17
   9   3   2   24.41    2.97
   3  -9   2   20.10    2.37
   3  -9   2   23.88    2.61
  -9  -3   2   17.74    2.15
   2  -9  -2    2.39    0.81
  -9  -2  -2    3.72    1.29
   9   2   2    2.90    1.06
   2  -9   2    0.35    0.61
  -2   9   2    1.35    0.64
  -9  -2   2    2.21    0.78
   2  -9   2    1.58    0.73
   1  -9  -2    6.20    1.10
  -9  -1  -2    6.78    1.70
   9   1  -2    6.48    1.04
   1  -9   2    5.93    1.33
  -9  -1   2    5.47    1.07
   1  -9   2    5.71    1.13
   9   1   2    8.47    1.51
   9   0  -2    0.50    0.40
  -9   0  -2    0.07    0.52
  -9   0   2   -0.30    0.34
   0  -9   2    1.02    0.58
   0  -9   2    0.39    0.42
   9  -1  -2    5.36    0.98
  -9   1  -2    7.40    1.87
  -1  -9  -2    4.98    1.19
  -1  -9   2    5.52    1.34
   9  -1   2    8.52    1.37
  -1  -9   2    4.63    0.95
  -9   1   2    5.20    0.94
   1   9   2    6.97    1.22
  -9   2  -2    2.08    0.94
   9  -2  -2    1.66    0.66
  -2  -9  -2    2.99    0.95
   2   9   2    1.85    0.69
  -9   2   2    1.84    0.66
  -2  -9   2    1.31    0.66
   9  -2   2    4.04    1.02
  -2  -9   2    1.60    0.59
  -3  -9  -2   22.19    2.48
   9  -3  -2   21.25    2.08
  -9   3  -2   16.79    2.50
   9  -3   2   22.26    2.74
   3   9   2   22.85    2.55
  -3  -9   2   18.83    2.00
   4   9  -2   -0.61    0.46
  -9   4  -2   -0.07    0.65
  -4  -9  -2   -0.20    0.62
   9  -4  -2    0.21    0.39
   4   9   2    0.90    0.75
  -4  -9   2   -0.25    0.27
   9  -4   2    1.34    0.65
  -5  -9  -2  175.91   11.48
   5   9  -2  167.08   11.25
   9  -5  -2  158.79   10.51
   9  -5  -2  169.78   10.85
  -9   5  -2  168.86   11.53
  -5  -9   2  169.95   10.59
   9  -5   2  157.78   11.49
   6   9  -2    0.44    0.56
  -6  -9  -2   -0.98    0.54
  -9   6  -2   -0.10    0.74
   9  -6  -2    0.83    0.36
   9  -6  -2    0.08    0.53
   6   9   2    0.30    0.63
  -6  -9   2    0.69    0.43
   9  -6   2    0.02    0.66
   7   9  -2    1.27    0.65
   9  -7  -2    1.38    0.75
  -9   7  -2   -0.50    0.74
  -7  -9  -2    1.11    0.69
   9  -7  -2    2.02    0.75
   9  -7   2   -0.29    0.68
   7   9   2    1.37    0.68
  -7  -9   2    0.44    0.40
  -8  -9  -2    7.77    2.21
   8   9  -2    5.43    1.59
  -9   8  -2    8.31    2.01
   9  -8  -2    7.12    1.09
   9  -8  -2    6.48    1.52
   8   9   2    7.08    2.00
   9  -8   2    4.74    1.50
  -8  -9   2    6.05    1.16
  -9  -9  -2  144.48   10.87
   9  -9  -2  146.20    9.63
  -9   9  -2  153.74   10.67
   9  -9  -2  158.84   10.33
   9   9  -2  139.05   10.43
   9   9   2  149.68   11.08
   9  -9   2  137.90   10.35
  -9  -9   2  140.42   11.48
 -10  -9  -2   27.03    3.83
   9 -10  -2   31.02    3.27
   9 -10   2   26.99    3.36
  10   9   2   26.43    3.75
 -10  -8  -2    2.79    1.46
   8 -10  -2    5.64    1.59
  10   8  -2    5.09    1.45
   8 -10  -2    4.42    1.01
   8 -10   2    5.28    1.71
  10   8   2    3.24    1.69
   8 -10   2    3.92    1.47
   7 -10  -2    9.33    1.28
 -10  -7  -2    7.08    2.03
   7 -10  -2    5.82    1.53
  10   7  -2    7.49    1.46
 -10  -7   2    6.65    1.48
   7 -10   2    6.26    2.07
  10   7   2    7.90    2.18
  10   6  -2   -0.10    0.67
   6 -10  -2    1.01    0.68
 -10  -6  -2    0.37    1.05
   6 -10  -2    2.43    0.79
   6 -10   2    0.66    0.86
  10   6   2   -0.83    0.70
   6 -10   2    0.93    1.02
 -10  -6   2    0.44    0.77
   5 -10  -2    5.53    1.13
 -10  -5  -2    4.48    1.60
  10   5  -2    7.84    1.44
   5 -10  -2    5.41    1.36
   5 -10   2    6.42    1.58
   5 -10   2    7.46    1.83
 -10  -5   2    7.26    1.29
  10   5   2    6.28    1.79
  10   4  -2   32.10    3.13
 -10  -4  -2   33.45    3.91
   4 -10  -2   33.53    2.93
   4 -10  -2   32.07    3.18
 -10  -4   2   28.55    3.05
  10   4   2   35.63    4.00
   4 -10   2   32.49    3.30
   4 -10   2   36.93    3.59
   3 -10  -2   19.62    2.28
  10   3  -2   18.82    2.18
 -10  -3  -2   19.79    2.99
  10   3   2   17.29    2.86
   3 -10   2   19.14    2.49
 -10  -3   2   22.15    2.35
   3 -10   2   20.57    2.32
 -10  -2  -2    2.73    1.21
   2 -10  -2    3.82    1.13
  -2  10   2    3.25    1.02
  10   2   2    5.93    1.87
 -10  -2   2    6.12    1.21
   2 -10   2    5.09    1.30
   2 -10   2    6.82    1.28
 -10  -1  -2  131.95    9.36
  10   1  -2  116.23    8.03
  10   1   2  111.47    9.10
 -10  -1   2  135.87    8.23
   1 -10   2  105.79    8.15
   1 -10   2  118.11    8.31
 -10   0  -2  322.72   18.30
  10   0  -2  283.60   16.84
   0 -10  -2  278.62   17.06
   0  10   2  253.54   16.95
 -10   0   2  251.29   16.61
  10   0   2  274.53   18.17
   0 -10   2  274.56   17.03
   0 -10   2  257.85   16.86
  10  -1  -2  104.95    7.39
  -1 -10  -2  108.61    7.68
  10  -1   2  114.71    8.66
   1  10   2  101.64    7.64
  -1 -10   2  109.44    7.48
  -1 -10   2  111.02    7.65
  10  -2  -2    6.62    1.14
 -10   2  -2    8.95    2.24
  -2 -10  -2    4.95    1.22
 -10   2   2    6.15    1.26
  -2 -10   2    5.34    1.03
  -2 -10   2    5.85    1.18
  10  -2   2    6.96    1.93
   2  10   2    5.53    1.52
  -3 -10  -2   16.90    2.28
 -10   3  -2   17.52    2.68
  10  -3  -2   18.87    2.05
  -3 -10   2   18.78    1.97
 -10   3   2   17.81    1.98
  10  -3   2   21.84    2.94
   3  10   2   18.01    2.41
  10  -4  -2   32.49    2.87
   4  10  -2   28.17    3.28
  -4 -10  -2   31.07    3.29
 -10   4  -2   32.34    3.52
  10  -4   2   32.96    3.76
  -4 -10   2   33.00    2.92
   4  10   2   33.05    3.56
   5  10  -2    4.83    1.42
 -10   5  -2    5.94    1.65
  -5 -10  -2    4.74    1.30
  10  -5  -2    5.43    1.25
  10  -5  -2    7.19    1.38
   5  10   2    6.03    1.51
  10  -5   2    5.69    1.73
  -5 -10   2    6.91    1.18
  10  -6  -2    0.23    0.41
  10  -6  -2    0.16    0.55
 -10   6  -2    0.25    0.80
  -6 -10  -2   -0.87    0.67
   6  10  -2    2.93    1.39
  10  -6   2    0.52    0.80
  -6 -10   2    1.66    0.65
   6  10   2   -0.18    0.73
 -10   7  -2    7.72    1.70
  -7 -10  -2    5.29    1.55
  10  -7  -2    6.94    1.24
  10  -7  -2    6.75    1.61
   7  10  -2    5.54    1.50
  10  -7   2    4.46    1.44
  -7 -10   2    6.11    1.19
   7  10   2    3.34    1.36
  -8 -10  -2    6.38    1.95
  10  -8  -2    2.05    1.12
   8  10  -2    5.40    1.46
  10  -8  -2    3.64    0.92
 -10   8  -2    3.91    1.56
  10  -8   2    3.15    1.49
   8  10   2    1.75    1.21
 -10   9  -2   25.20    3.34
  -9 -10  -2   24.05    3.33
   9  10   2   27.09    3.63
  10  -9   2   25.00    3.24
 -10 -10  -2   21.09    3.42
  10 -10  -2   20.06    3.00
  10  10   2   21.29    3.81
  10 -10   2   22.41    3.04
  10 -11  -2   10.01    2.44
 -11 -10  -2   11.86    2.83
  10 -11   2    9.92    2.54
  11  10   2   11.35    2.76
  10 -11   2   16.86    2.65
 -11  -9  -2   15.07    2.61
   9 -11  -2    9.10    2.71
  11   9   2   14.66    2.89
   9 -11   2    8.45    3.07
   9 -11   2   11.37    3.13
 -11  -8  -2    4.79    1.82
  11   8   2    7.31    2.22
   8 -11   2    6.26    1.64
   8 -11   2    5.74    2.09
   7 -11  -2    1.87    0.63
 -11  -7  -2    2.75    1.99
   7 -11  -2    2.28    0.94
  11   7   2    2.84    1.54
   7 -11   2   -0.10    1.08
   7 -11   2    2.75    1.42
   6 -11  -2    3.98    1.09
   6 -11  -2    3.96    1.43
 -11  -6  -2    4.38    1.91
  11   6  -2    6.58    1.60
 -11  -6   2    3.16    1.31
  11   6   2    4.39    1.88
   6 -11   2    7.34    1.83
   6 -11   2    4.80    1.17
  11   5  -2    0.02    0.68
   5 -11  -2   -0.56    0.56
 -11  -5  -2   -0.08    1.03
   5 -11  -2   -0.35    0.49
   5 -11   2    1.72    0.87
  11   5   2   -0.89    0.72
   5 -11   2   -1.03    0.72
 -11  -5   2    0.33    0.70
   4 -11  -2    4.98    1.53
   4 -11  -2    4.74    1.23
 -11  -4   2    3.45    1.15
   4 -11   2    5.66    1.68
   4 -11   2    5.35    1.52
  11   4   2    6.23    1.96
   3 -11  -2    0.17    0.45
  11   3  -2   -1.54    0.84
 -11  -3  -2    1.29    1.00
   3 -11   2    0.41    0.79
   3 -11   2   -0.40    0.55
 -11  -3   2    0.57    0.71
  11   2  -2   89.47    6.65
 -11  -2  -2  105.28    8.02
   2 -11   2   88.11    6.84
  11   2   2   92.11    7.79
   2 -11   2   86.84    6.89
   1 -11  -2    7.69    1.46
 -11  -1  -2    9.37    2.18
  11   1  -2    9.63    1.43
  11   1   2    9.75    2.17
  -1  11   2    7.56    1.41
   1 -11   2    6.36    1.60
   1 -11   2    8.19    1.67
  11   0  -2    0.71    0.51
 -11   0  -2   -0.10    0.86
   0  11   2    0.87    0.38
   0 -11   2    0.00    0.52
   0 -11   2    0.47    0.55
  11   0   2    2.79    0.98
  11  -1  -2    9.04    1.40
  -1 -11  -2    7.45    1.73
 -11   1  -2   11.17    2.07
 -11   1   2    6.89    2.39
  -1 -11   2    9.14    1.42
  11  -1   2   10.84    2.44
  -1 -11   2    8.61    1.47
   1  11   2    5.40    1.33
 -11   2  -2   99.84    7.38
  11  -2  -2   79.14    6.09
  -2 -11  -2   86.24    6.53
  -2 -11   2   84.94    6.16
  -2 -11   2   80.03    6.32
  11  -2   2   92.62    7.45
 -11   2   2   73.89    6.05
   2  11   2   86.08    6.67
 -11   3  -2    0.21    0.79
  11  -3  -2   -0.21    0.61
  -3 -11  -2   -0.14    0.54
   3  11   2   -0.73    0.72
 -11   3   2    1.09    0.67
  -3 -11   2    0.37    0.50
  11  -3   2    0.61    1.23
 -11   4  -2    4.64    1.56
  -4 -11  -2    2.35    0.87
   4  11  -2    3.95    1.10
  11  -4  -2    3.14    0.96
   4  11   2    1.98    0.97
  -4 -11   2    3.88    1.08
  11  -4   2    6.51    2.00
  -5 -11  -2    0.54    0.82
   5  11  -2    0.84    0.50
  11  -5  -2    0.92    0.55
   5  11   2    0.51    0.74
  -5 -11   2    0.32    0.52
  11  -5   2   -0.55    0.98
  11  -6  -2    2.87    1.24
   6  11  -2    5.54    1.47
  -6 -11  -2    2.27    1.14
  11  -6  -2    2.62    0.89
 -11   6  -2    2.65    1.46
  -6 -11   2    4.31    1.15
   6  11   2    4.16    1.19
  11  -6   2    0.82    1.33
  11  -7  -2    0.40    0.90
   7  11  -2    0.95    1.29
  -7 -11  -2    0.65    1.13
 -11   7  -2    1.93    1.33
  11  -7   2    0.91    1.20
   7  11   2    2.27    1.34
 -11   8  -2    7.12    2.22
  -8 -11  -2    4.82    1.50
  11  -8  -2    8.97    1.72
  11  -8   2    4.96    1.76
   8  11   2    5.93    1.75
  11  -9  -2   13.94    2.61
 -11   9  -2   10.09    2.54
  -9 -11  -2   10.30    3.63
  11  -9   2   12.29    2.88
 -10 -11  -2   15.63    3.46
  11 -10  -2    9.81    2.63
  11 -10   2   15.64    3.20
  10  11   2   12.62    2.92
  11 -11  -2   -0.37    1.82
 -11 -11  -2   -0.38    1.55
  11 -11   2   -1.58    1.09
  11  11   2   -0.71    1.38
  11 -11   2    0.29    1.80
 -12 -11  -2    0.71    2.39
  12  11   2    1.25    1.41
  11 -12   2    2.92    2.12
  11 -12   2    0.52    1.52
 -12 -10  -2    5.82    2.10
  10 -12   2    2.40    2.05
 -12  -9  -2    3.50    1.79
   9 -12   2    1.25    1.82
  12   9   2    4.05    2.02
   9 -12   2    3.09    1.71
   8 -12  -2    0.25    0.96
 -12  -8  -2    1.66    1.19
  12   8   2   -1.19    1.37
   8 -12   2   -1.23    1.09
   7 -12  -2   21.64    3.06
 -12  -7  -2   23.76    3.57
   7 -12   2   24.52    3.42
  12   7   2   25.61    3.80
   7 -12   2   25.89    3.32
 -12  -6  -2   -0.36    1.10
   6 -12  -2   -0.16    0.98
   6 -12   2    0.51    0.97
   6 -12   2    1.83    1.04
   5 -12  -2   12.74    1.64
 -12  -5  -2    9.27    2.55
   5 -12  -2    9.06    1.86
   5 -12   2   12.90    2.40
  12   5   2    6.92    2.07
   5 -12   2   11.47    1.96
  12   4  -2   15.56    2.23
   4 -12  -2   14.76    2.19
 -12  -4  -2   16.86    3.16
   4 -12  -2   15.98    2.00
   4 -12   2   12.48    2.34
  12   4   2   16.13    2.92
   4 -12   2   14.76    2.20
 -12  -3  -2   12.92    3.61
  12   3  -2   18.00    2.32
   3 -12   2   17.34    2.37
  12   3   2   14.51    2.90
   3 -12   2   18.74    2.37
 -12  -3   2   16.34    2.30
 -12  -2  -2    8.67    2.09
  12   2  -2    7.03    1.62
   2 -12  -2    4.44    1.15
 -12  -2   2    5.11    1.47
   2 -12   2    8.55    1.73
  -2  12   2    2.63    0.98
  12   2   2    6.30    2.11
 -12  -1  -2   21.34    3.13
   1 -12  -2   20.56    2.49
  12   1  -2   22.17    2.49
 -12  -1   2   19.45    2.50
  12   1   2   16.92    3.15
   1 -12   2   19.26    2.45
   1 -12   2   20.57    2.54
  -1  12   2   16.56    2.32
   0 -12  -2    8.20    1.90
 -12   0  -2    6.22    1.63
  12   0  -2   10.11    1.58
  12   0   2    7.41    2.31
 -12   0   2    7.55    1.63
   0  12   2    9.03    1.68
   0 -12   2   10.07    1.68
   0 -12   2   11.98    1.50
  -1 -12  -2   18.58    2.42
 -12   1  -2   22.21    3.11
  12  -1  -2   20.66    2.33
  -1 -12   2   17.52    2.31
  12  -1   2   16.43    3.05
  -1 -12   2   19.02    2.76
   1  12   2   22.79    2.56
 -12   1   2   14.04    2.22
  12  -2  -2    5.12    1.30
 -12   2  -2   10.12    2.52
  -2 -12  -2    5.88    1.45
  -2 -12   2    7.36    1.27
 -12   2   2    3.64    1.22
  -2 -12   2    5.50    1.19
   2  12   2    6.23    1.56
  12  -2   2    6.22    1.95
  -3 -12  -2   17.25    2.36
 -12   3  -2   17.11    3.94
  12  -3  -2   14.82    2.03
   3  12   2   14.38    2.21
  -3 -12   2   17.54    2.10
  12  -3   2   14.95    2.86
 -12   3   2   12.26    1.99
  12  -4  -2   14.72    1.93
  -4 -12  -2   17.05    2.44
 -12   4  -2   14.70    2.61
  12  -4   2    8.29    2.30
   4  12   2   13.98    2.27
  -4 -12   2   13.11    1.86
  -5 -12  -2   11.76    2.21
 -12   5  -2    8.98    2.32
   5  12  -2    9.29    2.32
  12  -5   2    7.87    2.52
   5  12   2   13.43    2.93
  -5 -12   2    8.70    1.59
  -6 -12  -2    1.44    0.74
 -12   6  -2    0.02    0.85
  12  -6  -2    1.96    0.83
   6  12  -2    0.74    0.79
   6  12   2    0.86    0.95
  12  -6   2    1.18    1.31
  -7 -12  -2   22.58    3.15
  12  -7  -2   23.70    3.01
 -12   7  -2   17.41    3.08
   7  12   2   24.19    3.56
  12  -7   2   20.66    3.01
 -12   8  -2   -0.49    1.27
  12  -8  -2   -1.43    1.00
  12  -8   2   -1.24    1.21
   8  12   2   -0.54    1.50
  -9 -12  -2    1.78    1.54
 -12   9  -2    4.00    1.56
  12  -9  -2    3.89    2.02
  12  -9   2    4.32    1.95
   9  12   2    2.27    1.87
 -10 -12  -2    1.85    2.02
  12 -10  -2    3.80    2.69
  10  12   2    4.77    2.21
  12 -10   2    6.05    1.90
  11  12   2    2.27    1.50
  12 -12   2    7.65    4.75
 -13 -10  -2    7.36    2.81
  10 -13   2    6.00    1.80
  10 -13   2    8.77    3.33
 -13  -9  -2  105.06    9.35
  13   9   2  123.29    9.77
   9 -13   2  114.70    8.96
   9 -13   2  114.51    9.34
 -13  -8  -2    3.35    1.82
   8 -13   2    6.87    2.05
   8 -13   2    2.19    1.38
  13   8   2    6.12    1.84
 -13  -7  -2    5.55    1.60
   7 -13  -2    0.64    1.36
   7 -13   2    2.52    1.53
  13   7   2    1.11    2.00
   7 -13   2    0.21    1.44
   6 -13  -2    3.18    1.13
 -13  -6  -2    2.15    1.47
  13   6   2    0.88    1.24
   6 -13   2    0.58    1.38
   6 -13   2    1.53    1.39
   5 -13  -2   64.72    6.11
 -13  -5  -2   63.46    6.55
  13   5   2   66.08    6.43
   5 -13   2   70.87    6.28
   5 -13   2   69.84    6.02
 -13  -4  -2   28.74    3.77
   4 -13   2   20.39    3.02
  13   4   2   23.87    3.49
   4 -13   2   23.46    3.02
 -13  -3  -2   44.00    4.95
   3 -13  -2   37.57    3.91
   3 -13  -2   37.53    3.64
  13   3   2   40.46    4.69
   3 -13   2   37.47    4.04
   3 -13   2   38.79    4.03
   2 -13  -2   11.28    1.89
 -13  -2  -2   10.08    2.55
   2 -13   2    8.01    1.95
  13   2   2    7.99    2.41
   1 -13  -2   32.30    3.23
  13   1   2   24.51    3.83
  -1  13   2   20.55    2.86
   1 -13   2   28.21    3.07
   1 -13   2   29.45    3.34
   0 -13  -2   -0.27    0.73
   0 -13   2    1.11    0.64
   0 -13   2    1.55    0.86
   0  13   2   -0.92    0.64
 -13   1  -2   35.31    4.19
  -1 -13  -2   30.59    3.30
  -1 -13   2   26.50    3.22
  13  -1   2   24.73    3.89
  -1 -13   2   30.48    3.14
   1  13   2   29.75    3.40
 -13   2  -2   13.86    3.05
  -2 -13  -2    8.83    1.98
  13  -2   2    6.54    2.17
   2  13   2   10.60    2.37
  -2 -13   2    7.71    1.81
  -2 -13   2    8.43    2.07
  -3 -13  -2   35.83    3.88
 -13   3  -2   36.31    4.45
  -3 -13   2   36.72    3.62
  13  -3   2   39.53    4.57
   3  13   2   32.89    4.01
  -4 -13  -2   18.15    2.76
 -13   4  -2   21.57    3.06
   4  13   2   16.72    2.73
  13  -4   2   14.97    2.77
  -5 -13  -2   62.25    5.82
 -13   5  -2   66.49    6.21
  13  -5   2   65.72    6.18
   5  13   2   61.92    6.13
  13  -6  -2   -0.13    1.16
 -13   6  -2   -0.14    1.23
  -6 -13  -2    0.67    1.25
  13  -6   2   -2.22    1.30
   6  13   2   -0.06    0.99
 -13   7  -2    1.52    1.44
  13  -7  -2    0.77    1.33
  -7 -13  -2   -0.64    1.17
   7  13   2    2.16    1.55
  13  -7   2    1.61    1.59
 -13   8  -2    0.01    1.56
  -8 -13  -2    2.00    1.70
  13  -8  -2    4.05    1.90
  13  -8   2    4.56    1.68
  -9 -13  -2   92.82    8.32
 -13   9  -2   89.74    8.12
   9  13   2   91.15    8.39
  13  -9   2   86.54    7.82
 -13  10  -2   -2.02    3.98
 -10 -13  -2   -1.69    3.26
  10  13   2    9.02    2.18
 -14  -9  -2    1.19    2.54
  14   9   2   10.50    2.92
  14   8   2   56.54    5.63
   8 -14   2   55.83    5.28
 -14  -7  -2   -1.31    1.56
   7 -14   2   -0.60    1.39
   7 -14   2    2.33    1.86
  14   7   2   -1.37    1.56
 -14  -6  -2   15.66    3.53
   6 -14   2   15.58    2.66
  14   6   2   22.85    3.26
 -14  -5  -2    2.11    1.53
  14   5   2    1.33    1.66
   5 -14   2    0.08    1.35
   5 -14   2    0.15    1.40
   4 -14  -2   40.89    4.43
   4 -14   2   42.90    4.65
  14   4   2   43.97    5.19
   4 -14   2   42.90    4.58
 -14  -3  -2    1.92    1.42
   3 -14  -2    0.84    0.82
   3 -14   2    0.44    1.15
   3 -14   2    1.98    1.00
 -14  -2  -2    0.61    1.64
   2 -14  -2    1.71    1.06
   2 -14   2    0.53    1.10
  14   2   2    0.25    1.37
   2 -14   2    2.15    1.18
 -14  -1  -2    4.49    1.85
   1 -14  -2    2.53    1.07
  14   1   2    0.48    1.58
   1 -14   2    4.05    1.37
   1 -14   2    7.02    1.54
   0 -14  -2  107.86    8.06
   0 -14   2   95.24    7.77
  14   0   2  119.78    9.19
   0 -14   2  102.08    8.04
   0  14   2   86.45    7.77
 -14   1  -2    2.48    1.98
  -1 -14  -2    3.09    1.51
  -1 -14   2    0.61    1.69
  14  -1   2    2.65    1.63
   1  14   2    3.69    1.15
  -2 -14  -2    1.79    1.10
 -14   2  -2    4.32    1.91
   2  14   2    2.91    1.32
  -2 -14   2    2.75    1.02
  14  -2   2    0.87    1.49
 -14   3  -2    3.04    1.26
  -3 -14  -2    0.07    0.97
  -3 -14   2    0.13    1.16
   3  14   2    3.46    1.13
  14  -3   2    1.48    1.45
  -4 -14  -2   40.70    4.52
 -14   4  -2   46.43    5.15
  14  -4   2   39.19    4.86
   4  14   2   41.22    4.54
  -5 -14  -2    2.93    1.47
 -14   5  -2    3.10    1.78
  14  -5   2    2.04    1.28
  -6 -14  -2    5.53    1.89
  14  -6  -2    7.30    2.42
   6  14   2   13.42    2.94
  14  -6   2    7.48    1.98
 -14   7  -2   -1.46    1.63
  14  -7  -2   -0.85    1.63
  14  -7   2   -0.50    1.63
   7  14   2    1.64    1.99
 -14   8  -2   37.67    7.47
   8  14   2   46.71    5.83
  14  -8   2   57.80    5.27
 -14   9  -2    1.32    2.33
  14  -9   2    1.33    1.94
 -15  -8  -2   14.18    5.07
  15   8   2   25.86    3.83
 -15  -7  -2   17.21    4.11
  15   7   2   23.92    4.06
  15   6   2   29.11    3.64
   6 -15   2   29.60    4.69
 -15  -5  -2   15.18    3.92
  15   5   2   10.59    2.62
 -15  -4  -2   79.10    7.16
  15   4   2   63.77    6.79
   4 -15   2   60.42    5.95
 -15  -3  -2   -0.22    1.24
   3 -15   2    1.71    1.14
 -15  -2  -2    0.58    2.04
   2 -15  -2    0.08    1.28
  15   2   2   -0.82    1.47
   1 -15  -2   -0.63    1.21
 -15  -1  -2    1.54    1.30
   1 -15   2    3.17    1.22
  15   1   2    4.96    2.00
   0 -15  -2   -1.43    0.93
 -15   0  -2    0.44    1.20
   0  15   2    0.40    0.78
  15   0   2    2.01    1.47
 -15   1  -2    3.10    1.52
   1  15   2    4.09    1.03
  -1 -15   2    3.57    1.10
  15  -1   2    0.04    1.73
 -15   2  -2   -0.44    1.59
  -2 -15  -2    0.77    1.21
   2  15   2    3.65    1.43
  15  -2   2    3.16    1.79
 -15   3  -2    1.61    1.80
  15  -3   2    0.78    1.56
  -3 -15   2    2.43    1.01
   3  15   2    2.69    1.22
 -15   4  -2   61.57    6.13
  15  -4   2   60.28    5.98
   4  15   2   50.78    5.50
  -5 -15  -2    5.71    2.75
  15  -5   2    6.90    2.41
 -15   6  -2   10.24    3.33
  15  -7   2   25.18    3.46
 -15   8  -2    7.83    3.73
  15  -8   2    8.40    2.50
  16   6   2    6.43    2.12
 -16  -5  -2    5.32    3.06
  16   5   2    5.90    1.91
 -16  -3  -2   34.55    4.84
  16   3   2   41.14    4.59
 -16  -2  -2    7.83    3.21
  16   2   2    7.25    2.25
 -16  -1  -2   -0.40    2.20
 -16   0  -2    3.84    2.31
  16   0   2    4.65    3.28
 -16   1  -2    2.77    2.73
  16  -1   2    3.33    2.41
  16  -2   2   10.73    2.42
 -16   3  -2   32.63    4.56
  16  -3   2   37.86    4.44
 -16   4  -2    0.30    1.92
  16  -6   2    6.35    2.99
   0   0  -3    0.24    0.18
   0   0   3    0.09    0.26
   0   1  -3    1.90    0.41
  -1   0  -3    1.80    0.48
   0  -1  -3    1.85    0.46
   0  -1   3    1.12    0.52
   0   1   3    2.11    0.49
   1   0   3    1.40    0.64
  -1   0   3    1.66    0.31
  -1  -1  -3    0.45    0.29
   1  -1  -3    0.43    0.19
  -1   1  -3    0.40    0.25
  -1  -1   3   -0.06    0.13
  -1   1   3    0.13    0.13
   1   1   3    0.20    0.34
  -1  -1   3    0.24    0.26
   1  -1   3   -0.09    0.38
   1  -2  -3    5.47    0.70
  -1   2  -3    7.76    0.87
  -2  -1  -3    7.74    1.12
  -1   2   3    6.17    0.64
   1  -2   3    6.04    1.19
   2   1   3    5.38    1.07
   0  -2  -3   -0.17    0.25
  -2   0  -3    0.46    0.32
   0  -2   3   -0.67    0.37
   2   0   3   -0.29    0.43
  -2   1  -3    7.70    1.00
  -1  -2  -3    6.33    1.02
  -1  -2   3    5.98    0.68
   2  -1   3    7.05    1.56
   1   2   3    6.44    0.92
  -1  -2   3    4.77    0.86
  -2  -2  -3  125.82    8.54
  -2   2  -3  142.48    8.18
  -2  -2   3  135.96    7.45
   2   2   3  136.97    8.43
   2  -2   3  117.95    8.73
  -2  -2   3  113.55    7.60
  -3  -2  -3    1.32    0.72
  -2   3  -3    1.81    0.49
   2  -3  -3    0.73    0.37
  -2   3   3    1.16    0.31
   2  -3   3    1.19    0.71
   3   2   3    1.57    0.69
  -1   3  -3   42.31    2.90
  -3  -1  -3   37.42    3.35
   1  -3  -3   36.80    2.93
  -1   3   3   42.23    2.69
   3   1   3   40.99    3.55
   1  -3   3   36.33    3.37
  -3   0  -3   16.74    1.81
   0  -3  -3   14.65    1.68
   0  -3   3   15.58    1.77
   0   3   3   16.31    1.43
   0  -3   3   15.05    1.51
   3   0   3   17.72    2.11
  -1  -3  -3   34.00    3.26
  -3   1  -3   42.63    3.27
  -1  -3   3   41.19    2.78
  -1  -3   3   34.46    3.03
   1   3   3   43.14    3.08
   3  -1   3   42.75    3.79
  -3   2  -3    2.19    0.70
  -2  -3  -3    2.10    0.85
  -2  -3   3    1.41    0.57
  -2  -3   3    1.67    0.34
   3  -2   3    2.49    1.06
   2   3   3    1.46    0.63
  -3   3  -3   26.25    2.22
  -3  -3  -3   19.41    2.43
  -3  -3   3   20.78    1.71
   3  -3   3   20.68    2.70
  -3  -3   3   24.98    1.53
   3   3   3   19.42    2.47
   3  -4  -3    8.21    0.71
  -3   4  -3    7.32    1.10
  -4  -3  -3    7.59    1.83
   3  -4  -3    6.33    0.90
   3  -4   3    8.72    1.58
   4   3   3    7.71    1.34
  -2   4  -3    7.55    1.02
   2  -4  -3    5.65    0.94
  -4  -2  -3    5.75    1.45
   2  -4   3    7.72    1.37
   4   2   3    8.04    1.75
  -2   4   3    5.96    0.74
  -4  -1  -3   70.50    5.41
   1  -4  -3   63.88    4.93
  -1   4   3   71.18    4.51
   4   1   3   68.74    5.56
   1  -4   3   73.94    5.29
  -4   0  -3    0.12    0.36
   0  -4  -3   -0.26    0.36
   0   4   3    0.37    0.22
   0  -4   3   -0.15    0.25
   4   0   3   -0.37    0.63
   0  -4   3    1.79    0.57
  -1  -4  -3   67.00    5.42
  -4   1  -3   73.96    5.34
   4  -1   3   61.82    5.70
  -1  -4   3   75.01    4.73
  -1  -4   3   72.22    5.05
   1   4   3   77.96    5.00
  -2  -4  -3    7.98    1.96
  -4   2  -3    7.33    1.24
   4  -2   3    6.25    1.59
  -2  -4   3    7.90    0.79
   2   4   3    6.47    1.10
  -2  -4   3    8.08    0.98
  -3  -4  -3   10.74    1.76
  -4   3  -3    9.06    1.32
  -3  -4   3    8.82    0.82
   4  -3   3    5.76    1.70
  -3  -4   3    7.77    0.97
   3   4   3    8.23    1.52
  -4   4  -3    0.97    0.55
   4  -4  -3    1.49    0.43
  -4  -4  -3    1.53    0.90
   4  -4  -3    1.30    0.28
  -4  -4   3    1.60    0.37
   4  -4   3    0.20    0.74
   4   4   3    0.57    0.57
  -4  -4   3    0.71    0.41
   4  -5  -3    3.05    0.74
   4  -5  -3    2.32    0.41
  -5  -4  -3    1.58    0.90
  -4   5  -3    1.50    0.63
   5   4   3    1.68    0.75
   4  -5   3    2.38    1.03
  -5  -4   3    2.42    0.54
  -5  -4   3    2.81    0.57
  -5  -3  -3   -0.52    0.51
  -3   5  -3    0.74    0.33
   3  -5  -3    0.80    0.25
   3  -5  -3    0.34    0.41
   3  -5   3   -0.35    0.57
   5   3   3    0.36    0.49
  -5  -2  -3    0.85    0.60
   2  -5  -3    0.75    0.48
   5   2   3    1.12    0.78
  -2   5   3    0.35    0.29
   2  -5   3    1.21    0.73
   1  -5  -3   21.38    2.28
  -5  -1  -3   24.19    2.69
  -1   5   3   22.18    1.91
   5   1   3   26.04    2.92
   1  -5   3   20.24    2.13
   1  -5   3   23.51    2.42
   0  -5  -3  232.65   15.62
  -5   0  -3  251.67   15.90
   0  -5   3  265.45   15.51
   0   5   3  266.21   15.08
   5   0   3  235.53   16.28
   0  -5   3  258.29   15.21
  -1  -5  -3   21.98    2.56
  -5   1  -3   21.86    2.46
  -1  -5   3   23.27    1.99
  -1  -5   3   22.01    2.18
   5  -1   3   25.34    3.03
   1   5   3   24.34    2.18
  -5   2  -3    0.70    0.47
  -2  -5  -3    0.94    0.63
   5  -2   3    1.28    0.88
  -2  -5   3    0.89    0.49
  -2  -5   3    0.41    0.27
   2   5   3    0.68    0.49
  -5   3  -3    0.01    0.36
  -3  -5  -3   -0.78    0.41
   5  -3   3    0.99    0.83
   3   5   3   -0.16    0.36
  -3  -5   3    0.49    0.37
  -3  -5   3    0.42    0.21
  -4  -5  -3    2.65    1.17
  -5   4  -3    3.05    0.94
  -4  -5   3    2.78    0.66
   5  -4   3    2.77    1.15
   4   5   3    1.56    0.85
  -4  -5   3    1.81    0.43
   5  -5  -3    0.39    0.26
   5  -5  -3    0.18    0.36
  -5  -5  -3   -0.70    0.60
   5  -5   3    1.13    0.79
   5   5   3   -0.79    0.46
  -5  -5   3   -0.13    0.37
  -5  -5   3    1.21    0.40
   5  -6  -3   17.79    1.73
  -6  -5  -3   18.04    2.70
   5  -6  -3   17.57    1.44
  -6  -5   3   14.86    2.10
  -6  -5   3   15.30    1.53
   6   5   3   14.78    2.24
   5  -6   3   13.81    2.28
   4  -6  -3    0.47    0.47
   4  -6  -3    0.47    0.26
   6   4   3    1.27    0.75
   4  -6   3    0.59    0.69
  -6  -4   3    0.91    0.33
  -6  -4   3    0.24    0.26
   3  -6  -3   10.00    1.41
   3  -6   3   12.92    1.81
   6   3   3   10.86    1.87
   2  -6  -3  243.77   14.97
  -2   6   3  234.03   14.52
   2  -6   3  242.18   15.18
   2  -6   3  248.38   15.34
   6   2   3  248.90   16.00
   1  -6  -3   74.80    5.69
   6   1   3   75.39    6.46
  -1   6   3   79.61    5.28
   1  -6   3   77.51    5.61
   1  -6   3   83.36    5.84
   0  -6  -3   -0.25    0.47
   0  -6   3    0.37    0.36
   0  -6   3    0.04    0.42
   6   0   3    0.97    0.82
   0   6   3    0.13    0.31
  -1  -6  -3   72.51    5.98
   1   6   3   82.92    5.57
  -1  -6   3   84.28    5.66
  -1  -6   3   80.36    5.36
   6  -1   3   72.52    6.54
  -2  -6  -3  232.76   16.10
   2   6   3  262.83   15.63
  -2  -6   3  262.58   15.41
  -2  -6   3  246.45   15.03
   6  -2   3  260.54   16.84
  -3  -6  -3    9.84    1.84
   6  -3   3   12.52    2.07
  -3  -6   3   12.06    1.48
   3   6   3   12.38    1.71
  -3  -6   3   12.45    1.22
  -6   4  -3    0.24    0.53
  -4  -6  -3    0.08    0.51
  -4  -6   3    0.50    0.43
   4   6   3    0.35    0.52
   6  -4   3   -0.10    0.73
  -4  -6   3   -0.16    0.26
   6  -5  -3   16.73    1.41
   6  -5  -3   19.04    1.90
  -6   5  -3   17.88    2.22
  -5  -6   3   17.19    1.60
   6  -5   3   19.72    2.37
  -5  -6   3   16.49    1.72
   5   6   3   16.40    2.32
  -6   6  -3   65.99    5.00
   6  -6  -3   61.34    3.93
   6  -6  -3   62.77    4.24
  -6  -6  -3   53.24    5.46
   6  -6   3   56.36    5.19
  -6  -6   3   56.95    4.69
  -6  -6   3   53.39    4.15
   6   6   3   54.21    5.06
  -6   7  -3    1.83    0.93
   6  -7  -3    1.08    0.50
   6  -7  -3    0.51    0.60
  -7  -6  -3    1.04    0.92
  -7  -6   3    0.84    0.60
   7   6   3    0.12    0.81
   6  -7   3    0.63    0.85
  -7  -5  -3    0.49    0.99
   5  -7  -3    0.76    0.38
   5  -7  -3    0.99    0.59
   5  -7   3    1.21    0.75
  -7  -5   3    0.58    0.48
   4  -7  -3    0.22    0.31
   4  -7  -3   -0.09    0.40
  -7  -4  -3   -0.91    0.61
   7   4   3    1.14    0.62
  -7  -4   3    0.23    0.29
   4  -7   3    0.01    0.61
  -7  -4   3    0.61    0.38
   3  -7  -3   54.65    4.24
  -7  -3  -3   58.98    5.35
   7   3   3   54.44    5.13
   3  -7   3   54.54    4.62
   3  -7   3   50.14    4.54
  -7  -2  -3    2.51    1.15
   2  -7  -3    3.15    0.83
   2  -7   3    3.76    1.09
   2  -7   3    2.75    0.88
   7   2   3    1.71    1.07
  -2   7   3    1.58    0.58
  -7  -1  -3   47.97    4.54
   1  -7  -3   48.92    3.98
   7   1   3   44.48    4.65
   1  -7   3   44.76    3.76
  -1   7   3   45.83    3.53
   1  -7   3   39.52    4.35
  -7   0  -3    4.48    1.32
   0  -7  -3    7.20    1.43
   0  -7   3    7.87    1.20
   0   7   3    6.69    1.13
   0  -7   3    6.05    1.41
   7   0   3    5.90    1.59
  -7   1  -3   43.95    4.22
  -1  -7  -3   40.04    4.82
   7  -1   3   45.60    4.75
  -1  -7   3   43.50    3.70
  -1  -7   3   47.27    3.52
   1   7   3   43.90    3.61
  -7   2  -3    1.97    0.84
  -2  -7  -3    2.48    0.92
   7  -2   3    2.59    1.44
  -2  -7   3    3.10    0.95
   2   7   3    3.41    1.08
  -2  -7   3    2.04    0.56
  -3  -7  -3   50.12    4.77
  -7   3  -3   55.14    4.69
   7  -3   3   54.93    5.24
   3   7   3   54.68    4.48
  -3  -7   3   50.06    3.76
  -3  -7   3   54.27    4.13
  -7   4  -3   -0.24    0.61
  -4  -7  -3    0.78    0.85
  -4  -7   3    0.59    0.37
   7  -5  -3    0.50    0.40
  -7   5  -3    1.09    0.85
   7  -5  -3    1.14    0.47
  -5  -7   3    1.77    0.45
   7  -5   3    1.81    1.00
  -5  -7   3    2.10    0.67
   5   7   3   -0.19    0.68
  -7   6  -3    0.63    0.66
  -6  -7  -3    1.13    0.93
   7  -6  -3    0.89    0.70
   7  -6  -3    1.78    0.50
  -6  -7   3    1.71    0.57
   7  -6   3    1.69    0.89
   6   7   3    0.50    0.69
  -6  -7   3    0.05    0.66
   7  -7  -3   60.42    4.24
  -7   7  -3   64.15    5.29
   7  -7  -3   67.19    4.81
  -7  -7  -3   58.87    5.84
   7  -7   3   55.56    5.38
   7   7   3   58.62    5.48
  -7  -7   3   59.79    4.46
   7  -8  -3    9.35    1.80
  -7   8  -3   11.94    1.90
   7  -8  -3    8.84    1.21
   8   7   3   11.52    2.08
   6  -8  -3   33.68    2.69
   6  -8  -3   35.05    3.16
  -8  -6  -3   30.38    5.09
  -8  -6   3   32.39    2.88
   6  -8   3   28.06    3.40
   8   6   3   39.70    3.99
   5  -8  -3    8.30    1.43
   5  -8  -3    8.46    1.11
  -8  -5  -3    6.60    2.10
  -8  -5   3    8.77    1.22
   8   5   3   11.66    1.75
   5  -8   3    5.07    2.17
   4  -8  -3    4.44    1.17
  -8  -4  -3    3.17    1.56
   4  -8  -3    3.49    1.00
   4  -8   3    2.28    0.96
   4  -8   3    3.58    1.60
  -8  -4   3    4.42    0.87
   8   4   3    3.67    1.03
   3  -8  -3    2.67    0.97
   8   3   3    2.93    1.33
   3  -8   3    3.40    1.19
   3  -8   3    3.97    0.97
   2  -8  -3   10.23    1.58
  -8  -2  -3   13.67    2.41
   2  -8   3    9.49    1.98
   2  -8   3   10.23    1.53
   8   2   3   10.34    2.33
  -2   8   3    8.92    1.33
   1  -8  -3   10.38    1.63
  -8  -1  -3   12.39    2.17
   8   1   3   12.81    2.66
   1  -8   3   10.07    1.67
   1  -8   3   12.07    1.64
  -1   8   3    8.38    1.36
   0  -8  -3   -0.35    0.47
  -8   0  -3    0.27    0.62
   8   0   3    1.30    1.03
   0  -8   3    0.24    0.36
  -1  -8  -3   10.61    1.79
  -8   1  -3   10.37    2.00
  -1  -8   3   10.50    1.62
   8  -1   3   13.10    2.43
  -1  -8   3   10.28    1.47
   1   8   3    8.63    1.48
  -2  -8  -3    9.73    1.81
  -8   2  -3   10.93    2.35
   2   8   3   10.22    1.58
  -2  -8   3    7.92    1.50
   8  -2   3   10.46    2.61
  -8   3  -3    2.55    1.18
  -3  -8  -3    0.95    0.82
  -3  -8   3    2.03    0.92
   8  -3   3    2.01    1.26
  -3  -8   3    2.25    0.56
   3   8   3    1.54    0.73
  -8   4  -3    4.37    1.42
  -4  -8  -3    3.43    1.26
  -4  -8   3    4.33    0.77
  -4  -8   3    5.39    1.26
   8  -4   3    3.21    1.35
   4   8   3    2.46    0.90
   8  -5  -3    8.11    1.05
  -5  -8  -3    5.43    1.50
  -8   5  -3    9.16    2.50
   8  -5  -3    7.10    0.98
  -5  -8   3    9.16    1.42
  -5  -8   3    7.69    1.13
   8  -5   3   12.66    2.05
   5   8   3    8.97    1.61
  -6  -8  -3   30.52    3.77
   8  -6  -3   33.27    2.72
   8  -6  -3   29.52    2.51
  -8   6  -3   29.00    3.43
  -6  -8   3   28.21    2.90
   6   8   3   33.14    3.57
   8  -6   3   39.00    3.74
  -6  -8   3   32.88    2.76
   8  -7  -3    7.98    1.45
  -7  -8  -3   11.70    2.79
   8  -7  -3    7.81    1.13
  -8   7  -3    8.82    2.01
   8  -7   3    7.53    2.16
   7   8   3    7.17    1.96
  -8  -8  -3    1.03    1.19
  -8   8  -3    1.10    0.84
   8  -9  -3    1.95    1.24
  -9  -8  -3   -0.21    1.14
   9   8   3    1.50    1.07
   8  -9   3    2.12    1.28
  -9  -7  -3    2.07    1.64
   7  -9  -3   -0.16    0.76
   7  -9   3   -1.63    1.31
   9   7   3    1.07    1.22
   6  -9  -3   61.41    4.80
  -9  -6  -3   58.16    5.87
   9   6   3   56.68    5.66
   6  -9   3   53.13    5.30
   6  -9   3   52.34    5.12
   5  -9  -3   11.04    1.34
  -9  -5  -3   11.20    2.75
   9   5  -3    7.45    1.39
   5  -9  -3   10.37    1.70
   5  -9   3   11.28    2.02
   9   5   3    6.32    2.06
   5  -9   3   10.57    1.98
  -9  -5   3   12.47    1.43
   9   4  -3    1.24    0.62
  -9  -4  -3    1.12    1.26
   4  -9  -3    0.78    0.75
   4  -9  -3    2.06    0.62
   4  -9   3    0.44    0.89
   9   4   3    1.47    0.78
   4  -9   3    0.94    0.68
  -9  -3  -3    2.61    1.37
   3  -9  -3    0.52    0.68
   9   3   3    1.40    1.16
   3  -9   3    2.86    1.05
   3  -9   3    1.58    0.83
  -9  -2  -3    1.53    0.95
   2  -9  -3    1.83    0.82
   2  -9   3    1.98    0.77
  -2   9   3    0.86    0.50
   2  -9   3    1.95    0.72
  -9  -1  -3   -0.35    0.72
   1  -9  -3   -0.15    0.50
  -1   9   3   -0.56    0.39
   9   1   3    0.57    0.90
   1  -9   3    0.46    0.66
   1  -9   3    0.60    0.55
  -9   0  -3   22.90    3.01
   0  -9  -3   20.18    3.27
   0  -9   3   20.77    2.74
   0  -9   3   19.57    2.17
   9   0   3   20.04    3.02
   0   9   3   18.88    2.21
  -9   1  -3    0.36    0.95
  -1  -9  -3    0.57    0.55
  -1  -9   3    0.43    0.44
   1   9   3   -0.16    0.51
  -1  -9   3   -0.22    0.61
   9  -1   3    1.18    1.24
  -9   2  -3    1.35    0.92
  -2  -9  -3    1.68    0.83
   9  -2   3    2.32    1.11
   2   9   3    1.31    0.76
  -2  -9   3    1.46    0.67
  -2  -9   3    1.27    0.74
  -3  -9  -3    1.47    0.92
  -9   3  -3    1.79    1.09
   9  -3   3    3.79    1.24
  -3  -9   3    1.53    0.64
   3   9   3    1.82    0.76
  -3  -9   3    3.13    1.04
   9  -4  -3    1.36    0.47
  -9   4  -3    1.37    1.31
   9  -4   3    1.30    1.24
  -4  -9   3    1.31    0.47
  -4  -9   3    1.27    0.91
   4   9   3    0.87    0.72
  -5  -9  -3   10.26    2.56
   9  -5  -3   10.70    1.34
  -9   5  -3   11.10    2.04
   9  -5  -3   10.28    1.25
   5   9   3   10.14    1.95
  -5  -9   3    8.99    1.64
   9  -5   3   12.12    2.69
  -6  -9  -3   58.08    5.44
   9  -6  -3   54.57    4.06
   9  -6  -3   53.47    3.96
  -9   6  -3   53.94    5.11
   6   9   3   47.86    4.97
  -6  -9   3   53.72    4.46
   9  -6   3   49.65    5.28
  -9   7  -3    0.93    1.17
  -7  -9  -3    0.22    0.97
   9  -7  -3    0.21    0.76
   7   9   3    0.51    0.92
   9  -7   3    0.82    1.41
  -9   8  -3   -0.06    1.04
   9  -8  -3   -1.30    0.72
  -8  -9  -3   -0.65    0.91
   8   9   3   -0.26    0.94
  -9  -9  -3   -1.64    1.46
   9  -9  -3    0.66    1.14
   9   9   3   -1.14    0.88
   9  -9   3    2.55    1.15
  10   9   3    7.63    1.93
   8 -10  -3   -0.24    0.97
 -10  -8  -3   -0.44    1.64
   8 -10   3    3.22    1.03
  10   8   3    3.74    1.20
   7 -10  -3   16.58    2.51
 -10  -7  -3   18.23    3.48
   7 -10   3   17.37    2.65
  10   7   3   22.16    3.20
   6 -10  -3   -0.03    0.90
 -10  -6  -3    0.09    1.59
  10   6   3    3.08    1.57
   6 -10   3    2.75    1.49
   6 -10   3    1.31    1.16
  10   5  -3   11.21    2.01
 -10  -5  -3   10.89    2.75
   5 -10  -3   12.95    1.96
  10   5   3   14.65    2.66
   5 -10   3   10.42    2.11
   5 -10   3   10.61    2.37
 -10  -4  -3   43.73    4.90
   4 -10  -3   40.65    3.78
  10   4  -3   32.32    3.01
  10   4   3   40.09    4.67
   4 -10   3   40.16    4.01
   4 -10   3   30.42    3.69
 -10  -4   3   46.23    3.20
  10   3  -3   13.14    1.24
 -10  -3  -3    8.76    2.16
   3 -10  -3    8.54    1.74
   3 -10   3   10.65    1.72
  10   3   3   13.23    2.38
 -10  -3   3   11.00    1.24
   3 -10   3    8.56    1.91
   2 -10  -3   15.60    2.20
   2 -10   3   10.92    2.04
   2 -10   3   13.83    2.03
  -2  10   3   11.76    1.68
 -10  -1  -3   24.30    3.30
   1 -10  -3   20.37    2.57
  -1  10   3   17.34    2.18
  10   1   3   21.66    3.16
   1 -10   3   18.41    2.52
   1 -10   3   21.07    2.40
 -10   0  -3    0.55    0.82
   0 -10  -3   -0.34    0.61
   0 -10   3    0.93    0.76
  10   0   3   -0.79    0.79
   0 -10   3    0.09    0.49
  -1 -10  -3   16.82    2.50
 -10   1  -3   22.13    3.08
   1  10   3   19.73    2.38
  10  -1   3   26.52    3.45
  -1 -10   3   17.27    2.78
  -1 -10   3   21.49    2.27
  -2 -10  -3   13.96    2.17
 -10   2  -3   14.11    2.66
  -2 -10   3   13.96    1.79
   2  10   3   13.35    2.05
  10  -2   3   18.83    3.00
  -2 -10   3   14.75    2.05
  -3 -10  -3   11.17    2.04
 -10   3  -3   12.42    2.37
   3  10   3    8.85    1.76
  -3 -10   3   10.23    1.92
  -4 -10  -3   39.12    3.95
 -10   4  -3   32.60    4.01
  10  -4  -3   34.22    2.67
  10  -4  -3   36.15    2.74
   4  10   3   36.72    3.85
  -4 -10   3   34.57    3.52
  10  -4   3   36.37    4.47
  -5 -10  -3   11.76    2.20
  10  -5  -3   10.60    1.47
 -10   5  -3   11.63    2.83
  10  -5  -3   11.15    1.37
  10  -5   3   14.30    2.78
  -5 -10   3   10.23    1.79
   5  10   3   14.37    2.32
 -10   6  -3    0.97    1.31
  10  -6  -3    2.05    0.72
  -6 -10  -3    0.45    1.07
  10  -6   3    2.69    1.55
   6  10   3    0.84    0.82
  -6 -10   3    1.13    0.84
  10  -7  -3   16.63    2.19
  -7 -10  -3   16.56    2.88
 -10   7  -3   17.60    2.90
  10  -7   3   21.27    3.04
   7  10   3   14.85    3.48
 -10   8  -3   -0.92    0.79
  -8 -10  -3   -0.41    1.42
  10  -8  -3    0.24    0.95
   8  10   3    2.98    1.20
  10  -9  -3   -0.25    1.26
  -9 -10  -3   -1.31    2.08
 -10   9  -3   -0.11    1.52
   9  10   3    4.00    1.45
  10  -9   3    4.00    1.80
  10 -10  -3   -1.43    1.55
   9 -11  -3   -3.21    1.96
 -11  -8  -3    1.28    1.97
   8 -11  -3   -0.44    1.50
  11   8   3    3.46    1.58
   8 -11   3    2.64    1.29
 -11  -7  -3  186.67   14.04
   7 -11  -3  174.04   12.46
   7 -11   3  172.46   12.85
  11   7   3  208.24   13.91
 -11  -6  -3    0.43    1.74
   6 -11  -3    3.56    1.66
   6 -11   3    0.03    1.17
  11   6   3    3.91    1.29
   5 -11  -3   -0.83    0.73
 -11  -5  -3   -0.19    1.29
  11   5   3    0.36    1.08
   4 -11  -3   24.76    2.85
 -11  -4  -3   24.54    3.95
   4 -11   3   22.66    2.95
  11   4   3   21.73    3.62
  11   3  -3  173.10   11.65
   3 -11  -3  201.85   12.84
  11   3   3  217.73   14.41
   3 -11   3  176.09   12.87
   2 -11  -3    1.21    0.81
  11   2  -3    1.56    0.52
 -11  -2  -3    0.61    1.29
   2 -11   3   -0.34    1.01
 -11  -2   3    0.27    0.50
  11   2   3   -0.43    1.07
  -2  11   3    0.26    0.59
   1 -11  -3   22.95    2.93
  -1  11   3   18.05    2.43
  11   1   3   27.56    3.70
   1 -11   3   20.99    2.85
   0 -11  -3    2.89    1.11
 -11   0  -3    5.17    1.82
   0 -11   3    2.13    1.25
   0  11   3    1.90    0.95
  11   0   3    5.03    1.52
  -1 -11  -3   25.55    3.20
 -11   1  -3   33.28    3.99
  11  -1   3   23.73    3.81
  -1 -11   3   29.15    3.14
   1  11   3   23.25    2.94
  -2 -11  -3    1.18    0.87
 -11   2  -3   -0.70    1.20
  11  -2  -3    0.58    0.39
   2  11   3    0.27    0.76
  11  -2   3    1.76    1.45
  -2 -11   3    1.03    0.91
  11  -3  -3  198.27   11.28
 -11   3  -3  205.10   13.50
  11  -3  -3  167.70   11.09
   3  11   3  177.69   12.70
  11  -3   3  196.00   13.90
  -3 -11   3  172.19   12.32
  11  -4  -3   17.59    1.88
 -11   4  -3   21.61    3.23
  -4 -11  -3   20.30    2.98
  11  -4   3   22.22    3.60
   4  11   3   19.68    2.92
 -11   5  -3   -1.42    1.38
  -5 -11  -3   -0.69    0.84
  11  -5  -3    1.69    0.60
  11  -5   3    0.38    1.39
   5  11   3    0.54    0.86
  -5 -11   3    0.95    0.98
  11  -6  -3    3.55    1.07
 -11   6  -3   -0.03    1.37
  -6 -11  -3    4.83    1.76
  11  -6   3    5.65    2.12
  -6 -11   3    2.80    1.30
 -11   7  -3  172.71   12.28
  11  -7  -3  161.21   10.79
   7  11   3  161.74   12.19
  11  -7   3  161.92   12.30
 -11   8  -3    0.75    1.66
  -8 -11  -3    0.44    1.67
  11  -8   3    6.59    1.86
  11  -9  -3    0.85    1.58
   7 -12  -3   14.30    3.08
 -12  -7  -3   14.84    4.12
   6 -12  -3   24.15    3.64
 -12  -6  -3   24.36    4.64
  12   6   3   37.74    4.41
   6 -12   3   36.07    3.62
 -12  -5  -3    8.89    2.51
   5 -12  -3    6.47    2.04
  12   5   3   11.18    2.64
   5 -12   3   10.72    2.78
   4 -12  -3    4.27    1.01
  12   4   3    2.57    1.66
 -12  -3  -3    4.56    1.95
   3 -12  -3    1.98    1.04
   3 -12   3    4.93    1.63
  12   3   3    4.00    1.85
   2 -12  -3   32.61    4.28
 -12  -2  -3   25.81    4.22
  12   2   3   25.77    4.09
   2 -12   3   25.13    3.17
 -12  -1  -3    0.38    1.65
   1 -12  -3    2.66    1.19
  12   1   3   -0.49    1.59
  -1  12   3    1.51    1.12
   1 -12   3    3.34    1.22
   0 -12  -3   -0.42    0.93
 -12   0  -3   -1.12    1.27
   0 -12   3    1.47    1.03
   0  12   3   -0.49    0.57
  12   0   3    0.89    1.50
  12  -1  -3    1.84    0.58
 -12   1  -3    0.36    1.43
  -1 -12  -3    1.36    1.42
   1  12   3    3.44    0.81
  12  -1   3    0.81    1.60
  -1 -12   3    2.58    1.18
  12  -2  -3   22.81    2.03
 -12   2  -3   25.87    3.96
  -2 -12  -3   20.74    4.88
   2  12   3   21.56    2.91
  -2 -12   3   24.68    3.07
  12  -2   3   23.10    4.56
  -3 -12  -3    2.95    1.52
  12  -3  -3    2.21    0.86
 -12   3  -3    1.82    1.57
   3  12   3    3.35    0.99
  12  -3   3    6.00    2.08
  -3 -12   3    5.36    1.47
 -12   4  -3   -0.79    1.47
  12  -4   3    2.78    1.79
  -4 -12   3    2.42    1.10
  12  -5  -3   15.59    1.81
  -5 -12   3   10.26    2.47
   5  12   3   12.75    2.36
  12  -5   3   15.47    2.92
  12  -6  -3   23.16    2.59
 -12   6  -3   20.59    4.05
  12  -6   3   29.33    3.88
  -6 -12   3   24.72    2.85
  12  -7  -3   18.56    2.50
 -12   7  -3   13.95    3.89
  -7 -12   3   18.53    2.97
  12  -7   3   11.12    2.90
  12  -8  -3    0.98    1.51
 -13  -5  -3   -1.60    2.19
  13   5   3   -1.24    1.19
 -13  -4  -3   -1.01    2.23
   4 -13  -3    1.33    1.74
  13   4   3    4.36    1.91
   4 -13   3    3.46    1.60
 -13  -3  -3   -2.13    1.55
   3 -13  -3   -0.72    1.16
  13   3   3    1.31    1.39
   3 -13   3    1.72    1.10
 -13  -2  -3    3.15    2.15
   2 -13  -3    2.47    1.43
   2 -13   3    5.31    1.43
  13   2   3    4.50    2.03
 -13  -1  -3    0.08    1.78
   1 -13  -3    0.06    1.36
  -1  13   3    1.93    0.79
  13   1   3    1.12    2.00
 -13   0  -3    0.19    1.59
   0 -13  -3   -0.10    1.27
   0 -13   3    3.67    1.33
   0  13   3    2.76    1.04
  13   0   3    2.33    1.90
 -13   1  -3    2.25    1.73
  13  -1   3    0.82    1.68
  -1 -13   3    5.04    1.34
   1  13   3    2.06    0.81
  13  -2  -3    3.38    0.97
 -13   2  -3    3.01    1.99
  13  -2   3    4.79    1.93
  13  -4  -3    2.03    0.89
 -13   4  -3   -1.06    2.77
  -4 -13  -3   -1.94    1.94
   4  13   3   -0.23    1.41
  13  -4   3    1.97    1.92
  13  -5  -3   -1.64    0.98
 -13   5  -3   -2.21    1.77
  13  -5   3    3.65    2.11
  13  -6  -3   11.76    2.08
  13  -6   3   20.39    4.01
  13  -7  -3    0.79    1.56
 -14  -3  -3   -4.17    2.85
  14   3   3    1.68    1.68
 -14  -1  -3   33.79    5.35
  14   1   3   33.00    4.62
  14   0   3   -1.55    1.79
 -14   1  -3   33.50    5.39
  14  -1   3   41.20    5.15
 -14   2  -3    4.90    3.30
  14  -2  -3    2.80    1.18
  14  -2   3    8.47    2.31
  14  -3  -3    1.92    1.26
 -14   3  -3   -1.68    2.22
  14  -3   3    6.59    2.04
  14  -4  -3   -2.02    1.25
  14  -6  -3   -1.83    1.93
  15  -2  -3    2.42    1.69
  15  -3  -3    5.82    2.54
  15  -4  -3    4.26    2.84
   0   0   4  778.03   44.26
  -1   0  -4    0.78    0.38
   0  -1  -4    0.22    0.26
   0  -1   4    0.93    0.37
   0   1   4    0.00    0.21
  -1   1  -4    3.77    0.71
  -1  -1  -4    4.89    0.84
   1  -1   4    3.95    1.24
  -2  -1  -4   -0.31    0.44
   2   1   4    0.24    0.51
   1  -2   4    0.42    0.74
   0  -2  -4    1.01    0.40
  -2   0  -4    0.95    0.54
   0   2   4    1.57    0.40
   0  -2   4    1.13    0.48
   2   0   4    0.59    0.57
   0  -2   4    0.43    0.53
  -2   1  -4    0.48    0.43
  -1  -2  -4    0.40    0.43
   1   2   4    0.69    0.68
   2  -1   4   -0.61    0.65
  -1  -2   4    1.18    0.33
  -1  -2   4    1.02    0.25
  -2  -2  -4    0.18    0.41
  -2   2  -4   -0.27    0.30
  -3  -2  -4    4.32    1.17
   2  -3   4    5.39    1.63
   3   2   4    3.63    1.09
  -3  -1  -4    0.67    0.60
   1  -3  -4    0.61    0.29
   3   1   4   -0.32    0.52
   1  -3   4    1.25    0.92
   1  -3   4    0.94    0.43
  -1   3   4    0.89    0.27
   0  -3  -4   -0.29    0.28
  -3   0  -4   -0.68    0.42
   0   3   4    0.30    0.27
   0  -3   4   -0.36    0.66
   3   0   4    0.64    0.70
   0  -3   4    0.25    0.35
  -1  -3  -4    0.75    0.59
  -3   1  -4    0.29    0.51
   3  -1   4    0.13    0.89
  -1  -3   4    0.02    0.42
   1   3   4    0.01    0.35
  -1  -3   4    1.06    0.42
  -3   2  -4    5.44    1.14
  -2  -3  -4    5.04    1.29
   2   3   4    4.81    1.16
   3  -2   4    3.11    1.48
  -3   3  -4    8.21    1.30
  -3  -3  -4    9.83    1.64
   3  -3   4   12.43    2.65
   3   3   4   10.26    1.62
  -3   4  -4    5.75    1.17
  -4  -3  -4    7.15    1.74
   3  -4   4    7.65    2.09
   4   3   4    8.29    1.81
  -4  -2  -4    0.17    0.64
   2  -4   4   -0.09    1.15
   4   2   4   -0.46    0.56
  -4  -1  -4   10.21    1.76
   1  -4  -4   12.29    1.27
  -1   4   4   12.09    1.13
   4   1   4    9.38    1.94
   1  -4   4   14.65    2.62
   1  -4   4   12.78    1.55
  -4   0  -4  167.98   10.45
   4   0   4  152.35   10.90
   0   4   4  155.23    9.52
   0  -4   4  161.28    9.71
   0  -4   4  141.99   11.02
  -1  -4  -4   13.14    1.81
  -4   1  -4   11.73    1.73
  -1  -4   4   11.59    1.71
  -1  -4   4   13.41    1.21
   1   4   4   10.49    1.40
   4  -1   4   14.56    2.83
  -4   2  -4    0.10    0.57
  -2  -4  -4   -0.63    0.70
  -2  -4   4    0.26    0.48
   2   4   4   -0.56    0.41
  -2  -4   4    0.51    0.25
   4  -2   4   -0.75    0.88
  -4   3  -4    7.35    1.27
  -3  -4  -4    6.85    1.76
   4  -3   4   11.43    2.12
   3   4   4    7.29    1.60
  -4  -4  -4   30.36    3.71
  -4   4  -4   37.47    3.22
   4   4   4   33.95    3.35
   4  -4   4   36.39    4.15
   4  -5   4   21.61    3.29
   5   4   4   19.06    2.68
  -5  -3  -4    1.12    0.90
   3  -5   4    3.62    1.55
   5   3   4    1.59    1.08
  -5  -2  -4    4.60    1.29
   2  -5  -4    5.91    0.87
   2  -5   4    4.15    1.17
   5   2   4    6.14    1.50
   2  -5   4    5.59    1.79
   1  -5  -4   24.47    2.42
  -5  -1  -4   30.16    3.13
   1  -5   4   20.04    3.02
   1  -5   4   27.59    2.51
  -1   5   4   26.22    2.12
   5   1   4   31.86    3.34
   0  -5  -4   -0.51    0.52
  -5   0  -4    0.83    0.66
   0  -5   4    0.38    1.02
   0   5   4   -0.03    0.45
   5   0   4   -0.05    0.78
   0  -5   4   -0.68    0.38
  -1  -5  -4   21.09    2.84
  -5   1  -4   29.97    2.96
  -1  -5   4   20.18    2.76
   5  -1   4   33.83    3.59
  -1  -5   4   28.17    2.21
   1   5   4   27.34    2.42
  -5   2  -4    6.18    1.41
  -2  -5  -4    4.37    1.56
   2   5   4    5.46    1.25
  -2  -5   4    8.04    0.80
   5  -2   4    6.05    1.96
  -2  -5   4    6.15    1.37
  -5   3  -4    1.74    0.84
  -3  -5  -4    3.45    1.48
   3   5   4    1.52    0.83
   5  -3   4    4.03    1.79
  -3  -5   4    2.98    0.77
  -3  -5   4    3.25    0.50
  -5   4  -4   26.86    2.83
  -4  -5  -4   24.48    3.37
   5  -4   4   28.97    3.69
   4   5   4   24.53    2.90
  -5  -5  -4  330.89   19.35
   5  -5   4  256.68   18.79
   5   5   4  266.96   18.07
  -6  -5  -4   21.45    3.41
   5  -6   4   25.50    3.42
   6   5   4   16.79    3.77
  -6  -4  -4    9.06    2.12
   6   4   4    6.14    1.88
   3  -6  -4    8.19    1.07
  -6  -3  -4    9.12    2.03
   3  -6  -4    9.38    0.85
   3  -6   4    5.22    2.21
   6   3   4    6.97    2.07
   2  -6  -4   -0.24    0.59
  -6  -2  -4    0.15    0.75
   6   2   4    0.18    0.92
   2  -6   4   -1.77    1.02
   1  -6  -4    7.90    1.74
  -6  -1  -4    9.19    1.72
  -1   6   4    7.97    1.08
   6   1   4    8.30    2.20
   1  -6   4   10.10    1.88
   0  -6  -4    2.10    1.08
  -6   0  -4    5.23    1.48
   6   0   4    4.19    1.95
   0   6   4    4.23    1.37
   0  -6   4    7.43    1.50
  -1  -6  -4    6.98    1.97
  -6   1  -4    9.54    1.71
   6  -1   4    5.84    2.00
  -1  -6   4    5.22    1.71
   1   6   4    6.55    1.16
  -2  -6  -4   -0.37    0.92
  -6   2  -4    0.35    0.85
   2   6   4   -0.27    0.38
  -2  -6   4    0.04    0.87
  -2  -6   4    0.06    0.48
   6  -2   4   -0.11    1.25
  -6   3  -4    9.77    1.72
  -3  -6  -4    7.19    2.16
  -3  -6   4   10.12    1.15
   6  -3   4   13.80    3.60
  -3  -6   4    6.54    1.42
   3   6   4    7.59    1.44
  -6   4  -4    5.70    1.62
  -4  -6  -4    7.27    1.97
  -4  -6   4    7.24    0.94
   6  -4   4   10.38    2.86
   4   6   4    4.53    1.47
  -6   5  -4   18.81    2.54
  -5  -6  -4   22.22    3.58
   5   6   4   20.07    2.68
   6  -5   4   20.05    3.46
  -6   6  -4    9.53    1.96
  -6  -6  -4    7.26    2.19
   6  -6   4    8.51    2.23
   6   6   4    7.93    2.48
   6  -7   4   17.31    2.57
   7   6   4   14.88    2.13
  -7  -5  -4   -0.36    1.55
   5  -7   4    0.85    2.02
   7   5   4   -0.44    0.91
  -7  -4  -4    4.28    1.92
   4  -7  -4    2.78    0.96
   7   4   4    7.75    1.98
   4  -7   4    5.77    1.83
  -7  -3  -4   -0.36    1.26
   3  -7  -4   -0.61    0.68
   3  -7   4   -0.04    1.21
   7   3   4    1.84    1.09
   2  -7  -4    0.81    0.86
  -7  -2  -4    2.69    0.89
   2  -7   4    1.49    1.19
   7   2   4   -1.02    0.98
  -7  -1  -4    2.14    0.74
   1  -7  -4    0.17    0.96
  -1   7   4    0.60    0.49
   7   1   4   -0.59    1.07
  -7   0  -4    2.28    0.89
   0  -7  -4    0.48    0.92
   0  -7   4    1.77    1.05
  -1  -7  -4   -0.27    1.05
  -7   1  -4    3.26    0.87
   1   7   4    0.32    0.44
   7  -1   4   -1.37    1.25
  -1  -7   4    5.18    1.76
  -7   2  -4    1.75    0.85
  -2  -7  -4    2.07    1.09
  -2  -7   4    1.22    0.93
   7  -2   4    0.54    1.70
   2   7   4    1.37    0.73
  -7   4  -4    3.45    1.34
  -4  -7  -4    4.54    1.85
   7  -4   4    3.86    2.24
  -5  -7   4    6.27    1.14
  -6  -7  -4    6.82    2.41
  -7   6  -4    5.21    1.56
  -6  -7   4    5.28    1.78
   6   7   4    6.54    1.53
   7   7   4   13.07    2.23
   7  -7   4   15.72    2.85
  -8  -6  -4   -3.31    2.46
   6  -8  -4    1.03    0.76
   8   6   4   -0.82    1.05
   6  -8   4    2.45    1.22
   5  -8  -4    6.67    1.30
  -8  -5  -4    4.34    2.44
  -8  -4  -4   42.24    4.71
   4  -8   4   33.43    3.91
   8   4   4   37.31    4.12
  -8  -3  -4   17.66    3.08
   3  -8  -4   15.03    2.33
   3  -8   4   12.79    2.84
  -8  -2  -4    6.41    1.95
   2  -8  -4    5.18    1.63
   8   2   4    3.06    1.41
   2  -8   4    8.59    2.01
   1  -8  -4    5.91    3.19
  -8  -1  -4   10.35    2.58
  -1   8   4    6.66    1.27
   1  -8   4   11.69    2.12
  -8   0  -4   26.43    3.71
   0  -8  -4   25.90    3.41
   0  -8   4   26.94    3.28
   8   0   4   28.60    4.01
   0   8   4   32.60    2.87
  -1  -8  -4   10.13    2.47
  -8   1  -4    7.52    2.21
   1   8   4    8.26    1.53
  -1  -8   4    7.18    1.91
   8  -1   4    8.21    2.28
  -8   2  -4    3.97    1.50
  -2  -8  -4    4.22    1.74
  -2  -8   4    4.76    1.69
   8  -2   4    4.92    2.11
  -3  -8  -4   12.95    2.88
  -8   3  -4   14.26    2.53
   3   8   4   14.78    2.11
  -3  -8   4   10.00    2.05
  -4  -8  -4   27.64    4.03
  -8   4  -4   29.61    3.83
   4   8   4   34.93    3.50
   8  -4   4   40.45    4.54
  -5  -8  -4   10.48    2.87
   5   8   4    8.82    1.76
  -5  -8   4    6.58    1.42
  -6  -8  -4   -0.65    2.14
  -6  -8   4    4.46    1.20
  -7  -8   4    5.75    1.27
   7  -9  -4    2.76    0.96
   5  -9  -4   80.33    6.82
   9   5   4  114.66    8.72
   5  -9   4  101.65    7.88
  -9  -4  -4   -0.53    1.29
   4  -9  -4    1.28    0.90
   9   4   4    2.70    1.12
   3  -9  -4    6.81    1.92
  -9  -3  -4    4.78    2.73
  -9  -2  -4   -1.47    1.83
   2  -9  -4   -0.57    1.18
   2  -9   4    1.62    1.21
   9   2   4    3.57    1.28
   1  -9  -4    6.04    2.00
  -1   9   4    5.99    1.15
   1  -9   4    3.21    1.72
   0  -9  -4   -0.06    1.27
   0   9   4    0.94    0.59
   0  -9   4   -1.95    1.18
  -1  -9  -4    1.87    1.66
  -1  -9   4    5.52    1.66
   1   9   4    5.19    1.34
  -9   2  -4    0.34    1.46
  -2  -9  -4   -1.36    1.23
  -2  -9   4    3.05    1.15
   2   9   4   -0.36    0.74
  -3  -9  -4    7.85    2.33
  -9   3  -4    6.08    2.27
  -3  -9   4   10.32    1.93
   3   9   4    9.99    1.58
  -9   4  -4    0.97    1.51
  -4  -9  -4   -1.36    1.55
   4   9   4    2.11    1.01
  -4  -9   4    2.19    1.24
   5   9   4  104.58    7.77
  -5  -9   4   76.46    6.65
   9  -5   4  106.02    8.98
  -6  -9   4    0.01    1.25
  -7  -9   4    3.94    1.38
   7 -10  -4    1.80    1.61
   6 -10  -4    4.05    1.71
   5 -10  -4    0.88    1.39
   4 -10  -4   12.92    2.63
   3 -10   4   17.26    2.54
  10   3   4   18.28    3.61
  10   2   4    7.11    1.82
   1 -10  -4   41.75    4.88
   1 -10   4   50.97    4.72
  -1  10   4   41.51    4.34
   0 -10  -4  114.14    9.65
  10   0   4  138.82   10.63
   0 -10   4  124.35    9.10
   0  10   4  120.44    8.56
  -1 -10  -4   43.87    5.52
  -1 -10   4   53.96    4.51
  10  -1   4   57.57    5.76
   1  10   4   54.64    4.48
  -2 -10  -4    0.71    1.70
   2  10   4    2.92    1.08
  10  -2   4    7.92    2.26
  10  -3   4   27.46    4.10
   3  10   4   20.84    2.36
  -3 -10   4   30.68    2.75
  -4 -10   4   39.31    3.32
  -5 -10   4    5.46    1.59
  -7 -10   4   33.57    3.40
   5 -11  -4   -2.54    1.74
   4 -11  -4    3.58    2.13
   2 -11  -4   28.79    4.52
   1 -11  -4   -0.02    1.94
   0 -11  -4   -0.64    1.85
  -1 -11   4    7.69    2.29
  -2 -11   4   49.38    5.18
   1   0   5    2.21    0.49
   1  -1   5    1.03    0.47
   1   1   5    0.79    0.36
   2   1   5    7.49    1.12
   1  -2   5    6.44    1.15
  -2   0  -5    0.30    0.54
   2   0   5    1.67    0.63
   2  -1   5    6.06    1.12
   1   2   5    3.84    0.72
  -2  -2  -5   75.20    4.94
   2  -2   5   62.75    5.09
   2   2   5   70.78    4.89
  -3  -2  -5    0.04    0.95
   2  -3   5    0.64    1.03
  -3  -1  -5   13.90    2.03
   1  -3   5   15.50    2.49
   3   1   5   17.77    2.10
  -3   0  -5    7.03    1.45
  -1  -3  -5   15.09    2.13
  -3   1  -5   14.50    1.97
   3  -1   5   18.81    2.17
   1   3   5   15.77    1.50
   3  -2   5    2.89    1.01
  -3  -3  -5   15.56    2.37
   3  -3   5   20.43    2.68
   3   3   5   17.95    2.00
   3  -4   5   19.44    2.44
   4   3   5   14.26    1.77
   2  -4   5   10.90    2.06
  -4  -1  -5   25.95    3.03
   1  -4   5   24.05    3.71
   0  -4   5    1.11    0.77
  -4   1  -5   27.75    3.00
   1   4   5   28.30    2.36
  -2  -4  -5    2.35    1.15
  -4   2  -5    2.38    1.21
   2   4   5    1.37    0.72
  -3  -4  -5    3.00    1.59
   4  -3   5    3.76    1.59
  -4  -4  -5    0.01    1.56
   5   3   5   10.50    2.02
   2  -5   5   25.16    2.66
  -5  -1  -5    7.69    3.17
   1  -5   5    6.77    2.30
   0  -5  -5   84.98    5.51
  -5   0  -5   89.42    7.63
   0  -5   5   71.70    5.64
   5   0   5   84.98    6.71
  -5   1  -5    6.75    2.57
  -1  -5  -5    7.29    2.24
   1   5   5   11.04    1.37
   2   5   5    6.66    1.06
  -3  -5  -5    0.12    1.55
   2  -6   5   98.61    7.95
   1  -6   5   57.30    4.86
   0  -6  -5   -0.38    0.67
   0  -6   5   -1.01    1.39
  -1  -6  -5   38.26    4.23
   1   6   5   36.84    3.18
  -2  -6  -5  104.98    8.15
   2   6   5  112.92    7.46
  -3  -6  -5    2.68    3.32
   1  -7   5   47.15    4.37
   0  -7  -5    2.26    1.30
   0   7   5    8.98    1.73
  -1  -7  -5   17.94    3.56
   1   7   5   25.61    2.68
   0  -8  -5   -3.09    1.70
   0   8   5    2.44    1.01
   0   0   0    0.00    0.00
;
_shelx_hkl_checksum              28588
loop_
_space_group_symop_operation_xyz
'x, y, z'
'-y+1/2, x+1/2, z+1/2'
'-x, -y, z'
'y+1/2, -x+1/2, z+1/2'
'x+1/2, -y+1/2, -z+1/2'
'y, x, -z'
'-x+1/2, y+1/2, -z+1/2'
'-y, -x, -z'
'-x, -y, -z'
'y-1/2, -x-1/2, -z-1/2'
'x, y, -z'
'-y-1/2, x-1/2, -z-1/2'
'-x-1/2, y-1/2, z-1/2'
'-y, -x, z'
'x-1/2, -y-1/2, z-1/2'
'y, x, z'
loop_
_atom_site_label
_atom_site_type_symbol
_atom_site_fract_x
_atom_site_fract_y
_atom_site_fract_z
_atom_site_U_iso_or_equiv
_atom_site_adp_type
_atom_site_occupancy
_atom_site_site_symmetry_order
_atom_site_calc_flag
_atom_site_refinement_flags_posn
_atom_site_refinement_flags_adp
_atom_site_refinement_flags_occupancy
_atom_site_disorder_assembly
_atom_site_disorder_group
Cs1 Cs 0.88917(7) 0.11083(7) 0.0000 0.0042(3) Uani 1 4 d S T P . .
Cu1 Cu 0.57914(15) 0.20824(14) 0.0000 0.0097(5) Uani 1 2 d S T P . .
Cu2 Cu 0.98399(14) 0.39586(14) 0.0000 0.0052(4) Uani 1 2 d S T P . .
Cu3 Cu 1.18493(17) 0.18493(17) 0.0000 0.0180(7) Uani 1 4 d S T P . .
Se1 Se 0.61070(11) -0.16620(11) 0.0000 0.0029(3) Uani 1 2 d S T P . .
Se2 Se 0.61534(11) 0.38466(11) 0.0000 0.0032(4) Uani 1 4 d S T P . .
loop_
_atom_site_aniso_label
_atom_site_aniso_U_11
_atom_site_aniso_U_22
_atom_site_aniso_U_33
_atom_site_aniso_U_23
_atom_site_aniso_U_13
_atom_site_aniso_U_12
Cs1 0.0042(4) 0.0042(4) 0.0042(6) 0.000 0.000 -0.0001(4)
Cu1 0.0124(10) 0.0016(9) 0.0151(11) 0.000 0.000 -0.0006(7)
Cu2 0.0025(9) 0.0053(9) 0.0077(9) 0.000 0.000 0.0009(7)
Cu3 0.0246(11) 0.0246(11) 0.0047(14) 0.000 0.000 -0.0149(13)
Se1 0.0026(7) 0.0024(7) 0.0038(7) 0.000 0.000 -0.0008(5)
Se2 0.0020(6) 0.0020(6) 0.0055(10) 0.000 0.000 0.0002(7)
loop_
_atom_type_symbol
_atom_type_description
_atom_type_scat_dispersion_real
_atom_type_scat_dispersion_imag
_atom_type_scat_source
Cs Cs -0.3680 2.1192 'International Tables Vol C Tables 4.2.6.8 and 6.1.1.4'
Cu Cu 0.3201 1.2651 'International Tables Vol C Tables 4.2.6.8 and 6.1.1.4'
Se Se -0.0929 2.2259 'International Tables Vol C Tables 4.2.6.8 and 6.1.1.4'
loop_
_geom_angle_atom_site_label_1
_geom_angle_atom_site_label_2
_geom_angle_atom_site_label_3
_geom_angle
_geom_angle_site_symmetry_1
_geom_angle_site_symmetry_3
_geom_angle_publ_flag
Se1 Cs1 Se1 108.78(5) 13_766 2_544 ?
Se1 Cs1 Se1 69.05(3) 13_766 13_765 ?
Se1 Cs1 Se1 71.31(5) 2_544 13_765 ?
Se1 Cs1 Se1 71.31(5) 13_766 2_545 ?
Se1 Cs1 Se1 69.05(3) 2_544 2_545 ?
Se1 Cs1 Se1 108.78(5) 13_765 2_545 ?
Se1 Cs1 Se2 179.00(4) 13_766 10_665 ?
Se1 Cs1 Se2 70.61(2) 2_544 10_665 ?
Se1 Cs1 Se2 111.332(19) 13_765 10_665 ?
Se1 Cs1 Se2 107.70(3) 2_545 10_665 ?
Se1 Cs1 Se2 70.61(2) 13_766 2_645 ?
Se1 Cs1 Se2 179.00(4) 2_544 2_645 ?
Se1 Cs1 Se2 107.70(3) 13_765 2_645 ?
Se1 Cs1 Se2 111.332(19) 2_545 2_645 ?
Se2 Cs1 Se2 110.01(4) 10_665 2_645 ?
Se1 Cs1 Se2 111.332(19) 13_766 10_666 ?
Se1 Cs1 Se2 107.70(3) 2_544 10_666 ?
Se1 Cs1 Se2 179.00(4) 13_765 10_666 ?
Se1 Cs1 Se2 70.61(2) 2_545 10_666 ?
Se2 Cs1 Se2 68.27(3) 10_665 10_666 ?
Se2 Cs1 Se2 73.29(5) 2_645 10_666 ?
Se1 Cs1 Se2 107.70(3) 13_766 2_644 ?
Se1 Cs1 Se2 111.332(19) 2_544 2_644 ?
Se1 Cs1 Se2 70.61(2) 13_765 2_644 ?
Se1 Cs1 Se2 179.00(4) 2_545 2_644 ?
Se2 Cs1 Se2 73.29(5) 10_665 2_644 ?
Se2 Cs1 Se2 68.27(3) 2_645 2_644 ?
Se2 Cs1 Se2 110.01(4) 10_666 2_644 ?
Se1 Cs1 Cu2 105.10(4) 13_766 14_665 ?
Se1 Cs1 Cu2 38.56(2) 2_544 14_665 ?
Se1 Cs1 Cu2 105.10(4) 13_765 14_665 ?
Se1 Cs1 Cu2 38.56(2) 2_545 14_665 ?
Se2 Cs1 Cu2 73.92(3) 10_665 14_665 ?
Se2 Cs1 Cu2 142.23(3) 2_645 14_665 ?
Se2 Cs1 Cu2 73.92(3) 10_666 14_665 ?
Se2 Cs1 Cu2 142.23(3) 2_644 14_665 ?
Se1 Cs1 Cu2 38.56(2) 13_766 . ?
Se1 Cs1 Cu2 105.10(4) 2_544 . ?
Se1 Cs1 Cu2 38.56(2) 13_765 . ?
Se1 Cs1 Cu2 105.10(4) 2_545 . ?
Se2 Cs1 Cu2 142.23(3) 10_665 . ?
Se2 Cs1 Cu2 73.93(3) 2_645 . ?
Se2 Cs1 Cu2 142.23(3) 10_666 . ?
Se2 Cs1 Cu2 73.93(3) 2_644 . ?
Cu2 Cs1 Cu2 126.80(6) 14_665 . ?
Se1 Cs1 Cu1 143.26(5) 13_766 10_665 ?
Se1 Cs1 Cu1 39.02(3) 2_544 10_665 ?
Se1 Cs1 Cu1 103.25(3) 13_765 10_665 ?
Se1 Cs1 Cu1 78.18(3) 2_545 10_665 ?
Se2 Cs1 Cu1 35.87(3) 10_665 10_665 ?
Se2 Cs1 Cu1 141.84(5) 2_645 10_665 ?
Se2 Cs1 Cu1 75.88(3) 10_666 10_665 ?
Se2 Cs1 Cu1 102.70(3) 2_644 10_665 ?
Cu2 Cs1 Cu1 40.33(3) 14_665 10_665 ?
Cu2 Cs1 Cu1 141.36(4) . 10_665 ?
Se1 Cs1 Cu1 39.02(3) 13_766 5 ?
Se1 Cs1 Cu1 143.26(5) 2_544 5 ?
Se1 Cs1 Cu1 78.18(3) 13_765 5 ?
Se1 Cs1 Cu1 103.25(3) 2_545 5 ?
Se2 Cs1 Cu1 141.84(5) 10_665 5 ?
Se2 Cs1 Cu1 35.87(3) 2_645 5 ?
Se2 Cs1 Cu1 102.70(3) 10_666 5 ?
Se2 Cs1 Cu1 75.88(3) 2_644 5 ?
Cu2 Cs1 Cu1 141.36(4) 14_665 5 ?
Cu2 Cs1 Cu1 40.34(3) . 5 ?
Cu1 Cs1 Cu1 177.59(7) 10_665 5 ?
Se2 Cu1 Cu2 160.99(11) . 14_665 ?
Se2 Cu1 Se1 114.08(9) . 9_655 ?
Cu2 Cu1 Se1 84.92(8) 14_665 9_655 ?
Se2 Cu1 Se1 112.78(7) . 2_544 ?
Cu2 Cu1 Se1 57.61(5) 14_665 2_544 ?
Se1 Cu1 Se1 108.49(7) 9_655 2_544 ?
Se2 Cu1 Se1 112.78(7) . 2_545 ?
Cu2 Cu1 Se1 57.61(5) 14_665 2_545 ?
Se1 Cu1 Se1 108.49(7) 9_655 2_545 ?
Se1 Cu1 Se1 99.11(8) 2_544 2_545 ?
Se2 Cu1 Cu2 125.54(6) . 5_454 ?
Cu2 Cu1 Cu2 64.11(7) 14_665 5_454 ?
Se1 Cu1 Cu2 56.37(5) 9_655 5_454 ?
Se1 Cu1 Cu2 52.79(5) 2_544 5_454 ?
Se1 Cu1 Cu2 121.04(8) 2_545 5_454 ?
Se2 Cu1 Cu2 125.54(6) . 5_455 ?
Cu2 Cu1 Cu2 64.11(7) 14_665 5_455 ?
Se1 Cu1 Cu2 56.37(5) 9_655 5_455 ?
Se1 Cu1 Cu2 121.04(8) 2_544 5_455 ?
Se1 Cu1 Cu2 52.79(5) 2_545 5_455 ?
Cu2 Cu1 Cu2 94.80(9) 5_454 5_455 ?
Se2 Cu1 Cu3 54.11(6) . 10_676 ?
Cu2 Cu1 Cu3 115.45(8) 14_665 10_676 ?
Se1 Cu1 Cu3 126.05(6) 9_655 10_676 ?
Se1 Cu1 Cu3 124.85(10) 2_544 10_676 ?
Se1 Cu1 Cu3 58.97(6) 2_545 10_676 ?
Cu2 Cu1 Cu3 177.58(9) 5_454 10_676 ?
Cu2 Cu1 Cu3 87.01(3) 5_455 10_676 ?
Se2 Cu1 Cu3 54.11(6) . 10_675 ?
Cu2 Cu1 Cu3 115.45(8) 14_665 10_675 ?
Se1 Cu1 Cu3 126.05(6) 9_655 10_675 ?
Se1 Cu1 Cu3 58.97(6) 2_544 10_675 ?
Se1 Cu1 Cu3 124.85(10) 2_545 10_675 ?
Cu2 Cu1 Cu3 87.01(3) 5_454 10_675 ?
Cu2 Cu1 Cu3 177.58(9) 5_455 10_675 ?
Cu3 Cu1 Cu3 91.14(6) 10_676 10_675 ?
Se2 Cu1 Cs1 62.77(5) . 2_545 ?
Cu2 Cu1 Cs1 132.15(6) 14_665 2_545 ?
Se1 Cu1 Cs1 61.21(5) 9_655 2_545 ?
Se1 Cu1 Cs1 160.44(5) 2_544 2_545 ?
Se1 Cu1 Cs1 100.03(3) 2_545 2_545 ?
Cu2 Cu1 Cs1 112.55(7) 5_454 2_545 ?
Cu2 Cu1 Cs1 68.93(5) 5_455 2_545 ?
Cu3 Cu1 Cs1 69.60(7) 10_676 2_545 ?
Cu3 Cu1 Cs1 111.85(8) 10_675 2_545 ?
Se2 Cu1 Cs1 62.77(5) . 2_544 ?
Cu2 Cu1 Cs1 132.15(6) 14_665 2_544 ?
Se1 Cu1 Cs1 61.21(5) 9_655 2_544 ?
Se1 Cu1 Cs1 100.03(3) 2_544 2_544 ?
Se1 Cu1 Cs1 160.44(5) 2_545 2_544 ?
Cu2 Cu1 Cs1 68.93(5) 5_454 2_544 ?
Cu2 Cu1 Cs1 112.55(7) 5_455 2_544 ?
Cu3 Cu1 Cs1 111.85(8) 10_676 2_544 ?
Cu3 Cu1 Cs1 69.60(7) 10_675 2_544 ?
Cs1 Cu1 Cs1 60.62(3) 2_545 2_544 ?
Se2 Cu1 Cs1 95.85(7) . . ?
Cu2 Cu1 Cs1 65.15(6) 14_665 . ?
Se1 Cu1 Cs1 150.07(7) 9_655 . ?
Se1 Cu1 Cs1 56.14(4) 2_544 . ?
Se1 Cu1 Cs1 56.14(4) 2_545 . ?
Cu2 Cu1 Cs1 106.61(6) 5_454 . ?
Cu2 Cu1 Cs1 106.61(6) 5_455 . ?
Cu3 Cu1 Cs1 71.29(7) 10_676 . ?
Cu3 Cu1 Cs1 71.29(7) 10_675 . ?
Cs1 Cu1 Cs1 140.79(3) 2_545 . ?
Cs1 Cu1 Cs1 140.79(3) 2_544 . ?
Se1 Cu2 Se1 118.99(5) 14_665 13_765 ?
Se1 Cu2 Se1 118.99(5) 14_665 13_766 ?
Se1 Cu2 Se1 107.13(8) 13_765 13_766 ?
Se1 Cu2 Cu1 174.65(11) 14_665 14_665 ?
Se1 Cu2 Cu1 63.22(5) 13_765 14_665 ?
Se1 Cu2 Cu1 63.22(5) 13_766 14_665 ?
Se1 Cu2 Cu1 61.68(6) 14_665 5 ?
Se1 Cu2 Cu1 131.02(9) 13_765 5 ?
Se1 Cu2 Cu1 58.12(5) 13_766 5 ?
Cu1 Cu2 Cu1 121.15(5) 14_665 5 ?
Se1 Cu2 Cu1 61.68(6) 14_665 5_554 ?
Se1 Cu2 Cu1 58.12(5) 13_765 5_554 ?
Se1 Cu2 Cu1 131.02(9) 13_766 5_554 ?
Cu1 Cu2 Cu1 121.15(5) 14_665 5_554 ?
Cu1 Cu2 Cu1 94.80(9) 5 5_554 ?
Se1 Cu2 Cu2 83.32(9) 14_665 9_765 ?
Se1 Cu2 Cu2 113.41(7) 13_765 9_765 ?
Se1 Cu2 Cu2 113.41(7) 13_766 9_765 ?
Cu1 Cu2 Cu2 91.33(10) 14_665 9_765 ?
Cu1 Cu2 Cu2 115.11(7) 5 9_765 ?
Cu1 Cu2 Cu2 115.11(7) 5_554 9_765 ?
Se1 Cu2 Cu2 115.60(5) 14_665 10_676 ?
Se1 Cu2 Cu2 123.73(9) 13_765 10_676 ?
Se1 Cu2 Cu2 53.21(6) 13_766 10_676 ?
Cu1 Cu2 Cu2 61.24(7) 14_665 10_676 ?
Cu1 Cu2 Cu2 86.61(4) 5 10_676 ?
Cu1 Cu2 Cu2 175.48(9) 5_554 10_676 ?
Cu2 Cu2 Cu2 60.48(2) 9_765 10_676 ?
Se1 Cu2 Cu2 115.60(5) 14_665 10_675 ?
Se1 Cu2 Cu2 53.21(6) 13_765 10_675 ?
Se1 Cu2 Cu2 123.73(9) 13_766 10_675 ?
Cu1 Cu2 Cu2 61.24(7) 14_665 10_675 ?
Cu1 Cu2 Cu2 175.48(9) 5 10_675 ?
Cu1 Cu2 Cu2 86.61(4) 5_554 10_675 ?
Cu2 Cu2 Cu2 60.48(2) 9_765 10_675 ?
Cu2 Cu2 Cu2 91.66(8) 10_676 10_675 ?
Se1 Cu2 Cu2 56.86(6) 14_665 2_645 ?
Se1 Cu2 Cu2 172.02(7) 13_765 2_645 ?
Se1 Cu2 Cu2 80.57(4) 13_766 2_645 ?
Cu1 Cu2 Cu2 120.27(5) 14_665 2_645 ?
Cu1 Cu2 Cu2 54.65(6) 5 2_645 ?
Cu1 Cu2 Cu2 118.51(9) 5_554 2_645 ?
Cu2 Cu2 Cu2 60.48(2) 9_765 2_645 ?
Cu2 Cu2 Cu2 59.04(5) 10_676 2_645 ?
Cu2 Cu2 Cu2 120.96(5) 10_675 2_645 ?
Se1 Cu2 Cu2 56.86(6) 14_665 2_644 ?
Se1 Cu2 Cu2 80.57(4) 13_765 2_644 ?
Se1 Cu2 Cu2 172.02(7) 13_766 2_644 ?
Cu1 Cu2 Cu2 120.27(5) 14_665 2_644 ?
Cu1 Cu2 Cu2 118.51(9) 5 2_644 ?
Cu1 Cu2 Cu2 54.65(6) 5_554 2_644 ?
Cu2 Cu2 Cu2 60.48(2) 9_765 2_644 ?
Cu2 Cu2 Cu2 120.96(5) 10_676 2_644 ?
Cu2 Cu2 Cu2 59.04(5) 10_675 2_644 ?
Cu2 Cu2 Cu2 91.66(8) 2_645 2_644 ?
Se1 Cu2 Cs1 106.34(7) 14_665 . ?
Se1 Cu2 Cs1 62.24(5) 13_765 . ?
Se1 Cu2 Cs1 62.24(5) 13_766 . ?
Cu1 Cu2 Cs1 79.01(7) 14_665 . ?
Cu1 Cu2 Cs1 70.73(6) 5 . ?
Cu1 Cu2 Cs1 70.73(6) 5_554 . ?
Cu2 Cu2 Cs1 170.34(10) 9_765 . ?
Cu2 Cu2 Cs1 113.77(6) 10_676 . ?
Cu2 Cu2 Cs1 113.77(6) 10_675 . ?
Cu2 Cu2 Cs1 124.64(6) 2_645 . ?
Cu2 Cu2 Cs1 124.64(6) 2_644 . ?
Se2 Cu3 Se2 114.63(15) 2_644 2_645 ?
Se2 Cu3 Se1 110.21(3) 2_644 14_665 ?
Se2 Cu3 Se1 110.21(3) 2_645 14_665 ?
Se2 Cu3 Se1 110.21(3) 2_644 9_755 ?
Se2 Cu3 Se1 110.21(3) 2_645 9_755 ?
Se1 Cu3 Se1 100.47(12) 14_665 9_755 ?
Se2 Cu3 Cu1 127.08(8) 2_644 5 ?
Se2 Cu3 Cu1 53.19(4) 2_645 5 ?
Se1 Cu3 Cu1 57.30(4) 14_665 5 ?
Se1 Cu3 Cu1 122.41(9) 9_755 5 ?
Se2 Cu3 Cu1 53.19(4) 2_644 2_644 ?
Se2 Cu3 Cu1 127.07(8) 2_645 2_644 ?
Se1 Cu3 Cu1 122.41(9) 14_665 2_644 ?
Se1 Cu3 Cu1 57.30(4) 9_755 2_644 ?
Cu1 Cu3 Cu1 179.61(16) 5 2_644 ?
Se2 Cu3 Cu1 127.07(8) 2_644 2_645 ?
Se2 Cu3 Cu1 53.19(4) 2_645 2_645 ?
Se1 Cu3 Cu1 122.41(9) 14_665 2_645 ?
Se1 Cu3 Cu1 57.30(4) 9_755 2_645 ?
Cu1 Cu3 Cu1 88.86(6) 5 2_645 ?
Cu1 Cu3 Cu1 91.14(6) 2_644 2_645 ?
Se2 Cu3 Cu1 53.19(4) 2_644 5_554 ?
Se2 Cu3 Cu1 127.08(8) 2_645 5_554 ?
Se1 Cu3 Cu1 57.30(4) 14_665 5_554 ?
Se1 Cu3 Cu1 122.41(9) 9_755 5_554 ?
Cu1 Cu3 Cu1 91.14(6) 5 5_554 ?
Cu1 Cu3 Cu1 88.86(6) 2_644 5_554 ?
Cu1 Cu3 Cu1 179.61(16) 2_645 5_554 ?
Se2 Cu3 Cs1 62.40(7) 2_644 . ?
Se2 Cu3 Cs1 62.40(7) 2_645 . ?
Se1 Cu3 Cs1 98.83(4) 14_665 . ?
Se1 Cu3 Cs1 160.70(8) 9_755 . ?
Cu1 Cu3 Cs1 69.09(6) 5 . ?
Cu1 Cu3 Cs1 111.27(8) 2_644 . ?
Cu1 Cu3 Cs1 111.27(8) 2_645 . ?
Cu1 Cu3 Cs1 69.09(6) 5_554 . ?
Se2 Cu3 Cs1 62.40(7) 2_644 9_755 ?
Se2 Cu3 Cs1 62.40(7) 2_645 9_755 ?
Se1 Cu3 Cs1 160.70(8) 14_665 9_755 ?
Se1 Cu3 Cs1 98.83(4) 9_755 9_755 ?
Cu1 Cu3 Cs1 111.27(8) 5 9_755 ?
Cu1 Cu3 Cs1 69.09(6) 2_644 9_755 ?
Cu1 Cu3 Cs1 69.09(6) 2_645 9_755 ?
Cu1 Cu3 Cs1 111.27(8) 5_554 9_755 ?
Cs1 Cu3 Cs1 61.87(5) . 9_755 ?
Se2 Cu3 Cs1 150.66(9) 2_644 2_645 ?
Se2 Cu3 Cs1 94.72(6) 2_645 2_645 ?
Se1 Cu3 Cs1 55.60(5) 14_665 2_645 ?
Se1 Cu3 Cs1 55.60(5) 9_755 2_645 ?
Cu1 Cu3 Cs1 70.25(6) 5 2_645 ?
Cu1 Cu3 Cs1 109.39(8) 2_644 2_645 ?
Cu1 Cu3 Cs1 70.25(6) 2_645 2_645 ?
Cu1 Cu3 Cs1 109.39(8) 5_554 2_645 ?
Cs1 Cu3 Cs1 139.251(17) . 2_645 ?
Cs1 Cu3 Cs1 139.251(17) 9_755 2_645 ?
Se2 Cu3 Cs1 94.72(6) 2_644 2_644 ?
Se2 Cu3 Cs1 150.66(9) 2_645 2_644 ?
Se1 Cu3 Cs1 55.60(5) 14_665 2_644 ?
Se1 Cu3 Cs1 55.60(5) 9_755 2_644 ?
Cu1 Cu3 Cs1 109.39(8) 5 2_644 ?
Cu1 Cu3 Cs1 70.25(6) 2_644 2_644 ?
Cu1 Cu3 Cs1 109.39(8) 2_645 2_644 ?
Cu1 Cu3 Cs1 70.25(6) 5_554 2_644 ?
Cs1 Cu3 Cs1 139.251(17) . 2_644 ?
Cs1 Cu3 Cs1 139.251(17) 9_755 2_644 ?
Cs1 Cu3 Cs1 55.94(4) 2_645 2_644 ?
Cu2 Se1 Cu2 69.93(7) 14_665 13_755 ?
Cu2 Se1 Cu2 69.93(7) 14_665 13_756 ?
Cu2 Se1 Cu2 107.13(8) 13_755 13_756 ?
Cu2 Se1 Cu1 100.42(8) 14_665 9_655 ?
Cu2 Se1 Cu1 65.51(5) 13_755 9_655 ?
Cu2 Se1 Cu1 65.51(5) 13_756 9_655 ?
Cu2 Se1 Cu1 65.52(6) 14_665 10_666 ?
Cu2 Se1 Cu1 135.40(8) 13_755 10_666 ?
Cu2 Se1 Cu1 59.17(5) 13_756 10_666 ?
Cu1 Se1 Cu1 124.47(6) 9_655 10_666 ?
Cu2 Se1 Cu1 65.52(6) 14_665 10_665 ?
Cu2 Se1 Cu1 59.17(5) 13_755 10_665 ?
Cu2 Se1 Cu1 135.40(8) 13_756 10_665 ?
Cu1 Se1 Cu1 124.47(6) 9_655 10_665 ?
Cu1 Se1 Cu1 99.11(8) 10_666 10_665 ?
Cu2 Se1 Cu3 97.30(8) 14_665 9_755 ?
Cu2 Se1 Cu3 121.62(5) 13_755 9_755 ?
Cu2 Se1 Cu3 121.62(5) 13_756 9_755 ?
Cu1 Se1 Cu3 162.28(9) 9_655 9_755 ?
Cu1 Se1 Cu3 63.73(5) 10_666 9_755 ?
Cu1 Se1 Cu3 63.73(5) 10_665 9_755 ?
Cu2 Se1 Cs1 145.424(16) 14_665 10_665 ?
Cu2 Se1 Cs1 79.19(4) 13_755 10_665 ?
Cu2 Se1 Cs1 136.42(7) 13_756 10_665 ?
Cu1 Se1 Cs1 79.77(5) 9_655 10_665 ?
Cu1 Se1 Cs1 141.90(7) 10_666 10_665 ?
Cu1 Se1 Cs1 85.66(4) 10_665 10_665 ?
Cu3 Se1 Cs1 85.66(5) 9_755 10_665 ?
Cu2 Se1 Cs1 145.424(16) 14_665 10_666 ?
Cu2 Se1 Cs1 136.42(7) 13_755 10_666 ?
Cu2 Se1 Cs1 79.19(4) 13_756 10_666 ?
Cu1 Se1 Cs1 79.77(5) 9_655 10_666 ?
Cu1 Se1 Cs1 85.66(4) 10_666 10_666 ?
Cu1 Se1 Cs1 141.90(7) 10_665 10_666 ?
Cu3 Se1 Cs1 85.66(5) 9_755 10_666 ?
Cs1 Se1 Cs1 69.05(3) 10_665 10_666 ?
Cu1 Se2 Cu1 113.20(13) . 14_665 ?
Cu1 Se2 Cu3 72.70(5) . 10_676 ?
Cu1 Se2 Cu3 72.70(5) 14_665 10_676 ?
Cu1 Se2 Cu3 72.70(5) . 10_675 ?
Cu1 Se2 Cu3 72.70(5) 14_665 10_675 ?
Cu3 Se2 Cu3 114.63(15) 10_676 10_675 ?
Cu1 Se2 Cs1 143.83(2) . 10_676 ?
Cu1 Se2 Cs1 81.36(5) 14_665 10_676 ?
Cu3 Se2 Cs1 81.37(5) 10_676 10_676 ?
Cu3 Se2 Cs1 142.62(3) 10_675 10_676 ?
Cu1 Se2 Cs1 143.83(2) . 10_675 ?
Cu1 Se2 Cs1 81.36(5) 14_665 10_675 ?
Cu3 Se2 Cs1 142.62(3) 10_676 10_675 ?
Cu3 Se2 Cs1 81.37(5) 10_675 10_675 ?
Cs1 Se2 Cs1 68.27(3) 10_676 10_675 ?
Cu1 Se2 Cs1 81.36(5) . 2_544 ?
Cu1 Se2 Cs1 143.83(2) 14_665 2_544 ?
Cu3 Se2 Cs1 142.62(3) 10_676 2_544 ?
Cu3 Se2 Cs1 81.37(5) 10_675 2_544 ?
Cs1 Se2 Cs1 106.71(5) 10_676 2_544 ?
Cs1 Se2 Cs1 69.99(4) 10_675 2_544 ?
Cu1 Se2 Cs1 81.36(5) . 2_545 ?
Cu1 Se2 Cs1 143.83(2) 14_665 2_545 ?
Cu3 Se2 Cs1 81.37(5) 10_676 2_545 ?
Cu3 Se2 Cs1 142.62(3) 10_675 2_545 ?
Cs1 Se2 Cs1 69.99(4) 10_676 2_545 ?
Cs1 Se2 Cs1 106.71(5) 10_675 2_545 ?
Cs1 Se2 Cs1 68.27(3) 2_544 2_545 ?
loop_
_geom_bond_atom_site_label_1
_geom_bond_atom_site_label_2
_geom_bond_distance
_geom_bond_site_symmetry_2
_geom_bond_publ_flag
Cs1 Se1 3.5730(15) 13_766 ?
Cs1 Se1 3.5730(15) 2_544 ?
Cs1 Se1 3.5730(15) 13_765 ?
Cs1 Se1 3.5730(15) 2_545 ?
Cs1 Se2 3.6084(15) 10_665 ?
Cs1 Se2 3.6084(15) 2_645 ?
Cs1 Se2 3.6084(15) 10_666 ?
Cs1 Se2 3.6084(15) 2_644 ?
Cs1 Cu2 3.966(2) 14_665 ?
Cs1 Cu2 3.966(2) . ?
Cs1 Cu1 4.0121(17) 10_665 ?
Cs1 Cu1 4.0121(17) 5 ?
Cu1 Se2 2.378(2) . ?
Cu1 Cu2 2.559(3) 14_665 ?
Cu1 Se1 2.567(2) 9_655 ?
Cu1 Se1 2.6609(15) 2_544 ?
Cu1 Se1 2.6609(15) 2_545 ?
Cu1 Cu2 2.7509(19) 5_454 ?
Cu1 Cu2 2.7509(19) 5_455 ?
Cu1 Cu3 2.8356(14) 10_676 ?
Cu1 Cu3 2.8356(14) 10_675 ?
Cu1 Cs1 4.0121(17) 2_545 ?
Cu1 Cs1 4.0121(17) 2_544 ?
Cu2 Se1 2.407(2) 14_665 ?
Cu2 Se1 2.5169(14) 13_765 ?
Cu2 Se1 2.5169(14) 13_766 ?
Cu2 Cu1 2.559(3) 14_665 ?
Cu2 Cu1 2.7509(19) 5 ?
Cu2 Cu1 2.7509(19) 5_554 ?
Cu2 Cu2 2.782(4) 9_765 ?
Cu2 Cu2 2.8232(19) 10_676 ?
Cu2 Cu2 2.8232(19) 10_675 ?
Cu2 Cu2 2.8232(19) 2_645 ?
Cu2 Cu2 2.8232(19) 2_644 ?
Cu3 Se2 2.406(2) 2_644 ?
Cu3 Se2 2.406(2) 2_645 ?
Cu3 Se1 2.709(2) 14_665 ?
Cu3 Se1 2.709(2) 9_755 ?
Cu3 Cu1 2.8356(14) 5 ?
Cu3 Cu1 2.8356(14) 2_644 ?
Cu3 Cu1 2.8356(14) 2_645 ?
Cu3 Cu1 2.8356(14) 5_554 ?
Cu3 Cs1 4.026(3) 9_755 ?
Cu3 Cs1 4.318(3) 2_645 ?
Cu3 Cs1 4.318(3) 2_644 ?
Se1 Cu2 2.407(2) 14_665 ?
Se1 Cu2 2.5169(14) 13_755 ?
Se1 Cu2 2.5169(14) 13_756 ?
Se1 Cu1 2.567(2) 9_655 ?
Se1 Cu1 2.6609(15) 10_666 ?
Se1 Cu1 2.6609(15) 10_665 ?
Se1 Cu3 2.710(2) 9_755 ?
Se1 Cs1 3.5729(15) 10_665 ?
Se1 Cs1 3.5729(15) 10_666 ?
Se2 Cu1 2.378(2) 14_665 ?
Se2 Cu3 2.406(2) 10_676 ?
Se2 Cu3 2.406(2) 10_675 ?
Se2 Cs1 3.6084(15) 10_676 ?
Se2 Cs1 3.6084(15) 10_675 ?
Se2 Cs1 3.6084(15) 2_544 ?
Se2 Cs1 3.6084(15) 2_545 ?
