#------------------------------------------------------------------------------
#$Date: 2020-02-29 01:43:40 +0200 (Sat, 29 Feb 2020) $
#$Revision: 248537 $
#$URL: file:///home/coder/svn-repositories/cod/cif/4/13/42/4134270.cif $
#------------------------------------------------------------------------------
#
# This file is available in the Crystallography Open Database (COD),
# http://www.crystallography.net/
#
# All data on this site have been placed in the public domain by the
# contributors.
#
data_4134270
loop_
_publ_author_name
'Gao, Ji-Xing'
'Zhang, Wan-Ying'
'Wu, Zheng-Guang'
'Zheng, You-Xuan'
'Fu, Da-Wei'
_publ_section_title
;
 Enantiomorphic Perovskite Ferroelectrics with Circularly Polarized
 Luminescence.
;
_journal_name_full               'Journal of the American Chemical Society'
_journal_paper_doi               10.1021/jacs.9b13291
_journal_year                    2020
_chemical_absolute_configuration rm
_chemical_formula_moiety         'Br3 Mn, C4 H9 F N'
_chemical_formula_sum            'C4 H9 Br3 F Mn N'
_chemical_formula_weight         384.76
_space_group_crystal_system      monoclinic
_space_group_IT_number           4
_space_group_name_Hall           'P 2yb'
_space_group_name_H-M_alt        'P 1 21 1'
_atom_sites_solution_hydrogens   geom
_audit_creation_method           SHELXL-2014/7
_cell_angle_alpha                90
_cell_angle_beta                 113.669(3)
_cell_angle_gamma                90
_cell_formula_units_Z            2
_cell_length_a                   7.8558(4)
_cell_length_b                   6.7422(3)
_cell_length_c                   9.7844(5)
_cell_measurement_reflns_used    3447
_cell_measurement_temperature    223(2)
_cell_measurement_theta_max      30.3300
_cell_measurement_theta_min      2.8200
_cell_volume                     474.64(4)
_computing_cell_refinement       'CrysAlisPro 1.171.39.46 (Rigaku OD, 2018)'
_computing_data_collection       'CrysAlisPro 1.171.39.46 (Rigaku OD, 2018)'
_computing_data_reduction        'CrysAlisPro 1.171.39.46 (Rigaku OD, 2018)'
_computing_molecular_graphics    'DIAMOND (Brandenburg & Putz, 2005)'
_computing_publication_material  'SHELXL-2014/7 (Sheldrick, 2014)'
_computing_structure_refinement  'SHELXL-2014/7 (Sheldrick, 2014)'
_computing_structure_solution    'SHELXL-2014/7 (Sheldrick, 2014)'
_diffrn_ambient_temperature      223(2)
_diffrn_measured_fraction_theta_full 0.999
_diffrn_measured_fraction_theta_max 0.999
_diffrn_measurement_device_type  'XtaLAB Synergy R, DW system, HyPix'
_diffrn_measurement_method       'four-circle diffractometer'
_diffrn_radiation_type           MoK\a
_diffrn_radiation_wavelength     0.71073
_diffrn_reflns_av_R_equivalents  0.0899
_diffrn_reflns_av_unetI/netI     0.0665
_diffrn_reflns_Laue_measured_fraction_full 0.999
_diffrn_reflns_Laue_measured_fraction_max 0.999
_diffrn_reflns_limit_h_max       9
_diffrn_reflns_limit_h_min       -9
_diffrn_reflns_limit_k_max       8
_diffrn_reflns_limit_k_min       -8
_diffrn_reflns_limit_l_max       11
_diffrn_reflns_limit_l_min       -11
_diffrn_reflns_number            5357
_diffrn_reflns_point_group_measured_fraction_full 0.999
_diffrn_reflns_point_group_measured_fraction_max 0.999
_diffrn_reflns_theta_full        24.981
_diffrn_reflns_theta_max         24.981
_diffrn_reflns_theta_min         2.831
_diffrn_source                   'Rotating-anode X-ray tube'
_exptl_absorpt_coefficient_mu    13.965
_exptl_absorpt_correction_T_max  0.075
_exptl_absorpt_correction_T_min  0.061
_exptl_absorpt_correction_type   multi-scan
_exptl_absorpt_process_details   'CrysAlisPro 1.171.39.46 (Rigaku OD, 2018)'
_exptl_crystal_colour            Red
_exptl_crystal_density_diffrn    2.692
_exptl_crystal_description       Prism
_exptl_crystal_F_000             358
_exptl_crystal_size_max          0.210
_exptl_crystal_size_mid          0.200
_exptl_crystal_size_min          0.200
_refine_diff_density_max         1.508
_refine_diff_density_min         -1.180
_refine_diff_density_rms         0.255
_refine_ls_abs_structure_details
;
 Refined as an inversion twin.
;
_refine_ls_abs_structure_Flack   0.39(6)
_refine_ls_extinction_method     none
_refine_ls_goodness_of_fit_ref   1.003
_refine_ls_hydrogen_treatment    constr
_refine_ls_matrix_type           full
_refine_ls_number_parameters     92
_refine_ls_number_reflns         1661
_refine_ls_number_restraints     44
_refine_ls_restrained_S_all      0.994
_refine_ls_R_factor_all          0.0802
_refine_ls_R_factor_gt           0.0737
_refine_ls_shift/su_max          0.003
_refine_ls_shift/su_mean         0.001
_refine_ls_structure_factor_coef Fsqd
_refine_ls_weighting_details
'w=1/[\s^2^(Fo^2^)+(0.1233P)^2^+6.5174P] where P=(Fo^2^+2Fc^2^)/3'
_refine_ls_weighting_scheme      calc
_refine_ls_wR_factor_gt          0.1914
_refine_ls_wR_factor_ref         0.1968
_reflns_Friedel_coverage         0.829
_reflns_Friedel_fraction_full    1.000
_reflns_Friedel_fraction_max     1.000
_reflns_number_gt                1462
_reflns_number_total             1661
_reflns_threshold_expression     'I > 2\s(I)'
_cod_data_source_file            ja9b13291_si_002.cif
_cod_data_source_block           P21
_cod_original_sg_symbol_H-M      'P 21'
_cod_database_code               4134270
_shelx_shelxl_version_number     2014/7
_shelx_space_group_comment
;
The symmetry employed for this shelxl refinement is uniquely defined
by the following loop, which should always be used as a source of
symmetry information in preference to the above space-group names.
They are only intended as comments.
;
_shelx_estimated_absorpt_t_min   0.157
_shelx_estimated_absorpt_t_max   0.167
_shelx_res_file
;

    P21.res created by SHELXL-2014/7


TITL P21_1 in P2(1)
CELL 0.71073   7.8558   6.7422   9.7844  90.000 113.669  90.000
ZERR    2.00   0.0004   0.0003   0.0005   0.000   0.003   0.000
LATT -1
SYMM -X, 0.5+Y, -Z
SFAC C  H  N  F  Br Mn
UNIT 8 18 2 2 6 2
OMIT 0 50
L.S. 59
ACTA
BOND
FMAP 2
PLAN 5
TWIN
CONF
DFIX 1.50 0.01 N1 C1 C1 C2 C2 C3 C3 C4 C4 N1
DFIX 1.33 0.01 F1 C2
DFIX 2.10 0.02 F1 C1
ISOR 0.01 C1 C2 C3 F1 C4 N1
TEMP -50
SIZE 0.20 0.20 0.21
WGHT    0.123300    6.517400
BASF   0.38500
FVAR       0.20433
MN1   6    0.996718    1.001796    1.001482    11.00000    0.02765    0.01500 =
         0.04716   -0.00118    0.01953    0.00004
BR1   5    1.178102    0.751252    0.886102    11.00000    0.04243    0.01925 =
         0.05901   -0.00182    0.03460   -0.00234
BR2   5    1.118782    0.746184    1.236810    11.00000    0.04713    0.02317 =
         0.04149   -0.00930    0.01778   -0.00956
BR3   5    0.709117    0.751480    0.891359    11.00000    0.02596    0.02048 =
         0.05873   -0.00018    0.01416    0.00311
N1    3    0.360784    0.145905    0.767842    11.00000    0.05384    0.04135 =
         0.05609    0.00028    0.03422   -0.00257
AFIX  23
H1A   2    0.460113    0.090863    0.840933    11.00000   -1.20000
H1B   2    0.262145    0.133885    0.792004    11.00000   -1.20000
AFIX   0
C1    1    0.323007    0.044918    0.622529    11.00000    0.07552    0.06221 =
         0.06633   -0.00115    0.02104   -0.00025
AFIX  23
H1C   2    0.226390   -0.056327    0.602204    11.00000   -1.20000
H1D   2    0.435941   -0.018594    0.624005    11.00000   -1.20000
AFIX   0
C2    1    0.259160    0.205361    0.506631    11.00000    0.09472    0.08581 =
         0.07528   -0.00221    0.03661    0.00158
AFIX  13
H2    2    0.141306    0.180994    0.419196    11.00000   -1.20000
AFIX   0
C3    1    0.272732    0.397006    0.589115    11.00000    0.10086    0.09078 =
         0.09056    0.01185    0.03417   -0.00108
AFIX  23
H3A   2    0.324531    0.501494    0.547528    11.00000   -1.20000
H3B   2    0.149350    0.438909    0.580435    11.00000   -1.20000
AFIX   0
F1    4    0.414894    0.197792    0.482625    11.00000    0.19770    0.22786 =
         0.19251   -0.00269    0.09175   -0.00684
C4    1    0.397528    0.360471    0.749467    11.00000    0.04358    0.03201 =
         0.03663   -0.00062    0.02086   -0.00931
AFIX  23
H4A   2    0.363931    0.444989    0.816289    11.00000   -1.20000
H4B   2    0.528217    0.382917    0.767989    11.00000   -1.20000
AFIX   0
HKLF 4

REM  P21_1 in P2(1)
REM R1 =  0.0737 for    1462 Fo > 4sig(Fo)  and  0.0802 for all    1661 data
REM     92 parameters refined using     44 restraints

END

WGHT      0.1256      3.7273

REM Highest difference peak  1.508,  deepest hole -1.180,  1-sigma level  0.255
Q1    1   0.0451  0.2322  0.4852  11.00000  0.05    1.51
Q2    1   0.6815  0.7497  0.7991  11.00000  0.05    1.23
Q3    1   1.2298  0.7580  0.9776  11.00000  0.05    1.23
Q4    1   1.2346  0.7540  0.8251  11.00000  0.05    1.11
Q5    1   1.1783  0.7789  1.3406  11.00000  0.05    1.08
;
_shelx_res_checksum              94404
_shelx_hkl_file
;
   1  -9  -3    1.29    1.85
   0  -9  -3   59.73    3.18
   0  -9  -2   30.12    2.43
  -1  -9  -3    5.45    2.20
  -1  -9  -2    4.15    1.96
  -1  -9  -1    1.76    1.73
  -2  -9  -2    5.87    2.09
  -2  -9  -1   34.62    2.44
  -2  -9   0   41.24    2.39
  -3  -9  -2    0.83    2.02
  -3  -9  -1    0.02    1.77
   2  -8  -5  122.62    4.42
   2  -8  -4   25.14    2.41
   1  -8  -5   19.40    2.45
   1  -8  -4   12.92    2.13
   1  -8  -3    0.49    1.70
   1  -8  -2    1.42    1.53
   0  -8  -5    3.39    2.14
   0  -8  -4    4.42    4.05
   0  -8  -4    2.65    1.88
   0  -8  -3    5.16    3.93
   0  -8  -3    2.63    1.78
   0  -8  -2    0.68    1.59
   0  -8  -2    1.44    3.66
   0  -8  -1   86.02    3.08
   0  -8   0  212.53    9.73
   0  -8   1   77.06    6.05
   0  -8   2    1.78    3.41
   0  -8   3    3.88    3.42
   0  -8   4    6.44    3.40
  -1  -8  -6    5.58    4.32
  -1  -8  -5    2.04    4.09
  -1  -8  -5    2.66    2.06
  -1  -8  -4   18.66    5.03
  -1  -8  -4   17.29    2.25
  -1  -8  -3   14.28    5.28
  -1  -8  -3   11.03    1.99
  -1  -8  -2   -0.69    1.63
  -1  -8  -2    2.82    4.75
  -1  -8  -1    1.73    1.50
  -1  -8  -1    1.68    4.67
  -1  -8   0   35.27    2.04
  -1  -8   1   43.61    6.28
  -1  -8   2    1.43    4.47
  -1  -8   3    1.89    4.39
  -1  -8   4   15.00    4.60
  -1  -8   5   18.46    4.19
  -1  -8   6    4.04    3.31
  -1  -8   7    3.24    3.29
  -2  -8  -4   69.79    8.07
  -2  -8  -4   69.40    3.35
  -2  -8  -3  121.49    9.35
  -2  -8  -3  123.38    4.17
  -2  -8  -2   24.37    2.14
  -2  -8  -2   26.86    6.09
  -2  -8  -1    3.79    5.14
  -2  -8  -1    4.56    1.60
  -2  -8   0    7.29    1.53
  -2  -8   1    3.25    1.24
  -2  -8   1    3.96    5.09
  -2  -8   2    6.65    4.99
  -2  -8   3    2.83    4.66
  -2  -8   4   24.90    5.45
  -2  -8   5  116.36    8.17
  -2  -8   6   72.50    6.86
  -2  -8   7    7.19    4.32
  -3  -8  -3   36.84    2.69
  -3  -8  -3   32.87    7.02
  -3  -8  -2   27.33    2.24
  -3  -8  -2   31.16    6.94
  -3  -8  -1    1.75    1.53
  -3  -8  -1   -1.53    5.54
  -3  -8   0    0.40    1.38
  -3  -8   0   -0.96    5.44
  -3  -8   1    7.64    1.39
  -3  -8   2    6.05    5.43
  -3  -8   3   -0.87    4.95
  -3  -8   4    0.24    4.84
  -3  -8   5   23.25    5.70
  -3  -8   6   26.74    5.83
  -4  -8  -3    3.36    2.30
  -4  -8  -2    3.83    2.00
  -4  -8  -1    2.97    1.67
  -4  -8   0    0.94    1.43
  -4  -8   0    0.97    5.44
  -4  -8   1   47.77    2.18
  -4  -8   2  114.62    3.13
  -4  -8   2  114.30    9.41
  -4  -8   3   47.32    7.09
  -4  -8   4   -0.62    5.03
  -5  -8  -2    2.53    2.24
  -5  -8  -1    3.19    1.98
  -5  -8   0    1.16    1.56
   3  -7  -6   -0.12    1.83
   3  -7  -5    4.85    1.80
   2  -7  -7   13.04    2.30
   2  -7  -6    0.47    1.88
   2  -7  -5    0.71    1.78
   2  -7  -4   12.28    1.83
   2  -7  -3   94.26    3.39
   1  -7  -7    0.53    1.91
   1  -7  -6   12.87    2.15
   1  -7  -5    2.15    1.75
   1  -7  -4   15.67    1.91
   1  -7  -3   11.95    1.76
   1  -7  -2    7.74    1.48
   1  -7  -2    6.83    3.29
   1  -7   0   12.64    3.39
   1  -7   1    8.07    3.26
   0  -7  -7    7.47    2.24
   0  -7  -6   37.56    2.67
   0  -7  -5   27.47    4.34
   0  -7  -5   37.45    2.49
   0  -7  -4   17.12    3.88
   0  -7  -4   17.63    1.91
   0  -7  -3  129.79    7.51
   0  -7  -3  154.41    4.35
   0  -7  -2   78.65    2.91
   0  -7  -2   72.03    6.05
   0  -7  -1    5.42    1.34
   0  -7   0    0.87    3.44
   0  -7   1    5.10    3.55
   0  -7   2   66.13    5.41
   0  -7   3  121.92    6.72
   0  -7   4   19.58    3.46
   0  -7   5   25.80    3.58
   0  -7   5   32.24    1.41
  -1  -7  -6    2.84    2.15
  -1  -7  -6    4.38    3.49
  -1  -7  -5   16.48    2.13
  -1  -7  -5   14.45    4.18
  -1  -7  -4    2.47    4.23
  -1  -7  -4    3.09    1.61
  -1  -7  -3   18.59    1.87
  -1  -7  -3   23.32    5.00
  -1  -7  -2   11.82    1.55
  -1  -7  -2   14.45    4.51
  -1  -7  -1    7.81    4.22
  -1  -7  -1    6.85    1.38
  -1  -7   0   10.16    1.32
  -1  -7   1    7.37    4.10
  -1  -7   2    9.33    4.03
  -1  -7   3    7.35    3.79
  -1  -7   4   16.85    4.24
  -1  -7   5    3.01    0.84
  -1  -7   5    3.31    3.62
  -1  -7   6   10.92    1.06
  -1  -7   6    9.58    3.48
  -1  -7   7    1.51    2.73
  -2  -7  -7   11.17    3.98
  -2  -7  -6   40.25    3.28
  -2  -7  -5   11.27    4.92
  -2  -7  -5   15.48    2.46
  -2  -7  -4    5.53    1.93
  -2  -7  -4    4.26    4.53
  -2  -7  -3    3.42    1.75
  -2  -7  -3    2.67    4.60
  -2  -7  -2   12.05    1.64
  -2  -7  -2   14.56    4.92
  -2  -7  -1   97.85    7.78
  -2  -7  -1   88.90    2.93
  -2  -7   0  104.44    3.10
  -2  -7   1   -0.10    4.24
  -2  -7   1    0.14    1.02
  -2  -7   2  102.58    7.62
  -2  -7   3   89.86    7.16
  -2  -7   4   11.97    4.30
  -2  -7   4   11.42    0.77
  -2  -7   5    2.37    3.97
  -2  -7   5    1.62    0.68
  -2  -7   6    3.27    3.77
  -2  -7   6    1.76    0.76
  -2  -7   7   19.38    4.41
  -2  -7   8   40.85    4.82
  -3  -7  -6   14.11    5.32
  -3  -7  -5    5.49    2.16
  -3  -7  -5    3.79    5.06
  -3  -7  -4    1.34    1.85
  -3  -7  -4   -1.40    5.00
  -3  -7  -3   -1.77    4.91
  -3  -7  -3    1.09    1.80
  -3  -7  -2    6.68    1.74
  -3  -7  -2    0.23    4.56
  -3  -7  -1    3.10    4.33
  -3  -7  -1    2.25    1.42
  -3  -7   0   23.83    5.22
  -3  -7   0   27.92    1.70
  -3  -7   1   14.21    1.36
  -3  -7   2   10.02    4.44
  -3  -7   2   12.36    1.16
  -3  -7   3   20.03    4.81
  -3  -7   4    0.19    3.77
  -3  -7   4    0.74    0.50
  -3  -7   5    4.56    0.74
  -3  -7   5    5.55    4.11
  -3  -7   6   -1.50    4.31
  -3  -7   7    1.97    3.98
  -3  -7   8    2.95    3.87
  -3  -7   9    4.12    3.88
  -4  -7  -6   -0.97    4.88
  -4  -7  -5   -0.36    5.26
  -4  -7  -4   24.31    2.79
  -4  -7  -4   16.06    6.01
  -4  -7  -3   14.30    5.37
  -4  -7  -3   17.93    2.28
  -4  -7  -2    6.96    4.79
  -4  -7  -2   10.01    1.84
  -4  -7  -1   81.69    3.12
  -4  -7  -1   75.51    7.58
  -4  -7   0   39.88    6.28
  -4  -7   0   46.09    2.27
  -4  -7   1    3.26    1.09
  -4  -7   2    0.46    0.96
  -4  -7   3    2.23    0.81
  -4  -7   4   34.06    5.48
  -4  -7   5   73.90    6.81
  -4  -7   6   12.22    4.48
  -4  -7   7   11.19    4.49
  -4  -7   8   19.22    4.92
  -4  -7   9    2.53    4.19
  -5  -7  -4    9.19    5.51
  -5  -7  -3   19.00    2.67
  -5  -7  -3   14.17    5.85
  -5  -7  -2    1.50    2.08
  -5  -7  -2    1.31    5.28
  -5  -7  -1   11.23    5.34
  -5  -7  -1   11.85    1.96
  -5  -7   0   18.15    5.47
  -5  -7   0   19.19    1.72
  -5  -7   1    2.50    1.39
  -5  -7   1    1.63    4.72
  -5  -7   2    1.04    0.99
  -5  -7   3   -2.16    4.72
  -5  -7   3    0.56    0.83
  -5  -7   4    2.63    4.58
  -5  -7   5   18.78    5.22
  -5  -7   6   10.15    4.76
  -5  -7   6   12.64    1.53
  -5  -7   7    0.62    4.43
  -5  -7   8   11.33    4.64
  -5  -7   9    3.85    4.30
  -6  -7  -2    2.05    2.04
  -6  -7  -1    3.02    2.04
  -6  -7   0    4.34    1.82
  -6  -7   1   24.27    1.82
  -6  -7   1   22.86    6.75
  -6  -7   2   29.18    1.75
  -6  -7   3    1.32    5.80
  -6  -7   4   27.88    6.64
  -6  -7   5   24.15    6.31
  -6  -7   6    9.26    1.83
  -7  -7  -1    1.33    2.09
  -7  -7   0    0.71    1.84
   6  -6 -10    1.02    3.09
   6  -6  -9   -3.44    3.40
   6  -6  -8    5.11    3.29
   5  -6 -10   -3.39    3.06
   5  -6  -9    6.37    2.78
   5  -6  -8   14.37    2.17
   5  -6  -8    9.42    2.86
   4  -6 -10    3.40    2.58
   4  -6  -9    3.68    2.49
   4  -6  -9    4.55    2.15
   4  -6  -8   47.02    2.90
   4  -6  -8   41.21    3.25
   4  -6  -7   37.60    3.20
   4  -6  -7   51.36    2.82
   3  -6  -9    1.01    2.12
   3  -6  -9    3.33    2.05
   3  -6  -8   27.17    2.40
   3  -6  -8   18.26    2.41
   3  -6  -7    4.67    2.09
   3  -6  -7    8.73    1.94
   3  -6  -4   49.47    2.43
   2  -6  -9    7.57    2.15
   2  -6  -8   16.00    2.14
   2  -6  -8    6.05    1.83
   2  -6  -5   81.63    3.11
   2  -6  -4    0.51    1.35
   2  -6  -3  118.43    3.56
   2  -6  -2  147.19    3.95
   1  -6  -6   22.60    2.06
   1  -6  -5    2.66    1.41
   1  -6  -4    4.02    1.42
   1  -6  -3   76.00    5.24
   1  -6  -3   93.27    3.04
   1  -6  -2   58.59    2.34
   1  -6  -2   51.72    4.44
   1  -6  -1    2.74    1.07
   1  -6   0    1.48    2.32
   1  -6   1   43.84    3.93
   1  -6   2   75.37    4.84
   1  -6   5   26.69    1.30
   0  -6  -6   91.78    3.66
   0  -6  -5   87.86    3.16
   0  -6  -5   66.63    4.99
   0  -6  -4   76.51    2.80
   0  -6  -4   65.39    5.39
   0  -6  -3  110.15    3.33
   0  -6  -3  106.77    6.82
   0  -6  -2   54.60    2.27
   0  -6  -2   55.69    5.32
   0  -6  -1   34.73    1.77
   0  -6   0  194.44    8.62
   0  -6   0  177.99    4.21
   0  -6   1   38.38    4.47
   0  -6   2   53.14    4.93
   0  -6   3  102.67    6.21
   0  -6   4   61.77    4.66
   0  -6   4   74.77    1.86
   0  -6   5   72.70    4.54
   0  -6   5   74.98    1.94
   0  -6   6   72.01    1.94
   0  -6   6   69.91    4.41
  -1  -6  -7    0.02    2.00
  -1  -6  -7    2.28    2.86
  -1  -6  -6   31.88    4.22
  -1  -6  -6   30.60    2.42
  -1  -6  -5   29.61    4.85
  -1  -6  -5   26.02    2.25
  -1  -6  -4    1.43    3.61
  -1  -6  -4    3.13    1.54
  -1  -6  -3    6.50    1.47
  -1  -6  -3    4.02    3.61
  -1  -6  -2   93.40    6.68
  -1  -6  -2   90.64    2.84
  -1  -6  -1   52.53    5.24
  -1  -6  -1   54.31    2.02
  -1  -6   0    1.91    0.93
  -1  -6   1    3.87    3.20
  -1  -6   1    2.28    0.84
  -1  -6   2   53.19    5.02
  -1  -6   3   87.01    1.85
  -1  -6   3   84.82    6.02
  -1  -6   4    2.43    0.58
  -1  -6   4    2.75    3.10
  -1  -6   5    3.19    0.68
  -1  -6   5    4.12    3.11
  -1  -6   6   17.93    3.64
  -1  -6   6   15.79    0.98
  -1  -6   7   29.03    3.48
  -1  -6   8    3.04    2.35
  -2  -6  -7    7.12    3.33
  -2  -6  -7    8.48    2.53
  -2  -6  -6   22.17    2.56
  -2  -6  -6   18.95    4.57
  -2  -6  -5    6.11    1.94
  -2  -6  -5    6.31    3.99
  -2  -6  -4   41.12    5.51
  -2  -6  -4   38.11    2.36
  -2  -6  -3   78.20    2.82
  -2  -6  -3   77.31    6.50
  -2  -6  -2    0.26    1.28
  -2  -6  -2    1.23    3.50
  -2  -6  -1  103.21    6.88
  -2  -6  -1  124.30    3.42
  -2  -6   0  146.32    3.55
  -2  -6   1  108.76    6.66
  -2  -6   1  108.20    2.78
  -2  -6   2  136.06    3.16
  -2  -6   2  142.59    7.49
  -2  -6   3   98.07    1.91
  -2  -6   3  101.36    6.42
  -2  -6   4   -0.75    3.05
  -2  -6   4    0.68    0.56
  -2  -6   5   68.21    1.66
  -2  -6   5   73.51    5.66
  -2  -6   6   32.71    4.42
  -2  -6   6   33.36    1.19
  -2  -6   7    3.61    0.82
  -2  -6   7    2.08    3.25
  -2  -6   7    1.94    0.49
  -2  -6   8   17.16    3.60
  -2  -6   9    9.63    2.86
  -3  -6  -7    0.08    3.93
  -3  -6  -6    8.15    4.39
  -3  -6  -6    6.65    2.28
  -3  -6  -5   33.87    2.63
  -3  -6  -5   22.63    5.09
  -3  -6  -4    7.67    1.91
  -3  -6  -4    2.91    4.02
  -3  -6  -3   12.25    4.18
  -3  -6  -3   13.88    1.92
  -3  -6  -2    3.53    1.44
  -3  -6  -2    3.86    3.80
  -3  -6  -1   46.81    2.05
  -3  -6  -1   42.24    5.15
  -3  -6   0   56.71    5.67
  -3  -6   0   70.28    2.39
  -3  -6   1    7.70    0.97
  -3  -6   2    7.60    0.91
  -3  -6   2    7.08    3.42
  -3  -6   3   55.95    5.31
  -3  -6   3   59.70    1.30
  -3  -6   4   42.94    4.92
  -3  -6   4   41.53    1.15
  -3  -6   5    2.80    0.73
  -3  -6   5    1.49    3.22
  -3  -6   5    1.97    0.64
  -3  -6   6    8.23    0.81
  -3  -6   6   11.39    0.94
  -3  -6   6    7.53    3.38
  -3  -6   7    7.75    3.39
  -3  -6   7    8.54    0.91
  -3  -6   7    5.87    1.03
  -3  -6   8   24.66    4.20
  -3  -6   8   20.53    1.37
  -3  -6   9    6.04    3.44
  -4  -6  -6    2.19    4.36
  -4  -6  -5    7.23    2.30
  -4  -6  -5    3.79    4.25
  -4  -6  -4   57.78    3.06
  -4  -6  -4   45.40    5.87
  -4  -6  -3   52.09    2.73
  -4  -6  -3   41.96    5.74
  -4  -6  -2   42.64    2.37
  -4  -6  -2   37.41    5.41
  -4  -6  -1   59.09    2.46
  -4  -6  -1   53.94    6.07
  -4  -6   0   30.23    4.98
  -4  -6   0   31.49    1.83
  -4  -6   1   13.92    1.22
  -4  -6   2   86.68    2.30
  -4  -6   2   82.76    1.54
  -4  -6   2   90.18    1.54
  -4  -6   2   89.41    7.03
  -4  -6   3   14.18    0.91
  -4  -6   3   19.35    4.58
  -4  -6   3   17.60    0.69
  -4  -6   4   23.39    0.93
  -4  -6   4   23.30    4.40
  -4  -6   5   47.84    1.44
  -4  -6   5   47.70    5.33
  -4  -6   6   34.35    1.29
  -4  -6   6   36.75    4.73
  -4  -6   6   43.26    1.73
  -4  -6   7   50.55    2.00
  -4  -6   7   40.97    1.43
  -4  -6   8   48.01    5.01
  -4  -6   8   45.33    2.06
  -4  -6   9    3.77    3.46
  -5  -6  -5    2.08    4.33
  -5  -6  -4   14.79    2.48
  -5  -6  -4    8.19    4.88
  -5  -6  -3   17.50    5.03
  -5  -6  -3   20.43    2.34
  -5  -6  -2   10.74    4.90
  -5  -6  -2    8.78    1.88
  -5  -6  -1   16.24    1.88
  -5  -6  -1   16.60    5.51
  -5  -6   0   49.49    2.25
  -5  -6   0   50.59    6.72
  -5  -6   1    9.57    0.37
  -5  -6   1    8.60    0.38
  -5  -6   2   10.94    1.08
  -5  -6   2   12.17    0.57
  -5  -6   2   10.46    0.58
  -5  -6   3   10.43    0.88
  -5  -6   3    9.39    0.63
  -5  -6   4    9.71    0.72
  -5  -6   4    8.94    0.63
  -5  -6   5   53.34    1.95
  -5  -6   5   47.76    5.97
  -5  -6   6   10.62    0.91
  -5  -6   6   12.92    4.73
  -5  -6   6   20.03    1.61
  -5  -6   7    8.12    1.56
  -5  -6   7    4.70    0.90
  -5  -6   8   13.39    4.21
  -5  -6   8   19.44    1.79
  -5  -6   9   10.95    1.73
  -5  -6  10    3.03    3.65
  -6  -6  -4    3.97    4.77
  -6  -6  -3    3.08    2.22
  -6  -6  -3    2.84    4.86
  -6  -6  -2   10.60    2.11
  -6  -6  -2    5.65    5.52
  -6  -6  -1   18.90    2.10
  -6  -6   0    1.28    1.51
  -6  -6   1   37.17    1.99
  -6  -6   1   32.18    0.96
  -6  -6   2   47.85    1.94
  -6  -6   2   47.08    1.20
  -6  -6   3   31.03    1.36
  -6  -6   3   33.77    1.15
  -6  -6   4   45.31    1.39
  -6  -6   4   41.27    1.29
  -6  -6   5   42.98    2.03
  -6  -6   5   37.55    1.39
  -6  -6   6    1.08    1.52
  -6  -6   7   22.96    2.05
  -6  -6   8   11.00    1.80
  -6  -6   8    8.80    4.85
  -6  -6   9    5.58    4.21
  -6  -6   9    0.25    1.78
  -6  -6  10    5.50    4.00
  -7  -6  -2    1.34    2.23
  -7  -6  -1    9.19    2.18
  -7  -6   0    4.05    1.84
  -7  -6   1    7.44    1.63
  -7  -6   2   25.36    1.77
  -7  -6   3   13.03    1.23
  -7  -6   3   14.93    0.88
  -7  -6   4   19.50    2.03
  -7  -6   5   28.14    2.05
  -7  -6   6    9.85    1.84
  -7  -6   7    4.67    1.88
  -7  -6   8    8.77    2.05
  -7  -6   9   -1.19    1.88
  -8  -6   0    8.99    2.21
  -8  -6   1   10.97    1.98
  -8  -6   4   17.91    2.30
  -8  -6   5    2.46    1.76
  -8  -6   6    6.89    1.76
  -8  -6   7   11.16    2.05
  -8  -6   8    9.28    2.23
   8  -5  -8    1.01    3.26
   8  -5  -7   39.64    4.26
   8  -5  -7   22.89    3.68
   8  -5  -6   21.97    3.90
   8  -5  -5    0.79    3.41
   8  -5  -4   -0.59    3.27
   8  -5  -2   16.81    3.37
   8  -5  -1   27.91    3.47
   7  -5 -10    8.42    3.09
   7  -5  -9   -1.18    2.94
   7  -5  -8   -1.93    2.93
   7  -5  -6    6.53    2.93
   7  -5  -5   48.87    3.92
   7  -5  -4   15.13    3.11
   7  -5  -2   48.48    3.77
   6  -5 -11    0.83    3.14
   6  -5 -10   19.86    3.33
   6  -5  -9    6.04    2.63
   6  -5  -8   -0.60    2.43
   6  -5  -7    1.64    2.38
   6  -5  -6    9.91    2.71
   5  -5 -12   -2.38    2.94
   5  -5 -10    1.37    1.94
   5  -5 -10   -1.94    2.75
   5  -5  -9    0.72    1.77
   5  -5  -9   -3.77    2.77
   5  -5  -8   30.82    2.77
   5  -5  -8   22.87    2.23
   5  -5  -7    5.05    2.21
   5  -5  -6   27.35    2.74
   5  -5   3   29.66    1.61
   4  -5 -11   -1.43    2.31
   4  -5 -10    0.64    1.94
   4  -5 -10    0.18    2.31
   4  -5  -9    5.29    2.19
   4  -5  -9    8.46    2.03
   4  -5  -8   40.69    2.86
   4  -5  -8   39.57    2.60
   4  -5  -7   24.26    2.30
   4  -5  -7   23.85    2.04
   4  -5  -6   20.53    1.85
   4  -5  -6   19.49    2.20
   4  -5  -5  147.66    4.10
   4  -5  -5  138.99    4.65
   4  -5   3   20.06    1.05
   4  -5   4   38.41    1.51
   3  -5 -11    6.48    1.93
   3  -5 -10   -0.84    1.90
   3  -5 -10   -1.32    1.79
   3  -5  -9    8.89    2.04
   3  -5  -9    5.47    1.93
   3  -5  -8    3.86    1.74
   3  -5  -8    0.64    1.84
   3  -5  -7    7.31    1.72
   3  -5  -7    7.33    1.59
   3  -5  -6    1.49    1.37
   3  -5  -6    2.27    1.59
   3  -5  -5   15.04    1.89
   3  -5   4    3.03    0.55
   3  -5   5    9.76    0.98
   2  -5 -10    2.11    1.47
   2  -5 -10    3.94    1.98
   2  -5  -9   14.42    1.70
   2  -5  -9   20.66    2.15
   2  -5  -8   55.46    2.53
   2  -5  -8   62.69    2.86
   2  -5  -7   10.40    1.70
   2  -5  -7   14.53    1.71
   2  -5  -6    0.36    1.32
   2  -5  -6    0.59    1.23
   2  -5  -5    3.46    1.40
   2  -5  -3  197.87    4.74
   2  -5  -2  225.11    5.09
   2  -5   4    0.98    0.82
   2  -5   5   17.68    1.14
   2  -5   6   67.87    1.63
   1  -5 -10    9.28    2.39
   1  -5  -9   -0.09    1.19
   1  -5  -9    2.66    1.97
   1  -5  -8    9.24    1.38
   1  -5  -8   17.94    2.19
   1  -5  -7    0.05    1.27
   1  -5  -7    3.28    1.64
   1  -5  -6   15.60    1.40
   1  -5  -4   51.33    2.13
   1  -5  -3   29.67    1.61
   1  -5  -3   19.84    2.94
   1  -5  -2   32.61    1.60
   1  -5  -2   25.15    3.01
   1  -5  -1   23.84    1.37
   1  -5   0   21.65    2.79
   1  -5   1   24.43    2.88
   1  -5   2   30.13    3.03
   1  -5   3   47.27    3.61
   1  -5   3   55.28    1.47
   1  -5   4   10.08    0.83
   1  -5   5   27.57    2.77
   1  -5   5   37.57    1.32
   1  -5   6    2.95    0.43
   1  -5   6    1.85    0.46
   1  -5   6    1.44    1.96
   1  -5   7    4.22    2.10
   1  -5   7    7.00    0.95
   0  -5  -9    1.78    2.03
   0  -5  -8    0.30    1.65
   0  -5  -8    0.44    1.07
   0  -5  -7    6.39    0.99
   0  -5  -6   68.04    4.41
   0  -5  -5   56.71    2.54
   0  -5  -5   44.67    3.93
   0  -5  -4   30.00    3.88
   0  -5  -4   35.68    1.92
   0  -5  -3  279.38    9.86
   0  -5  -3  280.43    5.94
   0  -5  -2  178.95    7.64
   0  -5  -2  181.58    4.16
   0  -5  -1   13.53    1.11
   0  -5   0   -0.31    0.74
   0  -5   0    0.43    2.45
   0  -5   1   13.32    2.83
   0  -5   2  172.46    5.81
   0  -5   2  169.78    7.16
   0  -5   2  184.65    3.36
   0  -5   3  258.38    8.96
   0  -5   3  264.00    4.76
   0  -5   3  259.36    7.64
   0  -5   4   24.08    2.51
   0  -5   4   30.01    3.44
   0  -5   4   25.70    0.92
   0  -5   5   42.95    1.24
   0  -5   5   39.73    3.31
   0  -5   6   74.09    3.93
   0  -5   6   56.49    1.04
   0  -5   6   71.75    1.60
   0  -5   6   34.75    0.99
   0  -5   6   50.90    3.00
   0  -5   7    9.96    0.97
   0  -5   7    5.70    2.21
   0  -5   7    7.70    0.55
   0  -5   8    2.33    1.08
   0  -5   8    1.32    0.56
   0  -5   9    3.63    1.31
  -1  -5  -8   -0.70    2.17
  -1  -5  -7    6.60    2.57
  -1  -5  -6    3.22    2.98
  -1  -5  -5   39.70    4.36
  -1  -5  -5   40.60    2.37
  -1  -5  -4    9.46    1.44
  -1  -5  -4    7.66    3.19
  -1  -5  -3   51.82    2.05
  -1  -5  -3   54.13    4.80
  -1  -5  -2   33.11    4.02
  -1  -5  -2   35.47    1.73
  -1  -5  -1   25.29    3.67
  -1  -5  -1   32.18    1.43
  -1  -5   0   22.63    1.14
  -1  -5   1   23.24    1.16
  -1  -5   1   19.67    3.19
  -1  -5   1   24.43    2.65
  -1  -5   2   31.05    0.81
  -1  -5   2   27.25    3.62
  -1  -5   3   16.21    1.70
  -1  -5   3   24.81    0.80
  -1  -5   3   19.10    3.27
  -1  -5   4   47.06    3.63
  -1  -5   4   40.33    1.14
  -1  -5   4   41.59    4.07
  -1  -5   5    9.57    2.75
  -1  -5   5   10.90    2.89
  -1  -5   5    9.62    0.71
  -1  -5   6   31.14    3.54
  -1  -5   6   27.40    1.09
  -1  -5   6   29.41    3.48
  -1  -5   6   30.73    1.01
  -1  -5   7    3.56    0.76
  -1  -5   7    1.78    2.45
  -1  -5   7    3.13    0.93
  -1  -5   8   14.95    2.34
  -1  -5   8   11.32    1.29
  -1  -5   9   -0.29    1.32
  -2  -5  -8    2.96    2.35
  -2  -5  -7   18.99    3.58
  -2  -5  -6   78.98    3.28
  -2  -5  -6   61.53    5.19
  -2  -5  -5   20.93    1.96
  -2  -5  -5   15.93    3.72
  -2  -5  -4   -1.23    3.05
  -2  -5  -4    0.87    1.27
  -2  -5  -3    4.66    1.19
  -2  -5  -3    4.87    2.97
  -2  -5  -2   37.91    1.87
  -2  -5  -2   26.24    3.86
  -2  -5  -1  165.95    7.71
  -2  -5  -1  189.36    4.22
  -2  -5   0  235.93    4.90
  -2  -5   1    0.59    0.62
  -2  -5   1   -0.13    2.38
  -2  -5   1    2.20    2.10
  -2  -5   2  190.58    3.25
  -2  -5   2  195.65    3.83
  -2  -5   3  170.24    7.36
  -2  -5   3  168.22    3.11
  -2  -5   4   29.40    3.61
  -2  -5   4   28.97    0.91
  -2  -5   4   28.07    0.97
  -2  -5   5    4.31    2.56
  -2  -5   5    4.58    0.72
  -2  -5   5    6.12    0.64
  -2  -5   5    5.54    2.82
  -2  -5   6    1.27    0.75
  -2  -5   6    0.63    2.46
  -2  -5   6    0.76    0.64
  -2  -5   7   16.19    3.22
  -2  -5   7   16.71    1.10
  -2  -5   7   16.18    0.92
  -2  -5   8   67.42    4.55
  -2  -5   8   68.46    2.32
  -2  -5   9   19.47    1.70
  -2  -5   9   24.36    3.26
  -2  -5  10    1.93    1.62
  -3  -5  -7    1.64    2.25
  -3  -5  -7    3.49    3.29
  -3  -5  -6   17.82    4.05
  -3  -5  -6   22.72    2.45
  -3  -5  -5   12.56    3.63
  -3  -5  -5   12.04    1.98
  -3  -5  -4    6.98    1.67
  -3  -5  -4    3.14    3.20
  -3  -5  -3    3.67    1.40
  -3  -5  -3    5.05    3.16
  -3  -5  -2   18.20    1.56
  -3  -5  -2   14.09    3.49
  -3  -5  -1    1.41    0.98
  -3  -5   0   72.81    5.73
  -3  -5   0   75.63    2.30
  -3  -5   0   74.90    4.09
  -3  -5   1   34.31    2.90
  -3  -5   1   33.46    1.29
  -3  -5   2   33.27    0.82
  -3  -5   2   39.05    3.55
  -3  -5   2   33.99    4.26
  -3  -5   2   32.88    1.18
  -3  -5   3   61.17    1.41
  -3  -5   3   58.93    1.55
  -3  -5   4    0.93    0.53
  -3  -5   4    2.14    0.82
  -3  -5   4    0.81    2.65
  -3  -5   4    1.95    2.81
  -3  -5   5   18.10    1.17
  -3  -5   5   15.54    3.24
  -3  -5   5   16.23    0.83
  -3  -5   6    3.08    2.64
  -3  -5   6    3.43    0.86
  -3  -5   6    2.48    0.71
  -3  -5   7    6.22    1.15
  -3  -5   7    6.95    0.84
  -3  -5   7    6.35    2.77
  -3  -5   8    5.30    2.72
  -3  -5   8    8.47    1.24
  -3  -5   9   16.43    1.74
  -3  -5   9    5.58    2.90
  -3  -5  10    1.28    1.56
  -4  -5  -6    1.13    3.38
  -4  -5  -6    5.16    2.28
  -4  -5  -6    2.83    1.07
  -4  -5  -5   10.22    2.22
  -4  -5  -5    5.41    3.62
  -4  -5  -5    7.03    1.06
  -4  -5  -4   51.21    2.84
  -4  -5  -4   44.94    1.45
  -4  -5  -3   24.01    0.98
  -4  -5  -3   25.29    4.56
  -4  -5  -3   28.54    2.18
  -4  -5  -2   14.25    4.29
  -4  -5  -2   11.79    0.63
  -4  -5  -1  115.13    2.17
  -4  -5  -1  146.42    3.62
  -4  -5   0   88.39    2.58
  -4  -5   0   82.86    1.58
  -4  -5   1    6.67    0.43
  -4  -5   1    6.99    0.94
  -4  -5   1    7.49    0.43
  -4  -5   2    1.07    0.72
  -4  -5   2    2.51    0.49
  -4  -5   2    2.01    1.01
  -4  -5   2    1.46    2.80
  -4  -5   3    9.99    3.27
  -4  -5   3    5.12    0.56
  -4  -5   3    6.26    0.62
  -4  -5   3    9.31    1.01
  -4  -5   4   97.09    5.66
  -4  -5   4  105.39    2.62
  -4  -5   5  156.53    3.38
  -4  -5   5  120.62    2.64
  -4  -5   6   18.03    1.41
  -4  -5   6   16.90    0.87
  -4  -5   7   24.19    1.59
  -4  -5   7   20.96    3.74
  -4  -5   7   20.89    1.05
  -4  -5   8   40.50    4.10
  -4  -5   8   45.54    2.21
  -4  -5   9    7.02    3.02
  -4  -5   9    7.15    1.47
  -4  -5  10    3.27    2.85
  -4  -5  10    3.25    1.71
  -5  -5  -6   -0.55    3.48
  -5  -5  -5    2.30    1.14
  -5  -5  -5    0.25    3.67
  -5  -5  -5    5.61    2.40
  -5  -5  -4    5.11    1.09
  -5  -5  -3   33.71    5.44
  -5  -5  -3   27.60    1.15
  -5  -5  -2    7.09    0.77
  -5  -5  -1   28.50    0.95
  -5  -5   0   36.56    1.00
  -5  -5   0   42.33    2.01
  -5  -5   0   44.01    3.46
  -5  -5   1    1.31    1.03
  -5  -5   1    1.47    1.71
  -5  -5   1    1.10    0.48
  -5  -5   2    4.76    1.27
  -5  -5   2    4.69    3.03
  -5  -5   2    2.41    0.86
  -5  -5   3    2.19    0.74
  -5  -5   3    1.68    0.55
  -5  -5   4    1.02    0.64
  -5  -5   4    1.29    0.44
  -5  -5   4    2.55    1.20
  -5  -5   5   47.68    2.07
  -5  -5   5   34.20    1.25
  -5  -5   6   35.25    1.91
  -5  -5   6   24.67    1.18
  -5  -5   7    5.50    1.27
  -5  -5   7    5.84    0.85
  -5  -5   8   30.50    1.94
  -5  -5   8   27.12    4.40
  -5  -5   9    4.52    1.72
  -5  -5   9    1.79    3.20
  -5  -5  10    1.76    1.70
  -5  -5  10    2.88    2.96
  -5  -5  11    0.67    1.76
  -6  -5  -5    1.81    4.17
  -6  -5  -3    4.93    1.01
  -6  -5  -2    1.58    0.86
  -6  -5  -1    2.83    0.75
  -6  -5   0   14.29    2.72
  -6  -5   0   10.06    0.73
  -6  -5   1   30.81    2.30
  -6  -5   1   46.32    1.25
  -6  -5   2   78.31    2.85
  -6  -5   3    1.64    0.83
  -6  -5   3    2.48    1.29
  -6  -5   4   44.84    1.40
  -6  -5   4   50.44    1.43
  -6  -5   5   43.36    1.43
  -6  -5   5   58.76    2.43
  -6  -5   6   11.26    1.01
  -6  -5   6   11.84    1.61
  -6  -5   7    3.78    1.56
  -6  -5   7    2.96    0.89
  -6  -5   8    0.29    1.40
  -6  -5   9    4.25    1.74
  -6  -5  10   22.54    2.22
  -6  -5  11    8.74    2.15
  -7  -5  -4    5.75    5.13
  -7  -5  -1    0.35    0.85
  -7  -5   0    0.90    0.72
  -7  -5   1    4.94    0.67
  -7  -5   2   47.37    2.38
  -7  -5   2   36.35    1.27
  -7  -5   3   13.61    1.63
  -7  -5   4    9.72    0.97
  -7  -5   4   13.78    1.64
  -7  -5   5   31.36    1.04
  -7  -5   5   28.63    1.25
  -7  -5   6    3.62    0.89
  -7  -5   6    6.97    1.74
  -7  -5   7    0.59    1.62
  -7  -5   8    1.49    1.68
  -7  -5   9    1.00    1.61
  -7  -5  10    3.82    1.95
  -7  -5  11    8.71    2.15
  -8  -5   1   18.56    0.99
  -8  -5   2   11.25    0.95
  -8  -5   3    2.52    1.55
  -8  -5   4    1.70    1.48
  -8  -5   5    2.15    1.70
  -8  -5   6   16.09    2.09
  -8  -5   7   26.97    2.41
  -8  -5   8    5.37    1.92
  -8  -5   9    4.56    2.02
  -8  -5  10    6.68    2.01
  -9  -5   3    3.37    0.96
  -9  -5   5    1.64    1.61
  -9  -5   6    4.75    1.94
   9  -4  -6   10.11    3.64
   9  -4  -5   66.11    4.88
   9  -4  -3    8.38    3.17
   8  -4 -10    6.31    3.26
   8  -4  -9    1.94    3.06
   8  -4  -9    6.11    2.77
   8  -4  -8   -1.10    3.12
   8  -4  -8   -0.78    2.77
   8  -4  -7    0.08    3.01
   8  -4  -7   -1.18    2.67
   8  -4  -6   -1.24    2.72
   8  -4  -6    3.28    3.10
   8  -4  -5   58.13    4.35
   8  -4  -4  119.04    5.49
   8  -4  -2    2.70    2.62
   8  -4  -1   -0.69    2.46
   8  -4   0    0.19    2.27
   8  -4   1   -1.06    2.42
   8  -4   2    2.14    2.36
   7  -4 -11   -2.91    2.79
   7  -4  -9    0.78    2.67
   7  -4  -9    9.75    2.83
   7  -4  -8  104.48    4.70
   7  -4  -8   79.86    4.03
   7  -4  -7   60.17    3.60
   7  -4  -7   84.86    4.26
   7  -4  -6    3.07    2.60
   7  -4  -6   -1.34    2.35
   7  -4  -5    1.37    2.58
   7  -4  -5   -3.33    2.61
   7  -4  -4    0.33    2.44
   7  -4  -2    1.92    2.30
   7  -4  -1    3.47    2.23
   7  -4   0   55.86    2.57
   7  -4   0   64.63    3.52
   7  -4   1   78.47    3.78
   7  -4   1   67.82    2.83
   7  -4   2    9.12    1.79
   7  -4   2    6.50    2.25
   6  -4 -12    0.95    2.19
   6  -4 -11   -0.32    2.12
   6  -4 -11    0.64    1.82
   6  -4 -10   -1.52    2.18
   6  -4  -9   10.96    2.38
   6  -4  -8  102.00    4.12
   6  -4  -8  121.51    4.55
   6  -4  -7  168.80    5.40
   6  -4  -7  210.84    6.20
   6  -4  -6   44.00    3.18
   6  -4  -6   32.81    2.69
   6  -4  -5    5.84    2.23
   6  -4  -5    1.79    1.97
   6  -4  -4   12.85    2.38
   6  -4  -3    4.79    2.09
   6  -4  -1    5.01    1.94
   6  -4   0   31.76    1.82
   6  -4   0   38.98    2.83
   6  -4   1  150.50    4.86
   6  -4   1  117.84    3.51
   6  -4   2   82.07    3.61
   6  -4   2   82.47    2.86
   6  -4   3   10.73    1.67
   5  -4 -12    6.06    2.12
   5  -4 -11   16.74    2.31
   5  -4 -11   24.78    2.22
   5  -4 -10   12.29    2.04
   5  -4 -10   16.28    1.96
   5  -4  -9    0.14    1.65
   5  -4  -9    0.02    1.60
   5  -4  -8   -1.17    1.84
   5  -4  -8   -0.14    1.48
   5  -4  -7   10.60    2.06
   5  -4  -7   10.53    1.59
   5  -4  -6    6.63    1.79
   5  -4  -6    5.18    1.90
   5  -4  -5    2.94    1.71
   5  -4  -5    5.69    2.04
   5  -4  -4   10.23    2.06
   5  -4  -4    4.48    1.84
   5  -4  -3  222.37    6.23
   5  -4  -1    7.37    1.90
   5  -4   0    6.11    1.01
   5  -4   0    5.60    1.78
   5  -4   1    2.89    1.12
   5  -4   1    1.67    1.58
   5  -4   2    9.36    1.31
   5  -4   3    1.10    1.18
   5  -4   4    0.75    1.34
   5  -4   5   14.40    1.42
   4  -4 -13    7.83    2.05
   4  -4 -12    8.67    1.89
   4  -4 -11   29.12    2.50
   4  -4 -11   39.70    2.24
   4  -4 -10   43.51    2.70
   4  -4 -10   51.67    2.39
   4  -4  -9    3.03    1.47
   4  -4  -9   -0.14    1.57
   4  -4  -8   15.99    1.78
   4  -4  -8   18.07    1.64
   4  -4  -7   12.21    1.61
   4  -4  -7   13.05    1.69
   4  -4  -6   -0.78    1.61
   4  -4  -6    3.12    1.27
   4  -4  -5    4.46    1.23
   4  -4  -5    7.23    1.52
   4  -4  -4    4.85    1.57
   4  -4  -2  607.64   12.31
   4  -4   1    6.36    0.89
   4  -4   2    2.40    0.93
   4  -4   3   11.16    1.15
   4  -4   4   10.08    1.18
   4  -4   5    1.77    1.10
   4  -4   6   41.89    1.82
   3  -4 -12    7.11    1.76
   3  -4 -11    1.53    1.86
   3  -4 -11    7.49    1.61
   3  -4 -10   11.99    1.92
   3  -4 -10   17.29    1.56
   3  -4  -9    4.21    1.57
   3  -4  -9    6.36    1.25
   3  -4  -8    8.20    1.26
   3  -4  -8    2.84    1.36
   3  -4  -7    2.88    1.33
   3  -4  -7    5.88    1.16
   3  -4  -6  127.77    3.77
   3  -4  -6  151.39    3.79
   3  -4  -5  110.13    3.43
   3  -4  -5  124.94    3.44
   3  -4  -4   -0.14    0.96
   3  -4  -4   -0.70    1.25
   3  -4   2  111.21    2.41
   3  -4   3  160.90    3.35
   3  -4   4    9.21    0.92
   3  -4   5    5.37    0.93
   3  -4   6    2.28    0.86
   3  -4   7    5.99    1.07
   2  -4 -11    7.83    2.07
   2  -4 -10    2.21    1.84
   2  -4  -9    0.69    1.61
   2  -4  -9    3.67    1.14
   2  -4  -8    0.85    1.35
   2  -4  -8    3.04    0.98
   2  -4  -7   16.70    1.20
   2  -4  -7   13.92    1.51
   2  -4  -6  219.04    4.70
   2  -4  -6  233.77    5.22
   2  -4  -5  419.68    8.39
   2  -4  -5  464.52    8.67
   2  -4  -4  103.21    2.94
   2  -4  -2   34.69    1.53
   2  -4   3  444.14    7.68
   2  -4   3  454.60    7.93
   2  -4   4  236.31    4.61
   2  -4   4  244.88    4.47
   2  -4   5   12.95    0.94
   2  -4   5   14.12    0.88
   2  -4   6    0.87    0.70
   2  -4   7    0.60    0.79
   2  -4   8    0.24    0.84
   1  -4 -10   -1.28    1.99
   1  -4  -9   17.47    2.06
   1  -4  -8    7.72    1.65
   1  -4  -7    1.12    1.37
   1  -4  -7    4.86    0.80
   1  -4  -6    2.29    1.23
   1  -4  -6    3.23    0.74
   1  -4  -5  104.88    2.68
   1  -4  -5  117.36    3.26
   1  -4  -4   56.59    1.85
   1  -4  -3    5.18    1.98
   1  -4  -2    2.34    0.77
   1  -4  -1  251.02    5.17
   1  -4   0  211.49    6.77
   1  -4   1    1.35    1.60
   1  -4   2    8.55    0.60
   1  -4   2    6.94    1.86
   1  -4   3   50.36    2.94
   1  -4   3   46.38    3.12
   1  -4   4   82.19    3.59
   1  -4   4   81.19    2.00
   1  -4   5    1.51    0.56
   1  -4   5    2.23    1.36
   1  -4   5    1.17    0.54
   1  -4   6    4.22    0.67
   1  -4   6    1.75    1.05
   1  -4   6    1.91    0.53
   1  -4   7    4.07    1.09
   1  -4   7    7.88    0.70
   1  -4   8    6.99    1.17
   1  -4   8   16.09    0.94
   1  -4   9    6.79   10.44
   1  -4   9    1.71    1.28
   0  -4 -10    4.60    2.24
   0  -4  -9   60.44    3.19
   0  -4  -8   89.42    3.57
   0  -4  -7    2.50    1.55
   0  -4  -6   16.97    2.46
   0  -4  -6   18.55    1.74
   0  -4  -6   16.73    0.82
   0  -4  -5   19.20    2.67
   0  -4  -5   14.59    0.82
   0  -4  -4    8.61    2.68
   0  -4  -4    5.03    0.65
   0  -4  -3   18.20    1.24
   0  -4  -3   15.54    2.73
   0  -4  -2    7.95    0.91
   0  -4  -2    7.88    2.36
   0  -4  -1  401.77    7.48
   0  -4   0  993.28   17.11
   0  -4   0  996.58   21.19
   0  -4   1  394.58   10.81
   0  -4   2    6.75    1.68
   0  -4   2    7.56    0.45
   0  -4   2    6.81    2.23
   0  -4   3   15.06    2.53
   0  -4   3   10.43    1.39
   0  -4   3   15.44    0.66
   0  -4   4    8.82    2.01
   0  -4   4    8.80    0.39
   0  -4   4    8.96    2.31
   0  -4   4    7.92    0.59
   0  -4   5   17.63    2.37
   0  -4   5   19.35    2.49
   0  -4   5   17.16    0.81
   0  -4   5   18.41    0.89
   0  -4   6   17.58    0.86
   0  -4   6   17.58    2.18
   0  -4   6   14.73    2.51
   0  -4   7    1.78    2.04
   0  -4   7    2.28    0.67
   0  -4   8   35.12    3.12
   0  -4   8   85.38   12.43
   0  -4   9   15.66    2.71
   0  -4   9   56.95   11.84
   0  -4  10   -0.92    9.92
  -1  -4  -9    5.81    2.11
  -1  -4  -8   40.04    2.58
  -1  -4  -7   17.04    1.88
  -1  -4  -7   15.27    2.32
  -1  -4  -6    5.71    2.58
  -1  -4  -5    1.01    2.43
  -1  -4  -5    0.25    0.41
  -1  -4  -4   83.83    5.11
  -1  -4  -4  104.98    2.96
  -1  -4  -3   50.88    3.94
  -1  -4  -3   60.16    2.02
  -1  -4  -2    6.54    2.14
  -1  -4  -2    7.06    0.94
  -1  -4  -1    1.29    0.63
  -1  -4   0  237.54    4.64
  -1  -4   1  227.82    6.31
  -1  -4   1  231.93    4.55
  -1  -4   1  239.10    4.00
  -1  -4   2    1.53    1.80
  -1  -4   2    2.82    0.34
  -1  -4   3    5.36    2.02
  -1  -4   3    5.42    0.40
  -1  -4   3    5.56    0.45
  -1  -4   4   58.46    3.80
  -1  -4   4   57.23    3.48
  -1  -4   4   58.21    1.36
  -1  -4   4   56.09    1.35
  -1  -4   5  103.37    2.19
  -1  -4   5  107.45    2.34
  -1  -4   6    2.79    0.62
  -1  -4   6    1.05    2.26
  -1  -4   6    2.68    0.83
  -1  -4   6    2.10    2.07
  -1  -4   7    3.76    2.35
  -1  -4   7    2.95    0.67
  -1  -4   7    4.12    0.99
  -1  -4   7    3.32    2.07
  -1  -4   8   10.79    1.25
  -1  -4   8    6.65    2.66
  -1  -4   8    6.65    1.80
  -1  -4   9   21.35    9.94
  -1  -4  10    8.17   10.38
  -2  -4  -9    5.12    2.33
  -2  -4  -8    2.47    1.99
  -2  -4  -7    0.64    1.67
  -2  -4  -7    2.12    2.58
  -2  -4  -7    0.68    0.99
  -2  -4  -6    0.53    0.77
  -2  -4  -6    0.16    2.51
  -2  -4  -5   12.72    2.84
  -2  -4  -5   15.73    0.86
  -2  -4  -4  242.15    5.53
  -2  -4  -4  244.64    4.36
  -2  -4  -3  446.95    7.58
  -2  -4  -3  464.28    8.72
  -2  -4  -2  105.14    1.86
  -2  -4  -2  112.68    2.90
  -2  -4  -2  101.02    5.33
  -2  -4  -1   10.17    2.50
  -2  -4  -1   11.74    0.97
  -2  -4   0   36.75    1.34
  -2  -4   0   37.05    2.58
  -2  -4   1   20.93    0.49
  -2  -4   1   17.56    1.97
  -2  -4   1   21.41    0.94
  -2  -4   1   21.44    2.95
  -2  -4   2   36.29    1.05
  -2  -4   2   31.74    1.01
  -2  -4   2   33.64    0.81
  -2  -4   2   35.41    3.47
  -2  -4   3   13.36    0.58
  -2  -4   3   13.06    2.47
  -2  -4   3   14.09    0.80
  -2  -4   3   12.30    2.33
  -2  -4   4   93.40    4.79
  -2  -4   4   99.95    2.12
  -2  -4   5  404.11    7.19
  -2  -4   5  391.62    6.96
  -2  -4   6  232.01    7.96
  -2  -4   6  226.95    4.31
  -2  -4   6  232.05    4.66
  -2  -4   7   13.78    2.43
  -2  -4   7   13.90    0.85
  -2  -4   7   16.39    1.34
  -2  -4   7   13.35    3.20
  -2  -4   8    1.77    1.16
  -2  -4   8   -0.13    2.06
  -2  -4   9    1.49    1.37
  -2  -4   9    0.83    2.02
  -2  -4  10   -0.80    9.35
  -2  -4  10    2.59    1.64
  -2  -4  11    4.34   10.11
  -2  -4  11    7.87    1.83
  -3  -4  -9    3.76    1.53
  -3  -4  -8    1.15    1.23
  -3  -4  -8    3.19    2.29
  -3  -4  -7    9.37    1.30
  -3  -4  -7    3.56    2.84
  -3  -4  -6    1.22    0.39
  -3  -4  -6    1.68    2.50
  -3  -4  -6    2.90    1.01
  -3  -4  -5    5.88    0.92
  -3  -4  -4   12.36    0.88
  -3  -4  -4   10.56    2.91
  -3  -4  -3  158.95    2.99
  -3  -4  -2  122.54    2.31
  -3  -4  -1    0.56    0.31
  -3  -4   0    2.52    1.50
  -3  -4   0    2.50    0.77
  -3  -4   0    2.06    0.25
  -3  -4   1   68.11    3.83
  -3  -4   1   71.84    1.93
  -3  -4   2   59.16    1.59
  -3  -4   2   57.61    1.47
  -3  -4   3    3.84    0.82
  -3  -4   3    4.54    2.41
  -3  -4   3    2.17    0.45
  -3  -4   3    1.98    0.37
  -3  -4   4    0.29    0.48
  -3  -4   4   -0.35    2.56
  -3  -4   4   -0.25    0.76
  -3  -4   5  118.24    2.62
  -3  -4   5   90.21    2.07
  -3  -4   6  118.23    5.71
  -3  -4   6  111.65    2.51
  -3  -4   7    6.47    0.74
  -3  -4   7    9.62    3.48
  -3  -4   7    4.51    2.33
  -3  -4   7    7.04    1.23
  -3  -4   8    3.87    2.18
  -3  -4   8    4.50    1.40
  -3  -4   8    4.78    0.80
  -3  -4   9    2.98    2.17
  -3  -4   9    2.38    1.46
  -3  -4  10   16.24    1.87
  -3  -4  10   11.66    2.55
  -3  -4  11    3.26    1.85
  -3  -4  12    0.71    1.96
  -4  -4  -8    7.16    1.56
  -4  -4  -7   47.00    2.01
  -4  -4  -7   18.72    3.57
  -4  -4  -6   31.01    3.93
  -4  -4  -6   59.03    1.99
  -4  -4  -5    1.03    1.00
  -4  -4  -5    0.65    2.74
  -4  -4  -4   13.74    0.95
  -4  -4  -3   10.16    0.79
  -4  -4  -2    2.81    0.55
  -4  -4  -1    5.60    0.52
  -4  -4   0    3.42    0.42
  -4  -4   0    3.02    1.27
  -4  -4   1  258.49    8.02
  -4  -4   1  285.09    5.76
  -4  -4   2  561.02   12.66
  -4  -4   2  529.80    9.28
  -4  -4   3  191.13    3.71
  -4  -4   3  246.87    4.57
  -4  -4   3  248.43    7.95
  -4  -4   3  198.77    3.76
  -4  -4   4    3.74    0.99
  -4  -4   4    4.92    0.60
  -4  -4   4    6.69    3.28
  -4  -4   5    5.52    0.68
  -4  -4   5    6.87    1.02
  -4  -4   6    2.73    0.72
  -4  -4   6    3.41    1.10
  -4  -4   7   10.90    0.85
  -4  -4   7   11.44    1.32
  -4  -4   8   16.21    1.67
  -4  -4   8   13.09    0.91
  -4  -4   9    0.62    1.49
  -4  -4   9    0.67    2.26
  -4  -4  10   36.83    3.51
  -4  -4  10   56.02    2.76
  -4  -4  11   39.83    2.56
  -4  -4  12    4.65    2.06
  -5  -4  -7    9.26    1.59
  -5  -4  -6   40.78    1.90
  -5  -4  -6   19.29    3.76
  -5  -4  -5   16.07    1.27
  -5  -4  -4    0.18    0.92
  -5  -4  -3    1.29    0.83
  -5  -4  -2   10.43    0.77
  -5  -4  -1    2.51    0.56
  -5  -4   0    5.05    0.55
  -5  -4   0    2.92    1.24
  -5  -4   1   10.30    1.32
  -5  -4   1    9.21    2.64
  -5  -4   2  168.42    3.85
  -5  -4   2  188.69    6.75
  -5  -4   3  208.21    7.79
  -5  -4   3  195.63    4.52
  -5  -4   4    7.54    1.16
  -5  -4   4    6.05    0.51
  -5  -4   5    4.51    1.17
  -5  -4   5    5.62    3.72
  -5  -4   5    2.92    0.63
  -5  -4   6    3.56    0.73
  -5  -4   6    3.72    1.20
  -5  -4   7   11.56    1.50
  -5  -4   7   11.20    0.94
  -5  -4   8    1.11    1.25
  -5  -4   9    0.52    1.62
  -5  -4  10   18.10    2.11
  -5  -4  10   10.81    3.19
  -5  -4  11   25.29    2.41
  -5  -4  12    1.78    2.19
  -6  -4  -6   -0.27    1.39
  -6  -4  -5   -0.01    1.12
  -6  -4  -4    1.25    1.05
  -6  -4  -3    8.09    0.96
  -6  -4  -2   72.67    1.89
  -6  -4  -1  114.16    2.44
  -6  -4   0   19.49    1.89
  -6  -4   0   25.02    0.89
  -6  -4   1    6.68    2.55
  -6  -4   1    4.79    0.67
  -6  -4   1    7.87    1.43
  -6  -4   2   10.98    1.22
  -6  -4   2   12.33    2.79
  -6  -4   3    4.17    3.06
  -6  -4   3    5.18    1.27
  -6  -4   4   11.28    1.42
  -6  -4   4   11.39    4.02
  -6  -4   5    4.35    1.34
  -6  -4   5    3.73    0.45
  -6  -4   6   27.72    1.64
  -6  -4   6   19.62    1.03
  -6  -4   7  122.27    3.46
  -6  -4   7  108.48    2.64
  -6  -4   8   83.66    3.12
  -6  -4   9    8.61    1.68
  -6  -4  10    0.33    1.71
  -6  -4  11    1.67    2.06
  -6  -4  12    1.62    2.26
  -7  -4  -4    0.56    1.16
  -7  -4  -3    1.33    0.96
  -7  -4  -2    7.82    1.00
  -7  -4  -1   56.25    1.62
  -7  -4   0   44.16    1.33
  -7  -4   0   47.73    2.99
  -7  -4   1    3.44    1.52
  -7  -4   1    3.13    2.46
  -7  -4   1    2.33    0.73
  -7  -4   2    2.80    2.52
  -7  -4   2    2.35    1.26
  -7  -4   3    1.47    1.31
  -7  -4   4    0.50    1.38
  -7  -4   5    2.58    1.37
  -7  -4   6    1.53    0.34
  -7  -4   6    1.60    0.33
  -7  -4   7   47.02    2.19
  -7  -4   8   62.05    2.74
  -7  -4   9    7.33    1.83
  -7  -4  10    1.28    1.91
  -7  -4  11    0.37    1.83
  -7  -4  12    2.85    2.01
  -8  -4  -3    1.19    1.09
  -8  -4  -2    3.56    1.08
  -8  -4  -1    1.23    0.91
  -8  -4   0    0.84    0.85
  -8  -4   1    0.14    0.78
  -8  -4   2    2.61    0.82
  -8  -4   2    4.12    1.43
  -8  -4   3   38.47    2.02
  -8  -4   4   90.76    3.17
  -8  -4   5   43.00    2.34
  -8  -4   6    3.02    1.58
  -8  -4   7    1.33    1.67
  -8  -4   8   -0.48    1.52
  -8  -4   9    0.80    1.79
  -8  -4  10    3.18    1.95
  -9  -4   0    0.72    0.91
  -9  -4   1    1.11    0.80
  -9  -4   2    0.92    0.90
  -9  -4   3    6.43    1.62
  -9  -4   4   42.14    2.32
  -9  -4   5   41.67    2.42
  -9  -4   6    6.59    1.86
  -9  -4   7    2.02    1.72
  -9  -4   8    2.32    1.87
 -10  -4   2    1.92    0.94
 -10  -4   3    0.71    0.97
   9  -3 -10   24.80    3.87
   9  -3  -9    6.21    3.71
   9  -3  -8   21.42    4.02
   9  -3  -8   13.62    2.73
   9  -3  -7   39.56    4.39
   9  -3  -6    9.42    3.59
   9  -3  -5    4.31    3.28
   9  -3  -3   10.53    3.09
   9  -3  -2   30.10    3.44
   9  -3  -1   14.06    2.96
   9  -3   0    4.65    2.57
   9  -3   1   15.82    2.72
   8  -3 -11    4.03    2.63
   8  -3 -10    8.67    2.73
   8  -3 -10   14.25    3.12
   8  -3  -9    7.42    3.15
   8  -3  -9   -0.26    2.61
   8  -3  -8    3.48    2.56
   8  -3  -8   18.07    3.58
   8  -3  -7   81.65    4.75
   8  -3  -7   55.19    3.22
   8  -3  -6   36.89    3.88
   8  -3  -5    2.49    2.99
   8  -3  -4    2.88    2.85
   8  -3  -2   32.54    3.23
   8  -3  -1   51.74    3.59
   8  -3   0   10.45    2.57
   8  -3   1    5.68    2.21
   8  -3   2    7.46    2.13
   8  -3   3    0.07    1.94
   8  -3   4   -0.92    1.96
   7  -3 -11    9.62    2.44
   7  -3 -11   11.75    2.01
   7  -3 -10   16.86    2.49
   7  -3 -10   11.37    2.05
   7  -3  -9    0.27    1.86
   7  -3  -9    0.74    2.37
   7  -3  -8    0.86    2.59
   7  -3  -8   -2.71    2.21
   7  -3  -7    1.62    2.70
   7  -3  -6   11.13    2.05
   7  -3  -6   14.57    2.89
   7  -3  -5   75.79    4.30
   7  -3  -4   25.34    3.11
   7  -3  -2   69.12    3.79
   7  -3  -2   56.02    2.37
   7  -3  -1    9.40    1.62
   7  -3  -1   13.46    2.39
   7  -3   0    2.26    2.17
   7  -3   0    0.58    1.45
   7  -3   1    0.60    1.47
   7  -3   1   -0.03    1.92
   7  -3   2    1.29    1.76
   7  -3   3   12.95    1.98
   7  -3   4    9.95    1.93
   6  -3 -12    5.09    1.85
   6  -3 -12   -0.52    1.94
   6  -3 -11   20.41    2.11
   6  -3 -11   11.93    2.05
   6  -3 -10   55.85    2.99
   6  -3 -10   55.01    2.58
   6  -3  -9   11.61    1.64
   6  -3  -9   11.22    2.05
   6  -3  -8    1.61    1.49
   6  -3  -8    1.94    2.03
   6  -3  -7    6.16    1.77
   6  -3  -7   11.00    2.35
   6  -3  -6   11.34    1.96
   6  -3  -6   20.11    2.65
   6  -3  -6    7.97    5.24
   6  -3  -5  108.54    3.73
   6  -3  -5   96.29    8.17
   6  -3  -4   96.10    8.17
   6  -3  -4  128.73    4.86
   6  -3  -3    2.08    2.06
   6  -3  -2  102.18    2.90
   6  -3  -1   94.94    2.98
   6  -3  -1  109.87    4.25
   6  -3   0   15.21    2.18
   6  -3   0   12.05    1.47
   6  -3   1    6.02    1.82
   6  -3   1    5.83    1.43
   6  -3   2    1.80    1.37
   6  -3   2    1.47    1.59
   6  -3   3   10.19    1.53
   6  -3   3    8.04    1.75
   6  -3   4   30.46    2.20
   6  -3   4   33.62    1.84
   5  -3 -12    9.41    1.84
   5  -3 -12   -1.95    1.97
   5  -3 -11    5.33    1.58
   5  -3 -11   -0.18    1.78
   5  -3 -10    8.87    1.48
   5  -3 -10    2.57    1.63
   5  -3  -9    6.54    1.36
   5  -3  -9    0.54    1.41
   5  -3  -8   58.98    2.30
   5  -3  -8   49.35    2.43
   5  -3  -7    5.80    1.29
   5  -3  -7    3.18    1.26
   5  -3  -6   55.75    2.84
   5  -3  -6   44.12    2.21
   5  -3  -5  108.20    3.85
   5  -3  -5   79.64    3.07
   5  -3  -4    1.35    1.74
   5  -3  -4    1.37    1.38
   5  -3  -3    5.79    1.81
   5  -3  -3    1.97    1.54
   5  -3  -1    1.85    0.98
   5  -3   0   73.96    2.38
   5  -3   0   81.70    3.27
   5  -3   1   44.44    2.38
   5  -3   1   40.51    1.83
   5  -3   2    6.80    1.28
   5  -3   2    5.00    1.44
   5  -3   3   60.44    2.61
   5  -3   3   48.78    1.92
   5  -3   4    5.53    1.24
   5  -3   5    2.12    1.17
   5  -3   7   -1.59    8.28
   4  -3 -12    0.14    1.88
   4  -3 -11    3.72    1.76
   4  -3 -10    2.38    1.60
   4  -3  -9   11.01    1.60
   4  -3  -8   78.66    2.37
   4  -3  -8   56.41    2.53
   4  -3  -7   60.81    2.04
   4  -3  -7   70.29    2.63
   4  -3  -6   43.81    1.74
   4  -3  -6   39.61    1.95
   4  -3  -5  331.27    6.80
   4  -3  -5  350.59    7.33
   4  -3  -4  159.20    4.27
   4  -3  -4  181.75    4.74
   4  -3  -3   12.29    1.54
   4  -3  -3    7.47    1.24
   4  -3  -2    1.81    1.24
   4  -3  -1   10.50    0.84
   4  -3   0  141.33    3.23
   4  -3   0  149.77    4.16
   4  -3   1  289.30    5.64
   4  -3   1  275.05    6.35
   4  -3   2   35.61    1.51
   4  -3   2   32.93    1.98
   4  -3   3   56.69    1.91
   4  -3   3   52.89    2.30
   4  -3   4   60.56    1.95
   4  -3   5    8.69    0.99
   4  -3   5    5.60    6.71
   4  -3   6    1.14    0.97
   4  -3   6   -1.79    7.49
   4  -3   7   -0.98    7.93
   4  -3   7    1.75    1.08
   4  -3   8   -1.54    9.06
   3  -3 -12    0.17    1.73
   3  -3 -11    8.21    1.81
   3  -3 -10    1.13    1.44
   3  -3  -9   12.57    1.59
   3  -3  -8    7.85    1.35
   3  -3  -7   19.07    1.14
   3  -3  -7   11.55    1.28
   3  -3  -6    3.73    0.82
   3  -3  -6    0.55    1.00
   3  -3  -5   19.67    1.14
   3  -3  -5   19.02    1.31
   3  -3  -4    2.25    0.96
   3  -3  -4    2.61    1.10
   3  -3  -4    2.60    0.84
   3  -3  -3  119.33    3.03
   3  -3  -3  109.05    3.16
   3  -3  -2   86.52    2.77
   3  -3  -2   69.76    2.59
   3  -3   0  109.89    2.38
   3  -3   1    1.96    0.98
   3  -3   1    3.52    0.65
   3  -3   2   19.46    0.95
   3  -3   3    2.04    0.69
   3  -3   4    7.14    0.82
   3  -3   4    8.54    0.87
   3  -3   5   19.45    1.08
   3  -3   5   12.58    1.01
   3  -3   5   22.76    7.88
   3  -3   6   21.32    1.24
   3  -3   6   39.02    9.70
   3  -3   7    0.34    0.91
   3  -3   8    5.66    1.06
   2  -3 -12    5.17    2.14
   2  -3 -11   14.99    2.14
   2  -3 -10    6.23    1.74
   2  -3  -9   41.49    2.32
   2  -3  -8  112.10    3.44
   2  -3  -7   37.62    1.97
   2  -3  -6    5.77    1.06
   2  -3  -5    7.06    0.93
   2  -3  -5    9.45    0.76
   2  -3  -4   39.01    1.51
   2  -3  -4   35.99    1.34
   2  -3  -3  404.98    7.50
   2  -3  -3  380.98    7.45
   2  -3  -2  344.23    6.89
   2  -3   1  338.08    5.90
   2  -3   2   40.57    1.15
   2  -3   2   39.51    1.06
   2  -3   3    3.99    0.60
   2  -3   3    6.30    0.60
   2  -3   4    3.10    0.62
   2  -3   4    2.94    0.64
   2  -3   5   24.67    1.07
   2  -3   5   20.20    1.70
   2  -3   6   81.48    1.81
   2  -3   6   71.01    1.85
   2  -3   7   11.81    1.56
   2  -3   7   21.66    1.01
   2  -3   8    1.74    1.28
   2  -3   8    2.21    0.72
   1  -3 -11    0.17    1.86
   1  -3 -10    4.27    1.78
   1  -3  -9   -0.73    1.57
   1  -3  -8   23.92    1.84
   1  -3  -7    4.91    1.26
   1  -3  -6   58.26    2.18
   1  -3  -5    3.67    0.88
   1  -3  -4   51.27    1.37
   1  -3  -4   56.09    1.86
   1  -3  -3   48.39    2.89
   1  -3  -3   55.55    1.56
   1  -3  -2   51.01    1.63
   1  -3  -1   71.00    1.90
   1  -3   0   57.59    2.93
   1  -3   1   37.68    2.47
   1  -3   2   61.55    2.63
   1  -3   2   61.10    3.03
   1  -3   2   66.73    1.44
   1  -3   3   60.05    1.23
   1  -3   3   54.72    1.29
   1  -3   4    5.72    5.16
   1  -3   4    4.51    0.53
   1  -3   4    3.56    1.24
   1  -3   4    2.32    0.41
   1  -3   5   69.72    1.60
   1  -3   5   84.15   10.06
   1  -3   6   -0.22    7.43
   1  -3   6    1.42    1.47
   1  -3   6    1.37    0.60
   1  -3   7    7.04    1.79
   1  -3   7   11.39    9.40
   1  -3   8    0.96    1.65
   1  -3   8   -0.85    9.33
   1  -3   9    4.56    9.83
   1  -3   9    1.93    1.67
   1  -3  10   -1.23   10.42
   0  -3 -11   14.25    2.52
   0  -3 -10    1.62    1.81
   0  -3  -9    3.95    1.67
   0  -3  -8    0.84    1.39
   0  -3  -7   14.35    1.51
   0  -3  -6  112.19    3.17
   0  -3  -5   96.82    2.69
   0  -3  -5   80.14    3.71
   0  -3  -4   39.58    3.02
   0  -3  -4   41.73    1.60
   0  -3  -3  598.13   12.69
   0  -3  -3  525.91    9.11
   0  -3  -2  264.00    7.62
   0  -3  -1   41.34    1.29
   0  -3   0   -0.03    0.41
   0  -3   0    0.51    1.37
   0  -3   1   38.37    0.82
   0  -3   1   36.30    2.66
   0  -3   2  252.75    4.38
   0  -3   2  252.81    7.16
   0  -3   2  247.82    6.28
   0  -3   3  526.90   12.04
   0  -3   3  538.31    8.98
   0  -3   3  522.38    9.06
   0  -3   4   35.81    1.00
   0  -3   4   34.25    2.34
   0  -3   4   39.32    2.70
   0  -3   5   87.94    3.56
   0  -3   5   85.11    3.69
   0  -3   5   88.03    1.92
   0  -3   6   94.51    2.07
   0  -3   6   75.57    3.70
   0  -3   7    7.95    1.93
   0  -3   7   13.00    0.80
   0  -3   8    0.62    1.79
   0  -3   8    7.96    9.13
   0  -3   9    1.31    1.83
   0  -3   9    0.59   10.19
   0  -3  10   -0.62   10.35
   0  -3  10    0.78    1.92
  -1  -3 -10    1.51    2.00
  -1  -3  -9    6.46    1.93
  -1  -3  -8    0.98    1.50
  -1  -3  -8    1.07    1.00
  -1  -3  -7   13.53    1.06
  -1  -3  -7   12.70    1.64
  -1  -3  -6    2.98    1.24
  -1  -3  -6    1.65    1.91
  -1  -3  -6    2.21    0.71
  -1  -3  -5   71.64    3.85
  -1  -3  -5   65.91    1.65
  -1  -3  -4    3.25    1.76
  -1  -3  -4    3.83    0.49
  -1  -3  -3   62.06    3.42
  -1  -3  -3   55.30    1.19
  -1  -3  -2   63.93    3.39
  -1  -3  -2   68.48    1.90
  -1  -3  -1   48.82    1.42
  -1  -3   0   65.41    1.58
  -1  -3   0   68.90    2.78
  -1  -3   1   64.86    1.18
  -1  -3   1   63.95    1.48
  -1  -3   2   56.82    1.23
  -1  -3   2   55.69    1.15
  -1  -3   3   55.11    1.26
  -1  -3   3   60.91    1.34
  -1  -3   4   41.39    2.77
  -1  -3   4   46.38    1.22
  -1  -3   5    4.16    0.51
  -1  -3   5    4.95    0.65
  -1  -3   5    5.36    2.27
  -1  -3   5    0.27    4.63
  -1  -3   5    3.01    1.51
  -1  -3   6   45.52    2.91
  -1  -3   6   45.27    1.25
  -1  -3   7    6.38    1.75
  -1  -3   7    4.13    0.63
  -1  -3   7    2.64    2.25
  -1  -3   8   19.08    0.94
  -1  -3   8   21.37    1.81
  -1  -3   9    0.57    2.49
  -1  -3   9   10.28    9.69
  -1  -3  10    1.22    2.47
  -1  -3  11    1.87   10.24
  -2  -3 -10    3.38    1.49
  -2  -3  -9   13.68    1.49
  -2  -3  -9   16.25    2.35
  -2  -3  -8    7.71    1.26
  -2  -3  -8    8.23    1.95
  -2  -3  -7   28.05    2.77
  -2  -3  -7   52.77    1.79
  -2  -3  -6   74.38    4.33
  -2  -3  -6  125.85    2.77
  -2  -3  -5   28.68    2.83
  -2  -3  -5   44.56    1.38
  -2  -3  -4    5.04    0.67
  -2  -3  -4    3.44    1.84
  -2  -3  -3    4.05    1.99
  -2  -3  -3    5.12    0.48
  -2  -3  -2   39.71    0.92
  -2  -3  -1  349.23    5.84
  -2  -3   0  380.04    6.28
  -2  -3   0  388.68    6.82
  -2  -3   1    0.72    0.40
  -2  -3   1    0.21    1.29
  -2  -3   1    0.38    0.35
  -2  -3   2  415.68    6.89
  -2  -3   2  422.86    9.52
  -2  -3   2  372.62    6.57
  -2  -3   2  388.02    6.67
  -2  -3   3  387.04    6.77
  -2  -3   3  400.86    7.02
  -2  -3   4   32.47    0.92
  -2  -3   4   37.22    1.27
  -2  -3   5    7.03    1.83
  -2  -3   5    6.68    0.53
  -2  -3   5    5.91    0.85
  -2  -3   5    6.25    2.32
  -2  -3   6    2.32    4.84
  -2  -3   6    5.63    2.69
  -2  -3   6    4.34    0.59
  -2  -3   6    4.74    0.94
  -2  -3   6    4.36    1.68
  -2  -3   7   29.53    2.49
  -2  -3   7   35.29    1.20
  -2  -3   7   35.42    3.89
  -2  -3   8   93.81    2.16
  -2  -3   8   85.18    3.83
  -2  -3   9   34.42    2.49
  -2  -3   9   21.35    3.54
  -2  -3  10   10.78    9.56
  -2  -3  11   17.04   11.68
  -3  -3 -10    2.97    1.57
  -3  -3  -9    5.03    1.55
  -3  -3  -8   14.29    1.50
  -3  -3  -8    8.35    1.79
  -3  -3  -7   -0.08    2.12
  -3  -3  -7    1.11    1.16
  -3  -3  -6   24.16    2.80
  -3  -3  -6   38.75    1.60
  -3  -3  -5   16.32    2.76
  -3  -3  -5   19.79    1.02
  -3  -3  -4    8.25    0.75
  -3  -3  -4    7.13    0.81
  -3  -3  -3    1.42    0.34
  -3  -3  -3    1.50    0.55
  -3  -3  -2   17.71    0.65
  -3  -3  -1    3.13    1.27
  -3  -3  -1    2.51    0.34
  -3  -3   0  122.53    4.24
  -3  -3   0  110.43    2.12
  -3  -3   1   79.76    3.53
  -3  -3   1   77.54    1.91
  -3  -3   2   90.08    4.20
  -3  -3   2   89.17    2.21
  -3  -3   3  110.30    1.97
  -3  -3   3  108.03    2.40
  -3  -3   4    2.61    0.47
  -3  -3   4    2.67    0.70
  -3  -3   4    3.07    2.54
  -3  -3   5   18.48    1.17
  -3  -3   5   17.64    0.80
  -3  -3   6    0.72    0.97
  -3  -3   6    0.91    0.58
  -3  -3   7   10.46    0.75
  -3  -3   7   12.93    5.71
  -3  -3   7   12.24    1.28
  -3  -3   8    8.90    0.73
  -3  -3   8    4.33    2.07
  -3  -3   9   20.54    1.76
  -3  -3   9   22.98    8.29
  -3  -3  10   -3.04    8.31
  -3  -3  10    2.33    1.51
  -3  -3  10   -0.03    1.78
  -3  -3  11    5.80   10.41
  -3  -3  11   13.33    1.92
  -3  -3  12    2.35    1.81
  -3  -3  12    2.32   10.21
  -3  -3  13    6.82    2.11
  -4  -3  -9   11.91    1.75
  -4  -3  -8    1.60    1.48
  -4  -3  -7    4.95    1.42
  -4  -3  -7    0.94    2.07
  -4  -3  -6    1.60    1.04
  -4  -3  -6    1.26    1.04
  -4  -3  -6    1.25    2.29
  -4  -3  -5    6.26    1.05
  -4  -3  -5   10.34    0.97
  -4  -3  -4   63.41    1.68
  -4  -3  -4   53.08    1.57
  -4  -3  -3   48.35    1.31
  -4  -3  -3   41.57    1.13
  -4  -3  -2   30.33    0.97
  -4  -3  -1  270.07    6.19
  -4  -3  -1  233.74    4.23
  -4  -3   0  157.84    4.96
  -4  -3   0  174.70    3.59
  -4  -3   1   10.48    0.88
  -4  -3   1   11.54    2.16
  -4  -3   2    1.33    0.78
  -4  -3   2    1.77    2.34
  -4  -3   3   16.24    2.68
  -4  -3   3   12.03    1.00
  -4  -3   4  200.62    7.80
  -4  -3   4  134.02    3.24
  -4  -3   5  229.67    4.26
  -4  -3   5  233.22    4.85
  -4  -3   6   34.62    1.17
  -4  -3   6   34.56    1.73
  -4  -3   7   41.93    1.37
  -4  -3   7   45.01    2.06
  -4  -3   8   56.99    1.70
  -4  -3   8   67.73    2.46
  -4  -3   8   60.03    7.45
  -4  -3   9   16.27    1.76
  -4  -3  10    3.56    1.62
  -4  -3  10    2.80    2.07
  -4  -3  11    2.08    8.32
  -4  -3  11    5.02    1.81
  -4  -3  12    2.81    2.08
  -4  -3  12    1.76    9.27
  -4  -3  13   12.94    2.39
  -5  -3  -8    2.08    1.57
  -5  -3  -7   -0.14    1.36
  -5  -3  -6    0.09    1.13
  -5  -3  -5    1.24    0.82
  -5  -3  -5    2.41    1.03
  -5  -3  -4    6.23    0.96
  -5  -3  -4    5.27    0.75
  -5  -3  -3   53.25    1.52
  -5  -3  -2    5.00    0.67
  -5  -3  -1   33.21    1.01
  -5  -3  -1   38.50    2.24
  -5  -3   0   77.16    3.54
  -5  -3   0   83.03    2.47
  -5  -3   1    2.14    0.84
  -5  -3   1    2.06    2.03
  -5  -3   2    5.76    2.70
  -5  -3   2    5.22    1.00
  -5  -3   3    4.23    2.82
  -5  -3   3    3.98    0.96
  -5  -3   4    1.20    0.82
  -5  -3   5   69.81    2.18
  -5  -3   5   51.33    1.13
  -5  -3   6   27.92    1.10
  -5  -3   6   31.93    1.62
  -5  -3   7    4.35    0.78
  -5  -3   7    6.01    1.38
  -5  -3   8   41.75    1.49
  -5  -3   8   53.03    2.29
  -5  -3   9    3.19    1.60
  -5  -3  10    3.10    1.74
  -5  -3  10   -1.74    5.83
  -5  -3  11    2.82    7.20
  -5  -3  11   -1.24    1.88
  -5  -3  12   -0.02    2.10
  -5  -3  12    2.14    8.10
  -5  -3  13   -3.47    9.19
  -5  -3  13    1.23    2.28
  -6  -3  -7    4.21    1.53
  -6  -3  -6   -0.68    1.27
  -6  -3  -5   16.90    1.41
  -6  -3  -4   38.58    1.52
  -6  -3  -4   32.57    1.29
  -6  -3  -3    7.75    0.92
  -6  -3  -2    1.02    0.74
  -6  -3  -1    5.03    1.50
  -6  -3  -1    3.33    0.65
  -6  -3   0   16.43    1.51
  -6  -3   0   14.53    2.18
  -6  -3   1   90.44    2.65
  -6  -3   1  102.45    4.47
  -6  -3   2  115.27    5.44
  -6  -3   2  101.05    2.92
  -6  -3   3    2.59    1.14
  -6  -3   3    1.09    2.73
  -6  -3   4  103.37    2.99
  -6  -3   5   88.12    2.65
  -6  -3   6   10.82    1.35
  -6  -3   6   11.69    0.52
  -6  -3   7    5.12    0.81
  -6  -3   7    4.80    1.32
  -6  -3   8    1.82    1.33
  -6  -3   9   10.18    1.86
  -6  -3  10   45.10    2.59
  -6  -3  11   15.15    2.21
  -6  -3  12    0.31    2.19
  -7  -3  -6    5.05    1.37
  -7  -3  -5    1.44    1.26
  -7  -3  -4   11.52    1.24
  -7  -3  -3   12.11    1.10
  -7  -3  -2    0.18    0.83
  -7  -3  -1    0.69    0.73
  -7  -3   0    0.38    0.68
  -7  -3   0    0.45    1.63
  -7  -3   1    9.04    2.18
  -7  -3   1    7.61    0.79
  -7  -3   1    9.51    1.27
  -7  -3   2   57.60    4.02
  -7  -3   2   53.05    2.17
  -7  -3   3   21.72    1.64
  -7  -3   3   21.58    3.43
  -7  -3   4   22.70    1.62
  -7  -3   4   33.25    4.84
  -7  -3   5   50.54    2.19
  -7  -3   6    7.58    1.32
  -7  -3   6    6.02    0.66
  -7  -3   7    0.32    0.42
  -7  -3   7    0.67    1.41
  -7  -3   8   -0.03    1.52
  -7  -3   9   -0.03    1.45
  -7  -3  10   12.14    1.99
  -7  -3  11    9.87    2.30
  -7  -3  12    1.34    2.17
  -8  -3  -4    1.27    1.21
  -8  -3  -3    2.72    1.06
  -8  -3  -2    6.87    1.03
  -8  -3  -1    4.47    0.89
  -8  -3   0    6.09    0.80
  -8  -3   1   49.24    2.26
  -8  -3   1   35.55    1.38
  -8  -3   2   20.31    1.55
  -8  -3   2   24.62    3.08
  -8  -3   3    1.41    1.31
  -8  -3   3    2.95    3.32
  -8  -3   4    1.15    1.39
  -8  -3   5    1.66    1.38
  -8  -3   6   20.64    1.78
  -8  -3   6   14.66    1.06
  -8  -3   7   35.79    2.02
  -8  -3   7   30.17    1.06
  -8  -3   8    7.38    1.73
  -8  -3   9    4.92    1.76
  -8  -3  10    9.40    2.00
  -8  -3  11    1.87    1.83
  -9  -3  -2    3.92    1.12
  -9  -3  -1    9.87    1.08
  -9  -3   0    2.07    0.87
  -9  -3   1   10.94    1.74
  -9  -3   1    8.35    0.98
  -9  -3   2   19.76    1.21
  -9  -3   2   21.27    1.74
  -9  -3   3    4.08    1.41
  -9  -3   4    0.86    1.47
  -9  -3   5    1.68    1.55
  -9  -3   6    4.67    1.59
  -9  -3   7   21.67    2.05
  -9  -3   8    7.24    1.59
  -9  -3   9    1.02    1.75
 -10  -3   1    1.15    0.86
 -10  -3   2    2.40    0.94
 -10  -3   3    6.01    1.01
   9  -2 -11   10.64    3.44
   9  -2 -10   27.98    4.03
   9  -2  -9   30.47    4.20
   9  -2  -8   41.43    4.49
   9  -2  -7   21.63    2.55
   9  -2  -6   -0.11    2.19
   9  -2  -5   10.27    2.57
   9  -2  -1   31.46    3.14
   9  -2   0   22.70    2.84
   9  -2   1   16.35    2.57
   9  -2   2    5.43    2.24
   9  -2   3    0.14    2.00
   8  -2 -11   12.73    2.92
   8  -2 -10   63.99    4.08
   8  -2 -10   40.65    2.59
   8  -2  -9   30.49    2.48
   8  -2  -9   56.98    4.40
   8  -2  -8   36.02    3.84
   8  -2  -6   16.65    2.16
   8  -2  -5    6.38    2.11
   8  -2  -4   30.01    2.61
   8  -2   0   22.31    2.67
   8  -2   1   30.09    2.75
   8  -2   2   29.34    2.57
   8  -2   3    6.01    1.93
   8  -2   4    0.82    1.65
   7  -2 -11   14.03    1.77
   7  -2 -11    9.25    2.26
   7  -2 -10   32.12    2.97
   7  -2 -10   25.53    2.05
   7  -2  -9    4.08    2.65
   7  -2  -9    2.91    1.51
   7  -2  -9    0.08    4.41
   7  -2  -8   20.49    4.97
   7  -2  -8   21.75    1.77
   7  -2  -7    9.72    4.53
   7  -2  -6   18.86    4.57
   7  -2  -5   77.24    3.18
   7  -2  -5   69.85    5.94
   7  -2  -4   43.50    5.26
   7  -2  -4   35.53    2.48
   7  -2  -3   32.14    2.52
   7  -2  -3   37.79    1.97
   7  -2  -2   61.62    2.50
   7  -2  -1   16.34    1.68
   7  -2   0   11.93    1.66
   7  -2   1   24.12    2.30
   7  -2   2    1.28    1.75
   7  -2   3   18.45    2.07
   7  -2   4    9.02    1.67
   7  -2   5    3.14    1.46
   6  -2 -13   13.69    2.15
   6  -2 -12    7.32    1.82
   6  -2 -11    4.23    1.61
   6  -2 -11    3.87    1.62
   6  -2 -10   14.27    2.05
   6  -2 -10   17.82    1.66
   6  -2  -9    1.78    3.77
   6  -2  -9    5.29    1.30
   6  -2  -9    3.18    1.98
   6  -2  -8   27.86    4.47
   6  -2  -8   37.22    1.92
   6  -2  -7   78.77    2.63
   6  -2  -7   62.10    5.45
   6  -2  -6    5.56    3.57
   6  -2  -5  109.22    6.46
   6  -2  -4  138.02    6.96
   6  -2  -3   87.70    2.61
   6  -2  -3   82.48    3.10
   6  -2  -2  134.67    3.56
   6  -2  -1  106.51    6.94
   6  -2  -1  110.63    3.17
   6  -2   0   -3.70    4.53
   6  -2   0    2.62    1.23
   6  -2   1   74.24    2.63
   6  -2   1   66.80    3.11
   6  -2   1   62.67    5.97
   6  -2   2   21.78    1.55
   6  -2   2   22.20    2.05
   6  -2   3    2.03    1.44
   6  -2   3    1.71    1.26
   6  -2   4   10.80    1.55
   6  -2   4   14.40    6.19
   6  -2   5    4.10    6.43
   6  -2   5    2.09    1.28
   6  -2   6   -0.78    6.88
   6  -2   7    5.14    7.64
   5  -2 -13    4.16    1.96
   5  -2 -12   -0.62    1.79
   5  -2 -11    3.58    1.69
   5  -2 -10   -0.35    1.35
   5  -2 -10    0.30    1.40
   5  -2  -9   32.10    2.00
   5  -2  -9   24.05    1.84
   5  -2  -8   29.89    3.97
   5  -2  -8   35.49    2.00
   5  -2  -7   19.12    1.28
   5  -2  -7   26.14    2.24
   5  -2  -6   47.78    1.86
   5  -2  -6   34.46    4.11
   5  -2  -5  106.13    5.78
   5  -2  -4   35.62    3.90
   5  -2  -3   33.47    4.11
   5  -2  -2   26.27    1.91
   5  -2  -2   29.78    1.45
   5  -2  -1   40.56    1.73
   5  -2  -1   43.05    4.51
   5  -2   0  123.36    3.16
   5  -2   0  131.05    7.15
   5  -2   0  125.61    4.05
   5  -2   1   39.94    4.72
   5  -2   1   46.75    2.42
   5  -2   1   46.15    1.81
   5  -2   2   16.23    1.31
   5  -2   2   18.61    1.68
   5  -2   3   35.37    1.99
   5  -2   3   35.27    6.48
   5  -2   3   39.60    1.74
   5  -2   4   21.41    1.59
   5  -2   4   20.38    6.95
   5  -2   4   20.92    1.36
   5  -2   5    1.21    1.16
   5  -2   5    0.86    0.97
   5  -2   5    1.12    5.88
   5  -2   6    9.94    7.22
   5  -2   7   -1.51    7.58
   4  -2 -13    2.06    1.91
   4  -2 -12   -0.22    1.66
   4  -2 -11   14.10    1.78
   4  -2 -10   17.40    1.76
   4  -2  -9   11.78    1.47
   4  -2  -9   15.32    1.38
   4  -2  -8  145.81    3.50
   4  -2  -8  123.88    3.50
   4  -2  -7  112.96    5.52
   4  -2  -7  132.83    3.70
   4  -2  -6   74.64    2.52
   4  -2  -6   67.09    4.43
   4  -2  -5  205.14    4.75
   4  -2  -5  219.84    4.55
   4  -2  -4  137.57    3.97
   4  -2  -4   91.61    5.23
   4  -2  -3   55.21    2.54
   4  -2  -3   47.97    4.00
   4  -2  -2  368.17    7.59
   4  -2  -2  316.21    6.18
   4  -2  -1   40.45    1.46
   4  -2   0  103.73    3.35
   4  -2   0  102.30    2.57
   4  -2   1  182.20    3.89
   4  -2   1  202.75    4.88
   4  -2   2   78.39    2.16
   4  -2   2   75.55    2.67
   4  -2   3  106.77    2.58
   4  -2   3  110.81    3.16
   4  -2   4   95.17    2.82
   4  -2   4  108.35    2.74
   4  -2   5   11.07    1.08
   4  -2   5   16.62    7.88
   4  -2   6   11.27    1.20
   4  -2   7    4.63    7.75
   4  -2   8    2.74    7.44
   3  -2 -13    1.50    1.81
   3  -2 -12    7.22    1.77
   3  -2 -11    2.46    1.46
   3  -2 -10    0.64    1.23
   3  -2  -9    3.71    1.21
   3  -2  -8   66.42    2.30
   3  -2  -7   13.82    1.16
   3  -2  -7   14.68    1.19
   3  -2  -6   15.60    1.16
   3  -2  -6   22.56    1.27
   3  -2  -5    3.98    0.79
   3  -2  -5    5.65    1.01
   3  -2  -4  138.98    3.04
   3  -2  -4  133.86    3.30
   3  -2  -3  223.04    4.76
   3  -2  -3  204.84    7.19
   3  -2  -2   32.08    1.61
   3  -2  -2   28.41    3.24
   3  -2  -1   28.78    1.07
   3  -2   0  221.46    4.32
   3  -2   1  124.91    2.68
   3  -2   1  126.60    3.30
   3  -2   2    6.26    0.93
   3  -2   2    4.30    3.89
   3  -2   2    4.86    0.62
   3  -2   3   21.34    1.20
   3  -2   3   17.02    0.97
   3  -2   3   24.67    5.84
   3  -2   4    7.64    0.97
   3  -2   4    6.38    0.87
   3  -2   5   41.44    1.52
   3  -2   5   82.18    9.80
   3  -2   6    6.71    0.91
   3  -2   7    1.60    0.83
   3  -2   9   11.27    8.25
   2  -2 -13    4.31    2.11
   2  -2 -12   11.45    2.12
   2  -2 -11   29.58    2.23
   2  -2 -10   13.55    1.68
   2  -2  -9   11.12    1.42
   2  -2  -8   40.02    1.87
   2  -2  -7    9.79    1.24
   2  -2  -6   80.12    2.38
   2  -2  -5  232.65    4.78
   2  -2  -4    1.87    0.59
   2  -2  -4    1.88    0.67
   2  -2  -3  508.01    8.76
   2  -2  -3  488.02    8.59
   2  -2  -2  541.82    9.62
   2  -2  -2  525.43    9.64
   2  -2  -2  550.91    9.79
   2  -2  -1  406.54    7.62
   2  -2   0  480.85    8.26
   2  -2   1  446.44    7.64
   2  -2   1  432.71    8.22
   2  -2   2    2.13    0.47
   2  -2   2    1.66    0.67
   2  -2   3  240.01    4.49
   2  -2   4   55.47    1.40
   2  -2   4   49.67    1.97
   2  -2   5    7.33    0.67
   2  -2   5    7.61    1.05
   2  -2   6   11.72    0.96
   2  -2   6   20.74    1.05
   2  -2   7    1.72    0.66
   2  -2   7    8.25    0.87
   2  -2   8    4.07    0.77
   2  -2   8    2.84    0.93
   1  -2 -12    0.26    1.96
   1  -2 -11   14.03    2.11
   1  -2 -10    5.75    1.74
   1  -2  -9    1.17    1.35
   1  -2  -8    3.02    1.08
   1  -2  -7   55.36    2.05
   1  -2  -6   31.33    1.47
   1  -2  -5    6.48    0.88
   1  -2  -4   22.60    1.07
   1  -2  -3  231.41    4.54
   1  -2  -2  279.73    5.03
   1  -2  -2  276.25    5.14
   1  -2   1  276.94    4.61
   1  -2   1  263.00    4.67
   1  -2   2  161.97    3.96
   1  -2   2  171.32    3.19
   1  -2   3   23.41    0.74
   1  -2   3   22.42    1.52
   1  -2   4    4.11    1.05
   1  -2   5   56.45    7.30
   1  -2   5   24.05    1.73
   1  -2   6   98.64    9.74
   1  -2   6   32.36    1.99
   1  -2   7    3.07    6.65
   1  -2   7   -0.02    1.25
   1  -2   8    9.74    7.12
   1  -2   8    1.66    1.38
   1  -2   9   -1.44    7.02
   1  -2   9    0.45    1.36
   1  -2  10    4.57    7.43
   0  -2 -11    8.18    1.97
   0  -2 -10    0.38    1.58
   0  -2  -9   24.42    1.92
   0  -2  -8   39.59    2.03
   0  -2  -7   29.05    1.25
   0  -2  -7   23.64    1.57
   0  -2  -6  190.29    3.64
   0  -2  -6  171.47    4.15
   0  -2  -5  253.00    4.59
   0  -2  -5  250.40    5.17
   0  -2  -4   92.95    1.92
   0  -2  -4   90.51    3.48
   0  -2  -3  477.56    8.58
   0  -2  -3  479.45   10.30
   0  -2  -2  182.87    5.23
   0  -2  -2  185.56    3.21
   0  -2   0  810.55   14.49
   0  -2   0  786.40   15.43
   0  -2   0  803.96   13.49
   0  -2   1  104.17    1.84
   0  -2   1  105.53    3.55
   0  -2   2  192.37    5.06
   0  -2   2  183.81    4.43
   0  -2   3  428.92    7.37
   0  -2   3  405.59    9.23
   0  -2   4   90.38    3.24
   0  -2   4   96.19    3.55
   0  -2   5  194.68    4.76
   0  -2   5  177.99    5.13
   0  -2   6  234.27   13.63
   0  -2   6  110.78    4.03
   0  -2   7   31.86    8.69
   0  -2   7   10.60    1.86
   0  -2   8   50.41    9.83
   0  -2   8   12.38    1.86
   0  -2   9   37.17    9.48
   0  -2   9    7.13    1.87
   0  -2  10    5.47    7.34
   0  -2  10    0.87    1.95
   0  -2  11    9.69    7.61
  -1  -2 -11    4.68    2.11
  -1  -2 -10   13.32    1.59
  -1  -2 -10   10.25    1.97
  -1  -2  -9    3.18    1.69
  -1  -2  -9    2.97    1.17
  -1  -2  -8    8.13    1.14
  -1  -2  -7    1.39    0.89
  -1  -2  -6  103.50    2.29
  -1  -2  -6   68.14    3.02
  -1  -2  -5   44.85    2.58
  -1  -2  -5   56.33    1.49
  -1  -2  -4    6.84    0.56
  -1  -2  -4    3.61    1.30
  -1  -2  -3   29.46    0.81
  -1  -2  -3   22.56    1.82
  -1  -2  -2  219.82    3.78
  -1  -2  -2  221.89    5.93
  -1  -2  -1  251.07    4.19
  -1  -2   0    9.88    1.01
  -1  -2   0    9.49    0.44
  -1  -2   1   15.62    0.38
  -1  -2   1   14.32    0.50
  -1  -2   1   15.28    0.48
  -1  -2   2  268.40    4.60
  -1  -2   2  271.00    4.73
  -1  -2   3  178.38    3.28
  -1  -2   3  193.84    3.46
  -1  -2   3  192.10    7.86
  -1  -2   4   13.77    0.57
  -1  -2   4   16.72    1.49
  -1  -2   5    4.82    1.20
  -1  -2   5    6.59    0.53
  -1  -2   6   21.06    1.78
  -1  -2   6   29.65    0.98
  -1  -2   7  102.83   11.03
  -1  -2   7   60.94    2.58
  -1  -2   8    4.51    7.73
  -1  -2   9    1.67    7.87
  -1  -2  10    5.00    7.74
  -1  -2  11   11.03    8.05
  -1  -2  11    4.12    2.32
  -2  -2 -10   11.94    1.63
  -2  -2 -10   11.56    2.21
  -2  -2  -9   40.19    2.04
  -2  -2  -8   18.26    1.49
  -2  -2  -7   17.68    1.25
  -2  -2  -7   10.54    1.57
  -2  -2  -6   57.90    1.76
  -2  -2  -6   35.96    2.42
  -2  -2  -5   16.64    0.88
  -2  -2  -5   13.60    1.78
  -2  -2  -4   78.61    1.77
  -2  -2  -3  294.03    5.19
  -2  -2  -2    1.06    0.40
  -2  -2  -2    2.61    0.32
  -2  -2  -1  420.66    7.11
  -2  -2  -1  452.55    8.50
  -2  -2   0  516.26    8.99
  -2  -2   0  536.75   10.31
  -2  -2   1  476.60    9.90
  -2  -2   1  460.69    8.07
  -2  -2   2  508.83    8.98
  -2  -2   2  608.60   11.78
  -2  -2   3  397.25    6.87
  -2  -2   3  414.00    7.18
  -2  -2   4    2.17    0.41
  -2  -2   4    1.78    2.84
  -2  -2   4    2.12    0.55
  -2  -2   5  270.26    4.99
  -2  -2   5  287.13    5.34
  -2  -2   6   78.59    1.78
  -2  -2   6  107.47    8.47
  -2  -2   7    9.74    0.66
  -2  -2   7    9.13    1.48
  -2  -2   8   29.11    1.93
  -2  -2   8   38.11    1.23
  -2  -2   9   11.65    1.38
  -2  -2   9   19.96    8.18
  -2  -2  10   17.26    8.15
  -2  -2  11   32.72    8.87
  -2  -2  12    9.61    8.19
  -3  -2 -10    1.72    1.64
  -3  -2  -9   18.32    1.81
  -3  -2  -8    8.22    1.40
  -3  -2  -7    2.81    1.18
  -3  -2  -7    1.09    1.44
  -3  -2  -6   13.40    1.07
  -3  -2  -6    9.61    1.92
  -3  -2  -5   79.30    2.03
  -3  -2  -4   11.46    0.79
  -3  -2  -3   23.94    0.84
  -3  -2  -3   17.72    1.09
  -3  -2  -2    4.97    0.60
  -3  -2  -2    6.16    0.47
  -3  -2  -1  103.71    1.87
  -3  -2  -1  100.88    1.91
  -3  -2   0  224.54    5.56
  -3  -2   1   29.94    1.11
  -3  -2   1   33.52    2.28
  -3  -2   2   26.11    0.94
  -3  -2   3  190.05    3.80
  -3  -2   4  106.88    2.55
  -3  -2   5    3.03    0.50
  -3  -2   5    3.55    0.81
  -3  -2   6   13.89    1.22
  -3  -2   6   14.02    0.76
  -3  -2   7   13.82    0.85
  -3  -2   7   18.08    5.46
  -3  -2   7   13.71    1.23
  -3  -2   8   80.70    2.44
  -3  -2   8   85.48    8.84
  -3  -2   9    4.21    1.54
  -3  -2   9   10.77    6.89
  -3  -2  10    0.27    1.25
  -3  -2  10    1.59    6.64
  -3  -2  11    4.32    6.94
  -3  -2  12   11.10    7.64
  -4  -2  -9    4.47    1.65
  -4  -2  -8    0.74    1.49
  -4  -2  -7    6.50    1.91
  -4  -2  -7   16.75    1.39
  -4  -2  -6    8.56    1.55
  -4  -2  -6   17.60    1.21
  -4  -2  -5    8.60    1.38
  -4  -2  -5   16.08    1.09
  -4  -2  -4  117.80    2.44
  -4  -2  -4   87.30    2.84
  -4  -2  -3  109.54    2.94
  -4  -2  -3  125.87    2.55
  -4  -2  -2   68.01    1.55
  -4  -2  -2   62.49    1.70
  -4  -2  -1  156.51    3.16
  -4  -2  -1  169.03    3.11
  -4  -2   0  107.45    3.59
  -4  -2   1   44.86    2.60
  -4  -2   2  339.24    6.43
  -4  -2   3   45.30    1.55
  -4  -2   4   84.03    2.10
  -4  -2   4   71.03    1.60
  -4  -2   5  181.79    3.83
  -4  -2   5  162.25    2.90
  -4  -2   6   60.78    1.56
  -4  -2   6   70.74    2.27
  -4  -2   7  118.92    2.65
  -4  -2   7  136.06    3.43
  -4  -2   8  116.15    2.69
  -4  -2   8  138.40    3.59
  -4  -2   9   19.92    6.05
  -4  -2   9   19.22    1.71
  -4  -2  10   20.58    6.66
  -4  -2  10   25.98    1.98
  -4  -2  11   21.41    2.09
  -4  -2  11   14.28    7.09
  -4  -2  12    1.47    1.76
  -4  -2  13    5.87    2.10
  -5  -2  -8    6.70    1.62
  -5  -2  -7   -0.48    1.27
  -5  -2  -6    8.87    1.26
  -5  -2  -6    7.23    1.49
  -5  -2  -5    1.35    1.26
  -5  -2  -5    2.22    1.00
  -5  -2  -4   25.88    1.18
  -5  -2  -4   19.73    1.52
  -5  -2  -3   39.12    1.31
  -5  -2  -3   35.95    1.57
  -5  -2  -2   14.76    0.82
  -5  -2  -2   15.59    0.94
  -5  -2  -1   39.96    1.22
  -5  -2  -1   37.21    1.12
  -5  -2  -1   39.94    1.93
  -5  -2   0  107.55    2.27
  -5  -2   0  119.48    3.83
  -5  -2   1   38.33    2.60
  -5  -2   2   29.50    1.33
  -5  -2   3   26.26    1.21
  -5  -2   4   35.86    1.53
  -5  -2   5   95.27    2.50
  -5  -2   5   84.15    1.91
  -5  -2   6   32.81    0.89
  -5  -2   6   43.22    1.89
  -5  -2   7    9.64    0.80
  -5  -2   7   11.40    3.59
  -5  -2   7   12.12    1.44
  -5  -2   8   37.55    2.00
  -5  -2   8   30.15    1.24
  -5  -2   9   28.01    2.02
  -5  -2   9   24.08    6.36
  -5  -2  10   -0.32    5.85
  -5  -2  10    0.24    1.59
  -5  -2  11    5.05    6.96
  -5  -2  11    8.54    1.91
  -5  -2  12   -1.42    7.61
  -5  -2  12    0.94    1.96
  -5  -2  13    7.61    2.29
  -6  -2  -7   13.11    1.52
  -6  -2  -6    6.65    1.33
  -6  -2  -5    2.42    1.35
  -6  -2  -5    5.14    1.17
  -6  -2  -4   13.31    1.11
  -6  -2  -4   11.06    1.24
  -6  -2  -3    2.69    0.87
  -6  -2  -3    2.00    0.80
  -6  -2  -2   22.03    1.13
  -6  -2  -2   20.79    0.99
  -6  -2  -1   47.22    1.26
  -6  -2  -1   31.97    1.35
  -6  -2   0    1.02    0.62
  -6  -2   0    1.79    1.56
  -6  -2   1  117.86    4.54
  -6  -2   3   89.76    2.62
  -6  -2   4  118.30    3.03
  -6  -2   5   95.48    2.68
  -6  -2   5   81.21    2.17
  -6  -2   6    1.62    0.48
  -6  -2   6    1.27    0.99
  -6  -2   7   51.25    1.30
  -6  -2   7   71.78    2.54
  -6  -2   8   29.39    1.94
  -6  -2   9    1.15    4.01
  -6  -2   9    1.31    1.60
  -6  -2  10    9.09    5.20
  -6  -2  10    9.61    1.89
  -6  -2  11    3.59    6.27
  -6  -2  11    5.17    1.91
  -6  -2  12    5.62    7.53
  -6  -2  12    9.67    2.30
  -7  -2  -5    5.29    1.30
  -7  -2  -4   10.33    1.18
  -7  -2  -3   18.62    1.21
  -7  -2  -3   20.30    1.26
  -7  -2  -2    3.63    0.88
  -7  -2  -2    0.74    0.77
  -7  -2  -1   15.42    0.90
  -7  -2  -1   15.01    1.41
  -7  -2   0    8.12    1.63
  -7  -2   0   10.89    1.33
  -7  -2   0    9.42    0.82
  -7  -2   1   16.16    2.44
  -7  -2   1   12.55    0.90
  -7  -2   2   80.41    4.66
  -7  -2   4   33.60    1.75
  -7  -2   5   51.35    2.06
  -7  -2   6   13.53    1.41
  -7  -2   6   10.24    0.89
  -7  -2   7    9.06    1.41
  -7  -2   7    7.75    0.70
  -7  -2   8   13.73    0.70
  -7  -2   8   16.49    1.73
  -7  -2   9    0.83    1.57
  -7  -2  10   20.29    2.15
  -7  -2  11    6.89    2.08
  -7  -2  12    1.39    2.16
  -8  -2  -4    1.38    1.11
  -8  -2  -3    4.58    1.07
  -8  -2  -2   25.41    1.27
  -8  -2  -1   21.02    1.15
  -8  -2   0   20.69    1.73
  -8  -2   0   13.37    0.99
  -8  -2   1   21.52    1.13
  -8  -2   1   21.45    2.39
  -8  -2   2   15.36    2.56
  -8  -2   4   31.57    1.80
  -8  -2   5    5.20    1.33
  -8  -2   6   12.85    1.48
  -8  -2   6    9.50    1.05
  -8  -2   7   21.54    1.81
  -8  -2   7   15.20    0.98
  -8  -2   8   17.69    1.83
  -8  -2   8   10.55    0.80
  -8  -2   9   25.20    1.94
  -8  -2  10   32.58    2.33
  -8  -2  11    5.69    2.08
  -9  -2  -2    3.30    1.07
  -9  -2  -1   10.91    1.07
  -9  -2   0    9.50    0.94
  -9  -2   1   14.81    1.06
  -9  -2   1   17.91    1.63
  -9  -2   2   19.34    1.14
  -9  -2   5   11.76    1.59
  -9  -2   6    2.17    1.42
  -9  -2   6    0.91    1.00
  -9  -2   7   18.08    1.70
  -9  -2   8   16.85    1.88
  -9  -2   9   11.86    1.88
 -10  -2   1    2.29    0.92
 -10  -2   2    1.01    0.92
 -10  -2   3   11.61    1.13
  10  -1  -6    6.42    2.34
   9  -1 -11   16.04    3.64
   9  -1  -9    1.06    2.04
   9  -1  -8   10.57    2.24
   9  -1  -7   26.51    2.70
   9  -1  -6    7.22    2.13
   9  -1  -5    0.15    2.02
   9  -1  -4   -2.35    2.35
   9  -1   2    9.97    2.10
   9  -1   3    1.79    1.85
   8  -1 -11   11.50    2.93
   8  -1 -11    8.30    1.74
   8  -1  -8   14.26    1.81
   8  -1  -7   74.44    3.06
   8  -1  -6   27.77    2.32
   8  -1  -5    1.54    1.70
   8  -1  -4    0.49    1.70
   8  -1  -3   -2.53    2.05
   8  -1   3    4.79    1.76
   8  -1   4    2.27    1.62
   7  -1 -11   18.54    2.61
   7  -1 -10   -2.96    5.13
   7  -1 -10   20.23    1.62
   7  -1  -8   -3.37    4.67
   7  -1  -7   -4.16    4.42
   7  -1  -7    1.53    1.19
   7  -1  -6   13.31    4.04
   7  -1  -6   14.08    1.61
   7  -1  -5   67.82    2.74
   7  -1  -5   76.53    5.55
   7  -1  -4   19.55    4.30
   7  -1  -4   21.48    1.84
   7  -1  -4   21.21    1.57
   7  -1  -3   24.92    1.75
   7  -1  -3   22.85    1.97
   7  -1  -2   68.43    2.61
   7  -1  -2   83.81    5.26
   7  -1  -1   14.64    1.63
   7  -1   0    0.43    1.32
   7  -1   3   14.60    5.33
   7  -1   4   10.17    1.66
   7  -1   5   -1.80    6.10
   7  -1   5    0.72    1.30
   6  -1 -11   17.99    3.53
   6  -1 -11   20.85    2.02
   6  -1 -10   78.18    3.22
   6  -1 -10   36.78    4.89
   6  -1  -9    3.59    4.00
   6  -1  -8   -2.95    3.88
   6  -1  -7    8.18    3.61
   6  -1  -6   10.69    3.49
   6  -1  -6   15.47    1.24
   6  -1  -5  130.13    3.33
   6  -1  -5  140.03    6.29
   6  -1  -4  161.23    4.04
   6  -1  -4  164.07    6.59
   6  -1  -3    0.63    1.14
   6  -1  -3    1.18    1.03
   6  -1  -2  150.75    4.41
   6  -1  -2  158.75    3.91
   6  -1  -1  114.55    3.22
   6  -1  -1  125.24    5.73
   6  -1   0   15.18    1.49
   6  -1   0   12.95    3.15
   6  -1   1    4.50    3.18
   6  -1   1    5.96    1.10
   6  -1   2    3.87    1.18
   6  -1   2    4.45    4.27
   6  -1   3    8.53    4.97
   6  -1   4   33.14    2.01
   6  -1   4   39.85    7.32
   6  -1   5    8.16    6.36
   6  -1   5   10.42    1.41
   6  -1   6    0.44    1.02
   5  -1 -12    0.13    1.58
   5  -1 -11    2.85    2.23
   5  -1 -11    0.38    1.06
   5  -1 -11    0.15    1.38
   5  -1 -10    2.27    1.34
   5  -1 -10    2.07    1.27
   5  -1  -9    0.13    3.37
   5  -1  -9    0.13    1.08
   5  -1  -8   33.98    1.78
   5  -1  -8   43.54    4.08
   5  -1  -7    3.12    3.08
   5  -1  -6   40.04    3.82
   5  -1  -5   89.71    4.70
   5  -1  -4    0.31    2.66
   5  -1  -4    0.97    0.79
   5  -1  -3   -1.57    2.90
   5  -1  -3    0.65    0.83
   5  -1  -2    0.01    1.03
   5  -1  -2    0.80    0.84
   5  -1  -1    4.19    2.56
   5  -1  -1    0.87    0.87
   5  -1   0   94.19    2.59
   5  -1   0  101.73    4.84
   5  -1   1   39.65    1.67
   5  -1   1   43.57    3.85
   5  -1   2    6.65    3.00
   5  -1   2    7.38    1.04
   5  -1   3   42.65    1.63
   5  -1   3   51.28    4.66
   5  -1   4    5.83    1.06
   5  -1   4    7.24    1.21
   5  -1   5    0.32    1.01
   5  -1   6   -0.28    0.93
   4  -1 -13    9.75    1.84
   4  -1 -12    0.03    1.43
   4  -1 -11    4.49    1.36
   4  -1 -10    4.28    1.28
   4  -1 -10    3.11    1.67
   4  -1 -10    1.02    0.89
   4  -1  -9    8.71    1.24
   4  -1  -9    8.17    1.14
   4  -1  -8   77.64    2.57
   4  -1  -8   73.04    4.06
   4  -1  -7   72.38    2.28
   4  -1  -7   62.27    3.74
   4  -1  -6   45.22    1.70
   4  -1  -6   38.34    3.09
   4  -1  -5  285.05    7.76
   4  -1  -4  179.31    5.81
   4  -1  -3    0.92    2.02
   4  -1  -3    3.05    0.67
   4  -1  -2    8.80    1.04
   4  -1  -2    1.66    0.63
   4  -1  -1    2.88    2.02
   4  -1  -1    3.03    0.98
   4  -1  -1    4.07    0.73
   4  -1   0  200.77    4.08
   4  -1   0  190.21    6.31
   4  -1   1  400.36    7.42
   4  -1   1  392.91   10.56
   4  -1   2   43.46    1.49
   4  -1   2   46.90    5.68
   4  -1   3   68.11    6.60
   4  -1   3   71.27    2.11
   4  -1   4   71.76    2.15
   4  -1   4   69.01    7.37
   4  -1   4   66.98    2.23
   4  -1   5    6.17    5.50
   4  -1   5    3.27    0.98
   4  -1   5    4.13    0.89
   4  -1   6    0.14    0.79
   4  -1   6    0.84    5.59
   4  -1   6    0.64    0.90
   4  -1   7    4.23    5.65
   4  -1   8    4.90    6.12
   3  -1 -13    4.12    1.69
   3  -1 -12    1.47    1.49
   3  -1 -11   10.75    1.49
   3  -1 -10    1.35    1.18
   3  -1  -9   12.66    1.25
   3  -1  -9    3.40    1.17
   3  -1  -8    6.18    0.81
   3  -1  -8    5.24    0.99
   3  -1  -7    8.16    0.91
   3  -1  -7    8.25    0.97
   3  -1  -6    1.95    0.67
   3  -1  -6    2.11    1.75
   3  -1  -5   24.61    1.11
   3  -1  -5   15.51    2.01
   3  -1  -4    2.26    1.57
   3  -1  -4    1.66    0.58
   3  -1  -3   99.69    3.76
   3  -1  -2   64.41    1.79
   3  -1  -1   59.57    1.56
   3  -1  -1   56.49    1.79
   3  -1   0  121.08    2.57
   3  -1   0  135.69    4.61
   3  -1   1    4.84    1.92
   3  -1   1    2.30    2.63
   3  -1   1    3.45    0.54
   3  -1   2   20.94    3.70
   3  -1   2   18.17    2.83
   3  -1   2   18.67    0.93
   3  -1   3    2.15    0.66
   3  -1   3    2.15    0.52
   3  -1   3    2.67    0.74
   3  -1   4    1.88    0.72
   3  -1   4    1.59    0.59
   3  -1   4    0.74    5.29
   3  -1   4    1.68    0.70
   3  -1   5   12.62    0.84
   3  -1   5    6.27    0.84
   3  -1   5   25.00    6.64
   3  -1   5   17.91    0.87
   3  -1   6   28.10    1.03
   3  -1   6   38.16    7.54
   3  -1   7    1.30    6.00
   3  -1   7    0.19    0.68
   3  -1   9    6.92    7.12
   2  -1 -13    0.79    1.86
   2  -1 -12    0.49    1.61
   2  -1 -11   14.41    1.59
   2  -1 -10    5.92    1.35
   2  -1  -9   40.62    1.89
   2  -1  -8  140.58    3.47
   2  -1  -7   14.95    1.01
   2  -1  -7   26.92    1.26
   2  -1  -6    9.64    0.69
   2  -1  -6    7.93    0.82
   2  -1  -5    7.33    0.71
   2  -1  -5    6.74    0.69
   2  -1  -4   24.51    1.79
   2  -1  -4   34.74    1.15
   2  -1  -3  548.54    9.33
   2  -1  -3  482.80   10.50
   2  -1  -2  981.70   16.31
   2  -1  -2  894.00   17.64
   2  -1  -1    1.76    0.48
   2  -1   0  952.57   16.08
   2  -1   0 1018.23   18.47
   2  -1   1  556.61   14.47
   2  -1   1  561.05   11.95
   2  -1   2   32.61    1.20
   2  -1   2   35.16    0.89
   2  -1   3    0.83    0.46
   2  -1   3    1.57    0.40
   2  -1   3    1.61    0.55
   2  -1   4   11.44    0.68
   2  -1   4    4.75    0.73
   2  -1   4   10.35    0.56
   2  -1   4    4.23    0.55
   2  -1   5   11.90    0.95
   2  -1   5   16.13    0.94
   2  -1   6   39.49    1.85
   2  -1   6  103.49    1.86
   2  -1   7    8.96    1.04
   2  -1   8    3.72    0.86
   2  -1   8    2.21    0.90
   2  -1   9    2.37    0.80
   2  -1   9   18.62    8.18
   1  -1 -13   -0.48    2.03
   1  -1 -12    0.74    1.88
   1  -1 -11    0.34    1.46
   1  -1 -10    6.15    1.47
   1  -1  -9    1.06    1.11
   1  -1  -8   19.48    1.38
   1  -1  -7    4.65    0.92
   1  -1  -6   29.44    1.33
   1  -1  -5    5.05    0.68
   1  -1  -4   26.90    0.99
   1  -1  -3   73.53    1.59
   1  -1  -3   70.74    1.65
   1  -1  -2   91.51    1.91
   1  -1  -2   92.28    1.89
   1  -1  -1    0.86    0.30
   1  -1  -1    0.76    0.24
   1  -1   1   79.72    1.53
   1  -1   2   72.97    2.11
   1  -1   2   83.29    1.77
   1  -1   3   32.38    1.39
   1  -1   3   36.90    0.90
   1  -1   4    4.45    0.45
   1  -1   4    3.54    0.82
   1  -1   5   54.83    1.28
   1  -1   5   32.71    1.83
   1  -1   6    1.80    0.52
   1  -1   6    0.83    1.17
   1  -1   7    3.82    0.65
   1  -1   7    2.58    1.33
   1  -1   8    0.27    1.13
   1  -1   9    2.44    1.39
   1  -1  10    8.64    8.00
   0  -1 -12   10.63    2.07
   0  -1 -11   15.68    1.99
   0  -1 -10    1.29    1.40
   0  -1  -9    9.18    1.19
   0  -1  -9    8.11    1.45
   0  -1  -8    2.26    1.16
   0  -1  -8    1.00    0.85
   0  -1  -7   10.79    0.92
   0  -1  -6  169.81    3.44
   0  -1  -5  186.25    3.58
   0  -1  -4   91.58    1.89
   0  -1  -3  829.38   13.71
   0  -1  -3  790.87   14.76
   0  -1  -2  456.04    7.63
   0  -1  -2  458.67    8.76
   0  -1  -1    3.05    0.25
   0  -1   0    0.03    0.33
   0  -1   0    0.04    0.38
   0  -1   1    2.10    0.54
   0  -1   2  437.84    8.58
   0  -1   2  530.87   12.67
   0  -1   3  716.29   12.89
   0  -1   4   75.61    1.58
   0  -1   5  137.04    2.63
   0  -1   6  124.77    2.50
   0  -1   7    8.30    0.64
   0  -1   8    1.43    0.59
   0  -1  11   25.91    9.14
  -1  -1 -11    7.83    2.05
  -1  -1 -11    7.91    1.61
  -1  -1 -10    2.53    1.69
  -1  -1 -10    2.17    1.32
  -1  -1  -9    8.95    1.35
  -1  -1  -8    1.39    0.99
  -1  -1  -7   10.01    1.07
  -1  -1  -6    2.69    0.74
  -1  -1  -5   51.18    1.95
  -1  -1  -5   64.69    1.60
  -1  -1  -4    6.00    0.51
  -1  -1  -4    3.89    0.86
  -1  -1  -3   42.43    1.02
  -1  -1  -2  101.10    1.88
  -1  -1  -1   73.65    1.33
  -1  -1   0    1.63    0.53
  -1  -1   3  124.80    7.06
  -1  -1   5    6.16    0.88
  -1  -1   6   29.47    0.95
  -1  -1   6   19.07    1.18
  -1  -1   7    4.08    0.59
  -1  -1   8   20.23    0.93
  -1  -1  12   10.59    8.75
  -2  -1 -10    3.93    1.58
  -2  -1  -9   22.52    1.72
  -2  -1  -8    9.73    1.31
  -2  -1  -7   61.54    2.02
  -2  -1  -6  159.70    3.36
  -2  -1  -5   38.82    1.23
  -2  -1  -4   15.12    0.75
  -2  -1  -3    2.87    0.40
  -2  -1  -2   35.94    0.89
  -2  -1  -1  417.29    7.74
  -2  -1  -1  424.72    7.15
  -2  -1  -1  434.15    7.50
  -2  -1   0  945.81   15.22
  -2  -1   0  839.41   14.18
  -2  -1   3  467.54    7.80
  -2  -1   3  466.28    8.24
  -2  -1   8  117.13    2.34
  -2  -1   8   90.73    2.71
  -2  -1  12    0.47    7.82
  -3  -1 -10    2.67    1.66
  -3  -1  -9    3.41    1.45
  -3  -1  -8   15.05    1.53
  -3  -1  -7    0.51    1.01
  -3  -1  -7   -0.10    0.96
  -3  -1  -6   27.14    1.25
  -3  -1  -5   19.63    1.05
  -3  -1  -4    3.24    0.60
  -3  -1  -3    3.09    0.50
  -3  -1  -2   18.73    0.67
  -3  -1  -2   12.55    1.01
  -3  -1  -1    3.76    0.64
  -3  -1  -1    2.63    0.58
  -3  -1  -1    3.44    0.35
  -3  -1  -1    2.21    0.67
  -3  -1   0  108.77    2.29
  -3  -1   0  131.45    2.58
  -3  -1   3   94.14    3.35
  -3  -1   4    4.31    2.45
  -3  -1   4    2.41    0.62
  -3  -1   4    3.52    0.32
  -3  -1   5   24.30    1.18
  -3  -1  10    0.07    0.92
  -3  -1  12    3.02    7.98
  -4  -1  -9   10.41    1.78
  -4  -1  -8   -0.19    1.32
  -4  -1  -7    4.96    1.12
  -4  -1  -6    3.00    1.01
  -4  -1  -5    9.62    1.01
  -4  -1  -4   87.57    2.02
  -4  -1  -4   64.38    2.66
  -4  -1  -3   79.10    1.83
  -4  -1  -3   66.80    2.42
  -4  -1  -2   42.47    1.16
  -4  -1  -2   39.99    1.68
  -4  -1  -1  356.90    6.79
  -4  -1  -1  373.17    7.03
  -4  -1  -1  341.22    6.29
  -4  -1  -1  390.15    6.76
  -4  -1   0  213.62    3.97
  -4  -1   0  174.49    3.63
  -4  -1   1    3.18    0.62
  -4  -1   4  159.51    4.89
  -4  -1   4  169.38    3.32
  -4  -1   5  374.82    7.03
  -4  -1   5  389.62   10.83
  -4  -1   6   54.23    1.84
  -4  -1   6   40.12    1.09
  -4  -1   7   81.37    2.57
  -4  -1   8   99.67    2.93
  -4  -1   9   13.62    1.45
  -4  -1  12    4.83    8.38
  -4  -1  13   13.65    8.29
  -5  -1  -8    1.59    1.32
  -5  -1  -7   -0.34    1.13
  -5  -1  -6   -1.60    1.57
  -5  -1  -6    0.40    1.08
  -5  -1  -5   -0.32    1.32
  -5  -1  -5    0.27    0.87
  -5  -1  -4    7.17    0.83
  -5  -1  -4    5.66    1.37
  -5  -1  -3   53.58    1.57
  -5  -1  -3   56.52    2.29
  -5  -1  -2    6.63    0.65
  -5  -1  -2    6.18    1.12
  -5  -1  -1   36.00    1.55
  -5  -1  -1   33.32    1.34
  -5  -1  -1   34.20    1.09
  -5  -1   0   89.92    2.31
  -5  -1   0   85.57    1.90
  -5  -1   1    1.11    0.79
  -5  -1   5   66.45    1.74
  -5  -1   6   37.28    1.79
  -5  -1   6   34.06    1.10
  -5  -1   7    5.84    1.26
  -5  -1   7    4.99    0.54
  -5  -1   8   76.47    7.62
  -5  -1   8   56.26    2.33
  -5  -1   9    6.60    5.95
  -5  -1   9    3.69    1.46
  -5  -1  10    6.86    6.96
  -5  -1  10    2.60    1.55
  -5  -1  11    5.24    7.36
  -5  -1  11    1.45    1.73
  -5  -1  12    7.75    7.66
  -5  -1  12    2.35    1.91
  -5  -1  13    3.18    2.11
  -6  -1  -7    3.44    1.37
  -6  -1  -6    1.40    1.17
  -6  -1  -5   16.67    1.21
  -6  -1  -4   47.97    1.61
  -6  -1  -4   38.77    2.17
  -6  -1  -3    6.99    1.38
  -6  -1  -3    7.16    0.88
  -6  -1  -2    3.05    0.70
  -6  -1  -2    3.84    1.02
  -6  -1  -1    6.08    0.90
  -6  -1  -1    6.36    1.02
  -6  -1  -1    4.72    0.68
  -6  -1   0   13.11    0.94
  -6  -1   0   12.45    1.01
  -6  -1   0   13.58    1.64
  -6  -1   0   10.62    0.81
  -6  -1   1  113.34    2.95
  -6  -1   2  139.74    3.32
  -6  -1   5   84.06    2.30
  -6  -1   6    9.23    0.75
  -6  -1   6   13.72    1.45
  -6  -1   7    7.68    1.26
  -6  -1   7    5.01    0.64
  -6  -1   8    2.67    1.37
  -6  -1   8    2.92    0.58
  -6  -1   9   11.58    4.19
  -6  -1   9    8.20    1.58
  -6  -1  10   57.85    7.49
  -6  -1  10   61.37    2.77
  -6  -1  11   18.52    6.84
  -6  -1  11   20.53    2.19
  -6  -1  12    1.52    1.92
  -6  -1  12    4.25    6.33
  -6  -1  13    3.92    6.01
  -7  -1  -5    0.63    1.04
  -7  -1  -4   11.25    1.11
  -7  -1  -3   14.41    1.39
  -7  -1  -3   13.31    1.09
  -7  -1  -2    1.96    0.77
  -7  -1  -2    2.91    1.03
  -7  -1  -1    0.42    0.63
  -7  -1  -1    0.64    0.62
  -7  -1  -1    2.44    0.92
  -7  -1   0    0.01    0.92
  -7  -1   0   -0.05    0.64
  -7  -1   0    0.21    1.46
  -7  -1   1   12.02    1.20
  -7  -1   2   60.83    2.13
  -7  -1   3   21.93    1.46
  -7  -1   5   43.72    1.79
  -7  -1   6    8.51    0.94
  -7  -1   7    0.91    0.64
  -7  -1   7   -0.07    1.14
  -7  -1   8    0.02    0.67
  -7  -1   8    1.86    1.45
  -7  -1   9    1.94    0.62
  -7  -1   9    1.32    3.02
  -7  -1   9    0.24    1.51
  -7  -1  10   10.55    1.92
  -7  -1  11    9.65    2.05
  -7  -1  12   -0.36    2.03
  -8  -1  -4    1.03    1.07
  -8  -1  -3    1.54    0.98
  -8  -1  -2   10.25    1.01
  -8  -1  -1    6.47    0.82
  -8  -1   0   11.23    1.30
  -8  -1   0    8.93    0.91
  -8  -1   1   47.56    1.86
  -8  -1   1   46.60    1.58
  -8  -1   2   27.20    1.66
  -8  -1   3    0.70    1.13
  -8  -1   4    1.79    1.17
  -8  -1   6   17.56    1.34
  -8  -1   7   39.73    1.59
  -8  -1   8   10.90    1.51
  -8  -1   8    9.82    1.00
  -8  -1   9    6.59    1.69
  -8  -1   9    4.70    0.77
  -8  -1  10   14.80    2.10
  -8  -1  11    2.56    1.90
  -9  -1  -1   13.04    1.10
  -9  -1   0    2.63    1.36
  -9  -1   0    2.08    0.77
  -9  -1   1    8.91    1.00
  -9  -1   1   11.64    1.40
  -9  -1   2   23.32    1.66
  -9  -1   2   21.47    1.19
  -9  -1   3    6.92    1.42
  -9  -1   4    1.26    1.21
  -9  -1   5    0.38    1.27
  -9  -1   6    4.89    1.21
  -9  -1   7   17.63    1.37
  -9  -1   8   10.41    1.69
  -9  -1   9    1.96    1.58
 -10  -1   2    2.29    0.96
 -10  -1   4    8.66    1.54
 -10  -1   5    0.73    1.34
  10   0  -7    2.43    2.17
  10   0  -6    1.01    2.16
   9   0  -9    0.93    1.51
   9   0  -8    0.25    1.78
   9   0  -7   -2.14    2.02
   9   0  -6    7.52    2.13
   9   0  -5   72.30    3.31
   9   0  -4   60.49    3.21
   8   0 -11    6.70    1.62
   8   0 -10   15.70    1.65
   8   0  -9    7.63    1.48
   8   0  -8    2.32    1.35
   8   0  -7    1.38    1.34
   8   0  -6    0.80    1.59
   8   0  -5   71.69    2.93
   8   0  -4  150.70    4.45
   8   0  -3   55.66    2.87
   8   0   3   -0.44    4.07
   8   0   4    2.43    5.02
   7   0 -11    2.29    3.73
   7   0 -10    4.42    3.25
   7   0  -9   17.12    3.31
   7   0  -8  105.45    2.92
   7   0  -8  121.15    5.16
   7   0  -7   88.50    2.68
   7   0  -7  104.81    4.67
   7   0  -6    8.21    2.55
   7   0  -6    6.02    1.16
   7   0  -5    5.96    2.57
   7   0  -5    1.57    1.20
   7   0  -4    1.19    2.49
   7   0  -3   -0.42    1.28
   7   0  -2    0.64    2.66
   7   0  -2    1.74    1.23
   7   0  -2   -0.66    1.66
   7   0  -1    4.81    1.34
   7   0   1   60.41    5.28
   7   0   2   10.61    4.33
   7   0   5    0.13    4.97
   7   0   5    1.33    1.29
   7   0   6   -3.62    5.21
   6   0 -11    4.42    3.08
   6   0 -10    5.67    2.78
   6   0  -9   18.93    2.94
   6   0  -8  187.83    6.05
   6   0  -7  341.24    8.57
   6   0  -6   47.18    1.75
   6   0  -6   60.03    3.37
   6   0  -5   14.68    1.12
   6   0  -5   19.63    2.43
   6   0  -4   26.62    1.46
   6   0  -4   35.89    2.79
   6   0  -2   17.52    1.52
   6   0  -2   23.85    2.73
   6   0  -1    8.08    2.50
   6   0  -1   11.68    1.35
   6   0   0   32.08    3.47
   6   0   0   37.08    1.64
   6   0   1  210.11    9.66
   6   0   1  239.47    5.35
   6   0   2  115.04    3.13
   6   0   2  122.49    5.12
   6   0   3    5.76    2.85
   6   0   3    2.68    3.40
   6   0   4   -0.11    3.72
   6   0   4   -4.33    3.63
   6   0   5    3.22    4.36
   6   0   6    0.77    1.03
   6   0   6    0.87    4.49
   6   0   7    4.06    4.86
   5   0 -12    1.60    1.40
   5   0 -11   22.31    1.72
   5   0 -11   21.42    1.63
   5   0 -10   10.09    1.38
   5   0 -10   27.93    2.83
   5   0  -9    5.83    2.10
   5   0  -9   -0.26    0.98
   5   0  -8    5.73    1.84
   5   0  -7   25.02    2.19
   5   0  -6   10.15    1.77
   5   0  -5    8.13    1.69
   5   0  -4   29.79    1.21
   5   0  -4   33.93    2.24
   5   0  -3  262.39    5.24
   5   0  -2  260.56    5.63
   5   0  -2  275.17    6.67
   5   0  -1   21.32    1.54
   5   0  -1   29.43    2.40
   5   0   0    6.13    2.02
   5   0   0    4.76    0.89
   5   0   1   -1.70    2.38
   5   0   1    3.39    0.91
   5   0   1    1.80    2.38
   5   0   2    8.64    3.83
   5   0   2    8.55    0.96
   5   0   2    9.95    2.22
   5   0   3   -0.94    2.43
   5   0   3    1.34    4.04
   5   0   3    0.69    0.90
   5   0   4    5.64    4.52
   5   0   4    0.27    0.88
   5   0   5   20.01    5.76
   5   0   6   35.83    6.76
   5   0   6   21.79    1.28
   5   0   7    7.94    6.04
   5   0   8    4.73    5.75
   4   0 -12    5.15    1.46
   4   0 -11   44.13    2.04
   4   0 -11   42.91    2.65
   4   0 -10   76.74    2.42
   4   0 -10   81.15    3.25
   4   0  -9   -0.05    0.90
   4   0  -8   29.13    1.44
   4   0  -7   16.60    1.10
   4   0  -3  401.85    6.88
   4   0  -3  353.98    7.05
   4   0  -2 1407.23   23.85
   4   0  -1  349.38    6.87
   4   0  -1  361.16    7.73
   4   0   0    2.14    1.52
   4   0   0    1.85    1.63
   4   0   1   11.60    0.83
   4   0   1   16.97    3.46
   4   0   1   14.50    2.18
   4   0   2    2.28    1.66
   4   0   2    0.39    0.72
   4   0   3    6.91    2.30
   4   0   3    8.15    0.99
   4   0   4   17.46    1.24
   4   0   4   27.29    3.36
   4   0   5    0.97    0.87
   4   0   5    0.57    0.73
   4   0   6   37.82    1.37
   4   0   9    5.87    5.95
   3   0 -12    1.47    1.34
   3   0 -11    4.80    1.32
   3   0 -10   17.85    1.40
   3   0 -10   11.59    1.58
   3   0  -9    3.91    0.95
   3   0  -9    1.86    0.65
   3   0  -8    2.22    0.77
   3   0  -7    7.32    0.81
   3   0  -6  138.40    3.01
   3   0  -5  150.18    3.18
   3   0  -2   58.39    1.34
   3   0  -2   49.99    1.46
   3   0  -1   55.96    1.59
   3   0  -1   56.92    2.10
   3   0   0    3.38    1.07
   3   0   1    1.52    1.35
   3   0   2  174.42    3.70
   3   0   2  216.59    5.39
   3   0   3  187.10    3.40
   3   0   3  201.95    5.69
   3   0   4   23.12    0.88
   3   0   4   18.85    2.58
   3   0   5    0.46    0.64
   3   0   5    0.96    0.58
   3   0   6    0.61    0.70
   3   0   6    0.57    0.63
   3   0   6    0.46    0.50
   2   0 -12    0.31    1.39
   2   0 -11    7.76    1.45
   2   0 -10    1.20    1.17
   2   0  -9    1.90    1.04
   2   0  -8    1.40    0.90
   2   0  -7    4.46    0.55
   2   0  -7    5.31    0.80
   2   0  -6  358.24    6.55
   2   0  -5  616.02   10.67
   2   0  -4  191.77    3.58
   2   0  -3  105.37    2.16
   2   0  -2  115.88    2.30
   2   0  -1   19.59    0.70
   2   0  -1   20.83    0.63
   2   0   0  118.42    2.52
   2   0   0  107.59    2.81
   2   0   1   82.99    2.71
   2   0   2  187.59    3.41
   2   0   2  196.77    4.76
   2   0   3  567.59   10.92
   2   0   3  641.46   10.60
   2   0   4  372.99    6.48
   2   0   5    2.97    0.45
   2   0   5    2.66    0.48
   2   0   6    2.34    0.55
   2   0   6    0.63    0.60
   2   0   7    2.76    0.62
   2   0   7    0.39    0.71
   2   0   8    0.25    0.76
   2   0   9    1.16    0.74
   1   0 -13    3.15    1.98
   1   0 -12    0.50    1.50
   1   0 -11    2.57    1.37
   1   0 -10    1.63    1.24
   1   0  -9   21.39    1.44
   1   0  -8    2.34    1.02
   1   0  -8    7.15    1.01
   1   0  -7    1.11    0.73
   1   0  -6    6.26    0.69
   1   0  -5   74.29    1.56
   1   0  -5  102.93    1.99
   1   0  -4   94.06    1.98
   1   0  -3    3.26    0.30
   1   0  -2   59.56    1.20
   1   0  -1  252.61    4.35
   1   0   0  250.80    4.14
   1   0   0  244.32    4.28
   1   0   1   90.16    1.65
   1   0   1  104.23    2.46
   1   0   2   11.09    0.38
   1   0   2   11.42    1.19
   1   0   3   81.24    1.62
   1   0   4   35.86    0.83
   1   0   4   20.87    0.60
   1   0   5    2.27    0.43
   1   0   6    1.51    0.48
   1   0   7   19.81    0.88
   0   0 -12    2.01    1.72
   0   0 -11    2.24    1.57
   0   0 -11    1.89    1.36
   0   0 -10    7.30    1.29
   0   0 -10    6.00    1.43
   0   0  -9   83.74    2.42
   0   0  -8  169.88    3.71
   0   0  -8  163.24    3.60
   0   0  -7   -0.85    1.07
   0   0  -7    1.21    0.77
   0   0  -6   38.02    1.70
   0   0  -5    8.82    1.08
   0   0   2    3.17    0.21
   0   0   3   68.76    1.37
   0   0   4    2.06    0.34
   0   0   5   13.40    0.61
   0   0   6   43.01    1.13
   0   0   7    0.73    0.50
   0   0   8  120.46    2.52
  -1   0 -12    4.75    2.03
  -1   0 -11    1.80    1.45
  -1   0 -10    1.83    1.33
  -1   0  -9   12.69    1.36
  -1   0  -8   58.37    2.01
  -1   0  -7   22.78    1.23
  -1   0  -7   13.76    1.32
  -1   0  -6    1.49    1.02
  -1   0  -6    1.85    0.74
  -1   0  -5    3.51    1.08
  -1   0  -4   57.70    2.17
  -1   0  -3  102.44    2.86
  -1   0  -2   11.63    0.99
  -1   0   0  298.28    5.07
  -1   0   1  240.10    4.15
  -1   0   3    3.95    0.30
  -1   0   4   93.43    1.85
  -1   0   5  109.51    2.17
  -1   0   6    6.85    0.50
  -1   0   7    0.40    0.48
  -1   0   8    5.47    0.66
  -2   0 -10    3.79    1.49
  -2   0  -9    9.59    1.44
  -2   0  -8    0.29    1.16
  -2   0  -7    2.67    0.97
  -2   0  -6    2.45    0.75
  -2   0  -6    1.60    0.64
  -2   0  -5    6.40    0.75
  -2   0  -5    6.20    1.29
  -2   0  -4  364.55    7.73
  -2   0  -3  644.35   12.24
  -2   0  -2  165.32    4.09
  -2   0  -1   96.76    1.85
  -2   0  -1   65.65    2.30
  -2   0   0  135.21    2.58
  -2   0   1   18.20    0.61
  -2   0   2  115.59    2.35
  -2   0   2  118.44    2.33
  -2   0   3   99.31    1.97
  -2   0   4  160.76    2.98
  -2   0   5  789.91   13.32
  -2   0   6  428.60    7.49
  -2   0   7    4.89    0.60
  -2   0   8    1.05    0.67
  -2   0   8    1.38    0.56
  -2   0   9    2.00    0.63
  -3   0  -9    2.03    1.50
  -3   0  -8    0.75    1.17
  -3   0  -7    5.77    1.08
  -3   0  -7    1.14    0.69
  -3   0  -6    0.91    0.86
  -3   0  -5    2.46    0.76
  -3   0  -4   21.22    0.94
  -3   0  -3  190.14    3.61
  -3   0  -1    2.42    0.69
  -3   0  -1    2.23    0.45
  -3   0   0    7.03    0.56
  -3   0   0    3.37    0.61
  -3   0   1   51.16    1.31
  -3   0   2   50.66    1.41
  -3   0   3    6.88    0.64
  -3   0   3    4.60    0.48
  -3   0   4    2.06    0.37
  -3   0   5  146.71    2.86
  -3   0   6  145.00    2.84
  -3   0   7    9.59    0.71
  -3   0   8    2.01    0.63
  -3   0   9    2.23    0.66
  -3   0  10    6.53    0.95
  -4   0  -9   -0.36    1.51
  -4   0  -8    5.30    1.29
  -4   0  -7   54.82    1.81
  -4   0  -7   11.05    1.49
  -4   0  -6   88.25    2.41
  -4   0  -5    1.44    0.77
  -4   0  -4   33.42    1.20
  -4   0  -3    3.73    1.29
  -4   0  -3    9.74    0.73
  -4   0  -2   -0.22    1.00
  -4   0  -2    0.39    0.43
  -4   0  -1   11.32    0.79
  -4   0  -1   12.16    1.12
  -4   0   0    1.50    0.66
  -4   0   0    3.03    0.60
  -4   0   1  328.10    5.77
  -4   0   1  292.47    5.63
  -4   0   2 1140.49   19.40
  -4   0   3  353.84    6.65
  -4   0   4    2.20    0.72
  -4   0   4    1.70    0.50
  -4   0   5   11.54    0.66
  -4   0   6    0.49    0.45
  -4   0   7   14.18    0.78
  -4   0   7   11.33    0.71
  -4   0   8   32.11    1.19
  -5   0  -8    0.04    1.32
  -5   0  -7    5.89    1.25
  -5   0  -6   42.25    1.73
  -5   0  -5   21.61    1.19
  -5   0  -5   13.64    1.88
  -5   0  -4   -0.57    1.42
  -5   0  -4   -0.13    0.76
  -5   0  -3   -0.18    1.26
  -5   0  -3    0.24    0.60
  -5   0  -2    8.70    0.68
  -5   0  -2    8.62    1.31
  -5   0  -1    1.88    0.99
  -5   0  -1    4.21    0.72
  -5   0  -1    3.08    0.56
  -5   0   0    4.27    0.77
  -5   0   0    6.43    0.79
  -5   0   0    5.22    0.57
  -5   0   1   23.03    1.01
  -5   0   1   24.89    1.14
  -5   0   2  200.96    4.08
  -5   0   3  210.25    4.37
  -5   0   4   23.06    1.23
  -5   0   4   18.95    1.10
  -5   0   5    3.49    0.65
  -5   0   5    3.03    0.90
  -5   0   6    4.82    0.67
  -5   0   7   10.90    0.79
  -5   0   8    0.56    0.56
  -5   0   8    0.24    0.63
  -5   0   9    0.85    1.27
  -5   0  10   13.81    1.66
  -5   0  11   34.79    2.22
  -5   0  12    4.31    1.76
  -6   0  -6    1.35    1.16
  -6   0  -5    1.48    0.94
  -6   0  -4    0.10    0.84
  -6   0  -3    3.14    1.57
  -6   0  -3    6.46    0.83
  -6   0  -2  108.16    2.47
  -6   0  -2  112.00    3.38
  -6   0  -1  215.14    4.39
  -6   0  -1  219.15    4.70
  -6   0   0   37.75    1.54
  -6   0   0   38.42    1.54
  -6   0   0   39.03    1.25
  -6   0   1   11.31    1.01
  -6   0   1   10.87    0.89
  -6   0   2   20.67    1.20
  -6   0   3    0.58    0.73
  -6   0   4   18.91    1.21
  -6   0   5   10.97    1.11
  -6   0   5    8.25    0.98
  -6   0   6   37.29    1.73
  -6   0   6   30.13    1.28
  -6   0   7  204.89    4.27
  -6   0   8   98.50    2.36
  -6   0   9    9.39    1.54
  -6   0   9    7.50    0.79
  -6   0  10    0.34    1.51
  -6   0  11    1.38    1.70
  -6   0  12    1.04    1.86
  -7   0  -5    0.76    1.05
  -7   0  -4    0.39    0.95
  -7   0  -3    0.08    0.84
  -7   0  -2   11.16    0.94
  -7   0  -1   63.49    1.80
  -7   0  -1   64.80    1.75
  -7   0   0   71.90    2.17
  -7   0   0   73.12    1.91
  -7   0   1    6.71    0.92
  -7   0   1    4.08    0.97
  -7   0   2    1.57    0.86
  -7   0   3    0.27    0.89
  -7   0   4    0.13    0.85
  -7   0   5    1.45    1.02
  -7   0   5    1.31    0.91
  -7   0   6    2.54    0.85
  -7   0   6    4.93    1.08
  -7   0   7   57.29    1.85
  -7   0   8   87.79    5.10
  -7   0   8   60.26    1.84
  -7   0   9    9.63    0.88
  -7   0  10   -0.91    1.61
  -7   0  11   -0.06    1.81
  -7   0  12    1.74    1.93
  -8   0  -3   -0.56    0.95
  -8   0  -2    5.54    0.91
  -8   0  -1    1.63    0.75
  -8   0   0    0.01    0.97
  -8   0   0   -0.10    0.75
  -8   0   1    1.44    1.01
  -8   0   1    0.73    0.77
  -8   0   2    1.72    1.06
  -8   0   3   54.64    2.08
  -8   0   4  112.22    3.07
  -8   0   5   52.80    2.07
  -8   0   5   44.84    2.19
  -8   0   6    2.63    1.22
  -8   0   6    0.93    1.00
  -8   0   7    1.03    0.86
  -8   0   7    0.40    1.12
  -8   0   8    1.50    0.89
  -8   0   9    1.12    0.88
  -8   0  11   -1.16    1.84
  -9   0  -1    0.56    0.85
  -9   0   0    1.16    1.30
  -9   0   0    0.60    0.76
  -9   0   1    1.09    1.01
  -9   0   1    0.22    0.84
  -9   0   2    1.36    1.12
  -9   0   2    0.80    0.83
  -9   0   3    7.76    1.35
  -9   0   4   51.64    2.18
  -9   0   5   49.60    2.12
  -9   0   6    7.44    1.37
  -9   0   7    1.40    1.33
  -9   0   8    1.37    1.47
 -10   0   2    2.96    0.98
 -10   0   3    1.37    1.25
 -10   0   4    0.77    1.36
 -10   0   5    0.71    1.34
 -10   0   6    0.73    1.29
 -10   0   7    0.89    1.31
  10   1  -7    5.74    2.25
  10   1  -6    9.64    2.18
  10   1  -5   -2.11    2.07
  10   1  -4    5.64    2.31
   9   1  -9    3.04    1.54
   9   1  -8   13.44    1.63
   9   1  -7   28.29    2.09
   9   1  -6    3.22    1.82
   9   1  -5    2.37    1.68
   9   1  -4   -0.34    1.78
   9   1  -3    3.41    1.99
   8   1  -9   11.12    1.35
   8   1  -8   16.88    1.46
   8   1  -7   71.46    2.41
   8   1  -6   32.43    1.84
   8   1  -5   -1.89    1.58
   8   1  -4    1.70    1.45
   8   1  -3    0.71    1.53
   8   1   2    6.31    3.91
   8   1   3    2.15    3.97
   8   1   4    0.31    4.13
   7   1  -7    3.22    0.97
   7   1  -6   17.49    1.20
   7   1  -5   64.02    2.11
   7   1  -5   57.51    2.27
   7   1  -4   21.12    1.65
   7   1  -4   19.89    1.52
   7   1  -3   27.51    1.78
   7   1  -3   21.75    1.61
   7   1  -2   56.42    2.34
   7   1  -2   58.80    2.58
   7   1   0    0.62    2.15
   7   1   2    2.41    2.86
   7   1   3    7.98    3.82
   7   1   4    7.63    4.46
   7   1   5    3.39    4.29
   7   1   6    2.87    4.55
   6   1  -5  130.37    2.84
   6   1  -5  106.11    3.00
   6   1  -4  158.28    3.40
   6   1  -4  140.47    3.65
   6   1  -3    0.54    0.96
   6   1  -3    1.06    0.96
   6   1  -2  166.75    4.02
   6   1  -2  146.00    3.82
   6   1  -1  100.20    3.18
   6   1  -1   77.67    3.38
   6   1   0    8.45    2.28
   6   1   0   13.74    2.05
   6   1   1    3.39    2.02
   6   1   1    3.50    2.92
   6   1   2   -0.49    2.49
   6   1   3    9.68    2.21
   6   1   4   38.07    3.43
   6   1   5    6.25    3.19
   6   1   7    2.63    4.88
   5   1  -4    3.03    0.62
   5   1  -4    1.44    0.79
   5   1  -3    1.46    0.58
   5   1  -3    0.90    0.82
   5   1  -2   -0.53    0.83
   5   1  -2    0.14    0.75
   5   1  -1    0.36    0.87
   5   1  -1    1.08    1.15
   5   1  -1    2.81    1.19
   5   1  -1    1.03    0.69
   5   1   0  103.85    3.39
   5   1   1   43.15    2.46
   5   1   2    7.72    1.99
   5   1   3   58.84    3.30
   5   1   3   40.58    1.75
   5   1   4    9.18    2.23
   4   1 -11    4.13    1.08
   4   1 -10    3.19    0.96
   4   1  -9    8.92    1.01
   4   1  -8   68.81    2.03
   4   1  -4  178.55    3.70
   4   1  -3    3.50    0.64
   4   1  -2    3.18    0.50
   4   1  -2    1.04    0.62
   4   1  -1    3.21    0.72
   4   1  -1    3.55    0.61
   4   1   0  191.59    4.04
   4   1   0  211.11    4.56
   4   1   1  396.69    8.02
   4   1   2   46.00    2.38
   4   1   3   82.72    3.50
   4   1   4   75.03    3.23
   4   1   4   53.72    1.94
   4   1   5    2.53    0.88
   4   1   7    1.68    0.65
   3   1 -12    0.69    1.15
   3   1 -11    9.38    1.22
   3   1 -10    0.77    0.91
   3   1  -9    9.44    0.93
   3   1  -8    2.83    0.68
   3   1  -7    7.44    0.64
   3   1  -6    1.76    0.50
   3   1  -3  108.85    2.43
   3   1  -2   53.43    1.50
   3   1  -1   58.11    1.31
   3   1  -1   50.88    1.43
   3   1   0  116.27    2.50
   3   1   0  101.59    2.30
   3   1   1    2.43    0.53
   3   1   1    5.48    0.81
   3   1   2   19.56    1.32
   3   1   3    1.98    1.32
   3   1   3    2.64    0.51
   3   1   4    2.86    1.39
   3   1   4    0.93    0.55
   3   1   5   16.93    0.83
   3   1   5   13.40    2.24
   3   1   6    9.94    0.93
   3   1   6   26.80    0.98
   3   1   7    0.25    0.41
   2   1 -12    0.71    1.31
   2   1 -11   13.77    1.43
   2   1 -11    1.13    1.70
   2   1 -10    4.94    1.17
   2   1  -9   34.25    1.45
   2   1  -8  111.53    2.57
   2   1  -7   23.72    0.97
   2   1  -6    7.72    0.61
   2   1  -5    6.06    0.42
   2   1  -4   29.64    0.74
   2   1  -2  786.04   15.58
   2   1  -2  803.24   13.53
   2   1  -1    0.96    0.32
   2   1   0  919.91   15.41
   2   1   0  915.37   15.45
   2   1   1  431.61    7.54
   2   1   2   26.43    1.06
   2   1   2   33.11    0.81
   2   1   2   34.15    1.24
   2   1   2   23.72    0.94
   2   1   3    1.71    0.93
   2   1   3    1.95    0.35
   2   1   3    1.46    0.53
   2   1   4   11.33    0.52
   2   1   4   12.94    1.31
   2   1   5   27.26    0.89
   2   1   6  113.89    2.39
   2   1   7   35.56    1.16
   1   1 -12    1.77    1.45
   1   1 -11    1.29    1.27
   1   1 -11   -1.34    1.40
   1   1 -10    2.79    1.37
   1   1 -10    6.80    1.19
   1   1  -9    0.93    0.92
   1   1  -8   21.31    1.16
   1   1  -7    4.47    0.74
   1   1  -6   32.76    1.14
   1   1  -5    6.59    0.56
   1   1  -4   34.81    0.94
   1   1  -3   59.53    1.25
   1   1  -1    1.48    0.20
   1   1   0    1.12    0.22
   1   1   1   59.92    1.77
   1   1   1   62.64    1.41
   1   1   2   83.69    1.55
   1   1   3   32.91    0.81
   1   1   3   40.05    1.29
   1   1   4    1.11    0.92
   1   1   4    3.87    0.38
   1   1   5   51.22    1.23
   1   1   6    2.76    0.49
   1   1   7    3.49    0.59
   1   1   8    0.86    0.59
   0   1 -12    9.13    1.69
   0   1 -11   14.17    1.67
   0   1 -10   -1.03    1.35
   0   1  -9    4.85    1.32
   0   1  -8   -0.02    1.33
   0   1  -7   12.23    1.04
   0   1  -7    3.48    1.53
   0   1  -6  177.10    3.62
   0   1  -5  185.89    3.63
   0   1  -4   84.87    1.82
   0   1  -4   80.51    1.59
   0   1  -3  822.44   13.75
   0   1  -2  433.34    7.27
   0   1  -1    3.27    0.17
   0   1  -1    3.14    0.55
   0   1   0    0.37    0.12
   0   1   0   -0.11    0.36
   0   1   0   -0.07    0.19
   0   1   1    3.28    0.54
   0   1   1    3.08    0.13
   0   1   1    2.42    0.23
   0   1   2  350.15    5.86
   0   1   2  349.39    6.78
   0   1   3  616.23   10.27
   0   1   4   65.94    1.40
   0   1   4   76.93    1.48
   0   1   5  133.40    2.56
   0   1   6  145.25    2.82
   0   1   7    8.52    0.60
   0   1   8    1.50    0.56
  -1   1 -12    4.04    1.76
  -1   1 -11    5.97    1.50
  -1   1 -10    2.18    1.42
  -1   1 -10    4.25    1.29
  -1   1  -9    6.39    1.46
  -1   1  -8   -1.60    1.57
  -1   1  -7    6.16    1.47
  -1   1  -6    2.69    1.30
  -1   1  -5   57.45    1.47
  -1   1  -5   37.92    2.43
  -1   1  -4    3.43    0.93
  -1   1  -4    5.12    0.53
  -1   1  -4    2.65    1.27
  -1   1  -3   42.56    1.07
  -1   1  -3   39.01    1.94
  -1   1  -2   87.92    2.75
  -1   1  -2   92.15    1.77
  -1   1  -1   75.16    1.93
  -1   1  -1   78.48    1.59
  -1   1   0    1.20    0.15
  -1   1   0    0.71    0.76
  -1   1   0    0.98    0.30
  -1   1   1    1.49    0.66
  -1   1   1    1.70    0.20
  -1   1   1    1.50    0.26
  -1   1   2   85.77    2.16
  -1   1   3   58.50    1.16
  -1   1   3   45.43    2.02
  -1   1   4   30.10    0.80
  -1   1   4   26.87    1.56
  -1   1   5    6.24    0.96
  -1   1   5    6.92    0.48
  -1   1   6   27.36    0.82
  -1   1   6   15.77    1.01
  -1   1   7    3.97    0.54
  -1   1   8   20.45    0.89
  -1   1   9    0.51    0.62
  -2   1 -10    2.17    1.53
  -2   1  -9   17.55    1.59
  -2   1  -9   19.46    1.75
  -2   1  -8    8.10    1.53
  -2   1  -7   34.51    2.32
  -2   1  -6   70.18    2.39
  -2   1  -6  102.45    3.64
  -2   1  -5   26.09    1.87
  -2   1  -5   22.85    2.16
  -2   1  -4    8.08    1.66
  -2   1  -4   12.69    0.73
  -2   1  -3    3.04    1.25
  -2   1  -3    3.67    0.45
  -2   1  -2   30.94    0.83
  -2   1  -2   32.52    1.13
  -2   1  -1  456.57    7.94
  -2   1  -1  442.33    7.51
  -2   1  -1  431.66    7.46
  -2   1   0  780.60   13.55
  -2   1   0  823.64   14.69
  -2   1   0  782.91   12.97
  -2   1   1    1.05    0.95
  -2   1   1    0.96    0.36
  -2   1   1    1.03    0.30
  -2   1   2  815.25   13.66
  -2   1   2  799.80   14.28
  -2   1   4   29.92    0.94
  -2   1   5    5.31    0.44
  -2   1   6    9.73    0.63
  -2   1   7   26.95    1.00
  -2   1   7   25.81    1.83
  -2   1   8   90.64    2.79
  -2   1   8  121.34    2.38
  -2   1   9   36.32    1.16
  -3   1  -9    3.03    1.50
  -3   1  -8   12.91    1.31
  -3   1  -7    2.36    1.53
  -3   1  -7    0.71    1.01
  -3   1  -6   19.51    1.95
  -3   1  -6   22.96    2.00
  -3   1  -5   12.90    1.81
  -3   1  -4    2.88    1.55
  -3   1  -3    2.91    1.54
  -3   1  -2   17.33    0.71
  -3   1  -2   14.67    1.81
  -3   1  -1    2.92    0.41
  -3   1  -1    3.38    0.39
  -3   1   0   93.17    4.59
  -3   1   0  122.77    2.45
  -3   1   1   52.33    1.31
  -3   1   1   50.02    1.42
  -3   1   2   48.63    1.33
  -3   1   2   48.27    1.25
  -3   1   3  114.44    2.44
  -3   1   3  104.21    2.47
  -3   1   4    2.27    0.55
  -3   1   4    3.04    0.50
  -3   1   5   21.18    0.92
  -3   1   6    2.00    0.46
  -3   1   6    2.67    0.51
  -3   1   7    7.24    0.65
  -3   1   8    4.69    0.70
  -3   1   9    8.32    1.67
  -3   1   9   12.25    0.91
  -3   1  10    0.60    0.95
  -4   1  -8   -0.15    1.21
  -4   1  -7    4.07    1.13
  -4   1  -7    2.20    1.55
  -4   1  -6    0.49    1.38
  -4   1  -6    2.22    0.93
  -4   1  -5   10.81    1.82
  -4   1  -4   78.35    3.53
  -4   1  -3   75.84    3.29
  -4   1  -2   35.66    2.08
  -4   1  -2   37.80    1.14
  -4   1  -1  332.88    6.90
  -4   1  -1  323.01    5.94
  -4   1  -1  321.36    5.80
  -4   1   0  206.40    4.06
  -4   1   1    2.16    1.55
  -4   1   1    2.87    0.49
  -4   1   1    5.67    1.31
  -4   1   2    1.14    0.46
  -4   1   3    2.85    0.61
  -4   1   3    2.32    0.64
  -4   1   4  192.05    3.88
  -4   1   4  174.40    3.87
  -4   1   5  386.60    7.09
  -4   1   5  353.18    6.85
  -4   1   6   51.66    1.79
  -4   1   6   44.70    1.50
  -4   1   7   61.43    1.71
  -4   1   8   71.37    1.78
  -4   1   9    8.95    0.83
  -4   1  10    3.85    1.69
  -5   1  -7    1.35    1.19
  -5   1  -6    0.28    1.10
  -5   1  -5    0.70    0.86
  -5   1  -4    4.82    1.63
  -5   1  -3   37.52    2.28
  -5   1  -2   10.74    1.82
  -5   1  -2    4.83    1.37
  -5   1  -1   32.98    1.25
  -5   1  -1   35.06    1.90
  -5   1   0   84.26    2.70
  -5   1   0   86.15    2.20
  -5   1   1    0.91    0.64
  -5   1   1    1.03    0.64
  -5   1   2    1.27    1.55
  -5   1   2    0.31    0.60
  -5   1   3    0.59    0.57
  -5   1   4    0.97    0.73
  -5   1   4    0.24    0.74
  -5   1   5   77.74    2.20
  -5   1   5   65.16    2.01
  -5   1   6   33.94    1.59
  -5   1   6   34.38    1.40
  -5   1   7    5.62    1.15
  -5   1   7    5.22    0.82
  -5   1   8   49.68    2.18
  -5   1   8   43.16    1.48
  -6   1  -6    1.25    1.17
  -6   1  -5   16.61    1.23
  -6   1  -4   45.73    1.62
  -6   1  -3    7.35    0.85
  -6   1  -2    0.36    1.58
  -6   1  -1    6.90    0.89
  -6   1  -1    3.06    1.28
  -6   1   0   11.60    0.98
  -6   1   0   10.11    1.20
  -6   1   1  101.75    2.64
  -6   1   1   96.17    2.46
  -6   1   2  117.67    2.91
  -6   1   2  140.13    3.05
  -6   1   3    2.70    0.81
  -6   1   4  109.19    2.68
  -6   1   4  106.95    3.10
  -6   1   5  103.18    2.71
  -6   1   5   83.51    2.63
  -6   1   6   13.22    1.31
  -6   1   6   11.38    1.01
  -6   1   7    8.59    1.34
  -6   1   7    7.01    0.90
  -6   1   8    3.02    0.84
  -6   1   8    2.36    1.25
  -6   1   9    9.13    1.51
  -6   1   9    6.95    0.86
  -6   1  12    0.50    1.79
  -7   1  -5    0.65    1.03
  -7   1  -4   11.23    1.12
  -7   1  -3   12.09    1.06
  -7   1  -2    1.97    0.76
  -7   1  -1    1.09    1.00
  -7   1   0    0.14    0.74
  -7   1   1   12.08    1.14
  -7   1   1   13.94    1.17
  -7   1   2   62.44    1.95
  -7   1   2   52.27    1.87
  -7   1   3   16.36    1.06
  -7   1   4   18.50    1.23
  -7   1   4   14.98    1.45
  -7   1   5   49.72    1.80
  -7   1   5   44.00    2.04
  -7   1   6   12.64    1.32
  -7   1   6    9.38    1.16
  -7   1   7    1.04    0.81
  -7   1   7    0.03    1.12
  -7   1   8   -0.78    0.88
  -7   1   8    0.11    1.33
  -7   1   9    1.26    0.81
  -7   1   9    0.71    1.45
  -7   1  10   10.55    1.85
  -7   1  10    9.34    1.00
  -8   1  -3    2.22    1.01
  -8   1  -2    9.18    1.00
  -8   1  -1    5.39    0.82
  -8   1   0   10.48    1.11
  -8   1   0    8.27    0.92
  -8   1   1   49.99    1.89
  -8   1   2   23.30    1.46
  -8   1   3    0.85    0.97
  -8   1   4    1.14    0.90
  -8   1   5    1.12    1.08
  -8   1   5    0.37    1.14
  -8   1   6   22.43    1.53
  -8   1   6   17.62    1.50
  -8   1   7   47.59    2.10
  -8   1   7   39.70    1.86
  -8   1   8   11.54    1.62
  -8   1   8    9.91    1.21
  -8   1   9    6.41    1.56
  -8   1  10    9.86    1.93
  -9   1  -1   12.32    1.10
  -9   1   0    2.52    1.15
  -9   1   0    1.59    0.75
  -9   1   1    9.55    1.14
  -9   1   1    8.79    0.99
  -9   1   2   21.13    1.48
  -9   1   2   20.52    1.19
  -9   1   3    5.67    1.20
  -9   1   4    0.64    1.13
  -9   1   5    0.38    1.01
  -9   1   6    5.84    1.29
  -9   1   7   22.47    1.77
  -9   1   8    8.75    1.41
  -9   1   9    2.91    1.57
 -10   1   2    2.24    1.14
 -10   1   3    8.58    1.39
 -10   1   3    6.89    1.07
 -10   1   4    8.40    1.43
 -10   1   5    0.30    1.24
 -10   1   6    8.37    1.37
 -10   1   7    7.32    1.43
  10   2  -7   11.51    2.25
  10   2  -6   20.95    2.32
  10   2  -5    8.37    2.11
  10   2  -4   11.00    2.29
   9   2  -9   19.65    1.74
   9   2  -8   20.64    1.70
   9   2  -7   23.95    1.84
   9   2  -6   -0.81    1.72
   9   2  -5    7.86    1.93
   9   2  -4   10.16    1.87
   9   2  -3   -2.16    1.98
   8   2  -8   23.40    1.54
   8   2  -7   25.87    1.52
   8   2  -6   14.25    1.33
   8   2  -5    7.19    1.43
   8   2  -4   32.56    2.07
   8   2  -3    4.47    1.52
   8   2   2   10.88    3.16
   8   2   3    4.07    3.59
   7   2  -6   22.98    1.26
   7   2  -5   69.22    2.12
   7   2  -4   38.12    1.68
   7   2  -4   31.77    1.81
   7   2  -3   34.06    1.89
   7   2  -2   50.94    2.24
   7   2  -1    7.53    1.53
   7   2   0    9.75    2.43
   7   2   6    6.84    4.67
   6   2  -5  103.63    2.84
   6   2  -4  156.20    3.18
   6   2  -4  125.89    3.45
   6   2  -3   92.91    2.38
   6   2  -3   84.10    2.68
   6   2  -2  135.57    3.41
   6   2  -2  127.02    3.38
   6   2  -1   87.17    2.82
   6   2  -1   91.17    2.57
   6   2   0    2.94    1.33
   6   2   0    2.60    1.09
   6   2   1   73.47    2.86
   6   2   2   22.76    2.18
   6   2   3    2.10    2.07
   6   2   4   18.20    2.32
   5   2  -5   92.81    2.44
   5   2  -4   32.88    1.46
   5   2  -3   27.06    1.37
   5   2  -3   34.25    1.10
   5   2  -2   30.73    1.18
   5   2  -2   26.48    1.40
   5   2  -1   37.43    1.51
   5   2  -1   32.97    1.43
   5   2   0   98.94    2.62
   5   2   1   32.00    1.42
   5   2   1   50.16    1.97
   5   2   2   12.17    1.18
   5   2   2   23.68    1.68
   5   2   3   44.66    2.53
   5   2   4   20.34    2.32
   5   2   5    3.56    1.91
   4   2 -10   14.18    1.02
   4   2  -4   76.98    2.06
   4   2  -3   41.38    1.44
   4   2  -3   31.98    2.33
   4   2  -2  360.57    6.09
   4   2  -2  312.72    6.46
   4   2  -1   42.73    1.32
   4   2  -1   41.53    1.45
   4   2   0   88.34    2.32
   4   2   0   83.16    2.16
   4   2   1  162.64    3.59
   4   2   2   56.03    1.97
   4   2   2   73.02    2.20
   4   2   3   95.33    2.67
   4   2   3  114.33    3.12
   4   2   4  111.23    3.63
   4   2   5   12.43    1.75
   4   2   6    6.19    2.17
   3   2 -11    1.30    0.87
   3   2 -10    0.74    0.72
   3   2  -9    3.38    0.69
   3   2  -8   52.07    1.37
   3   2  -7   12.81    0.65
   3   2  -3  126.54    5.00
   3   2  -3  171.26    3.34
   3   2  -2   24.00    0.96
   3   2  -1   30.18    0.76
   3   2  -1   25.59    1.02
   3   2   0  191.37    3.64
   3   2   0  187.13    3.73
   3   2   1  109.13    2.54
   3   2   2    3.56    0.61
   3   2   3   12.66    0.93
   3   2   3   13.57    1.10
   3   2   4    5.57    1.21
   3   2   4    3.55    0.72
   3   2   4    3.97    0.80
   3   2   4    4.94    0.61
   3   2   5   60.65    1.43
   3   2   5   55.71    2.25
   3   2   6    2.01    0.74
   3   2   6    5.90    1.86
   3   2   7    2.53    0.73
   2   2 -11   24.07    1.52
   2   2 -10   11.84    1.11
   2   2  -9   10.22    0.85
   2   2  -8   25.61    1.02
   2   2  -7    7.26    0.58
   2   2  -6   60.58    1.36
   2   2  -5  193.55    3.35
   2   2  -3  277.08    8.12
   2   2  -2  436.16    7.58
   2   2  -1  368.40    6.46
   2   2   0  473.35    7.83
   2   2   0  468.53    8.15
   2   2   1  340.80    7.19
   2   2   1  352.05    6.28
   2   2   2    0.78    0.45
   2   2   2    0.98    0.71
   2   2   3  168.12    4.46
   2   2   3  154.64    4.00
   2   2   4   61.98    1.24
   2   2   4   71.93    1.81
   2   2   5   12.13    0.59
   2   2   5   15.48    1.21
   2   2   6   14.37    1.38
   2   2   6   36.08    1.00
   2   2   7   10.06    0.70
   2   2   7    3.21    1.07
   2   2   8    1.98    1.08
   2   2   9    4.09    0.97
   1   2 -11    2.14    1.76
   1   2 -11   11.41    1.34
   1   2 -10    6.72    1.22
   1   2 -10    4.29    1.05
   1   2  -9    1.88    1.01
   1   2  -8    1.47    0.40
   1   2  -8    2.99    0.84
   1   2  -7   53.13    1.61
   1   2  -6   29.11    1.15
   1   2  -5    5.87    0.59
   1   2  -4   17.73    0.70
   1   2  -3  187.63    3.36
   1   2  -2  256.09    4.27
   1   2  -2  244.31    4.21
   1   2  -1    6.81    0.94
   1   2  -1    9.59    0.38
   1   2   0   13.15    0.49
   1   2   1  207.75    5.04
   1   2   1  230.64    4.11
   1   2   2  152.55    4.15
   1   2   2  182.97    3.09
   1   2   3   23.12    0.61
   1   2   4    5.51    0.39
   1   2   5   43.02    1.04
   1   2   5   35.37    1.26
   1   2   6   69.26    1.57
   1   2   7    0.04    0.53
   1   2   7    0.30    0.36
   1   2   8    8.21    0.70
   0   2 -11    7.07    1.41
   0   2 -10    0.72    1.51
   0   2 -10    0.70    1.18
   0   2  -9   32.27    1.64
   0   2  -9   11.91    2.16
   0   2  -8   33.73    1.51
   0   2  -7   25.79    1.32
   0   2  -6  167.22    3.53
   0   2  -6  173.39    3.25
   0   2  -5  270.39    4.78
   0   2  -5  235.58    4.56
   0   2  -4  107.52    2.24
   0   2  -3  348.39    6.03
   0   2  -2  175.26    3.10
   0   2  -2  175.34    4.50
   0   2  -2  176.82    4.80
   0   2  -1  108.96    1.93
   0   2  -1  109.09    2.14
   0   2   0  704.43   13.92
   0   2   0  734.41   12.03
   0   2   0  745.66   12.30
   0   2   1   99.19    1.77
   0   2   1   97.01    1.98
   0   2   2  186.94    3.15
   0   2   2  153.96    4.62
   0   2   3  320.11    5.41
   0   2   4   71.97    1.46
   0   2   5  188.82    3.36
   0   2   5  175.64    3.53
   0   2   6  145.34    2.71
   0   2   6  131.67    2.74
   0   2   7   19.71    0.79
   0   2   8   25.82    0.96
  -1   2 -10    2.73    1.77
  -1   2 -10   11.88    1.56
  -1   2  -9    3.38    1.49
  -1   2  -9    1.71    1.24
  -1   2  -8    3.84    1.67
  -1   2  -8    8.98    1.17
  -1   2  -7   -0.69    1.72
  -1   2  -7    0.61    0.96
  -1   2  -6   71.66    1.84
  -1   2  -6   36.80    3.09
  -1   2  -5   45.03    1.32
  -1   2  -5   39.47    2.22
  -1   2  -4    4.23    0.56
  -1   2  -4    3.04    1.18
  -1   2  -3   27.71    0.85
  -1   2  -3   25.59    0.93
  -1   2  -2  197.77    3.69
  -1   2  -2  194.67    3.42
  -1   2  -2  192.98    4.65
  -1   2  -1  211.46    6.00
  -1   2  -1  214.74    4.10
  -1   2  -1  219.98    3.77
  -1   2   0   10.59    0.36
  -1   2   0   10.89    0.61
  -1   2   0   10.83    0.33
  -1   2   0   10.61    0.64
  -1   2   1   10.63    0.57
  -1   2   1   12.27    1.60
  -1   2   1   10.37    0.56
  -1   2   2  255.87    6.50
  -1   2   2  232.37    4.44
  -1   2   3  167.79    3.32
  -1   2   3  173.46    5.11
  -1   2   3  167.95    3.28
  -1   2   4   13.92    1.67
  -1   2   4   18.38    0.60
  -1   2   4   14.70    0.77
  -1   2   4   17.71    0.98
  -1   2   5    7.13    0.50
  -1   2   5    5.06    0.55
  -1   2   5    5.10    1.17
  -1   2   6   19.13    0.72
  -1   2   7   51.27    1.31
  -1   2   8    3.56    0.61
  -1   2   9    1.05    0.64
  -2   2 -10    8.37    1.68
  -2   2  -9   33.43    1.83
  -2   2  -9   18.22    2.17
  -2   2  -8    5.00    1.97
  -2   2  -8   14.12    1.39
  -2   2  -7   14.14    1.13
  -2   2  -7   12.19    1.91
  -2   2  -6   29.67    2.01
  -2   2  -6   26.44    2.28
  -2   2  -5   11.57    1.78
  -2   2  -5    8.35    1.95
  -2   2  -4   56.59    3.22
  -2   2  -4   43.57    2.95
  -2   2  -3  255.34    4.40
  -2   2  -3  215.01    6.71
  -2   2  -2    0.52    1.23
  -2   2  -2    1.70    2.17
  -2   2  -2    1.34    0.36
  -2   2  -2    1.97    0.84
  -2   2  -2   -0.47    1.38
  -2   2  -1  352.97    5.81
  -2   2  -1  342.01    5.83
  -2   2   0  427.89    8.23
  -2   2   0  440.35    7.41
  -2   2   0  442.00    7.42
  -2   2   1  352.61    6.35
  -2   2   1  331.39    5.93
  -2   2   1  322.63    7.72
  -2   2   1  360.36    6.49
  -2   2   2  423.20    8.81
  -2   2   2  422.72    7.71
  -2   2   2  428.62    7.38
  -2   2   3  409.93    8.28
  -2   2   4    4.23    1.44
  -2   2   4    4.76    0.80
  -2   2   5  231.23    4.15
  -2   2   5  228.79    4.50
  -2   2   6   77.57    1.71
  -2   2   6   72.83    3.45
  -2   2   7    9.14    0.69
  -2   2   7    7.49    1.67
  -2   2   8   25.17    1.79
  -2   2   8   34.06    1.09
  -2   2   9   13.13    0.76
  -3   2  -9   11.20    1.79
  -3   2  -8    4.76    1.70
  -3   2  -7    0.09    1.78
  -3   2  -7    1.11    1.25
  -3   2  -7    0.76    0.92
  -3   2  -6    8.24    1.87
  -3   2  -6   11.69    1.06
  -3   2  -5   46.47    3.29
  -3   2  -5   44.28    3.17
  -3   2  -4    7.60    0.74
  -3   2  -4    4.22    1.72
  -3   2  -3   21.44    0.88
  -3   2  -3   20.43    2.19
  -3   2  -2    4.71    0.49
  -3   2  -2    2.83    0.84
  -3   2  -1   96.95    3.06
  -3   2  -1  104.44    2.08
  -3   2  -1   97.92    2.03
  -3   2   0  181.03    3.39
  -3   2   0  181.91    3.35
  -3   2   0  178.09    5.28
  -3   2   0  177.12    4.26
  -3   2   1   25.77    1.21
  -3   2   1   29.19    2.14
  -3   2   2   23.26    0.88
  -3   2   2   22.03    0.86
  -3   2   2   21.14    1.81
  -3   2   3  188.63    3.75
  -3   2   3  191.32    4.74
  -3   2   4  112.65    2.74
  -3   2   4  124.67    3.18
  -3   2   5    3.86    0.67
  -3   2   6   13.92    0.85
  -3   2   7   11.76    0.71
  -3   2   7   12.52    2.04
  -3   2   8   58.48    3.49
  -3   2   8   63.89    1.66
  -3   2   9    6.04    0.77
  -3   2   9    3.63    1.81
  -3   2  10    0.58    1.18
  -4   2  -8    7.99    1.76
  -4   2  -7    4.92    1.71
  -4   2  -7   14.80    2.02
  -4   2  -6   13.80    1.16
  -4   2  -6   12.29    1.96
  -4   2  -5   12.91    0.96
  -4   2  -5   10.06    2.00
  -4   2  -4  103.39    2.38
  -4   2  -4   85.51    4.03
  -4   2  -3  109.97    2.43
  -4   2  -3   88.58    4.07
  -4   2  -2   61.61    2.07
  -4   2  -2   58.69    1.51
  -4   2  -1  145.08    2.97
  -4   2  -1  152.58    2.96
  -4   2   0   86.56    2.69
  -4   2   0   84.25    1.84
  -4   2   0   83.68    1.91
  -4   2   1   34.71    1.52
  -4   2   1   36.19    1.12
  -4   2   1   36.64    2.38
  -4   2   2  270.89    5.20
  -4   2   2  263.03    5.07
  -4   2   3   42.31    1.42
  -4   2   3   46.13    2.21
  -4   2   4   81.98    2.13
  -4   2   4   73.84    2.17
  -4   2   5  177.32    3.76
  -4   2   5  165.82    3.78
  -4   2   6   63.62    1.95
  -4   2   7  101.56    2.54
  -4   2   8  101.16    2.23
  -4   2   8   93.35    2.45
  -4   2   9   12.62    0.88
  -4   2   9   12.32    2.39
  -4   2  10   12.75    2.42
  -5   2  -6    3.43    2.19
  -5   2  -6   15.07    2.01
  -5   2  -5    6.21    2.03
  -5   2  -5    0.46    1.77
  -5   2  -4   21.75    1.14
  -5   2  -4   23.67    2.35
  -5   2  -3   31.81    1.22
  -5   2  -3   31.24    2.55
  -5   2  -2   13.03    1.60
  -5   2  -2   13.80    0.83
  -5   2  -2   11.39    1.07
  -5   2  -1   36.95    2.02
  -5   2  -1   33.17    1.20
  -5   2  -1   34.23    1.13
  -5   2  -1   38.49    2.64
  -5   2   0   98.58    2.36
  -5   2   0  100.63    2.25
  -5   2   1   30.35    1.13
  -5   2   1   38.28    2.42
  -5   2   2   24.18    1.19
  -5   2   2   23.08    1.03
  -5   2   3   24.34    1.16
  -5   2   3   20.57    1.42
  -5   2   4   31.05    1.35
  -5   2   4   26.25    1.45
  -5   2   5  101.87    2.61
  -5   2   5   84.72    2.52
  -5   2   6   35.48    1.66
  -5   2   6   34.85    1.50
  -5   2   7   10.94    1.29
  -5   2   7   10.84    1.05
  -5   2   8   29.34    1.68
  -5   2   8   27.22    1.31
  -5   2   9   20.11    1.14
  -5   2  10    0.34    2.29
  -6   2  -5    0.05    2.05
  -6   2  -4   20.41    2.25
  -6   2  -3    2.18    0.80
  -6   2  -3    8.90    1.94
  -6   2  -2   19.63    1.13
  -6   2  -2   20.49    1.02
  -6   2  -1   52.82    2.10
  -6   2  -1   54.24    1.67
  -6   2  -1   54.90    2.51
  -6   2   0    0.09    1.21
  -6   2   0    1.73    0.73
  -6   2   0    2.00    0.63
  -6   2   1   90.86    2.35
  -6   2   1  109.64    3.90
  -6   2   2   76.42    4.33
  -6   2   2   95.21    2.29
  -6   2   3   48.21    3.37
  -6   2   3   57.51    2.50
  -6   2   4  108.06    2.71
  -6   2   4   99.85    3.22
  -6   2   5   95.41    2.56
  -6   2   5   81.22    2.73
  -6   2   6    1.85    0.81
  -6   2   6    1.90    1.03
  -6   2   7   62.81    2.26
  -6   2   7   52.40    2.03
  -6   2   8   28.70    1.81
  -6   2   8   22.74    1.40
  -6   2   9    2.18    0.85
  -6   2   9    1.82    1.40
  -6   2  10   11.06    1.78
  -6   2  11    5.80    1.70
  -7   2  -1   10.44    0.99
  -7   2  -1   13.65    0.88
  -7   2   0    7.33    0.77
  -7   2   0    7.79    0.90
  -7   2   1   12.06    1.05
  -7   2   1   11.11    0.89
  -7   2   2   52.20    1.79
  -7   2   3   25.79    2.84
  -7   2   3   25.25    1.27
  -7   2   3   21.40    1.80
  -7   2   4   27.72    1.43
  -7   2   4   24.18    1.78
  -7   2   5   45.92    1.73
  -7   2   5   41.18    2.06
  -7   2   6   15.70    1.39
  -7   2   6   11.38    1.22
  -7   2   7    6.38    1.28
  -7   2   7    7.10    1.07
  -7   2   8   15.78    1.57
  -7   2   9    0.39    1.49
  -7   2  10   18.01    1.93
  -7   2  11    6.71    1.81
  -8   2   0   14.11    1.15
  -8   2   0   13.30    1.01
  -8   2   1   19.91    1.29
  -8   2   1   18.44    1.12
  -8   2   2   13.23    1.22
  -8   2   3    5.23    1.05
  -8   2   4   23.23    1.38
  -8   2   5    5.82    1.74
  -8   2   5    5.37    1.09
  -8   2   6   12.18    1.29
  -8   2   7   19.90    1.67
  -8   2   8   13.82    1.69
  -8   2   9   24.98    2.02
  -8   2  10   34.14    2.37
  -9   2   0   11.98    1.31
  -9   2   1   13.02    1.15
  -9   2   2   17.34    1.38
  -9   2   2   18.00    1.18
  -9   2   3    1.91    1.03
  -9   2   4    8.98    1.25
  -9   2   5    8.33    1.18
  -9   2   6    2.33    1.20
  -9   2   7   17.74    1.58
  -9   2   8   13.88    1.55
  -9   2   9   12.54    1.81
 -10   2   2    1.50    1.13
 -10   2   3   11.09    1.40
 -10   2   4   13.66    1.39
 -10   2   5    7.79    1.34
 -10   2   6   10.91    1.32
  10   3  -7    3.35    1.95
  10   3  -6    5.58    1.98
  10   3  -5   -0.36    1.99
  10   3  -4    4.91    2.16
   9   3  -9    5.51    1.40
   9   3  -8   15.03    1.62
   9   3  -7   23.55    1.68
   9   3  -6    2.92    1.57
   9   3  -4   -0.50    1.69
   9   3  -3    2.80    1.82
   8   3  -7   54.89    1.96
   8   3  -6   27.91    1.55
   8   3  -5    0.95    1.16
   8   3  -4   -1.62    1.47
   8   3  -3    0.34    1.39
   8   3  -1   13.86    1.31
   8   3   0    4.30    2.14
   7   3  -5   57.95    1.84
   7   3  -4   19.85    1.23
   7   3  -3   22.82    1.56
   7   3  -2   50.57    2.04
   7   3  -2   23.19    1.33
   6   3  -5   80.71    2.47
   6   3  -4  107.78    2.36
   6   3  -4   82.04    2.66
   6   3  -3    1.31    0.69
   6   3  -3    1.57    1.19
   6   3  -3    1.31    1.00
   6   3  -2   92.51    2.86
   6   3  -2  103.23    2.71
   6   3  -1   74.20    2.33
   6   3  -1   79.49    2.53
   6   3   1    6.15    1.25
   6   3   2    4.38    1.40
   6   3   3    6.45    1.62
   6   3   4   26.61    2.52
   5   3  -5   53.22    1.78
   5   3  -4    1.34    0.82
   5   3  -3    1.63    1.65
   5   3  -3    3.20    0.89
   5   3  -2    3.70    0.59
   5   3  -2    3.50    0.93
   5   3  -1    1.22    0.76
   5   3  -1    0.95    0.84
   5   3   0   64.62    2.08
   5   3   1   27.03    1.34
   5   3   2    4.41    1.00
   5   3   3   58.53    2.27
   5   3   4    6.32    1.60
   4   3  -4  114.61    2.70
   4   3  -3    4.46    1.81
   4   3  -3    7.93    0.83
   4   3  -2    1.31    0.71
   4   3  -1    9.87    0.87
   4   3  -1   11.53    0.61
   4   3   0  117.66    2.63
   4   3   0  112.54    2.67
   4   3   1  233.41    4.82
   4   3   2   26.06    1.39
   4   3   3   30.70    1.44
   4   3   4   54.12    2.04
   4   3   5    5.12    1.46
   3   3  -4    2.84    2.03
   3   3  -3   62.86    4.03
   3   3  -3   86.30    2.02
   3   3  -2   66.11    1.74
   3   3  -1   64.32    1.67
   3   3   0   97.70    2.35
   3   3   0  107.51    2.11
   3   3   1    1.50    0.68
   3   3   1    1.68    1.16
   3   3   2   11.90    0.89
   3   3   2    8.72    1.22
   3   3   3    0.61    0.69
   3   3   3    0.99    1.11
   3   3   4    3.80    0.79
   3   3   4    3.47    1.12
   3   3   5    6.61    1.19
   3   3   5   18.28    0.86
   3   3   5   19.47    1.35
   3   3   5    6.25    0.87
   3   3   6   30.20    1.10
   3   3   6   26.66    1.64
   3   3   7    0.42    0.75
   3   3   7    0.38    0.96
   3   3   8    1.48    1.02
   2   3 -10    2.12    0.83
   2   3  -9   22.78    0.99
   2   3  -8   57.56    1.37
   2   3  -7   20.69    0.66
   2   3  -4   20.89    2.93
   2   3  -3  220.58    8.24
   2   3  -3  266.01    4.73
   2   3  -2  313.11    5.59
   2   3  -1    0.43    0.39
   2   3   0  287.83    7.34
   2   3   0  327.69    5.78
   2   3   1  254.60    6.51
   2   3   1  299.10    5.36
   2   3   2   22.00    1.59
   2   3   2   20.84    0.96
   2   3   3    2.97    0.71
   2   3   3    4.02    0.42
   2   3   3    3.81    1.23
   2   3   4    3.04    0.44
   2   3   4    2.60    1.19
   2   3   4    1.66    0.72
   2   3   5   24.70    0.85
   2   3   5   32.17    1.18
   2   3   6   71.74    1.36
   2   3   6   60.01    1.78
   2   3   7    4.66    0.83
   2   3   7   26.74    0.87
   2   3   8    2.94    0.63
   2   3   8    1.06    0.87
   2   3   8    2.23    0.59
   2   3   9    1.01    1.26
   1   3 -10    7.15    1.23
   1   3 -10    5.28    0.97
   1   3  -9    0.49    0.53
   1   3  -9    0.85    1.03
   1   3  -8   22.03    1.21
   1   3  -8   16.90    0.91
   1   3  -7    5.60    0.82
   1   3  -6   47.44    1.47
   1   3  -5    5.18    0.62
   1   3  -4   34.77    3.77
   1   3  -4   30.63    0.98
   1   3  -3   54.30    1.16
   1   3  -3   45.88    1.09
   1   3  -2   43.06    2.50
   1   3  -2   41.59    0.99
   1   3  -1   57.60    1.22
   1   3  -1   59.00    1.28
   1   3   0   61.10    1.36
   1   3   1   38.04    2.15
   1   3   1   37.42    1.04
   1   3   2   27.75    1.67
   1   3   2   60.51    1.06
   1   3   3   38.51    2.28
   1   3   3   54.82    1.08
   1   3   4    4.03    0.36
   1   3   4    2.67    1.16
   1   3   5   57.32    1.29
   1   3   6    1.57    0.47
   1   3   7    5.13    0.72
   1   3   7    6.29    0.60
   1   3   8    0.73    0.58
   1   3   8    0.58    0.53
   0   3 -11    6.31    1.97
   0   3 -10    1.03    1.25
   0   3  -9    6.15    1.26
   0   3  -8    2.36    0.98
   0   3  -7   15.89    1.15
   0   3  -7   17.33    0.86
   0   3  -6  119.52    2.68
   0   3  -6  108.73    2.49
   0   3  -5   97.57    2.29
   0   3  -4   40.98    1.19
   0   3  -3  508.47    8.68
   0   3  -2  219.74    6.23
   0   3  -2  223.20    6.64
   0   3  -1   34.59    0.76
   0   3  -1   36.12    1.03
   0   3   0    0.06    0.38
   0   3   0    0.94    1.19
   0   3   0    0.06    0.14
   0   3   0    0.06    0.23
   0   3   0   -0.02    1.00
   0   3   1   32.55    0.92
   0   3   1   32.70    1.01
   0   3   1   32.03    2.30
   0   3   2  205.76    3.48
   0   3   2  213.84    6.05
   0   3   3  458.21    7.66
   0   3   4   30.36    0.77
   0   3   5   68.39    1.47
   0   3   6   69.69    1.94
   0   3   6   82.79    1.67
   0   3   7   12.03    0.66
   0   3   7   11.04    0.79
   0   3   8    1.23    0.55
   0   3   9    3.73    0.66
  -1   3 -10    2.31    1.61
  -1   3 -10    2.30    1.42
  -1   3  -9    2.68    1.83
  -1   3  -9    7.11    1.40
  -1   3  -8    0.50    1.03
  -1   3  -7    8.29    1.12
  -1   3  -7    0.48    2.01
  -1   3  -6    1.59    0.79
  -1   3  -5   57.29    1.60
  -1   3  -5   62.69    1.68
  -1   3  -5   54.41    3.10
  -1   3  -4    4.68    0.62
  -1   3  -4    4.97    1.58
  -1   3  -4    4.19    0.66
  -1   3  -3   53.03    3.13
  -1   3  -3   52.33    1.56
  -1   3  -3   48.93    2.62
  -1   3  -2   55.29    3.13
  -1   3  -2   60.42    1.29
  -1   3  -2   56.74    1.65
  -1   3  -1   38.85    2.81
  -1   3  -1   45.83    2.34
  -1   3  -1   43.20    0.97
  -1   3  -1   43.02    1.43
  -1   3  -1   43.71    1.48
  -1   3   0   44.84    2.05
  -1   3   0   50.39    1.04
  -1   3   0   54.23    1.04
  -1   3   0   56.11    1.63
  -1   3   0   60.59    1.56
  -1   3   1   57.62    3.34
  -1   3   1   59.16    1.66
  -1   3   2   46.23    2.95
  -1   3   2   47.72    1.08
  -1   3   2   49.25    1.45
  -1   3   3   46.65    1.53
  -1   3   3   50.16    1.44
  -1   3   4   38.24    2.64
  -1   3   4   41.81    0.98
  -1   3   4   41.45    1.39
  -1   3   5    4.05    0.46
  -1   3   5    2.93    1.37
  -1   3   5    4.23    0.85
  -1   3   5    4.22    0.68
  -1   3   6   35.63    1.00
  -1   3   6   45.51    1.45
  -1   3   7    5.37    0.56
  -1   3   8   21.67    0.89
  -1   3   9    0.38    0.63
  -2   3  -9    0.37    2.14
  -2   3  -9   11.88    1.48
  -2   3  -8    4.15    1.64
  -2   3  -8    6.05    1.32
  -2   3  -7   34.73    1.53
  -2   3  -7   18.03    2.38
  -2   3  -6   78.42    2.03
  -2   3  -6   50.78    3.56
  -2   3  -5   22.67    2.46
  -2   3  -5   12.91    2.54
  -2   3  -4    4.20    0.68
  -2   3  -4    3.63    1.87
  -2   3  -4   -0.09    2.11
  -2   3  -3    4.81    0.58
  -2   3  -3    5.15    1.24
  -2   3  -3    3.12    1.96
  -2   3  -2   28.04    2.89
  -2   3  -2   29.70    1.85
  -2   3  -2   31.16    0.93
  -2   3  -2   34.17    1.30
  -2   3  -1  308.28    9.16
  -2   3  -1  298.30    6.86
  -2   3  -1  300.36    5.21
  -2   3  -1  298.72    5.07
  -2   3  -1  299.53    5.76
  -2   3   0  330.93    6.65
  -2   3   0  322.52    7.45
  -2   3   0  317.30    5.57
  -2   3   0  323.15    5.52
  -2   3   0  311.53    6.15
  -2   3   1    0.50    0.54
  -2   3   1    0.75    1.82
  -2   3   1    0.53    0.56
  -2   3   1   -0.45    0.76
  -2   3   1    0.23    0.32
  -2   3   1   -1.12    1.66
  -2   3   2  308.68    5.68
  -2   3   2  307.52    8.09
  -2   3   2  322.91    6.04
  -2   3   3  300.65    7.18
  -2   3   3  287.78    5.49
  -2   3   4   34.31    3.07
  -2   3   4   29.70    1.28
  -2   3   4   30.46    1.77
  -2   3   4   29.05    1.14
  -2   3   5    5.54    0.46
  -2   3   5    6.19    1.09
  -2   3   5    6.29    2.05
  -2   3   6    3.71    0.51
  -2   3   6    2.19    1.76
  -2   3   7   25.59    2.38
  -2   3   7   28.32    1.04
  -2   3   8   75.46    1.74
  -2   3   8   66.93    3.15
  -2   3   9   29.29    1.03
  -3   3  -9    0.68    1.87
  -3   3  -8    4.28    2.19
  -3   3  -8    9.66    1.32
  -3   3  -7    0.60    1.54
  -3   3  -7    0.08    0.98
  -3   3  -6   18.17    2.37
  -3   3  -6   17.39    2.27
  -3   3  -5   14.36    2.39
  -3   3  -5   16.76    1.10
  -3   3  -5   12.04    2.01
  -3   3  -4    5.83    1.86
  -3   3  -4    7.50    0.78
  -3   3  -4    4.81    2.20
  -3   3  -3    1.04    1.70
  -3   3  -3    1.19    2.20
  -3   3  -3    0.67    0.55
  -3   3  -3    1.14    1.22
  -3   3  -2   11.63    2.49
  -3   3  -2   14.82    1.46
  -3   3  -2   14.43    0.71
  -3   3  -2   10.25    2.91
  -3   3  -1    0.44    1.81
  -3   3  -1   -0.11    1.12
  -3   3  -1    0.76    1.95
  -3   3  -1    2.39    0.35
  -3   3  -1    1.85    0.40
  -3   3  -1    1.33    0.71
  -3   3   0   94.07    2.89
  -3   3   0   83.68    4.68
  -3   3   0   91.45    1.86
  -3   3   0   94.04    1.91
  -3   3   0   78.21    3.91
  -3   3   1   58.48    1.43
  -3   3   1   58.28    3.11
  -3   3   1   63.04    2.16
  -3   3   2   56.72    1.62
  -3   3   2   55.37    3.97
  -3   3   2   59.38    1.50
  -3   3   2   54.88    2.78
  -3   3   2   62.98    2.03
  -3   3   3   96.46    2.15
  -3   3   3   90.23    3.53
  -3   3   3   90.13    2.43
  -3   3   4    1.40    1.38
  -3   3   4    3.17    2.07
  -3   3   5   16.65    2.71
  -3   3   5   19.08    1.40
  -3   3   6    1.50    0.66
  -3   3   6    0.66    2.45
  -3   3   7   10.63    0.71
  -3   3   7   11.26    2.57
  -3   3   8    4.95    0.73
  -3   3   8    4.40    2.25
  -3   3   9   12.89    0.93
  -3   3   9    9.03    2.00
  -4   3  -9   10.16    1.90
  -4   3  -8    2.33    1.81
  -4   3  -7    0.90    1.90
  -4   3  -7    2.42    1.19
  -4   3  -6   -0.61    1.99
  -4   3  -6    1.91    0.98
  -4   3  -6    2.34    2.09
  -4   3  -5    1.95    2.13
  -4   3  -5    9.01    0.95
  -4   3  -5    4.01    2.31
  -4   3  -4   31.71    3.73
  -4   3  -4   33.45    3.09
  -4   3  -3   42.20    1.33
  -4   3  -3   27.10    3.24
  -4   3  -3   39.17    2.01
  -4   3  -3   28.86    2.96
  -4   3  -2   12.40    2.39
  -4   3  -2   18.66    2.07
  -4   3  -2   26.81    1.76
  -4   3  -2   24.06    0.97
  -4   3  -2   15.32    2.91
  -4   3  -1  204.68    5.12
  -4   3  -1  190.75    4.83
  -4   3  -1  199.66    3.64
  -4   3  -1  185.37    3.61
  -4   3   0  113.45    3.37
  -4   3   0  114.39    2.36
  -4   3   0  109.58    2.33
  -4   3   1    7.92    1.11
  -4   3   1    8.06    0.61
  -4   3   1    7.80    1.12
  -4   3   2   -0.09    1.77
  -4   3   2    1.33    0.64
  -4   3   2    1.49    0.58
  -4   3   2    0.73    0.83
  -4   3   3    7.18    1.75
  -4   3   3    9.13    0.74
  -4   3   3    7.99    0.75
  -4   3   4  127.58    2.95
  -4   3   4  128.05    4.01
  -4   3   5  256.91    5.06
  -4   3   5  269.29    5.85
  -4   3   6   33.81    3.71
  -4   3   6   29.08    1.45
  -4   3   7   37.34    3.64
  -4   3   7   35.10    1.51
  -4   3   8   45.01    1.35
  -4   3   8   41.19    1.63
  -4   3   9   13.15    2.83
  -4   3  10    2.47    2.43
  -5   3  -8    9.61    1.95
  -5   3  -7    5.55    1.89
  -5   3  -6    2.13    1.88
  -5   3  -6    0.22    1.05
  -5   3  -5    0.70    2.46
  -5   3  -5    0.68    1.89
  -5   3  -5    0.56    0.87
  -5   3  -4    2.56    2.02
  -5   3  -4    1.45    2.16
  -5   3  -4    4.16    0.86
  -5   3  -3   44.71    1.47
  -5   3  -3   38.77    1.94
  -5   3  -3   43.58    3.24
  -5   3  -2    4.19    2.11
  -5   3  -2    4.47    0.71
  -5   3  -2    3.90    1.17
  -5   3  -1   26.04    1.71
  -5   3  -1   26.38    1.08
  -5   3  -1   26.70    0.99
  -5   3   0   63.74    2.62
  -5   3   0   60.54    1.65
  -5   3   0   58.50    1.57
  -5   3   1    1.43    1.99
  -5   3   1    0.70    1.10
  -5   3   1    0.95    2.24
  -5   3   1    0.67    0.57
  -5   3   2    3.61    1.81
  -5   3   2    4.11    0.84
  -5   3   2    3.27    0.69
  -5   3   2    1.62    1.03
  -5   3   3    4.12    1.62
  -5   3   3    4.41    0.77
  -5   3   3    3.03    0.77
  -5   3   4    1.29    0.86
  -5   3   4    3.43    1.52
  -5   3   4    0.84    0.80
  -5   3   5   62.18    2.00
  -5   3   5   52.33    2.02
  -5   3   6   35.36    1.65
  -5   3   6   27.36    1.53
  -5   3   7    4.23    0.98
  -5   3   7    5.37    1.14
  -5   3   8   36.57    4.19
  -5   3   8   35.40    1.59
  -5   3   9    2.48    2.77
  -5   3  10    4.13    3.22
  -6   3  -6    8.11    1.96
  -6   3  -5    8.61    1.11
  -6   3  -5   14.41    2.47
  -6   3  -4   29.21    1.44
  -6   3  -4   32.13    2.68
  -6   3  -3    6.65    0.92
  -6   3  -3    9.44    2.12
  -6   3  -2    3.13    1.84
  -6   3  -2    1.42    0.73
  -6   3  -2    1.36    1.20
  -6   3  -1    4.39    0.77
  -6   3  -1    3.08    0.65
  -6   3  -1    2.67    0.82
  -6   3   0    9.30    0.88
  -6   3   0    8.16    0.75
  -6   3   1   82.15    2.62
  -6   3   1   73.34    1.98
  -6   3   1   73.34    1.92
  -6   3   1   79.78    3.69
  -6   3   2   89.28    2.45
  -6   3   2   49.40    3.99
  -6   3   2   64.98    1.86
  -6   3   2   99.67    3.84
  -6   3   3    5.07    0.89
  -6   3   3   -0.50    1.95
  -6   3   3    1.56    0.76
  -6   3   3    6.83    1.88
  -6   3   4   75.21    2.22
  -6   3   4   64.92    2.63
  -6   3   5   71.84    2.21
  -6   3   5   61.72    2.34
  -6   3   6   12.30    1.25
  -6   3   6   10.56    1.15
  -6   3   7    5.65    1.24
  -6   3   8    2.28    1.30
  -6   3   9   10.14    1.59
  -6   3  10   42.07    2.43
  -6   3  11   18.30    1.99
  -7   3  -4   20.03    2.36
  -7   3  -3    9.94    1.09
  -7   3  -3   20.06    2.33
  -7   3  -2    1.46    0.82
  -7   3  -2    8.59    2.14
  -7   3  -1    0.81    1.25
  -7   3  -1    1.05    0.92
  -7   3  -1    0.73    0.69
  -7   3   0    0.59    0.71
  -7   3   0    0.64    0.72
  -7   3   1    7.28    0.94
  -7   3   1    7.23    0.85
  -7   3   2   29.79    3.43
  -7   3   2   41.49    1.58
  -7   3   3   16.14    1.09
  -7   3   4    9.36    2.43
  -7   3   4   16.97    1.20
  -7   3   5   39.32    1.65
  -7   3   6    9.05    1.27
  -7   3   7    0.40    1.18
  -7   3   8    0.62    1.25
  -7   3   9    1.07    1.48
  -7   3  10   11.37    1.83
  -8   3  -2    6.12    0.99
  -8   3  -1    4.20    0.94
  -8   3   0    6.86    1.01
  -8   3   0    4.63    0.78
  -8   3   1   33.30    1.50
  -8   3   1   31.36    1.33
  -8   3   2   18.71    1.27
  -8   3   2   16.23    1.09
  -8   3   3    1.17    0.96
  -8   3   4    0.80    0.93
  -8   3   5    1.34    1.03
  -8   3   6   16.64    1.33
  -8   3   7   40.91    2.05
  -8   3   8    8.81    1.53
  -8   3   9    4.64    1.60
  -8   3  10    8.09    1.79
  -9   3   0    2.64    1.15
  -9   3   1    6.76    1.03
  -9   3   1    6.04    0.97
  -9   3   2   15.78    1.31
  -9   3   2   15.38    1.17
  -9   3   3    4.27    1.08
  -9   3   3    4.04    0.96
  -9   3   4    0.13    1.04
  -9   3   5    0.94    1.04
  -9   3   6    3.17    1.20
  -9   3   7   16.70    1.59
  -9   3   8    8.73    1.48
 -10   3   2    2.11    1.04
 -10   3   3    5.13    1.24
 -10   3   4    5.35    1.20
 -10   3   5    0.29    1.20
   9   4  -8    3.14    1.34
   9   4  -7    2.01    1.28
   9   4  -6    5.75    1.59
   9   4  -5   39.93    2.36
   9   4  -4   40.28    2.39
   8   4  -7    3.62    1.12
   8   4  -6    5.57    1.14
   8   4  -5   44.02    1.86
   8   4  -4   88.45    2.87
   8   4  -3   33.73    2.02
   7   4  -5    4.81    0.90
   7   4  -4    1.74    0.86
   7   4  -3    0.71    1.17
   7   4  -2    0.82    1.16
   6   4  -5    5.30    1.06
   6   4  -4    6.53    1.99
   6   4  -4    8.33    1.16
   6   4  -3    4.17    0.74
   6   4  -3    3.42    1.10
   6   4  -2    6.25    1.01
   6   4  -2    9.66    1.29
   6   4  -1    1.09    1.06
   5   4  -5    3.31    0.82
   5   4  -4    3.16    1.80
   5   4  -4    6.57    0.95
   5   4  -3   90.29    4.95
   5   4  -3  137.39    3.22
   5   4  -2  171.36    3.24
   5   4  -2  147.56    3.73
   5   4  -1    6.21    0.79
   5   4  -1    6.29    0.98
   5   4   0    3.46    0.95
   5   4   1    3.51    0.88
   5   4   4    3.04    1.18
   4   4  -5    6.09    2.63
   4   4  -4    3.78    0.76
   4   4  -3  114.69    5.87
   4   4  -3  182.49    3.70
   4   4  -2  432.43    8.01
   4   4  -1  203.97    3.63
   4   4  -1  188.01    4.15
   4   4   0    3.64    0.78
   4   4   1    7.28    0.95
   4   4   2    2.06    0.85
   4   4   3    6.17    1.09
   4   4   5    2.69    1.09
   3   4  -5   57.32    4.67
   3   4  -3    1.11    2.04
   3   4  -3    2.25    0.58
   3   4  -2   49.79    1.50
   3   4  -1   48.17    1.43
   3   4   0    1.48    0.35
   3   4   0    1.81    0.63
   3   4   1    0.48    0.65
   3   4   1    0.40    1.21
   3   4   2   89.32    2.31
   3   4   2   66.57    3.28
   3   4   3  105.64    2.63
   3   4   3   81.84    3.51
   3   4   4    4.17    0.80
   3   4   4    4.38    1.38
   3   4   5    1.19    1.30
   3   4   5    5.96    0.86
   3   4   6    0.72    1.26
   3   4   7    1.29    1.25
   2   4  -5  228.78    9.25
   2   4  -4   45.25    3.85
   2   4  -3    9.57    0.55
   2   4  -2   27.24    0.90
   2   4  -1   16.79    0.74
   2   4   0   23.48    2.24
   2   4   0   29.41    1.03
   2   4   1    7.95    1.58
   2   4   1    9.93    0.76
   2   4   2   61.62    3.00
   2   4   2   68.28    1.76
   2   4   3  230.13    6.50
   2   4   3  265.50    5.06
   2   4   4  124.22    4.50
   2   4   4  130.37    3.21
   2   4   5    7.40    1.01
   2   4   5   10.51    0.68
   2   4   5    6.99    1.70
   2   4   6    1.85    0.71
   2   4   6    0.88    1.54
   2   4   6    0.44    0.55
   2   4   7    1.64    1.58
   2   4   7    0.39    0.59
   2   4   8   -0.29    1.53
   2   4   9    0.72    1.58
   1   4  -9   21.21    1.48
   1   4  -8    8.75    1.10
   1   4  -8    9.85    0.94
   1   4  -7    2.44    0.82
   1   4  -6    3.61    0.73
   1   4  -6    2.36    0.63
   1   4  -5  107.09    2.22
   1   4  -5   90.12    2.09
   1   4  -4   57.66    1.34
   1   4  -4   50.30    1.30
   1   4  -3    5.06    0.45
   1   4  -3    4.31    2.30
   1   4  -3    4.96    0.50
   1   4  -2    1.63    0.40
   1   4  -2    1.47    0.28
   1   4  -2    0.75    1.29
   1   4  -1  196.71    3.59
   1   4  -1  208.27    3.76
   1   4   0  210.16    3.87
   1   4   1    2.00    0.21
   1   4   1    2.06    0.43
   1   4   1    1.30    1.29
   1   4   2    4.56    0.63
   1   4   2    4.31    1.51
   1   4   3   24.59    1.96
   1   4   3   51.03    0.97
   1   4   4   45.30    2.66
   1   4   4   63.05    1.24
   1   4   5    0.62    1.54
   1   4   5    0.90    0.40
   1   4   6    4.57    0.51
   1   4   6    2.32    1.67
   1   4   7   14.00    0.71
   1   4   7   10.19    1.03
   1   4   8   33.57    1.06
   1   4   8   26.88    1.27
   1   4   9    0.95    1.78
   1   4  10    0.92    1.77
   0   4 -11   -2.05    2.24
   0   4 -10    6.16    1.34
   0   4  -9   51.22    2.03
   0   4  -8   74.19    2.33
   0   4  -8   77.68    2.00
   0   4  -7    3.15    1.03
   0   4  -7    2.55    0.73
   0   4  -6   22.07    1.19
   0   4  -6   19.63    1.12
   0   4  -5   19.56    0.99
   0   4  -4    9.19    0.73
   0   4  -4    6.69    0.81
   0   4  -3   15.95    0.73
   0   4  -3   13.41    2.09
   0   4  -3   13.37    0.87
   0   4  -2    5.96    0.44
   0   4  -2    5.82    1.62
   0   4  -2    6.87    0.63
   0   4  -1  348.61    5.89
   0   4  -1  356.96    6.33
   0   4   0  852.30   13.74
   0   4   0  803.03   13.87
   0   4   0  838.21   14.28
   0   4   1  354.14    6.20
   0   4   1  331.45    6.29
   0   4   3    9.18    1.85
   0   4   3   12.57    0.37
   0   4   4    6.99    0.36
   0   4   5   14.38    0.55
   0   4   6   16.01    0.65
   0   4   6   12.86    1.05
   0   4   7    1.78    0.53
   0   4   7    1.56    0.77
   0   4   8   60.11    1.49
   0   4   8   57.29    1.84
   0   4   9   41.85    1.27
  -1   4 -10   -1.11    2.03
  -1   4  -9    0.82    2.12
  -1   4  -9   10.27    1.52
  -1   4  -8   41.78    1.85
  -1   4  -7   15.72    1.30
  -1   4  -6    4.12    0.89
  -1   4  -6    5.13    0.80
  -1   4  -5    1.44    0.70
  -1   4  -5    0.88    0.68
  -1   4  -4   79.93    2.13
  -1   4  -4   78.64    1.84
  -1   4  -4   47.04    4.70
  -1   4  -4   58.97    3.84
  -1   4  -3   35.81    3.02
  -1   4  -3   52.27    1.32
  -1   4  -3   48.07    1.64
  -1   4  -3   40.27    2.52
  -1   4  -3   39.83    1.84
  -1   4  -2    6.81    0.52
  -1   4  -2    5.63    1.94
  -1   4  -2    5.59    0.81
  -1   4  -2    4.60    1.51
  -1   4  -2    4.83    0.84
  -1   4  -1    1.93    0.60
  -1   4  -1    1.40    0.69
  -1   4  -1    1.42    0.33
  -1   4  -1    1.24    1.78
  -1   4  -1    0.46    1.27
  -1   4   0  205.90    4.49
  -1   4   0  176.35    5.50
  -1   4   0  195.20    3.40
  -1   4   0  187.62    3.34
  -1   4   0  190.17    4.20
  -1   4   1  181.11    6.59
  -1   4   1  202.78    4.04
  -1   4   1  187.78    3.31
  -1   4   1  198.74    3.92
  -1   4   2    1.27    0.55
  -1   4   2    1.80    0.40
  -1   4   2    1.95    1.72
  -1   4   2    1.13    0.69
  -1   4   3    4.93    0.34
  -1   4   3    4.68    0.84
  -1   4   3    4.27    1.83
  -1   4   3    5.13    0.67
  -1   4   4   47.37    3.17
  -1   4   4   54.31    1.16
  -1   4   4   46.74    1.75
  -1   4   5   84.64    2.47
  -1   4   5   98.56    1.89
  -1   4   5   89.44    3.67
  -1   4   5   88.70    4.26
  -1   4   6    4.11    0.45
  -1   4   6    2.41    0.81
  -1   4   6    4.88    1.01
  -1   4   7    1.70    0.55
  -1   4   7    2.06    0.83
  -1   4   8    6.61    0.70
  -1   4   9   13.13    0.78
  -2   4  -9    7.02    1.98
  -2   4  -9    5.49    1.47
  -2   4  -8    0.77    1.93
  -2   4  -8    0.46    1.31
  -2   4  -7   -1.15    2.28
  -2   4  -7    0.50    0.99
  -2   4  -6    0.64    0.82
  -2   4  -6   -2.98    2.49
  -2   4  -5   10.79    0.97
  -2   4  -5    8.87    2.09
  -2   4  -4  214.01    4.06
  -2   4  -4  201.24    4.27
  -2   4  -3  354.22    6.12
  -2   4  -3  342.82    8.47
  -2   4  -3  362.32    6.63
  -2   4  -2   85.33    4.91
  -2   4  -2   97.43    2.01
  -2   4  -2   82.51    3.60
  -2   4  -2   90.72    2.94
  -2   4  -2   91.98    2.46
  -2   4  -1   11.12    1.82
  -2   4  -1    5.11    2.31
  -2   4  -1    9.69    0.55
  -2   4  -1    8.50    1.09
  -2   4  -1    5.70    2.35
  -2   4  -1    9.50    0.90
  -2   4   0   26.54    1.61
  -2   4   0   21.89    1.73
  -2   4   0   24.70    0.74
  -2   4   0   26.67    0.65
  -2   4   0   29.02    1.41
  -2   4   0   24.56    1.22
  -2   4   1   17.16    2.89
  -2   4   1   15.53    1.89
  -2   4   1   16.61    1.20
  -2   4   1   16.94    0.62
  -2   4   1   16.66    0.62
  -2   4   1   16.51    1.01
  -2   4   1   15.24    1.05
  -2   4   2   27.92    3.24
  -2   4   2   28.04    1.05
  -2   4   2   33.34    1.40
  -2   4   3   12.38    2.68
  -2   4   3   11.70    0.97
  -2   4   3    9.84    0.96
  -2   4   3    8.72    2.16
  -2   4   4   82.22    4.76
  -2   4   4   79.94    3.64
  -2   4   4   78.55    2.35
  -2   4   4   83.98    2.26
  -2   4   5  308.59    9.27
  -2   4   5  320.68    5.49
  -2   4   5  295.08    6.25
  -2   4   5  319.51    7.11
  -2   4   5  305.57    6.19
  -2   4   6  166.99    6.39
  -2   4   6  191.52    3.52
  -2   4   6  172.22    4.10
  -2   4   6  201.07    4.49
  -2   4   7   12.73    2.19
  -2   4   7   13.46    0.77
  -2   4   8    2.36    1.88
  -2   4   8    0.93    0.57
  -2   4   9    0.08    0.63
  -3   4  -8    0.42    1.25
  -3   4  -7    4.22    1.93
  -3   4  -7    5.48    1.16
  -3   4  -6    2.17    1.92
  -3   4  -6    2.30    1.92
  -3   4  -6    0.93    0.99
  -3   4  -5    0.32    1.97
  -3   4  -5    3.93    0.91
  -3   4  -5    2.37    2.02
  -3   4  -4    4.15    2.14
  -3   4  -4    7.90    0.83
  -3   4  -4    7.39    2.54
  -3   4  -3  111.54    6.07
  -3   4  -3  128.87    2.62
  -3   4  -3  118.36    4.32
  -3   4  -2   84.13    5.50
  -3   4  -2   91.80    1.98
  -3   4  -2   79.35    3.33
  -3   4  -1   -2.23    2.20
  -3   4  -1    0.42    2.41
  -3   4  -1   -0.86    1.45
  -3   4  -1   -1.01    2.33
  -3   4  -1    0.22    1.35
  -3   4  -1    0.23    0.34
  -3   4  -1    0.07    0.46
  -3   4  -1   -0.68    1.07
  -3   4   0   -0.47    2.01
  -3   4   0    3.27    2.65
  -3   4   0    1.58    1.09
  -3   4   0    1.82    0.45
  -3   4   0    2.18    0.39
  -3   4   0    2.14    1.42
  -3   4   0    1.89    0.79
  -3   4   0    0.47    0.98
  -3   4   1   46.07    1.91
  -3   4   1   38.63    1.62
  -3   4   1   46.06    1.18
  -3   4   1   43.48    1.14
  -3   4   1   38.85    3.20
  -3   4   1   44.67    1.89
  -3   4   2   46.06    1.54
  -3   4   2   45.97    1.29
  -3   4   2   42.21    3.05
  -3   4   2   47.49    1.80
  -3   4   3    1.42    1.66
  -3   4   3    1.78    2.62
  -3   4   3    3.07    0.58
  -3   4   3    2.46    0.58
  -3   4   3    3.48    0.83
  -3   4   4    0.68    2.54
  -3   4   4   -0.88    0.78
  -3   4   4    2.32    1.52
  -3   4   5   87.02    5.55
  -3   4   5   85.00    3.43
  -3   4   6  108.59    5.90
  -3   4   6  111.03    3.23
  -3   4   7    2.60    0.64
  -3   4   7    5.14    2.58
  -3   4   8    3.83    0.70
  -3   4   8    3.26    2.11
  -3   4   9    3.52    1.99
  -3   4   9    3.20    0.75
  -4   4  -9    0.58    1.88
  -4   4  -8   -1.64    2.21
  -4   4  -7   14.87    2.68
  -4   4  -7   25.64    1.53
  -4   4  -6   16.88    2.81
  -4   4  -6   16.41    2.76
  -4   4  -5    1.25    2.06
  -4   4  -5    1.97    0.98
  -4   4  -5    0.88    2.30
  -4   4  -4    6.92    2.05
  -4   4  -4   11.10    0.98
  -4   4  -4    8.37    2.94
  -4   4  -3    5.69    2.81
  -4   4  -3    6.34    2.11
  -4   4  -3    8.92    0.86
  -4   4  -3    9.64    1.80
  -4   4  -2    3.06    2.94
  -4   4  -2    0.70    1.66
  -4   4  -2    2.85    2.54
  -4   4  -2    1.87    0.63
  -4   4  -2    1.77    1.34
  -4   4  -1    4.64    3.08
  -4   4  -1    6.11    1.59
  -4   4  -1    8.98    1.69
  -4   4  -1    4.39    0.51
  -4   4  -1    5.61    0.65
  -4   4   0    3.90    1.92
  -4   4   0    2.48    2.65
  -4   4   0    2.45    1.34
  -4   4   0    1.15    2.32
  -4   4   0    4.28    0.56
  -4   4   0    2.61    0.56
  -4   4   0    3.31    1.56
  -4   4   0    1.49    1.14
  -4   4   1  185.86    4.35
  -4   4   1  163.58    3.25
  -4   4   1  173.73    3.34
  -4   4   1  158.97    4.49
  -4   4   1  149.02    5.48
  -4   4   2  396.18    7.41
  -4   4   2  385.84    7.00
  -4   4   2  371.96    9.46
  -4   4   2  392.04    8.04
  -4   4   3  183.70    3.70
  -4   4   3  169.71    7.91
  -4   4   3  172.77    3.61
  -4   4   3  179.30    5.79
  -4   4   3  168.44    4.21
  -4   4   4    3.25    1.93
  -4   4   4    4.11    2.95
  -4   4   4    5.01    0.86
  -4   4   4    5.94    1.02
  -4   4   5    4.57    1.62
  -4   4   5    5.17    3.30
  -4   4   5    5.52    0.87
  -4   4   6    1.99    0.84
  -4   4   6    3.88    3.19
  -4   4   6    4.66    1.26
  -4   4   7    9.79    3.30
  -4   4   8   11.64    0.82
  -4   4   8   16.25    3.44
  -4   4   9    0.12    2.66
  -5   4  -7    5.83    2.08
  -5   4  -6   28.88    1.60
  -5   4  -6   15.68    2.66
  -5   4  -5    7.68    2.39
  -5   4  -5   14.06    1.23
  -5   4  -5    7.37    3.05
  -5   4  -4    0.93    2.66
  -5   4  -4   -2.68    2.41
  -5   4  -4   -0.04    0.88
  -5   4  -3   -2.24    2.49
  -5   4  -3    1.81    3.02
  -5   4  -3    1.40    0.82
  -5   4  -3    0.65    1.33
  -5   4  -2    1.16    2.44
  -5   4  -2    3.00    2.83
  -5   4  -2    6.98    0.79
  -5   4  -2    7.47    1.55
  -5   4  -1    0.62    2.50
  -5   4  -1    2.56    2.69
  -5   4  -1    2.96    0.64
  -5   4  -1    2.20    1.48
  -5   4  -1    2.29    0.64
  -5   4   0   -0.45    2.39
  -5   4   0    2.61    1.37
  -5   4   0    2.03    2.73
  -5   4   0    2.11    2.17
  -5   4   0    3.29    0.64
  -5   4   0    3.44    0.65
  -5   4   0    3.27    1.69
  -5   4   0    0.96    1.23
  -5   4   1    3.71    2.33
  -5   4   1    4.52    1.25
  -5   4   1    3.56    2.89
  -5   4   1    5.13    0.63
  -5   4   1    5.39    0.70
  -5   4   1    4.06    1.28
  -5   4   2  135.52    3.23
  -5   4   2  123.00    2.77
  -5   4   2  117.58    3.82
  -5   4   2  135.21    5.11
  -5   4   3  134.46    3.09
  -5   4   3  128.74    2.96
  -5   4   3  121.03    3.72
  -5   4   3  141.97    5.01
  -5   4   4    7.82    1.95
  -5   4   4    5.50    3.22
  -5   4   4    5.57    0.91
  -5   4   5    4.48    1.54
  -5   4   5    1.61    3.11
  -5   4   5    3.19    0.91
  -5   4   6    5.41    3.22
  -5   4   6    4.82    1.07
  -5   4   6    6.85    1.46
  -5   4   7   11.27    3.69
  -5   4   7   13.64    1.32
  -5   4   8    0.81    3.59
  -5   4   8    1.05    1.19
  -6   4  -6    4.76    2.05
  -6   4  -5    3.72    2.07
  -6   4  -4   -0.96    2.02
  -6   4  -4    0.26    0.95
  -6   4  -3    4.21    2.24
  -6   4  -3    5.36    0.98
  -6   4  -2   54.44    1.68
  -6   4  -2   55.97    2.71
  -6   4  -2   53.92    3.62
  -6   4  -1   97.03    3.80
  -6   4  -1   90.90    2.36
  -6   4   0   24.11    2.28
  -6   4   0   22.78    1.05
  -6   4   0   21.03    0.98
  -6   4   0   24.66    2.82
  -6   4   1    2.73    2.10
  -6   4   1    4.00    0.69
  -6   4   1    2.64    0.71
  -6   4   2    7.44    2.20
  -6   4   2    5.20    2.53
  -6   4   2    7.99    0.73
  -6   4   3    4.40    1.95
  -6   4   3    4.29    0.81
  -6   4   4    7.72    0.96
  -6   4   4   11.08    1.98
  -6   4   5    3.63    0.99
  -6   4   5    9.67    1.87
  -6   4   6   23.23    1.48
  -6   4   7  120.39    3.31
  -6   4   8   77.87    2.78
  -6   4   9   13.00    1.68
  -6   4  10    1.00    1.59
  -7   4  -3    5.31    2.13
  -7   4  -3   -0.61    1.00
  -7   4  -2   11.00    2.26
  -7   4  -2    5.21    0.93
  -7   4  -1   45.31    2.68
  -7   4  -1   46.95    1.61
  -7   4   0   36.13    2.46
  -7   4   0   37.51    1.36
  -7   4   0   35.14    1.29
  -7   4   1    5.73    2.16
  -7   4   1    1.44    2.58
  -7   4   1    2.03    0.82
  -7   4   1    1.56    0.76
  -7   4   2    4.56    2.13
  -7   4   2    1.12    1.98
  -7   4   2    2.04    0.81
  -7   4   2    0.90    0.76
  -7   4   3    5.14    2.14
  -7   4   3    0.52    2.50
  -7   4   3    0.60    0.75
  -7   4   4    5.48    1.85
  -7   4   4    0.48    2.25
  -7   4   4    0.85    0.90
  -7   4   5    1.53    0.93
  -7   4   6    1.20    1.09
  -7   4   7   47.53    2.15
  -7   4   8   55.87    2.39
  -7   4   9    6.87    1.62
  -7   4  10    0.37    1.62
  -8   4  -1    1.32    0.92
  -8   4  -1    9.01    2.19
  -8   4   0    1.02    0.85
  -8   4   0    0.29    0.77
  -8   4   1    1.01    1.73
  -8   4   1    0.34    0.88
  -8   4   1    0.66    0.83
  -8   4   2    2.24    0.95
  -8   4   2    1.76    0.89
  -8   4   3   30.11    1.44
  -8   4   3   28.71    1.36
  -8   4   4   56.53    1.89
  -8   4   5   28.87    1.54
  -8   4   6    2.54    1.03
  -8   4   7    1.12    1.29
  -8   4   8    0.99    1.36
  -8   4   9    1.01    1.54
  -9   4   1    1.18    0.92
  -9   4   2    1.14    0.99
  -9   4   3    5.07    1.16
  -9   4   3    4.45    1.03
  -9   4   4   28.88    1.58
  -9   4   5   28.69    1.52
  -9   4   6    4.15    1.20
  -9   4   7    0.59    1.21
  -9   4   8    1.55    1.33
 -10   4   3    0.63    1.09
 -10   4   4    0.49    1.17
   9   5  -8   10.44    1.49
   8   5  -7   33.63    1.62
   8   5  -6   17.06    1.37
   8   5  -5    0.40    1.14
   7   5  -5   38.39    1.45
   7   5  -4   10.85    1.02
   7   5  -3    7.98    1.24
   7   5  -3    8.25    2.50
   6   5  -5   39.40    1.72
   6   5  -4   25.61    2.95
   6   5  -4   44.44    1.83
   6   5  -3    2.35    0.71
   6   5  -3   -0.41    2.33
   6   5  -3    2.04    1.15
   6   5  -2   59.84    1.92
   5   5  -5   16.38    3.09
   5   5  -5   26.64    1.27
   5   5  -4    0.80    2.44
   5   5  -4    0.89    0.84
   5   5  -3    0.19    2.29
   5   5  -3    1.53    0.93
   5   5  -2    2.33    0.55
   5   5  -2    1.97    0.98
   5   5  -1    1.41    0.70
   5   5  -1    1.10    0.88
   5   5   0   31.46    1.56
   4   5  -5   59.11    4.65
   4   5  -4   42.88    4.38
   4   5  -4   62.51    1.81
   4   5  -3    4.63    0.80
   4   5  -2    0.60    0.81
   4   5  -1    7.77    0.47
   4   5  -1    5.56    0.89
   4   5   0   67.97    2.04
   4   5   1  106.57    2.78
   4   5   2   13.59    1.19
   3   5  -5    9.27    2.78
   3   5  -4    1.27    2.60
   3   5  -3   35.29    3.83
   3   5  -3   49.09    1.42
   3   5  -2   28.75    1.15
   3   5  -1   29.28    1.19
   3   5   0   48.00    1.47
   3   5   0   43.53    3.08
   3   5   1    1.25    0.77
   3   5   1    1.60    1.45
   3   5   2   11.71    1.07
   3   5   2    7.58    1.97
   3   5   3    1.92    0.88
   3   5   3    1.22    1.66
   3   5   4    1.83    1.57
   3   5   5    5.89    1.74
   3   5   6    5.99    1.74
   3   5   7    0.57    1.56
   2   5  -5    2.93    2.63
   2   5  -3   89.96    5.73
   2   5  -2  167.98    3.26
   2   5  -1    1.02    0.52
   2   5   0  142.67    5.54
   2   5   0  165.45    3.30
   2   5   1  102.21    4.53
   2   5   1  148.08    3.08
   2   5   2   17.43    2.20
   2   5   2   21.27    1.12
   2   5   3    2.30    0.71
   2   5   3    1.77    1.63
   2   5   4    0.23    0.73
   2   5   4    0.03    1.58
   2   5   5    7.88    1.95
   2   5   6   24.56    2.59
   2   5   7    4.99    2.00
   2   5   8    0.29    1.81
   1   5  -8   14.08    1.26
   1   5  -8    9.07    1.06
   1   5  -7    2.25    0.58
   1   5  -7    2.84    0.90
   1   5  -6   28.30    1.17
   1   5  -6   15.34    0.78
   1   5  -5    9.56    0.75
   1   5  -5    5.45    2.82
   1   5  -5    6.14    0.59
   1   5  -4   40.37    1.11
   1   5  -4   28.01    1.03
   1   5  -3   12.94    3.36
   1   5  -3   20.07    0.83
   1   5  -2   15.15    2.07
   1   5  -2   26.76    0.96
   1   5  -1   17.63    2.39
   1   5  -1   16.22    0.60
   1   5   0   19.73    0.79
   1   5   1   25.93    0.64
   1   5   1   23.38    0.94
   1   5   2   16.41    2.34
   1   5   2   19.33    0.91
   1   5   3   29.36    2.78
   1   5   3   34.00    1.41
   1   5   4    6.44    1.89
   1   5   5   12.22    1.82
   1   5   5   31.33    0.81
   1   5   6    0.63    1.13
   1   5   6    1.31    0.47
   1   5   7    4.90    1.13
   1   5   7    1.95    1.41
   1   5   8    0.36    1.21
   1   5   9    0.57    1.08
   0   5 -11   -1.69    2.59
   0   5  -9    3.13    1.23
   0   5  -8    2.92    1.16
   0   5  -7   10.92    1.01
   0   5  -7   13.36    1.21
   0   5  -6   71.52    2.22
   0   5  -6   54.90    2.17
   0   5  -5   23.33    3.94
   0   5  -5   32.48    1.47
   0   5  -4   12.37    2.69
   0   5  -4   19.03    1.09
   0   5  -3  227.90    4.13
   0   5  -3  220.02    4.46
   0   5  -2  128.44    5.34
   0   5  -2  145.47    3.25
   0   5  -1   11.69    0.49
   0   5  -1   12.83    0.90
   0   5   0    0.25    0.58
   0   5   0   -0.78    1.03
   0   5   0    0.16    0.20
   0   5   0    0.01    0.33
   0   5   0    0.48    1.51
   0   5   1   10.84    0.78
   0   5   1    9.22    0.56
   0   5   1   11.49    0.85
   0   5   2  101.43    4.44
   0   5   3  102.08    3.85
   0   5   4   11.26    2.25
   0   5   4   19.80    0.50
   0   5   5   34.18    0.83
   0   5   5   38.44    1.79
   0   5   6   56.20    1.22
   0   5   6   46.95    1.99
   0   5   7    7.51    1.05
   0   5   7    8.77    0.62
   0   5   7    8.62    0.94
   0   5   8    1.15    0.91
   0   5   8   -0.04    2.10
   0   5   9    0.14    2.21
   0   5  10   -0.05    2.28
  -1   5 -10   -2.13    2.27
  -1   5  -9    6.51    1.43
  -1   5  -9   -1.60    2.76
  -1   5  -8    1.14    1.24
  -1   5  -7    5.97    1.18
  -1   5  -7    8.25    1.00
  -1   5  -6    2.53    0.87
  -1   5  -6    1.39    1.00
  -1   5  -5   31.08    1.45
  -1   5  -5   33.86    1.33
  -1   5  -4    7.20    0.93
  -1   5  -4    8.11    0.78
  -1   5  -3   43.96    1.22
  -1   5  -3   39.53    1.67
  -1   5  -3   40.99    1.76
  -1   5  -2   28.22    0.93
  -1   5  -2   28.08    1.37
  -1   5  -1   27.70    0.84
  -1   5  -1   20.26    2.23
  -1   5  -1   22.32    1.36
  -1   5  -1   29.69    1.34
  -1   5  -1   22.34    2.94
  -1   5   0   18.29    1.47
  -1   5   0   18.95    0.59
  -1   5   0   19.64    2.39
  -1   5   0   18.41    0.48
  -1   5   0   17.07    0.47
  -1   5   0   15.94    1.21
  -1   5   0   19.17    1.09
  -1   5   1   17.47    2.72
  -1   5   1   18.62    1.18
  -1   5   1   15.59    2.07
  -1   5   1   18.88    0.55
  -1   5   1   22.70    1.20
  -1   5   2   26.91    0.90
  -1   5   2   22.04    1.38
  -1   5   2   24.66    1.19
  -1   5   2   25.43    2.92
  -1   5   3   21.01    0.57
  -1   5   3   20.49    1.38
  -1   5   3   20.45    1.18
  -1   5   4   30.64    0.77
  -1   5   4   31.54    1.58
  -1   5   4   32.60    3.32
  -1   5   5    7.28    1.03
  -1   5   5    7.28    0.44
  -1   5   6   17.62    0.71
  -1   5   6   17.23    1.97
  -1   5   6   21.60    1.38
  -1   5   7    2.03    0.92
  -1   5   7    2.92    0.55
  -1   5   8    9.56    1.07
  -2   5 -10    2.24    1.93
  -2   5  -9    4.10    2.22
  -2   5  -8   -1.94    2.41
  -2   5  -8    4.47    1.40
  -2   5  -7   19.34    1.50
  -2   5  -6   60.33    1.93
  -2   5  -6   27.94    3.78
  -2   5  -5   13.34    1.01
  -2   5  -5   15.33    1.14
  -2   5  -5   13.38    2.92
  -2   5  -4    1.39    0.87
  -2   5  -4    0.68    2.06
  -2   5  -4    0.64    0.76
  -2   5  -4   -1.16    1.32
  -2   5  -3    4.17    0.73
  -2   5  -3    2.12    2.18
  -2   5  -3    3.34    2.29
  -2   5  -3    4.72    0.93
  -2   5  -3    3.58    1.89
  -2   5  -3    2.36    1.13
  -2   5  -2   18.95    3.12
  -2   5  -2   24.74    0.93
  -2   5  -2   17.09    3.50
  -2   5  -2   22.11    2.30
  -2   5  -2   21.53    1.56
  -2   5  -2   23.28    1.34
  -2   5  -1  130.11    6.36
  -2   5  -1  151.27    2.81
  -2   5  -1  130.74    5.01
  -2   5  -1  151.47    3.75
  -2   5  -1  131.04    3.43
  -2   5   0  146.10    3.72
  -2   5   0  171.49    4.23
  -2   5   0  151.70    5.51
  -2   5   0  163.86    2.94
  -2   5   0  153.33    2.68
  -2   5   0  173.66    3.88
  -2   5   1    1.64    0.82
  -2   5   1   -0.01    1.06
  -2   5   1    0.62    1.46
  -2   5   1    2.03    2.35
  -2   5   1    0.70    0.33
  -2   5   1    0.55    0.39
  -2   5   1    0.33    0.77
  -2   5   2  149.71    6.90
  -2   5   2  151.61    5.91
  -2   5   2  164.96    3.44
  -2   5   2  166.74    3.06
  -2   5   2  169.56    3.85
  -2   5   3  128.62    6.27
  -2   5   3  126.25    3.40
  -2   5   4   24.49    3.27
  -2   5   4   22.38    2.92
  -2   5   4   23.86    1.45
  -2   5   4   26.32    1.34
  -2   5   5    1.96    1.81
  -2   5   5    4.86    0.51
  -2   5   5    3.37    0.96
  -2   5   5    6.02    2.44
  -2   5   5    3.45    0.87
  -2   5   6    1.57    0.97
  -2   5   6    2.61    1.38
  -2   5   6    1.07    2.13
  -2   5   6    0.43    0.49
  -2   5   7   13.02    0.72
  -2   5   7   14.62    1.36
  -2   5   7   14.48    2.72
  -2   5   8   46.30    1.27
  -3   5  -8    7.62    2.13
  -3   5  -7    0.85    2.05
  -3   5  -7   -0.40    1.17
  -3   5  -6   11.06    2.64
  -3   5  -6   14.01    1.20
  -3   5  -6   11.91    2.77
  -3   5  -5   11.22    1.10
  -3   5  -5    7.80    2.48
  -3   5  -4    0.11    2.34
  -3   5  -4    4.30    0.91
  -3   5  -4    3.04    2.62
  -3   5  -3    2.62    0.68
  -3   5  -3    2.20    2.47
  -3   5  -3    2.47    1.88
  -3   5  -3    0.31    1.29
  -3   5  -3   -0.11    2.50
  -3   5  -2   12.70    0.84
  -3   5  -2   14.28    2.15
  -3   5  -2   10.63    3.19
  -3   5  -2    8.77    1.48
  -3   5  -1   -0.24    1.56
  -3   5  -1    0.55    2.53
  -3   5  -1    0.80    0.55
  -3   5  -1    0.04    1.89
  -3   5  -1    0.32    2.76
  -3   5  -1    1.75    0.85
  -3   5  -1    0.17    2.64
  -3   5  -1    0.08    1.12
  -3   5   0   58.47    5.16
  -3   5   0   60.08    2.56
  -3   5   0   42.91    2.80
  -3   5   0   51.90    1.34
  -3   5   0   54.45    1.15
  -3   5   0   49.50    1.97
  -3   5   0   43.98    3.97
  -3   5   0   58.46    2.35
  -3   5   1   29.03    1.71
  -3   5   1   25.33    2.67
  -3   5   1   28.13    0.90
  -3   5   1   22.47    0.75
  -3   5   1   24.93    1.47
  -3   5   1   22.91    3.11
  -3   5   1   28.91    1.59
  -3   5   2   26.10    4.02
  -3   5   2   27.14    1.27
  -3   5   2   26.47    0.90
  -3   5   2   26.24    0.99
  -3   5   2   23.05    2.91
  -3   5   3   54.60    5.02
  -3   5   3   59.70    1.64
  -3   5   3   45.61    1.96
  -3   5   3   55.51    1.56
  -3   5   3   43.24    3.38
  -3   5   3   52.26    2.01
  -3   5   4    0.93    1.88
  -3   5   4    1.24    0.93
  -3   5   4    1.17    2.93
  -3   5   4    1.30    0.88
  -3   5   5   14.81    3.32
  -3   5   5   14.10    1.98
  -3   5   5   13.31    1.16
  -3   5   6   -0.78    1.77
  -3   5   6    1.98    0.54
  -3   5   6    1.05    2.54
  -3   5   7    6.25    0.69
  -3   5   7    8.41    1.28
  -3   5   8    3.12    2.35
  -3   5   8    2.12    0.71
  -4   5  -6    5.48    2.14
  -4   5  -6    0.46    1.12
  -4   5  -5    6.35    2.17
  -4   5  -5    5.33    1.08
  -4   5  -4   35.37    1.43
  -4   5  -4   19.81    2.69
  -4   5  -3   19.50    1.09
  -4   5  -3   17.53    2.38
  -4   5  -3   15.06    2.59
  -4   5  -2   13.23    0.91
  -4   5  -2   14.72    2.17
  -4   5  -1   89.49    6.60
  -4   5  -1   99.54    2.19
  -4   5  -1   80.49    4.66
  -4   5  -1   85.30    3.49
  -4   5   0   72.62    2.83
  -4   5   0   63.49    5.69
  -4   5   0   36.29    2.14
  -4   5   0   34.39    4.26
  -4   5   0   58.70    1.52
  -4   5   0   66.02    1.41
  -4   5   0   57.88    3.86
  -4   5   0   57.88    2.69
  -4   5   1    4.89    1.23
  -4   5   1    4.87    2.30
  -4   5   1    4.65    1.33
  -4   5   1    5.29    0.62
  -4   5   1    4.76    0.50
  -4   5   1    4.91    1.97
  -4   5   2    1.25    0.99
  -4   5   2    1.64    2.01
  -4   5   2    0.79    0.85
  -4   5   2    0.45    0.55
  -4   5   2    0.62    0.54
  -4   5   3    3.53    3.29
  -4   5   3    5.27    1.99
  -4   5   3    6.39    0.81
  -4   5   3    4.93    0.73
  -4   5   3    6.11    1.10
  -4   5   4   64.61    5.82
  -4   5   4   75.18    2.04
  -4   5   4   66.96    3.81
  -4   5   4   65.78    2.47
  -4   5   5  126.58    7.67
  -4   5   5  130.29    3.09
  -4   5   5  121.27    4.66
  -4   5   6   19.22    2.09
  -4   5   7   21.33    1.67
  -4   5   8   28.26    1.18
  -5   5  -6   -1.83    2.54
  -5   5  -5    2.39    1.16
  -5   5  -4    3.80    0.99
  -5   5  -3   22.83    1.23
  -5   5  -3   20.79    2.21
  -5   5  -2    5.21    0.85
  -5   5  -2    3.54    1.77
  -5   5  -1   23.68    2.60
  -5   5  -1   22.09    1.06
  -5   5   0   26.56    1.05
  -5   5   0   28.50    0.98
  -5   5   0   28.15    3.16
  -5   5   1   -2.48    2.85
  -5   5   1    0.08    2.58
  -5   5   1    1.24    1.87
  -5   5   1    1.12    0.57
  -5   5   1    1.19    0.65
  -5   5   2    2.00    0.95
  -5   5   2    1.64    0.59
  -5   5   2    1.30    0.68
  -5   5   3    4.16    0.90
  -5   5   3    1.85    0.72
  -5   5   4   -1.22    2.20
  -5   5   4    0.83    0.81
  -5   5   5   31.95    1.50
  -5   5   5   33.48    2.76
  -5   5   6   25.10    1.51
  -5   5   6   21.82    2.08
  -5   5   7    6.78    1.28
  -5   5   7    9.27    1.51
  -5   5   8   25.44    1.70
  -6   5  -4    9.59    2.69
  -6   5  -4   16.96    1.28
  -6   5  -3    2.03    2.44
  -6   5  -3    3.36    0.99
  -6   5  -2   -1.90    2.52
  -6   5  -2    0.07    0.88
  -6   5  -2    0.43    1.61
  -6   5  -1    2.26    0.82
  -6   5  -1    1.21    1.91
  -6   5   0    8.05    0.72
  -6   5   0    6.22    0.79
  -6   5   0    5.49    1.41
  -6   5   1   38.00    3.13
  -6   5   1   39.22    1.32
  -6   5   1   35.82    1.35
  -6   5   1   35.49    3.35
  -6   5   2   41.10    1.37
  -6   5   2   43.80    1.47
  -6   5   3    1.00    2.29
  -6   5   3    1.43    0.76
  -6   5   4   42.03    1.57
  -6   5   4   49.16    3.15
  -6   5   5   38.91    1.64
  -6   5   5   51.63    2.94
  -6   5   6    9.92    1.24
  -6   5   6   19.72    2.21
  -6   5   7    4.31    1.28
  -6   5   8    1.78    1.35
  -6   5   9    5.82    1.59
  -6   5  10   23.48    2.10
  -7   5  -2    0.83    0.96
  -7   5  -1    0.48    0.82
  -7   5   0    0.76    2.23
  -7   5   0    0.43    1.70
  -7   5   0    0.96    0.73
  -7   5   0    0.67    0.81
  -7   5   1    7.08    2.36
  -7   5   1    4.49    0.82
  -7   5   1    4.40    0.86
  -7   5   1    4.37    2.14
  -7   5   2   26.13    1.20
  -7   5   2   25.34    1.26
  -7   5   3    7.23    0.81
  -7   5   3    9.13    0.95
  -7   5   4    8.30    1.03
  -7   5   4   14.36    2.32
  -7   5   5   24.05    1.33
  -7   5   5   41.10    2.78
  -7   5   6    4.47    1.19
  -7   5   6   13.40    1.99
  -7   5   7   -0.33    1.24
  -7   5   8    0.23    1.35
  -7   5   9    0.10    1.52
  -8   5   1   16.65    2.33
  -8   5   1   14.66    1.05
  -8   5   2   10.16    1.06
  -8   5   2    9.23    1.02
  -8   5   2   10.15    2.46
  -8   5   3    1.04    0.89
  -8   5   3    1.07    0.92
  -8   5   4    7.27    2.09
  -8   5   4    0.51    0.79
  -8   5   5    0.57    1.00
  -8   5   6    9.94    1.22
  -8   5   7   20.20    1.64
  -8   5   8    5.72    1.47
  -9   5   4    0.10    1.03
  -9   5   5    0.63    0.90
  -9   5   6    2.32    1.21
  -9   5   7   10.88    1.46
   6   6  -5   15.93    3.28
   6   6  -4   60.38    1.64
   6   6  -3   17.76    3.45
   5   6  -5   15.87    3.07
   5   6  -4    3.15    3.05
   5   6  -4    8.86    1.04
   5   6  -3    5.02    2.81
   5   6  -3    8.81    1.07
   5   6  -2   11.29    0.69
   5   6  -2    9.78    1.15
   5   6  -1    9.17    1.09
   4   6  -5   20.59    3.16
   4   6  -4    9.82    3.32
   4   6  -4   18.55    0.98
   4   6  -3    9.56    3.11
   4   6  -3   14.65    1.03
   4   6  -2   71.89    2.07
   4   6  -1   13.40    0.59
   4   6  -1   12.47    0.99
   4   6   0   22.39    1.29
   4   6   1   38.79    1.56
   3   6  -5   -0.21    2.23
   3   6  -4   21.21    4.02
   3   6  -3   28.22    3.95
   3   6  -3   43.72    1.33
   3   6  -2    5.74    0.75
   3   6  -1    5.15    0.72
   3   6   0   47.82    1.57
   3   6   0   34.10    3.27
   3   6   1   35.08    1.41
   3   6   1   21.30    2.44
   3   6   2    2.06    0.89
   3   6   2    2.13    1.91
   3   6   3    7.75    2.33
   3   6   4    2.10    2.04
   3   6   5   10.32    2.28
   3   6   6    2.15    2.00
   3   6   7    1.24    2.00
   2   6  -4    0.84    2.94
   2   6  -3   51.32    4.88
   2   6  -2  106.57    2.23
   2   6  -1   79.23    1.81
   2   6   0   94.10    4.90
   2   6   0  108.18    2.49
   2   6   1   62.32    4.01
   2   6   1   84.14    2.13
   2   6   2    0.88    0.77
   2   6   2    0.75    1.91
   2   6   3   38.70    3.23
   2   6   3   50.07    1.79
   2   6   4   16.08    2.50
   2   6   5    1.78    1.90
   2   6   6    4.67    2.10
   2   6   7    2.45    1.95
   2   6   8    2.11    2.02
   1   6  -5    1.91    0.55
   1   6  -4    1.39    0.55
   1   6  -3   36.05    4.49
   1   6  -3   65.50    1.66
   1   6  -2   30.71    2.89
   1   6  -1    1.30    0.41
   1   6  -1    1.19    2.22
   1   6   0    1.60    0.82
   1   6   0    2.12    0.44
   1   6   1   49.84    1.02
   1   6   1   43.22    1.39
   1   6   2   45.37    3.41
   1   6   2   60.25    1.72
   1   6   3    2.87    0.74
   1   6   3    2.85    2.12
   1   6   4    0.75    0.77
   1   6   4    1.18    2.15
   1   6   5   10.83    2.48
   1   6   6   14.01    2.69
   1   6   7    0.91    2.21
   1   6   8    2.46    2.37
   1   6   9   -0.05    2.35
   0   6  -9   10.70    1.41
   0   6  -8   10.59    1.30
   0   6  -7    6.57    1.15
   0   6  -6   77.90    2.21
   0   6  -5   70.42    1.86
   0   6  -5   50.10    1.81
   0   6  -4   64.41    1.63
   0   6  -4   49.85    1.81
   0   6  -3   90.89    1.98
   0   6  -3   84.80    2.29
   0   6  -2   50.06    1.22
   0   6  -2   48.32    1.64
   0   6  -1   32.64    0.77
   0   6  -1   32.01    1.30
   0   6   0  140.34    3.44
   0   6   0  120.42    5.34
   0   6   0  127.26    2.42
   0   6   0  152.24    3.14
   0   6   1   27.43    0.95
   0   6   1   28.24    1.30
   0   6   2   32.75    3.28
   0   6   2   34.40    1.15
   0   6   3   57.22    3.98
   0   6   4   27.51    2.77
   0   6   5   21.08    2.21
   0   6   5   49.26    2.17
   0   6   6   24.20    2.65
   0   6   7    3.03    2.15
   0   6   8    2.72    2.15
   0   6   9    1.92    2.13
   0   6  10    0.08    1.97
  -1   6  -9   -2.81    3.16
  -1   6  -8    5.42    1.35
  -1   6  -7    2.71    1.22
  -1   6  -6   29.14    1.51
  -1   6  -5   24.50    1.32
  -1   6  -5   18.69    1.52
  -1   6  -4    0.37    0.88
  -1   6  -4    1.16    0.83
  -1   6  -3    4.44    0.70
  -1   6  -3    2.09    0.96
  -1   6  -3    5.60    0.99
  -1   6  -3    2.48    1.80
  -1   6  -2   58.05    3.89
  -1   6  -2   60.30    2.33
  -1   6  -1   42.40    1.06
  -1   6  -1   35.24    3.20
  -1   6  -1   38.41    1.87
  -1   6  -1   41.99    1.62
  -1   6  -1   43.55    4.07
  -1   6   0    2.25    0.91
  -1   6   0    2.54    0.39
  -1   6   0    1.77    1.19
  -1   6   0    0.78    1.97
  -1   6   0    1.15    0.95
  -1   6   1    1.89    0.81
  -1   6   1    1.81    0.31
  -1   6   1    0.50    0.96
  -1   6   1    1.58    0.39
  -1   6   1    1.07    2.10
  -1   6   2   39.63    0.74
  -1   6   2   48.73    1.24
  -1   6   2   37.31    0.74
  -1   6   2   37.76    1.90
  -1   6   2   43.28    4.05
  -1   6   2   44.12    1.64
  -1   6   3   57.49    2.29
  -1   6   3   65.26    2.07
  -1   6   4    1.49    2.09
  -1   6   4    0.61    0.27
  -1   6   4    1.37    1.02
  -1   6   5    2.63    0.34
  -1   6   5    0.90    2.34
  -1   6   6    1.86    2.64
  -1   6   6    7.22    2.22
  -1   6   7    6.66    2.78
  -1   6   8   -0.06    2.63
  -1   6   9   -0.31    2.74
  -1   6  10   -0.87    2.86
  -2   6  -8   -0.58    2.72
  -2   6  -8    8.39    1.51
  -2   6  -7    7.92    1.43
  -2   6  -7   -0.38    2.87
  -2   6  -6   16.23    1.40
  -2   6  -5    4.12    0.98
  -2   6  -5    1.30    1.44
  -2   6  -4   26.30    1.20
  -2   6  -4   17.75    1.71
  -2   6  -3   50.75    3.62
  -2   6  -3   51.70    2.41
  -2   6  -2    0.78    0.99
  -2   6  -2    1.18    0.64
  -2   6  -2   -0.61    1.99
  -2   6  -1   81.38    3.34
  -2   6  -1   88.26    1.91
  -2   6  -1   89.09    2.77
  -2   6   0  118.90    3.63
  -2   6   0  115.77    2.33
  -2   6   1   97.60    2.80
  -2   6   1   74.84    4.36
  -2   6   1   95.32    1.83
  -2   6   1   82.39    1.78
  -2   6   1   89.07    2.63
  -2   6   2  125.46    2.72
  -2   6   2  111.06    2.16
  -2   6   2  115.93    2.37
  -2   6   2  132.40    3.31
  -2   6   3   74.74    1.58
  -2   6   3   86.69    2.48
  -2   6   4    0.59    0.38
  -2   6   4   -3.44    3.00
  -2   6   5   54.57    1.28
  -2   6   5   58.81    3.95
  -2   6   6   24.50    0.81
  -2   6   6   27.64    2.46
  -2   6   7   -1.46    1.83
  -3   6  -7    1.04    2.35
  -3   6  -7    1.07    1.32
  -3   6  -6    2.23    2.60
  -3   6  -6    5.54    1.20
  -3   6  -5    9.88    3.01
  -3   6  -5   19.51    1.28
  -3   6  -4    5.18    1.01
  -3   6  -3   11.48    1.01
  -3   6  -3    6.19    2.24
  -3   6  -3    6.61    1.59
  -3   6  -2    2.11    1.27
  -3   6  -2    1.75    0.69
  -3   6  -2    1.63    1.93
  -3   6  -2   -2.47    3.11
  -3   6  -1   34.75    2.42
  -3   6  -1   36.14    1.21
  -3   6  -1   31.46    2.96
  -3   6  -1   34.15    1.96
  -3   6   0   52.21    2.46
  -3   6   0   44.79    3.62
  -3   6   0   49.61    1.36
  -3   6   0   50.07    2.17
  -3   6   1    5.98    1.31
  -3   6   1    6.38    0.59
  -3   6   1    5.44    0.44
  -3   6   1    5.07    1.74
  -3   6   1    8.67    1.29
  -3   6   2    4.67    1.12
  -3   6   2    5.92    0.91
  -3   6   2    5.01    0.55
  -3   6   2    4.77    0.63
  -3   6   2    5.19    2.15
  -3   6   2    2.33    2.78
  -3   6   3   39.71    3.80
  -3   6   3   55.47    1.58
  -3   6   3   42.29    1.26
  -3   6   3   50.69    1.51
  -3   6   3   40.98    3.87
  -3   6   4   29.92    3.18
  -3   6   5    1.86    1.92
  -3   6   6    2.27    2.17
  -3   6   6    3.33    0.63
  -3   6   7    6.73    1.73
  -4   6  -6    3.06    1.18
  -4   6  -5    6.47    2.36
  -4   6  -5    4.60    1.17
  -4   6  -4   41.34    1.66
  -4   6  -4   22.91    3.19
  -4   6  -3   33.19    1.36
  -4   6  -3   27.13    2.78
  -4   6  -3   23.10    3.29
  -4   6  -2   27.18    1.21
  -4   6  -2   24.20    2.71
  -4   6  -1   41.75    1.40
  -4   6  -1   34.68    3.09
  -4   6  -1   34.92    3.75
  -4   6   0   21.17    2.97
  -4   6   0   20.44    0.95
  -4   6   0   21.15    3.18
  -4   6   1    9.79    2.79
  -4   6   1   13.49    1.61
  -4   6   1   11.87    0.74
  -4   6   1   13.60    0.63
  -4   6   1    8.37    1.63
  -4   6   2   61.95    4.23
  -4   6   2   65.00    1.63
  -4   6   2   57.70    1.49
  -4   6   2   62.48    4.20
  -4   6   3   16.78    1.10
  -4   6   3   13.88    0.83
  -4   6   3   10.84    2.68
  -4   6   3   13.65    0.91
  -4   6   3   14.88    2.63
  -4   6   4   20.90    1.15
  -4   6   4   19.84    2.62
  -4   6   5   48.22    1.76
  -4   6   5   36.36    3.31
  -4   6   6   35.87    1.61
  -4   6   6   28.05    2.69
  -4   6   7   44.25    2.49
  -5   6  -4   -1.02    2.91
  -5   6  -4   10.50    1.25
  -5   6  -3   12.94    1.15
  -5   6  -3   10.10    2.10
  -5   6  -2    4.90    0.95
  -5   6  -2    5.12    2.15
  -5   6  -1   10.49    0.99
  -5   6  -1    8.28    2.27
  -5   6  -1   12.29    2.54
  -5   6   0   30.77    3.25
  -5   6   0   32.99    1.26
  -5   6   0   34.15    3.19
  -5   6   1    8.13    0.75
  -5   6   1    8.76    0.66
  -5   6   2    7.40    0.79
  -5   6   2    7.84    0.67
  -5   6   2    7.73    2.52
  -5   6   3    8.41    0.85
  -5   6   3    7.76    0.73
  -5   6   4    4.30    2.62
  -5   6   4    8.80    0.94
  -5   6   5   37.11    1.60
  -5   6   5   34.70    3.12
  -5   6   6   10.81    2.26
  -5   6   6   10.94    1.28
  -5   6   7    5.71    1.29
  -5   6   7    7.97    1.81
  -5   6   8   11.09    1.56
  -5   6   9   12.61    1.64
  -6   6  -3    1.42    1.01
  -6   6  -2   -1.13    2.89
  -6   6  -2    7.03    1.09
  -6   6  -1   12.23    2.31
  -6   6  -1   12.51    1.11
  -6   6   0    1.18    2.28
  -6   6   0    0.73    0.79
  -6   6   1   19.08    3.20
  -6   6   1   18.07    1.96
  -6   6   1   23.00    1.10
  -6   6   2   34.57    3.60
  -6   6   2   34.30    1.34
  -6   6   2   35.23    1.25
  -6   6   2   33.59    3.51
  -6   6   3   28.04    1.26
  -6   6   3   26.13    1.15
  -6   6   3   25.73    3.18
  -6   6   4   31.46    1.29
  -6   6   4   44.99    3.50
  -6   6   5   28.75    1.49
  -6   6   5   38.70    2.99
  -6   6   6    4.39    1.97
  -6   6   6    0.65    1.13
  -6   6   7   16.75    1.61
  -6   6   7   24.66    2.21
  -6   6   8   10.47    1.59
  -6   6   9    1.09    1.55
  -7   6  -1    5.90    1.07
  -7   6   0    3.31    2.36
  -7   6   0    2.83    0.92
  -7   6   1    6.00    2.63
  -7   6   1    4.78    0.87
  -7   6   1    4.66    1.72
  -7   6   2   18.08    2.98
  -7   6   2   15.49    1.08
  -7   6   2   17.79    2.89
  -7   6   3   13.43    2.64
  -7   6   3   10.18    1.04
  -7   6   4    9.97    1.00
  -7   6   4   10.54    1.04
  -7   6   5   16.33    1.20
  -7   6   5   29.98    2.70
  -7   6   6    6.81    1.28
  -7   6   6   15.00    2.24
  -7   6   7    2.88    1.26
  -7   6   8    4.21    1.51
  -8   6   2    3.16    2.28
  -8   6   3    1.89    2.68
  -8   6   3    2.58    0.96
  -8   6   4    8.01    1.12
  -8   6   6    4.60    1.18
  -8   6   7    7.18    1.27
   3   7   0   21.64    1.22
   3   7   1    0.48    0.80
   3   7   1    1.28    2.25
   3   7   2    3.25    2.01
   3   7   3    2.34    2.18
   3   7   4    1.40    2.29
   3   7   5    2.43    2.44
   3   7   6    4.96    2.52
   2   7  -1   -1.17    1.15
   2   7  -1    0.51    0.58
   2   7  -1    1.25    2.34
   2   7   0   53.13    3.87
   2   7   0   75.15    1.87
   2   7   1   49.26    4.17
   2   7   1   63.31    1.82
   2   7   2    7.71    0.97
   2   7   2    4.25    2.40
   2   7   3    1.55    0.93
   2   7   3    2.48    2.37
   2   7   4    0.58    2.21
   2   7   5    4.27    2.45
   2   7   6   11.65    2.75
   2   7   7    4.51    2.47
   1   7  -2    3.76    2.44
   1   7  -1    5.14    1.37
   1   7  -1    5.75    0.41
   1   7  -1    5.62    2.50
   1   7   0    6.29    0.93
   1   7   0    6.71    0.64
   1   7   1    5.99    0.75
   1   7   1    4.00    2.37
   1   7   2    7.50    0.90
   1   7   2    5.62    2.52
   1   7   3    9.50    0.99
   1   7   3    6.80    2.53
   1   7   4   -0.31    2.22
   1   7   5    5.91    2.62
   1   7   6   -0.28    2.54
   1   7   7    0.76    2.59
   1   7   8    2.23    2.64
   0   7  -8    2.66    1.27
   0   7  -7    5.10    1.10
   0   7  -6   31.73    1.43
   0   7  -5   25.38    1.21
   0   7  -4   13.37    0.88
   0   7  -3  114.71    2.33
   0   7  -3  104.94    2.72
   0   7  -2   42.01    3.66
   0   7  -2   61.21    1.90
   0   7  -1    2.48    1.46
   0   7  -1    5.68    2.53
   0   7  -1    5.19    0.88
   0   7   0    1.53    0.82
   0   7   0    0.31    1.05
   0   7   0    0.03    0.30
   0   7   0   -0.15    2.20
   0   7   1    4.91    0.64
   0   7   1    4.14    0.58
   0   7   2   37.70    3.64
   0   7   2   52.98    1.53
   0   7   3   72.87    4.98
   0   7   3   87.56    2.21
   0   7   4    9.68    1.04
   0   7   4    7.81    2.83
   0   7   5   14.99    3.21
   0   7   6   15.73    3.18
   0   7   7    2.91    2.66
   0   7   8    1.93    2.66
  -1   7  -8    1.25    1.35
  -1   7  -7    4.89    1.30
  -1   7  -6    1.19    1.08
  -1   7  -5   14.17    1.22
  -1   7  -4    2.64    0.91
  -1   7  -3   15.83    0.96
  -1   7  -3   11.64    2.74
  -1   7  -3   12.39    1.28
  -1   7  -2   10.30    0.78
  -1   7  -2    9.18    1.17
  -1   7  -1    5.75    1.09
  -1   7  -1    6.00    0.59
  -1   7  -1    4.23    1.62
  -1   7  -1    5.05    2.43
  -1   7   0    8.85    0.49
  -1   7   0    8.35    1.39
  -1   7   0    5.68    2.49
  -1   7   0    7.73    1.07
  -1   7   1    6.65    1.00
  -1   7   1    6.36    0.47
  -1   7   1    6.69    0.50
  -1   7   1    4.22    2.49
  -1   7   1    7.64    1.05
  -1   7   2    8.96    0.70
  -1   7   2    4.65    0.60
  -1   7   4    9.21    2.86
  -1   7   5    0.91    1.78
  -1   7   6    3.17    1.95
  -1   7   6    2.92    2.50
  -1   7   7    0.06    2.26
  -1   7   8    0.49    2.54
  -2   7  -7   11.12    1.55
  -2   7  -6   32.55    1.75
  -2   7  -5    9.39    1.32
  -2   7  -4    1.44    0.94
  -2   7  -3    2.84    1.18
  -2   7  -3    1.47    0.83
  -2   7  -3    2.01    2.11
  -2   7  -2    7.91    0.78
  -2   7  -2    8.07    2.68
  -2   7  -2    9.99    1.38
  -2   7  -1   75.05    1.76
  -2   7  -1   73.32    2.65
  -2   7   0   84.77    3.18
  -2   7   0   88.92    1.88
  -2   7   1   -0.40    1.12
  -2   7   1    0.53    0.46
  -2   7   1    0.06    2.72
  -2   7   2   77.73    1.55
  -2   7   2   67.49    4.78
  -2   7   2   71.76    1.76
  -2   7   3   43.02    3.73
  -2   7   3   58.77    1.19
  -2   7   4    5.47    3.30
  -2   7   5   -0.10    2.92
  -2   7   5   -0.19    2.52
  -2   7   6    3.27    2.27
  -2   7   6    0.72    2.73
  -2   7   7    1.38    2.97
  -2   7   8    6.36    3.32
  -3   7  -6    8.80    1.46
  -3   7  -5    3.23    1.14
  -3   7  -4    0.71    0.94
  -3   7  -3   -0.14    0.93
  -3   7  -3    2.44    2.10
  -3   7  -2    2.96    0.86
  -3   7  -2    2.80    2.45
  -3   7  -1    0.52    0.69
  -3   7  -1    0.20    2.43
  -3   7  -1   -2.81    3.64
  -3   7   0   20.58    0.93
  -3   7   0   16.13    2.99
  -3   7   0   14.66    3.86
  -3   7   1    9.98    1.43
  -3   7   1   10.20    0.72
  -3   7   1   11.05    2.93
  -3   7   2   12.12    1.15
  -3   7   2    8.77    0.63
  -3   7   2    9.32    0.66
  -3   7   2    9.08    2.77
  -3   7   2    5.86    3.22
  -3   7   3   15.67    3.50
  -3   7   3   12.22    2.30
  -3   7   3   15.78    0.69
  -3   7   3   18.30    0.96
  -3   7   4    0.61    2.71
  -3   7   4    0.65    2.64
  -3   7   4    0.32    0.51
  -3   7   4    1.12    0.82
  -3   7   5    3.40    2.36
  -3   7   6    5.99    2.24
  -3   7   6   -0.70    3.09
  -3   7   7    0.08    2.98
  -4   7  -5    1.08    1.14
  -4   7  -4   16.13    1.37
  -4   7  -3   11.77    1.19
  -4   7  -3    8.84    2.38
  -4   7  -2    3.42    2.92
  -4   7  -2    7.62    1.02
  -4   7  -2    6.44    2.52
  -4   7  -1   54.35    1.66
  -4   7  -1   49.95    3.89
  -4   7   0   29.93    1.20
  -4   7   0   29.85    3.48
  -4   7   0   23.16    3.49
  -4   7   1    0.89    2.77
  -4   7   1    2.76    2.68
  -4   7   1    2.44    0.68
  -4   7   2    0.88    2.65
  -4   7   2    0.46    1.99
  -4   7   2    0.25    0.62
  -4   7   3    2.70    2.53
  -4   7   3    1.41    2.45
  -4   7   3    2.06    0.56
  -4   7   3    2.53    0.72
  -4   7   4   22.74    3.79
  -4   7   4   23.84    1.04
  -4   7   4   30.47    1.31
  -4   7   4   32.62    3.18
  -4   7   5   64.27    2.06
  -4   7   5   63.17    3.99
  -4   7   6    6.21    2.69
  -4   7   6   12.69    1.31
  -4   7   7   13.98    1.43
  -5   7  -3   11.70    1.29
  -5   7  -2    1.17    0.93
  -5   7  -2    1.94    2.42
  -5   7  -1   11.08    2.66
  -5   7  -1    8.46    1.03
  -5   7  -1    8.32    2.69
  -5   7   0   11.95    1.00
  -5   7   0   10.69    2.88
  -5   7   0   15.81    2.82
  -5   7   1    4.11    2.45
  -5   7   1    1.42    2.54
  -5   7   1    0.97    0.74
  -5   7   2    0.50    1.50
  -5   7   2    0.82    0.69
  -5   7   3   -2.17    3.02
  -5   7   3    0.56    2.69
  -5   7   3    1.36    0.70
  -5   7   4   -0.07    3.08
  -5   7   4    0.13    0.72
  -5   7   5   12.23    3.03
  -5   7   5   10.21    0.95
  -5   7   5   13.25    1.27
  -5   7   6    8.65    2.61
  -5   7   6    9.23    1.29
  -5   7   7    3.45    1.33
  -5   7   8   11.10    1.68
  -5   7   9    2.93    1.63
  -6   7  -2    0.54    1.04
  -6   7  -1    1.14    0.98
  -6   7  -1    2.13    2.46
  -6   7   0    2.02    0.94
  -6   7   0    3.79    2.51
  -6   7   1   12.64    3.52
  -6   7   1   19.68    3.32
  -6   7   1   16.12    1.09
  -6   7   2   15.33    3.45
  -6   7   2   13.00    1.98
  -6   7   2   18.73    1.08
  -6   7   3    1.47    2.76
  -6   7   3    0.55    0.78
  -6   7   4   16.32    3.15
  -6   7   4   19.36    1.14
  -6   7   4   17.38    3.65
  -6   7   5   16.25    1.11
  -6   7   5   21.82    3.02
  -6   7   6    6.32    2.29
  -6   7   7    8.19    2.14
  -7   7   1    3.15    2.74
  -7   7   1    2.78    0.94
  -7   7   2   11.59    1.07
  -7   7   2   10.15    2.44
  -7   7   3    4.59    2.86
  -7   7   3    3.53    0.81
  -7   7   4    3.69    0.95
  -7   7   5   10.35    1.12
  -7   7   6    8.14    2.37
   3   8   1    1.93    2.77
   3   8   2   13.40    3.04
   3   8   3   14.44    2.86
   3   8   4    3.15    2.28
   3   8   5    1.05    2.21
   2   8  -1    4.83    3.03
   2   8   0    6.64    2.70
   2   8   1    4.30    2.71
   2   8   2   13.28    3.33
   2   8   3   51.96    4.48
   2   8   4   24.79    3.58
   2   8   5    1.54    2.60
   1   8  -2    0.64    2.83
   1   8   1    1.22    2.79
   1   8   2   -1.09    2.65
   1   8   3    2.86    2.70
   1   8   4    4.99    2.95
   1   8   5   -0.75    2.75
   0   8  -2    1.67    2.54
   0   8  -1   57.43    4.72
   0   8   0  128.99    6.48
   0   8   2   -0.13    2.85
   0   8   3    2.64    2.73
   0   8   4    0.52    2.74
   0   8   5   -0.07    2.92
  -1   8  -3    7.37    3.04
  -1   8  -2    1.57    2.57
  -1   8  -1    1.51    2.81
  -1   8   0   20.11    3.39
  -1   8   1   20.75    3.50
  -1   8   4    6.13    3.25
  -1   8   5    7.51    3.40
  -1   8   5    7.04    3.79
  -2   8  -3   63.72    4.66
  -2   8  -2   17.63    3.50
  -2   8  -1    2.97    2.77
  -2   8   0    5.35    2.87
  -2   8   1    1.70    2.66
  -2   8   2    2.41    3.00
  -2   8   3    5.12    3.17
  -2   8   3   -4.28    4.14
  -2   8   4    8.02    3.87
  -2   8   5   41.02    4.75
  -2   8   5   71.45    5.15
  -3   8  -3   18.68    3.27
  -3   8  -2   15.12    3.36
  -3   8  -1   -0.68    2.64
  -3   8   0    0.12    2.70
  -3   8   0   -4.95    4.05
  -3   8   1    3.20    2.94
  -3   8   1    0.76    3.74
  -3   8   2    7.35    3.39
  -3   8   2    0.59    3.43
  -3   8   3   -3.33    3.61
  -3   8   3    2.19    3.27
  -3   8   4   -0.06    3.15
  -3   8   4    1.90    2.87
  -3   8   5   17.66    3.18
  -4   8  -3    1.06    2.52
  -4   8  -2    2.21    2.95
  -4   8  -1    0.44    2.67
  -4   8   0   -0.79    3.21
  -4   8   0    0.06    2.75
  -4   8   1   34.04    4.02
  -4   8   1   29.78    4.11
  -4   8   2   81.09    5.71
  -4   8   2   77.72    5.29
  -4   8   3   28.89    4.17
  -4   8   3   37.67    3.96
  -4   8   4    5.41    2.75
  -4   8   5    7.10    2.93
  -5   8  -2    2.33    2.79
  -5   8  -1    1.44    2.63
  -5   8   0    2.47    2.75
  -5   8   1    0.94    2.94
  -5   8   3   27.11    3.78
  -5   8   4   -4.36    3.62
  -5   8   5   -3.86    3.35
  -2   9   2   18.65    4.93
  -2   9   3   15.64    4.73
  -2   9   4    1.60    3.68
  -3   9   4    3.69    3.44
   0   0   0    0.00    0.00
;
_shelx_hkl_checksum              14168
loop_
_space_group_symop_operation_xyz
'x, y, z'
'-x, y+1/2, -z'
loop_
_atom_site_label
_atom_site_type_symbol
_atom_site_fract_x
_atom_site_fract_y
_atom_site_fract_z
_atom_site_U_iso_or_equiv
_atom_site_adp_type
_atom_site_occupancy
_atom_site_site_symmetry_order
_atom_site_calc_flag
_atom_site_refinement_flags_posn
_atom_site_refinement_flags_adp
_atom_site_refinement_flags_occupancy
_atom_site_disorder_assembly
_atom_site_disorder_group
Mn1 Mn 0.9967(4) 1.0018(4) 1.0015(4) 0.0285(4) Uani 1 1 d . . . . .
Br1 Br 1.17810(13) 0.7513(3) 0.88610(11) 0.0357(2) Uani 1 1 d . . . . .
Br2 Br 1.11878(14) 0.7462(3) 1.23681(11) 0.0373(3) Uani 1 1 d . . . . .
Br3 Br 0.70912(12) 0.7515(3) 0.89136(12) 0.0360(3) Uani 1 1 d . . . . .
N1 N 0.3608(16) 0.1459(10) 0.7678(8) 0.047(3) Uani 1 1 d D U . . .
H1A H 0.4601 0.0909 0.8409 0.056 Uiso 1 1 calc R U . . .
H1B H 0.2621 0.1339 0.7920 0.056 Uiso 1 1 calc R U . . .
C1 C 0.323(2) 0.0449(13) 0.6225(7) 0.070(5) Uani 1 1 d D U . . .
H1C H 0.2264 -0.0563 0.6022 0.084 Uiso 1 1 calc R U . . .
H1D H 0.4359 -0.0186 0.6240 0.084 Uiso 1 1 calc R U . . .
C2 C 0.2592(11) 0.2054(11) 0.5066(8) 0.084(5) Uani 1 1 d D U . . .
H2 H 0.1413 0.1810 0.4192 0.101 Uiso 1 1 calc R U . . .
C3 C 0.273(3) 0.3970(14) 0.5891(9) 0.095(6) Uani 1 1 d D U . . .
H3A H 0.3245 0.5015 0.5475 0.115 Uiso 1 1 calc R U . . .
H3B H 0.1494 0.4389 0.5804 0.115 Uiso 1 1 calc R U . . .
F1 F 0.4149(10) 0.198(3) 0.4826(12) 0.202(9) Uani 1 1 d D U . . .
C4 C 0.3975(16) 0.3605(11) 0.7495(9) 0.036(3) Uani 1 1 d D U . . .
H4A H 0.3639 0.4450 0.8163 0.043 Uiso 1 1 calc R U . . .
H4B H 0.5282 0.3829 0.7680 0.043 Uiso 1 1 calc R U . . .
loop_
_atom_site_aniso_label
_atom_site_aniso_U_11
_atom_site_aniso_U_22
_atom_site_aniso_U_33
_atom_site_aniso_U_23
_atom_site_aniso_U_13
_atom_site_aniso_U_12
Mn1 0.0277(5) 0.0150(6) 0.0472(7) -0.0012(5) 0.0195(5) 0.0000(5)
Br1 0.0424(4) 0.0193(4) 0.0590(4) -0.0018(8) 0.0346(3) -0.0023(7)
Br2 0.0471(5) 0.0232(4) 0.0415(4) -0.0093(8) 0.0178(3) -0.0096(8)
Br3 0.0260(4) 0.0205(4) 0.0587(5) -0.0002(8) 0.0142(3) 0.0031(7)
N1 0.054(5) 0.041(5) 0.056(5) 0.000(4) 0.034(4) -0.003(4)
C1 0.076(7) 0.062(7) 0.066(7) -0.001(6) 0.021(5) 0.000(6)
C2 0.095(8) 0.086(9) 0.075(7) -0.002(6) 0.037(5) 0.002(7)
C3 0.101(8) 0.091(8) 0.091(8) 0.012(7) 0.034(6) -0.001(7)
F1 0.198(13) 0.228(17) 0.193(12) -0.003(13) 0.092(9) -0.007(12)
C4 0.044(5) 0.032(5) 0.037(5) -0.001(4) 0.021(4) -0.009(4)
loop_
_atom_type_symbol
_atom_type_description
_atom_type_scat_dispersion_real
_atom_type_scat_dispersion_imag
_atom_type_scat_source
C C 0.0033 0.0016 'International Tables Vol C Tables 4.2.6.8 and 6.1.1.4'
H H 0.0000 0.0000 'International Tables Vol C Tables 4.2.6.8 and 6.1.1.4'
N N 0.0061 0.0033 'International Tables Vol C Tables 4.2.6.8 and 6.1.1.4'
F F 0.0171 0.0103 'International Tables Vol C Tables 4.2.6.8 and 6.1.1.4'
Br Br -0.2901 2.4595 'International Tables Vol C Tables 4.2.6.8 and 6.1.1.4'
Mn Mn 0.3368 0.7283 'International Tables Vol C Tables 4.2.6.8 and 6.1.1.4'
loop_
_geom_angle_atom_site_label_1
_geom_angle_atom_site_label_2
_geom_angle_atom_site_label_3
_geom_angle
_geom_angle_site_symmetry_1
_geom_angle_site_symmetry_3
_geom_angle_publ_flag
Br1 Mn1 Br3 94.15(10) 2_757 . ?
Br1 Mn1 Br2 85.48(9) 2_757 2_757 ?
Br3 Mn1 Br2 95.77(10) . 2_757 ?
Br1 Mn1 Br3 87.08(10) 2_757 2_757 ?
Br3 Mn1 Br3 178.70(16) . 2_757 ?
Br2 Mn1 Br3 83.89(10) 2_757 2_757 ?
Br1 Mn1 Br2 96.60(12) 2_757 . ?
Br3 Mn1 Br2 83.98(10) . . ?
Br2 Mn1 Br2 177.91(15) 2_757 . ?
Br3 Mn1 Br2 96.31(9) 2_757 . ?
Br1 Mn1 Br1 179.20(15) 2_757 . ?
Br3 Mn1 Br1 86.54(10) . . ?
Br2 Mn1 Br1 94.06(12) 2_757 . ?
Br3 Mn1 Br1 92.23(10) 2_757 . ?
Br2 Mn1 Br1 83.86(9) . . ?
Mn1 Br1 Mn1 77.25(3) 2_747 . ?
Mn1 Br2 Mn1 76.92(3) 2_747 . ?
Mn1 Br3 Mn1 77.57(2) . 2_747 ?
C1 N1 C4 107.4(7) . . ?
N1 C1 C2 105.6(7) . . ?
F1 C2 C1 93.1(10) . . ?
F1 C2 C3 104.7(14) . . ?
C1 C2 C3 106.5(7) . . ?
C4 C3 C2 107.2(7) . . ?
C3 C4 N1 102.0(7) . . ?
loop_
_geom_bond_atom_site_label_1
_geom_bond_atom_site_label_2
_geom_bond_distance
_geom_bond_site_symmetry_2
_geom_bond_publ_flag
Mn1 Br1 2.672(4) 2_757 ?
Mn1 Br3 2.676(3) . ?
Mn1 Br2 2.697(3) 2_757 ?
Mn1 Br3 2.707(3) 2_757 ?
Mn1 Br2 2.724(3) . ?
Mn1 Br1 2.729(4) . ?
Br1 Mn1 2.672(4) 2_747 ?
Br2 Mn1 2.697(3) 2_747 ?
Br3 Mn1 2.707(3) 2_747 ?
N1 C1 1.495(9) . ?
N1 C4 1.500(9) . ?
C1 C2 1.500(9) . ?
C2 F1 1.336(10) . ?
C2 C3 1.504(10) . ?
C3 C4 1.499(9) . ?
loop_
_geom_torsion_atom_site_label_1
_geom_torsion_atom_site_label_2
_geom_torsion_atom_site_label_3
_geom_torsion_atom_site_label_4
_geom_torsion
_geom_torsion_site_symmetry_1
_geom_torsion_site_symmetry_2
_geom_torsion_site_symmetry_3
_geom_torsion_site_symmetry_4
_geom_torsion_publ_flag
C4 N1 C1 C2 -23.2(13) . . . . ?
N1 C1 C2 F1 109.7(12) . . . . ?
N1 C1 C2 C3 3.3(15) . . . . ?
F1 C2 C3 C4 -80.2(14) . . . . ?
C1 C2 C3 C4 17.6(16) . . . . ?
C2 C3 C4 N1 -31.0(16) . . . . ?
C1 N1 C4 C3 33.4(14) . . . . ?
