#------------------------------------------------------------------------------
#$Date: 2020-05-08 15:44:15 +0300 (Fri, 08 May 2020) $
#$Revision: 251916 $
#$URL: file:///home/coder/svn-repositories/cod/cif/4/13/49/4134929.cif $
#------------------------------------------------------------------------------
#
# This file is available in the Crystallography Open Database (COD),
# http://www.crystallography.net/
#
# All data on this site have been placed in the public domain by the
# contributors.
#
data_4134929
loop_
_publ_author_name
'Santos Hurtado, Carina'
'Bastien, Guillaume'
'Ma\<s\'at, Milan'
'Sto\<cek, Jakub Radek'
'Dracinsky, Martin'
'Ron\<cevi\'c, Igor'
'C\'isa\<rov\'a, Ivana'
'Rogers, Charles T.'
'Kaleta, Ji\<r\'i'
_publ_section_title
;
 Regular 2-D Arrays of Surface-Mounted Molecular Switches: Switching
 Monitored by UV-vis and NMR Spectroscopy.
;
_journal_name_full               'Journal of the American Chemical Society'
_journal_paper_doi               10.1021/jacs.0c01753
_journal_year                    2020
_chemical_compound_source        'synthesized Dr. Carina Santos Hurtado'
_chemical_formula_moiety         'C12 H7 Cl2 I N2'
_chemical_formula_sum            'C12 H7 Cl2 I N2'
_chemical_formula_weight         377.00
_space_group_crystal_system      triclinic
_space_group_IT_number           2
_space_group_name_Hall           '-P 1'
_space_group_name_H-M_alt        'P -1'
_atom_sites_solution_hydrogens   geom
_atom_sites_solution_primary     direct
_audit_creation_method           SHELXL-2018/3
_cell_angle_alpha                95.9810(10)
_cell_angle_beta                 91.2570(10)
_cell_angle_gamma                103.049(2)
_cell_formula_units_Z            2
_cell_length_a                   7.0496(4)
_cell_length_b                   7.3004(4)
_cell_length_c                   12.5978(6)
_cell_measurement_reflns_used    9946
_cell_measurement_temperature    150(2)
_cell_measurement_theta_max      27.5379
_cell_measurement_theta_min      2.8823
_cell_volume                     627.47(6)
_computing_cell_refinement       'SAINT V8.37A (Bruker AXS Inc., 2015)'
_computing_data_collection       'Bruker Instrument Service vV6.2.4'
_computing_data_reduction        'SAINT V8.37A (Bruker AXS Inc., 2015)'
_computing_structure_refinement  'SHELXL-2018/3 (Sheldrick, 2018)'
_computing_structure_solution    'XT, VERSION 2014/5'
_diffrn_ambient_temperature      150(2)
_diffrn_measured_fraction_theta_full 0.989
_diffrn_measured_fraction_theta_max 0.991
_diffrn_measurement_device_type  'Bruker D8 VENTURE Kappa Duo PHOTON 100 CMOS'
_diffrn_measurement_method       '\f and \w scans'
_diffrn_radiation_monochromator  'Quazar Mo multilayer optic'
_diffrn_radiation_type           MoK\a
_diffrn_radiation_wavelength     0.71073
_diffrn_reflns_av_R_equivalents  0.0278
_diffrn_reflns_av_unetI/netI     0.0176
_diffrn_reflns_Laue_measured_fraction_full 0.989
_diffrn_reflns_Laue_measured_fraction_max 0.991
_diffrn_reflns_limit_h_max       9
_diffrn_reflns_limit_h_min       -9
_diffrn_reflns_limit_k_max       9
_diffrn_reflns_limit_k_min       -9
_diffrn_reflns_limit_l_max       16
_diffrn_reflns_limit_l_min       -15
_diffrn_reflns_number            19287
_diffrn_reflns_point_group_measured_fraction_full 0.989
_diffrn_reflns_point_group_measured_fraction_max 0.991
_diffrn_reflns_theta_full        25.242
_diffrn_reflns_theta_max         27.500
_diffrn_reflns_theta_min         2.882
_diffrn_source                   'I\mS  micro-focus sealed tube'
_exptl_absorpt_coefficient_mu    2.954
_exptl_absorpt_correction_T_max  0.60
_exptl_absorpt_correction_T_min  0.48
_exptl_absorpt_correction_type   'Numerical Mu From Formula'
_exptl_absorpt_process_details
;
SADABS-2016/2 - Bruker AXS area detector scaling and absorption correction
;
_exptl_crystal_colour            red
_exptl_crystal_density_diffrn    1.995
_exptl_crystal_description       prism
_exptl_crystal_F_000             360
_exptl_crystal_size_max          0.343
_exptl_crystal_size_mid          0.206
_exptl_crystal_size_min          0.189
_refine_diff_density_max         0.822
_refine_diff_density_min         -0.788
_refine_diff_density_rms         0.065
_refine_ls_extinction_coef       0.0274(15)
_refine_ls_extinction_expression Fc^*^=kFc[1+0.001xFc^2^\l^3^/sin(2\q)]^-1/4^
_refine_ls_extinction_method     'SHELXL-2018/3 (Sheldrick 2018)'
_refine_ls_goodness_of_fit_ref   1.149
_refine_ls_hydrogen_treatment    constr
_refine_ls_matrix_type           full
_refine_ls_number_parameters     155
_refine_ls_number_reflns         2861
_refine_ls_number_restraints     0
_refine_ls_restrained_S_all      1.149
_refine_ls_R_factor_all          0.0174
_refine_ls_R_factor_gt           0.0170
_refine_ls_shift/su_max          0.003
_refine_ls_shift/su_mean         0.000
_refine_ls_structure_factor_coef Fsqd
_refine_ls_weighting_details
'w=1/[\s^2^(Fo^2^)+0.6239P] where P=(Fo^2^+2Fc^2^)/3'
_refine_ls_weighting_scheme      calc
_refine_ls_wR_factor_gt          0.0384
_refine_ls_wR_factor_ref         0.0386
_reflns_Friedel_coverage         0.000
_reflns_number_gt                2817
_reflns_number_total             2861
_reflns_threshold_expression     'I > 2\s(I)'
_cod_data_source_file            ja0c01753_si_001.cif
_cod_data_source_block           04_mo_jk_carina_kaleta
_cod_database_code               4134929
_shelx_shelxl_version_number     2018/3
_shelx_space_group_comment
;
The symmetry employed for this shelxl refinement is uniquely defined
by the following loop, which should always be used as a source of
symmetry information in preference to the above space-group names.
They are only intended as comments.
;
_shelx_estimated_absorpt_t_min   0.431
_shelx_estimated_absorpt_t_max   0.605
_shelx_res_file
;

TITL mo_jk_carina_kaleta_0m_a.res in P-1
    mo_jk_carina_kaleta.res
    created by SHELXL-2018/3 at 14:14:20 on 07-Sep-2019
REM Old TITL mo_jk_carina_kaleta_0m in P-1
REM SHELXT solution in P-1
REM R1 0.089,  Rweak 0.011,  Alpha 0.031,  Orientation as input
REM Formula found by SHELXT:  C12 Cl2 I N2
CELL  0.71073   7.0496   7.3004  12.5978   95.981   91.257  103.049
ZERR    2.000   0.0004   0.0004   0.0006    0.001    0.001    0.002
LATT  1
SFAC C H CL I N
UNIT 24 14 4 2 4
TEMP -123.120
SIZE 0.189 0.206 0.343
L.S. 10
BOND $H
LIST 4
ACTA
OMIT -2 55
FMAP 2
PLAN 20
WGHT    0.000000    0.623900
EXTI    0.027367
FVAR       0.92053
I1    4    0.760884    0.055310    0.914482    11.00000    0.03034    0.02783 =
         0.01996    0.01179    0.00492    0.00809
CL1   3    0.638687    0.365212    0.244490    11.00000    0.02749    0.01191 =
         0.02408   -0.00166   -0.00286    0.00412
CL2   3    0.672032    0.655385    0.076018    11.00000    0.03236    0.02296 =
         0.01411   -0.00086   -0.00244    0.00645
N1    5    0.739967    0.533223    0.466570    11.00000    0.01899    0.01702 =
         0.01830    0.00422   -0.00015    0.00490
N2    5    0.790334    0.604738    0.560579    11.00000    0.02147    0.01839 =
         0.01777    0.00383   -0.00051    0.00378
C1    1    0.749221    0.671558    0.393298    11.00000    0.01346    0.01484 =
         0.01702    0.00265   -0.00057    0.00371
C2    1    0.707174    0.604538    0.285126    11.00000    0.01280    0.01236 =
         0.01967   -0.00009   -0.00048    0.00404
C3    1    0.718945    0.733859    0.210039    11.00000    0.01629    0.01798 =
         0.01391   -0.00058   -0.00052    0.00514
C4    1    0.768826    0.927202    0.241263    11.00000    0.01901    0.01548 =
         0.01906    0.00523    0.00072    0.00508
AFIX  43
H4    2    0.776576    1.014061    0.189495    11.00000   -1.20000
AFIX   0
C5    1    0.807415    0.992852    0.349044    11.00000    0.02083    0.01268 =
         0.02072   -0.00047   -0.00120    0.00361
AFIX  43
H5    2    0.840704    1.125067    0.371010    11.00000   -1.20000
AFIX   0
C6    1    0.797484    0.866307    0.424330    11.00000    0.01856    0.01600 =
         0.01635    0.00014   -0.00225    0.00309
AFIX  43
H6    2    0.823725    0.912303    0.497764    11.00000   -1.20000
AFIX   0
C7    1    0.782933    0.470683    0.635680    11.00000    0.01480    0.01873 =
         0.01660    0.00401    0.00206    0.00529
C8    1    0.838202    0.547831    0.740519    11.00000    0.02113    0.01743 =
         0.01978    0.00134    0.00044    0.00423
AFIX  43
H8    2    0.878397    0.681175    0.757287    11.00000   -1.20000
AFIX   0
C9    1    0.834723    0.430221    0.820742    11.00000    0.02123    0.02547 =
         0.01535    0.00319    0.00153    0.00661
AFIX  43
H9    2    0.872473    0.482205    0.892413    11.00000   -1.20000
AFIX   0
C10   1    0.775449    0.236141    0.794760    11.00000    0.01643    0.02358 =
         0.01697    0.00814    0.00423    0.00743
C11   1    0.720624    0.156682    0.689795    11.00000    0.02176    0.01786 =
         0.02052    0.00386    0.00420    0.00519
AFIX  43
H11   2    0.681418    0.023249    0.673174    11.00000   -1.20000
AFIX   0
C12   1    0.724059    0.274632    0.610195    11.00000    0.02089    0.01921 =
         0.01613    0.00157    0.00227    0.00502
AFIX  43
H12   2    0.686530    0.222452    0.538531    11.00000   -1.20000
AFIX   0
HKLF 4




REM  mo_jk_carina_kaleta_0m_a.res in P-1
REM wR2 = 0.0386, GooF = S = 1.149, Restrained GooF = 1.149 for all data
REM R1 = 0.0170 for 2817 Fo > 4sig(Fo) and 0.0174 for all 2861 data
REM 155 parameters refined using 0 restraints

END

WGHT      0.0000      0.6239

REM Highest difference peak  0.822,  deepest hole -0.788,  1-sigma level  0.065
Q1    1   0.8060  0.1425  0.9435  11.00000  0.05    0.82
Q2    1   0.8240  0.4945  0.6860  11.00000  0.05    0.34
Q3    1   0.7014  0.6407  0.3417  11.00000  0.05    0.33
Q4    1   0.8228  0.4871  0.7801  11.00000  0.05    0.32
Q5    1   0.6915  0.8231  0.2222  11.00000  0.05    0.32
Q6    1   0.7599  0.9498  0.2976  11.00000  0.05    0.31
Q7    1   0.6928  0.6740  0.2522  11.00000  0.05    0.30
Q8    1   0.7480  0.6116  0.4318  11.00000  0.05    0.29
Q9    1   0.8143  0.9205  0.3802  11.00000  0.05    0.27
Q10   1   0.7701  0.3781  0.6206  11.00000  0.05    0.27
Q11   1   0.7608  0.7670  0.4081  11.00000  0.05    0.27
Q12   1   0.7440  0.2047  0.7397  11.00000  0.05    0.27
Q13   1   0.7937  0.5315  0.5942  11.00000  0.05    0.26
Q14   1   0.7183  0.6993  0.1484  11.00000  0.05    0.26
Q15   1   0.7815  0.1752  0.8419  11.00000  0.05    0.24
Q16   1   0.6032 -0.0282  0.8640  11.00000  0.05    0.23
Q17   1   0.8362  0.3444  0.7971  11.00000  0.05    0.23
Q18   1   0.6227  0.1261  0.9648  11.00000  0.05    0.22
Q19   1   0.6581 -0.1072  0.8798  11.00000  0.05    0.22
Q20   1   0.7435  0.0499  0.8811  11.00000  0.05    0.21
;
_shelx_res_checksum              59455
_shelx_hkl_file
;
  -1   0   0   55.39    2.40
  -1   0   0   58.19    2.10
  -1   0   0   55.19    3.70
  -1   0   0   57.99    2.40
   1   0   0   59.19    2.10
   1   0   0   56.59    2.30
   1   0   0   58.29    2.50
   1   0   0   55.09    3.60
  -3   0   0    1.40    1.60
  -3   0   0    2.60    1.40
  -3   0   0    2.20    2.70
  -3   0   0    5.20    1.20
   3   0   0    3.70    1.00
   3   0   0    2.30    1.60
   3   0   0    9.60    1.40
   3   0   0    4.20    1.40
   3   0   0   15.60    4.30
  -4   0   0 3895.71  120.09
  -4   0   0 4015.90  128.69
  -4   0   0 3857.41  120.39
  -4   0   0 3865.01  118.89
   4   0   0 4003.60  118.99
   4   0   0 3813.52  119.79
   4   0   0 3832.92  119.19
   4   0   0 4041.60  128.79
   4   0   0 3848.11  120.39
  -5   0   0  407.56   15.30
  -5   0   0  389.56   15.80
  -5   0   0  371.16   13.70
  -5   0   0  363.56   22.60
   5   0   0  365.76   14.50
   5   0   0  382.56   14.10
   5   0   0  393.66   13.80
   5   0   0  376.66   23.10
   5   0   0  396.46   15.80
  -6   0   0  588.04   32.80
  -6   0   0  598.34   20.70
   6   0   0  582.04   33.30
   6   0   0  622.54   20.90
  -7   0   0  457.85   20.50
  -7   0   0  490.95   19.70
  -7   0   0  439.26   16.90
  -7   0   0  422.16   30.60
   7   0   0  459.15   18.90
   7   0   0  445.76   19.70
   7   0   0  441.86   17.20
   7   0   0  489.25   35.30
   7   0   0  453.95   17.80
  -8   0   0  338.07   17.70
  -8   0   0  304.87   13.80
  -8   0   0  325.07   34.20
  -8   0   0  298.57   17.30
   8   0   0  351.96   36.90
   8   0   0  323.77   15.00
   8   0   0  326.37   18.00
   8   0   0  328.47   14.40
   8   0   0  337.37   16.30
   9  -1   0   37.30   22.70
   9  -1   0    3.60    5.80
   9  -1   0    0.90    5.80
  -9   1   0    4.40    5.20
  -9   1   0   -1.30    6.80
  -9   1   0   -0.20    8.00
   8  -1   0  331.37   16.30
   8  -1   0  315.37   31.50
   8  -1   0  327.17   17.70
   8  -1   0  322.17   15.00
  -8   1   0  315.17   13.90
  -8   1   0  313.67   17.40
  -8   1   0  351.06   17.90
   7  -1   0   23.60    4.60
   7  -1   0   21.00    4.70
   7  -1   0   19.50   11.30
   7  -1   0   22.90    5.00
  -7   1   0   35.40   13.20
  -7   1   0   26.40    5.40
  -7   1   0   40.60    6.50
  -7   1   0   26.50    3.80
   6  -1   0 2428.36   81.89
   6  -1   0 2576.34   82.79
   6  -1   0 2557.44   79.89
   6  -1   0 2721.53   95.19
   6  -1   0 2525.55   81.39
  -6   1   0 2570.04   93.89
  -6   1   0 2693.23   82.29
  -6   1   0 2633.34   82.49
  -6   1   0 2488.65   79.69
   5  -1   0   56.19    5.50
   5  -1   0   53.29    3.90
   5  -1   0   60.09    4.70
   5  -1   0   54.79   11.60
   5  -1   0   55.39    4.20
  -5   1   0   59.99    5.00
  -5   1   0   59.19    5.30
  -5   1   0   57.59    3.80
  -5   1   0   49.20   10.90
   4  -1   0 4630.94  142.09
   4  -1   0 4824.32  151.18
  -4   1   0 4622.74  150.58
  -4   1   0 4596.04  143.09
   3  -1   0  571.84   18.40
   3  -1   0  570.74   24.20
   3  -1   0  557.64   19.10
   3  -1   0  573.44   18.60
   3  -1   0  568.34   19.40
  -3   1   0  563.84   18.60
  -3   1   0  580.04   19.50
  -3   1   0  596.64   19.30
  -3   1   0  564.14   24.00
  -3   1   0  573.74   18.30
   2  -1   0 1884.41   62.09
   2  -1   0 1871.51   58.29
   2  -1   0 1880.21   58.39
  -2   1   0 1896.81   58.49
  -2   1   0 1917.01   58.39
  -2   1   0 1942.41   57.99
   1  -1   0   56.49    4.20
   1  -1   0   57.29    2.50
   1  -1   0   59.89    2.60
   1  -1   0   57.09    2.30
  -1   1   0   56.99    2.60
  -1   1   0   56.49    2.40
  -1   1   0   58.69    2.60
  -1   1   0   59.19    2.30
  -1   1   0   59.89    4.10
   0  -1   0  427.36   13.40
   0  -1   0  421.26   15.40
   0  -1   0  413.06   13.20
   0   1   0  416.56   13.40
   0   1   0  411.16   13.20
   0   1   0  430.86   15.40
  -1  -1   0  913.41   28.50
  -1  -1   0  953.50   32.40
  -1  -1   0  914.01   29.10
  -1  -1   0  904.11   28.70
   1   1   0  900.21   28.70
   1   1   0  923.11   29.10
   1   1   0  981.20   32.60
   1   1   0  930.21   28.60
  -2  -1   0 2031.60   65.59
  -2  -1   0 1967.40   59.69
  -2  -1   0 1939.81   60.59
   2   1   0 1856.01   59.69
   2   1   0 1985.80   60.59
   2   1   0 1965.30   65.59
   2   1   0 1931.01   59.99
  -3  -1   0 1170.68   37.60
  -3  -1   0 1132.19   38.00
  -3  -1   0 1185.28   36.90
  -3  -1   0 1190.98   44.50
   3   1   0 1189.28   38.10
   3   1   0 1172.68   36.90
   3   1   0 1231.88   45.10
   3   1   0 1168.18   37.50
  -4  -1   0 2065.29   65.69
  -4  -1   0 2026.40   63.99
  -4  -1   0 2073.29   65.09
  -4  -1   0 2100.69   74.49
   4   1   0 2021.80   65.49
   4   1   0 2187.08   75.29
   4   1   0 1974.90   64.69
   4   1   0 2105.39   64.09
  -5  -1   0  667.13   34.30
  -5  -1   0  713.73   26.00
  -5  -1   0  757.62   25.60
  -5  -1   0  678.03   23.60
   5   1   0  704.53   35.30
   5   1   0  740.13   26.00
   5   1   0  716.33   24.90
   5   1   0  699.83   23.90
   5   1   0  713.73   24.10
  -6  -1   0  602.34   35.40
  -6  -1   0  649.64   23.70
  -6  -1   0  583.24   23.60
  -6  -1   0  598.34   21.30
   6   1   0  592.24   22.50
   6   1   0  619.14   21.90
   6   1   0  612.24   35.20
   6   1   0  608.54   21.30
  -7  -1   0  496.45   19.10
  -7  -1   0  517.75   34.70
  -7  -1   0  513.05   21.40
  -7  -1   0  531.85   23.20
   7   1   0  516.85   19.50
   7   1   0  536.05   22.70
   7   1   0  506.05   20.90
   7   1   0  532.85   39.20
   7   1   0  489.15   19.60
  -8  -1   0   88.59    8.50
  -8  -1   0   91.29   11.70
  -8  -1   0   99.19   20.60
  -8  -1   0  114.09   12.50
   8   1   0   90.09   10.30
   8   1   0   88.19    8.50
   8   1   0  102.19   12.40
   8   1   0  100.49    9.00
   8   1   0   70.69   20.50
   9  -2   0    6.30    6.30
   9  -2   0  -13.20   23.60
   9  -2   0   13.50    6.20
   9  -2   0    8.20    6.90
   9  -2   0   19.00   18.40
  -9   2   0   10.90    4.80
  -9   2   0   10.20    8.00
  -9   2   0   11.40    7.50
   8  -2   0  225.78   12.70
   8  -2   0  237.28   15.10
   8  -2   0  231.28   30.60
   8  -2   0  244.78   28.60
   8  -2   0  246.98   14.10
  -8   2   0  254.47   15.10
  -8   2   0  203.88   12.70
  -8   2   0  229.48   15.70
   7  -2   0    4.60    3.20
   7  -2   0    7.20    4.00
   7  -2   0    2.20    9.20
   7  -2   0    5.00    4.50
   7  -2   0   11.80   11.70
   7  -2   0    6.60    3.10
  -7   2   0    6.00    5.00
  -7   2   0    5.00    2.80
  -7   2   0    6.40    3.90
   6  -2   0  235.28   11.50
   6  -2   0  244.68   11.60
   6  -2   0  229.98   20.50
   6  -2   0  223.48   11.90
   6  -2   0  227.38   19.60
   6  -2   0  234.28   10.70
  -6   2   0  214.78    9.50
  -6   2   0  215.08   12.10
  -6   2   0  247.98   12.30
   5  -2   0  107.79    6.90
   5  -2   0  120.09   14.30
   5  -2   0  124.19    6.40
   5  -2   0  104.89   12.60
   5  -2   0  126.19    7.20
   5  -2   0  120.79    6.30
  -5   2   0  117.59    5.70
  -5   2   0  114.09    7.20
  -5   2   0  113.79    7.50
   4  -2   0  976.30   39.10
   4  -2   0  960.00   39.20
   4  -2   0  961.60   30.70
   4  -2   0  930.21   31.50
   4  -2   0  962.30   31.80
   4  -2   0  974.20   31.00
  -4   2   0  952.40   30.30
  -4   2   0  956.80   30.80
  -4   2   0  962.20   31.70
  -4   2   0  937.21   31.90
   3  -2   0  582.34   18.50
   3  -2   0  544.35   24.40
   3  -2   0  546.25   18.90
   3  -2   0  551.14   19.00
   3  -2   0  549.05   24.20
   3  -2   0  559.14   18.20
  -3   2   0  563.44   19.10
  -3   2   0  557.64   18.30
  -3   2   0  566.94   19.10
  -3   2   0  546.55   18.00
   2  -2   0 3343.17  107.39
  -2   2   0 3370.26  107.29
   1  -2   0 2077.99   67.89
   1  -2   0 1999.00   63.69
  -1   2   0 2038.80   63.59
  -1   2   0 2181.48   68.09
   0  -2   0 3670.03  120.69
   0   2   0 3988.80  120.89
  -1  -2   0 6817.02  215.78
   1   2   0 7057.49  215.88
  -2  -2   0 2117.69   66.69
  -2  -2   0 2207.28   74.39
  -2  -2   0 2103.99   66.19
  -2  -2   0 2149.19   67.39
   2   2   0 2316.97   74.69
   2   2   0 2163.58   66.29
   2   2   0 2060.49   66.49
   2   2   0 2151.38   67.29
  -3  -2   0 6840.22  218.28
   3   2   0 6919.21  218.48
  -4  -2   0 1519.05   48.90
  -4  -2   0 1501.25   59.09
  -4  -2   0 1524.25   49.70
  -4  -2   0 1481.15   47.60
   4   2   0 1594.54   60.69
   4   2   0 1430.56   48.20
   4   2   0 1509.25   47.80
   4   2   0 1557.44   49.60
  -5  -2   0 2562.74   81.99
  -5  -2   0 2519.35   79.39
  -5  -2   0 2539.95   93.89
  -5  -2   0 2612.24   81.19
   5   2   0 2708.13   96.09
   5   2   0 2502.35   81.59
   5   2   0 2414.96   80.19
   5   2   0 2604.34   79.69
  -6  -2   0  726.13   26.30
  -6  -2   0  646.24   25.00
  -6  -2   0  674.23   27.00
  -6  -2   0  662.83   38.40
   6   2   0  707.73   26.00
   6   2   0  655.93   24.70
   6   2   0  676.43   26.40
   6   2   0  700.73   40.10
   6   2   0  690.93   24.40
  -7  -2   0  342.07   33.30
  -7  -2   0  338.37   17.20
  -7  -2   0  322.77   17.40
  -7  -2   0  304.37   13.80
   7   2   0  324.17   32.30
   7   2   0  339.17   15.00
   7   2   0  323.07   15.90
   7   2   0  347.57   17.90
   7   2   0  341.27   14.80
  -8  -2   0   73.49    8.90
  -8  -2   0   67.29   11.90
  -8  -2   0   64.19   21.00
  -8  -2   0   50.59    9.00
   8   2   0   68.39    9.40
   8   2   0   66.39   12.40
   8   2   0   96.59   28.20
   8   2   0   60.59    9.60
   8   2   0   73.59    8.50
   9  -3   0   26.80   24.90
   9  -3   0   47.50    8.50
   9  -3   0   37.80    8.60
   9  -3   0   49.90   24.90
   9  -3   0   34.80    7.50
  -9   3   0   48.50    6.70
  -9   3   0   49.60    8.70
  -9   3   0   43.00    7.90
   8  -3   0  293.07   29.90
   8  -3   0  298.27   16.80
   8  -3   0  318.37   31.10
   8  -3   0  318.77   15.00
   8  -3   0  310.17   16.20
   8  -3   0  329.17   16.00
  -8   3   0  308.57   16.80
  -8   3   0  274.97   14.40
  -8   3   0  315.97   17.00
   7  -3   0   51.19   13.70
   7  -3   0   66.99    8.20
   7  -3   0   58.59    7.40
   7  -3   0   43.80    7.50
   7  -3   0   56.39    5.90
   7  -3   0   53.89   13.90
  -7   3   0   56.39    8.20
  -7   3   0   55.49    8.70
  -7   3   0   55.79    5.50
   6  -3   0  316.37   13.30
   6  -3   0  340.47   25.50
   6  -3   0  292.47   14.00
   6  -3   0  307.67   23.10
  -6   3   0  325.27   14.80
  -6   3   0  307.07   11.80
  -6   3   0  272.57   16.30
   5  -3   0  455.25   25.70
   5  -3   0  436.86   17.30
   5  -3   0  469.45   16.30
   5  -3   0  474.35   17.60
   5  -3   0  435.66   25.40
  -5   3   0  459.65   16.50
  -5   3   0  439.56   17.60
  -5   3   0  449.26   17.50
  -5   3   0  445.96   15.70
   4  -3   0  273.47   17.60
   4  -3   0  274.57   10.40
   4  -3   0  276.97   17.80
   4  -3   0  276.07   11.60
   4  -3   0  274.87   11.40
  -4   3   0  297.17   10.60
  -4   3   0  289.07   11.60
  -4   3   0  270.57   10.30
  -4   3   0  275.37   11.80
   3  -3   0 2572.44   83.49
   3  -3   0 2734.13   91.19
   3  -3   0 2746.83   82.59
   3  -3   0 2653.23   83.49
  -3   3   0 2697.93   83.79
  -3   3   0 2812.62   91.39
  -3   3   0 2711.13   82.69
  -3   3   0 2659.63   82.89
  -3   3   0 2682.93   83.59
   2  -3   0 1499.45   53.79
   2  -3   0 1480.25   47.60
   2  -3   0 1485.25   46.60
   2  -3   0 1496.75   47.40
  -2   3   0 1546.05   53.89
  -2   3   0 1516.65   47.60
  -2   3   0 1544.75   47.80
  -2   3   0 1501.15   46.70
   1  -3   0 3197.98  107.79
  -1   3   0 3402.16  102.09
  -1   3   0 3356.26  107.89
   0  -3   0 3928.01  127.79
   0   3   0 3846.32  120.89
   0   3   0 4074.49  127.49
  -1  -3   0  274.07   16.70
  -1  -3   0  298.47   10.80
  -1  -3   0  279.37   11.30
   1   3   0  293.37   11.60
   1   3   0  291.97   10.40
   1   3   0  289.37   17.10
   1   3   0  296.37   10.80
  -2  -3   0 1468.35   47.00
  -2  -3   0 1436.06   47.80
  -2  -3   0 1502.75   56.69
   2   3   0 1539.45   46.70
   2   3   0 1469.85   47.80
   2   3   0 1576.24   56.89
   2   3   0 1405.56   46.80
  -3  -3   0    0.60    5.00
  -3  -3   0    5.70    1.80
  -3  -3   0   39.00    4.00
  -3  -3   0    9.20    2.60
   3   3   0    5.40    6.90
   3   3   0   10.70    3.00
   3   3   0    7.10    2.20
   3   3   0    8.70    2.30
  -4  -3   0    5.30    2.10
  -4  -3   0    7.00    3.30
  -4  -3   0    5.20    3.00
  -4  -3   0    5.40    7.00
   4   3   0    6.20    3.00
   4   3   0   10.40    2.50
   4   3   0    5.60    2.40
   4   3   0   15.10    8.60
  -5  -3   0  324.87   26.70
  -5  -3   0  336.27   14.90
  -5  -3   0  299.37   12.80
  -5  -3   0  329.47   16.10
   5   3   0  356.06   27.00
   5   3   0  310.07   13.20
   5   3   0  319.57   14.00
  -6  -3   0   52.19   15.00
  -6  -3   0   46.70    7.80
  -6  -3   0   46.10    6.30
  -6  -3   0   51.99    8.20
   6   3   0   51.49    6.10
   6   3   0   43.50    7.70
   6   3   0   59.29   16.50
   6   3   0   52.49    6.40
  -7  -3   0  643.64   29.00
  -7  -3   0  675.73   44.50
  -7  -3   0  621.14   24.00
  -7  -3   0  702.03   27.90
   7   3   0  648.34   27.70
   7   3   0  670.93   25.10
   7   3   0  672.43   25.20
   7   3   0  628.54   26.00
   7   3   0  649.24   50.59
   8  -4   0   96.39   10.90
   8  -4   0   92.89   11.20
   8  -4   0   83.99   18.80
   8  -4   0   91.89    8.20
  -8   4   0   84.49    7.70
  -8   4   0   98.59   12.00
  -8   4   0   91.99   11.50
   7  -4   0 1151.58   55.29
   7  -4   0 1107.09   38.50
   7  -4   0 1006.80   51.69
   7  -4   0 1029.10   37.70
   7  -4   0 1095.19   36.60
  -7   4   0 1041.50   35.50
  -7   4   0 1091.39   38.80
  -7   4   0 1087.29   39.30
   6  -4   0  972.40   46.50
   6  -4   0  965.30   46.40
   6  -4   0 1043.50   33.40
   6  -4   0  973.30   34.40
  -6   4   0  955.30   32.30
  -6   4   0  992.50   35.30
  -6   4   0  965.30   33.10
   5  -4   0 1122.49   35.90
   5  -4   0 1062.39   37.20
   5  -4   0 1127.39   37.40
   5  -4   0 1081.59   47.80
   5  -4   0 1119.79   48.30
  -5   4   0 1142.99   37.80
  -5   4   0 1065.19   35.50
  -5   4   0 1089.79   36.00
  -5   4   0 1104.69   37.90
   4  -4   0 1777.52   55.39
   4  -4   0 1773.52   66.69
   4  -4   0 1700.93   56.69
   4  -4   0 1756.82   56.59
  -4   4   0 1771.72   57.09
  -4   4   0 1805.42   66.69
  -4   4   0 1814.32   57.09
  -4   4   0 1749.92   55.99
  -4   4   0 1779.72   55.59
   3  -4   0  298.47   12.30
   3  -4   0  308.17   11.10
   3  -4   0  308.77   12.20
   3  -4   0  288.67   18.50
  -3   4   0  317.97   12.70
  -3   4   0  308.67   11.60
  -3   4   0  307.77   11.30
  -3   4   0  313.47   12.60
  -3   4   0  306.27   19.00
   2  -4   0  250.07    8.90
   2  -4   0  226.28   10.20
   2  -4   0  221.38   15.60
   2  -4   0  249.58    9.80
  -2   4   0  235.38   10.20
  -2   4   0  237.68   10.50
  -2   4   0  274.17   16.60
  -2   4   0  234.88    9.00
   1  -4   0  640.64   22.20
   1  -4   0  610.64   29.10
   1  -4   0  668.23   21.70
   1  -4   0  645.84   20.80
  -1   4   0  651.63   29.40
  -1   4   0  623.94   21.90
  -1   4   0  658.03   22.50
  -1   4   0  623.24   20.70
   0  -4   0  160.38   14.20
   0  -4   0  161.18    7.90
   0   4   0  152.38    7.30
   0   4   0  158.68    7.90
   0   4   0  149.59    6.30
   0   4   0  175.28   13.50
  -1  -4   0 2856.61   92.09
  -1  -4   0 2980.10   91.39
  -1  -4   0 3023.90  102.89
   1   4   0 2827.82   92.19
   1   4   0 2905.01   90.79
   1   4   0 3227.88  102.49
   1   4   0 2858.31   91.29
  -2  -4   0   13.90    8.20
  -2  -4   0   25.60    3.40
  -2  -4   0   12.40    3.00
   2   4   0   16.30    2.90
   2   4   0   13.90    3.50
   2   4   0   10.00    2.60
   2   4   0   16.90    6.70
  -3  -4   0 2717.23   86.89
  -3  -4   0 2749.43  100.69
  -3  -4   0 2729.23   88.09
   3   4   0 2779.02   88.09
   3   4   0 2891.51  100.99
   3   4   0 2779.82   86.19
  -4  -4   0   57.89   13.40
  -4  -4   0   67.19    8.00
  -4  -4   0   49.80    8.30
   4   4   0   80.69   16.10
   4   4   0   66.09    6.40
   4   4   0   66.19    6.90
  -5  -4   0  684.43   42.30
  -5  -4   0  696.53   26.70
  -5  -4   0  665.23   27.10
   5   4   0  676.33   41.60
   5   4   0  703.23   27.00
   5   4   0  706.63   24.80
   5   4   0  647.34   25.30
  -6  -4   0   22.10    6.50
  -6  -4   0   21.10    6.70
  -6  -4   0   10.50   17.50
   6   4   0   20.00   16.20
   6   4   0   27.20    4.90
   6   4   0   18.60    5.50
   6   4   0   27.80    6.40
  -7  -4   0   77.29   14.40
  -7  -4   0   94.89   12.50
  -7  -4   0  114.69   28.30
   7   4   0   73.69    9.00
   7   4   0  109.39    9.20
   7   4   0   99.69   15.20
   7   4   0   82.59   29.30
   7   4   0  111.89   11.50
   8  -5   0  122.39    9.40
   8  -5   0  105.99   12.10
   8  -5   0   97.89   25.60
   8  -5   0  103.99   11.90
   8  -5   0  126.89   24.90
  -8   5   0  103.19    8.60
  -8   5   0  121.09   13.00
  -8   5   0   87.69   13.20
   7  -5   0  133.99   21.90
   7  -5   0  133.49   10.80
   7  -5   0  126.79   26.90
   7  -5   0  152.58    8.80
   7  -5   0  127.99   10.20
  -7   5   0  120.99   12.20
  -7   5   0  137.89   11.60
  -7   5   0  138.79    9.10
   6  -5   0   -3.70    9.40
   6  -5   0    5.90    3.50
   6  -5   0    9.20    3.50
   6  -5   0   -2.60    9.00
   6  -5   0    1.70    4.30
  -6   5   0   13.00    5.00
  -6   5   0    3.70    4.00
  -6   5   0    5.70    3.00
  -6   5   0    6.60    2.50
   5  -5   0  842.12   36.00
   5  -5   0 1038.00   33.10
   5  -5   0 1017.70   36.80
   5  -5   0  981.20   47.00
  -5   5   0 1011.30   33.10
  -5   5   0 1024.20   33.90
  -5   5   0 1045.90   35.20
  -5   5   0  970.90   34.90
   4  -5   0   30.10    9.80
   4  -5   0   25.20    4.20
   4  -5   0   23.40    4.20
   4  -5   0   28.30    3.40
  -4   5   0   22.30    3.50
  -4   5   0   32.00    4.30
  -4   5   0   49.70    6.10
  -4   5   0   45.80    9.90
  -4   5   0   30.90    4.80
   3  -5   0 2875.11   87.49
   3  -5   0 2690.33   89.09
   3  -5   0 2866.11   88.69
   3  -5   0 2793.92  100.09
  -3   5   0 2888.11   89.59
  -3   5   0 2822.42   87.69
  -3   5   0 2990.30  100.59
  -3   5   0 2800.12   89.29
   2  -5   0    9.20    2.60
   2  -5   0    9.20    2.00
   2  -5   0   10.80    6.60
   2  -5   0    5.60    2.50
  -2   5   0    9.60    2.00
  -2   5   0   12.70    3.00
  -2   5   0    5.00    5.10
  -2   5   0    8.90    3.20
   1  -5   0 2691.53   86.89
   1  -5   0 2816.32   86.19
   1  -5   0 2787.92   98.29
  -1   5   0 3002.00   98.09
  -1   5   0 2808.22   87.39
  -1   5   0 2638.84   84.99
  -1   5   0 2666.83   86.59
   0  -5   0   13.70    2.90
   0  -5   0   12.00    3.30
   0  -5   0   19.20    8.10
   0   5   0   19.10    7.20
   0   5   0   14.60    2.10
   0   5   0   17.90    3.10
   0   5   0   14.10    2.40
   0   5   0   17.20    3.90
  -1  -5   0 1786.52   56.29
  -1  -5   0 1782.12   70.39
  -1  -5   0 1708.53   57.09
   1   5   0 1789.52   55.69
   1   5   0 1754.52   56.29
   1   5   0 1780.22   57.59
   1   5   0 1840.92   68.59
   1   5   0 1639.04   54.69
  -2  -5   0  278.87   13.50
  -2  -5   0  306.67   12.90
  -2  -5   0  302.67   25.00
   2   5   0  298.87   14.30
   2   5   0  316.47   23.30
   2   5   0  285.67   12.70
   2   5   0  292.77   12.10
  -3  -5   0 1420.16   45.30
  -3  -5   0 1283.77   46.40
  -3  -5   0 1319.57   60.19
   3   5   0 1390.56   44.30
   3   5   0 1321.27   44.70
   3   5   0 1373.06   59.29
  -4  -5   0  314.97   31.50
  -4  -5   0  365.76   16.00
  -4  -5   0  346.07   17.10
   4   5   0  346.07   17.00
   4   5   0  316.87   14.60
   4   5   0  326.07   14.20
   4   5   0  312.67   27.60
  -5  -5   0  613.64   42.00
  -5  -5   0  646.84   25.80
  -5  -5   0  574.74   26.10
   5   5   0  668.03   45.80
   5   5   0  626.54   23.80
   5   5   0  651.73   26.90
  -6  -5   0  165.88   14.10
  -6  -5   0  152.38   31.50
  -6  -5   0  181.98   16.50
   6   5   0  164.28   15.00
   6   5   0  153.48   34.30
   6   5   0  176.58   12.60
   8  -6   0    0.00    5.50
   8  -6   0  -15.80   21.30
   8  -6   0    0.20   19.10
   8  -6   0    2.90    5.60
   8  -6   0    1.50    6.60
  -8   6   0    2.60    7.70
  -8   6   0   10.50    6.30
  -8   6   0   -0.60    7.10
  -8   6   0   -7.60    5.00
   7  -6   0  430.86   19.90
   7  -6   0  418.96   35.10
   7  -6   0  464.35   36.80
   7  -6   0  453.75   18.10
   7  -6   0  391.06   19.40
  -7   6   0  415.56   17.90
  -7   6   0  432.56   21.70
  -7   6   0  414.26   16.90
  -7   6   0  422.46   20.30
   6  -6   0    4.60   13.10
   6  -6   0    8.30    3.30
   6  -6   0    8.20   13.80
   6  -6   0    3.00    5.40
   6  -6   0    7.10    4.00
  -6   6   0    6.70    4.90
  -6   6   0   10.40    3.90
  -6   6   0   13.90    4.00
  -6   6   0    6.30    5.30
   5  -6   0  679.33   26.20
   5  -6   0  727.23   26.20
   5  -6   0  656.53   38.70
  -5   6   0  681.93   26.90
  -5   6   0  662.53   25.20
  -5   6   0  725.73   25.00
  -5   6   0  713.73   39.50
  -5   6   0  732.23   27.00
   4  -6   0  231.68   11.40
   4  -6   0  215.98   21.40
   4  -6   0  219.58   11.60
   4  -6   0  241.88    9.80
  -4   6   0  222.58   21.50
  -4   6   0  225.18   10.80
  -4   6   0  219.18   10.10
  -4   6   0  231.48   12.60
   3  -6   0 1838.12   56.59
   3  -6   0 1810.82   54.99
   3  -6   0 1660.13   69.29
   3  -6   0 1670.13   57.09
  -3   6   0 1740.83   55.29
  -3   6   0 1673.63   59.29
  -3   6   0 1823.22   70.09
   2  -6   0  310.97   14.50
   2  -6   0  329.37   13.70
   2  -6   0  317.67   23.90
  -2   6   0  348.77   15.50
  -2   6   0  331.67   12.60
  -2   6   0  333.17   24.80
  -2   6   0  327.27   14.60
   1  -6   0 2354.86   71.39
   1  -6   0 2213.38   85.39
   1  -6   0 2169.58   72.19
  -1   6   0 2097.09   69.79
  -1   6   0 2141.89   71.59
  -1   6   0 2422.56   85.69
  -1   6   0 2354.26   72.99
   0  -6   0   80.49    7.30
   0  -6   0   53.79   13.30
   0  -6   0   70.19    6.10
   0   6   0   60.59    6.30
   0   6   0   59.29    5.10
   0   6   0   51.49    4.20
   0   6   0   60.09    7.70
   0   6   0   63.69   12.90
  -1  -6   0  627.54   37.50
   1   6   0  667.73   22.90
   1   6   0  660.03   24.50
   1   6   0  721.63   38.70
   1   6   0  653.23   25.80
   1   6   0  712.23   24.10
  -2  -6   0   97.79    9.20
  -2  -6   0   94.69   18.10
   2   6   0  102.99    9.70
   2   6   0   93.39   16.70
   2   6   0   98.99    7.00
   2   6   0   92.19    7.80
  -3  -6   0   29.50   13.30
  -3  -6   0   16.20    5.90
  -3  -6   0   25.00    5.20
   3   6   0   24.30    6.20
   3   6   0   18.80    5.00
   3   6   0   12.90   14.70
   3   6   0   18.20    4.10
  -4  -6   0  478.55   20.50
  -4  -6   0  452.75   37.00
  -4  -6   0  457.95   22.20
   4   6   0  475.65   37.10
   4   6   0  451.85   18.70
   4   6   0  420.86   18.90
   4   6   0  435.56   20.90
  -5  -6   0   18.20    8.90
  -5  -6   0   28.70    7.50
  -5  -6   0   58.59   24.70
   5   6   0   32.20    6.60
   5   6   0   32.00   19.60
   5   6   0   38.30    6.20
   5   6   0   37.50    8.60
   7  -7   0  815.52   31.30
   7  -7   0  766.22   31.80
   7  -7   0  801.02   28.60
   7  -7   0  792.12   54.19
   7  -7   0  796.22   55.99
  -7   7   0  786.52   33.00
  -7   7   0  781.32   29.90
  -7   7   0  819.52   32.20
  -7   7   0  743.73   28.70
   6  -7   0   55.39    7.20
   6  -7   0   53.59   17.10
   6  -7   0   64.29    9.10
   6  -7   0   56.39   10.30
  -6   7   0   57.49   10.80
  -6   7   0   54.09    7.40
  -6   7   0   47.50    6.30
  -6   7   0   50.99    8.20
   5  -7   0  775.92   26.50
   5  -7   0  739.23   45.50
   5  -7   0  763.82   28.20
   5  -7   0  751.32   29.60
  -5   7   0  748.33   29.80
  -5   7   0  743.23   27.00
  -5   7   0  769.92   44.30
  -5   7   0  794.02   30.30
  -5   7   0  739.03   27.90
   4  -7   0    6.30    4.10
   4  -7   0    6.20    4.70
   4  -7   0    2.00   12.70
  -4   7   0   18.40    5.00
  -4   7   0    4.80    4.30
  -4   7   0    3.50    3.10
  -4   7   0    8.90   13.00
   3  -7   0   72.79    8.60
   3  -7   0   80.09    7.30
   3  -7   0   70.19   15.00
  -3   7   0   63.99    8.40
  -3   7   0   71.69    8.80
  -3   7   0   80.59   16.70
   2  -7   0  246.38   12.90
   2  -7   0  259.47   12.30
   2  -7   0  260.17   24.50
  -2   7   0  241.28   13.30
  -2   7   0  277.97   14.40
  -2   7   0  266.67   25.80
  -2   7   0  239.08   10.70
   1  -7   0   25.60   13.40
   1  -7   0   23.60    5.30
  -1   7   0   25.20   10.80
  -1   7   0   21.60    5.00
  -1   7   0   20.90    3.50
  -1   7   0   23.30    5.00
  -1   7   0   18.70    3.60
   0  -7   0 1052.09   38.80
   0  -7   0 1143.19   37.60
   0  -7   0 1066.89   55.69
   0   7   0 1128.29   53.09
   0   7   0 1117.79   39.50
   0   7   0 1065.39   38.10
   0   7   0 1130.49   36.80
   0   7   0 1040.60   35.70
  -1  -7   0  531.35   20.40
  -1  -7   0  471.05   38.10
  -1  -7   0  473.25   21.60
   1   7   0  493.05   20.70
   1   7   0  504.05   21.90
   1   7   0  495.95   19.20
   1   7   0  521.85   35.10
  -2  -7   0  710.83   25.70
  -2  -7   0  660.33   27.60
  -2  -7   0  638.24   43.60
   2   7   0  678.83   27.90
   2   7   0  633.94   25.50
   2   7   0  693.93   41.90
   2   7   0  682.93   25.20
   2   7   0  634.74   23.30
  -3  -7   0  712.63   29.80
  -3  -7   0  709.43   49.99
  -3  -7   0  753.72   28.00
   3   7   0  669.83   24.70
   3   7   0  715.13   26.60
   3   7   0  701.53   49.00
   3   7   0  688.23   29.10
   3   7   0  693.43   27.60
  -4  -7   0  101.29   14.60
  -4  -7   0  124.89   12.60
  -4  -7   0  140.89   30.00
   4   7   0  121.49   11.50
   4   7   0  117.19   13.90
   4   7   0  112.59   24.90
   4   7   0  107.89   10.90
   6  -8   0  645.64   23.30
   6  -8   0  568.14   26.40
   6  -8   0  580.54   45.60
   6  -8   0  608.44   25.20
  -6   8   0  607.34   26.50
  -6   8   0  549.15   26.00
  -6   8   0  584.54   25.60
  -6   8   0  613.04   23.70
   5  -8   0  113.09   10.40
   5  -8   0  118.59    8.80
   5  -8   0  110.99   24.30
   5  -8   0  116.19   12.50
  -5   8   0   94.09   11.40
  -5   8   0   96.89   10.10
  -5   8   0  113.49   12.90
  -5   8   0  133.69   28.10
  -5   8   0  118.49    9.10
   4  -8   0  864.31   51.59
   4  -8   0 1017.00   32.70
   4  -8   0  974.00   34.60
   4  -8   0  943.81   36.10
  -4   8   0  941.91   36.00
  -4   8   0  946.21   52.19
  -4   8   0  987.90   36.90
  -4   8   0  926.81   33.10
   3  -8   0  590.24   40.80
   3  -8   0  574.34   25.30
   3  -8   0  629.44   24.00
  -3   8   0  586.64   22.20
  -3   8   0  646.04   26.40
  -3   8   0  631.74   42.80
  -3   8   0  598.14   25.70
   2  -8   0  377.06   18.90
   2  -8   0  389.86   17.10
   2  -8   0  371.06   32.70
  -2   8   0  391.86   34.50
  -2   8   0  349.37   18.30
  -2   8   0  372.76   15.40
  -2   8   0  362.96   16.00
  -2   8   0  386.36   19.20
   1  -8   0  359.86   33.50
   1  -8   0  425.16   18.00
   1  -8   0  387.86   18.80
  -1   8   0  406.76   20.40
  -1   8   0  399.56   15.70
  -1   8   0  409.16   18.70
  -1   8   0  400.36   33.40
  -1   8   0  408.26   16.70
   0  -8   0   96.39   11.50
   0  -8   0  108.99   21.00
   0  -8   0  100.69    9.30
   0   8   0   89.59    8.90
   0   8   0   85.59   11.50
   0   8   0  107.09    9.70
   0   8   0  104.89   20.30
   0   8   0   92.09    7.50
  -1  -8   0   18.40    5.70
  -1  -8   0   17.50    7.30
  -1  -8   0   31.80   17.50
   1   8   0   26.80    4.60
   1   8   0    9.90    7.10
   1   8   0   22.70    5.10
   1   8   0   14.70    5.20
   1   8   0   20.50   15.90
  -2  -8   0  115.19   28.10
  -2  -8   0  130.69   14.20
  -2  -8   0  156.18   12.20
   2   8   0  137.09   14.00
   2   8   0  111.89    8.80
   2   8   0  122.39   10.70
   2   8   0  144.89   10.20
   2   8   0  140.89   29.80
   4  -9   0  429.96   22.30
   4  -9   0  444.76   19.50
   4  -9   0  428.56   46.50
  -4   9   0  400.46   22.10
  -4   9   0  437.16   41.90
  -4   9   0  453.45   19.00
  -4   9   0  422.46   22.80
   3  -9   0   -3.50    6.00
   3  -9   0    1.00    5.60
   3  -9   0   -6.70   21.60
  -3   9   0    1.60    4.20
  -3   9   0    1.40   22.40
  -3   9   0    3.60    7.40
  -3   9   0    0.80    6.60
  -3   9   0    3.60    5.30
   2  -9   0  580.84   26.80
   2  -9   0  622.94   24.70
   2  -9   0  586.54   46.50
  -2   9   0  600.54   23.80
  -2   9   0  644.34   45.50
  -2   9   0  614.14   27.70
  -2   9   0  575.24   22.80
  -2   9   0  575.04   25.50
   1  -9   0   26.60    6.50
   1  -9   0   16.70   19.60
   1  -9   0   28.70    8.30
  -1   9   0   20.60    7.20
  -1   9   0   18.20    5.70
  -1   9   0   16.10   22.80
  -1   9   0   20.70    8.20
  -1   9   0   10.10    4.30
   0  -9   0  237.98   14.40
   0  -9   0  222.48   15.50
   0  -9   0   84.09   25.30
   0   9   0  255.67   19.80
   0   9   0  273.07   42.30
   0   9   0  223.68   12.20
   0   9   0  227.38   13.70
   0   9  -1   78.39   12.40
   0   9  -1   67.59    8.10
   0   9  -1   81.39   23.50
   0   9  -1   59.89    7.90
   0   9  -1   59.49   10.70
   0  -9   1   59.99    9.80
   0  -9   1   66.29   10.00
   0  -9   1   77.19   27.80
  -1   9  -1   -5.20   17.40
  -1   9  -1    6.60    6.20
  -1   9  -1    7.70    4.60
  -1   9  -1   17.30    6.90
  -1   9  -1   15.10    5.00
   1  -9   1    9.50    7.50
   1  -9   1    9.80    5.90
   1  -9   1   15.70   23.70
  -2   9  -1  232.48   15.80
  -2   9  -1  227.88   16.70
  -2   9  -1  224.78   13.10
  -2   9  -1  234.78   12.00
  -2   9  -1  288.87   39.30
   2  -9   1  198.88   39.00
   2  -9   1  204.78   14.90
  -3   9  -1    1.70    5.90
  -3   9  -1   -3.60   22.00
  -3   9  -1   12.30    7.30
  -3   9  -1   12.00    4.30
  -3   9  -1    6.80    4.30
   3  -9   1   -2.00    7.50
   3  -9   1   18.90   18.70
   3  -9   1    6.80    4.70
  -4   9  -1  602.54   23.30
  -4   9  -1  558.24   26.00
   4  -9   1  596.14   27.20
   4  -9   1  617.44   24.60
   3   8  -1   11.50    4.20
  -3  -8   1   12.10    6.60
  -3  -8   1    1.80    8.10
   2   8  -1  639.84   49.60
   2   8  -1  602.54   22.60
   2   8  -1  593.04   25.90
   2   8  -1  649.54   28.40
   2   8  -1  644.44   25.10
  -2  -8   1  626.24   48.20
  -2  -8   1  668.63   26.10
  -2  -8   1  598.94   27.90
   1   8  -1   76.59    6.70
   1   8  -1   87.59   11.90
   1   8  -1   69.39    8.00
   1   8  -1   78.99   10.40
   1   8  -1   65.99   21.90
  -1  -8   1   82.39    9.60
  -1  -8   1   86.79   24.30
  -1  -8   1   72.79   10.10
   0   8  -1  952.60   37.00
   0   8  -1  965.30   34.10
   0   8  -1  969.00   36.30
   0   8  -1  949.80   32.80
   0   8  -1 1042.30   56.29
   0  -8   1  946.21   36.40
   0  -8   1 1051.79   35.50
   0  -8   1  959.40   57.19
  -1   8  -1   50.19   18.20
  -1   8  -1   64.69    9.40
  -1   8  -1   68.39    6.10
  -1   8  -1   61.59    7.30
  -1   8  -1   59.79    9.70
   1  -8   1   53.99    8.20
   1  -8   1   50.29   19.40
   1  -8   1   59.29    7.10
  -2   8  -1  597.34   22.20
  -2   8  -1  595.14   24.90
  -2   8  -1  639.34   23.00
  -2   8  -1  630.34   26.20
  -2   8  -1  615.04   40.00
   2  -8   1  587.64   40.50
   2  -8   1  595.54   25.60
   2  -8   1  649.64   24.30
  -3   8  -1   23.40    4.00
  -3   8  -1   35.50   14.50
  -3   8  -1   22.70    6.90
  -3   8  -1   16.90    6.60
   3  -8   1   26.60   17.20
   3  -8   1   26.30    4.90
   3  -8   1   28.30    7.10
  -4   8  -1  362.36   19.10
  -4   8  -1  358.66   33.00
  -4   8  -1  355.66   15.50
  -4   8  -1  379.66   19.50
   4  -8   1  365.96   17.10
   4  -8   1  337.67   18.80
   4  -8   1  345.17   32.90
   4  -8   1  370.46   14.90
  -5   8  -1   65.29   12.30
  -5   8  -1  100.49   24.50
  -5   8  -1   68.99    8.80
  -5   8  -1   60.29    7.50
  -5   8  -1   59.59    9.70
   5  -8   1   92.29   23.00
   5  -8   1   64.89    9.60
   5  -8   1   67.09    7.40
   5  -8   1   53.29    9.30
  -6   8  -1  166.28   14.20
  -6   8  -1  165.48   15.20
  -6   8  -1  163.88   14.80
  -6   8  -1  198.68   39.80
  -6   8  -1  182.58   12.10
   6  -8   1  175.38   31.60
   6  -8   1  175.68   10.40
   6  -8   1  171.18   13.30
   6  -8   1  151.08   14.30
   4   7  -1   80.59   10.60
   4   7  -1  116.19   28.30
   4   7  -1  109.49   10.90
   4   7  -1   89.99   11.50
  -4  -7   1  103.89   11.90
  -4  -7   1   92.19   12.50
  -4  -7   1   95.59   28.50
   3   7  -1   20.50    5.20
   3   7  -1   29.60   16.60
   3   7  -1   20.60    7.30
   3   7  -1   17.90    5.10
   3   7  -1   23.60    3.90
  -3  -7   1   12.00    7.30
  -3  -7   1   17.80    5.90
  -3  -7   1   20.30   17.00
   2   7  -1  477.55   35.60
   2   7  -1  496.85   19.60
   2   7  -1  477.65   18.00
   2   7  -1  491.65   20.90
   2   7  -1  511.85   22.70
  -2  -7   1  480.85   22.60
  -2  -7   1  519.45   20.90
  -2  -7   1  472.75   37.50
   1   7  -1  301.57   12.20
   1   7  -1  308.27   13.80
   1   7  -1  295.47   15.10
   1   7  -1  331.47   17.00
   1   7  -1  330.07   31.10
  -1  -7   1  346.97   15.10
  -1  -7   1  310.27   16.60
  -1  -7   1  317.17   29.80
   0   7  -1 2119.29   67.99
   0   7  -1 1961.50   63.69
   0   7  -1 2079.19   65.09
   0   7  -1 1997.10   66.39
   0   7  -1 2121.69   83.49
   0  -7   1 2065.89   85.69
   0  -7   1 1857.91   66.69
   0  -7   1 2082.09   65.79
  -1   7  -1  117.09    6.90
  -1   7  -1  108.59    9.40
  -1   7  -1  131.89   21.70
  -1   7  -1  131.89    9.90
  -1   7  -1  138.79    7.60
   1  -7   1  105.89   22.60
   1  -7   1  119.69    9.30
   1  -7   1  127.99    8.80
  -2   7  -1 2508.05   80.39
  -2   7  -1 2546.45   83.09
  -2   7  -1 2656.83   83.99
  -2   7  -1 2717.43   99.39
   2  -7   1 2675.33   82.29
   2  -7   1 2505.25   99.59
   2  -7   1 2483.45   83.19
  -3   7  -1    0.70    4.30
  -3   7  -1    4.30    2.90
  -3   7  -1   -2.10    9.50
  -3   7  -1    3.30    4.90
   3  -7   1   -2.20   11.30
   3  -7   1    3.40    2.30
   3  -7   1    4.50    3.80
   3  -7   1    4.10    3.60
  -4   7  -1  907.41   47.70
  -4   7  -1  903.31   31.30
  -4   7  -1  984.60   34.70
  -4   7  -1  916.21   34.20
   4  -7   1  946.41   30.70
   4  -7   1  888.51   33.90
   4  -7   1  920.81   32.60
   4  -7   1  888.71   48.90
  -5   7  -1   73.69    9.60
  -5   7  -1   92.69   10.50
  -5   7  -1   95.29   20.70
  -5   7  -1   87.99   10.80
  -5   7  -1   84.69    7.90
   5  -7   1   89.59    6.40
   5  -7   1   88.49   20.20
   5  -7   1   85.19    8.10
   5  -7   1   81.79   10.20
  -6   7  -1  195.68   12.00
  -6   7  -1  191.78   11.10
  -6   7  -1  205.88   13.50
  -6   7  -1  208.98   13.80
   6  -7   1  209.78   13.30
   6  -7   1  209.08   10.40
   6  -7   1  191.08   27.60
   6  -7   1  195.28   14.20
  -7   7  -1  633.74   28.70
  -7   7  -1  695.13   26.50
  -7   7  -1  700.93   29.60
  -7   7  -1  631.24   24.90
   7  -7   1  698.53   25.70
   7  -7   1  646.34   49.00
   7  -7   1  740.93   49.50
   7  -7   1  642.04   28.70
   7  -7   1  706.93   28.20
   5   6  -1  101.49   11.40
   5   6  -1  112.79   24.80
   5   6  -1  105.89   10.60
   5   6  -1  117.99    9.90
  -5  -6   1  120.99   23.30
  -5  -6   1  116.49   12.40
  -5  -6   1  103.69   14.60
   4   6  -1  921.91   35.30
   4   6  -1  869.51   32.90
   4   6  -1  875.61   32.20
   4   6  -1  941.31   53.69
  -4  -6   1  865.51   51.09
  -4  -6   1  968.30   33.90
  -4  -6   1  867.61   35.10
   3   6  -1    6.70    4.40
   3   6  -1   13.30    5.50
   3   6  -1   11.90    3.80
   3   6  -1    7.70   14.60
  -3  -6   1   14.50    5.20
  -3  -6   1    9.80    3.70
  -3  -6   1    8.30   11.90
   2   6  -1  984.20   35.60
   2   6  -1 1013.60   49.90
   2   6  -1  945.41   33.80
   2   6  -1  976.70   33.00
  -2  -6   1  937.01   35.30
  -2  -6   1  919.11   49.20
  -2  -6   1 1003.80   33.80
   1   6  -1   27.70    3.90
   1   6  -1   29.70    4.80
   1   6  -1   26.40    3.70
   1   6  -1   38.30    6.10
   1   6  -1   40.10   13.20
  -1  -6   1   38.40    6.50
  -1  -6   1   27.70    6.60
  -1  -6   1   37.50   12.80
   0   6  -1  363.16   13.70
   0   6  -1  369.46   15.80
   0   6  -1  393.06   17.10
   0   6  -1  391.76   14.70
   0   6  -1  410.46   27.70
   0  -6   1  341.57   26.70
   0  -6   1  386.76   15.50
   0  -6   1  389.76   16.80
  -1   6  -1  594.14   20.50
  -1   6  -1  592.44   22.70
  -1   6  -1  578.54   21.60
  -1   6  -1  563.04   31.80
  -1   6  -1  580.94   19.70
   1  -6   1  521.85   32.10
   1  -6   1  605.14   21.20
   1  -6   1  568.74   22.30
  -2   6  -1  596.94   22.70
  -2   6  -1  568.14   19.80
  -2   6  -1  575.94   21.90
  -2   6  -1  555.34   32.00
   2  -6   1  554.44   22.10
   2  -6   1  586.54   21.10
   2  -6   1  602.64   19.60
   2  -6   1  552.84   32.40
  -3   6  -1 2300.67   75.79
  -3   6  -1 2226.18   73.69
  -3   6  -1 2417.36   87.09
  -3   6  -1 2252.37   70.99
   3  -6   1 2202.08   85.79
   3  -6   1 2343.37   72.59
   3  -6   1 2192.08   73.19
   3  -6   1 2261.77   70.59
  -4   6  -1 1349.56   44.00
  -4   6  -1 1398.76   47.10
  -4   6  -1 1363.16   44.80
  -4   6  -1 1352.06   46.40
  -4   6  -1 1374.06   59.79
   4  -6   1 1384.56   43.70
   4  -6   1 1303.67   46.10
   4  -6   1 1310.77   58.79
   4  -6   1 1426.56   45.80
  -5   6  -1 1328.77   46.90
  -5   6  -1 1415.16   47.10
  -5   6  -1 1370.16   60.69
  -5   6  -1 1323.57   45.30
  -5   6  -1 1337.07   44.50
   5  -6   1 1430.26   46.50
   5  -6   1 1402.06   44.40
   5  -6   1 1361.46   60.89
   5  -6   1 1346.67   46.90
  -6   6  -1  816.12   29.80
  -6   6  -1  910.11   33.30
  -6   6  -1  847.22   30.60
  -6   6  -1  855.21   33.10
   6  -6   1  903.51   32.30
   6  -6   1  923.51   47.90
   6  -6   1  864.51   48.50
   6  -6   1  854.81   32.60
   6  -6   1  939.81   30.60
  -7   6  -1  262.67   12.90
  -7   6  -1  267.67   14.10
  -7   6  -1  267.57   15.50
  -7   6  -1  252.87   15.70
   7  -6   1  271.47   15.70
   7  -6   1  257.57   15.80
   7  -6   1  277.97   30.60
   7  -6   1  285.37   13.50
   7  -6   1  282.07   30.50
  -8   6  -1  138.99    9.90
  -8   6  -1  135.09   12.70
  -8   6  -1  139.19   14.60
   8  -6   1  133.19   26.00
   8  -6   1  146.69   11.30
   8  -6   1  133.79   12.20
   8  -6   1  155.58   13.00
   8  -6   1  131.29   26.50
   6   5  -1  130.39   13.80
   6   5  -1  120.19   11.50
   6   5  -1  159.08   31.40
  -6  -5   1  117.59   11.50
  -6  -5   1  116.69   15.30
  -6  -5   1  115.19   27.30
   5   5  -1   26.90    5.70
   5   5  -1   29.00    7.20
   5   5  -1   25.70    4.80
   5   5  -1   29.00   15.50
  -5  -5   1   23.10    6.30
  -5  -5   1   28.50   17.50
  -5  -5   1   15.10    7.70
   4   5  -1  186.98   11.70
   4   5  -1  184.48   10.30
   4   5  -1  202.38   23.00
   4   5  -1  191.48   10.30
  -4  -5   1  153.88   22.80
  -4  -5   1  181.88   11.90
  -4  -5   1  185.68   10.70
   3   5  -1  827.72   27.70
   3   5  -1  803.12   41.70
   3   5  -1  847.32   30.50
   3   5  -1  726.93   27.50
  -3  -5   1  780.62   43.20
  -3  -5   1  736.63   29.30
  -3  -5   1  801.02   28.30
   2   5  -1 1023.10   34.90
   2   5  -1 1012.10   46.20
   2   5  -1  979.70   32.70
   2   5  -1  967.70   33.40
  -2  -5   1  966.60   34.70
  -2  -5   1  925.51   46.00
  -2  -5   1 1012.90   33.50
   1   5  -1 1757.02   54.79
   1   5  -1 1796.62   56.89
   1   5  -1 1812.92   67.99
   1   5  -1 1668.83   55.39
   1   5  -1 1624.44   53.69
  -1  -5   1 1714.03   68.89
  -1  -5   1 1752.32   55.39
  -1  -5   1 1727.13   56.49
   0   5  -1 1963.00   61.99
   0   5  -1 1868.91   60.99
   0   5  -1 1904.91   59.99
   0   5  -1 2050.09   72.79
   0   5  -1 1818.72   59.19
   0  -5   1 1917.71   61.79
   0  -5   1 1903.41   72.69
  -1   5  -1 1572.64   50.19
  -1   5  -1 1453.75   47.70
  -1   5  -1 1508.65   49.50
  -1   5  -1 1590.64   59.89
   1  -5   1 1506.95   49.90
   1  -5   1 1527.65   60.49
   1  -5   1 1572.14   49.20
  -2   5  -1 1074.79   35.50
  -2   5  -1 1028.30   34.90
  -2   5  -1 1013.60   33.20
  -2   5  -1 1063.99   44.80
   2  -5   1 1059.19   33.10
   2  -5   1 1022.70   35.10
   2  -5   1 1067.49   34.60
   2  -5   1  996.30   44.30
  -3   5  -1 1714.73   53.99
  -3   5  -1 1651.43   53.69
  -3   5  -1 1604.64   51.69
  -3   5  -1 1731.73   64.69
   3  -5   1 1660.13   51.59
   3  -5   1 1649.33   52.99
   3  -5   1 1588.74   63.79
   3  -5   1 1603.14   53.59
  -4   5  -1  307.57   12.70
  -4   5  -1  303.87   12.10
  -4   5  -1  313.57   14.10
  -4   5  -1  310.47   14.00
  -4   5  -1  315.47   23.30
   4  -5   1  324.67   13.50
   4  -5   1  322.87   11.80
   4  -5   1  299.27   13.70
   4  -5   1  287.97   22.60
  -5   5  -1 1770.52   56.19
  -5   5  -1 1812.82   57.69
  -5   5  -1 1740.23   55.49
  -5   5  -1 1713.83   57.59
   5  -5   1 1730.43   70.29
   5  -5   1 1748.63   55.19
   5  -5   1 1747.33   57.09
   5  -5   1 1691.73   57.39
  -6   5  -1  167.88   10.60
  -6   5  -1  173.68   10.90
  -6   5  -1  164.48    8.20
  -6   5  -1  161.98    9.30
   6  -5   1  171.38    8.70
   6  -5   1  167.88   20.10
   6  -5   1  179.48   10.40
   6  -5   1  157.98   10.20
   6  -5   1  156.98   20.20
  -7   5  -1  912.81   31.40
  -7   5  -1  973.60   35.30
  -7   5  -1  916.91   35.10
  -7   5  -1  919.91   32.60
   7  -5   1  901.11   34.50
   7  -5   1  955.20   32.70
   7  -5   1 1010.90   52.59
   7  -5   1  952.70   34.80
   7  -5   1  909.21   50.49
  -8   5  -1   24.70    8.20
  -8   5  -1   27.40    5.40
  -8   5  -1   26.10    7.60
   8  -5   1   26.00    6.40
   8  -5   1   16.70   20.50
   8  -5   1   27.50    6.20
   8  -5   1   29.50    7.50
   7   4  -1  273.97   17.40
   7   4  -1  231.68   44.60
   7   4  -1  255.27   13.30
   7   4  -1  261.47   15.20
   7   4  -1  252.27   14.90
  -7  -4   1  250.57   16.90
  -7  -4   1  261.17   36.00
  -7  -4   1  252.07   13.60
  -7  -4   1  242.98   18.50
   6   4  -1  394.76   39.20
   6   4  -1  412.96   20.50
   6   4  -1  422.36   17.50
   6   4  -1  393.46   18.40
  -6  -4   1  406.86   17.60
  -6  -4   1  424.96   19.90
  -6  -4   1  405.66   20.50
  -6  -4   1  442.76   35.30
   5   4  -1  512.05   36.00
   5   4  -1  538.35   22.50
   5   4  -1  529.85   20.20
   5   4  -1  509.65   20.50
  -5  -4   1  530.85   21.50
  -5  -4   1  519.75   36.70
  -5  -4   1  486.45   22.60
  -5  -4   1  533.15   19.90
   4   4  -1  401.46   17.50
   4   4  -1  427.56   30.80
   4   4  -1  386.06   15.80
  -4  -4   1  402.16   16.60
  -4  -4   1  366.66   17.20
  -4  -4   1  363.26   28.80
   3   4  -1 1584.54   63.29
   3   4  -1 1539.35   49.20
   3   4  -1 1599.94   51.19
  -3  -4   1 1538.85   49.99
  -3  -4   1 1459.25   62.39
  -3  -4   1 1514.35   51.19
   2   4  -1  366.86   22.60
   2   4  -1  353.46   14.60
   2   4  -1  344.77   13.10
   2   4  -1  331.77   13.40
  -2  -4   1  346.67   14.70
  -2  -4   1  367.76   13.80
  -2  -4   1  358.26   23.40
   1   4  -1 3761.92  119.79
   1   4  -1 3880.11  119.29
   1   4  -1 4041.90  130.49
   1   4  -1 4025.50  120.99
  -1  -4   1 3848.52  120.69
  -1  -4   1 3799.02  130.99
  -1  -4   1 3947.71  119.89
   0   4  -1  930.91   30.90
   0   4  -1  955.40   39.20
   0   4  -1  973.20   31.90
   0   4  -1  954.70   30.30
   0   4  -1  879.01   29.50
   0  -4   1  933.71   39.80
   0  -4   1  933.11   31.60
   0  -4   1  969.80   30.80
  -1   4  -1 3542.05  106.79
  -1   4  -1 3340.27  106.09
  -1   4  -1 3334.57  104.79
  -1   4  -1 3637.84  115.19
   1  -4   1 3465.65  115.19
   1  -4   1 3365.36  106.49
  -2   4  -1 1116.49   36.00
  -2   4  -1 1125.09   36.30
  -2   4  -1 1133.59   44.00
  -2   4  -1 1082.19   34.50
   2  -4   1 1086.29   34.40
   2  -4   1 1070.39   43.60
   2  -4   1 1113.39   35.60
   2  -4   1 1044.90   35.90
  -3   4  -1 1038.10   33.60
  -3   4  -1 1045.50   34.10
  -3   4  -1 1082.09   43.60
  -3   4  -1 1113.09   35.30
  -3   4  -1 1038.20   35.00
   3  -4   1 1032.30   35.00
   3  -4   1 1013.50   42.70
   3  -4   1 1081.99   33.60
   3  -4   1 1057.89   34.70
  -4   4  -1   19.80    2.80
  -4   4  -1   18.60    2.80
  -4   4  -1   21.10    3.70
  -4   4  -1   16.90    3.60
  -4   4  -1   23.50    8.00
   4  -4   1   26.80    7.40
   4  -4   1   19.80    2.80
   4  -4   1   18.10    3.40
   4  -4   1   19.70    3.50
  -5   4  -1  629.64   21.80
  -5   4  -1  658.13   24.30
  -5   4  -1  635.94   22.40
  -5   4  -1  674.13   24.10
   5  -4   1  664.93   22.30
   5  -4   1  645.64   33.70
   5  -4   1  645.84   34.00
   5  -4   1  666.73   23.90
   5  -4   1  646.84   24.00
  -6   4  -1  328.77   15.50
  -6   4  -1  307.97   12.30
  -6   4  -1  315.17   13.10
   6  -4   1  316.27   13.00
   6  -4   1  322.87   14.90
   6  -4   1  348.57   25.40
   6  -4   1  332.87   26.30
  -7   4  -1  945.41   35.60
  -7   4  -1  928.61   31.60
  -7   4  -1  977.20   35.00
   7  -4   1  914.81   34.20
   7  -4   1  984.80   51.19
   7  -4   1  956.40   32.70
   7  -4   1  963.00   35.10
   7  -4   1  965.40   50.39
  -8   4  -1  151.48    8.50
  -8   4  -1  154.78   13.50
  -8   4  -1  168.28   13.40
   8  -4   1  145.69   12.20
   8  -4   1  121.79   29.20
   8  -4   1  159.98   10.70
   8  -4   1  146.99   27.00
   8  -4   1  147.89   11.70
   7   3  -1  565.44   21.90
   7   3  -1  566.44   22.00
   7   3  -1  528.35   47.40
   7   3  -1  553.04   23.10
   7   3  -1  573.64   25.60
  -7  -3   1  547.15   21.80
  -7  -3   1  470.65   43.10
  -7  -3   1  530.15   25.90
  -7  -3   1  594.94   24.20
   6   3  -1  111.29   23.30
   6   3  -1  124.29    8.80
   6   3  -1  133.09   11.10
   6   3  -1  128.39    7.90
   6   3  -1  129.59    8.40
  -6  -3   1  138.89    8.80
  -6  -3   1  124.49   12.10
  -6  -3   1  129.59   21.50
  -6  -3   1  145.69    9.90
   5   3  -1 1515.25   65.29
   5   3  -1 1468.95   49.80
  -5  -3   1 1711.03   53.59
  -5  -3   1 1465.25   51.49
  -5  -3   1 1445.56   64.39
   4   3  -1  789.22   26.20
   4   3  -1  754.02   26.50
   4   3  -1  785.42   27.90
   4   3  -1  755.42   38.10
  -4  -3   1  769.42   28.20
  -4  -3   1  777.12   27.10
  -4  -3   1  743.93   37.90
  -4  -3   1  761.82   25.80
   3   3  -1 1094.89   45.80
   3   3  -1 1092.09   34.90
   3   3  -1 1095.99   36.40
   3   3  -1 1034.90   35.10
  -3  -3   1 1085.19   45.90
  -3  -3   1 1046.80   36.30
  -3  -3   1 1106.79   34.80
  -3  -3   1 1079.09   35.50
   2   3  -1  386.86   21.60
   2   3  -1  344.87   12.80
   2   3  -1  357.76   14.00
  -2  -3   1  370.16   21.80
  -2  -3   1  363.66   13.30
  -2  -3   1  353.76   12.80
  -2  -3   1  364.26   14.30
   1   3  -1  649.14   21.90
   1   3  -1  657.13   28.40
   1   3  -1  643.34   20.70
   1   3  -1  612.84   21.00
  -1  -3   1  602.74   28.10
  -1  -3   1  611.34   21.70
  -1  -3   1  637.94   21.10
   0   3  -1  764.32   25.40
   0   3  -1  743.63   23.70
   0   3  -1  760.82   24.30
   0   3  -1  767.42   24.80
   0   3  -1  787.12   31.10
   0  -3   1  749.33   31.30
   0  -3   1  745.23   25.30
   0  -3   1  768.02   24.70
  -1   3  -1 3317.87  106.49
  -1   3  -1 3273.17  100.39
   1  -3   1 3211.28  106.49
  -2   3  -1 1991.10   65.69
  -2   3  -1 1851.31   57.99
  -2   3  -1 1926.91   59.19
  -2   3  -1 1871.51   58.99
   2  -3   1 1881.61   57.89
   2  -3   1 1868.91   65.19
   2  -3   1 1853.11   59.09
   2  -3   1 1875.21   58.89
  -3   3  -1 6914.51  211.98
   3  -3   1 6502.05  211.28
  -4   3  -1  215.68    8.50
  -4   3  -1  252.67   10.40
  -4   3  -1  231.48    9.10
  -4   3  -1  226.58   10.20
   4  -3   1  227.28    8.90
   4  -3   1  227.78   16.10
   4  -3   1  223.38    9.90
   4  -3   1  222.48    9.90
   4  -3   1  242.18   16.00
  -5   3  -1 3310.27  103.99
  -5   3  -1 3396.06  106.39
  -5   3  -1 3436.66  106.19
  -5   3  -1 3380.66  104.69
   5  -3   1 3443.56  104.79
   5  -3   1 3549.34  117.29
   5  -3   1 3420.46  116.99
   5  -3   1 3404.86  106.29
   5  -3   1 3293.47  105.79
  -6   3  -1    1.40    2.00
   6  -3   1   -6.20    7.10
   6  -3   1    4.40    3.60
   6  -3   1   -1.20    2.60
   6  -3   1    2.90    3.00
   6  -3   1   -1.70    9.10
  -7   3  -1  518.05   21.30
  -7   3  -1  489.45   21.50
  -7   3  -1  491.55   17.90
   7  -3   1  479.75   20.10
   7  -3   1  491.55   33.50
   7  -3   1  493.45   21.30
   7  -3   1  526.95   20.20
   7  -3   1  487.15   32.80
   7  -3   1  496.85   19.00
  -8   3  -1   38.50    6.90
  -8   3  -1   42.50    7.70
  -8   3  -1   45.80    6.10
   8  -3   1   42.70    5.80
   8  -3   1   24.60    6.20
   8  -3   1   39.10    6.80
   8  -3   1   37.70    6.90
   8  -3   1   30.80   15.90
  -9   3  -1   51.79    9.40
  -9   3  -1   46.80    8.90
  -9   3  -1   42.10    5.90
   9  -3   1   51.39    8.70
   9  -3   1   22.40   19.20
   9  -3   1   63.49   31.70
   9  -3   1   40.60    8.90
   8   2  -1   89.69   12.70
   8   2  -1   97.79    8.90
   8   2  -1   79.59    9.20
   8   2  -1   93.39   10.20
   8   2  -1  100.49   29.60
  -8  -2   1   93.19   12.80
  -8  -2   1   89.29   12.10
  -8  -2   1   83.59    8.40
  -8  -2   1  116.69   23.90
   7   2  -1    7.10    3.70
   7   2  -1   16.50   14.50
   7   2  -1    3.20    4.60
   7   2  -1    2.50    4.40
   7   2  -1    1.30    4.50
  -7  -2   1   12.20    4.30
  -7  -2   1   -5.60   11.90
  -7  -2   1    0.80    5.20
  -7  -2   1    0.20    4.20
   6   2  -1   10.40    3.90
   6   2  -1    5.50    3.20
   6   2  -1   11.20    4.80
   6   2  -1    7.50    3.00
   6   2  -1    8.50   10.20
  -6  -2   1   10.30    4.60
  -6  -2   1   12.50   10.20
  -6  -2   1    7.30    3.00
  -6  -2   1    9.10    5.20
   5   2  -1   69.69    5.80
   5   2  -1   87.89    7.00
   5   2  -1   83.39   17.20
   5   2  -1   78.69    5.90
   5   2  -1  112.19    5.80
  -5  -2   1   61.59   12.90
  -5  -2   1   72.99    6.30
  -5  -2   1   86.69    7.30
  -5  -2   1   86.19    5.70
   4   2  -1  339.47   22.60
   4   2  -1  373.46   14.80
   4   2  -1  371.86   13.40
   4   2  -1  352.36   13.80
  -4  -2   1  354.26   22.10
  -4  -2   1  371.26   15.20
  -4  -2   1  367.36   13.40
  -4  -2   1  364.66   14.40
   3   2  -1 2224.68   76.39
   3   2  -1 2187.78   66.59
   3   2  -1 2081.99   66.79
   3   2  -1 2209.38   67.79
  -3  -2   1 2120.19   75.99
  -3  -2   1 2158.38   66.39
  -3  -2   1 2102.29   67.79
  -3  -2   1 2107.69   67.09
   2   2  -1  197.38    7.50
   2   2  -1  191.08    8.30
   2   2  -1  219.98   13.60
   2   2  -1  189.48    7.60
  -2  -2   1  193.78    8.50
  -2  -2   1  206.48   13.30
  -2  -2   1  193.48    7.50
  -2  -2   1  192.28    7.80
   1   2  -1 7225.98  220.18
  -1  -2   1 6931.91  220.08
   0   2  -1  106.59    4.20
   0   2  -1  133.29    5.10
   0   2  -1  104.79    7.40
   0   2  -1  105.59    4.50
   0   2  -1  106.99    3.90
   0  -2   1  111.29    4.60
   0  -2   1  114.09    8.00
   0  -2   1  105.79    4.80
  -1   2  -1 4705.03  144.79
   1  -2   1 4557.14  144.59
  -2   2  -1   23.00    2.30
  -2   2  -1   21.30    1.70
  -2   2  -1   21.30    2.00
  -2   2  -1   16.80    1.70
  -2   2  -1   32.90    4.60
   2  -2   1   17.70    1.60
   2  -2   1   16.90    3.70
   2  -2   1   30.00    2.30
   2  -2   1   16.80    2.10
  -3   2  -1 1503.55   46.90
  -3   2  -1 1478.85   45.90
  -3   2  -1 1467.45   46.70
  -3   2  -1 1467.35   45.50
   3  -2   1 1395.86   46.60
   3  -2   1 1472.05   45.90
   3  -2   1 1536.35   53.19
   3  -2   1 1481.85   52.59
   3  -2   1 1532.25   46.20
   3  -2   1 1481.65   46.80
  -4   2  -1  748.53   25.70
  -4   2  -1  755.22   24.60
  -4   2  -1  791.42   25.80
  -4   2  -1  721.43   24.00
   4  -2   1  754.22   32.30
   4  -2   1  740.63   25.50
   4  -2   1  759.82   25.80
   4  -2   1  776.22   25.00
   4  -2   1  751.12   24.60
   4  -2   1  739.53   32.50
  -5   2  -1  990.40   33.50
  -5   2  -1 1005.00   33.30
  -5   2  -1  943.91   31.20
   5  -2   1 1005.20   32.10
   5  -2   1  934.81   32.80
   5  -2   1  998.30   32.30
   5  -2   1  993.80   33.50
   5  -2   1 1002.00   42.50
   5  -2   1  952.40   42.50
  -6   2  -1  608.14   20.70
  -6   2  -1  664.93   23.40
  -6   2  -1  624.94   23.40
   6  -2   1  633.34   22.30
   6  -2   1  601.24   24.40
   6  -2   1  623.94   33.80
   6  -2   1  638.34   34.20
   6  -2   1  550.54   22.70
  -7   2  -1  521.15   21.90
  -7   2  -1  568.34   22.30
  -7   2  -1  526.45   18.90
   7  -2   1  539.15   34.10
   7  -2   1  515.15   33.30
   7  -2   1  549.74   20.20
   7  -2   1  578.74   21.20
   7  -2   1  498.35   20.90
   7  -2   1  548.35   22.50
  -8   2  -1  233.28   14.60
  -8   2  -1  212.98   10.00
  -8   2  -1  206.58   14.90
   8  -2   1  220.18   13.60
   8  -2   1  177.38   14.80
   8  -2   1  217.08   14.70
   8  -2   1  232.28   28.20
   8  -2   1  212.88   11.50
  -9   2  -1  120.39    9.20
  -9   2  -1  111.79   14.40
  -9   2  -1  137.89   13.70
   9  -2   1  120.29   11.80
   9  -2   1  105.69   11.40
   9  -2   1   76.19   26.20
   8   1  -1  107.09   12.30
   8   1  -1  102.59    9.80
   8   1  -1   98.69    9.20
   8   1  -1  101.09    9.30
  -8  -1   1   88.29   13.40
  -8  -1   1  113.69   12.10
  -8  -1   1   98.49    8.10
   7   1  -1 1577.54   52.59
   7   1  -1 1535.95   50.69
   7   1  -1 1528.05   69.39
   7   1  -1 1527.05   51.59
   7   1  -1 1559.74   52.99
  -7  -1   1 1531.45   50.29
  -7  -1   1 1661.13   53.29
  -7  -1   1 1512.75   68.89
  -7  -1   1 1524.35   53.69
   6   1  -1  122.89   17.80
   6   1  -1  114.59    9.20
   6   1  -1  120.69    7.20
   6   1  -1  106.29    7.70
   6   1  -1  118.49    6.90
  -6  -1   1  125.39   10.30
  -6  -1   1  103.49    6.30
  -6  -1   1  109.69   16.40
  -6  -1   1   99.29    8.70
   5   1  -1 2778.82   87.19
   5   1  -1 2815.92   88.89
   5   1  -1 2863.01   87.29
   5   1  -1 2754.82   87.89
   5   1  -1 2941.31  101.29
  -5  -1   1 2775.12   89.09
  -5  -1   1 2766.92   99.79
  -5  -1   1 2898.41   88.69
  -5  -1   1 2771.62   86.99
   4   1  -1  339.97   20.50
   4   1  -1  356.66   13.80
   4   1  -1  325.87   12.80
   4   1  -1  350.76   12.40
   4   1  -1  350.26   12.50
  -4  -1   1  345.47   13.40
  -4  -1   1  335.27   12.30
  -4  -1   1  329.57   20.00
  -4  -1   1  346.87   14.00
   3   1  -1 2911.21   90.99
   3   1  -1 3113.79   99.49
   3   1  -1 3000.60   92.09
   3   1  -1 2892.41   91.39
  -3  -1   1 2927.81   90.99
  -3  -1   1 2965.50   91.69
  -3  -1   1 3007.30   92.19
  -3  -1   1 3016.50   98.99
   2   1  -1 1101.59   38.70
   2   1  -1 1029.00   33.10
   2   1  -1 1063.49   33.60
   2   1  -1 1030.90   32.90
  -2  -1   1 1072.29   32.90
  -2  -1   1 1011.90   33.20
  -2  -1   1 1065.99   33.70
  -2  -1   1 1084.09   38.40
   1   1  -1 3092.09   96.29
  -1  -1   1 3004.50   96.09
   0   1  -1  239.28    7.70
   0   1  -1  232.68    7.80
   0   1  -1  246.98   10.00
   0   1  -1  241.48    8.00
   0   1  -1  227.98    7.40
   0  -1   1  236.58    8.00
   0  -1   1  241.08    9.90
   0  -1   1  232.68    7.80
   0  -1   1  271.57    7.70
  -1   1  -1 2652.23   81.29
   1  -1   1 2535.85   81.09
  -2   1  -1   10.00    0.90
  -2   1  -1   12.90    1.20
  -2   1  -1    8.20    1.60
  -2   1  -1   26.60    2.10
   2  -1   1    5.80    2.20
   2  -1   1    9.50    1.60
   2  -1   1    6.40    2.60
   2  -1   1   13.00    1.60
   2  -1   1   14.40    1.20
   2  -1   1   11.60    1.50
  -3   1  -1  873.81   28.00
  -3   1  -1  902.61   34.30
  -3   1  -1  917.41   29.40
  -3   1  -1  901.91   29.20
   3  -1   1  919.61   28.60
   3  -1   1  910.21   29.40
   3  -1   1  891.21   29.10
   3  -1   1  905.11   28.10
   3  -1   1  904.01   34.40
  -4   1  -1  600.14   27.50
  -4   1  -1  622.04   21.10
  -4   1  -1  621.54   21.40
  -4   1  -1  582.34   19.60
   4  -1   1  606.44   20.30
   4  -1   1  614.54   27.90
   4  -1   1  601.74   20.90
   4  -1   1  611.74   21.40
   4  -1   1  609.04   19.70
  -5   1  -1  169.58   15.00
  -5   1  -1  168.58    8.90
  -5   1  -1  186.28    9.20
  -5   1  -1  186.68    7.40
   5  -1   1  187.78    7.50
   5  -1   1  171.58    8.80
   5  -1   1  183.18   16.40
   5  -1   1  180.28    8.00
   5  -1   1  210.08    9.80
  -6   1  -1 1578.54   52.39
  -6   1  -1 1560.04   49.70
  -6   1  -1 1721.23   52.49
  -6   1  -1 1592.34   63.59
   6  -1   1 1621.14   64.39
   6  -1   1 1644.24   49.99
   6  -1   1 1369.26   52.89
  -7   1  -1  127.69    7.00
  -7   1  -1  127.89   18.70
  -7   1  -1  126.99   10.70
   7  -1   1  126.59    9.40
   7  -1   1  137.49   10.50
   7  -1   1  121.39   19.30
   7  -1   1  141.69    8.80
  -8   1  -1  961.40   34.30
  -8   1  -1  859.01   30.20
  -8   1  -1  860.31   34.00
   8  -1   1  863.21   33.80
   8  -1   1  905.71   50.39
   8  -1   1  898.01   33.00
   8  -1   1  872.01   31.60
  -9   1  -1   87.09   12.60
  -9   1  -1   67.19    9.00
  -9   1  -1   73.09   13.70
   9  -1   1   87.69   11.20
   9  -1   1   96.69   35.90
   8   0  -1  135.89   10.90
   8   0  -1  140.49    9.40
   8   0  -1  144.79   12.60
   8   0  -1  134.19   30.00
   8   0  -1  148.79    9.00
  -8   0   1  144.89   12.70
  -8   0   1  124.99   13.10
  -8   0   1  119.89   23.20
  -8   0   1  135.99    9.30
   7   0  -1  547.55   37.20
   7   0  -1  493.55   21.10
   7   0  -1  493.95   19.90
   7   0  -1  497.75   19.30
  -7   0   1  485.75   32.80
  -7   0   1  528.35   21.60
  -7   0   1  515.05   22.40
   6   0  -1  166.68   19.90
   6   0  -1  162.78    8.10
  -6   0   1  160.18   11.20
  -6   0   1  157.28   17.20
  -6   0   1  157.48    7.70
   5   0  -1 1027.90   35.00
   5   0  -1 1062.79   33.60
   5   0  -1 1026.10   34.20
   5   0  -1 1007.40   33.60
   5   0  -1 1062.79   45.00
  -5   0   1 1077.69   34.90
  -5   0   1 1031.90   35.20
  -5   0   1 1010.90   43.90
  -5   0   1 1018.10   33.40
   4   0  -1   30.10    7.40
   4   0  -1   41.80    3.70
   4   0  -1   25.60    3.00
   4   0  -1   27.40    4.00
   4   0  -1   28.30    2.80
  -4   0   1   24.90    2.70
  -4   0   1   27.10    3.60
  -4   0   1   34.10    3.50
  -4   0   1   30.50    7.10
   3   0  -1  578.84   18.90
   3   0  -1  589.54   19.40
   3   0  -1  592.54   25.20
   3   0  -1  572.24   18.90
   3   0  -1  571.54   19.70
  -3   0   1  585.24   19.90
  -3   0   1  592.44   25.20
  -3   0   1  602.24   19.70
  -3   0   1  569.94   18.90
   2   0  -1  303.77   10.60
   2   0  -1  307.47   14.00
   2   0  -1  305.17   10.40
   2   0  -1  307.37   10.20
   2   0  -1  306.17   10.10
  -2   0   1  315.57   10.50
  -2   0   1  298.17   13.90
  -2   0   1  300.67   10.20
  -2   0   1  306.47   10.70
   1   0  -1   43.70    3.30
   1   0  -1   47.70    1.90
   1   0  -1   49.70    2.00
   1   0  -1   46.20    2.10
   1   0  -1   47.00    2.00
  -1   0   1   45.80    1.90
  -1   0   1   49.80    2.00
  -1   0   1   46.70    2.00
  -1   0   1   46.70    2.10
  -1   0   1   43.60    3.40
  -1   0  -1  656.13   20.40
  -1   0  -1  645.04   20.50
   1   0   1  674.93   22.50
   1   0   1  659.73   20.50
   1   0   1  660.33   20.10
   1   0   1  663.93   20.60
   2   0   1 6711.43  206.88
  -3   0  -1 2019.70   66.89
  -3   0  -1 1896.11   59.69
  -3   0  -1 1980.60   60.69
  -3   0  -1 1959.00   60.99
   3   0   1 1914.81   59.69
   3   0   1 2032.40   66.89
   3   0   1 1929.21   60.99
   3   0   1 1900.41   60.49
  -4   0  -1 2209.58   69.09
  -4   0  -1 2298.17   77.59
  -4   0  -1 2148.78   67.69
  -4   0  -1 2200.08   69.39
   4   0   1 2221.98   69.49
   4   0   1 2159.58   67.69
   4   0   1 2157.48   68.79
   4   0   1 2261.27   77.39
   4   0   1 2210.58   68.29
  -5   0  -1  808.32   28.00
  -5   0  -1  781.72   36.50
  -5   0  -1  819.02   27.70
  -5   0  -1  766.02   25.60
   5   0   1  770.02   27.10
   5   0   1  810.62   28.10
   5   0   1  793.92   25.80
   5   0   1  762.22   36.20
   5   0   1  808.62   26.50
  -6   0  -1  235.48   12.00
  -6   0  -1  220.78    9.20
  -6   0  -1  221.48   12.30
  -6   0  -1  212.38   20.60
   6   0   1  219.88   11.40
   6   0   1  222.18    9.40
   6   0   1  210.28   20.10
   6   0   1  216.08    9.90
   6   0   1  202.58   10.60
  -7   0  -1    6.50    3.10
  -7   0  -1    2.80    5.00
  -7   0  -1    6.10    4.70
  -7   0  -1    9.70   11.60
   7   0   1    4.60    3.20
   7   0   1  -10.30   12.60
   7   0   1    5.20    4.30
   7   0   1    4.00    3.40
   7   0   1   11.50    5.10
  -8   0  -1  114.29    7.90
  -8   0  -1  121.39   11.80
  -8   0  -1  116.49   20.70
  -8   0  -1  100.29   12.70
   8   0   1  116.59   24.30
   8   0   1  106.39    8.80
   8   0   1  118.99   10.40
   8   0   1  111.59   12.20
   8   0   1  135.69   10.20
   9  -1  -1  168.68   14.40
   9  -1  -1  170.88   12.90
   9  -1  -1  160.78   12.90
   9  -1  -1  152.18   33.00
  -9   1   1  146.19   13.90
  -9   1   1  162.08   11.10
   8  -1  -1  322.87   34.70
   8  -1  -1  325.57   17.20
   8  -1  -1  300.67   15.70
   8  -1  -1  310.27   14.40
  -8   1   1  319.47   17.20
  -8   1   1  317.17   18.20
  -8   1   1  293.17   13.30
   7  -1  -1   56.59    5.70
   7  -1  -1   59.29    6.40
   7  -1  -1   55.99    7.00
   7  -1  -1   46.70   13.70
  -7   1   1   55.89    8.00
  -7   1   1   59.09    5.60
  -7   1   1   46.60    8.60
  -7   1   1   47.20   14.30
   6  -1  -1 3677.73  110.69
   6  -1  -1 3550.44  111.29
   6  -1  -1 3712.53  125.19
   6  -1  -1 3673.93  112.69
   6  -1  -1 3495.25  111.59
  -6   1   1 3598.74  113.49
  -6   1   1 3345.37  114.09
  -6   1   1 3551.54  110.49
  -6   1   1 3731.43  125.49
   5  -1  -1   16.80    2.80
   5  -1  -1   20.60    3.70
   5  -1  -1   18.00    3.10
   5  -1  -1   16.80    2.40
   5  -1  -1   18.20    6.70
  -5   1   1   15.30    3.50
  -5   1   1   13.60    2.40
  -5   1   1   15.30    3.00
  -5   1   1   18.20    7.50
   3  -1  -1  313.47   10.70
   3  -1  -1  300.47   15.50
   3  -1  -1  300.47   10.60
   3  -1  -1  297.37   11.20
   3  -1  -1  301.07   11.00
  -3   1   1  325.17   11.40
  -3   1   1  301.57   10.60
  -3   1   1  306.67   11.40
  -3   1   1  306.57   10.50
  -3   1   1  296.17   15.40
   1  -1  -1  759.02   24.50
   1  -1  -1  780.02   24.50
   1  -1  -1  781.72   24.40
  -1   1   1  777.42   24.60
  -1   1   1  784.52   24.60
  -1   1   1  802.92   24.40
  -1   1   1  793.82   24.40
  -1   1   1  856.21   27.20
  -1  -1  -1   11.00    2.70
  -1  -1  -1   11.90    1.20
  -1  -1  -1   12.30    1.50
   1   1   1   11.50    1.10
   1   1   1   11.90    1.50
   1   1   1   12.20    2.80
   1   1   1    9.10    1.10
  -2  -1  -1 1928.41   61.09
  -2  -1  -1 2023.90   61.49
  -2  -1  -1 1914.21   60.49
  -2  -1  -1 2047.10   66.49
   2   1   1 1922.71   60.59
   2   1   1 1969.70   61.49
   2   1   1 2097.29   66.89
  -3  -1  -1  324.87   18.00
  -3  -1  -1  320.57   11.30
  -3  -1  -1  344.47   12.30
  -3  -1  -1  325.37   12.70
   3   1   1  333.47   12.00
   3   1   1  335.97   12.70
   3   1   1  340.27   18.30
   3   1   1  340.67   11.50
  -4  -1  -1 1708.93   56.09
  -4  -1  -1 1710.13   54.39
  -4  -1  -1 1787.42   64.79
  -4  -1  -1 1825.22   55.79
   4   1   1 1705.03   55.29
   4   1   1 1769.22   64.89
   4   1   1 1741.93   54.49
   4   1   1 1783.82   56.29
  -5  -1  -1  134.29    7.50
  -5  -1  -1  119.29   15.30
  -5  -1  -1  122.69    6.00
  -5  -1  -1  126.29    8.40
   5   1   1  119.59    6.90
   5   1   1  122.19    6.40
   5   1   1  128.89    8.40
   5   1   1  130.29   16.40
  -6  -1  -1 1301.17   56.69
  -6  -1  -1 1295.07   44.70
  -6  -1  -1 1296.17   41.70
  -6  -1  -1 1395.56   44.40
   6   1   1 1166.48   46.30
   6   1   1 1302.57   57.39
   6   1   1 1314.97   41.90
   6   1   1 1298.47   43.20
  -7  -1  -1    2.50    5.90
  -7  -1  -1    9.00    3.50
  -7  -1  -1    5.10   12.90
  -7  -1  -1    2.50    4.90
   7   1   1    0.00    3.30
   7   1   1    0.00   11.60
   7   1   1    4.80    4.30
   7   1   1    4.90    4.30
  -8  -1  -1  306.47   14.20
  -8  -1  -1  307.27   19.20
  -8  -1  -1  353.76   18.60
  -8  -1  -1  332.77   37.30
   8   1   1  314.47   15.30
   8   1   1  298.57   35.20
   8   1   1  314.07   16.60
   8   1   1  322.57   14.60
   8   1   1  324.47   18.90
   9  -2  -1   67.89    9.60
   9  -2  -1   85.29   10.60
   9  -2  -1   78.29   22.70
   9  -2  -1   72.09   12.00
   9  -2  -1   78.09   10.60
   9  -2  -1   70.39   21.10
  -9   2   1   71.19   11.80
  -9   2   1   76.69    9.10
  -9   2   1   57.79   10.90
   8  -2  -1 1254.27   42.90
   8  -2  -1 1284.87   71.39
   8  -2  -1 1306.07   45.50
   8  -2  -1 1272.27   63.29
   8  -2  -1 1278.57   43.90
   8  -2  -1 1242.78   44.00
  -8   2   1 1253.47   46.20
  -8   2   1 1226.58   42.00
  -8   2   1 1311.87   45.60
   7  -2  -1  387.66   30.90
   7  -2  -1  437.46   16.90
   7  -2  -1  431.26   30.10
   7  -2  -1  429.86   18.00
   7  -2  -1  438.56   19.00
   7  -2  -1  438.86   17.80
  -7   2   1  412.66   18.90
  -7   2   1  461.95   19.10
  -7   2   1  417.56   16.20
   6  -2  -1 1540.75   50.49
   6  -2  -1 1505.15   49.70
   6  -2  -1 1559.34   49.20
   6  -2  -1 1576.84   63.29
   6  -2  -1 1507.15   61.79
  -6   2   1 1503.65   48.30
  -6   2   1 1424.46   52.59
   5  -2  -1  397.86   15.30
   5  -2  -1  414.16   23.80
   5  -2  -1  390.86   23.10
   5  -2  -1  397.86   14.90
   5  -2  -1  414.16   16.00
   5  -2  -1  394.56   14.70
  -5   2   1  432.76   16.20
  -5   2   1  402.16   14.40
  -5   2   1  393.96   16.00
  -5   2   1  401.46   14.70
   4  -2  -1 1079.99   34.90
   4  -2  -1 1097.29   43.10
   4  -2  -1 1111.09   35.90
   4  -2  -1 1050.89   35.60
   4  -2  -1 1096.49   35.10
   4  -2  -1 1097.59   43.50
  -4   2   1 1104.79   35.00
  -4   2   1 1107.39   34.80
  -4   2   1 1111.49   35.90
  -4   2   1 1103.79   36.20
   3  -2  -1    6.30    1.70
   3  -2  -1    2.90    1.10
   3  -2  -1    2.00    1.20
   3  -2  -1    3.50    3.60
   3  -2  -1    2.40    2.80
   3  -2  -1    2.10    1.40
  -3   2   1    3.00    1.20
  -3   2   1    3.60    1.60
  -3   2   1    3.80    1.20
  -3   2   1    3.20    1.70
   2  -2  -1 2119.99   67.59
   2  -2  -1 2237.98   72.79
   2  -2  -1 2161.58   67.19
  -2   2   1 2235.78   67.29
  -2   2   1 2216.08   72.59
  -2   2   1 2254.37   67.39
  -2   2   1 2213.68   67.79
  -2   2   1 2161.58   67.79
   1  -2  -1  223.78    7.80
   1  -2  -1  229.48   11.60
   1  -2  -1  232.38    8.10
   1  -2  -1  237.18    8.30
  -1   2   1  233.88   11.50
  -1   2   1  228.78    8.30
  -1   2   1  230.98    7.90
  -1   2   1  217.08    8.10
   0   2   1 5115.19  159.18
  -1  -2  -1  168.58    6.60
  -1  -2  -1  172.08    7.10
  -1  -2  -1  173.18   11.20
   1   2   1  170.18    6.40
   1   2   1  182.98   11.20
   1   2   1  181.58    7.30
   1   2   1  171.78    6.60
  -2  -2  -1 3482.95  113.29
  -2  -2  -1 3338.07  106.19
   2   2   1 3438.16  106.29
   2   2   1 3401.36  105.19
   2   2   1 3627.94  113.59
  -3  -2  -1  440.66   15.80
  -3  -2  -1  442.16   15.00
  -3  -2  -1  407.86   22.50
  -3  -2  -1  446.36   16.60
   3   2   1  432.66   16.40
   3   2   1  480.35   23.70
   3   2   1  429.16   15.60
   3   2   1  441.76   15.10
  -4  -2  -1 1301.17   41.00
  -4  -2  -1 1241.88   41.60
  -4  -2  -1 1205.38   50.39
  -4  -2  -1 1200.78   39.50
   4   2   1 1250.67   51.49
   4   2   1 1196.78   40.30
   4   2   1 1283.87   41.60
   4   2   1 1286.27   39.80
  -5  -2  -1  661.43   23.90
  -5  -2  -1  629.74   34.30
  -5  -2  -1  650.93   24.80
  -5  -2  -1  657.83   22.30
   5   2   1  690.63   36.10
   5   2   1  658.73   23.50
   5   2   1  629.54   24.40
   5   2   1  633.74   22.30
  -6  -2  -1  539.05   19.20
  -6  -2  -1  565.94   22.00
  -6  -2  -1  522.75   33.30
  -6  -2  -1  537.95   22.60
   6   2   1  556.34   19.80
   6   2   1  535.25   22.50
   6   2   1  500.65   34.30
   6   2   1  509.25   20.40
  -7  -2  -1  235.18   14.00
  -7  -2  -1  194.58   10.70
  -7  -2  -1  203.68   14.90
  -7  -2  -1  189.58   25.30
   7   2   1  221.08   11.40
   7   2   1  210.38   11.30
   7   2   1  207.98   28.10
   7   2   1  220.18   14.50
   7   2   1  214.38   12.50
  -8  -2  -1  172.18   16.80
  -8  -2  -1  200.38   15.30
  -8  -2  -1  182.88   11.30
  -8  -2  -1  163.88   29.60
   8   2   1  199.88   12.10
   8   2   1  188.78   11.70
   8   2   1  234.08   42.90
   8   2   1  183.58   13.00
   8   2   1  190.98   15.90
   9  -3  -1   18.20    7.40
   9  -3  -1   21.00    7.80
   9  -3  -1   13.50    6.70
   9  -3  -1   10.80   28.40
   9  -3  -1    5.80   24.30
  -9   3   1   17.50    5.70
  -9   3   1    1.10    8.30
   8  -3  -1  212.88   12.30
   8  -3  -1  202.08   13.30
   8  -3  -1  211.98   26.50
   8  -3  -1  210.18   14.30
   8  -3  -1  213.58   11.40
   8  -3  -1  178.18   36.10
  -8   3   1  215.18   15.40
  -8   3   1  214.98   14.60
  -8   3   1  207.28   11.00
   7  -3  -1    8.10   12.50
   7  -3  -1    0.20    2.80
   7  -3  -1    5.60    9.80
   7  -3  -1    3.70    4.20
   7  -3  -1   -0.10    4.40
  -7   3   1    2.90    4.30
  -7   3   1    2.90    2.50
  -7   3   1    0.50    4.50
   6  -3  -1 1174.28   51.99
   6  -3  -1 1193.78   39.10
   6  -3  -1 1226.78   39.40
   6  -3  -1 1176.88   52.09
  -6   3   1 1183.68   39.50
  -6   3   1 1160.28   41.60
  -6   3   1 1259.37   40.90
  -6   3   1 1152.18   38.50
   5  -3  -1   82.19    5.80
   5  -3  -1   82.09   12.00
   5  -3  -1   85.99   12.90
   5  -3  -1   73.69    4.80
   5  -3  -1   65.99    5.40
  -5   3   1   74.69    6.50
  -5   3   1   73.59    4.90
  -5   3   1   72.69    6.40
  -5   3   1   78.29    5.40
   4  -3  -1 2515.65   77.09
   4  -3  -1 2387.86   77.89
   4  -3  -1 2606.74   86.99
   4  -3  -1 2564.14   87.19
   4  -3  -1 2489.35   77.99
  -4   3   1 2439.36   78.39
  -4   3   1 2464.65   76.99
  -4   3   1 2457.75   77.19
  -4   3   1 2549.54   78.29
   3  -3  -1 1577.64   49.50
   3  -3  -1 1552.44   48.70
   3  -3  -1 1568.54   56.69
   3  -3  -1 1511.75   49.50
  -3   3   1 1615.64   57.09
  -3   3   1 1542.45   49.90
  -3   3   1 1563.34   48.90
  -3   3   1 1588.64   49.10
  -3   3   1 1583.94   49.80
   2  -3  -1 3166.78   99.89
   2  -3  -1 3264.67  106.39
  -2   3   1 3184.38   99.19
  -2   3   1 3284.17  100.09
  -2   3   1 3381.16  106.69
   1  -3  -1 7264.07  229.98
  -1   3   1 7502.95  229.88
   0  -3  -1 4376.46  143.09
   0   3   1 4547.65  142.69
  -1  -3  -1 6354.86  202.08
  -1  -3  -1 6706.83  210.38
   1   3   1 6894.21  210.08
  -2  -3  -1 3601.14  117.59
  -2  -3  -1 3840.52  126.99
   2   3   1 3820.72  116.49
   2   3   1 3744.43  117.79
   2   3   1 4080.09  127.29
  -3  -3  -1 1297.57   42.00
  -3  -3  -1 1286.37   52.39
  -3  -3  -1 1300.47   42.90
   3   3   1 1285.37   41.20
   3   3   1 1237.98   41.70
   3   3   1 1326.67   43.00
   3   3   1 1339.87   52.69
  -4  -3  -1 1014.40   46.70
  -4  -3  -1 1076.89   35.60
  -4  -3  -1 1051.19   36.40
   4   3   1 1030.70   46.90
   4   3   1 1008.50   34.80
   4   3   1 1050.19   34.20
   4   3   1 1099.19   36.60
  -5  -3  -1  126.89    7.00
  -5  -3  -1  135.99    9.10
  -5  -3  -1  126.39    9.30
  -5  -3  -1  119.69   19.70
   5   3   1  116.09    8.10
   5   3   1  123.09    9.80
   5   3   1  116.99   18.70
   5   3   1  125.49    7.70
  -6  -3  -1   29.80    7.20
  -6  -3  -1   33.20    4.40
  -6  -3  -1   54.29   16.20
  -6  -3  -1   30.00    6.00
   6   3   1   52.59    9.00
   6   3   1   39.50    5.50
   6   3   1   28.70    5.50
   6   3   1   21.00   16.10
  -7  -3  -1  179.28   13.80
  -7  -3  -1  191.28   15.40
  -7  -3  -1  182.38   32.40
   7   3   1  180.98   10.70
   7   3   1  176.38   35.70
   7   3   1  160.48   10.70
   7   3   1  175.58   14.60
   7   3   1  169.38   12.20
   8  -4  -1  148.19   29.40
   8  -4  -1  179.78   32.90
   8  -4  -1  136.59   10.70
   8  -4  -1  157.28   12.70
   8  -4  -1  144.19   10.60
  -8   4   1  158.28   13.20
  -8   4   1  140.59   12.30
  -8   4   1  141.29    9.50
   7  -4  -1  193.88   12.00
   7  -4  -1  190.58   10.00
   7  -4  -1  183.68   23.40
   7  -4  -1  185.38   22.40
   7  -4  -1  191.38   11.80
  -7   4   1  177.98   10.10
  -7   4   1  202.28   12.70
  -7   4   1  178.18   13.10
   6  -4  -1  749.73   39.80
   6  -4  -1  725.43   27.20
   6  -4  -1  751.22   27.20
   6  -4  -1  760.12   40.30
  -6   4   1  756.32   28.10
  -6   4   1  731.83   25.50
  -6   4   1  754.12   26.00
  -6   4   1  721.13   28.10
   5  -4  -1  891.91   40.80
   5  -4  -1  896.51   29.40
   5  -4  -1  848.82   40.50
   5  -4  -1  891.51   30.50
   5  -4  -1  824.92   30.40
  -5   4   1  870.91   29.30
  -5   4   1  901.71   31.00
  -5   4   1  939.21   31.50
  -5   4   1  868.31   29.50
   4  -4  -1 3250.57  111.69
   4  -4  -1 3299.57  101.39
   4  -4  -1 3109.19  101.39
   4  -4  -1 3361.86  100.39
  -4   4   1 3264.37  100.49
  -4   4   1 3281.97  101.79
  -4   4   1 3140.39  100.69
  -4   4   1 3506.25  112.89
  -4   4   1 3173.98  101.89
   3  -4  -1  315.57   13.20
   3  -4  -1  342.47   12.90
   3  -4  -1  365.66   12.40
   3  -4  -1  305.77   19.70
  -3   4   1  339.57   13.70
  -3   4   1  324.37   12.50
  -3   4   1  354.56   12.60
  -3   4   1  341.17   13.60
  -3   4   1  360.16   20.90
   2  -4  -1 4092.49  128.89
   2  -4  -1 4123.79  137.39
  -2   4   1 4380.46  137.79
  -2   4   1 4135.69  127.89
  -2   4   1 4252.37  129.19
  -2   4   1 4202.38  128.99
   1  -4  -1   28.40    6.60
   1  -4  -1   27.60    3.50
   1  -4  -1   26.90    3.10
  -1   4   1   19.30    6.60
  -1   4   1   23.70    3.40
  -1   4   1   24.00    3.40
  -1   4   1   25.80    2.40
   0  -4  -1  882.41   30.40
   0  -4  -1  884.01   38.60
   0  -4  -1  934.51   29.90
   0   4   1  898.71   29.10
   0   4   1  935.41   30.90
   0   4   1  914.01   30.10
   0   4   1  951.60   38.40
  -1  -4  -1  222.08   10.20
  -1  -4  -1  237.28    9.60
  -1  -4  -1  215.38   16.80
   1   4   1  231.58   16.40
   1   4   1  227.38    9.60
   1   4   1  228.48    9.10
   1   4   1  229.28   10.60
  -2  -4  -1   18.70    3.30
  -2  -4  -1   16.30    8.50
  -2  -4  -1   15.70    3.50
   2   4   1   11.60    7.60
   2   4   1   13.90    2.50
   2   4   1   14.10    3.50
   2   4   1   16.40    2.80
  -3  -4  -1 2009.70   63.79
  -3  -4  -1 1950.01   64.59
  -3  -4  -1 1940.11   76.59
   3   4   1 2100.59   65.09
   3   4   1 1904.71   63.29
   3   4   1 2045.00   76.59
   3   4   1 2035.50   62.89
  -4  -4  -1   76.89   13.70
  -4  -4  -1   81.49   16.20
   4   4   1  114.09   10.70
   4   4   1   93.89    7.20
   4   4   1   96.99    7.10
   4   4   1  105.89   17.10
  -5  -4  -1 1556.24   71.09
  -5  -4  -1 1675.53   54.39
  -5  -4  -1 1571.34   55.29
   5   4   1 1663.03   52.89
   5   4   1 1551.64   53.19
   5   4   1 1667.83   55.59
   5   4   1 1654.23   72.59
  -6  -4  -1  262.37   15.10
  -6  -4  -1  248.88   16.70
  -6  -4  -1  235.58   28.90
   6   4   1  248.08   13.90
   6   4   1  257.47   13.20
   6   4   1  253.37   16.30
   6   4   1  253.57   31.10
  -7  -4  -1  289.17   20.20
  -7  -4  -1  325.77   18.90
   7   4   1  312.27   16.50
   7   4   1  294.67   18.90
   7   4   1  323.27   41.30
   8  -5  -1  642.44   27.30
   8  -5  -1  678.03   25.30
   8  -5  -1  692.93   27.80
   8  -5  -1  716.23   47.30
   8  -5  -1  641.74   47.60
  -8   5   1  646.64   25.60
  -8   5   1  618.54   24.40
  -8   5   1  710.33   28.90
  -8   5   1  661.33   29.30
   7  -5  -1    8.80    5.40
   7  -5  -1    0.40    3.90
   7  -5  -1  -10.90   13.30
   7  -5  -1    0.10   14.30
   7  -5  -1   -0.30    4.70
  -7   5   1    5.60    5.20
  -7   5   1    2.90    3.70
  -7   5   1    8.20    3.80
  -7   5   1    5.40    6.00
   6  -5  -1  587.14   37.00
   6  -5  -1  632.04   22.30
   6  -5  -1  649.74   24.10
   6  -5  -1  590.04   24.00
   6  -5  -1  663.03   38.50
  -6   5   1  605.34   22.50
  -6   5   1  608.04   25.00
  -6   5   1  582.04   22.00
  -6   5   1  649.43   24.90
   5  -5  -1   25.90   10.50
  -5   5   1   31.50    6.10
  -5   5   1   22.20    3.70
  -5   5   1   17.80    4.10
   4  -5  -1  109.29    6.30
   4  -5  -1   97.99   13.80
   4  -5  -1  105.39    7.60
   4  -5  -1  108.79    6.80
  -4   5   1  113.49    6.60
  -4   5   1  115.99    7.60
  -4   5   1  102.59    6.50
  -4   5   1  105.49    8.00
  -4   5   1  129.19   16.70
   3  -5  -1 1084.89   34.20
   3  -5  -1 1043.30   35.80
   3  -5  -1 1023.30   45.80
   3  -5  -1 1055.19   35.10
  -3   5   1 1040.20   35.90
  -3   5   1 1077.09   36.10
  -3   5   1 1119.29   46.40
  -3   5   1 1045.20   34.40
   2  -5  -1  162.68    8.50
   2  -5  -1  162.38   15.20
   2  -5  -1  179.18    8.10
   2  -5  -1  176.88    7.40
  -2   5   1  164.28    7.60
  -2   5   1  176.48    8.70
  -2   5   1  172.58   16.00
  -2   5   1  174.38    9.40
   1  -5  -1 3017.30  106.79
   1  -5  -1 3154.08   94.99
   1  -5  -1 3024.80   95.69
  -1   5   1 2968.50   95.39
  -1   5   1 2953.60   94.09
  -1   5   1 3243.18  106.39
  -1   5   1 3098.69   96.19
   0  -5  -1  873.91   28.90
   0  -5  -1  822.32   39.60
   0  -5  -1  849.32   29.80
   0   5   1  847.92   28.00
   0   5   1  868.61   30.40
   0   5   1  920.81   40.20
   0   5   1  864.01   29.40
  -1  -5  -1 2029.30   62.79
  -1  -5  -1 1931.91   63.69
  -1  -5  -1 1941.51   75.99
   1   5   1 1953.40   62.79
   1   5   1 2082.39   75.49
   1   5   1 1868.41   61.49
   1   5   1 2010.60   64.29
   1   5   1 2012.30   62.29
  -2  -5  -1  765.02   26.20
  -2  -5  -1  732.93   38.80
  -2  -5  -1  715.93   27.20
   2   5   1  777.32   39.10
   2   5   1  740.63   25.50
   2   5   1  747.43   27.70
   2   5   1  714.83   26.00
  -3  -5  -1  525.45   33.90
   3   5   1  539.75   20.40
   3   5   1  536.65   34.10
   3   5   1  560.64   20.20
  -4  -5  -1  146.09   22.20
  -4  -5  -1  136.19   11.60
  -4  -5  -1  171.18   10.70
   4   5   1  142.49   10.70
   4   5   1  151.88    8.90
   4   5   1  159.48   25.10
  -5  -5  -1  288.17   14.70
  -5  -5  -1  249.28   16.50
  -5  -5  -1  256.37   33.00
   5   5   1  269.07   30.40
   5   5   1  292.07   14.00
   5   5   1  275.17   15.70
  -6  -5  -1   40.70    8.30
  -6  -5  -1   35.80    9.00
  -6  -5  -1   39.40   23.10
   6   5   1   23.90    7.90
   6   5   1   38.40    6.40
   6   5   1   33.90   26.30
   8  -6  -1   36.10    8.10
   8  -6  -1   24.50    6.30
   8  -6  -1   35.80   24.70
   8  -6  -1   28.00    7.30
   8  -6  -1   31.90   19.30
  -8   6   1   20.60    8.60
  -8   6   1   21.20    5.80
  -8   6   1   20.80    6.10
   7  -6  -1  439.46   35.90
   7  -6  -1  460.25   18.60
   7  -6  -1  459.75   21.20
   7  -6  -1  477.75   40.80
   7  -6  -1  475.25   20.80
  -7   6   1  481.75   22.20
  -7   6   1  444.46   18.80
  -7   6   1  466.95   19.80
  -7   6   1  451.05   21.80
   6  -6  -1  146.59    8.50
   6  -6  -1  154.78   10.50
   6  -6  -1  137.39   10.30
   6  -6  -1  172.58   24.30
  -6   6   1  143.39   12.20
  -6   6   1  150.88   10.80
  -6   6   1  147.49    9.20
  -6   6   1  141.19    9.10
   5  -6  -1  922.51   48.80
   5  -6  -1 1028.60   33.10
   5  -6  -1  936.71   34.50
   5  -6  -1 1007.90   34.40
  -5   6   1  974.10   33.40
  -5   6   1  967.30   35.70
  -5   6   1  987.40   49.50
  -5   6   1  996.00   35.30
   4  -6  -1  213.78   12.10
   4  -6  -1  193.98   13.40
   4  -6  -1  243.28   23.20
  -4   6   1  227.18   10.70
  -4   6   1  241.18   12.70
  -4   6   1  232.18   23.50
   3  -6  -1 1147.09   40.40
   3  -6  -1 1123.49   52.59
   3  -6  -1 1236.98   39.90
   3  -6  -1 1274.97   38.80
  -3   6   1 1232.68   53.19
  -3   6   1 1147.59   38.80
   2  -6  -1   12.80    3.00
   2  -6  -1   19.40   10.50
   2  -6  -1   18.20    4.30
  -2   6   1   14.80    4.40
  -2   6   1   14.10    4.00
  -2   6   1   24.30    3.20
  -2   6   1   30.20    9.30
   1  -6  -1 1571.84   66.49
   1  -6  -1 1623.14   54.19
  -1   6   1 1766.32   55.19
  -1   6   1 1706.23   66.19
  -1   6   1 1643.94   53.89
  -1   6   1 1601.14   52.19
   0  -6  -1   35.00   11.00
   0  -6  -1   34.50    6.20
   0  -6  -1   41.80    4.80
   0   6   1   37.70    6.40
   0   6   1   36.10    5.60
   0   6   1   35.90    4.20
   0   6   1   37.40   12.00
  -1  -6  -1 1788.12   54.89
  -1  -6  -1 1630.64   55.69
  -1  -6  -1 1578.54   70.39
   1   6   1 1730.13   57.19
   1   6   1 1596.74   53.09
   1   6   1 1787.62   54.79
   1   6   1 1701.23   68.99
   1   6   1 1639.34   54.89
  -2  -6  -1   24.40    5.80
  -2  -6  -1   33.90   12.40
  -2  -6  -1   36.90    6.40
   2   6   1   30.70    6.10
   2   6   1   23.60    5.80
   2   6   1   28.30    4.20
   2   6   1   26.00   13.20
  -3  -6  -1  439.36   34.20
  -3  -6  -1  502.35   19.70
  -3  -6  -1  462.85   21.00
   3   6   1  473.75   21.30
   3   6   1  448.16   33.40
   3   6   1  432.46   18.70
   3   6   1  482.55   18.90
  -4  -6  -1   67.89    9.30
  -4  -6  -1   93.39   20.30
  -4  -6  -1   73.99   11.70
   4   6   1   80.49    7.90
   4   6   1   82.79   21.70
   4   6   1   76.39    8.80
   4   6   1   71.19    9.80
  -5  -6  -1   25.40    9.00
  -5  -6  -1   26.50    7.40
  -5  -6  -1   27.20   19.20
   5   6   1   21.90    8.20
   5   6   1   20.50    6.20
   5   6   1   21.90    5.80
   5   6   1   38.60   24.30
   7  -7  -1  362.16   40.70
   7  -7  -1  380.26   43.20
   7  -7  -1  375.76   18.80
   7  -7  -1  375.96   20.00
   7  -7  -1  367.76   16.10
  -7   7   1  333.37   16.90
  -7   7   1  356.46   20.20
  -7   7   1  361.46   17.20
   6  -7  -1   -4.00   13.70
   6  -7  -1   10.10    5.20
   6  -7  -1    1.50    5.00
   6  -7  -1    0.40    4.10
  -6   7   1    2.00    6.40
  -6   7   1    6.80    6.20
  -6   7   1    0.80    4.20
   5  -7  -1 1129.59   57.19
   5  -7  -1 1235.68   39.90
   5  -7  -1 1251.37   41.50
   5  -7  -1 1144.99   42.10
  -5   7   1 1183.88   41.20
  -5   7   1 1219.98   42.90
  -5   7   1 1213.88   59.99
  -5   7   1 1167.48   43.10
  -5   7   1 1200.98   40.60
   4  -7  -1    6.60    4.10
   4  -7  -1   12.10    3.20
   4  -7  -1    8.10    5.00
   4  -7  -1    6.60   11.00
  -4   7   1    7.50    5.20
  -4   7   1   11.50    3.50
  -4   7   1   16.00    5.70
  -4   7   1    4.40    3.60
  -4   7   1    4.50   10.90
   3  -7  -1 1082.39   35.80
   3  -7  -1  978.00   36.50
   3  -7  -1 1125.09   34.90
   3  -7  -1  963.40   50.19
  -3   7   1 1044.70   50.39
  -3   7   1 1020.40   37.10
  -3   7   1 1004.70   34.60
  -3   7   1 1046.00   37.20
   2  -7  -1   14.20   12.40
   2  -7  -1   12.00    4.20
  -2   7   1   15.70    9.90
  -2   7   1   10.40    3.90
  -2   7   1    5.60    4.20
   1  -7  -1  147.79   21.00
   1  -7  -1  140.89   10.40
  -1   7   1  166.48   11.30
  -1   7   1  160.18    9.70
  -1   7   1  172.08   22.90
   0  -7  -1  212.78   27.40
   0  -7  -1  240.38   13.40
   0  -7  -1  258.97   12.20
   0   7   1  224.98   10.90
   0   7   1  247.28   11.80
   0   7   1  229.68   12.20
   0   7   1  251.57   14.50
   0   7   1  257.37   27.50
  -1  -7  -1   85.49    9.50
  -1  -7  -1   85.39   18.90
  -1  -7  -1   90.69    8.10
   1   7   1  108.19   23.40
   1   7   1   82.79   10.00
   1   7   1   79.69    7.70
   1   7   1   70.99    6.70
   1   7   1   78.09    6.50
  -2  -7  -1  694.73   45.90
  -2  -7  -1  794.02   28.00
  -2  -7  -1  721.43   29.30
   2   7   1  737.43   45.90
   2   7   1  747.13   30.10
   2   7   1  710.03   25.60
   2   7   1  714.13   27.80
   2   7   1  726.13   26.70
  -3  -7  -1  481.05   23.20
  -3  -7  -1  512.95   21.00
  -3  -7  -1  488.85   40.50
   3   7   1  507.95   20.70
   3   7   1  441.46   20.40
   3   7   1  498.65   23.80
   3   7   1  477.35   18.90
   3   7   1  490.35   39.40
  -4  -7  -1  235.28   14.50
  -4  -7  -1  -11.90   23.20
  -4  -7  -1  208.48   16.50
   4   7   1  236.58   41.20
   4   7   1  188.78   12.30
   4   7   1  219.48   13.50
   4   7   1  199.28   16.20
   6  -8  -1   21.40   22.00
   6  -8  -1    4.90    4.40
   6  -8  -1   13.40    7.80
   6  -8  -1    6.00    5.00
  -6   8   1    3.70    6.20
  -6   8   1    1.80    7.40
  -6   8   1   11.00    5.90
  -6   8   1    1.70    7.40
   5  -8  -1   48.90    8.30
   5  -8  -1   38.90    7.30
   5  -8  -1   45.00    6.30
   5  -8  -1   39.20   17.60
  -5   8   1   39.40    8.50
  -5   8   1   56.09   21.60
  -5   8   1   51.19    7.00
  -5   8   1   35.00    7.10
  -5   8   1   52.19    8.10
   4  -8  -1  218.78   12.00
   4  -8  -1  254.67   32.40
   4  -8  -1  228.68   10.90
   4  -8  -1  207.78   14.30
  -4   8   1  208.38   15.00
  -4   8   1  242.38   32.10
  -4   8   1  215.08   15.10
  -4   8   1  216.68   12.30
   3  -8  -1  410.66   37.90
   3  -8  -1  444.46   20.50
   3  -8  -1  454.45   18.80
  -3   8   1  422.16   34.40
  -3   8   1  452.55   18.10
  -3   8   1  429.56   20.80
  -3   8   1  454.25   21.30
   2  -8  -1  529.15   40.10
   2  -8  -1  464.25   21.10
  -2   8   1  461.15   18.80
  -2   8   1  507.85   22.80
  -2   8   1  479.35   21.70
  -2   8   1  509.05   35.80
   1  -8  -1 1300.37   46.70
   1  -8  -1 1391.26   45.30
   1  -8  -1 1280.17   66.29
  -1   8   1 1288.97   43.60
  -1   8   1 1327.57   44.30
  -1   8   1 1312.97   46.50
  -1   8   1 1382.66   65.39
  -1   8   1 1319.97   47.40
   0  -8  -1  144.29   10.30
   0  -8  -1  134.99   12.40
   0  -8  -1  123.29   25.00
   0   8   1  125.49   11.60
   0   8   1  131.49    9.20
   0   8   1  126.49   11.60
   0   8   1  135.29    8.90
   0   8   1  184.68   30.90
  -1  -8  -1  585.54   23.10
  -1  -8  -1  572.74   46.90
  -1  -8  -1  534.85   24.70
   1   8   1  552.34   22.00
   1   8   1  547.55   23.80
   1   8   1  540.15   21.00
   1   8   1  527.55   44.30
   1   8   1  569.64   25.90
  -2  -8  -1   37.80    7.20
  -2  -8  -1    4.80   22.40
  -2  -8  -1   37.80    8.50
   2   8   1   42.50    5.90
   2   8   1   39.30    7.20
   2   8   1   37.60    6.30
   2   8   1   35.00    8.80
   2   8   1   18.90   22.10
   4  -9  -1    0.90    7.20
   4  -9  -1   17.90   23.50
   4  -9  -1    8.20    5.90
  -4   9   1    5.20    8.60
  -4   9   1   15.30   24.40
  -4   9   1    6.10    5.00
   3  -9  -1  210.28   13.10
   3  -9  -1   31.00   24.10
   3  -9  -1  200.38   15.20
  -3   9   1  188.18   11.10
  -3   9   1  261.47   40.60
  -3   9   1  201.88   15.00
   2  -9  -1   40.20    8.80
   2  -9  -1   54.99    9.10
   2  -9  -1   16.00   22.90
  -2   9   1   57.29    9.40
  -2   9   1   66.59   24.20
  -2   9   1   40.70    9.20
  -2   9   1   54.49    7.60
  -2   9   1   52.99    6.80
   1  -9  -1   38.20    8.50
   1  -9  -1   37.40    6.70
   1  -9  -1   29.50   23.90
  -1   9   1   27.90    7.50
  -1   9   1   41.20    8.80
  -1   9   1   40.80   19.50
  -1   9   1   27.10    5.50
  -1   9   1   35.40    6.20
   0  -9  -1  187.98   15.30
   0  -9  -1   -5.10   24.80
   0  -9  -1  212.18   13.30
   0   9   1  178.48   11.10
   0   9   1  160.98   34.70
   0   9  -2   12.50    6.70
   0   9  -2   14.80   20.80
   0   9  -2    2.00    4.10
   0   9  -2    9.40    7.90
   0   9  -2    1.80    4.80
   0  -9   2   21.00   26.00
   0  -9   2    2.30    7.30
   0  -9   2    1.80    5.70
  -1   9  -2  397.96   16.80
  -1   9  -2  440.86   22.60
  -1   9  -2  499.75   42.40
  -1   9  -2  414.66   18.20
  -1   9  -2  419.56   21.20
   1  -9   2  413.36   22.10
   1  -9   2  369.26   52.09
   1  -9   2  422.56   19.70
  -2   9  -2  110.49   26.90
  -2   9  -2   78.89   11.10
  -2   9  -2   81.99    9.70
  -2   9  -2   96.99    8.00
  -2   9  -2   91.69   12.40
   2  -9   2   82.79   31.60
   2  -9   2   82.99   10.20
   2  -9   2   89.99   11.40
  -3   9  -2   27.50    6.10
  -3   9  -2   30.10    8.00
  -3   9  -2   35.20    5.60
  -3   9  -2   21.20   23.40
  -3   9  -2   33.70    8.60
   3  -9   2   34.10    6.10
   3  -9   2   26.40    8.30
   3  -9   2   12.10   18.50
  -4   9  -2   11.70    4.40
  -4   9  -2    4.50    5.00
  -4   9  -2    8.50    7.30
  -4   9  -2    8.30    6.10
  -4   9  -2   12.10   23.20
   4  -9   2   10.40    7.40
   4  -9   2   -2.20    4.60
   4  -9   2    7.00   21.70
   3   8  -2   86.09    8.30
   3   8  -2   63.09   28.30
  -3  -8   2   95.59   13.90
  -3  -8   2   83.29   33.70
   2   8  -2   27.30    5.80
   2   8  -2   24.70    4.30
   2   8  -2   28.90    6.20
   2   8  -2   21.20    8.30
  -2  -8   2   28.60    6.70
  -2  -8   2   22.40    8.50
   1   8  -2   28.30    6.40
   1   8  -2   25.40    7.60
   1   8  -2   21.30    3.90
   1   8  -2   21.10    5.80
   1   8  -2   32.30   19.60
  -1  -8   2   27.20    6.10
  -1  -8   2   17.20    6.30
  -1  -8   2   15.00   19.70
   0   8  -2  437.16   17.70
   0   8  -2  433.56   38.50
   0   8  -2  427.56   21.10
   0   8  -2  431.96   19.90
   0   8  -2  402.66   16.00
   0  -8   2  406.46   20.80
   0  -8   2  417.36   39.40
   0  -8   2  445.26   18.90
  -1   8  -2  129.89   11.10
  -1   8  -2  138.19    8.60
  -1   8  -2  126.19   11.30
  -1   8  -2  151.38   28.50
  -1   8  -2  124.59    7.50
   1  -8   2  143.09   28.40
   1  -8   2  120.49   12.00
  -2   8  -2  858.31   33.30
  -2   8  -2  896.31   49.30
  -2   8  -2  905.81   31.00
  -2   8  -2  926.31   34.60
  -2   8  -2  869.31   30.10
   2  -8   2  935.11   32.60
   2  -8   2  852.91   49.70
   2  -8   2  880.11   34.20
  -3   8  -2  225.38   27.90
  -3   8  -2  243.68   11.20
  -3   8  -2  218.38   13.90
  -3   8  -2  237.18   11.20
  -3   8  -2  245.28   15.30
   3  -8   2  207.58   30.50
   3  -8   2  233.28   12.50
   3  -8   2  226.68   14.80
  -4   8  -2  680.73   28.20
  -4   8  -2  660.83   24.20
  -4   8  -2  684.23   43.50
  -4   8  -2  665.33   28.10
   4  -8   2  682.73   23.50
   4  -8   2  649.83   27.70
   4  -8   2  686.63   26.40
   4  -8   2  630.84   42.90
  -5   8  -2   43.40    6.50
  -5   8  -2   35.60    8.40
  -5   8  -2   39.60    6.00
  -5   8  -2   40.20    7.30
  -5   8  -2   48.20   26.00
   5  -8   2   46.80    7.20
   5  -8   2   43.00    5.40
   5  -8   2   34.40    6.90
  -6   8  -2  465.45   43.00
  -6   8  -2  463.25   23.00
  -6   8  -2  467.15   19.40
  -6   8  -2  437.26   21.40
  -6   8  -2  423.16   22.60
   6  -8   2  434.86   22.00
   6  -8   2  421.06   40.60
   6  -8   2  450.85   18.00
   4   7  -2  443.56   19.70
   4   7  -2  433.66   20.70
   4   7  -2  451.95   23.20
   4   7  -2  450.75   48.00
  -4  -7   2  444.36   23.60
  -4  -7   2  431.46   42.20
  -4  -7   2  495.95   22.00
   3   7  -2  278.67   31.40
   3   7  -2  256.07   15.30
   3   7  -2  247.58   13.20
   3   7  -2  242.68   14.30
   3   7  -2  234.98   11.00
  -3  -7   2  242.78   16.80
  -3  -7   2  265.87   14.80
  -3  -7   2  253.97   35.40
   2   7  -2  503.45   22.50
   2   7  -2  510.25   18.30
   2   7  -2  499.25   21.30
   2   7  -2  518.15   20.10
   2   7  -2  516.95   37.10
  -2  -7   2  532.65   21.30
  -2  -7   2  485.65   23.10
  -2  -7   2  511.85   41.30
   1   7  -2   95.59    9.20
   1   7  -2  102.59   10.50
   1   7  -2  119.79   24.20
   1   7  -2  104.59    6.20
   1   7  -2  100.09    7.50
  -1  -7   2  109.29   21.70
  -1  -7   2  117.79    8.80
  -1  -7   2  104.59   10.90
   0   7  -2  519.15   35.20
   0   7  -2  509.05   18.90
   0   7  -2  484.55   20.30
   0   7  -2  457.75   17.20
   0   7  -2  546.35   22.00
   0  -7   2  483.35   20.90
   0  -7   2  451.15   34.40
   0  -7   2  510.45   19.90
  -1   7  -2   17.50   12.80
  -1   7  -2   13.50    2.80
  -1   7  -2    5.00    5.10
  -1   7  -2   16.10    4.70
  -1   7  -2   19.70    4.80
   1  -7   2   24.80   13.80
   1  -7   2   18.30    3.90
   1  -7   2   15.00    5.10
  -2   7  -2  602.84   37.50
  -2   7  -2  593.04   21.20
  -2   7  -2  577.14   20.60
  -2   7  -2  592.94   23.50
  -2   7  -2  626.34   24.40
   2  -7   2  576.24   38.00
   2  -7   2  616.54   22.70
   2  -7   2  565.24   23.30
  -3   7  -2  286.37   14.70
  -3   7  -2  301.37   15.30
  -3   7  -2  279.47   11.70
  -3   7  -2  261.37   24.70
   3  -7   2  266.67   14.00
   3  -7   2  296.37   11.40
   3  -7   2  298.27   13.40
   3  -7   2  264.67   27.40
  -4   7  -2  259.37   13.70
  -4   7  -2  230.88   14.00
  -4   7  -2  247.48   11.10
  -4   7  -2  246.18   25.10
   4  -7   2  233.78   14.00
   4  -7   2  265.97   28.00
   4  -7   2  248.18   12.40
   4  -7   2  246.88   10.60
  -5   7  -2  864.11   30.00
  -5   7  -2  882.41   50.09
  -5   7  -2  847.52   33.10
  -5   7  -2  918.31   33.50
  -5   7  -2  839.92   31.00
   5  -7   2  828.22   32.60
   5  -7   2  913.61   29.60
   5  -7   2  863.81   31.60
   5  -7   2  823.72   47.40
  -6   7  -2   10.90    5.70
  -6   7  -2    8.10    4.70
  -6   7  -2    2.20    5.30
  -6   7  -2    6.40    4.70
   6  -7   2   16.10    6.50
   6  -7   2   -1.40    5.20
   6  -7   2    9.00    4.10
  -7   7  -2  375.36   20.70
  -7   7  -2  354.66   16.30
  -7   7  -2  369.86   20.40
  -7   7  -2  341.27   15.20
   7  -7   2  365.46   16.30
   7  -7   2  345.47   18.40
   7  -7   2  352.06   17.80
   7  -7   2  348.97   40.80
   5   6  -2    4.90   18.70
   5   6  -2   17.70    7.90
   5   6  -2   14.60    5.50
   5   6  -2   10.60    5.30
  -5  -6   2   17.10    5.80
  -5  -6   2   13.90    8.60
  -5  -6   2   31.20   18.70
   4   6  -2  938.91   54.89
   4   6  -2  970.00   36.60
   4   6  -2  979.00   33.80
   4   6  -2  930.31   34.40
  -4  -6   2  964.30   55.39
  -4  -6   2  945.51   37.20
   3   6  -2   15.80    3.90
   3   6  -2   16.10    5.80
   3   6  -2   24.30   15.70
   3   6  -2   29.10    5.30
  -3  -6   2    9.70   14.70
  -3  -6   2   17.40    4.80
  -3  -6   2   10.50    5.20
   2   6  -2 2368.36   78.09
   2   6  -2 2609.14   95.99
   2   6  -2 2539.05   77.59
   2   6  -2 2517.25   79.89
   2   6  -2 2330.27   75.69
  -2  -6   2 2566.84   78.59
  -2  -6   2 2271.57   94.69
  -2  -6   2 2399.06   79.79
   1   6  -2  155.88    6.80
   1   6  -2  155.78   20.90
   1   6  -2  152.18    9.60
   1   6  -2  156.08    8.30
   1   6  -2  150.78   10.70
  -1  -6   2  181.38    9.50
  -1  -6   2  142.39    9.90
  -1  -6   2  152.38   21.90
   0   6  -2 1838.62   71.09
   0   6  -2 1661.93   55.09
   0   6  -2 1723.63   57.49
   0   6  -2 1879.71   58.99
   0   6  -2 1807.32   56.39
   0  -6   2 1730.13   58.39
   0  -6   2 1777.02   72.69
  -1   6  -2  137.79   16.10
  -1   6  -2  121.39    8.30
  -1   6  -2  134.69    8.70
  -1   6  -2  128.09    6.20
  -1   6  -2  125.69    6.80
   1  -6   2  131.69    8.00
   1  -6   2  127.49    8.50
   1  -6   2  125.49   16.60
  -2   6  -2  542.45   21.10
  -2   6  -2  581.74   22.20
  -2   6  -2  568.14   32.70
  -2   6  -2  537.45   19.00
   2  -6   2  518.95   31.40
   2  -6   2  595.24   21.00
   2  -6   2  562.14   18.80
   2  -6   2  542.55   21.40
  -3   6  -2  391.26   14.40
  -3   6  -2  366.96   16.70
  -3   6  -2  404.06   28.20
  -3   6  -2  399.96   17.20
   3  -6   2  371.46   26.30
   3  -6   2  399.56   14.00
  -4   6  -2  591.54   22.10
  -4   6  -2  620.14   24.00
  -4   6  -2  611.54   36.40
  -4   6  -2  617.34   21.30
  -4   6  -2  613.74   23.90
   4  -6   2  597.34   23.80
   4  -6   2  625.94   21.00
   4  -6   2  588.14   35.90
  -5   6  -2 1347.67   47.40
  -5   6  -2 1357.76   45.90
  -5   6  -2 1459.55   47.80
  -5   6  -2 1422.96   61.59
   5  -6   2 1316.77   47.10
   5  -6   2 1345.27   61.09
   5  -6   2 1414.56   46.80
  -6   6  -2 1009.00   37.30
  -6   6  -2 1013.10   37.10
  -6   6  -2 1020.30   34.80
  -6   6  -2  979.30   33.80
   6  -6   2  978.10   36.70
   6  -6   2 1099.79   34.70
   6  -6   2 1043.20   51.89
   6  -6   2 1036.60   36.90
   6  -6   2  993.80   52.79
  -7   6  -2  570.04   23.60
  -7   6  -2  519.55   23.50
  -7   6  -2  494.75   19.30
  -7   6  -2  519.65   20.70
   7  -6   2  536.45   41.40
   7  -6   2  528.65   20.60
   7  -6   2  532.65   23.00
   7  -6   2  558.84   40.20
   7  -6   2  517.25   22.60
  -8   6  -2  556.34   25.60
  -8   6  -2  524.15   20.20
  -8   6  -2  531.55   25.80
   8  -6   2  499.35   42.80
   8  -6   2  544.95   21.50
   6   5  -2  446.46   19.00
   6   5  -2  452.25   43.60
   6   5  -2  469.85   23.20
   6   5  -2  479.55   20.70
  -6  -5   2  467.05   21.70
  -6  -5   2  445.86   23.30
  -6  -5   2  493.35   54.69
   5   5  -2  172.28   31.40
   5   5  -2  157.18   13.00
   5   5  -2  152.58   11.00
   5   5  -2  163.08   11.00
  -5  -5   2  190.48   12.50
  -5  -5   2  175.58   13.20
  -5  -5   2  169.08   29.70
   4   5  -2  450.75   17.90
   4   5  -2  428.26   18.10
   4   5  -2  441.76   19.30
   4   5  -2  452.05   32.30
  -4  -5   2  414.86   19.70
  -4  -5   2  468.95   18.90
  -4  -5   2  403.46   32.10
   3   5  -2    8.00    9.60
   3   5  -2   11.30    4.70
   3   5  -2   11.80    3.70
   3   5  -2    9.50    3.10
  -3  -5   2   17.70   11.90
  -3  -5   2   15.70    5.20
  -3  -5   2   11.20    4.10
   2   5  -2  788.22   39.20
   2   5  -2  756.12   28.00
   2   5  -2  776.02   26.30
   2   5  -2  791.32   27.10
  -2  -5   2  723.73   27.90
  -2  -5   2  731.93   39.40
  -2  -5   2  812.42   27.30
   1   5  -2 1249.47   42.20
   1   5  -2 1196.68   40.10
   1   5  -2 1322.57   41.60
   1   5  -2 1358.46   54.39
   1   5  -2 1309.07   43.40
  -1  -5   2 1289.87   43.50
  -1  -5   2 1248.88   54.79
  -1  -5   2 1312.57   42.20
   0   5  -2 2757.12   87.29
   0   5  -2 2808.32   85.49
   0   5  -2 2692.03   86.39
   0   5  -2 2945.41   98.29
   0   5  -2 2611.44   84.39
   0  -5   2 2752.82   98.89
   0  -5   2 2811.92   86.29
   0  -5   2 2735.63   87.29
  -1   5  -2 2147.49   75.29
  -1   5  -2 1990.80   62.89
  -1   5  -2 1935.11   64.09
  -1   5  -2 1944.51   62.19
  -1   5  -2 2092.89   64.89
   1  -5   2 2040.80   75.69
   1  -5   2 2013.00   63.79
   1  -5   2 2005.10   64.69
  -2   5  -2 4008.20  127.79
  -2   5  -2 3996.60  125.89
  -2   5  -2 4371.66  139.19
  -2   5  -2 4272.17  128.49
   2  -5   2 3967.20  127.99
   2  -5   2 4073.89  138.99
   2  -5   2 4189.48  125.79
   2  -5   2 4209.78  127.49
  -3   5  -2  671.23   23.70
  -3   5  -2  666.33   33.00
  -3   5  -2  622.94   23.20
  -3   5  -2  616.24   21.30
   3  -5   2  624.94   23.20
   3  -5   2  611.64   32.10
   3  -5   2  674.73   23.00
   3  -5   2  613.44   21.00
  -4   5  -2 1898.11   61.49
  -4   5  -2 1892.81   59.39
  -4   5  -2 1845.12   60.09
  -4   5  -2 1925.21   73.19
  -4   5  -2 1959.50   61.59
   4  -5   2 1939.31   59.29
   4  -5   2 1840.02   72.39
   4  -5   2 1814.42   61.29
   4  -5   2 1938.21   61.19
  -5   5  -2  124.79   10.60
  -5   5  -2  116.59    7.40
  -5   5  -2  105.79   10.30
  -5   5  -2  121.19    7.00
   5  -5   2  121.79    8.90
   5  -5   2  113.39   16.30
   5  -5   2  114.79    6.40
   5  -5   2  123.89    8.50
  -6   5  -2  474.55   20.80
  -6   5  -2  479.75   17.30
  -6   5  -2  517.95   21.00
  -6   5  -2  488.45   18.50
   6  -5   2  465.45   19.70
   6  -5   2  506.35   32.10
   6  -5   2  476.45   20.10
   6  -5   2  496.45   20.40
   6  -5   2  463.25   33.00
  -7   5  -2   84.99   10.80
  -7   5  -2   88.59    6.70
  -7   5  -2   90.19    9.10
   7  -5   2  126.29   26.10
   7  -5   2   89.39   19.90
   7  -5   2   89.49    8.00
   7  -5   2   82.39    9.10
   7  -5   2   84.89   10.00
  -8   5  -2  217.88   10.50
  -8   5  -2  218.68   16.20
  -8   5  -2  221.58   15.50
   8  -5   2  225.18   13.00
   8  -5   2  220.08   29.80
   8  -5   2  247.68   37.50
   8  -5   2  216.78   15.10
   8  -5   2  224.08   15.50
   7   4  -2   27.20    6.20
   7   4  -2   20.00    6.40
   7   4  -2   10.70    8.00
   7   4  -2   20.60    5.10
   7   4  -2   11.00   25.90
  -7  -4   2   15.30    7.20
  -7  -4   2   16.50    8.80
  -7  -4   2   23.20   19.90
  -7  -4   2   23.30    5.60
   6   4  -2  452.45   21.70
   6   4  -2  477.25   19.60
   6   4  -2  477.25   38.20
   6   4  -2  438.96   19.70
   6   4  -2  452.45   18.20
  -6  -4   2  442.16   36.60
  -6  -4   2  464.85   19.00
  -6  -4   2  461.55   22.70
  -6  -4   2  458.65   21.00
   5   4  -2  266.17   14.50
   5   4  -2  271.07   12.20
   5   4  -2  245.48   12.70
   5   4  -2  284.67   27.40
  -5  -4   2  267.57   13.70
  -5  -4   2  219.38   25.00
  -5  -4   2  246.98   11.70
  -5  -4   2  235.58   14.20
   4   4  -2 1806.72   59.49
   4   4  -2 1819.32   57.89
   4   4  -2 1923.11   75.29
  -4  -4   2 1639.94   57.69
  -4  -4   2 1780.52   60.09
  -4  -4   2 1816.42   74.09
  -4  -4   2 1855.31   58.89
   3   4  -2  501.55   19.50
   3   4  -2  475.35   29.00
   3   4  -2  477.45   18.20
   3   4  -2  501.55   17.80
  -3  -4   2  515.25   18.60
  -3  -4   2  447.66   28.70
  -3  -4   2  493.35   17.60
  -3  -4   2  481.55   19.70
   2   4  -2 2639.34   82.09
   2   4  -2 2791.02   94.89
   2   4  -2 2624.14   83.59
   2   4  -2 2524.15   82.49
  -2  -4   2 2677.93   82.79
  -2  -4   2 2599.04   83.69
  -2  -4   2 2671.43   81.99
  -2  -4   2 2678.53   95.49
   1   4  -2 1146.69   36.00
   1   4  -2 1074.09   36.30
   1   4  -2 1123.89   37.30
   1   4  -2 1176.48   46.50
  -1  -4   2 1121.99   37.40
  -1  -4   2 1123.69   36.40
  -1  -4   2 1078.09   46.30
   0   4  -2 1904.11   63.19
   0   4  -2 2060.59   64.79
   0   4  -2 2172.18   74.09
   0   4  -2 2088.09   64.09
   0   4  -2 2101.19   65.59
   0  -4   2 2076.19   64.59
   0  -4   2 2116.19   74.89
   0  -4   2 2044.30   65.49
  -1   4  -2 2854.11   87.59
  -1   4  -2 2934.71   96.19
  -1   4  -2 2859.31   86.49
  -1   4  -2 2770.12   85.89
  -1   4  -2 2849.71   87.99
   1  -4   2 2727.73   87.79
   1  -4   2 2837.62   96.49
   1  -4   2 2754.12   85.79
   1  -4   2 2829.42   87.29
  -2   4  -2 1832.12   56.89
  -2   4  -2 1751.02   54.89
  -2   4  -2 1773.72   56.49
  -2   4  -2 1804.92   64.69
   2  -4   2 1699.03   56.59
   2  -4   2 1842.72   56.29
   2  -4   2 1812.62   54.79
   2  -4   2 1742.93   64.59
  -3   4  -2 2808.12   88.29
  -3   4  -2 2838.62   87.69
  -3   4  -2 3002.80   98.69
  -3   4  -2 2911.81   89.39
  -3   4  -2 2841.82   89.29
   3  -4   2 2853.61   98.19
   3  -4   2 2895.51   89.09
   3  -4   2 2843.02   87.49
   3  -4   2 2769.32   89.19
  -4   4  -2 1032.30   44.10
  -4   4  -2 1079.49   34.40
  -4   4  -2 1050.29   33.70
  -4   4  -2 1037.40   35.30
  -4   4  -2 1046.90   35.20
   4  -4   2 1076.99   35.20
   4  -4   2  995.90   35.00
   4  -4   2 1063.59   33.60
   4  -4   2 1016.20   44.10
  -5   4  -2 1341.27   42.60
  -5   4  -2 1411.46   45.20
  -5   4  -2 1337.87   43.40
  -5   4  -2 1347.67   45.20
   5  -4   2 1359.46   45.00
   5  -4   2 1333.17   56.29
   5  -4   2 1313.67   44.90
   5  -4   2 1375.46   56.19
   5  -4   2 1364.66   43.30
  -6   4  -2   61.89    4.80
  -6   4  -2   58.49    7.40
  -6   4  -2   56.59    6.80
   6  -4   2   59.39    5.20
   6  -4   2   64.09    7.30
   6  -4   2   58.79   13.10
   6  -4   2   51.89   12.20
   6  -4   2   55.79    7.20
  -7   4  -2  730.33   27.20
  -7   4  -2  667.23   23.20
  -7   4  -2  654.33   27.10
   7  -4   2  665.93   26.20
   7  -4   2  648.34   39.70
   7  -4   2  707.93   24.90
   7  -4   2  687.93   42.40
   7  -4   2  676.73   26.60
  -8   4  -2   62.09    6.20
  -8   4  -2   63.79   11.30
  -8   4  -2   84.99   10.90
   8  -4   2   63.69   10.80
   8  -4   2   49.60    8.80
   8  -4   2   54.99    8.50
   8  -4   2   73.59   18.10
   8  -4   2   42.30   18.70
   7   3  -2  161.28   34.70
   7   3  -2  146.09   13.70
   7   3  -2  156.08   10.30
   7   3  -2  154.98   11.50
   7   3  -2  156.38   10.30
  -7  -3   2  158.88   31.60
  -7  -3   2  162.98   13.30
  -7  -3   2  143.69   10.00
  -7  -3   2  139.89   14.90
   6   3  -2  365.76   16.70
   6   3  -2  386.26   18.20
   6   3  -2  383.36   15.90
   6   3  -2  396.86   34.80
   6   3  -2  368.86   15.10
  -6  -3   2  405.56   18.10
  -6  -3   2  368.66   15.80
  -6  -3   2  367.46   33.10
  -6  -3   2  364.06   19.20
   5   3  -2  870.01   31.00
   5   3  -2  931.61   30.20
   5   3  -2  901.61   46.00
   5   3  -2  936.41   33.20
   5   3  -2  924.41   30.90
  -5  -3   2  870.91   44.50
  -5  -3   2  889.11   30.50
  -5  -3   2  869.21   32.90
   4   3  -2 1212.88   40.20
   4   3  -2 1227.68   41.30
   4   3  -2 1245.08   39.90
   4   3  -2 1240.98   53.09
  -4  -3   2 1255.57   39.70
  -4  -3   2 1263.77   40.80
  -4  -3   2 1154.88   52.09
  -4  -3   2 1181.88   41.60
   3   3  -2 2172.58   76.79
   3   3  -2 2081.69   64.59
   3   3  -2 2080.89   65.99
   3   3  -2 2008.00   64.89
  -3  -3   2 2033.60   65.19
  -3  -3   2 2059.19   64.49
  -3  -3   2 2041.50   76.19
  -3  -3   2 2079.99   66.39
   2   3  -2 3412.76  108.29
   2   3  -2 3017.90   97.49
   2   3  -2 3241.98   98.49
   2   3  -2 3153.28   97.29
  -2  -3   2 3142.09   97.19
  -2  -3   2 2949.80   98.39
  -2  -3   2 3309.37  108.49
  -2  -3   2 3165.48   97.79
   1   3  -2 1372.16   43.00
   1   3  -2 1321.57   43.30
   1   3  -2 1396.06   44.10
   1   3  -2 1493.95   51.79
  -1  -3   2 1357.46   42.90
  -1  -3   2 1344.77   44.10
  -1  -3   2 1371.46   51.49
  -1  -3   2 1363.46   43.40
   0   3  -2 2038.10   65.69
   0   3  -2 2147.29   66.29
   0   3  -2 2109.19   65.19
   0   3  -2 2254.47   72.99
   0  -3   2 2080.89   66.29
   0  -3   2 2149.88   72.99
   0  -3   2 2098.39   65.59
  -1   3  -2 1055.49   34.20
  -1   3  -2 1032.20   33.00
  -1   3  -2 1108.79   40.30
  -1   3  -2 1094.09   34.60
   1  -3   2 1058.59   33.00
   1  -3   2 1068.39   34.50
   1  -3   2 1067.89   40.30
   1  -3   2 1087.49   34.10
  -2   3  -2    5.70    1.00
  -2   3  -2    4.20    1.60
  -2   3  -2    2.40    3.70
  -2   3  -2    2.70    1.30
   2  -3   2    2.20    0.80
   2  -3   2    5.80    1.70
   2  -3   2    6.40    3.90
   2  -3   2    3.90    1.30
  -3   3  -2 3369.36  101.29
  -3   3  -2 3329.27  100.49
  -3   3  -2 3206.28   99.99
  -3   3  -2 3224.98  101.19
  -3   3  -2 3392.76  108.99
   3  -3   2 3229.38  101.09
   3  -3   2 3292.87  108.69
   3  -3   2 3181.78  101.19
   3  -3   2 3298.67   99.99
  -4   3  -2  141.09    6.00
  -4   3  -2  148.79    7.80
  -4   3  -2  163.88    7.90
  -4   3  -2  142.89    6.60
   4  -3   2  155.08    7.90
   4  -3   2  155.08    7.80
   4  -3   2  153.58   13.40
   4  -3   2  156.78   13.20
   4  -3   2  153.78    6.70
  -5   3  -2 3761.52  120.09
  -5   3  -2 4137.99  122.79
  -5   3  -2 3883.01  122.59
   5  -3   2 3796.22  122.29
   5  -3   2 4134.79  133.69
   5  -3   2 3912.61  133.19
   5  -3   2 3956.00  122.69
   5  -3   2 4024.90  121.19
  -6   3  -2   54.29    7.80
  -6   3  -2   28.60    3.20
  -6   3  -2   24.00    5.00
   6  -3   2   25.00   11.00
   6  -3   2   26.70    3.90
   6  -3   2   35.30    6.10
   6  -3   2   22.10   10.60
   6  -3   2   27.80    5.00
  -7   3  -2 1442.86   47.40
  -7   3  -2 1430.46   50.79
  -7   3  -2 1562.24   51.09
   7  -3   2 1567.14   67.59
   7  -3   2 1502.65   51.29
   7  -3   2 1448.85   50.49
   7  -3   2 1477.85   65.99
   7  -3   2 1550.24   49.70
   7  -3   2 1523.15   49.20
  -8   3  -2   80.89    9.40
  -8   3  -2   83.89   11.40
  -8   3  -2   81.59    6.20
   8  -3   2   76.29   10.70
   8  -3   2   74.99    7.50
   8  -3   2   83.09   19.50
   8  -3   2   74.89    9.90
   8  -3   2   93.49   24.50
  -9   3  -2  136.59   15.00
  -9   3  -2  142.29   12.80
   9  -3   2  146.09   31.20
   9  -3   2  141.89   12.70
   9  -3   2  101.19   27.80
   8   2  -2  331.57   46.00
   8   2  -2  312.67   15.00
   8   2  -2  291.87   15.50
   8   2  -2  306.97   17.70
   8   2  -2  297.17   15.20
  -8  -2   2  335.97   18.70
  -8  -2   2  313.97   40.90
  -8  -2   2  314.67   20.00
   7   2  -2  286.77   13.20
   7   2  -2  287.47   31.10
   7   2  -2  285.77   14.60
   7   2  -2  277.47   15.30
   7   2  -2  292.97   13.10
  -7  -2   2  285.57   29.00
  -7  -2   2  278.47   17.20
  -7  -2   2  295.17   15.20
  -7  -2   2  284.47   13.00
   6   2  -2  688.53   39.40
   6   2  -2  663.83   25.40
   6   2  -2  625.14   23.90
   6   2  -2  632.54   25.10
  -6  -2   2  635.24   37.30
  -6  -2   2  684.93   25.10
  -6  -2   2  638.84   23.30
  -6  -2   2  629.64   26.10
   5   2  -2  220.68    9.70
   5   2  -2  225.38   11.60
   5   2  -2  226.28   20.30
   5   2  -2  220.88   10.40
   5   2  -2  236.38   10.00
  -5  -2   2  228.58   19.90
  -5  -2   2  218.58   10.00
  -5  -2   2  222.38   11.10
  -5  -2   2  222.68   11.70
   4   2  -2   74.79    5.70
   4   2  -2   69.19    4.30
   4   2  -2   74.99    5.30
   4   2  -2   71.29    5.10
   4   2  -2   81.09   12.60
  -4  -2   2   62.19   11.10
  -4  -2   2   71.49    5.90
  -4  -2   2   79.69    5.80
  -4  -2   2   72.29    4.70
   3   2  -2 1571.54   56.29
   3   2  -2 1492.55   47.20
   3   2  -2 1510.95   46.30
   3   2  -2 1426.06   46.40
  -3  -2   2 1442.26   47.40
  -3  -2   2 1437.06   55.09
  -3  -2   2 1423.16   46.10
  -3  -2   2 1450.05   46.70
   2   2  -2  366.26   13.30
   2   2  -2  344.97   12.60
   2   2  -2  344.27   12.40
   2   2  -2  357.36   18.80
  -2  -2   2  347.67   13.40
  -2  -2   2  364.46   12.50
  -2  -2   2  365.16   12.80
  -2  -2   2  415.56   19.80
   1   2  -2 9999.00  307.57
   0   2  -2   45.30    5.00
   0   2  -2   37.20    1.60
   0   2  -2   42.50    2.20
   0   2  -2   46.30    2.90
   0   2  -2   40.80    2.50
   0  -2   2   39.20    5.20
   0  -2   2   44.80    2.90
   0  -2   2   48.60    2.30
   0  -2   2   40.00    2.50
  -2   2  -2  550.74   18.60
  -2   2  -2  567.34   18.60
  -2   2  -2  560.94   17.80
  -2   2  -2  581.24   18.20
  -2   2  -2  555.14   22.90
   2  -2   2  543.25   18.60
   2  -2   2  553.94   22.90
   2  -2   2  558.44   17.80
   2  -2   2  574.74   18.70
  -3   2  -2 4499.35  136.49
   3  -2   2 4432.36  136.59
   3  -2   2 4544.35  135.89
   3  -2   2 4377.46  142.39
   3  -2   2 4497.75  142.99
  -4   2  -2   86.29    5.40
  -4   2  -2   96.39    5.60
  -4   2  -2   95.19    4.10
   4  -2   2   93.19    5.00
   4  -2   2   99.39    6.00
   4  -2   2   90.79   10.40
   4  -2   2   96.99   10.00
   4  -2   2   89.09    5.60
   4  -2   2   99.09    5.10
  -5   2  -2  873.81   29.20
  -5   2  -2  800.32   26.60
  -5   2  -2  828.02   29.10
   5  -2   2  812.12   28.80
   5  -2   2  845.12   29.30
   5  -2   2  845.62   37.60
   5  -2   2  817.62   37.70
   5  -2   2  849.52   27.90
   5  -2   2  877.41   28.30
  -6   2  -2  100.79    5.30
  -6   2  -2  105.59    8.10
  -6   2  -2  104.19    8.20
   6  -2   2   99.19   16.80
   6  -2   2  105.09   15.20
   6  -2   2   98.69    7.30
  -7   2  -2  415.86   18.80
  -7   2  -2  392.56   14.90
  -7   2  -2  428.96   18.60
   7  -2   2  407.66   29.90
   7  -2   2  416.96   17.10
   7  -2   2  398.66   17.80
   7  -2   2  413.36   31.10
   7  -2   2  428.46   18.90
   7  -2   2  430.56   17.00
  -8   2  -2   81.09   11.30
  -8   2  -2  106.89   11.10
  -8   2  -2   79.79    6.30
   8  -2   2   81.99    8.70
   8  -2   2   77.89   20.70
   8  -2   2   79.39    9.50
   8  -2   2   69.69   18.40
   8  -2   2   70.69    8.60
   8  -2   2   75.29    8.80
  -9   2  -2  289.47   19.50
  -9   2  -2  332.87   19.00
   9  -2   2  313.97   18.50
   9  -2   2  281.87   35.30
   9  -2   2  318.67   39.30
   8   1  -2    8.90    5.40
   8   1  -2    7.40    5.30
   8   1  -2    6.00    5.00
   8   1  -2    2.20   20.00
   8   1  -2    9.70    6.90
  -8  -1   2    3.60    5.20
  -8  -1   2    9.50    8.10
  -8  -1   2    7.50    6.60
   7   1  -2  297.47   13.40
   7   1  -2  276.67   28.30
   7   1  -2  277.97   14.70
   7   1  -2  279.87   12.90
   7   1  -2  263.27   13.30
  -7  -1   2  305.27   15.60
  -7  -1   2  287.97   16.60
  -7  -1   2  284.77   29.50
  -7  -1   2  285.77   12.60
   6   1  -2   30.90    5.40
   6   1  -2   41.20   11.70
   6   1  -2   38.80    5.20
   6   1  -2   31.40    4.30
   6   1  -2   32.10    5.60
  -6  -1   2   27.30   10.30
  -6  -1   2   33.50    6.10
  -6  -1   2   35.00    5.00
   5   1  -2 2421.16   77.09
   5   1  -2 2489.95   89.79
   5   1  -2 2509.65   78.19
   5   1  -2 2511.25   76.69
   5   1  -2 2472.85   76.39
  -5  -1   2 2502.45   77.79
  -5  -1   2 2435.26   88.99
  -5  -1   2 2363.96   76.39
  -5  -1   2 2418.96   78.39
   4   1  -2  510.85   17.50
   4   1  -2  512.55   17.80
   4   1  -2  519.05   18.80
   4   1  -2  530.55   27.00
   4   1  -2  508.65   18.10
  -4  -1   2  519.05   18.50
  -4  -1   2  503.35   26.10
  -4  -1   2  530.45   17.80
  -4  -1   2  515.65   19.10
   3   1  -2 4688.73  142.39
   3   1  -2 4822.42  150.88
  -3  -1   2 4595.74  150.08
  -3  -1   2 4636.54  142.89
   2   1  -2  641.54   20.20
   2   1  -2  640.44   25.70
   2   1  -2  655.03   20.60
   2   1  -2  650.53   21.10
   2   1  -2  620.94   20.60
  -2  -1   2  630.44   20.70
  -2  -1   2  647.94   20.60
  -2  -1   2  655.13   21.20
  -2  -1   2  628.54   25.50
   1   1  -2 4542.85  139.19
  -1  -1   2 4407.66  138.99
   0   1  -2  172.08    5.80
   0   1  -2  175.08    7.80
   0   1  -2  170.08    5.90
   0   1  -2  170.38    5.70
   0  -1   2  168.68    6.00
   0  -1   2  176.28    5.70
   0  -1   2  173.38    5.80
   0  -1   2  166.98    7.80
  -2   1  -2  906.81   28.10
  -2   1  -2  925.71   29.10
  -2   1  -2  933.31   29.20
   2  -1   2  913.11   29.20
   2  -1   2  951.30   33.10
   2  -1   2  937.51   32.80
   2  -1   2  911.11   29.10
   2  -1   2  922.81   28.70
   2  -1   2  914.41   28.80
  -3   1  -2 3602.84  116.49
   3  -1   2 3580.64  110.79
   3  -1   2 3695.63  116.79
  -4   1  -2  374.26   20.10
  -4   1  -2  381.86   14.50
  -4   1  -2  367.76   12.60
  -4   1  -2  401.36   14.30
   4  -1   2  378.56   12.70
   4  -1   2  374.76   14.10
   4  -1   2  377.16   20.20
   4  -1   2  384.46   14.60
   4  -1   2  387.26   13.50
  -5   1  -2 1563.64   50.19
  -5   1  -2 1633.14   52.59
  -5   1  -2 1624.24   61.69
  -5   1  -2 1686.13   52.49
   5  -1   2 1563.04   50.29
   5  -1   2 1568.54   51.99
   5  -1   2 1674.73   52.99
   5  -1   2 1651.63   62.09
   5  -1   2 1655.33   51.39
  -6   1  -2  262.67   12.60
  -6   1  -2  248.18   20.20
  -6   1  -2  285.97   12.90
  -6   1  -2  263.27   10.00
   6  -1   2  258.47   10.20
   6  -1   2  252.67   20.70
  -7   1  -2  429.46   19.30
  -7   1  -2  414.66   15.40
  -7   1  -2  474.35   19.30
  -7   1  -2  412.26   31.10
   7  -1   2  411.26   17.80
   7  -1   2  428.16   17.00
   7  -1   2  455.15   33.00
   7  -1   2  429.96   19.00
  -8   1  -2  305.87   16.40
  -8   1  -2  275.17   12.20
  -8   1  -2  289.07   17.10
   8  -1   2  284.87   13.80
   8  -1   2  301.27   35.10
   8  -1   2  283.97   14.80
   8  -1   2  291.07   16.90
   8  -1   2  278.67   14.50
   9  -1   2  156.48   33.00
   8   0  -2   14.80    4.50
   8   0  -2   11.70    6.40
   8   0  -2   13.50    4.80
   8   0  -2   22.20   15.70
   8   0  -2   15.20    5.40
  -8   0   2    9.10    7.10
  -8   0   2   12.10   19.30
  -8   0   2   13.70    4.30
  -8   0   2   12.50    6.30
   7   0  -2  899.71   30.60
   7   0  -2  849.81   31.10
   7   0  -2  911.11   30.80
   7   0  -2  865.71   46.50
   7   0  -2  876.41   32.60
  -7   0   2  936.11   32.80
  -7   0   2  856.51   33.30
  -7   0   2  873.21   30.30
  -7   0   2  843.42   44.90
   6   0  -2    3.70    2.90
   6   0  -2    5.00    3.80
   6   0  -2    4.60    2.90
   6   0  -2    2.90    2.90
   6   0  -2    1.60    7.70
  -6   0   2    2.60    2.60
  -6   0   2   -1.30    3.20
  -6   0   2    1.40    3.80
  -6   0   2    4.70    7.40
   5   0  -2 1860.81   59.49
   5   0  -2 1888.11   58.29
   5   0  -2 1918.51   69.99
   5   0  -2 1780.52   58.59
   5   0  -2 1821.52   58.09
  -5   0   2 1828.62   69.09
  -5   0   2 1890.11   59.49
  -5   0   2 1843.62   58.09
  -5   0   2 1844.72   59.79
   4   0  -2    6.30    1.60
   4   0  -2    4.60    1.90
   4   0  -2    3.90    1.80
   4   0  -2    5.30    4.50
   4   0  -2    7.50    1.90
  -4   0   2    5.90    4.00
  -4   0   2    5.20    2.10
  -4   0   2    4.50    2.20
  -4   0   2    7.80    1.80
   3   0  -2 3731.63  121.19
  -3   0   2 3794.72  121.19
   2   0  -2  324.97   14.40
   2   0  -2  318.07   10.80
   2   0  -2  310.87   10.80
   2   0  -2  346.67   10.70
   2   0  -2  319.97   11.10
  -2   0   2  326.87   10.90
  -2   0   2  321.17   10.60
  -2   0   2  325.97   10.80
  -2   0   2  302.97   14.10
  -2   0   2  317.67   11.10
   0   0   2   15.10    0.80
   1   0   2 2448.35   76.19
   2   0   2 3538.15  111.59
  -3   0  -2 1644.04   50.99
  -3   0  -2 1728.83   52.29
  -3   0  -2 1677.23   52.39
  -3   0  -2 1712.33   58.39
   3   0   2 1712.73   58.29
   3   0   2 1669.83   52.49
   3   0   2 1635.44   52.09
   3   0   2 1588.14   50.99
  -4   0  -2 4301.57  127.59
  -4   0  -2 4173.08  135.79
  -4   0  -2 4031.30  127.59
   4   0   2 4174.98  135.79
   4   0   2 4079.59  127.79
  -5   0  -2 1468.45   46.10
  -5   0  -2 1317.07   43.70
  -5   0  -2 1400.86   46.10
  -5   0  -2 1378.16   55.29
   5   0   2 1371.06   45.40
   5   0   2 1384.36   43.90
   5   0   2 1449.85   46.50
   5   0   2 1396.46   44.80
   5   0   2 1455.85   56.39
  -6   0  -2 1044.90   37.00
  -6   0  -2 1038.90   48.20
  -6   0  -2 1035.50   34.10
  -6   0  -2 1111.39   36.80
   6   0   2 1043.10   35.90
   6   0   2 1102.49   49.50
   6   0   2 1065.49   37.40
   6   0   2 1056.89   35.40
   6   0   2 1082.49   34.40
  -7   0  -2  397.16   18.70
  -7   0  -2  413.66   18.10
  -7   0  -2  385.36   30.60
  -7   0  -2  385.96   14.70
   7   0   2  397.16   16.20
   7   0   2  378.46   17.10
   7   0   2  409.76   15.20
   7   0   2  364.86   29.70
   7   0   2  411.66   18.80
  -8   0  -2   76.59   10.70
  -8   0  -2   75.89   11.90
  -8   0  -2   59.09    9.30
  -8   0  -2   48.90   19.20
   8   0   2   70.19   11.20
   8   0   2   68.89    7.70
   8   0   2   66.79   18.60
   8   0   2   64.99    8.30
   9  -1  -2  243.28   14.60
   9  -1  -2  258.87   44.30
   9  -1  -2  212.88   16.20
   9  -1  -2  216.88   14.50
  -9   1   2  221.98   13.70
   8  -1  -2  179.78   13.30
   8  -1  -2  173.98   11.80
   8  -1  -2  170.88   10.30
   8  -1  -2  166.68   30.70
  -8   1   2  167.38    9.70
  -8   1   2  200.58   13.70
  -8   1   2  169.78   13.00
   7  -1  -2  528.65   21.00
   7  -1  -2  522.35   20.10
   7  -1  -2  616.74   25.20
   7  -1  -2  526.95   35.60
  -7   1   2  500.25   22.10
  -7   1   2  559.44   22.30
  -7   1   2  528.65   34.20
   6  -1  -2  610.44   21.40
   6  -1  -2  575.24   20.80
   6  -1  -2  620.44   34.10
   6  -1  -2  599.94   21.60
   6  -1  -2  594.54   22.40
  -6   1   2  571.44   20.70
  -6   1   2  571.84   31.90
   5  -1  -2  713.33   25.30
   5  -1  -2  729.83   35.00
   5  -1  -2  746.43   26.00
   5  -1  -2  752.32   24.80
   5  -1  -2  737.23   24.70
  -5   1   2  740.33   26.40
  -5   1   2  766.82   26.10
  -5   1   2  744.63   24.80
  -5   1   2  732.33   34.40
   4  -1  -2   67.59    4.30
   4  -1  -2   52.09    8.80
   4  -1  -2   52.69    3.80
   4  -1  -2   50.39    4.30
   4  -1  -2   60.69    4.30
  -4   1   2   64.59    5.00
  -4   1   2   58.19    3.80
  -4   1   2   48.90    4.00
  -4   1   2   54.39    5.10
  -4   1   2   52.99    9.30
   3  -1  -2 2452.15   73.39
   3  -1  -2 2515.75   79.99
   3  -1  -2 2383.16   73.89
   3  -1  -2 2311.27   73.59
  -3   1   2 2370.86   73.39
  -3   1   2 2318.77   73.39
  -3   1   2 2428.06   74.19
  -3   1   2 2395.36   79.49
  -3   1   2 2386.36   73.89
   2  -1  -2 1669.73   68.49
   2  -1  -2 2163.58   67.39
   2  -1  -2 2134.19   63.19
  -2   1   2 2153.78   63.19
  -2   1   2 2213.08   63.29
   0  -1  -2 4386.36  134.49
  -2  -1  -2  680.23   27.10
  -2  -1  -2  695.23   22.30
  -2  -1  -2  691.13   22.70
   2   1   2  708.93   22.80
   2   1   2  686.83   21.80
   2   1   2  681.33   22.20
   2   1   2  712.73   27.40
  -3  -1  -2 1266.27   46.90
  -3  -1  -2 1246.18   39.10
  -3  -1  -2 1303.37   40.20
  -3  -1  -2 1234.28   40.50
   3   1   2 1282.77   39.20
   3   1   2 1320.97   47.60
   3   1   2 1193.98   39.90
   3   1   2 1245.68   40.50
  -4  -1  -2  387.66   14.30
  -4  -1  -2  376.46   14.70
  -4  -1  -2  356.16   12.90
  -4  -1  -2  357.96   21.50
   4   1   2  372.66   13.90
   4   1   2  382.76   14.90
   4   1   2  376.16   13.00
   4   1   2  362.56   21.70
  -5  -1  -2   18.80    4.10
  -5  -1  -2   16.70    3.60
  -5  -1  -2    1.50    7.20
  -5  -1  -2   15.00    2.50
   5   1   2   10.70    2.40
   5   1   2   13.60    2.80
   5   1   2    9.50    3.20
   5   1   2   14.10    7.40
  -6  -1  -2  870.71   36.60
  -6  -1  -2  930.01   31.10
  -6  -1  -2  969.60   36.00
  -6  -1  -2  938.01   45.30
   6   1   2  962.80   32.30
   6   1   2  986.00   31.40
   6   1   2  993.20   47.80
   6   1   2  980.90   34.50
   6   1   2  908.51   32.60
  -7  -1  -2   22.80    3.90
  -7  -1  -2   29.00    6.90
  -7  -1  -2   25.10   12.30
  -7  -1  -2   28.50    6.00
   7   1   2   20.30    5.10
   7   1   2   26.10    6.30
   7   1   2   28.60    4.70
   7   1   2   22.50    4.00
   7   1   2   17.50   15.40
  -8  -1  -2  772.42   27.80
  -8  -1  -2  760.62   32.80
  -8  -1  -2  853.41   32.30
  -8  -1  -2  815.52   49.30
   8   1   2  813.12   28.40
   8   1   2  792.62   32.90
   8   1   2  808.12   30.80
   8   1   2  778.32   29.40
   8   1   2  806.52   54.39
   9  -2  -2    5.00    7.40
   9  -2  -2    7.20    6.90
   9  -2  -2   14.10   25.30
   9  -2  -2   30.30   18.50
   9  -2  -2    8.80    6.40
  -9   2   2   13.00    9.30
  -9   2   2    5.50    5.80
   8  -2  -2 1596.74   54.39
   8  -2  -2 1534.55   52.99
   8  -2  -2 1665.03   53.09
   8  -2  -2 1544.95   51.99
   8  -2  -2 1553.84   72.29
   8  -2  -2 1623.24   74.09
  -8   2   2 1562.04   54.19
  -8   2   2 1521.05   51.49
  -8   2   2 1578.44   55.29
   7  -2  -2  206.08   11.50
   7  -2  -2  230.08   24.40
   7  -2  -2  194.98   11.50
   7  -2  -2  201.18   10.70
   7  -2  -2  202.38   10.70
   7  -2  -2  211.78   25.10
  -7   2   2  230.68   12.10
  -7   2   2  196.18   13.00
   6  -2  -2 4410.96  145.99
   6  -2  -2 4398.86  131.69
   6  -2  -2 4228.78  132.69
   6  -2  -2 4269.67  145.49
   6  -2  -2 4069.09  131.89
  -6   2   2 4244.28  131.09
   5  -2  -2 1294.47   42.60
   5  -2  -2 1315.57   41.80
   5  -2  -2 1334.17   52.69
   5  -2  -2 1313.67   41.60
   5  -2  -2 1281.67   51.79
   5  -2  -2 1266.07   42.10
  -5   2   2 1275.57   41.40
  -5   2   2 1352.76   43.00
  -5   2   2 1271.17   41.60
  -5   2   2 1270.17   43.00
   4  -2  -2 3581.94  113.99
   4  -2  -2 3739.33  113.59
   4  -2  -2 3836.92  113.79
   4  -2  -2 3709.03  114.39
   4  -2  -2 3773.62  122.59
   4  -2  -2 3857.91  122.69
  -4   2   2 3734.33  114.49
  -4   2   2 3685.93  113.59
  -4   2   2 3684.23  114.69
  -4   2   2 3553.24  113.49
   3  -2  -2 1446.56   46.70
   3  -2  -2 1487.25   46.80
   3  -2  -2 1541.95   52.99
   3  -2  -2 1500.35   52.99
   3  -2  -2 1471.35   46.30
   3  -2  -2 1516.05   46.30
  -3   2   2 1506.55   47.00
  -3   2   2 1422.86   46.30
  -3   2   2 1468.45   47.10
  -3   2   2 1519.85   46.40
   2  -2  -2 1247.98   40.10
   2  -2  -2 1316.17   39.90
   2  -2  -2 1301.27   45.00
   2  -2  -2 1260.27   40.00
  -2   2   2 1323.27   45.10
  -2   2   2 1270.57   40.30
  -2   2   2 1290.07   39.90
  -2   2   2 1261.57   40.30
  -2   2   2 1283.77   39.80
   1  -2  -2  328.97   11.30
   1  -2  -2  337.87   11.10
   1  -2  -2  341.47   11.20
  -1   2   2  338.77   11.40
  -1   2   2  296.17   15.90
  -1   2   2  338.07   11.40
  -1   2   2  347.77   11.20
   0   2   2 1973.20   60.29
  -1  -2  -2  123.09    5.50
  -1  -2  -2  124.99    5.10
   1   2   2  126.89    9.20
   1   2   2  122.19    5.10
   1   2   2  129.89    5.80
  -2  -2  -2 4484.05  145.69
   2   2   2 4607.34  145.79
  -3  -2  -2  303.97   12.40
  -3  -2  -2  310.67   18.70
  -3  -2  -2  324.77   12.10
   3   2   2  320.87   19.30
   3   2   2  325.47   11.30
   3   2   2  301.97   11.80
   3   2   2  310.17   12.60
  -4  -2  -2 2632.34   81.49
  -4  -2  -2 2654.13   92.69
  -4  -2  -2 2597.84   82.19
  -4  -2  -2 2538.35   80.19
   4   2   2 2569.94   80.29
   4   2   2 2752.32   93.79
   4   2   2 2516.75   81.09
   4   2   2 2571.14   82.19
  -5  -2  -2  116.19   15.10
  -5  -2  -2  105.69    6.10
  -5  -2  -2  110.69    7.70
  -5  -2  -2  106.59    8.40
   5   2   2  105.49    6.30
   5   2   2   91.89    8.20
   5   2   2   94.69   17.40
  -6  -2  -2  628.54   38.00
  -6  -2  -2  634.74   25.70
  -6  -2  -2  635.34   22.50
  -6  -2  -2  654.73   27.40
   6   2   2  631.74   24.10
   6   2   2  669.43   22.90
   6   2   2  638.64   40.00
   6   2   2  647.44   25.80
  -7  -2  -2   17.40    4.30
  -7  -2  -2   22.30    6.20
  -7  -2  -2    0.40   16.30
  -7  -2  -2   13.80    7.10
   7   2   2   19.90    6.90
   7   2   2   25.50    5.80
   7   2   2   16.00    5.20
   7   2   2   18.80    5.30
   7   2   2    8.20   17.60
  -8  -2  -2  -21.50   21.60
  -8  -2  -2  125.09   15.00
  -8  -2  -2  131.79   13.90
   8   2   2  114.49   13.10
   8   2   2  116.89   12.10
   8   2   2  113.79    9.90
   8   2   2  116.89   26.70
   9  -3  -2  184.98   13.50
   9  -3  -2  231.88   36.80
   9  -3  -2  160.88   12.70
   9  -3  -2  130.99   28.60
  -9   3   2  173.48   12.10
   8  -3  -2  187.48   11.50
   8  -3  -2  179.88   11.60
   8  -3  -2  155.78   25.20
   8  -3  -2  196.48   10.70
   8  -3  -2  209.58   28.30
   8  -3  -2  178.88   13.20
  -8   3   2  192.38   13.90
  -8   3   2  171.38   13.30
  -8   3   2  175.38   10.70
   7  -3  -2  136.89   20.90
   7  -3  -2  119.89   18.70
   7  -3  -2  139.49    9.90
   7  -3  -2  142.09    8.30
   7  -3  -2  141.29    9.60
  -7   3   2  126.89    9.20
  -7   3   2  128.59   11.30
  -7   3   2  145.39   10.00
   6  -3  -2  410.66   15.50
   6  -3  -2  372.56   16.10
   6  -3  -2  368.46   25.70
   6  -3  -2  395.16   16.70
   6  -3  -2  408.96   15.90
   6  -3  -2  400.26   28.10
  -6   3   2  398.06   17.10
  -6   3   2  413.46   16.90
  -6   3   2  394.66   15.20
  -6   3   2  395.76   15.40
   5  -3  -2  129.49    7.50
   5  -3  -2  112.59   13.10
   5  -3  -2  117.49   13.60
   5  -3  -2  119.99    7.20
   5  -3  -2  125.99    6.40
  -5   3   2  113.29    6.20
  -5   3   2  122.09    6.50
  -5   3   2  116.29    7.50
  -5   3   2  127.29    7.90
   4  -3  -2 1786.32   53.69
   4  -3  -2 1731.03   63.29
   4  -3  -2 1714.03   54.39
   4  -3  -2 1753.12   62.89
   4  -3  -2 1638.64   54.19
  -4   3   2 1671.83   54.79
  -4   3   2 1696.33   53.69
  -4   3   2 1679.13   53.59
  -4   3   2 1721.23   54.59
   3  -3  -2  440.96   15.80
   3  -3  -2  430.46   21.60
   3  -3  -2  446.96   15.10
   3  -3  -2  442.86   15.60
  -3   3   2  433.96   15.30
  -3   3   2  448.96   22.00
  -3   3   2  451.05   15.90
  -3   3   2  426.66   15.20
  -3   3   2  435.36   16.10
   2  -3  -2 3210.98  102.89
   2  -3  -2 3385.46  102.49
   2  -3  -2 3305.27  109.49
  -2   3   2 3362.26  103.19
  -2   3   2 3526.35  109.99
  -2   3   2 3389.36  102.69
   1  -3  -2  374.46   12.60
   1  -3  -2  344.77   18.00
   1  -3  -2  358.96   12.90
   1  -3  -2  368.46   12.40
  -1   3   2  364.16   12.40
  -1   3   2  373.76   13.30
  -1   3   2  359.06   12.90
  -1   3   2  352.86   17.60
   0  -3  -2 3010.30   99.09
   0  -3  -2 2863.61   91.79
   0   3   2 2891.31   91.19
   0   3   2 3076.69   92.29
   0   3   2 3122.09   98.59
  -1  -3  -2   52.39    8.70
  -1  -3  -2   41.40    3.30
  -1  -3  -2   42.30    3.80
   1   3   2   44.10    4.30
   1   3   2   49.60    8.20
  -2  -3  -2 2460.95   78.19
  -2  -3  -2 2556.84   87.99
  -2  -3  -2 2543.85   78.89
   2   3   2 2577.84   79.29
   2   3   2 2398.66   77.99
   2   3   2 2700.13   88.29
   2   3   2 2444.46   77.69
  -3  -3  -2  166.58    8.10
  -3  -3  -2  156.78   15.90
  -3  -3  -2  163.88    8.80
   3   3   2  159.08   14.70
   3   3   2  163.28    9.00
   3   3   2  154.48    7.70
   3   3   2  162.38    7.30
  -4  -3  -2 1719.43   56.19
  -4  -3  -2 1731.93   57.09
  -4  -3  -2 1712.13   68.29
   4   3   2 1778.42   57.29
   4   3   2 1732.83   68.49
   4   3   2 1692.33   55.69
   4   3   2 1844.52   55.39
  -5  -3  -2   -1.30   10.40
  -5  -3  -2    7.10    5.90
   5   3   2    1.10    8.90
   5   3   2    2.70    4.00
   5   3   2    9.10    2.80
   5   3   2    2.50    2.60
  -6  -3  -2  452.35   21.00
  -6  -3  -2  460.75   35.70
  -6  -3  -2  475.25   20.00
   6   3   2  438.16   34.30
   6   3   2  470.25   21.20
   6   3   2  424.76   18.40
  -7  -3  -2   11.20   19.30
  -7  -3  -2   10.10    6.60
  -7  -3  -2    2.90    7.60
   7   3   2  -10.40   20.40
   7   3   2   11.90    4.70
   7   3   2   18.10    5.50
   7   3   2   19.40    6.60
   8  -4  -2  375.66   16.60
   8  -4  -2  372.76   18.50
   8  -4  -2  398.96   19.00
   8  -4  -2  372.46   36.20
   8  -4  -2  400.96   36.90
  -8   4   2  384.86   19.00
  -8   4   2  377.96   16.70
  -8   4   2  385.36   20.70
   7  -4  -2   14.50    5.00
   7  -4  -2   16.10    4.40
   7  -4  -2   18.80   13.30
   7  -4  -2   15.60    3.90
  -7   4   2   16.30    3.80
  -7   4   2   15.20    4.90
  -7   4   2   19.60    5.00
  -7   4   2   19.90    6.20
   6  -4  -2  751.32   26.20
   6  -4  -2  808.12   40.80
   6  -4  -2  777.72   27.70
   6  -4  -2  748.53   40.00
   6  -4  -2  726.73   27.40
  -6   4   2  725.03   26.10
  -6   4   2  735.03   26.40
  -6   4   2  795.72   28.50
  -6   4   2  757.22   28.70
   5  -4  -2  735.83   24.50
   5  -4  -2  706.33   36.00
   5  -4  -2  763.22   25.70
   5  -4  -2  682.23   25.40
   5  -4  -2  726.33   35.60
  -5   4   2  729.63   24.80
  -5   4   2  707.43   25.90
  -5   4   2  702.13   26.20
  -5   4   2  700.33   24.50
   4  -4  -2 1801.22   59.19
   4  -4  -2 1881.11   58.29
   4  -4  -2 1861.81   59.09
   4  -4  -2 1829.42   69.29
  -4   4   2 1839.22   58.49
  -4   4   2 1857.21   58.59
  -4   4   2 1840.42   59.89
  -4   4   2 1907.81   69.69
  -4   4   2 1906.31   59.69
   3  -4  -2 2270.97   70.79
   3  -4  -2 2146.59   70.99
   3  -4  -2 2305.67   70.19
   3  -4  -2 2223.98   79.99
  -3   4   2 2286.57   71.49
  -3   4   2 2232.48   71.49
  -3   4   2 2392.96   80.89
  -3   4   2 2251.77   70.49
  -3   4   2 2308.87   70.49
   2  -4  -2 3996.40  121.09
   2  -4  -2 3793.62  121.89
   2  -4  -2 3978.00  130.99
  -2   4   2 4167.58  131.09
  -2   4   2 4098.59  122.39
  -2   4   2 3909.11  122.19
  -2   4   2 3861.81  121.19
   1  -4  -2  974.60   29.90
   1  -4  -2  884.81   30.20
   1  -4  -2  890.41   37.80
  -1   4   2  949.90   30.90
  -1   4   2  890.11   29.30
  -1   4   2  919.91   37.60
  -1   4   2  901.11   30.20
   0  -4  -2 3179.58  108.29
   0  -4  -2 3283.17   98.39
   0  -4  -2 3116.99   98.89
   0   4   2 3138.39   97.79
   0   4   2 3143.69   98.59
   0   4   2 3213.78   99.39
   0   4   2 3316.87  107.79
  -1  -4  -2   28.70    4.10
  -1  -4  -2    4.40    2.00
  -1  -4  -2   51.59    9.50
   1   4   2    0.50    4.40
   1   4   2    2.50    2.60
   1   4   2    2.10    1.70
   1   4   2   14.00    2.50
  -2  -4  -2  607.54   21.00
  -2  -4  -2  595.54   31.80
  -2  -4  -2  575.34   21.60
   2   4   2  576.74   22.00
   2   4   2  608.84   30.90
   2   4   2  604.54   20.40
  -3  -4  -2   63.39    6.70
  -3  -4  -2   67.79   12.60
  -3  -4  -2   64.79    5.90
   3   4   2   57.39    5.60
   3   4   2   62.89    4.80
   3   4   2   55.59   11.40
   3   4   2   57.09    7.10
  -4  -4  -2   75.39    8.00
  -4  -4  -2   71.49    6.90
  -4  -4  -2   72.19   15.10
   4   4   2   64.69   15.10
   4   4   2   69.49    5.70
   4   4   2   72.19    6.10
  -5  -4  -2  562.74   24.70
  -5  -4  -2  623.64   23.90
  -5  -4  -2  573.84   39.10
   5   4   2  599.04   25.10
   5   4   2  591.64   23.20
   5   4   2  613.34   38.50
   5   4   2  617.54   22.30
  -6  -4  -2  174.68   26.60
  -6  -4  -2  184.38   11.90
  -6  -4  -2  184.68   14.50
   6   4   2  159.88   10.90
   6   4   2  149.29   32.90
   6   4   2  172.38   13.00
   6   4   2  170.18   11.00
  -7  -4  -2  370.46   19.00
   7   4   2  363.96   16.90
   7   4   2  317.17   48.70
   8  -5  -2  640.94   25.10
   8  -5  -2  656.23   49.70
   8  -5  -2  631.54   26.70
   8  -5  -2  677.33   27.00
   8  -5  -2  600.44   43.60
  -8   5   2  620.54   24.70
  -8   5   2  685.23   28.40
  -8   5   2  645.74   25.10
  -8   5   2  620.14   28.50
   7  -5  -2   43.00    6.90
   7  -5  -2   43.20    8.00
   7  -5  -2   41.10    6.20
   7  -5  -2   46.60   14.70
   7  -5  -2   42.80   15.10
  -7   5   2   42.50    7.30
  -7   5   2   45.40    6.70
  -7   5   2   47.80    8.20
  -7   5   2   42.30    6.00
   6  -5  -2 1775.62   59.79
   6  -5  -2 1850.81   58.49
   6  -5  -2 1804.62   74.69
   6  -5  -2 1845.62   59.79
   6  -5  -2 1935.31   78.19
  -6   5   2 1775.72   60.89
  -6   5   2 1743.83   58.39
  -6   5   2 1875.01   60.79
  -6   5   2 1808.32   58.79
   5  -5  -2   48.40    6.20
   5  -5  -2   42.30    4.70
   5  -5  -2   53.29    5.90
   5  -5  -2   61.09   13.10
   5  -5  -2   54.79   11.80
  -5   5   2   50.99    5.20
  -5   5   2   58.19    8.00
  -5   5   2   46.20    7.10
   4  -5  -2 1340.57   42.40
   4  -5  -2 1228.08   53.49
   4  -5  -2 1243.28   42.60
   4  -5  -2 1299.37   41.30
  -4   5   2 1307.87   54.29
  -4   5   2 1270.47   43.20
  -4   5   2 1290.67   41.70
  -4   5   2 1306.97   43.10
  -4   5   2 1257.97   41.80
   3  -5  -2   16.60    3.40
   3  -5  -2   19.50    7.90
   3  -5  -2   15.70    3.00
   3  -5  -2   19.80    2.90
  -3   5   2   17.60    2.80
  -3   5   2   16.10    3.80
  -3   5   2   25.60    8.70
  -3   5   2   15.10    3.70
   2  -5  -2  224.38    9.00
   2  -5  -2  216.58   18.00
   2  -5  -2  213.38   10.20
   2  -5  -2  228.08    9.70
  -2   5   2  225.28   10.50
  -2   5   2  212.18   17.70
  -2   5   2  224.88   10.80
  -2   5   2  216.08    9.10
   1  -5  -2 1052.59   32.90
   1  -5  -2  975.60   33.40
   1  -5  -2  968.90   43.50
  -1   5   2 1033.60   34.10
  -1   5   2  976.80   42.20
  -1   5   2  951.90   32.00
  -1   5   2  982.10   33.30
   0  -5  -2  317.97   23.10
   0  -5  -2  348.07   13.10
   0  -5  -2  321.47   13.70
   0   5   2  316.57   13.10
   0   5   2  333.97   12.40
   0   5   2  340.77   14.50
   0   5   2  335.07   22.50
  -1  -5  -2 2633.34   96.19
  -1  -5  -2 2589.54   82.99
  -1  -5  -2 2660.13   82.09
   1   5   2 2481.05   81.09
   1   5   2 2752.42   94.99
   1   5   2 2670.43   83.69
   1   5   2 2565.04   82.19
   1   5   2 2662.43   81.69
  -2  -5  -2 1101.09   51.39
  -2  -5  -2 1113.39   38.80
  -2  -5  -2 1180.98   37.90
   2   5   2 1176.98   39.60
   2   5   2 1156.08   51.19
   2   5   2 1159.38   37.40
   2   5   2 1055.99   37.50
  -3  -5  -2 1135.79   54.39
  -3  -5  -2 1071.59   40.10
  -3  -5  -2 1185.48   39.10
   3   5   2 1188.98   38.30
   3   5   2 1102.39   38.60
   3   5   2 1198.58   41.40
   3   5   2 1129.19   52.99
  -4  -5  -2  709.53   42.10
  -4  -5  -2  711.93   28.50
  -4  -5  -2  776.22   27.90
   4   5   2  732.63   43.80
   4   5   2  753.82   26.40
   4   5   2  741.33   28.80
  -5  -5  -2  192.18   12.60
  -5  -5  -2  135.99   29.40
  -5  -5  -2  182.88   14.20
   5   5   2  182.58   11.00
   5   5   2  158.98   12.60
   5   5   2  172.38   31.00
  -6  -5  -2   -2.00   22.60
  -6  -5  -2   85.59   13.70
  -6  -5  -2  101.59   12.20
   6   5   2  103.59   13.10
   6   5   2   96.09   10.90
   6   5   2  101.19   10.90
   6   5   2  104.49   25.20
   8  -6  -2  118.59   12.70
   8  -6  -2    1.20   22.10
   8  -6  -2  110.79   12.00
   8  -6  -2  126.49   26.30
  -8   6   2   98.09   11.00
  -8   6   2  120.59   11.10
   7  -6  -2   29.80    6.30
   7  -6  -2   38.80   18.30
   7  -6  -2   35.60    5.30
   7  -6  -2   29.10    6.80
   7  -6  -2   55.59   19.00
  -7   6   2   39.00    8.40
  -7   6   2   33.10    6.20
  -7   6   2   43.50    6.10
  -7   6   2   28.00    6.60
   6  -6  -2  181.78   26.80
   6  -6  -2  151.68    9.80
   6  -6  -2  158.78    9.00
   6  -6  -2  178.98   22.20
   6  -6  -2  158.38   10.60
  -6   6   2  155.78   12.70
  -6   6   2  177.28   12.50
  -6   6   2  150.18    9.40
  -6   6   2  166.48   10.00
   5  -6  -2  648.74   37.90
   5  -6  -2  662.23   25.70
   5  -6  -2  676.43   25.30
   5  -6  -2  694.73   23.80
  -5   6   2  678.23   26.80
  -5   6   2  681.73   26.40
  -5   6   2  672.63   24.30
  -5   6   2  637.14   24.40
  -5   6   2  683.53   40.40
   4  -6  -2  948.41   30.40
   4  -6  -2  893.71   33.20
   4  -6  -2  901.71   45.30
  -4   6   2  981.20   46.10
  -4   6   2  768.22   31.90
  -4   6   2  902.91   33.10
  -4   6   2  917.41   33.00
  -4   6   2  922.01   30.80
   3  -6  -2  986.70   48.00
   3  -6  -2 1053.79   36.80
   3  -6  -2 1124.29   35.20
   3  -6  -2 1116.09   36.10
  -3   6   2 1077.29   35.50
  -3   6   2 1098.69   49.40
  -3   6   2 1041.20   38.00
   2  -6  -2 1875.51   58.29
   2  -6  -2 1793.62   72.39
   2  -6  -2 1763.82   59.09
  -2   6   2 1891.51   71.29
  -2   6   2 1769.82   57.59
  -2   6   2 1845.92   59.89
  -2   6   2 1809.62   59.19
   1  -6  -2  561.54   21.80
   1  -6  -2  558.34   33.40
   1  -6  -2  583.94   20.80
  -1   6   2  593.14   31.80
  -1   6   2  581.64   22.40
  -1   6   2  564.64   21.60
  -1   6   2  563.14   20.00
   0  -6  -2 1217.08   38.30
   0  -6  -2 1106.39   38.90
   0  -6  -2 1097.79   52.09
   0   6   2 1178.48   51.99
   0   6   2 1104.19   37.00
  -1  -6  -2  502.35   34.30
  -1  -6  -2  490.85   20.30
  -1  -6  -2  524.15   19.10
   1   6   2  515.45   19.60
   1   6   2  487.65   18.10
   1   6   2  512.05   31.50
  -2  -6  -2  521.75   19.50
  -2  -6  -2  474.65   20.60
  -2  -6  -2  467.75   33.50
   2   6   2  460.65   17.80
   2   6   2  507.35   34.40
   2   6   2  477.35   19.50
   2   6   2  492.15   21.10
   2   6   2  523.15   19.20
  -3  -6  -2  634.34   25.80
  -3  -6  -2  670.43   24.60
  -3  -6  -2  626.84   40.40
   3   6   2  588.34   24.10
   3   6   2  653.13   23.60
   3   6   2  639.24   39.50
   3   6   2  642.44   26.60
  -4  -6  -2  311.77   17.90
  -4  -6  -2  337.27   16.30
  -4  -6  -2  318.57   36.10
   4   6   2  293.27   14.40
   4   6   2  301.57   16.90
   4   6   2  310.57   31.90
   4   6   2  298.17   15.60
  -5  -6  -2  272.27   18.30
  -5  -6  -2  321.07   17.20
   5   6   2  309.37   42.40
   5   6   2  256.07   15.60
   5   6   2  290.67   14.70
   5   6   2  283.47   18.40
   7  -7  -2  149.79    9.70
   7  -7  -2  138.89   11.70
   7  -7  -2  158.18   28.70
   7  -7  -2   -4.70   17.10
   7  -7  -2  139.49   12.00
  -7   7   2  147.49   13.60
  -7   7   2  123.29   10.00
  -7   7   2  138.09   11.90
   6  -7  -2  162.08   11.30
   6  -7  -2  184.78   27.80
   6  -7  -2  147.59   10.10
   6  -7  -2  142.19   12.60
   6  -7  -2  176.18   30.30
  -6   7   2  156.28   11.60
  -6   7   2  145.29   12.40
  -6   7   2  156.88   13.30
   5  -7  -2  395.96   18.50
   5  -7  -2  419.96   17.50
   5  -7  -2  402.96   16.30
   5  -7  -2  382.46   34.10
  -5   7   2  362.16   16.90
  -5   7   2  382.46   19.60
  -5   7   2  392.76   35.60
  -5   7   2  405.46   19.60
  -5   7   2  394.96   16.70
   4  -7  -2   63.59    8.50
   4  -7  -2   69.09    6.70
   4  -7  -2   82.09   17.40
   4  -7  -2   82.59    6.80
  -4   7   2   76.69    8.60
  -4   7   2   62.69    8.00
  -4   7   2   72.69    6.90
  -4   7   2   58.19    9.40
  -4   7   2   70.29   15.90
   3  -7  -2  923.61   34.00
   3  -7  -2 1015.60   32.30
   3  -7  -2  912.31   47.90
  -3   7   2  935.81   32.40
  -3   7   2  981.00   47.90
  -3   7   2  993.60   35.40
  -3   7   2  917.41   34.40
   2  -7  -2   96.49   18.20
   2  -7  -2  116.19    8.20
   2  -7  -2  107.39    9.30
  -2   7   2  106.29   17.60
  -2   7   2  113.39   10.20
  -2   7   2  110.89    9.40
  -2   7   2  105.99    7.00
   1  -7  -2  667.83   39.70
   1  -7  -2  708.33   25.00
   1  -7  -2  658.83   25.70
  -1   7   2  682.43   25.90
  -1   7   2  714.13   27.30
  -1   7   2  736.83   40.50
  -1   7   2  645.94   23.90
   0  -7  -2   68.99   17.70
   0  -7  -2   75.69    8.80
   0  -7  -2   79.19   12.00
   0   7   2   82.99    9.80
   0   7   2   74.59   17.20
   0   7   2   76.09    7.60
   0   7   2   73.99    6.50
   0   7   2   70.59    6.60
  -1  -7  -2  109.69    9.80
  -1  -7  -2  106.29    8.50
  -1  -7  -2  106.19   21.10
   1   7   2   92.49    6.70
   1   7   2  107.09    8.60
   1   7   2  111.09   23.70
   1   7   2   96.19    8.30
   1   7   2  106.99   10.90
  -2  -7  -2   34.90   18.00
  -2  -7  -2   51.09    7.70
  -2  -7  -2   35.60    7.20
   2   7   2   33.70    6.10
   2   7   2   35.00   17.90
   2   7   2   43.30    8.20
   2   7   2   42.70    8.40
   2   7   2   24.20    4.40
  -3  -7  -2   47.90   19.80
  -3  -7  -2   51.79    8.70
  -3  -7  -2   49.10    7.10
   3   7   2   80.49   22.70
   3   7   2   56.09    8.50
   3   7   2   43.40    5.40
   3   7   2   47.10    7.80
   3   7   2   57.89    9.00
  -4  -7  -2  168.48   16.10
  -4  -7  -2  189.68   14.00
   4   7   2  188.78   13.30
   4   7   2  185.38   35.10
   6  -8  -2   71.69    9.00
   6  -8  -2   71.19   10.20
   6  -8  -2   12.90   18.50
   6  -8  -2   74.39   12.30
  -6   8   2   78.99   10.70
  -6   8   2   61.09    8.90
  -6   8   2   56.99   10.40
   5  -8  -2   93.39    9.50
   5  -8  -2   86.29   11.60
   5  -8  -2   93.99    8.90
   5  -8  -2   56.79   22.00
  -5   8   2   77.59   24.60
  -5   8   2   89.29   11.10
  -5   8   2   80.49    9.40
  -5   8   2   75.99   12.20
  -5   8   2   92.29    8.70
   4  -8  -2    1.70    4.00
   4  -8  -2   -0.20    5.60
   4  -8  -2    3.40    4.60
   4  -8  -2    4.90   17.20
  -4   8   2   -1.70    5.10
  -4   8   2    2.10    6.20
  -4   8   2   -3.20    4.70
  -4   8   2    6.60   17.40
   3  -8  -2   18.10   14.50
   3  -8  -2   20.90    5.20
   3  -8  -2   24.10    6.60
  -3   8   2   15.50   17.00
  -3   8   2   32.80    5.60
  -3   8   2   19.60    6.70
  -3   8   2   20.40    6.80
   2  -8  -2  257.47   32.80
   2  -8  -2  272.07   13.30
   2  -8  -2  262.77   15.00
  -2   8   2  278.87   16.40
  -2   8   2  238.88   14.90
  -2   8   2  244.68   27.90
  -2   8   2  249.48   12.60
   1  -8  -2  467.65   18.60
   1  -8  -2  394.76   19.60
   1  -8  -2  450.25   39.70
  -1   8   2  419.66   20.50
  -1   8   2  422.36   20.00
  -1   8   2  470.55   38.10
  -1   8   2  402.26   16.90
  -1   8   2  433.96   17.70
   0  -8  -2  170.28   13.10
   0  -8  -2  182.68   33.10
   0  -8  -2  196.58   11.70
   0   8   2  168.58   11.10
   0   8   2  168.28   10.50
   0   8   2  186.98   14.70
   0   8   2  177.58   13.00
   0   8   2  190.38   31.50
  -1  -8  -2 1508.25   47.50
  -1  -8  -2 1310.67   71.39
  -1  -8  -2 1351.16   48.70
   1   8   2 1346.17   46.40
   1   8   2 1424.36   50.59
   1   8   2 1287.57   45.10
   1   8   2 1321.47   47.90
   1   8   2 1441.46   70.19
  -2  -8  -2   30.50    7.90
  -2  -8  -2    3.20   23.10
  -2  -8  -2   19.30    6.40
   2   8   2   27.80    6.90
   2   8   2   12.30   22.60
   2   8   2   18.30    5.60
   2   8   2   16.90    8.40
   2   8   2   23.50    5.70
   4  -9  -2   28.70    6.80
   4  -9  -2   24.50    8.10
  -4   9   2   32.80   25.80
  -4   9   2   20.60    6.00
   3  -9  -2  639.24   27.70
  -3   9   2  709.33   52.39
  -3   9   2  618.04   24.60
   2  -9  -2    3.90    5.40
   2  -9  -2    6.60    7.00
   2  -9  -2   12.10   22.40
  -2   9   2   -2.00    5.30
  -2   9   2    0.50    4.50
  -2   9   2    8.30   21.30
  -2   9   2    2.70    4.50
  -2   9   2    5.90    7.50
   1  -9  -2   56.49    9.50
   1  -9  -2  -15.40   23.70
   1  -9  -2   51.69    9.10
  -1   9   2   37.80   10.50
  -1   9   2   41.80   23.90
  -1   9   2   40.60    8.10
  -1   9   2   42.10    6.00
   0   9  -3  249.68   14.70
   0   9  -3  274.77   37.50
   0   9  -3  262.57   11.90
   0   9  -3  271.67   18.70
   0  -9   3  256.27   43.70
   0  -9   3  252.07   17.40
   0  -9   3  257.87   15.20
  -1   9  -3 1648.54   56.79
  -1   9  -3 1643.44   77.39
  -1   9  -3 1528.65   50.49
  -1   9  -3 1527.75   55.09
   1  -9   3 1503.05   55.29
   1  -9   3 1563.74   81.69
  -2   9  -3   45.00    8.70
  -2   9  -3   37.70    5.40
  -2   9  -3   38.20   22.80
  -2   9  -3   45.20    6.30
  -2   9  -3   27.70    8.60
   2  -9   3   37.80    7.20
   2  -9   3   69.99   25.60
   2  -9   3   43.10    9.10
  -3   9  -3 1045.10   40.10
  -3   9  -3 1039.80   40.40
  -3   9  -3 1132.79   64.89
  -3   9  -3 1019.10   35.90
  -3   9  -3 1020.80   35.00
   3  -9   3  971.90   39.10
   3  -9   3 1045.80   38.00
  -4   9  -3    6.10    5.30
  -4   9  -3   29.40   24.10
  -4   9  -3    8.10    7.70
  -4   9  -3    4.80    6.40
  -4   9  -3    4.40    4.90
   4  -9   3   11.50    7.10
   4  -9   3    7.50    5.90
   4  -9   3   13.10   18.70
   3   8  -3  844.02   42.80
   3   8  -3  637.44   24.50
   3   8  -3  678.23   57.69
  -3  -8   3  613.44   57.09
   2   8  -3  189.28    9.50
   2   8  -3  199.78   37.50
   2   8  -3  194.78   12.00
   2   8  -3  174.48   12.70
   2   8  -3  202.08   14.70
  -2  -8   3  150.28   32.30
  -2  -8   3  188.58   16.20
  -2  -8   3  200.88   13.20
   1   8  -3  336.97   17.40
   1   8  -3  359.96   34.80
   1   8  -3  319.87   13.20
   1   8  -3  357.56   16.40
   1   8  -3  345.57   19.30
  -1  -8   3  351.66   16.90
  -1  -8   3  284.97   43.20
  -1  -8   3  327.57   18.90
   0   8  -3   92.29   10.60
   0   8  -3  104.29   24.50
   0   8  -3   93.89    9.00
   0   8  -3   90.29    6.20
   0   8  -3  110.39   11.90
   0  -8   3   95.19    9.20
   0  -8   3  101.19   10.60
   0  -8   3   77.19   23.00
  -1   8  -3  139.89   11.70
  -1   8  -3  132.09    7.30
  -1   8  -3  128.39    9.30
  -1   8  -3  124.29   10.90
  -1   8  -3  134.99   24.20
   1  -8   3  123.69   23.70
   1  -8   3  130.89   12.50
  -2   8  -3  187.08    8.90
  -2   8  -3  195.98   25.60
  -2   8  -3  179.78   10.30
  -2   8  -3  176.48   13.60
  -2   8  -3  182.88   13.20
   2  -8   3  174.28   12.50
   2  -8   3  188.38   11.80
   2  -8   3  178.68   26.70
  -3   8  -3  327.57   17.80
  -3   8  -3  323.87   13.30
  -3   8  -3  317.77   17.50
  -3   8  -3  332.17   13.90
   3  -8   3  350.06   16.20
   3  -8   3  277.07   34.80
   3  -8   3  325.07   18.00
  -4   8  -3  725.23   30.40
  -4   8  -3  723.43   26.40
  -4   8  -3  773.52   31.00
  -4   8  -3  804.82   47.20
  -4   8  -3  758.02   26.50
   4  -8   3  721.73   30.40
   4  -8   3  758.42   29.00
   4  -8   3  814.12   27.60
   4  -8   3  704.43   48.00
  -5   8  -3  426.06   22.10
  -5   8  -3  419.36   17.30
  -5   8  -3  438.86   20.20
  -5   8  -3  444.46   22.20
  -5   8  -3  454.75   39.00
   5  -8   3  445.76   37.90
   5  -8   3  446.46   16.90
   5  -8   3  424.46   21.60
   5  -8   3  449.95   20.40
  -6   8  -3  529.15   24.90
  -6   8  -3  500.75   20.70
  -6   8  -3  489.35   24.70
  -6   8  -3  477.55   22.00
   6  -8   3  508.45   19.50
   6  -8   3  485.35   23.90
   6  -8   3  520.15   23.00
   6  -8   3  519.55   47.90
   4   7  -3   23.50    8.30
   4   7  -3   22.90    5.90
   4   7  -3   23.40   24.10
   4   7  -3   26.30    6.90
  -4  -7   3   18.40   20.30
  -4  -7   3   28.60    7.30
  -4  -7   3   26.00    8.80
   3   7  -3  240.68   13.50
   3   7  -3  242.78   13.00
   3   7  -3  251.87   15.10
   3   7  -3  274.27   35.90
   3   7  -3  218.58   10.70
  -3  -7   3  248.28   16.80
  -3  -7   3  242.28   41.20
  -3  -7   3  263.37   14.00
   2   7  -3  406.96   33.70
   2   7  -3  398.36   19.50
   2   7  -3  410.46   16.90
   2   7  -3  390.96   18.00
   2   7  -3  380.06   14.40
  -2  -7   3  365.26   18.90
  -2  -7   3  416.66   18.10
  -2  -7   3  341.17   33.50
   1   7  -3  794.32   29.70
   1   7  -3  780.72   30.60
   1   7  -3  821.22   28.60
   1   7  -3  823.52   45.00
   1   7  -3  767.52   26.30
  -1  -7   3  790.92   31.30
  -1  -7   3  831.22   29.50
  -1  -7   3  770.32   47.80
   0   7  -3  915.41   46.60
   0   7  -3  849.81   31.50
   0   7  -3  843.22   28.60
   0   7  -3  921.71   33.10
   0   7  -3  879.01   30.50
   0  -7   3  829.62   32.50
   0  -7   3  861.61   49.20
   0  -7   3  910.31   31.40
  -1   7  -3  568.04   23.20
  -1   7  -3  630.84   36.70
  -1   7  -3  576.54   20.50
  -1   7  -3  615.24   24.70
  -1   7  -3  686.83   23.90
   1  -7   3  622.34   23.20
   1  -7   3  577.94   24.30
   1  -7   3  565.04   38.00
  -2   7  -3 1359.56   59.39
  -2   7  -3 1236.58   43.50
  -2   7  -3 1225.68   40.60
  -2   7  -3 1318.07   44.50
   2  -7   3 1229.18   44.10
   2  -7   3 1199.68   57.89
   2  -7   3 1330.57   43.10
  -3   7  -3  130.79   10.30
  -3   7  -3  117.49    6.80
  -3   7  -3  131.19   22.50
  -3   7  -3  126.89   11.10
  -3   7  -3  124.49    7.40
   3  -7   3  127.69    6.60
   3  -7   3  134.39   20.00
   3  -7   3  134.69    9.30
   3  -7   3  113.89    9.30
  -4   7  -3 1491.75   50.79
  -4   7  -3 1580.54   68.79
  -4   7  -3 1641.24   53.39
  -4   7  -3 1554.34   52.79
  -4   7  -3 1505.95   49.50
   4  -7   3 1481.25   52.39
   4  -7   3 1463.85   67.39
   4  -7   3 1572.14   51.89
   4  -7   3 1596.94   49.20
  -5   7  -3   87.29    9.10
  -5   7  -3   98.59    9.60
  -5   7  -3   94.39    9.50
  -5   7  -3   94.29    6.90
   5  -7   3   77.79   21.10
   5  -7   3   95.19   10.40
   5  -7   3   98.99    9.70
   5  -7   3  113.79   11.00
  -6   7  -3  887.41   35.00
  -6   7  -3  887.41   31.50
  -6   7  -3  945.51   35.20
   6  -7   3  861.11   59.99
   6  -7   3  855.61   34.40
   6  -7   3  919.81   33.60
   6  -7   3  919.91   30.80
  -7   7  -3  120.69   13.90
  -7   7  -3  142.29   13.30
  -7   7  -3  127.59    9.50
   7  -7   3  133.59   13.60
   7  -7   3  149.99   10.60
   7  -7   3  131.79   25.20
   7  -7   3  195.28   37.90
   7  -7   3  139.29   12.80
   5   6  -3  265.97   17.40
   5   6  -3  274.97   36.30
   5   6  -3  249.38   15.10
   5   6  -3  269.37   15.10
  -5  -6   3  258.47   18.20
  -5  -6   3  241.68   33.70
   4   6  -3   93.09    8.50
   4   6  -3   90.29   11.40
   4   6  -3   94.69    9.60
  -4  -6   3  108.89   10.30
  -4  -6   3   93.09   11.20
   3   6  -3  326.87   16.60
   3   6  -3  316.17   15.10
   3   6  -3  331.77   14.30
   3   6  -3  345.97   29.70
  -3  -6   3  313.27   29.40
  -3  -6   3  322.87   15.00
  -3  -6   3  293.07   16.30
   2   6  -3  340.07   15.40
   2   6  -3  332.47   16.10
   2   6  -3  345.27   12.90
   2   6  -3  359.26   14.60
   2   6  -3  346.37   27.50
  -2  -6   3  350.46   28.50
  -2  -6   3  385.46   15.80
  -2  -6   3  342.67   16.50
   1   6  -3 1060.89   41.20
   1   6  -3 1081.59   35.00
   1   6  -3 1156.58   51.89
   1   6  -3 1113.79   36.80
  -1  -6   3 1090.39   53.09
  -1  -6   3 1180.38   38.00
  -1  -6   3 1056.99   38.70
   0   6  -3  610.44   23.00
   0   6  -3  636.94   21.20
   0   6  -3  561.54   19.40
   0   6  -3  597.84   33.50
   0   6  -3  574.74   22.10
   0  -6   3  553.94   23.10
   0  -6   3  575.34   35.60
  -1   6  -3 3395.56  108.99
  -1   6  -3 3834.62  126.09
  -1   6  -3 3623.74  112.59
  -1   6  -3 3463.15  111.59
  -1   6  -3 3719.93  110.29
   1  -6   3 3496.55  126.19
   1  -6   3 3498.95  112.29
  -2   6  -3  172.58   10.30
  -2   6  -3  144.59    6.90
  -2   6  -3  139.89    8.80
  -2   6  -3  165.28   18.00
  -2   6  -3  163.78    7.70
   2  -6   3  154.78    6.60
   2  -6   3  151.38    9.40
   2  -6   3  160.48    9.00
   2  -6   3  134.69   18.70
  -3   6  -3 3530.35  104.29
  -3   6  -3 3243.38  103.49
  -3   6  -3 3406.66  117.09
  -3   6  -3 3130.09  100.69
   3  -6   3 3280.27  117.59
   3  -6   3 3243.08  100.49
   3  -6   3 3155.08  104.79
  -4   6  -3    7.90    9.30
  -4   6  -3   18.40    3.50
  -4   6  -3    7.40    4.30
  -4   6  -3   16.70    4.80
  -4   6  -3   13.60    2.90
   4  -6   3    8.20    3.90
   4  -6   3   10.00    2.70
   4  -6   3   18.90    4.70
   4  -6   3   11.00    9.20
  -5   6  -3  478.55   32.50
  -5   6  -3  520.85   21.40
  -5   6  -3  492.65   21.10
  -5   6  -3  485.45   19.40
  -5   6  -3  480.95   18.20
   5  -6   3  523.45   20.70
   5  -6   3  488.25   21.00
   5  -6   3  485.55   32.80
   5  -6   3  534.35   18.40
  -6   6  -3  168.08   12.80
  -6   6  -3  171.58    9.80
  -6   6  -3  179.28   12.60
  -6   6  -3  167.08    8.50
   6  -6   3  174.18   11.10
   6  -6   3  162.78   12.40
   6  -6   3  184.38   26.60
   6  -6   3  186.58    9.60
  -7   6  -3    9.90    3.70
  -7   6  -3    3.70    6.70
  -7   6  -3    7.00    6.30
   7  -6   3    9.60    6.60
   7  -6   3    6.50    3.80
   7  -6   3   -5.10   14.20
   7  -6   3   13.90   14.90
   7  -6   3    5.60    4.80
  -8   6  -3  456.95   24.30
  -8   6  -3  515.65   24.30
  -8   6  -3  483.45   18.50
   8  -6   3  494.25   20.90
   8  -6   3  468.05   47.20
   8  -6   3  551.54   50.29
   6   5  -3  499.25   22.30
   6   5  -3  522.75   20.30
   6   5  -3  507.15   21.40
   6   5  -3  516.85   24.50
   6   5  -3  510.45   46.20
  -6  -5   3  502.95   21.60
  -6  -5   3  521.15   47.40
  -6  -5   3  486.55   25.50
   5   5  -3  234.08   12.40
   5   5  -3  245.08   15.10
   5   5  -3  219.88   12.40
  -5  -5   3  240.68   13.40
  -5  -5   3  218.88   16.50
  -5  -5   3  230.48   12.00
   4   5  -3  701.63   25.70
   4   5  -3  716.53   43.20
   4   5  -3  693.63   25.90
   4   5  -3  709.93   27.50
  -4  -5   3  696.63   28.30
  -4  -5   3  665.93   25.00
  -4  -5   3  730.73   26.40
  -4  -5   3  669.03   41.30
   3   5  -3  944.71   33.50
   3   5  -3 1004.10   48.30
   3   5  -3  933.31   32.40
  -3  -5   3  868.21   46.20
  -3  -5   3  930.91   34.10
   2   5  -3  282.07   13.40
   2   5  -3  293.37   12.80
   2   5  -3  286.37   12.00
   2   5  -3  296.17   24.30
  -2  -5   3  301.17   23.50
  -2  -5   3  288.17   13.80
  -2  -5   3  306.77   13.00
   1   5  -3  201.68    8.20
   1   5  -3  216.78   10.40
   1   5  -3  261.87   21.00
   1   5  -3  233.48   11.60
   1   5  -3  233.18    9.80
  -1  -5   3  215.68   20.90
  -1  -5   3  231.18   10.50
  -1  -5   3  220.18   11.20
   0   5  -3  543.45   20.10
   0   5  -3  512.05   17.00
   0   5  -3  519.65   18.20
   0   5  -3  505.35   19.00
   0   5  -3  550.14   29.50
   0  -5   3  534.25   18.90
   0  -5   3  491.65   28.30
   0  -5   3  504.65   20.00
  -1   5  -3  428.26   15.10
  -1   5  -3  423.76   24.50
  -1   5  -3  422.36   14.10
  -1   5  -3  429.26   16.90
  -1   5  -3  408.96   16.00
   1  -5   3  432.56   16.00
   1  -5   3  412.56   25.80
   1  -5   3  409.46   16.70
  -2   5  -3 2600.14   81.29
  -2   5  -3 2715.23   92.19
  -2   5  -3 2668.23   81.79
  -2   5  -3 2474.25   78.99
  -2   5  -3 2601.64   79.59
   2  -5   3 2545.75   78.89
   2  -5   3 2598.74   80.89
   2  -5   3 2510.55   91.79
   2  -5   3 2523.95   81.59
  -3   5  -3  593.84   20.40
  -3   5  -3  668.63   23.10
  -3   5  -3  628.74   31.70
  -3   5  -3  596.44   22.40
   3  -5   3  597.14   22.50
   3  -5   3  605.84   22.10
   3  -5   3  630.04   20.30
   3  -5   3  574.04   31.30
  -4   5  -3 3479.15  118.09
  -4   5  -3 3261.07  105.69
  -4   5  -3 3315.07  103.69
  -4   5  -3 3557.84  106.19
  -4   5  -3 3404.16  104.69
   4  -5   3 3404.16  103.59
   4  -5   3 3327.37  117.99
   4  -5   3 3433.66  105.69
   4  -5   3 3216.08  105.79
  -5   5  -3   29.30    3.80
   5  -5   3   27.50    3.70
   5  -5   3   26.10    5.10
   5  -5   3   35.70    6.20
   5  -5   3   31.00   11.80
  -6   5  -3 1205.78   42.90
  -6   5  -3 1204.88   39.40
  -6   5  -3 1314.77   43.50
   6  -5   3 1188.48   56.09
   6  -5   3 1219.58   43.20
   6  -5   3 1234.18   42.80
   6  -5   3 1300.97   57.69
  -7   5  -3    4.80    6.10
  -7   5  -3    9.60    5.70
  -7   5  -3    5.30    2.80
   7  -5   3    2.70    3.90
   7  -5   3   -0.40    5.50
   7  -5   3  -11.00   11.80
   7  -5   3    4.20    5.30
  -8   5  -3  214.68   10.10
  -8   5  -3  204.18   16.30
  -8   5  -3  248.58   16.30
   8  -5   3  220.48   12.20
   8  -5   3  230.68   34.80
   8  -5   3  262.17   33.30
   8  -5   3  213.58   14.10
   8  -5   3  232.48   15.80
   7   4  -3   45.30    7.30
   7   4  -3   49.80    7.10
   7   4  -3   66.59   12.50
   7   4  -3   58.99   23.80
  -7  -4   3   68.79   11.90
  -7  -4   3   64.19   10.80
  -7  -4   3   55.09   21.70
  -7  -4   3   62.59    8.60
   6   4  -3  159.18   11.10
   6   4  -3  159.78    9.40
   6   4  -3  153.38   28.10
   6   4  -3  156.18   12.90
  -6  -4   3  150.38   14.30
  -6  -4   3  152.38   11.60
  -6  -4   3  146.09   25.90
  -6  -4   3  149.39   10.70
   5   4  -3   65.89   18.40
   5   4  -3   73.89    6.70
   5   4  -3   54.09    7.60
  -5  -4   3   60.09    6.20
  -5  -4   3   57.49   17.10
  -5  -4   3   64.29    8.30
  -5  -4   3   61.09    9.90
   4   4  -3 1153.48   37.40
   4   4  -3 1113.59   52.29
   4   4  -3 1143.49   39.60
   4   4  -3 1041.40   37.80
  -4  -4   3 1095.29   36.90
  -4  -4   3 1027.50   50.79
  -4  -4   3 1294.47   41.20
  -4  -4   3 1041.20   39.00
   3   4  -3  404.06   27.10
   3   4  -3  393.26   15.50
   3   4  -3  424.16   17.00
   3   4  -3  396.46   15.30
  -3  -4   3  388.76   25.90
  -3  -4   3  428.36   16.30
  -3  -4   3  409.56   15.20
  -3  -4   3  401.66   17.30
   2   4  -3 3878.41  124.89
   2   4  -3 4046.30  124.59
   2   4  -3 4122.69  125.99
   2   4  -3 4415.56  138.19
  -2  -4   3 4024.30  125.19
  -2  -4   3 3990.10  126.29
  -2  -4   3 4035.80  124.49
  -2  -4   3 4005.20  137.89
   1   4  -3   92.69    5.60
   1   4  -3  102.79   12.80
   1   4  -3   94.89    6.00
   1   4  -3   92.69    5.10
  -1  -4   3   97.69   13.00
  -1  -4   3   92.79    5.40
  -1  -4   3  107.39    6.80
   0   4  -3 5127.99  158.68
   0   4  -3 5428.66  169.18
   0   4  -3 5267.47  160.18
   0  -4   3 5079.29  169.38
  -1   4  -3   57.19   10.00
  -1   4  -3   62.99    3.00
  -1   4  -3   70.59    3.80
  -1   4  -3   61.19    5.10
  -1   4  -3   64.59    4.60
   1  -4   3   63.49    4.90
   1  -4   3   70.49    3.10
   1  -4   3   61.09    9.10
   1  -4   3   66.59    4.50
  -2   4  -3 3364.66  101.39
  -2   4  -3 3187.48   99.29
  -2   4  -3 3434.26  110.09
  -2   4  -3 3240.28  100.99
   2  -4   3 3257.37  109.89
   2  -4   3 3234.08   99.19
   2  -4   3 3170.18  101.19
   2  -4   3 3252.57  100.79
  -3   4  -3   40.70    3.80
  -3   4  -3   51.89   10.20
  -3   4  -3   37.80    2.80
  -3   4  -3   35.10    4.40
  -3   4  -3   41.20    4.40
   3  -4   3   31.80    4.40
   3  -4   3   49.80    4.50
   3  -4   3   30.10    8.20
   3  -4   3   37.70    2.90
  -4   4  -3 2411.26   75.99
  -4   4  -3 2429.16   75.09
  -4   4  -3 2468.35   86.29
  -4   4  -3 2352.56   74.29
  -4   4  -3 2461.25   76.09
   4  -4   3 2421.16   86.49
   4  -4   3 2445.26   76.09
   4  -4   3 2389.56   74.29
   4  -4   3 2274.87   75.89
  -5   4  -3    9.40    3.70
  -5   4  -3   12.00    3.80
  -5   4  -3   10.70    1.80
   5  -4   3    5.60    3.40
   5  -4   3   12.50    2.50
   5  -4   3    8.20    7.00
   5  -4   3   10.90    3.60
   5  -4   3   -1.20    7.80
  -6   4  -3 1610.94   53.89
  -6   4  -3 1567.14   50.49
  -6   4  -3 1678.13   53.99
   6  -4   3 1650.63   54.09
   6  -4   3 1591.04   67.39
   6  -4   3 1664.83   67.29
   6  -4   3 1638.64   51.99
   6  -4   3 1558.04   53.69
  -7   4  -3   10.80    2.80
  -7   4  -3   16.40    6.00
  -7   4  -3   16.90    5.70
   7  -4   3   17.60    5.60
   7  -4   3   17.40   14.40
   7  -4   3   16.80    4.90
   7  -4   3   13.20   12.20
   7  -4   3    8.70    3.60
  -8   4  -3  477.75   22.70
  -8   4  -3  456.45   17.00
  -8   4  -3  496.25   22.50
   8  -4   3  452.55   40.20
   8  -4   3  522.65   43.00
   8  -4   3  478.05   19.90
   8  -4   3  454.45   21.80
   8  -4   3  485.25   22.80
   7   3  -3    6.10    3.90
   7   3  -3    9.70    6.70
   7   3  -3   15.80    5.80
   7   3  -3    3.60   17.30
   7   3  -3   13.40    4.70
  -7  -3   3   13.90    6.70
  -7  -3   3   14.60   19.40
  -7  -3   3   21.80    5.80
  -7  -3   3   11.40    7.90
   6   3  -3 1107.59   55.79
   6   3  -3 1050.39   36.80
   6   3  -3 1086.79   36.80
   6   3  -3 1070.99   35.70
   6   3  -3 1085.69   38.80
  -6  -3   3 1094.69   38.10
  -6  -3   3 1037.80   53.59
  -6  -3   3 1019.70   36.10
  -6  -3   3 1041.30   39.70
   5   3  -3   42.20   14.30
   5   3  -3   45.00    5.30
   5   3  -3   38.10    7.00
   5   3  -3   53.19    6.40
   5   3  -3   47.00    4.90
  -5  -3   3   46.80    5.10
  -5  -3   3   39.70    5.70
  -5  -3   3   54.29   13.70
  -5  -3   3   57.49    8.00
   4   3  -3 1723.83   53.39
   4   3  -3 1630.44   52.29
   4   3  -3 1661.03   54.39
   4   3  -3 1712.23   66.99
   4   3  -3 1626.14   53.39
  -4  -3   3 1687.03   53.19
  -4  -3   3 1597.24   65.79
  -4  -3   3 1687.43   54.09
  -4  -3   3 1677.03   55.19
   3   3  -3  497.95   19.10
   3   3  -3  546.05   18.40
   3   3  -3  515.75   27.90
  -3  -3   3  510.55   19.80
  -3  -3   3  524.05   18.10
  -3  -3   3  510.85   27.90
  -3  -3   3  519.75   18.80
   2   3  -3 2537.05   81.49
   2   3  -3 2844.62   92.29
   2   3  -3 2672.43   81.29
   2   3  -3 2608.04   82.19
  -2  -3   3 2595.74   81.69
  -2  -3   3 2551.24   81.19
  -2  -3   3 2644.74   82.69
  -2  -3   3 2651.83   91.69
   1   3  -3 1606.64   50.99
   1   3  -3 1724.23   59.39
   1   3  -3 1651.53   50.69
   1   3  -3 1632.44   51.49
  -1  -3   3 1568.24   50.99
  -1  -3   3 1640.04   51.89
  -1  -3   3 1599.54   58.99
  -1  -3   3 1606.94   50.59
   0   3  -3 4086.29  127.99
   0  -3   3 3879.81  127.99
   0  -3   3 3895.91  121.19
  -1   3  -3 1393.96   44.20
  -1   3  -3 1366.26   43.80
  -1   3  -3 1418.96   43.00
  -1   3  -3 1337.17   42.50
  -1   3  -3 1462.05   50.39
   1  -3   3 1413.46   43.90
   1  -3   3 1361.76   42.50
   1  -3   3 1378.26   50.09
   1  -3   3 1415.86   44.30
  -2   3  -3 1766.82   55.69
  -2   3  -3 1839.22   55.99
  -2   3  -3 1850.71   62.49
  -2   3  -3 1737.33   54.39
   2  -3   3 1782.72   55.69
   2  -3   3 1743.73   62.09
   2  -3   3 1780.32   54.39
   2  -3   3 1732.43   55.89
  -3   3  -3 1042.00   33.20
  -3   3  -3 1084.29   34.50
  -3   3  -3 1020.40   34.30
  -3   3  -3 1030.20   33.60
  -3   3  -3 1102.89   41.70
   3  -3   3 1036.10   41.20
   3  -3   3 1055.49   34.60
   3  -3   3 1067.39   34.50
   3  -3   3 1053.79   33.20
  -4   3  -3   89.79    3.90
  -4   3  -3   91.79    6.00
  -4   3  -3   91.49    6.00
   4  -3   3   82.69   10.50
   4  -3   3   92.69    4.90
   4  -3   3   86.29   10.60
   4  -3   3   91.89    5.90
   4  -3   3   84.69    5.60
  -5   3  -3 1648.44   51.29
  -5   3  -3 1507.05   48.50
  -5   3  -3 1603.34   51.39
   5  -3   3 1521.05   61.09
   5  -3   3 1522.95   51.09
   5  -3   3 1598.74   51.49
   5  -3   3 1608.84   61.49
   5  -3   3 1560.64   49.80
  -6   3  -3   10.60    4.10
  -6   3  -3   10.50    2.10
  -6   3  -3    9.70    4.00
   6  -3   3   11.00    3.60
   6  -3   3   13.00    5.20
   6  -3   3   10.20    9.20
   6  -3   3   -0.90    7.50
   6  -3   3    8.30    3.70
  -7   3  -3 1454.65   48.10
  -7   3  -3 1360.56   44.00
  -7   3  -3 1362.76   48.00
   7  -3   3 1355.76   48.00
   7  -3   3 1389.96   47.70
   7  -3   3 1427.56   46.80
   7  -3   3 1398.76   46.00
   7  -3   3 1439.96   62.99
  -8   3  -3   96.39    6.10
  -8   3  -3   90.09   11.70
  -8   3  -3   93.99    9.80
   8  -3   3   90.29   10.80
   8  -3   3   98.99   22.20
   8  -3   3  110.19   11.70
   8  -3   3  102.49   22.20
   8  -3   3  110.39   10.70
   8  -3   3  101.59    9.50
   8   2  -3  302.07   40.30
   8   2  -3  303.07   14.80
   8   2  -3  317.67   16.60
   8   2  -3  292.17   17.20
   8   2  -3  311.77   16.40
  -8  -2   3  277.37   35.10
  -8  -2   3  285.77   14.70
  -8  -2   3  311.07   18.10
   7   2  -3  277.37   13.00
   7   2  -3  267.67   35.40
   7   2  -3  289.97   13.70
   7   2  -3  273.27   15.60
   7   2  -3  254.97   13.20
  -7  -2   3  242.18   27.30
  -7  -2   3  272.87   15.20
  -7  -2   3  240.98   15.40
  -7  -2   3  262.47   12.80
   6   2  -3 1384.76   46.60
   6   2  -3 1356.16   44.70
   6   2  -3 1308.87   44.90
   6   2  -3 1357.76   44.10
   6   2  -3 1435.36   63.99
  -6  -2   3 1406.56   46.40
  -6  -2   3 1330.57   47.30
  -6  -2   3 1323.07   59.79
  -6  -2   3 1289.17   44.20
   5   2  -3  283.07   12.20
   5   2  -3  296.17   23.40
   5   2  -3  305.37   12.30
   5   2  -3  307.87   13.70
   5   2  -3  291.47   11.70
  -5  -2   3  284.67   14.80
  -5  -2   3  280.37   14.10
  -5  -2   3  287.47   11.90
  -5  -2   3  300.27   22.60
   4   2  -3 2317.37   73.29
   4   2  -3 2423.16   74.19
   4   2  -3 2359.66   75.09
   4   2  -3 2317.27   74.19
   4   2  -3 2519.75   86.99
  -4  -2   3 2363.56   74.79
  -4  -2   3 2381.26   73.99
  -4  -2   3 2346.07   75.59
  -4  -2   3 2360.86   85.39
   3   2  -3  193.08    7.40
   3   2  -3  190.38    7.90
   3   2  -3  190.98    8.70
   3   2  -3  195.48   15.30
   3   2  -3  188.28    8.00
  -3  -2   3  172.38   14.30
  -3  -2   3  187.88    7.90
  -3  -2   3  206.88    9.30
  -3  -2   3  189.28    8.30
   2   2  -3  935.71   29.90
   2   2  -3  939.11   29.40
   2   2  -3  975.00   37.00
  -2  -2   3  866.01   29.40
  -2  -2   3  879.71   36.10
  -2  -2   3  899.91   30.10
  -2  -2   3  928.21   29.30
   1   2  -3 1976.50   61.49
   1   2  -3 2049.29   67.19
   1   2  -3 1980.40   61.09
   1   2  -3 1918.81   61.09
  -1  -2   3 1962.40   61.79
  -1  -2   3 2012.40   61.09
  -1  -2   3 2030.60   67.49
   0   2  -3   18.70    3.60
   0   2  -3    9.70    1.40
   0   2  -3   19.10    1.50
   0   2  -3   14.50    0.60
   0   2  -3   10.40    1.70
   0  -2   3   20.80    1.40
   0  -2   3   11.70    1.80
   0  -2   3   13.80    1.60
   0  -2   3   11.90    3.50
  -2   2  -3  668.43   20.80
  -2   2  -3  659.13   21.20
  -2   2  -3  631.14   21.30
  -2   2  -3  643.14   25.60
   2  -2   3  636.04   25.70
   2  -2   3  658.33   20.50
   2  -2   3  615.84   21.30
   2  -2   3  682.83   21.40
   3  -2   3 6512.65  202.08
   3  -2   3 6388.46  202.38
  -4   2  -3 1652.93   52.99
  -4   2  -3 1587.14   50.79
  -4   2  -3 1708.73   52.89
   4  -2   3 1686.43   51.99
   4  -2   3 1607.84   52.79
   4  -2   3 1748.82   52.29
   4  -2   3 1667.13   53.19
   4  -2   3 1637.24   60.79
   4  -2   3 1680.73   60.69
  -5   2  -3 1335.97   43.30
  -5   2  -3 1419.96   46.00
  -5   2  -3 1492.05   46.10
   5  -2   3 1425.06   45.10
   5  -2   3 1422.46   44.80
   5  -2   3 1368.96   55.19
   5  -2   3 1404.46   55.99
   5  -2   3 1395.46   46.20
   5  -2   3 1363.56   45.70
  -6   2  -3  344.27   15.10
  -6   2  -3  350.26   14.70
  -6   2  -3  336.77   11.80
   6  -2   3  358.36   24.30
   6  -2   3  332.27   24.00
   6  -2   3  365.26   14.40
   6  -2   3  348.37   15.50
   6  -2   3  267.17   15.90
  -7   2  -3  115.49    6.20
  -7   2  -3  139.89   10.20
  -7   2  -3  121.59   10.30
   7  -2   3  131.59    9.60
   7  -2   3  144.49   23.10
   7  -2   3  136.89    8.30
   7  -2   3  134.69   10.70
   7  -2   3  122.69    9.10
  -8   2  -3   29.50    3.80
  -8   2  -3   33.20    7.60
  -8   2  -3   42.10    7.30
   8  -2   3   34.00   18.90
   8  -2   3   26.70    6.30
   8  -2   3   26.70    6.10
   8  -2   3   28.70    6.40
   8  -2   3   31.40    6.50
   8  -2   3   30.20   17.40
   8   1  -3  139.49   11.30
   8   1  -3  115.49    9.50
   8   1  -3  126.19   24.20
   8   1  -3  123.39   12.90
   8   1  -3  135.19    9.50
  -8  -1   3  148.69   12.00
  -8  -1   3  129.49   22.70
  -8  -1   3  140.39   14.70
  -8  -1   3  128.79    9.60
   7   1  -3   82.09    8.10
   7   1  -3   95.29    9.80
   7   1  -3   87.19    7.00
   7   1  -3   74.39    6.70
  -7  -1   3   75.39    6.90
  -7  -1   3   83.29   10.90
  -7  -1   3   82.69    8.30
   6   1  -3   19.10    3.80
   6   1  -3   17.10   10.20
   6   1  -3   13.20    3.90
   6   1  -3   15.20    4.40
  -6  -1   3   17.50    4.40
  -6  -1   3   13.80   10.30
  -6  -1   3   11.50    4.80
   5   1  -3 1669.53   66.49
   5   1  -3 1758.92   54.09
   5   1  -3 1610.04   54.19
   5   1  -3 1730.63   55.29
   5   1  -3 1677.83   53.59
  -5  -1   3 1676.63   54.99
  -5  -1   3 1843.02   66.79
  -5  -1   3 1649.83   55.59
  -5  -1   3 1700.73   53.99
   4   1  -3  117.49   13.10
   4   1  -3  129.59    6.70
   4   1  -3  123.39    6.10
   4   1  -3  116.99    5.70
   4   1  -3  118.59    5.90
  -4  -1   3  112.19    6.80
  -4  -1   3  118.59    6.40
  -4  -1   3  110.79    5.80
  -4  -1   3  129.59   13.00
   3   1  -3 6937.81  214.58
  -3  -1   3 6673.73  213.68
   2   1  -3 1740.33   52.89
   2   1  -3 1821.82   59.39
   2   1  -3 1691.53   53.69
   2   1  -3 1764.12   53.49
   2   1  -3 1688.73   53.29
  -2  -1   3 1675.73   53.49
  -2  -1   3 1730.63   53.99
  -2  -1   3 1706.33   53.39
  -2  -1   3 1768.02   58.89
   0   1  -3 2740.93   86.19
   0  -1   3 2801.82   86.39
  -1   1  -3 2574.04   78.89
   1  -1   3 2456.45   78.79
  -2   1  -3  247.18    8.90
  -2   1  -3  257.07    9.00
   2  -1   3  241.58    9.00
   2  -1   3  265.17    9.20
   2  -1   3  271.07    8.80
   2  -1   3  252.87   12.20
   2  -1   3  242.78   12.10
  -3   1  -3 1714.73   52.99
  -3   1  -3 1683.73   52.89
   3  -1   3 1687.23   52.39
   3  -1   3 1757.42   58.89
   3  -1   3 1648.64   52.89
   3  -1   3 1685.03   53.19
  -4   1  -3   14.20    2.60
  -4   1  -3   10.10    1.50
  -4   1  -3    7.90    5.00
  -4   1  -3    8.60    2.40
   4  -1   3    7.70    1.20
   4  -1   3   11.80    2.70
   4  -1   3    9.50    2.30
   4  -1   3   13.20    2.00
   4  -1   3   11.80    4.50
  -5   1  -3 2024.20   73.39
  -5   1  -3 1917.01   61.19
  -5   1  -3 2000.60   63.69
  -5   1  -3 2040.10   63.59
   5  -1   3 1903.01   61.29
   5  -1   3 2012.60   64.09
   5  -1   3 2010.40   62.59
   5  -1   3 1993.10   63.39
   5  -1   3 2084.39   73.99
  -6   1  -3   12.00    7.90
  -6   1  -3   17.10    4.40
  -6   1  -3   13.50    2.30
  -6   1  -3   11.30    3.90
   6  -1   3   11.00    4.20
   6  -1   3   14.10    2.40
   6  -1   3   12.60    9.70
   6  -1   3    8.40    4.20
   6  -1   3   15.40    3.20
  -7   1  -3 1303.87   42.40
  -7   1  -3 1191.18   42.30
  -7   1  -3 1173.78   38.40
   7  -1   3 1185.78   41.50
   7  -1   3 1174.38   55.59
   7  -1   3 1216.58   40.60
   7  -1   3 1217.28   42.60
  -8   1  -3   20.20    7.20
  -8   1  -3   30.40    6.80
  -8   1  -3   23.70    3.80
   8  -1   3   23.10   15.80
   8  -1   3   31.80    5.80
   8  -1   3   21.40    6.00
   8  -1   3   19.20    5.90
   8  -1   3   21.40    5.20
   8   0  -3  227.18   34.40
   8   0  -3  209.88   11.60
   8   0  -3  227.28   14.40
   8   0  -3  205.08   12.10
   8   0  -3  212.98   12.30
  -8   0   3  207.28   30.50
  -8   0   3  213.98   12.30
  -8   0   3  227.88   13.80
  -8   0   3  230.68   16.20
   7   0  -3  885.51   50.69
   7   0  -3  939.71   32.10
   7   0  -3  933.11   32.80
   7   0  -3  957.40   32.10
   7   0  -3  989.50   34.40
  -7   0   3  912.31   48.00
  -7   0   3  906.71   31.90
  -7   0   3  937.81   33.80
  -7   0   3  900.51   34.90
   6   0  -3  568.14   21.90
   6   0  -3  502.45   21.20
   6   0  -3  588.04   20.60
   6   0  -3  571.04   20.80
   6   0  -3  602.34   34.20
  -6   0   3  570.34   20.30
  -6   0   3  529.95   32.20
  -6   0   3  562.14   22.40
  -6   0   3  587.04   22.00
   5   0  -3 1508.55   48.70
   5   0  -3 1488.75   47.50
   5   0  -3 1537.75   58.99
   5   0  -3 1430.76   47.80
   5   0  -3 1506.85   47.40
  -5   0   3 1454.25   49.00
  -5   0   3 1507.35   47.60
  -5   0   3 1523.35   58.59
  -5   0   3 1480.45   48.50
   4   0  -3  222.48   15.90
   4   0  -3  209.98    8.80
   4   0  -3  214.28    8.70
   4   0  -3  209.98    9.40
   4   0  -3  210.78    8.50
  -4   0   3  222.28    9.20
  -4   0   3  214.18    9.80
  -4   0   3  215.58   15.30
  -4   0   3  216.48    8.70
   3   0  -3 2417.16   79.79
   3   0  -3 2373.46   73.39
   3   0  -3 2373.26   72.69
   3   0  -3 2394.36   73.09
   3   0  -3 2255.57   72.89
  -3   0   3 2413.36   79.49
  -3   0   3 2365.16   73.29
  -3   0   3 2405.46   73.09
  -3   0   3 2368.06   73.69
  -3   0   3 2389.26   72.69
   2   0  -3   22.50    2.00
   2   0  -3   21.70    4.10
   2   0  -3   23.90    2.00
   2   0  -3   24.10    1.70
   2   0  -3   23.50    1.80
  -2   0   3   23.30    1.90
  -2   0   3   23.10    1.60
  -2   0   3   27.60    4.00
  -2   0   3   25.60    2.10
  -2   0   3   24.50    2.10
   0   0   3   10.20    0.80
   0   0   3   10.80    0.90
  -2   0  -3   48.30    5.10
  -2   0  -3   49.50    2.80
  -2   0  -3   43.70    2.60
   2   0   3   48.50    2.00
   2   0   3   51.59    3.10
   2   0   3   45.40    2.70
   2   0   3   45.40    5.20
  -3   0  -3 3156.28  110.99
  -3   0  -3 3305.17  101.59
   3   0   3 3327.07  101.39
   3   0   3 3461.95  107.99
   3   0   3 3307.57  101.79
  -4   0  -3  183.98    6.70
  -4   0  -3  192.48    8.30
  -4   0  -3  173.48    8.40
  -4   0  -3  170.48   13.90
   4   0   3  188.98   14.40
   4   0   3  179.18    8.00
   4   0   3  175.68    8.70
   4   0   3  168.38    6.60
  -5   0  -3 1893.61   62.39
  -5   0  -3 1900.31   71.99
  -5   0  -3 1926.41   60.09
  -5   0  -3 2067.89   62.39
   5   0   3 1842.92   61.79
   5   0   3 1981.10   61.49
   5   0   3 1995.90   60.29
   5   0   3 1984.50   72.89
   5   0   3 1959.90   62.89
  -6   0  -3  330.87   24.70
  -6   0  -3  369.86   15.10
  -6   0  -3  327.87   12.20
  -6   0  -3  310.57   14.60
   6   0   3  357.76   17.50
   6   0   3  324.97   25.50
   6   0   3  337.97   16.10
   6   0   3  321.37   14.30
   6   0   3  322.57   12.30
  -7   0  -3 1062.69   36.60
  -7   0  -3  992.90   50.39
  -7   0  -3  987.40   33.20
  -7   0  -3 1008.40   37.20
   7   0   3 1062.49   33.60
   7   0   3  977.90   35.70
   7   0   3 1005.70   35.00
   7   0   3 1061.29   37.80
   7   0   3 1060.59   52.69
  -8   0  -3   44.90    7.70
  -8   0  -3   42.80    5.50
  -8   0  -3   43.70    8.50
  -8   0  -3   34.60   19.40
   8   0   3   44.90    7.70
   8   0   3   40.50    8.50
   8   0   3   38.10   19.90
   8   0   3   44.30    6.60
   8   0   3   45.90    6.20
   9  -1  -3  241.48   45.30
   9  -1  -3  271.57   16.80
   8  -1  -3   21.50    6.60
   8  -1  -3   21.40    5.80
   8  -1  -3   24.40   18.70
   8  -1  -3   10.30    4.50
   8  -1  -3   11.40    4.60
  -8   1   3   18.60    7.30
  -8   1   3   18.00    5.50
  -8   1   3   12.60    5.20
   7  -1  -3  840.12   31.00
   7  -1  -3  892.91   30.70
   7  -1  -3  911.11   49.00
   7  -1  -3  897.61   32.30
  -7   1   3  867.51   44.50
  -7   1   3  908.71   33.60
  -7   1   3  860.81   30.70
  -7   1   3  941.61   33.10
   6  -1  -3  123.69    7.60
   6  -1  -3  131.99    8.60
   6  -1  -3  118.89   17.60
   6  -1  -3  122.09    7.00
  -6   1   3  125.49    9.80
  -6   1   3  130.99   17.10
  -6   1   3  123.09    7.40
   5  -1  -3 1674.53   53.59
   5  -1  -3 1704.33   52.69
   5  -1  -3 1687.53   52.49
   5  -1  -3 1596.34   52.79
   5  -1  -3 1677.73   63.29
  -5   1   3 1687.83   53.59
  -5   1   3 1670.53   53.99
  -5   1   3 1612.04   52.49
  -5   1   3 1638.34   62.89
  -5   1   3 1676.83   52.59
   4  -1  -3  203.18    8.10
   4  -1  -3  195.38   14.80
   4  -1  -3  198.98    8.40
   4  -1  -3  194.78    8.20
   4  -1  -3  205.58    8.80
  -4   1   3  201.38    8.20
  -4   1   3  202.38    9.20
  -4   1   3  204.88    8.30
  -4   1   3  213.78    8.90
  -4   1   3  195.28   14.20
   3  -1  -3 1752.52   54.59
   3  -1  -3 1758.82   54.79
   3  -1  -3 1741.43   54.39
   3  -1  -3 1773.32   60.59
  -3   1   3 1751.52   55.19
  -3   1   3 1739.03   54.59
  -3   1   3 1762.52   54.49
  -3   1   3 1790.42   60.39
  -3   1   3 1783.62   54.99
   2  -1  -3  474.15   18.80
   2  -1  -3  449.46   15.10
   2  -1  -3  463.75   15.00
   2  -1  -3  466.85   19.00
   2  -1  -3  470.55   15.20
   2  -1  -3  477.45   15.20
  -2   1   3  451.75   15.40
  -2   1   3  470.15   15.20
  -2   1   3  481.55   15.60
  -2   1   3  466.25   15.40
   1  -1  -3 2743.73   86.59
  -1   1   3 2817.22   86.69
   1   1   3 5763.32  177.48
  -2  -1  -3 2224.38   68.19
  -2  -1  -3 1940.31   73.19
   2   1   3 2412.16   73.89
   2   1   3 2287.47   68.59
  -3  -1  -3 3967.20  119.99
  -3  -1  -3 3986.40  127.39
  -3  -1  -3 3889.31  120.29
   3   1   3 4012.30  127.89
   3   1   3 3767.22  119.79
   3   1   3 3935.71  120.59
  -4  -1  -3   64.39    3.70
  -4  -1  -3   70.89    4.80
  -4  -1  -3   74.69    9.70
  -4  -1  -3   67.69    5.40
   4   1   3   65.99    3.80
   4   1   3   61.19    5.10
   4   1   3   65.99    4.60
   4   1   3   66.29   10.80
  -5  -1  -3  751.32   24.80
  -5  -1  -3  724.13   35.90
  -5  -1  -3  741.63   27.20
  -5  -1  -3  792.02   26.90
   5   1   3  737.03   36.70
   5   1   3  747.23   27.30
   5   1   3  737.93   26.30
   5   1   3  825.92   25.10
  -6  -1  -3   16.20    9.30
  -6  -1  -3   12.90    2.70
  -6  -1  -3    9.80    4.80
  -6  -1  -3    9.70    7.60
   6   1   3   10.10    2.80
   6   1   3    7.50    4.60
   6   1   3    8.70    9.30
   6   1   3   11.80    3.40
  -7  -1  -3   66.09   16.90
  -7  -1  -3   56.99    5.50
  -7  -1  -3   60.29    8.70
  -7  -1  -3   69.19   10.00
   7   1   3   70.09    6.60
   7   1   3   63.59   16.60
   7   1   3   64.89    8.30
   7   1   3   60.19    6.70
   7   1   3   61.49    8.50
  -8  -1  -3  195.98   16.00
  -8  -1  -3  221.98   15.00
   8   1   3  193.38   15.70
   8   1   3  211.18   13.80
   8   1   3  200.58   17.20
   8   1   3  187.48   37.40
   8   1   3  192.18   12.10
   9  -2  -3  214.38   13.60
   9  -2  -3  267.17   37.00
   9  -2  -3  222.18   15.50
   9  -2  -3  210.88   13.50
   9  -2  -3  -11.60   21.30
  -9   2   3  208.98   12.90
   8  -2  -3  326.77   16.30
   8  -2  -3  310.97   14.80
   8  -2  -3  330.87   15.60
   8  -2  -3  332.37   36.20
   8  -2  -3  309.77   30.20
   8  -2  -3  332.47   17.30
  -8   2   3  312.07   17.60
  -8   2   3  325.87   15.20
  -8   2   3  359.96   18.20
   7  -2  -3  709.23   39.80
   7  -2  -3  741.23   27.10
   7  -2  -3  719.03   26.70
   7  -2  -3  760.22   27.90
   7  -2  -3  748.23   26.10
  -7   2   3  721.33   28.80
  -7   2   3  775.22   28.40
  -7   2   3  690.23   25.70
   6  -2  -3   33.70    4.40
   6  -2  -3   42.90    6.20
   6  -2  -3   31.70    4.40
   6  -2  -3   38.00    9.90
   6  -2  -3   29.30   10.00
   6  -2  -3   27.20    4.40
  -6   2   3   23.80    4.90
  -6   2   3   35.40    4.50
  -6   2   3   39.50    5.70
   5  -2  -3 3317.27  105.29
   5  -2  -3 3201.88  104.79
   5  -2  -3 3592.14  116.19
   5  -2  -3 3477.25  115.99
   5  -2  -3 3304.87  104.39
   5  -2  -3 3463.65  104.69
  -5   2   3 3417.66  104.59
  -5   2   3 3409.06  105.59
  -5   2   3 3369.46  104.49
  -5   2   3 3375.66  105.99
   4  -2  -3  859.01   27.90
   4  -2  -3  858.11   28.50
   4  -2  -3  871.21   36.20
   4  -2  -3  837.82   28.30
   4  -2  -3  871.41   35.90
   4  -2  -3  869.21   28.00
  -4   2   3  871.01   28.80
  -4   2   3  869.91   28.10
  -4   2   3  840.32   29.10
  -4   2   3  846.32   28.10
   3  -2  -3 7736.63  242.08
   3  -2  -3 7853.71  242.58
   2  -2  -3  335.57   11.70
   2  -2  -3  340.97   11.70
   2  -2  -3  339.27   11.60
  -2   2   3  338.57   16.20
  -2   2   3  346.47   12.00
  -2   2   3  333.67   11.50
  -2   2   3  337.07   12.00
  -2   2   3  352.76   11.80
   1  -2  -3 4929.91  158.08
  -1   2   3 5244.48  158.08
   0  -2  -3   17.70    3.70
   0  -2  -3   23.00    1.80
   0  -2  -3   10.10    1.30
   0   2   3   19.70    1.60
   0   2   3    9.30    1.40
   0   2   3   19.90    2.00
   0   2   3   14.50    3.20
  -1  -2  -3  316.97   11.30
  -1  -2  -3  320.97   11.00
  -1  -2  -3  346.47   16.50
   1   2   3  306.57   11.00
   1   2   3  328.47   15.90
   1   2   3  331.27   11.80
  -2  -2  -3 1047.20   33.00
  -2  -2  -3 1052.69   33.40
   2   2   3 1041.80   33.80
   2   2   3 1039.20   33.00
   2   2   3 1030.30   32.60
   2   2   3 1007.40   43.20
  -3  -2  -3   19.90    3.60
  -3  -2  -3   17.50    3.10
  -3  -2  -3   22.90    6.10
   3   2   3   21.20    6.00
   3   2   3   20.90    3.20
   3   2   3   21.50    2.60
   3   2   3   22.90    4.10
  -4  -2  -3 2497.95   89.69
  -4  -2  -3 2595.74   79.19
  -4  -2  -3 2504.55   79.59
   4   2   3 2543.75   79.99
   4   2   3 2521.95   77.89
   4   2   3 2417.96   78.69
   4   2   3 2576.54   90.79
  -5  -2  -3  205.58   10.60
  -5  -2  -3  209.78   11.40
  -5  -2  -3  218.38   20.60
   5   2   3  211.48    9.20
   5   2   3  194.28   21.20
  -6  -2  -3 1254.37   44.70
  -6  -2  -3 1415.86   46.80
  -6  -2  -3 1204.68   57.09
   6   2   3 1275.07   41.80
   6   2   3 1266.57   43.40
   6   2   3 1271.57   60.29
   6   2   3 1300.97   45.20
  -7  -2  -3  140.59   27.60
  -7  -2  -3  147.19   13.40
  -7  -2  -3  179.88   12.50
   7   2   3  153.48   13.80
   7   2   3  145.49   11.30
   7   2   3  180.08   10.10
   7   2   3  164.68   31.20
   7   2   3  162.98   11.20
   8   2   3  177.78   33.90
   9  -3  -3  329.47   40.70
   8  -3  -3  403.36   37.90
   8  -3  -3  358.66   17.00
   8  -3  -3  406.56   36.10
   8  -3  -3  374.96   18.40
   8  -3  -3  393.06   16.60
   8  -3  -3  373.56   16.90
  -8   3   3  394.16   19.60
  -8   3   3  360.36   19.10
  -8   3   3  373.26   16.80
   7  -3  -3  946.91   32.10
   7  -3  -3  936.51   48.10
   7  -3  -3  931.11   32.20
   7  -3  -3  907.81   33.10
   7  -3  -3  907.01   32.70
   7  -3  -3  888.11   47.70
  -7   3   3  944.31   34.90
  -7   3   3  915.41   32.10
  -7   3   3  897.31   32.00
  -7   3   3  970.00   34.30
   6  -3  -3  144.09   16.70
   6  -3  -3  141.89    8.40
   6  -3  -3  147.19   19.10
   6  -3  -3  128.79    8.40
  -6   3   3  165.58   11.30
  -6   3   3  129.19    9.80
  -6   3   3  153.18    8.20
  -6   3   3  142.89    7.90
   5  -3  -3  870.11   28.60
   5  -3  -3  829.92   29.10
   5  -3  -3  833.32   38.80
   5  -3  -3  838.92   29.20
   5  -3  -3  874.61   39.70
  -5   3   3  854.11   28.70
  -5   3   3  906.61   30.20
  -5   3   3  852.41   30.20
  -5   3   3  834.42   28.60
   4  -3  -3  343.67   13.60
   4  -3  -3  374.16   21.10
   4  -3  -3  377.56   13.80
   4  -3  -3  358.76   13.10
   4  -3  -3  343.27   20.80
  -4   3   3  360.86   13.40
  -4   3   3  353.86   13.30
  -4   3   3  377.66   14.40
  -4   3   3  354.76   14.40
   3  -3  -3  722.03   23.10
   3  -3  -3  702.73   23.30
   3  -3  -3  671.43   23.30
   3  -3  -3  670.13   29.90
  -3   3   3  710.93   23.20
  -3   3   3  708.63   24.00
  -3   3   3  717.43   23.90
  -3   3   3  711.43   30.30
  -3   3   3  684.93   23.00
   2  -3  -3 2572.54   78.09
   2  -3  -3 2413.86   78.19
  -2   3   3 2564.04   78.69
  -2   3   3 2645.44   85.19
  -2   3   3 2522.15   78.69
  -2   3   3 2550.74   78.19
   1  -3  -3 1542.65   45.40
   1  -3  -3 1432.86   45.50
   1  -3  -3 1496.25   45.20
  -1   3   3 1432.06   45.30
  -1   3   3 1488.65   46.00
  -1   3   3 1287.77   53.99
  -1   3   3 1491.75   45.60
   0   3   3 4147.08  124.49
   0   3   3 4040.60  132.19
  -1  -3  -3 1486.85   47.60
  -1  -3  -3 1462.35   47.00
   1   3   3 1525.25   48.10
   1   3   3 1549.64   55.89
  -2  -3  -3 2181.18   68.39
  -2  -3  -3 2176.28   77.29
  -2  -3  -3 2117.99   67.69
   2   3   3 2215.48   67.39
   2   3   3 2165.88   68.89
   2   3   3 2082.39   67.59
   2   3   3 2312.77   77.49
  -3  -3  -3  211.78   10.10
  -3  -3  -3  226.38    9.70
  -3  -3  -3  214.68   17.00
   3   3   3  204.08   16.80
   3   3   3  223.68    8.90
   3   3   3  204.58    9.20
   3   3   3  219.88   10.90
  -4  -3  -3  780.62   27.20
  -4  -3  -3  749.13   38.60
  -4  -3  -3  773.42   27.90
   4   3   3  770.12   26.00
   4   3   3  814.52   28.60
   4   3   3  751.82   26.80
   4   3   3  784.22   38.50
  -5  -3  -3    3.60   10.90
  -5  -3  -3    6.30    4.60
  -5  -3  -3    5.30    3.80
   5   3   3    7.80    3.70
   5   3   3   -3.50   11.20
   5   3   3    5.60    4.50
   5   3   3    4.90    3.10
  -6  -3  -3  250.17   15.30
  -6  -3  -3  268.27   29.90
  -6  -3  -3  279.87   14.50
   6   3   3  292.37   14.40
   6   3   3  284.17   16.00
   6   3   3  256.27   13.20
   6   3   3  270.87   28.70
  -7  -3  -3    1.70    6.20
  -7  -3  -3    8.40    7.70
  -7  -3  -3   16.20   18.80
   7   3   3    9.10   17.40
   7   3   3    3.80    5.50
   7   3   3    0.40    4.90
   7   3   3    6.30    7.10
   8  -4  -3  126.19   11.20
   8  -4  -3  132.29    9.50
   8  -4  -3  104.99   24.50
   8  -4  -3  110.09   11.20
   8  -4  -3  116.29   20.90
  -8   4   3  126.09   10.40
  -8   4   3  118.79   12.50
  -8   4   3  140.79   11.10
  -8   4   3  120.29   13.30
   7  -4  -3  441.56   31.50
   7  -4  -3  461.85   35.40
   7  -4  -3  446.06   19.00
   7  -4  -3  445.56   18.70
   7  -4  -3  439.56   17.60
  -7   4   3  489.15   20.70
  -7   4   3  433.36   20.90
  -7   4   3  428.76   17.60
  -7   4   3  440.36   18.10
   6  -4  -3  603.44   35.40
   6  -4  -3  523.15   24.60
   6  -4  -3  649.24   36.60
   6  -4  -3  640.84   22.40
  -6   4   3  672.03   24.50
  -6   4   3  629.14   22.80
  -6   4   3  619.04   24.30
   5  -4  -3 1022.90   36.10
   5  -4  -3 1042.30   35.70
   5  -4  -3 1080.09   46.80
   5  -4  -3 1091.39   35.80
   5  -4  -3 1060.79   46.90
  -5   4   3 1042.80   35.50
  -5   4   3 1034.60   35.10
  -5   4   3 1063.49   36.80
  -5   4   3 1098.49   36.60
   4  -4  -3 1268.57   43.50
   4  -4  -3 1332.17   53.89
   4  -4  -3 1359.16   43.60
   4  -4  -3 1378.06   43.00
  -4   4   3 1333.87   43.30
  -4   4   3 1346.17   44.60
  -4   4   3 1373.56   43.40
  -4   4   3 1373.36   44.40
   3  -4  -3  665.83   22.20
   3  -4  -3  627.14   22.30
   3  -4  -3  636.44   30.30
   3  -4  -3  668.73   21.90
  -3   4   3  679.33   30.50
  -3   4   3  640.74   22.00
  -3   4   3  635.84   22.90
  -3   4   3  638.34   21.90
  -3   4   3  651.43   22.80
   2  -4  -3 2391.36   82.89
   2  -4  -3 2376.76   73.49
   2  -4  -3 2411.16   73.39
   2  -4  -3 2248.77   73.79
  -2   4   3 2393.26   74.49
  -2   4   3 2510.95   82.89
  -2   4   3 2374.16   73.59
  -2   4   3 2305.97   74.19
   1  -4  -3   99.89   11.30
   1  -4  -3   89.29    5.40
  -1   4   3  107.59    5.10
  -1   4   3  100.29   11.00
  -1   4   3   91.99    6.20
  -1   4   3  100.69    5.70
   0  -4  -3 3240.78  104.69
   0  -4  -3 3453.15  104.29
   0  -4  -3 3441.96  114.79
   0   4   3 3567.84  113.89
   0   4   3 3454.55  105.49
   0   4   3 3315.17  104.59
   0   4   3 3338.97  104.09
  -1  -4  -3  173.28    8.50
  -1  -4  -3  199.38    8.20
  -1  -4  -3  180.58   16.20
   1   4   3  187.48    9.40
   1   4   3  179.08    8.20
   1   4   3  182.58   15.10
  -2  -4  -3 1865.91   62.99
  -2  -4  -3 1936.61   74.49
  -2  -4  -3 2027.90   62.59
   2   4   3 2043.40   62.19
   2   4   3 2015.60   73.79
   2   4   3 2004.50   63.89
  -3  -4  -3  322.07   13.60
  -3  -4  -3  312.17   14.00
  -3  -4  -3  320.87   24.60
   3   4   3  299.67   12.80
   3   4   3  319.97   12.50
   3   4   3  320.57   22.30
   3   4   3  329.47   14.90
  -4  -4  -3  250.27   22.60
  -4  -4  -3  245.88   12.90
  -4  -4  -3  289.17   12.60
   4   4   3  242.58   11.50
   4   4   3  269.67   11.70
   4   4   3  218.58   23.90
   4   4   3  230.58   13.70
  -5  -4  -3   17.70    5.70
  -5  -4  -3   10.10   13.90
  -5  -4  -3   16.20    5.10
   5   4   3   18.00    4.30
   5   4   3   12.20    4.70
   5   4   3   18.00    6.10
   5   4   3   16.30   12.60
  -6  -4  -3   23.60    6.40
  -6  -4  -3   22.90    7.70
  -6  -4  -3   29.00   16.00
   6   4   3   16.10   20.10
   6   4   3   23.30    4.80
   6   4   3   22.60    7.20
   6   4   3   13.90    5.00
   8  -5  -3  184.18   36.90
   8  -5  -3  163.48   12.60
   8  -5  -3   59.69   22.00
   8  -5  -3  147.29   12.60
   8  -5  -3  162.68   10.40
  -8   5   3  170.68   11.00
  -8   5   3  166.38   12.90
  -8   5   3  146.29   11.00
  -8   5   3  161.08   14.90
   7  -5  -3  115.09   22.30
   7  -5  -3  136.19   10.30
   7  -5  -3  111.69   10.20
   7  -5  -3  125.19    8.70
   7  -5  -3  133.39   25.40
  -7   5   3  115.69   10.50
  -7   5   3  122.89    9.20
  -7   5   3  114.69    9.50
  -7   5   3  125.29   12.50
   6  -5  -3  872.81   32.50
   6  -5  -3  950.10   47.50
   6  -5  -3  978.00   48.50
   6  -5  -3  929.41   31.40
   6  -5  -3  887.31   34.20
  -6   5   3  865.31   31.40
  -6   5   3  966.00   33.60
  -6   5   3  887.91   33.80
  -6   5   3  933.31   32.20
   5  -5  -3   43.90   11.00
   5  -5  -3   46.20   10.80
   5  -5  -3   40.10    5.40
   5  -5  -3   38.50    4.90
   5  -5  -3   39.70    5.90
  -5   5   3   46.80    7.20
  -5   5   3   42.50    5.20
   4  -5  -3 2096.49   63.39
   4  -5  -3 1938.91   64.29
   4  -5  -3 2015.70   76.39
   4  -5  -3 1998.80   63.69
  -4   5   3 1999.80   63.59
  -4   5   3 2092.79   65.19
  -4   5   3 1981.90   64.99
  -4   5   3 2031.30   76.49
  -4   5   3 1943.31   63.49
   3  -5  -3  279.87   20.30
   3  -5  -3  253.97   10.10
   3  -5  -3  235.98   10.90
   3  -5  -3  250.77   10.60
  -3   5   3  262.17   19.70
  -3   5   3  235.78   11.30
  -3   5   3  238.28   11.40
  -3   5   3  241.48   10.50
   2  -5  -3 1132.79   35.70
   2  -5  -3 1059.99   36.50
   2  -5  -3 1165.68   36.10
   2  -5  -3 1021.10   45.60
  -2   5   3 1108.39   35.90
  -2   5   3 1136.89   37.40
  -2   5   3 1092.19   45.80
  -2   5   3 1102.49   36.90
   1  -5  -3  277.97   11.00
   1  -5  -3  244.88   19.50
   1  -5  -3  256.77   11.60
  -1   5   3  266.97   12.50
  -1   5   3  294.97   11.90
  -1   5   3  270.87   10.70
  -1   5   3  273.27   19.60
   0  -5  -3  256.17   20.50
   0  -5  -3  252.17   11.60
   0  -5  -3  277.07   10.80
   0   5   3  258.97   18.60
   0   5   3  259.17   11.30
   0   5   3  257.57   12.20
   0   5   3  254.57   10.30
  -1  -5  -3  207.18    9.40
  -1  -5  -3  193.28   10.00
  -1  -5  -3  196.48   19.70
   1   5   3  196.68    9.40
   1   5   3  194.28    9.00
   1   5   3  214.68   11.30
   1   5   3  209.08   18.70
   1   5   3  186.08    8.50
  -2  -5  -3  568.24   19.80
  -2  -5  -3  492.45   32.10
  -2  -5  -3  513.25   20.50
   2   5   3  532.65   31.40
   2   5   3  510.65   19.70
   2   5   3  528.85   23.40
   2   5   3  553.24   19.40
  -3  -5  -3  733.03   27.90
  -3  -5  -3  682.03   39.80
  -3  -5  -3  776.02   27.20
   3   5   3  771.62   41.30
   3   5   3  839.32   28.40
   3   5   3  711.53   27.00
   3   5   3  778.62   29.10
  -4  -5  -3 1004.50   53.09
  -4  -5  -3  992.80   37.90
  -4  -5  -3  986.20   36.60
   4   5   3 1078.29   35.00
   4   5   3 1035.20   52.79
   4   5   3 1021.10   37.70
  -5  -5  -3  117.99   13.50
  -5  -5  -3  104.89   23.10
  -5  -5  -3  133.79   11.00
   5   5   3  111.99   23.40
   5   5   3  121.89   13.00
   5   5   3  123.59   10.70
   5   5   3  123.29    8.80
  -6  -5  -3  472.25   21.60
  -6  -5  -3  416.56   22.50
   6   5   3  443.26   19.20
   6   5   3  426.06   47.30
   6   5   3  417.16   22.90
   7  -6  -3  129.69   10.50
   7  -6  -3  123.99   26.30
   7  -6  -3  118.79    8.90
   7  -6  -3  117.29   11.30
   7  -6  -3  136.09   29.40
  -7   6   3  127.49   11.40
  -7   6   3  117.99   12.10
  -7   6   3  123.09   10.70
  -7   6   3  126.69    9.90
   6  -6  -3  104.49    9.90
   6  -6  -3  127.19   25.90
   6  -6  -3  116.89    9.20
   6  -6  -3  124.09   20.60
   6  -6  -3  116.99    7.90
  -6   6   3  119.69   11.70
  -6   6   3  113.79   11.20
  -6   6   3  123.69    9.70
  -6   6   3  107.89    8.50
   5  -6  -3   12.50   11.90
   5  -6  -3    5.70    4.50
   5  -6  -3    7.80    3.10
   5  -6  -3    7.30    4.50
  -5   6   3    7.50    4.90
  -5   6   3    8.10    4.30
  -5   6   3   12.00    3.60
  -5   6   3    7.70    5.40
   4  -6  -3  154.18    9.50
   4  -6  -3  150.98    9.60
   4  -6  -3  166.38    8.60
   4  -6  -3  137.79   19.80
  -4   6   3  163.88    8.80
  -4   6   3  188.38   21.20
  -4   6   3  157.78   10.80
  -4   6   3  162.98    8.90
  -4   6   3  161.58   10.10
   3  -6  -3  757.52   28.10
   3  -6  -3  741.43   39.90
   3  -6  -3  820.52   27.10
   3  -6  -3  844.62   27.80
  -3   6   3  823.72   29.30
  -3   6   3  823.72   40.70
  -3   6   3  757.72   27.70
  -3   6   3  801.22   29.60
   2  -6  -3 1170.08   36.60
   2  -6  -3 1055.69   49.30
   2  -6  -3 1075.19   37.20
  -2   6   3 1059.19   36.10
  -2   6   3 1118.19   49.10
  -2   6   3 1099.09   37.60
   1  -6  -3  835.12   42.00
   1  -6  -3  861.61   30.10
   1  -6  -3  895.31   29.20
  -1   6   3  869.71   30.30
  -1   6   3  849.81   28.70
  -1   6   3  773.02   32.80
  -1   6   3  899.31   41.80
   0  -6  -3 1745.53   71.29
   0  -6  -3 1694.63   55.59
   0  -6  -3 1851.01   54.99
   0   6   3 1494.45   55.09
   0   6   3 1846.62   69.59
   0   6   3 1600.74   59.39
  -1  -6  -3  137.69   21.20
  -1  -6  -3  155.38    9.60
  -1  -6  -3  161.28    8.80
   1   6   3  152.28   20.20
   1   6   3  149.39    8.20
   1   6   3  134.99    8.60
   1   6   3  151.58    8.30
  -2  -6  -3  561.04   38.30
   2   6   3  624.64   37.50
   2   6   3  581.34   22.80
   2   6   3  614.34   24.80
   2   6   3  629.24   22.10
   2   6   3  563.54   21.10
  -3  -6  -3   59.09    8.80
  -3  -6  -3   32.90   14.20
  -3  -6  -3   49.90    7.30
   3   6   3   54.09   14.60
   3   6   3   52.59    9.70
   3   6   3   56.69    6.60
   3   6   3   42.10    7.70
  -4  -6  -3   55.89   10.70
  -4  -6  -3   70.29   19.30
  -4  -6  -3   71.49    9.20
   4   6   3   64.89    7.50
   4   6   3   61.19   18.90
   4   6   3   63.89    9.20
   4   6   3   60.89    9.30
  -5  -6  -3  136.49   12.40
  -5  -6  -3  129.49   15.40
   5   6   3  113.59   11.50
   5   6   3  106.99   28.30
   5   6   3  119.79   11.80
   7  -7  -3   -8.20   24.90
   7  -7  -3   99.59   12.20
   7  -7  -3  113.39   10.90
   7  -7  -3  119.69    8.90
   7  -7  -3   97.59   27.20
  -7   7   3   91.09   11.30
  -7   7   3  104.79   11.40
  -7   7   3  126.59   14.10
   6  -7  -3  980.60   33.90
   6  -7  -3  931.81   54.69
   6  -7  -3  918.71   35.50
   6  -7  -3 1012.80   54.39
   6  -7  -3  998.60   34.70
  -6   7   3  942.51   34.70
  -6   7   3  988.10   37.20
  -6   7   3  930.91   37.40
   5  -7  -3   89.89   10.00
   5  -7  -3  107.79    7.40
   5  -7  -3   71.49   19.10
   5  -7  -3  100.99    8.50
  -5   7   3   78.49    8.30
  -5   7   3   91.99    8.10
  -5   7   3   80.79   19.70
  -5   7   3   85.99   11.40
  -5   7   3   94.99   10.90
   4  -7  -3 1443.06   45.70
   4  -7  -3 1298.37   62.39
   4  -7  -3 1304.87   46.30
   4  -7  -3 1412.46   44.90
  -4   7   3 1352.26   47.80
  -4   7   3 1413.06   62.49
  -4   7   3 1344.97   45.30
  -4   7   3 1390.76   47.70
  -4   7   3 1332.97   45.70
   3  -7  -3  140.39   10.10
   3  -7  -3  147.89    9.00
   3  -7  -3  135.89   20.00
  -3   7   3  143.09    9.20
  -3   7   3  150.58   11.50
  -3   7   3  137.49   11.00
  -3   7   3  158.78   23.20
   2  -7  -3 1032.90   36.90
   2  -7  -3 1008.00   51.89
  -2   7   3 1041.40   37.40
  -2   7   3 1081.09   51.29
  -2   7   3 1043.40   35.40
  -2   7   3 1100.09   38.40
   1  -7  -3  515.05   35.60
   1  -7  -3  484.75   21.40
   1  -7  -3  511.05   21.50
  -1   7   3  493.15   18.90
  -1   7   3  526.55   34.70
  -1   7   3  528.45   22.30
  -1   7   3  508.65   20.70
   0  -7  -3  898.11   50.69
   0  -7  -3 1009.80   32.90
   0  -7  -3  875.41   33.40
   0   7   3  939.61   48.90
   0   7   3  903.21   33.40
   0   7   3  938.51   32.00
   0   7   3  952.80   35.40
   0   7   3  984.50   32.70
  -1  -7  -3  562.74   40.50
  -1  -7  -3  616.24   22.10
  -1  -7  -3  522.55   22.60
   1   7   3  526.25   20.60
   1   7   3  549.74   22.80
   1   7   3  584.14   21.90
   1   7   3  569.34   24.50
   1   7   3  579.24   38.60
  -2  -7  -3  632.84   23.50
  -2  -7  -3  549.15   40.80
  -2  -7  -3  549.15   23.80
   2   7   3  603.14   42.10
   2   7   3  580.24   22.70
   2   7   3  573.04   23.70
   2   7   3  599.14   25.90
   2   7   3  546.25   21.40
  -3  -7  -3  167.88   11.50
  -3  -7  -3  156.08   14.30
  -3  -7  -3    3.80   16.40
   3   7   3  137.29   11.70
   3   7   3  152.18   14.40
   3   7   3  147.59   10.00
   3   7   3  152.28   33.10
   3   7   3  133.89   10.10
  -6   8   3  166.28   14.10
   5  -8  -3  240.78   13.90
   5  -8  -3  223.68   15.00
   5  -8  -3  233.98   12.00
  -5   8   3  227.28   16.60
  -5   8   3  228.08   15.20
  -5   8   3  266.27   37.70
  -5   8   3  216.28   13.80
  -5   8   3  210.28   13.30
   4  -8  -3  308.17   17.10
   4  -8  -3  341.77   36.10
   4  -8  -3  345.27   15.50
  -4   8   3  357.66   37.30
  -4   8   3  325.77   17.60
  -4   8   3  319.17   18.60
  -4   8   3  327.17   15.20
  -4   8   3  313.47   15.50
   3  -8  -3   71.99   17.90
   3  -8  -3   64.79    9.40
  -3   8   3   94.19   21.40
  -3   8   3   57.79   10.50
  -3   8   3   60.49    7.50
  -3   8   3   83.19   11.40
   2  -8  -3   65.79   20.00
   2  -8  -3   89.59   10.90
   2  -8  -3   85.99    8.10
  -2   8   3   99.69   19.40
  -2   8   3   86.39    8.70
  -2   8   3   73.49   10.40
  -2   8   3   84.79   11.30
   1  -8  -3   29.40    5.30
   1  -8  -3   25.10    6.40
   1  -8  -3   12.40   18.10
  -1   8   3   22.70    6.60
  -1   8   3   13.60   16.20
  -1   8   3   18.40    4.30
  -1   8   3   17.20    7.10
   0  -8  -3   48.90    8.30
   0  -8  -3   61.89    7.80
   0  -8  -3   53.29   21.70
   0   8   3   71.19   20.20
   0   8   3   59.69    9.30
   0   8   3   50.99    6.80
   0   8   3   57.39    7.10
   0   8   3   50.79    8.60
  -1  -8  -3  335.87   15.90
  -1  -8  -3  301.77   17.20
   1   8   3  307.27   15.00
   1   8   3  327.87   19.40
   1   8   3  330.97   37.50
   1   8   3  281.87   13.90
   1   8   3  294.67   16.00
  -2  -8  -3   58.89    9.80
  -2  -8  -3   60.89   11.80
   2   8   3   57.99    7.10
   2   8   3   57.69   10.20
   2   8   3   68.99    8.50
   2   8   3   61.59   10.40
   2   8   3   38.40   24.20
   3  -9  -3  921.51   36.30
   3  -9  -3  986.20   34.70
  -3   9   3  913.81   40.20
  -3   9   3  882.71   33.80
  -3   9   3 1021.00   70.39
   2  -9  -3   59.09    8.10
   2  -9  -3   59.09   11.40
  -2   9   3   31.50    8.40
  -2   9   3   51.59    6.80
  -2   9   3   61.59   25.50
   1  -9  -3 1498.85   51.49
   1  -9  -3 1597.04   49.70
  -1   9   3 1088.09   87.39
  -1   9   3 1410.96   48.40
  -1   9   3 1512.75   55.59
   0   9  -4   29.80   26.10
   0   9  -4   14.80    3.90
   0   9  -4    6.40    5.10
   0   9  -4   19.60    8.30
   0   9  -4   14.50    7.60
   0  -9   4   17.30    8.00
   0  -9   4   38.20   21.70
  -1   9  -4  514.65   47.70
  -1   9  -4  469.25   20.10
  -1   9  -4  443.06   22.70
  -1   9  -4  488.65   23.90
  -1   9  -4  442.96   17.10
   1  -9   4  408.06   42.40
   1  -9   4  442.76   23.20
  -2   9  -4   -7.10    7.20
  -2   9  -4   -6.50   16.50
  -2   9  -4   -0.10    7.70
  -2   9  -4    4.90    3.60
  -2   9  -4   10.00    5.40
   2  -9   4   17.20   18.90
   2  -9   4   -3.60    5.70
   2  -9   4    1.70    6.00
  -3   9  -4  959.50   32.80
  -3   9  -4  946.01   38.10
  -3   9  -4 1000.00   38.00
  -3   9  -4 1020.40   58.89
  -3   9  -4  962.60   34.20
   3  -9   4  957.10   38.30
   3  -9   4  958.90   62.19
  -4   9  -4  136.39   26.90
  -4   9  -4  130.09   10.00
  -4   9  -4  112.59   14.20
  -4   9  -4  117.79   10.00
  -4   9  -4  106.69   14.10
   4  -9   4  107.09   16.20
   4  -9   4   97.79   28.60
   2   8  -4   16.10    7.80
   2   8  -4    5.90    3.20
   2   8  -4    9.70    5.00
   2   8  -4   13.80   18.80
   2   8  -4   12.40    6.60
  -2  -8   4    9.10    8.00
  -2  -8   4    5.90   22.40
  -2  -8   4   16.00    6.10
   1   8  -4 1477.65   71.19
   1   8  -4 1454.15   50.49
   1   8  -4 1362.56   44.50
   1   8  -4 1405.26   47.30
   1   8  -4 1387.86   48.90
  -1  -8   4 1315.77   49.90
  -1  -8   4 1394.96   72.19
   0   8  -4  137.49   11.90
   0   8  -4  132.09    7.30
   0   8  -4  128.19   12.80
   0   8  -4  134.09   25.20
   0   8  -4  140.39    9.30
   0  -8   4  136.89    9.70
   0  -8   4  137.69   13.00
  -1   8  -4  490.55   18.10
  -1   8  -4  500.85   22.00
  -1   8  -4  546.05   23.50
  -1   8  -4  527.15   20.40
  -1   8  -4  558.04   39.10
   1  -8   4  481.95   23.30
   1  -8   4  535.25   21.30
   1  -8   4  497.05   38.60
  -2   8  -4  100.99    7.30
  -2   8  -4   91.89   10.80
  -2   8  -4   87.39   20.60
  -2   8  -4   88.99    6.10
  -2   8  -4   97.19   11.20
   2  -8   4   99.39   11.60
   2  -8   4  105.09   22.20
   2  -8   4   92.59    9.30
  -3   8  -4  138.19   12.10
  -3   8  -4  130.29   12.20
  -3   8  -4  124.99    8.70
  -3   8  -4  154.08   29.40
  -3   8  -4  122.39    7.30
   3  -8   4  120.79   12.70
   3  -8   4  130.99    9.50
  -4   8  -4   56.39   20.50
  -4   8  -4   40.10    5.30
  -4   8  -4   40.00    8.00
  -4   8  -4   41.00    7.30
   4  -8   4   39.90    6.70
   4  -8   4   54.39   17.90
   4  -8   4   39.10    7.90
  -5   8  -4  321.07   39.10
  -5   8  -4  311.47   13.50
  -5   8  -4  284.17   18.00
  -5   8  -4  315.97   13.90
  -5   8  -4  292.47   18.10
   5  -8   4  293.97   17.30
   5  -8   4  339.47   39.00
   5  -8   4  331.67   13.50
   5  -8   4  318.47   16.20
  -6   8  -4  113.09   14.50
  -6   8  -4  141.39   14.60
  -6   8  -4  112.59    9.00
  -6   8  -4  126.39    9.40
  -6   8  -4  124.09   13.30
   6  -8   4  116.29   11.90
   6  -8   4   99.09   24.80
   6  -8   4  119.89    9.40
   4   7  -4  220.38   13.10
   4   7  -4  208.18   14.70
   4   7  -4  231.08   36.60
   4   7  -4  225.68   16.80
  -4  -7   4  228.18   41.20
  -4  -7   4  238.58   15.00
  -4  -7   4  231.48   18.00
   3   7  -4  163.48   13.50
   3   7  -4  147.89   11.80
   3   7  -4  142.49   11.20
   3   7  -4  159.18   28.50
   3   7  -4  156.98    7.70
  -3  -7   4  151.88   28.60
  -3  -7   4  137.99   14.40
  -3  -7   4  178.48   12.50
   2   7  -4    0.70    5.70
   2   7  -4   15.00    5.20
   2   7  -4    3.30    5.10
   2   7  -4    3.20   17.20
   2   7  -4    8.20    2.80
  -2  -7   4    4.70    3.90
  -2  -7   4   15.10   14.90
  -2  -7   4    1.30    6.20
   1   7  -4  437.36   20.00
   1   7  -4  431.16   18.70
   1   7  -4  416.96   14.90
   1   7  -4  438.66   34.80
   1   7  -4  417.46   17.00
  -1  -7   4  379.66   32.60
  -1  -7   4  433.96   17.90
  -1  -7   4  397.96   19.40
   0   7  -4  363.16   31.30
   0   7  -4  321.57   12.00
   0   7  -4  329.37   15.70
   0   7  -4  329.97   16.20
   0   7  -4  319.47   13.80
   0  -7   4  316.07   16.60
   0  -7   4  325.27   28.90
  -1   7  -4 1195.88   42.80
  -1   7  -4 1318.57   58.89
  -1   7  -4 1276.77   44.30
  -1   7  -4 1310.17   41.90
  -1   7  -4 1204.38   39.70
   1  -7   4 1192.28   58.39
   1  -7   4 1319.47   42.80
   1  -7   4 1226.88   44.10
  -2   7  -4  540.85   22.50
  -2   7  -4  564.84   34.20
  -2   7  -4  505.65   18.10
  -2   7  -4  501.55   21.10
   2  -7   4  510.15   22.30
   2  -7   4  552.94   20.90
   2  -7   4  544.15   36.70
  -3   7  -4 1032.80   34.30
  -3   7  -4 1020.50   33.60
  -3   7  -4  995.60   36.70
  -3   7  -4 1036.80   50.99
  -3   7  -4 1070.89   37.60
   3  -7   4  988.80   52.09
   3  -7   4 1079.59   36.30
   3  -7   4 1001.80   37.40
   3  -7   4 1082.19   33.40
  -4   7  -4  341.17   13.70
  -4   7  -4  332.97   16.40
  -4   7  -4  331.97   15.00
  -4   7  -4  332.77   13.50
  -4   7  -4  382.76   17.70
   4  -7   4  353.96   17.50
   4  -7   4  354.76   13.30
   4  -7   4  350.26   15.80
  -5   7  -4  295.77   14.60
  -5   7  -4  290.37   16.20
  -5   7  -4  292.77   16.20
  -5   7  -4  259.97   31.60
  -5   7  -4  279.07   12.20
   5  -7   4  297.97   12.20
   5  -7   4  290.17   16.30
   5  -7   4  288.57   15.30
  -6   7  -4  296.07   17.00
  -6   7  -4  273.67   12.70
  -6   7  -4  286.27   17.20
   6  -7   4  266.07   14.80
   6  -7   4  265.37   16.90
   6  -7   4  283.27   12.80
   6  -7   4  275.27   31.00
  -7   7  -4  112.19    8.10
  -7   7  -4  101.69   13.90
  -7   7  -4  103.19   13.90
   7  -7   4  106.29   13.00
   7  -7   4  163.48   29.70
   7  -7   4  112.29    8.90
   7  -7   4  112.99   14.40
   7  -7   4  100.39   26.50
   5   6  -4  427.76   21.60
   5   6  -4  389.66   19.50
   5   6  -4  415.66   16.90
   5   6  -4  440.46   47.10
   5   6  -4  420.06   18.80
  -5  -6   4  406.26   39.80
  -5  -6   4  401.86   22.80
  -5  -6   4  434.76   20.90
   4   6  -4  239.08   33.70
   4   6  -4  248.18   14.00
   4   6  -4  258.67   13.80
   4   6  -4  245.08   15.40
  -4  -6   4  260.87   13.90
  -4  -6   4  245.48   16.60
   3   6  -4  680.83   27.00
   3   6  -4  703.03   26.30
   3   6  -4  710.03   51.19
   3   6  -4  693.73   25.40
  -3  -6   4  649.93   28.20
  -3  -6   4  677.13   42.40
  -3  -6   4  738.43   26.70
   2   6  -4  752.02   31.40
   2   6  -4  750.22   27.60
   2   6  -4  772.92   26.90
   2   6  -4  745.63   24.70
   2   6  -4  782.62   43.60
  -2  -6   4  799.52   27.70
  -2  -6   4  723.23   43.60
  -2  -6   4  726.53   29.40
   1   6  -4  349.96   27.90
   1   6  -4  341.27   12.10
   1   6  -4  352.76   13.90
  -1  -6   4  342.07   16.40
  -1  -6   4  318.17   26.40
   0   6  -4 1836.92   59.19
   0   6  -4 1730.03   55.19
   0   6  -4 1767.72   57.99
   0   6  -4 1851.11   71.99
   0   6  -4 1846.62   56.99
   0  -6   4 1689.13   72.09
  -1   6  -4  245.28   12.70
  -1   6  -4  230.58   20.60
  -1   6  -4  250.47   12.00
  -1   6  -4  255.47   10.60
  -1   6  -4  247.58    9.20
   1  -6   4  237.38   12.50
   1  -6   4  245.68   21.70
   1  -6   4  259.47   12.90
  -2   6  -4 2013.20   62.49
  -2   6  -4 1973.40   64.29
  -2   6  -4 2092.49   77.79
  -2   6  -4 1933.91   61.49
  -2   6  -4 2063.39   64.89
   2  -6   4 1966.20   65.49
   2  -6   4 1890.41   76.99
  -3   6  -4  651.03   21.70
  -3   6  -4  639.44   24.40
  -3   6  -4  628.54   21.30
  -3   6  -4  647.24   24.10
  -3   6  -4  643.04   36.00
   3  -6   4  646.44   23.70
   3  -6   4  592.94   35.60
   3  -6   4  661.33   21.20
   3  -6   4  614.34   24.90
  -4   6  -4  695.33   25.20
  -4   6  -4  684.73   23.70
  -4   6  -4  706.03   39.00
  -4   6  -4  735.93   27.50
  -4   6  -4  689.53   26.40
   4  -6   4  709.73   39.50
   4  -6   4  719.13   23.60
   4  -6   4  706.53   26.00
   4  -6   4  689.73   26.70
  -5   6  -4  481.25   18.70
  -5   6  -4  470.85   20.20
  -5   6  -4  477.05   20.40
  -5   6  -4  462.75   17.40
   5  -6   4  486.35   19.70
   5  -6   4  444.06   20.10
   5  -6   4  435.86   34.00
   5  -6   4  498.65   17.40
  -6   6  -4  123.39   11.10
  -6   6  -4  131.79   11.00
  -6   6  -4  106.39    6.30
   6  -6   4  118.19   10.30
   6  -6   4  112.19   24.70
   6  -6   4  110.69   10.80
   6  -6   4  114.79    7.20
   6  -6   4  105.99   19.00
  -7   6  -4   32.40    7.60
  -7   6  -4   32.50    8.00
  -7   6  -4   38.50    5.10
   7  -6   4   43.20   21.50
   7  -6   4   37.90   18.70
   7  -6   4   29.80    7.70
   7  -6   4   35.10    5.60
   7  -6   4   32.70    6.60
   6   5  -4   27.40    6.00
   6   5  -4   25.30    8.30
   6   5  -4   48.80   26.60
   6   5  -4   32.40    7.10
   6   5  -4   36.20    5.70
  -6  -5   4   23.50    9.20
  -6  -5   4   35.00    5.90
  -6  -5   4   16.10   21.50
  -6  -5   4   25.80    6.60
   5   5  -4  850.21   27.60
   5   5  -4  788.62   28.60
   5   5  -4  797.22   50.59
   5   5  -4  782.62   29.10
   5   5  -4  785.82   30.20
  -5  -5   4  760.82   28.00
  -5  -5   4  755.22   31.50
  -5  -5   4  791.52   30.00
  -5  -5   4  606.34   50.69
   4   5  -4  222.28   12.00
   4   5  -4  228.68   12.90
   4   5  -4  235.78   12.00
   4   5  -4  247.48   25.70
  -4  -5   4  206.78   13.60
  -4  -5   4  214.78   27.40
  -4  -5   4  230.58   11.70
  -4  -5   4  249.08   12.80
   3   5  -4 3475.45  105.59
   3   5  -4 3500.85  122.39
   3   5  -4 3398.06  106.99
   3   5  -4 3282.07  105.79
  -3  -5   4 3348.57  122.79
  -3  -5   4 3364.56  105.09
  -3  -5   4 3311.37  107.69
   2   5  -4  215.38   11.30
   2   5  -4  199.28   10.00
   2   5  -4  203.68    9.70
   2   5  -4  228.28   20.80
  -2  -5   4  192.48   19.90
  -2  -5   4  222.58   10.30
  -2  -5   4  215.48   11.90
  -2  -5   4  207.48    9.80
   1   5  -4 6098.19  193.08
   1   5  -4 6426.66  192.48
   1   5  -4 5985.90  190.78
   1   5  -4 6629.04  206.78
   1   5  -4 6498.45  194.18
  -1  -5   4 6386.66  207.98
  -1  -5   4 6207.68  194.48
   0   5  -4   24.50    7.70
   0   5  -4   16.90    3.40
   0   5  -4   21.60    3.20
   0   5  -4   15.80    2.00
   0   5  -4   27.70    4.50
   0  -5   4   25.10    9.30
   0  -5   4   35.20    5.60
   0  -5   4   19.30    3.60
  -1   5  -4 3347.77  106.79
  -1   5  -4 3561.34  107.69
  -1   5  -4 3201.98  104.49
  -1   5  -4 3498.85  105.69
  -1   5  -4 3598.84  118.29
   1  -5   4 3492.25  106.79
   1  -5   4 3403.46  107.69
   1  -5   4 3455.75  118.89
  -2   5  -4  262.07   11.80
  -2   5  -4  250.07    9.10
  -2   5  -4  253.67   18.70
  -2   5  -4  252.47    9.70
  -2   5  -4  256.17   11.30
   2  -5   4  258.37    9.00
   2  -5   4  261.17   11.00
   2  -5   4  238.28   11.40
   2  -5   4  234.18   18.40
  -3   5  -4  259.27    9.70
  -3   5  -4  253.07   19.40
  -3   5  -4  265.87   11.70
  -3   5  -4  263.77   12.10
  -3   5  -4  253.37    9.60
   3  -5   4  259.27    9.50
   3  -5   4  257.87   19.40
   3  -5   4  255.17   11.30
   3  -5   4  241.08   11.70
  -4   5  -4 1842.32   57.69
  -4   5  -4 1770.72   56.29
  -4   5  -4 1791.12   68.89
  -4   5  -4 1748.93   57.29
  -4   5  -4 1728.63   55.19
   4  -5   4 1805.92   57.49
   4  -5   4 1723.53   57.69
   4  -5   4 1702.53   69.09
   4  -5   4 1756.52   55.09
  -5   5  -4    7.40    4.20
  -5   5  -4    2.90    4.20
   5  -5   4    8.00    2.70
   5  -5   4   11.10    9.50
   5  -5   4   10.10    3.60
  -6   5  -4 1872.71   59.19
  -6   5  -4 1696.83   54.89
  -6   5  -4 1691.43   58.49
   6  -5   4 2042.20   58.69
   6  -5   4 1810.72   58.89
   6  -5   4 1753.12   58.89
   6  -5   4 1854.61   73.39
   6  -5   4 1373.56   77.29
  -7   5  -4   60.09    9.90
  -7   5  -4   55.69    4.50
  -7   5  -4   45.10    7.50
   7  -5   4   49.40    9.50
   7  -5   4   55.69    9.50
   7  -5   4   41.70   18.80
   7  -5   4   69.39   18.70
   7  -5   4   51.39    7.10
  -8   5  -4  393.16   20.90
  -8   5  -4  409.16   20.70
  -8   5  -4  379.96   14.20
   8  -5   4  381.46   20.10
   8  -5   4  397.96   17.20
   8  -5   4  411.26   43.90
   8  -5   4  392.56   40.10
   8  -5   4  375.56   20.40
   7   4  -4  557.74   22.30
   7   4  -4  543.75   23.20
   7   4  -4  565.64   26.30
   7   4  -4  578.44   55.49
  -7  -4   4  595.64   50.89
  -7  -4   4  563.14   23.50
   6   4  -4   15.50    3.90
   6   4  -4    7.20    4.60
   6   4  -4    7.40    6.20
   6   4  -4   12.30   16.80
  -6  -4   4    6.10    7.40
  -6  -4   4   25.10   19.00
  -6  -4   4   15.50    6.20
  -6  -4   4    9.90    4.50
   5   4  -4  963.40   57.79
   5   4  -4  960.90   31.70
   5   4  -4  929.21   33.30
   5   4  -4  969.70   34.80
   5   4  -4  907.61   32.80
  -5  -4   4  896.71   49.99
  -5  -4   4  933.71   32.60
  -5  -4   4  922.91   35.50
  -5  -4   4 1012.90   34.50
   4   4  -4   30.30   10.90
   4   4  -4   41.20    4.10
  -4  -4   4   31.30   12.50
  -4  -4   4   31.00    4.80
  -4  -4   4   36.30    6.40
   3   4  -4  202.18   20.10
   3   4  -4  188.88    9.10
   3   4  -4  194.98    9.60
   3   4  -4  194.98   10.50
  -3  -4   4  192.88   20.10
  -3  -4   4  194.28   11.30
  -3  -4   4  198.78    9.10
  -3  -4   4  200.28    9.70
   2   4  -4 1298.47   42.20
   2   4  -4 1299.67   41.80
   2   4  -4 1342.27   43.00
   2   4  -4 1333.77   53.39
  -2  -4   4 1299.77   41.70
  -2  -4   4 1300.47   54.39
  -2  -4   4 1232.68   43.30
  -2  -4   4 1295.37   42.30
   1   4  -4    7.50    2.60
   1   4  -4   18.80    2.90
   1   4  -4    8.40    2.00
   1   4  -4    8.90    6.60
  -1  -4   4   10.30    6.50
  -1  -4   4   10.80    2.20
  -1  -4   4   11.20    3.10
  -1  -4   4   15.50    2.80
   0   4  -4 5399.56  163.48
   0   4  -4 5439.26  164.78
   0   4  -4 5660.23  174.08
   0  -4   4 5091.39  173.68
   0  -4   4 5321.87  165.18
  -1   4  -4   74.59    3.20
  -1   4  -4   75.69    5.00
  -1   4  -4   61.89    5.20
  -1   4  -4   84.19   10.90
  -1   4  -4   73.99    4.00
   1  -4   4   62.49    5.30
   1  -4   4   71.29    4.90
   1  -4   4   63.09   10.30
   1  -4   4   83.99    3.20
  -2   4  -4 4587.94  141.89
  -2   4  -4 4697.23  142.39
  -2   4  -4 4811.02  151.28
   2  -4   4 4515.35  142.39
   2  -4   4 4562.94  151.08
  -3   4  -4  325.37   13.00
  -3   4  -4  346.57   12.50
  -3   4  -4  333.37   20.70
  -3   4  -4  339.87   13.60
  -3   4  -4  341.27   11.70
   3  -4   4  316.97   13.50
   3  -4   4  344.87   13.30
   3  -4   4  305.67   19.60
   3  -4   4  340.27   11.60
  -4   4  -4 1510.55   48.50
  -4   4  -4 1552.84   49.50
  -4   4  -4 1507.85   58.79
  -4   4  -4 1518.35   49.30
   4  -4   4 1489.05   49.50
   4  -4   4 1523.75   47.60
   4  -4   4 1535.85   49.50
   4  -4   4 1494.75   59.69
  -5   4  -4   42.80    5.90
  -5   4  -4   41.60    5.80
  -5   4  -4   36.20    2.80
   5  -4   4   37.90    9.40
   5  -4   4   42.30    3.90
   5  -4   4   35.80   10.40
   5  -4   4   37.50    5.10
   5  -4   4   38.90    5.90
  -6   4  -4  636.94   23.80
  -6   4  -4  608.94   23.70
  -6   4  -4  585.54   19.80
   6  -4   4  619.04   21.90
   6  -4   4  597.54   23.70
   6  -4   4  617.24   24.10
   6  -4   4  585.64   35.40
   6  -4   4  618.64   36.30
  -7   4  -4   33.70    3.60
  -7   4  -4   39.30    6.50
  -7   4  -4   31.60    6.40
   7  -4   4   29.80   15.20
   7  -4   4   33.30   15.70
   7  -4   4   32.50    6.50
   7  -4   4   35.80    4.70
   7  -4   4   27.60    5.80
  -8   4  -4  386.96   14.60
  -8   4  -4  437.46   20.60
  -8   4  -4  429.56   20.90
   8  -4   4  426.36   36.80
   8  -4   4  408.96   20.50
   8  -4   4  425.36   18.40
   8  -4   4  387.56   38.90
   8  -4   4  429.76   21.50
   7   3  -4    1.60    3.70
   7   3  -4   -3.60   21.80
   7   3  -4    1.80    6.40
   7   3  -4    4.40    5.90
   7   3  -4    5.10    5.30
  -7  -3   4    6.70    8.00
  -7  -3   4    5.50    4.80
  -7  -3   4    5.10    6.30
  -7  -3   4    0.80   15.20
   6   3  -4  819.82   30.30
   6   3  -4  878.91   32.20
   6   3  -4  842.92   29.40
   6   3  -4  841.62   50.59
   6   3  -4  862.01   30.20
  -6  -3   4  789.62   32.60
  -6  -3   4  853.81   30.10
  -6  -3   4  840.22   48.10
  -6  -3   4  871.11   31.90
   5   3  -4   61.39    7.50
   5   3  -4   67.29    6.00
   5   3  -4   65.59   15.60
   5   3  -4   61.69    5.30
   5   3  -4   68.79    6.60
  -5  -3   4   64.99    5.70
  -5  -3   4   58.39   13.10
  -5  -3   4   68.59    7.40
  -5  -3   4   62.89    7.50
   4   3  -4 2642.74   83.79
   4   3  -4 2677.93   82.69
   4   3  -4 2653.43   81.59
   4   3  -4 2777.42   97.79
  -4  -3   4 2659.33   96.39
  -4  -3   4 2679.13   83.49
  -4  -3   4 2494.15   82.39
  -4  -3   4 2579.94   84.49
   3   3  -4  755.52   35.80
   3   3  -4  757.32   26.20
   3   3  -4  754.72   24.30
   3   3  -4  744.83   25.50
   3   3  -4  761.82   25.40
  -3  -3   4  772.12   25.40
  -3  -3   4  723.33   35.10
  -3  -3   4  760.32   25.90
  -3  -3   4  742.83   26.90
   2   3  -4 4110.39  123.09
   2   3  -4 4306.77  133.19
   2   3  -4 3877.81  122.39
   2   3  -4 4048.50  122.39
  -2  -3   4 3898.81  123.49
  -2  -3   4 3890.11  132.09
  -2  -3   4 3859.81  122.09
   1   3  -4 1409.56   44.80
   1   3  -4 1438.76   45.50
   1   3  -4 1401.26   45.00
   1   3  -4 1497.25   53.29
  -1  -3   4 1408.56   53.29
  -1  -3   4 1431.76   44.80
  -1  -3   4 1432.56   46.00
   0   3  -4 6376.16  195.78
   0  -3   4 6051.99  195.88
  -1   3  -4 1006.10   31.30
  -1   3  -4  976.50   37.30
  -1   3  -4  995.80   30.50
  -1   3  -4  980.80   31.60
  -1   3  -4  978.90   29.80
   1  -3   4  952.50   31.80
   1  -3   4  921.31   37.20
   1  -3   4  984.70   29.80
   1  -3   4  982.10   31.30
  -2   3  -4 8202.68  251.97
   2  -3   4 7983.40  252.27
  -3   3  -4  291.37   10.50
  -3   3  -4  288.77   11.10
  -3   3  -4  280.17   17.20
  -3   3  -4  265.37   11.00
   3  -3   4  259.47   11.10
   3  -3   4  296.67   11.20
   3  -3   4  255.57   16.10
   3  -3   4  282.27    9.80
  -4   3  -4 4496.75  135.89
  -4   3  -4 4381.46  135.79
   4  -3   4 4520.45  144.79
   4  -3   4 4435.76  134.59
   4  -3   4 4258.87  135.89
   4  -3   4 4461.55  145.69
   4  -3   4 4375.66  136.09
  -5   3  -4    8.00    1.30
  -5   3  -4   10.50    3.30
  -5   3  -4    7.90    3.30
   5  -3   4   12.70    8.00
   5  -3   4    5.10    2.70
   5  -3   4    6.30    7.20
   5  -3   4    7.20    2.80
   5  -3   4    8.40    2.60
  -6   3  -4 1104.19   36.50
  -6   3  -4 1042.20   36.10
  -6   3  -4 1031.50   32.70
   6  -3   4  997.70   36.20
   6  -3   4 1036.70   36.20
   6  -3   4 1083.59   48.10
   6  -3   4 1031.10   48.40
  -7   3  -4  160.18   11.20
  -7   3  -4  135.99    6.20
  -7   3  -4  149.39   11.00
   7  -3   4  137.59    8.60
   7  -3   4  130.39   27.00
   7  -3   4  138.89   23.90
   7  -3   4  145.09   10.90
   7  -3   4  136.29   10.00
   7  -3   4  137.69   11.40
  -8   3  -4  226.18    9.40
  -8   3  -4  260.87   15.40
  -8   3  -4  224.78   15.50
   8  -3   4  241.98   34.40
   8  -3   4  247.78   14.70
   8  -3   4  241.48   14.90
   8  -3   4  238.48   32.50
   8  -3   4  243.68   12.70
   8  -3   4  243.48   15.10
   8   2  -4  303.07   16.50
   8   2  -4  279.47   15.20
   8   2  -4  310.07   14.70
   8   2  -4  301.47   45.50
   8   2  -4  290.57   18.30
  -8  -2   4  295.17   16.00
  -8  -2   4  345.47   23.40
  -8  -2   4  290.07   40.20
   7   2  -4   14.70    4.00
   7   2  -4   20.90   19.00
   7   2  -4    8.40    4.90
   7   2  -4    3.70    4.70
   7   2  -4    4.10    5.40
  -7  -2   4    5.40   16.00
  -7  -2   4    9.70    6.10
  -7  -2   4    9.80    5.10
  -7  -2   4    5.50    4.60
   6   2  -4  826.62   27.90
   6   2  -4  850.51   30.40
   6   2  -4  731.33   52.09
   6   2  -4  786.52   28.80
   6   2  -4  832.92   28.70
  -6  -2   4  846.32   30.40
  -6  -2   4  783.82   30.80
  -6  -2   4  826.62   28.70
  -6  -2   4  782.42   43.80
   5   2  -4    9.80    2.80
   5   2  -4   10.20    3.10
   5   2  -4   11.80    3.90
   5   2  -4   10.90    3.60
   5   2  -4   13.20    8.90
  -5  -2   4   10.80    7.70
  -5  -2   4    9.00    2.80
   4   2  -4 2422.76   74.69
   4   2  -4 2386.86   75.49
   4   2  -4 2562.64   88.39
   4   2  -4 2345.87   75.49
   4   2  -4 2436.16   76.39
  -4  -2   4 2412.96   76.19
  -4  -2   4 2319.17   75.39
  -4  -2   4 2462.85   87.09
  -4  -2   4 2444.66   77.19
   3   2  -4    1.50    1.30
   3   2  -4   10.30    2.10
   3   2  -4   13.90    5.90
   3   2  -4   14.40    2.40
   3   2  -4    5.70    2.20
  -3  -2   4    1.70    1.50
  -3  -2   4    3.20    2.00
  -3  -2   4   11.90    5.50
  -3  -2   4    3.00    1.60
   2   2  -4 3791.22  119.49
   2   2  -4 3587.34  111.29
   2   2  -4 3488.55  110.89
   2   2  -4 3623.04  111.09
  -2  -2   4 3705.13  111.09
  -2  -2   4 3682.33  118.79
  -2  -2   4 3586.64  111.79
   1   2  -4    6.50    1.40
   1   2  -4   27.50    2.10
   1   2  -4    0.00    3.10
   1   2  -4    2.90    0.60
   1   2  -4    7.20    1.40
  -1  -2   4    2.60    1.40
  -1  -2   4   14.80    4.30
  -1  -2   4   11.60    1.60
   0   2  -4 1693.83   52.69
   0   2  -4 1675.33   52.59
   0   2  -4 1717.03   57.39
   0   2  -4 1715.33   52.49
   0  -2   4 1729.03   57.69
   0  -2   4 1709.83   52.79
   0  -2   4 1737.93   52.49
   0  -2   4 1732.73   53.19
  -1   2  -4  776.62   24.80
  -1   2  -4  763.22   25.00
  -1   2  -4  829.42   29.30
  -1   2  -4  770.22   24.30
   1  -2   4  786.22   24.30
   1  -2   4  807.02   29.40
   1  -2   4  790.82   25.10
   1  -2   4  783.82   25.30
   1  -2   4  788.92   24.10
  -2   2  -4  636.94   20.80
  -2   2  -4  611.44   19.40
  -2   2  -4  642.24   20.40
  -2   2  -4  640.04   25.30
  -2   2  -4  644.54   20.60
   2  -2   4  640.54   20.90
   2  -2   4  621.44   25.30
   2  -2   4  631.04   21.00
   2  -2   4  630.64   20.00
  -3   2  -4 2899.31   87.69
  -3   2  -4 2863.61   87.59
   3  -2   4 2874.61   94.39
   3  -2   4 2854.11   93.69
   3  -2   4 2862.11   86.89
   3  -2   4 2784.72   87.89
   3  -2   4 2777.42   87.69
  -4   2  -4 1543.65   48.20
  -4   2  -4 1496.15   48.20
  -4   2  -4 1394.96   45.70
   4  -2   4 1575.64   56.29
   4  -2   4 1562.44   47.70
   4  -2   4 1464.85   48.30
   4  -2   4 1510.45   56.29
   4  -2   4 1519.35   47.30
   4  -2   4 1508.45   48.50
  -5   2  -4 1615.94   52.29
  -5   2  -4 1782.92   55.29
  -5   2  -4 1688.53   55.09
   5  -2   4 1720.83   64.99
   5  -2   4 1712.93   55.69
   5  -2   4 1733.33   54.49
   5  -2   4 1709.43   55.19
   5  -2   4 1724.33   54.09
   5  -2   4 1749.72   65.69
  -6   2  -4 1562.44   49.90
  -6   2  -4 1611.64   53.29
  -6   2  -4 1705.93   53.49
   6  -2   4 1679.23   65.69
   6  -2   4 1539.75   52.19
   6  -2   4 1645.54   53.99
   6  -2   4 1541.75   52.99
   6  -2   4 1720.63   52.69
   6  -2   4 1582.74   65.59
  -7   2  -4  170.58    7.30
  -7   2  -4  202.98   11.80
  -7   2  -4  174.78   11.70
   7  -2   4  182.08   11.10
   7  -2   4  174.58   24.20
   7  -2   4  179.98   28.30
   7  -2   4  173.78    9.60
   7  -2   4  164.68   11.30
   7  -2   4  179.88   12.10
  -8   2  -4  358.46   14.00
  -8   2  -4  399.26   19.80
  -8   2  -4  417.46   19.50
   8  -2   4  378.66   18.90
   8  -2   4  401.86   20.50
   8  -2   4  417.06   18.90
   8  -2   4  407.46   38.30
   8  -2   4  345.67   35.80
   8  -2   4  405.46   17.80
   8   1  -4  566.64   25.20
   8   1  -4  558.74   23.40
   8   1  -4  560.94   23.20
   8   1  -4  580.64   48.40
   8   1  -4  558.74   22.70
  -8  -1   4  606.94   26.10
  -8  -1   4  550.54   27.00
  -8  -1   4  570.24   23.00
  -8  -1   4  598.24   45.00
   7   1  -4    8.70    3.60
   7   1  -4    6.30    4.40
   7   1  -4    9.70    4.50
   7   1  -4   -1.70   14.80
   7   1  -4   10.40    5.30
  -7  -1   4   10.10    5.30
  -7  -1   4   13.40    6.10
  -7  -1   4    8.10    4.90
   6   1  -4  643.54   24.10
   6   1  -4  677.33   37.90
   6   1  -4  646.84   27.10
  -6  -1   4  711.43   25.40
  -6  -1   4  649.54   25.90
  -6  -1   4  654.13   23.60
  -6  -1   4  651.63   35.90
   5   1  -4   22.90    4.10
   5   1  -4   16.90    3.40
   5   1  -4   23.80    9.10
   5   1  -4   28.10    4.30
   5   1  -4   19.70    3.00
  -5  -1   4   16.50    2.90
  -5  -1   4   27.50    4.80
  -5  -1   4   17.90    3.40
  -5  -1   4   19.50    8.70
   4   1  -4  402.46   23.30
   4   1  -4  426.96   14.70
   4   1  -4  425.96   15.90
   4   1  -4  409.96   15.20
   4   1  -4  414.46   15.10
  -4  -1   4  418.86   16.40
  -4  -1   4  418.16   23.20
  -4  -1   4  421.66   15.20
  -4  -1   4  432.66   15.80
   3   1  -4 1865.21   56.99
   3   1  -4 1805.92   55.99
   3   1  -4 1720.53   56.39
   3   1  -4 1839.92   64.39
   3   1  -4 1863.01   56.79
  -3  -1   4 1872.01   56.79
  -3  -1   4 1843.42   64.09
  -3  -1   4 1809.62   57.39
  -3  -1   4 1749.62   56.79
   2   1  -4 1402.26   44.00
   2   1  -4 1449.85   44.80
   2   1  -4 1425.46   44.70
   2   1  -4 1500.65   50.69
  -2  -1   4 1368.26   44.60
  -2  -1   4 1549.54   44.90
  -2  -1   4 1400.96   44.00
  -2  -1   4 1423.36   45.10
  -2  -1   4 1417.46   49.70
   1  -1   4 3233.28  100.59
   2  -1   4 4608.44  142.19
   2  -1   4 4509.65  142.29
  -3   1  -4  269.07   10.20
  -3   1  -4  295.07   10.30
   3  -1   4  275.37   10.00
   3  -1   4  273.07   15.00
   3  -1   4  278.47   10.40
   3  -1   4  266.67   10.60
  -4   1  -4  254.57    8.60
  -4   1  -4  269.77   10.80
  -4   1  -4  264.97   10.80
   4  -1   4  254.07   10.70
   4  -1   4  280.77   11.40
   4  -1   4  269.27   10.20
   4  -1   4  259.37   16.80
  -5   1  -4  150.38    8.10
  -5   1  -4  137.49   13.60
  -5   1  -4  149.59    5.50
  -5   1  -4  137.09    8.10
   5  -1   4  142.99    7.10
   5  -1   4  143.39    8.00
   5  -1   4  147.19   14.20
   5  -1   4  145.69    8.30
  -6   1  -4   71.49    7.10
  -6   1  -4   82.99    7.20
  -6   1  -4   69.59    4.00
   6  -1   4   91.39   16.30
   6  -1   4   67.99    6.20
   6  -1   4   68.59    6.10
   6  -1   4   84.69    8.00
  -7   1  -4  281.47   10.80
  -7   1  -4  289.77   15.00
  -7   1  -4  323.77   15.50
   7  -1   4  287.67   14.60
   7  -1   4  286.67   26.30
   7  -1   4  292.97   13.10
   7  -1   4  285.57   15.80
  -8   1  -4   29.70    6.90
  -8   1  -4   17.90    7.10
  -8   1  -4   21.60    3.60
   8  -1   4   26.70    7.60
   8  -1   4   18.70   15.60
   8  -1   4   11.00    6.20
   8  -1   4   24.10    6.30
   8  -1   4   19.10    5.10
   8   0  -4   45.00    7.50
   8   0  -4   62.69   10.00
   8   0  -4   46.80    6.70
   8   0  -4   73.69   23.00
   8   0  -4   53.69    7.10
  -8   0   4   49.20    6.40
  -8   0   4   51.49    9.50
  -8   0   4   55.19    8.20
  -8   0   4   34.80   16.30
   7   0  -4  715.33   43.90
   7   0  -4  721.23   25.60
   7   0  -4  763.62   26.30
   7   0  -4  743.43   27.70
   7   0  -4  689.03   26.10
  -7   0   4  708.53   26.00
  -7   0   4  716.03   28.80
  -7   0   4  701.33   40.70
  -7   0   4  708.83   27.90
   6   0  -4  778.72   28.70
   6   0  -4  794.42   41.10
   6   0  -4  845.52   30.10
  -6   0   4  837.42   31.00
  -6   0   4  810.52   40.50
  -6   0   4  983.40   33.10
   5   0  -4 1610.64   51.69
   5   0  -4 1663.33   51.69
   5   0  -4 1617.74   51.19
   5   0  -4 1631.74   52.39
   5   0  -4 1636.44   63.29
  -5   0   4 1640.14   51.69
  -5   0   4 1551.94   61.79
  -5   0   4 1602.44   52.99
  -5   0   4 1622.84   52.49
   4   0  -4 2687.23   83.29
   4   0  -4 2654.23   83.79
   4   0  -4 2593.74   83.59
   4   0  -4 2692.83   84.19
   4   0  -4 2865.01   93.39
  -4   0   4 2727.23   83.79
  -4   0   4 2807.92   92.79
  -4   0   4 2698.13   84.19
  -4   0   4 2701.43   84.69
  -4   0   4 2691.33   83.29
   3   0  -4 1203.78   43.70
   3   0  -4 1178.18   36.70
   3   0  -4 1125.29   36.80
   3   0  -4 1155.08   37.20
   3   0  -4 1182.38   37.20
  -3   0   4 1148.49   37.20
  -3   0   4 1179.18   37.70
  -3   0   4 1192.68   37.30
  -3   0   4 1190.68   43.20
  -3   0   4 1191.38   36.80
   2   0  -4 2372.56   75.09
   2   0  -4 2241.18   70.79
  -2   0   4 2306.67   74.69
  -2   0   4 2325.47   70.89
  -2   0   4 2271.37   70.79
  -2   0   4 2343.87   70.39
   1   0  -4 1255.07   39.20
   1   0  -4 1210.58   37.40
   1   0  -4 1195.98   37.00
  -1   0   4 1161.68   38.70
  -1   0   4 1212.48   37.40
  -1   0   4 1207.28   37.00
   0   0   4  593.34   18.60
   0   0   4  603.74   18.80
   1   0   4 3765.22  115.59
  -2   0  -4  531.65   17.10
  -2   0  -4  536.45   20.90
  -2   0  -4  518.45   17.00
   2   0   4  518.55   17.30
   2   0   4  526.15   16.40
   2   0   4  549.54   21.20
   2   0   4  540.95   17.50
   3   0   4 4403.96  140.49
  -4   0  -4  501.75   25.10
  -4   0  -4  504.55   18.20
  -4   0  -4  509.15   17.90
   4   0   4  489.75   17.90
   4   0   4  519.95   18.70
   4   0   4  511.65   25.40
   4   0   4  515.55   16.40
  -5   0  -4 2330.47   83.99
  -5   0  -4 2278.77   71.29
  -5   0  -4 2302.67   73.79
  -5   0  -4 2409.16   73.59
   5   0   4 2308.37   71.39
   5   0   4 2268.47   73.29
   5   0   4 2357.86   74.39
   5   0   4 2377.76   84.49
  -6   0  -4   69.39   15.30
  -6   0  -4   75.29    7.00
  -6   0  -4   78.79    8.30
  -6   0  -4   70.69    4.30
   6   0   4   77.79    4.80
   6   0   4   78.79   16.80
   6   0   4   72.09    7.10
   6   0   4   74.89    6.00
  -7   0  -4  964.00   35.60
  -7   0  -4  974.80   31.70
  -7   0  -4  937.21   48.10
  -7   0  -4 1059.79   35.60
   7   0   4 1005.60   32.00
   7   0   4  941.11   33.80
   7   0   4  930.31   34.40
   7   0   4  984.40   36.50
   7   0   4 1011.60   51.59
  -8   0  -4   -7.00   17.10
  -8   0  -4    0.10    5.80
  -8   0  -4    5.60    7.00
   8   0   4    4.70    4.50
   8   0   4    2.10    4.60
   8   0   4    4.30    5.70
   8   0   4    0.90    3.60
   8   0   4    1.60   19.30
   8  -1  -4  181.08   11.30
   8  -1  -4  215.68   32.80
   8  -1  -4  188.18   11.80
   8  -1  -4  177.38   11.80
   8  -1  -4  171.48   12.90
  -8   1   4  178.68   14.80
  -8   1   4  212.98   13.90
  -8   1   4  173.48   11.90
   7  -1  -4  255.27   11.80
   7  -1  -4  267.17   28.50
   7  -1  -4  266.27   12.70
   7  -1  -4  258.87   13.50
  -7   1   4  260.77   14.20
  -7   1   4  260.27   25.60
  -7   1   4  242.78   11.90
  -7   1   4  252.17   15.00
   6  -1  -4  144.49    9.10
   6  -1  -4  169.78   19.50
   6  -1  -4  154.78    8.30
  -6   1   4  135.89   10.20
  -6   1   4  129.99    7.70
  -6   1   4  162.48    9.80
  -6   1   4  147.59   16.20
   5  -1  -4 1020.30   33.30
   5  -1  -4  974.60   33.50
   5  -1  -4 1044.10   44.10
   5  -1  -4 1037.90   34.20
  -5   1   4 1011.40   43.30
  -5   1   4 1015.90   33.60
  -5   1   4 1055.99   33.40
  -5   1   4 1011.00   34.40
  -5   1   4 1017.40   34.90
   4  -1  -4  481.45   16.10
   4  -1  -4  448.36   16.20
   4  -1  -4  469.35   16.60
   4  -1  -4  473.25   23.80
  -4   1   4  465.15   16.90
  -4   1   4  451.55   17.10
  -4   1   4  467.65   16.40
  -4   1   4  466.75   23.00
  -4   1   4  468.15   16.10
   3  -1  -4 3018.30   96.39
   3  -1  -4 2925.51   89.79
   3  -1  -4 2915.11   89.89
   3  -1  -4 2847.92   89.79
  -3   1   4 2912.51   89.99
  -3   1   4 2965.20   90.29
  -3   1   4 3009.30   90.69
   2  -1  -4 1475.25   49.20
   2  -1  -4 1466.45   45.00
   2  -1  -4 1424.56   44.90
   2  -1  -4 1504.65   49.30
   2  -1  -4 1463.65   45.30
  -2   1   4 1481.45   45.40
  -2   1   4 1453.75   45.50
  -2   1   4 1429.96   45.30
  -2   1   4 1498.45   45.70
   0  -1  -4  600.54   20.00
   0   1   4  591.04   18.30
   0   1   4  542.15   17.50
   0   1   4  550.54   17.60
   0   1   4  581.54   19.70
  -2  -1  -4   55.19    3.30
  -2  -1  -4   51.99    6.20
  -2  -1  -4   54.29    3.10
   2   1   4   54.39    3.20
   2   1   4   67.09    3.00
   2   1   4   55.09    6.60
   2   1   4   55.79    3.70
  -3  -1  -4 4203.48  155.98
   3   1   4 5631.04  158.78
  -4  -1  -4   26.30    6.60
  -4  -1  -4   24.50    3.70
  -4  -1  -4   23.90    4.10
   4   1   4   24.30    3.70
   4   1   4   20.80    7.20
   4   1   4   24.90    3.90
   4   1   4   19.20    2.50
  -5  -1  -4 2381.66   73.19
  -5  -1  -4 2225.28   73.29
  -5  -1  -4 2286.57   84.69
   5   1   4 2229.58   72.69
   5   1   4 2336.57   73.99
   5   1   4 2339.57   85.49
   5   1   4 2342.17   71.19
  -6  -1  -4   78.89   15.00
  -6  -1  -4   72.39    7.90
  -6  -1  -4   70.79    7.90
   6   1   4   61.39    6.20
   6   1   4   65.79   14.70
   6   1   4   73.29    7.70
   6   1   4   73.39    5.10
  -7  -1  -4  193.38   12.10
  -7  -1  -4  173.08   12.70
  -7  -1  -4  182.28   26.10
   7   1   4  176.08    8.80
   7   1   4  183.58   10.60
   7   1   4  181.38   13.30
   7   1   4  162.48   24.00
   7   1   4  171.48   11.60
  -8  -1  -4   27.20    9.70
  -8  -1  -4   34.30    7.80
  -8  -1  -4    1.30   19.60
   8   1   4   28.50    5.60
   8   1   4   25.60    8.20
   8   1   4   26.60    5.60
   8   1   4   24.00    6.70
   8   1   4    8.10   24.00
   8  -2  -4  161.58   12.40
   8  -2  -4  166.08   10.70
   8  -2  -4  170.48   11.10
   8  -2  -4  171.48   11.20
   8  -2  -4  161.88   31.10
   8  -2  -4  140.19   27.50
  -8   2   4  170.68   13.50
  -8   2   4  156.78   14.40
  -8   2   4  154.48   10.30
   7  -2  -4  236.58   12.20
   7  -2  -4  241.08   12.80
   7  -2  -4  241.48   11.70
   7  -2  -4  197.38   21.80
   7  -2  -4  226.08   11.80
   7  -2  -4  246.48   26.80
  -7   2   4  244.18   13.40
  -7   2   4  223.48   11.70
  -7   2   4  253.77   14.60
   6  -2  -4  106.39   17.30
   6  -2  -4  110.69    7.80
   6  -2  -4  100.29    7.00
   6  -2  -4  111.39   15.00
   6  -2  -4  109.09    6.60
  -6   2   4   99.59    7.20
  -6   2   4   96.19    6.60
  -6   2   4  120.09    8.50
  -6   2   4  103.49    9.00
   5  -2  -4  629.74   21.60
   5  -2  -4  624.94   21.90
   5  -2  -4  606.04   30.50
   5  -2  -4  646.34   21.70
   5  -2  -4  629.54   22.30
   5  -2  -4  622.24   31.70
  -5   2   4  597.24   21.80
  -5   2   4  631.04   21.80
  -5   2   4  645.14   22.90
  -5   2   4  638.64   23.40
   4  -2  -4  167.48    7.10
   4  -2  -4  155.38    7.20
   4  -2  -4  140.79   12.70
   4  -2  -4  149.09   13.50
   4  -2  -4  148.49    7.00
   4  -2  -4  161.68    6.90
  -4   2   4  157.08    7.00
  -4   2   4  150.68    7.50
  -4   2   4  159.18    8.10
  -4   2   4  157.28    7.20
   3  -2  -4 3247.07  103.29
   3  -2  -4 3226.48   96.69
  -3   2   4 3181.98   96.79
  -3   2   4 3100.69   97.09
  -3   2   4 3148.49   97.29
  -3   2   4 3051.99   96.89
   2  -2  -4  458.95   19.90
   2  -2  -4  479.95   15.80
   2  -2  -4  464.45   15.40
   2  -2  -4  479.95   15.40
  -2   2   4  462.55   15.80
  -2   2   4  475.55   16.00
  -2   2   4  484.85   15.90
  -2   2   4  461.95   15.50
  -2   2   4  479.65   20.20
   1  -2  -4 7366.26  226.68
   0  -2  -4  119.29    4.30
   0  -2  -4  119.49    8.50
   0  -2  -4  120.09    4.40
   0   2   4  116.39    7.90
   0   2   4  125.99    5.10
   0   2   4  119.49    5.20
  -1  -2  -4 4699.53  151.18
   1   2   4 4894.01  151.18
  -2  -2  -4  368.66   13.60
  -2  -2  -4  386.56   19.40
  -2  -2  -4  385.06   13.30
   2   2   4  362.66   13.40
   2   2   4  398.46   13.20
   2   2   4  402.56   19.90
   2   2   4  398.26   14.40
  -3  -2  -4  976.30   31.60
  -3  -2  -4  967.10   32.10
   3   2   4  942.01   31.60
   3   2   4  988.20   31.00
   3   2   4  986.00   32.70
  -4  -2  -4  144.39    7.70
  -4  -2  -4  136.59   15.40
  -4  -2  -4  137.79    8.10
   4   2   4  139.89    7.70
   4   2   4  136.89    6.60
   4   2   4  135.39    8.70
   4   2   4  140.89   15.70
  -5  -2  -4  632.24   22.80
  -5  -2  -4  584.24   33.00
  -5  -2  -4  623.24   23.60
   5   2   4  647.54   21.30
   5   2   4  619.74   35.30
   5   2   4  584.34   23.60
  -6  -2  -4  914.11   48.90
  -6  -2  -4  970.00   35.50
  -6  -2  -4 1069.59   35.40
   6   2   4  987.00   50.99
   6   2   4  965.90   34.40
   6   2   4  989.00   32.70
   6   2   4  970.00   35.90
  -7  -2  -4 1021.20   35.20
  -7  -2  -4  899.71   35.40
  -7  -2  -4  964.10   53.29
   7   2   4  931.51   36.00
   7   2   4  959.50   32.50
   7   2   4  926.81   54.89
   7   2   4  878.51   34.00
   8  -3  -4    7.40    5.60
   8  -3  -4    8.40    5.30
   8  -3  -4   -4.40   17.10
   8  -3  -4   10.60    4.50
   8  -3  -4   10.60   17.80
   8  -3  -4   13.20    5.50
  -8   3   4    9.60    6.50
  -8   3   4    7.00    4.60
  -8   3   4    2.80    7.30
   7  -3  -4 1787.42   75.19
   7  -3  -4 1814.42   59.69
   7  -3  -4 1839.12   58.59
   7  -3  -4 1778.62   59.19
   7  -3  -4 1836.32   58.69
  -7   3   4 1809.12   58.79
  -7   3   4 1872.21   60.79
  -7   3   4 1774.82   58.69
  -7   3   4 1794.42   61.39
   6  -3  -4    0.00    2.40
   6  -3  -4    0.40    7.90
   6  -3  -4    3.10    3.20
   6  -3  -4    5.20    3.10
   6  -3  -4   -1.30    8.60
  -6   3   4   -2.00    3.10
  -6   3   4   -4.20    4.00
  -6   3   4    3.80    3.20
   5  -3  -4 2728.23   93.09
   5  -3  -4 2522.45   81.29
   5  -3  -4 2544.75   80.79
   5  -3  -4 2578.34   92.39
   5  -3  -4 2531.45   81.29
  -5   3   4 2609.14   82.69
  -5   3   4 2671.93   82.19
  -5   3   4 2582.44   81.19
  -5   3   4 2640.44   81.19
   4  -3  -4  178.18   14.10
   4  -3  -4  169.38   14.60
   4  -3  -4  165.98    7.90
   4  -3  -4  183.28    8.00
   4  -3  -4  171.58    7.70
  -4   3   4  167.98    7.90
  -4   3   4  183.58    8.80
  -4   3   4  169.58    8.80
  -4   3   4  185.58    8.00
   3  -3  -4 1073.59   34.00
   3  -3  -4 1035.80   33.90
   3  -3  -4 1140.39   34.30
  -3   3   4 1028.10   34.20
  -3   3   4 1057.69   34.00
  -3   3   4 1056.89   34.90
  -3   3   4 1052.69   34.70
   2  -3  -4    3.10    1.40
   2  -3  -4    3.10    1.30
   2  -3  -4   13.40    4.60
   2  -3  -4    2.70    1.40
  -2   3   4    7.20    1.90
  -2   3   4    3.70    1.80
  -2   3   4    2.40    1.70
  -2   3   4    7.80    4.10
   1  -3  -4  293.07   10.40
   1  -3  -4  289.87   15.90
   1  -3  -4  325.67   10.80
  -1   3   4  297.57   15.80
  -1   3   4  298.57   11.30
  -1   3   4  318.77   11.00
  -1   3   4  297.57   11.00
   0  -3  -4 1557.74   49.60
   0  -3  -4 1580.64   49.40
   0  -3  -4 1682.73   57.29
   0   3   4 1551.74   49.80
   0   3   4 1621.04   50.49
   0   3   4 1542.35   49.80
   0   3   4 1660.63   56.39
  -1  -3  -4 1193.48   45.20
  -1  -3  -4 1144.59   36.60
  -1  -3  -4 1111.09   36.90
   1   3   4 1191.98   37.90
   1   3   4 1220.08   44.70
   1   3   4 1127.19   36.90
  -2  -3  -4 2396.76   75.19
  -2  -3  -4 2412.76   75.69
   2   3   4 2498.75   76.59
   2   3   4 2481.35   75.09
   2   3   4 2375.36   75.39
  -3  -3  -4 1796.52   59.49
  -3  -3  -4 1813.02   70.89
  -3  -3  -4 1858.41   59.09
   3   3   4 1808.72   58.99
   3   3   4 1958.10   70.89
   3   3   4 1945.81   60.49
   3   3   4 1915.61   58.59
  -4  -3  -4  963.30   32.20
  -4  -3  -4  872.71   43.20
  -4  -3  -4  927.71   32.70
   4   3   4  969.10   31.20
   4   3   4  970.20   33.50
   4   3   4  967.50   44.80
   4   3   4  929.51   32.00
  -5  -3  -4  679.73   25.30
  -5  -3  -4  639.34   38.20
  -5  -3  -4  664.83   25.70
   5   3   4  635.54   37.50
   5   3   4  659.53   24.80
   5   3   4  704.63   26.80
   5   3   4  709.53   23.70
  -6  -3  -4  209.28   28.40
  -6  -3  -4  239.38   13.20
  -6  -3  -4  217.78   13.90
   6   3   4  229.88   27.50
   6   3   4  223.58   14.80
   6   3   4  225.68   11.20
   6   3   4  216.18   12.80
  -7  -3  -4   79.79   14.20
  -7  -3  -4   92.79   12.50
  -7  -3  -4  -23.60   19.40
   7   3   4   91.49    9.00
   7   3   4   78.19   12.60
   7   3   4   84.39   22.70
   7   3   4   65.99   10.10
   8  -4  -4    1.50   14.00
   8  -4  -4    0.30    3.90
   8  -4  -4   -2.60    5.30
   8  -4  -4   -0.50    5.50
   8  -4  -4   10.50   20.70
  -8   4   4    6.20    6.60
  -8   4   4   -6.10    5.60
  -8   4   4    4.30    5.90
  -8   4   4    7.10    5.80
   7  -4  -4  258.57   13.40
   7  -4  -4  256.47   13.30
   7  -4  -4  244.48   25.00
   7  -4  -4  257.57   12.20
   7  -4  -4  275.57   30.10
  -7   4   4  254.47   12.60
  -7   4   4  269.07   15.00
  -7   4   4  247.28   15.70
  -7   4   4  252.87   13.00
   6  -4  -4  188.18   10.50
   6  -4  -4  158.98   20.60
   6  -4  -4  180.98    9.20
   6  -4  -4  162.78   11.00
   6  -4  -4  176.08   22.10
  -6   4   4  177.68    9.50
  -6   4   4  186.38   11.90
  -6   4   4  182.48   11.20
  -6   4   4  176.58    9.90
   5  -4  -4  760.12   37.50
   5  -4  -4  730.63   25.90
   5  -4  -4  727.43   36.60
   5  -4  -4  737.83   25.30
   5  -4  -4  747.53   25.80
  -5   4   4  738.73   25.80
  -5   4   4  718.13   25.60
  -5   4   4  764.22   28.70
  -5   4   4  731.73   27.20
   4  -4  -4 1003.10   32.60
   4  -4  -4  954.70   42.30
   4  -4  -4  947.21   32.90
   4  -4  -4 1023.40   32.90
  -4   4   4 1024.80   34.00
  -4   4   4  991.40   32.90
  -4   4   4 1002.40   33.00
  -4   4   4 1012.80   34.20
   3  -4  -4 1735.13   57.89
   3  -4  -4 1873.01   57.79
   3  -4  -4 1861.31   57.79
   3  -4  -4 1887.31   72.79
  -3   4   4 1911.71   67.69
  -3   4   4 1812.22   57.99
  -3   4   4 1834.02   58.79
  -3   4   4 1879.31   58.89
  -3   4   4 1811.02   57.69
   2  -4  -4 1246.68   38.70
   2  -4  -4 1134.29   38.60
   2  -4  -4 1247.38   38.50
  -2   4   4 1235.08   39.50
  -2   4   4 1204.68   38.80
  -2   4   4 1193.68   39.40
   1  -4  -4 1217.88   52.39
   1  -4  -4 1417.16   44.10
   1  -4  -4 1372.56   44.40
  -1   4   4 1485.35   52.99
  -1   4   4 1426.86   44.90
  -1   4   4 1454.65   45.40
  -1   4   4 1445.46   44.50
   0  -4  -4  642.24   34.10
   0  -4  -4  779.32   26.40
   0  -4  -4  814.62   25.90
   0   4   4  821.02   26.30
   0   4   4  832.72   34.70
   0   4   4  811.72   26.60
   0   4   4  864.51   27.60
  -1  -4  -4  355.96   14.10
  -1  -4  -4  377.66   13.70
   1   4   4  380.16   14.20
   1   4   4  405.26   15.50
  -2  -4  -4  683.53   23.10
  -2  -4  -4  649.24   23.50
  -2  -4  -4  614.14   37.50
   2   4   4  696.03   24.70
   2   4   4  669.83   33.40
   2   4   4  686.73   22.90
  -3  -4  -4  225.08   20.70
  -3  -4  -4  230.98   10.50
  -3  -4  -4  210.58   11.20
   3   4   4  229.78   12.10
   3   4   4  208.68    9.90
   3   4   4  225.38    9.70
   3   4   4  220.38   20.20
  -4  -4  -4  277.97   13.60
  -4  -4  -4  272.97   25.00
  -4  -4  -4  294.77   13.10
   4   4   4  284.67   24.40
   4   4   4  273.87   13.50
   4   4   4  271.97   12.60
   4   4   4  300.47   14.80
  -5  -4  -4  244.58   25.40
  -5  -4  -4  225.38   13.80
  -5  -4  -4  283.97   15.60
   5   4   4  236.98   13.00
   5   4   4  263.07   12.10
   5   4   4  239.98   14.90
   5   4   4  222.78   29.60
  -6  -4  -4   10.50   17.60
  -6  -4  -4   37.20    7.80
  -6  -4  -4   39.90    7.20
   6   4   4   37.20    8.30
   6   4   4   38.40    6.10
   6   4   4   33.00    6.70
   6   4   4   30.20   21.30
   8  -5  -4  119.99   10.40
   8  -5  -4  121.49   11.40
   8  -5  -4  124.29   11.50
   8  -5  -4  145.09   27.60
   8  -5  -4  -10.30   19.30
  -8   5   4  114.09   11.40
  -8   5   4  134.49   14.30
  -8   5   4  107.99    9.80
   7  -5  -4  561.94   38.60
   7  -5  -4  538.35   21.80
   7  -5  -4  516.95   38.40
   7  -5  -4  543.25   22.20
   7  -5  -4  541.35   21.30
  -7   5   4  555.04   23.50
  -7   5   4  535.95   21.90
  -7   5   4  551.64   21.70
  -7   5   4  533.05   23.90
   6  -5  -4  425.66   17.00
   6  -5  -4  437.66   17.90
   6  -5  -4  400.76   17.50
   6  -5  -4  406.96   30.90
   6  -5  -4  436.66   32.40
  -6   5   4  387.36   17.20
  -6   5   4  461.15   20.00
  -6   5   4  394.96   17.50
  -6   5   4  419.46   18.60
   5  -5  -4  369.56   14.30
   5  -5  -4  350.16   14.90
   5  -5  -4  357.46   26.00
   5  -5  -4  373.66   27.40
   5  -5  -4  362.46   14.60
  -5   5   4  345.87   16.10
  -5   5   4  342.67   16.30
  -5   5   4  349.67   14.70
   4  -5  -4 1278.97   41.60
   4  -5  -4 1194.08   52.89
   4  -5  -4 1306.67   41.50
   4  -5  -4 1256.67   42.20
  -4   5   4 1310.67   54.09
  -4   5   4 1265.27   42.20
  -4   5   4 1273.97   43.20
  -4   5   4 1334.47   43.40
   3  -5  -4  459.55   27.50
   3  -5  -4  514.55   17.80
   3  -5  -4  469.15   18.20
   3  -5  -4  507.05   17.80
  -3   5   4  493.15   18.00
  -3   5   4  500.75   19.00
  -3   5   4  505.25   19.10
  -3   5   4  503.95   27.90
   2  -5  -4 1553.24   52.89
   2  -5  -4 1603.04   63.69
   2  -5  -4 1743.53   52.79
   2  -5  -4 1772.42   52.79
  -2   5   4 1600.34   52.69
  -2   5   4 1709.13   54.19
  -2   5   4 1614.44   53.59
  -2   5   4 1711.93   63.89
   1  -5  -4 1207.48   37.50
   1  -5  -4 1087.49   37.80
  -1   5   4 1200.78   39.20
  -1   5   4 1142.29   38.30
  -1   5   4 1143.99   37.50
  -1   5   4 1164.28   48.10
   0  -5  -4  466.65   15.90
   0  -5  -4  379.26   30.00
   0  -5  -4  413.06   16.30
   0   5   4  437.16   26.10
   0   5   4  427.46   16.40
   0   5   4  441.16   17.50
   0   5   4  427.86   15.70
  -1  -5  -4  594.44   22.00
  -1  -5  -4  626.14   21.40
  -1  -5  -4  623.44   34.10
   1   5   4  593.04   23.00
   1   5   4  589.74   21.60
   1   5   4  625.94   32.80
   1   5   4  600.94   21.00
  -2  -5  -4   26.50    5.20
  -2  -5  -4   23.70   10.70
  -2  -5  -4   23.40    4.60
   2   5   4   27.20   10.50
   2   5   4   21.60    4.50
  -3  -5  -4   -1.20   11.00
  -3  -5  -4   12.50    4.20
  -3  -5  -4    9.20    4.10
   3   5   4   14.10    4.10
   3   5   4    7.90    9.70
   3   5   4    9.10    4.90
  -4  -5  -4  128.49   21.80
  -4  -5  -4  147.79    9.80
  -4  -5  -4  145.89   11.00
   4   5   4  153.78   25.20
   4   5   4  138.09   11.90
   4   5   4  141.69    8.60
  -5  -5  -4  133.99   11.80
  -5  -5  -4  137.09   13.00
  -5  -5  -4   53.99   20.00
   5   5   4  121.59   11.70
   5   5   4  124.39   24.50
   5   5   4  121.89   10.00
   5   5   4  115.89   10.70
   7  -6  -4  166.18   10.30
   7  -6  -4  173.48   12.50
   7  -6  -4  195.98   11.90
   7  -6  -4  177.38   33.40
   7  -6  -4   39.10   19.00
  -7   6   4  178.48   12.50
  -7   6   4  164.18   15.20
  -7   6   4  173.08   11.40
  -7   6   4  185.38   13.00
   6  -6  -4  353.46   30.80
   6  -6  -4  375.16   16.00
   6  -6  -4  318.77   28.60
   6  -6  -4  360.56   16.50
   6  -6  -4  361.66   15.20
  -6   6   4  367.56   18.20
  -6   6   4  355.46   18.00
  -6   6   4  341.87   16.50
  -6   6   4  360.96   16.70
   5  -6  -4  524.55   33.80
   5  -6  -4  538.85   21.60
   5  -6  -4  587.04   21.20
   5  -6  -4  566.94   20.60
  -5   6   4  570.44   23.10
  -5   6   4  542.35   23.40
  -5   6   4  536.15   21.10
  -5   6   4  564.64   21.30
   4  -6  -4  108.29    6.90
   4  -6  -4  101.39    7.10
   4  -6  -4  104.89    8.00
   4  -6  -4  119.49   18.90
  -4   6   4  106.99    7.40
  -4   6   4  100.19    7.20
  -4   6   4  110.19    9.30
  -4   6   4  102.99    8.30
  -4   6   4  109.99   17.10
   3  -6  -4   56.79   12.80
   3  -6  -4   71.99    6.60
   3  -6  -4   66.09    6.50
   3  -6  -4   79.59    6.00
  -3   6   4   69.99    7.00
  -3   6   4   67.89    6.00
  -3   6   4   85.79    8.10
  -3   6   4   84.39   16.30
   2  -6  -4  236.38   11.30
   2  -6  -4  228.88   22.20
  -2   6   4  240.68   10.70
  -2   6   4  256.37   21.50
   1  -6  -4  206.08   10.40
   1  -6  -4  215.68    9.80
   1  -6  -4  202.38   21.70
  -1   6   4  239.48   20.70
  -1   6   4  182.58   12.00
  -1   6   4  214.08   10.00
   0  -6  -4 1440.46   44.50
   0  -6  -4 1352.56   60.49
   0  -6  -4 1354.76   45.30
   0   6   4 1329.27   44.30
   0   6   4 1151.28   46.80
   0   6   4 1467.45   47.20
   0   6   4 1488.25   59.39
  -1  -6  -4   96.59   19.80
  -1  -6  -4   93.29    6.70
  -1  -6  -4   87.09    8.10
   1   6   4   96.59    9.20
   1   6   4   89.49   15.90
   1   6   4   88.09    6.60
   1   6   4   85.99    7.60
   1   6   4   91.09    6.20
  -2  -6  -4 1668.13   51.59
  -2  -6  -4 1513.95   68.49
  -2  -6  -4 1541.55   51.99
   2   6   4 1659.13   54.19
   2   6   4 1509.25   51.79
   2   6   4 1575.24   67.29
   2   6   4 1484.75   50.49
   2   6   4 1602.94   51.29
  -3  -6  -4   65.89    8.80
  -3  -6  -4   73.39   19.30
   3   6   4   77.99    8.50
   3   6   4   75.49   10.50
   3   6   4   76.69    8.00
   3   6   4   89.89   19.50
  -4  -6  -4  359.66   18.80
  -4  -6  -4  352.46   16.80
   4   6   4  370.66   16.60
   4   6   4  362.56   37.40
   4   6   4  339.07   18.50
   4   6   4  322.47   16.30
   6  -7  -4  157.78   13.20
   6  -7  -4  195.88   33.40
   6  -7  -4  183.18   11.10
   6  -7  -4    0.10   17.90
   6  -7  -4  168.08   11.10
  -6   7   4  183.98   14.20
  -6   7   4  156.08   14.90
  -6   7   4  165.68   11.20
   5  -7  -4  114.69    8.10
   5  -7  -4  133.79   25.70
   5  -7  -4  127.19    8.90
   5  -7  -4   99.39   10.80
  -5   7   4  112.39   11.50
  -5   7   4   96.39    8.90
  -5   7   4  103.49   12.00
  -5   7   4  115.59    9.20
  -5   7   4  131.79   27.80
   4  -7  -4  922.91   35.60
   4  -7  -4  876.71   29.90
   4  -7  -4  839.22   31.20
   4  -7  -4  839.62   45.60
  -4   7   4  876.51   48.30
  -4   7   4  814.92   32.30
  -4   7   4  902.41   33.20
  -4   7   4  873.01   31.00
  -4   7   4  820.62   30.70
   3  -7  -4   -0.10    4.00
   3  -7  -4   28.50   13.60
  -3   7   4   16.40   12.00
  -3   7   4    4.00    4.10
  -3   7   4    5.60    3.50
  -3   7   4    6.00    4.90
   2  -7  -4  806.32   27.50
   2  -7  -4  758.72   30.50
   2  -7  -4  775.22   43.80
  -2   7   4  794.82   42.90
  -2   7   4  766.22   29.40
  -2   7   4  765.52   27.50
  -2   7   4  788.42   29.80
   1  -7  -4   32.80   14.00
   1  -7  -4   34.40    6.50
   1  -7  -4   53.19    6.50
  -1   7   4   28.50    4.50
  -1   7   4   49.90   14.40
  -1   7   4   27.80    5.70
  -1   7   4   32.00    6.70
   0  -7  -4  207.48   24.50
   0   7   4  195.48   12.60
   0   7   4  225.88   23.50
   0   7   4  225.18   12.60
   0   7   4  189.58   10.30
  -1  -7  -4    6.30    4.60
  -1  -7  -4    6.10   12.60
  -1  -7  -4    8.50    4.90
   1   7   4    7.30    4.60
   1   7   4   18.10   11.90
   1   7   4    8.80    4.30
   1   7   4   11.00    5.00
   1   7   4   12.40    6.00
  -2  -7  -4  129.49   11.70
  -2  -7  -4  132.49   29.50
  -2  -7  -4  132.89    9.70
   2   7   4  120.39    8.50
   2   7   4  121.99   12.90
   2   7   4  129.99    9.90
   2   7   4  128.59    9.30
   2   7   4  142.29   27.70
  -3  -7  -4   60.89   11.80
  -3  -7  -4   24.60   19.70
  -3  -7  -4   59.09    9.80
   3   7   4   43.50    6.40
   3   7   4   65.29    8.80
   3   7   4   59.79   10.70
   3   7   4   56.99   19.10
   3   7   4   52.09    8.40
   5  -8  -4  -26.20   20.30
   5  -8  -4   71.59    8.90
   5  -8  -4   62.59   12.10
   5  -8  -4   86.79    9.10
  -5   8   4   62.39    9.40
  -5   8   4   72.79    9.00
  -5   8   4   95.29   25.70
  -5   8   4   74.89   12.20
  -5   8   4   89.49   13.20
   4  -8  -4  639.44   26.80
   4  -8  -4  697.63   25.20
  -4   8   4  677.63   44.40
  -4   8   4  684.73   28.80
  -4   8   4  623.44   25.80
  -4   8   4  671.03   25.90
  -4   8   4  638.24   28.30
   3  -8  -4  204.18   13.20
   3  -8  -4  212.28   30.80
   3  -8  -4  218.98   11.80
  -3   8   4  206.98   11.70
  -3   8   4  229.18   14.80
  -3   8   4  209.68   13.80
  -3   8   4  227.38   32.00
   2  -8  -4  780.62   29.70
   2  -8  -4  780.32   49.70
   2  -8  -4  833.92   28.60
  -2   8   4  769.62   31.30
  -2   8   4  762.72   28.70
  -2   8   4  820.12   48.40
  -2   8   4  763.02   30.40
   1  -8  -4   54.39   20.70
   1  -8  -4   69.09   10.40
   1  -8  -4   75.49    8.10
  -1   8   4   63.19   11.50
  -1   8   4   70.79   10.20
  -1   8   4   80.99   17.90
  -1   8   4   67.79    8.90
   0  -8  -4  328.47   16.90
   0  -8  -4  371.36   15.70
   0   8   4  323.77   15.30
   0   8   4  316.57   17.60
   0   8   4  332.87   32.40
   0   8   4  319.87   18.20
   0   8   4  313.37   14.70
  -1  -8  -4   -6.70   15.90
  -1  -8  -4   11.90    7.10
  -1  -8  -4   11.30    5.10
   1   8   4   10.70    7.90
   1   8   4   15.00    6.60
   1   8   4   16.10    4.80
   1   8   4    2.50    4.80
   1   8   4   14.20   19.80
   0   9  -5  491.25   18.00
   0   9  -5  483.35   23.90
   0   9  -5  510.05   45.50
   0  -9   5  541.65   51.59
  -1   9  -5   20.30    8.80
  -1   9  -5   21.40    8.00
  -1   9  -5   39.30   20.70
  -1   9  -5   25.30    4.00
  -1   9  -5   32.10    6.60
   1  -9   5   27.30   25.30
   1  -9   5   30.80    8.50
  -2   9  -5  281.77   14.70
  -2   9  -5  277.67   12.00
  -2   9  -5  278.97   18.80
  -2   9  -5  316.97   40.60
  -2   9  -5  271.27   16.50
   2  -9   5  299.37   41.40
   2  -9   5  265.87   17.80
   2  -9   5  280.87   15.60
  -3   9  -5  207.38   39.60
  -3   9  -5  159.28   11.00
  -3   9  -5  165.18    9.30
  -3   9  -5  145.09   14.70
  -3   9  -5  159.48   15.70
   3  -9   5  159.28   14.90
   3  -9   5  160.08   30.00
  -4   9  -5  190.88   41.80
  -4   9  -5  174.58   11.30
  -4   9  -5  170.18   16.00
   4  -9   5  159.08   31.40
   2   8  -5  101.49   27.60
   2   8  -5  132.49   14.00
   2   8  -5  123.19    7.20
   2   8  -5  128.69   10.30
   2   8  -5  123.59   12.80
  -2  -8   5  127.19   13.20
  -2  -8   5  133.09   26.20
  -2  -8   5  135.89   10.80
   1   8  -5  733.23   27.90
   1   8  -5  727.03   29.30
   1   8  -5  773.12   49.10
   1   8  -5  756.12   30.70
   1   8  -5  737.13   24.60
  -1  -8   5  751.22   28.60
  -1  -8   5  687.73   50.89
  -1  -8   5  706.43   30.40
   0   8  -5  549.85   40.30
   0   8  -5  553.94   23.60
   0   8  -5  517.75   18.40
   0   8  -5  520.15   23.40
   0   8  -5  526.85   20.90
   0  -8   5  567.24   22.70
   0  -8   5  526.85   43.90
   0  -8   5  519.65   24.70
  -1   8  -5 1074.69   55.29
  -1   8  -5  998.00   37.60
  -1   8  -5  990.60   32.80
  -1   8  -5 1042.00   35.30
  -1   8  -5 1039.00   38.30
   1  -8   5  947.81   37.80
   1  -8   5 1057.29   36.80
   1  -8   5  996.60   58.19
  -2   8  -5 1250.47   44.60
  -2   8  -5 1255.67   61.99
  -2   8  -5 1264.27   41.30
  -2   8  -5 1231.88   39.30
  -2   8  -5 1232.98   44.00
   2  -8   5 1244.68   42.80
   2  -8   5 1196.18   44.60
   2  -8   5 1132.59   60.99
  -3   8  -5  282.77   34.80
  -3   8  -5  316.67   13.90
  -3   8  -5  309.07   12.30
  -3   8  -5  299.77   17.10
  -3   8  -5  334.87   17.80
   3  -8   5  306.27   17.70
   3  -8   5  315.17   32.60
   3  -8   5  309.67   15.20
  -4   8  -5  582.94   21.60
  -4   8  -5  564.04   20.80
  -4   8  -5  559.74   22.90
  -4   8  -5  609.54   42.00
  -4   8  -5  574.74   25.40
  -4   8  -5  608.64   25.10
   4  -8   5  575.54   44.90
   4  -8   5  593.54   24.30
   4  -8   5  541.85   24.90
   4  -8   5  579.94   20.20
  -5   8  -5   91.99    9.00
  -5   8  -5   97.79   21.60
  -5   8  -5   92.39    9.70
  -5   8  -5   98.19   12.40
  -5   8  -5   84.39   12.40
  -5   8  -5   73.69    7.50
   5  -8   5   77.39   24.00
   5  -8   5   82.79   10.40
   5  -8   5   86.69    7.00
   5  -8   5   88.29   10.80
  -6   8  -5    3.70    8.10
  -6   8  -5   12.90    4.70
  -6   8  -5   21.10    8.70
   6  -8   5   32.10   24.10
   6  -8   5   13.10    4.90
   4   7  -5  195.48   36.10
   4   7  -5  228.18   16.50
   4   7  -5  212.18   10.50
   4   7  -5  196.48   14.40
  -4  -7   5  211.08   35.20
  -4  -7   5  242.78   21.00
   3   7  -5  355.06   16.80
   3   7  -5  345.77   13.50
   3   7  -5  354.56   18.40
   3   7  -5  341.27   17.80
   3   7  -5  396.06   41.70
  -3  -7   5  357.36   20.60
  -3  -7   5  371.26   39.80
  -3  -7   5  411.16   18.60
   2   7  -5  583.24   20.70
   2   7  -5  670.63   44.40
   2   7  -5  648.74   26.30
   2   7  -5  613.14   23.70
   2   7  -5  613.94   25.00
  -2  -7   5  626.44   27.40
  -2  -7   5  637.84   25.00
  -2  -7   5  625.94   46.00
   1   7  -5  147.69    8.90
   1   7  -5  160.68   26.70
   1   7  -5  127.29   11.10
   1   7  -5  120.29    6.10
   1   7  -5  131.59   10.30
  -1  -7   5  134.99   25.90
  -1  -7   5  126.49   11.70
  -1  -7   5  141.69   10.00
   0   7  -5  187.18   31.20
   0   7  -5  227.68   13.40
   0   7  -5  221.68   10.70
   0   7  -5  223.18   12.60
   0   7  -5  215.68    8.50
   0  -7   5  224.68   14.20
  -1   7  -5  507.45   21.20
  -1   7  -5  512.15   24.10
  -1   7  -5  514.55   17.40
  -1   7  -5  533.95   19.60
   1  -7   5  550.04   21.00
   1  -7   5  497.05   21.80
  -2   7  -5    5.20    2.10
  -2   7  -5   10.30    5.00
  -2   7  -5   -2.60    5.20
  -2   7  -5    3.20    3.10
   2  -7   5    0.60    3.30
   2  -7   5   -3.30    4.70
  -3   7  -5 1760.02   73.19
  -3   7  -5 1748.53   55.19
  -3   7  -5 1708.03   57.79
  -3   7  -5 1692.23   54.29
  -3   7  -5 1789.32   58.39
   3  -7   5 1698.93   74.29
   3  -7   5 1635.94   58.19
   3  -7   5 1787.12   57.39
   3  -7   5 1775.02   54.09
  -4   7  -5    0.70    5.10
  -4   7  -5    9.70    2.80
  -4   7  -5   10.50    5.30
  -4   7  -5   10.90    3.80
  -4   7  -5    4.50    3.00
  -4   7  -5   13.40   14.70
   4  -7   5    9.10    4.80
   4  -7   5   11.00    5.60
   4  -7   5   15.50    2.90
  -5   7  -5 1420.16   49.90
  -5   7  -5 1485.25   50.49
  -5   7  -5 1441.76   46.00
  -5   7  -5 1435.66   48.30
  -5   7  -5 1523.75   69.39
   5  -7   5 1465.25   49.70
   5  -7   5 1338.07   67.09
   5  -7   5 1382.36   50.09
  -6   7  -5   22.50    4.00
  -6   7  -5   20.20    7.10
  -6   7  -5   28.10    7.50
   6  -7   5   31.70   15.90
   6  -7   5   30.70    7.10
   6  -7   5   18.00    7.70
   6  -7   5   33.90   16.60
   6  -7   5   36.50    5.10
  -7   7  -5  374.96   20.90
  -7   7  -5  364.86   20.80
  -7   7  -5  350.56   14.20
   7  -7   5  367.56   15.80
   7  -7   5  381.86   45.20
   7  -7   5  338.77   42.90
   5   6  -5  106.59    8.70
   5   6  -5   85.49   12.70
   5   6  -5   96.29   11.20
   5   6  -5   82.99   26.90
   5   6  -5   84.49   10.60
  -5  -6   5   88.99   26.50
  -5  -6   5   99.29   11.60
  -5  -6   5   98.69   14.30
   4   6  -5   19.60   15.40
   4   6  -5   11.40    6.10
   4   6  -5    8.80    3.20
   4   6  -5    7.20    5.50
   4   6  -5   11.50    5.50
  -4  -6   5   11.80    5.70
  -4  -6   5    6.20    7.10
  -4  -6   5    6.70   17.70
   3   6  -5  749.03   28.30
   3   6  -5  779.62   28.00
   3   6  -5  784.92   29.20
   3   6  -5  733.53   44.00
  -3  -6   5  740.43   51.39
  -3  -6   5  795.72   28.50
  -3  -6   5  738.73   30.70
   2   6  -5   11.40    7.00
   2   6  -5    7.80    4.00
   2   6  -5    6.20   14.40
   2   6  -5   15.90    2.30
   2   6  -5   16.10    4.20
  -2  -6   5    8.70    5.60
  -2  -6   5   10.30    4.00
  -2  -6   5   23.60   13.30
   1   6  -5 1852.41   60.49
   1   6  -5 1962.60   75.29
   1   6  -5 1894.81   58.19
   1   6  -5 1700.33   55.59
   1   6  -5 1662.93   60.49
  -1  -6   5 1897.11   61.29
  -1  -6   5 1792.32   60.59
  -1  -6   5 1723.13   74.19
   0   6  -5    4.70    1.40
   0   6  -5    6.70    7.80
   0   6  -5    2.30    3.30
   0   6  -5    7.70    3.00
   0   6  -5    4.10    3.50
   0  -6   5    4.60   10.20
   0  -6   5    7.50    3.40
   0  -6   5   17.70    4.40
  -1   6  -5 1629.74   50.49
  -1   6  -5 1481.25   48.70
  -1   6  -5 1581.04   51.89
  -1   6  -5 1659.53   65.29
  -1   6  -5 1631.64   52.69
   1  -6   5 1508.25   65.09
  -2   6  -5   41.50    3.10
  -2   6  -5   49.30    6.70
  -2   6  -5   48.00    4.50
  -2   6  -5   39.70    5.90
  -2   6  -5   48.10   12.20
   2  -6   5   41.80   12.30
  -3   6  -5 1150.38   40.20
  -3   6  -5 1240.48   53.59
  -3   6  -5 1158.28   37.40
  -3   6  -5 1164.38   37.90
  -3   6  -5 1226.58   40.70
   3  -6   5 1218.38   37.30
   3  -6   5 1096.79   40.50
   3  -6   5 1266.27   40.80
   3  -6   5 1111.09   52.89
  -4   6  -5  129.49    6.30
  -4   6  -5  128.29    6.60
  -4   6  -5  124.49    7.90
   4  -6   5  128.09    8.60
   4  -6   5  133.09   10.00
   4  -6   5  124.89   18.00
   4  -6   5  121.49    6.30
  -5   6  -5 1185.78   40.30
  -5   6  -5 1217.68   42.10
  -5   6  -5 1190.28   38.00
  -5   6  -5 1181.98   41.60
  -5   6  -5 1144.49   56.09
   5  -6   5 1236.58   41.80
   5  -6   5 1152.68   42.00
   5  -6   5 1242.58   38.90
  -6   6  -5   60.89    9.30
  -6   6  -5   55.09    9.10
  -6   6  -5   50.39    4.90
   6  -6   5   48.30    7.60
   6  -6   5   58.99    9.70
   6  -6   5   54.99    6.30
   6  -6   5   49.70   15.90
   6  -6   5   61.49   16.00
  -7   6  -5  683.03   23.40
  -7   6  -5  759.42   29.60
  -7   6  -5  713.73   29.20
   7  -6   5  660.83   47.60
   7  -6   5  715.63   25.70
   7  -6   5  781.12   50.29
   7  -6   5  677.13   29.10
   7  -6   5  689.23   29.50
   6   5  -5  107.59   11.20
   6   5  -5   82.29   28.20
   6   5  -5   89.19   10.80
   6   5  -5   97.69    8.60
   6   5  -5   88.79   10.80
  -6  -5   5  106.29   14.60
  -6  -5   5   88.79   10.30
  -6  -5   5   87.69   11.60
  -6  -5   5   85.69   22.30
   5   5  -5   86.09    8.00
   5   5  -5   91.09   10.80
   5   5  -5   96.89   20.70
   5   5  -5   94.99    9.70
   5   5  -5   89.39    9.50
  -5  -5   5   83.49   10.40
  -5  -5   5   85.49    8.10
  -5  -5   5   91.19   22.00
  -5  -5   5   80.09   10.90
   4   5  -5  346.37   15.40
   4   5  -5  372.56   13.90
   4   5  -5  339.07   30.60
   4   5  -5  383.96   16.00
   4   5  -5  370.36   16.70
  -4  -5   5  373.86   16.40
  -4  -5   5  355.06   15.30
  -4  -5   5  379.56   33.50
  -4  -5   5  330.37   17.80
   3   5  -5   90.79   19.90
   3   5  -5  104.29    7.00
   3   5  -5   84.29    8.30
  -3  -5   5   90.99   17.70
  -3  -5   5   97.49    6.60
  -3  -5   5   97.89    7.90
  -3  -5   5   77.89    9.30
   2   5  -5  815.02   40.30
   2   5  -5  757.02   27.20
   2   5  -5  760.92   26.60
  -2  -5   5  719.23   27.30
  -2  -5   5  775.02   30.50
  -2  -5   5  685.53   38.70
   1   5  -5  721.63   36.30
   1   5  -5  672.23   22.00
   1   5  -5  745.13   24.20
   1   5  -5  699.33   24.70
   1   5  -5  739.03   25.60
  -1  -5   5  702.93   24.70
  -1  -5   5  639.94   36.10
  -1  -5   5  674.63   26.00
   0   5  -5  347.17   13.90
   0   5  -5  358.86   13.20
   0   5  -5  363.26   23.80
   0   5  -5  336.27   11.30
   0   5  -5  345.97   14.60
   0  -5   5  351.26   15.00
   0  -5   5  346.77   13.90
   0  -5   5  324.27   23.00
  -1   5  -5 1790.82   66.59
  -1   5  -5 1785.42   56.69
  -1   5  -5 1675.73   53.39
  -1   5  -5 1720.03   55.99
  -1   5  -5 1795.82   54.89
   1  -5   5 1682.73   66.89
   1  -5   5 1802.12   55.99
   1  -5   5 1747.13   56.89
  -2   5  -5    6.80    3.00
  -2   5  -5    5.60    1.30
  -2   5  -5    6.10    1.90
  -2   5  -5    5.60    2.70
  -2   5  -5    2.90    6.90
   2  -5   5    5.50    3.00
   2  -5   5    5.30    1.30
   2  -5   5    5.60    2.60
   2  -5   5    9.50    7.10
  -3   5  -5  943.21   31.70
  -3   5  -5  896.21   29.00
  -3   5  -5  902.61   29.10
  -3   5  -5  897.41   31.10
  -3   5  -5  910.81   40.90
   3  -5   5  933.61   28.90
   3  -5   5  889.71   42.00
   3  -5   5  879.01   31.70
   3  -5   5  917.71   31.10
  -4   5  -5   58.49    5.70
  -4   5  -5   68.49   13.20
  -4   5  -5   54.59    3.80
  -4   5  -5   68.79    6.80
  -4   5  -5   63.19    6.20
   4  -5   5   65.09    6.80
   4  -5   5   56.99    4.30
   4  -5   5   52.29   11.00
   4  -5   5   59.69    7.70
  -5   5  -5  144.29    6.20
  -5   5  -5  155.68   12.60
  -5   5  -5  157.88    9.70
   5  -5   5  152.28    7.50
   5  -5   5  156.58    9.90
   5  -5   5  132.59    9.90
   5  -5   5  159.38   19.90
   5  -5   5  100.09   19.10
  -6   5  -5  652.03   24.60
  -6   5  -5  592.94   24.10
  -6   5  -5  593.84   20.00
   6  -5   5  590.54   38.20
   6  -5   5  578.54   24.10
   6  -5   5  632.34   24.80
   6  -5   5  616.24   36.70
   6  -5   5  641.64   22.40
  -7   5  -5  151.78    6.40
  -7   5  -5  150.38   11.90
  -7   5  -5  142.09   12.10
   7  -5   5  131.79   12.10
   7  -5   5  151.68   11.50
   7  -5   5  121.39   22.30
   7  -5   5  142.29    8.80
   7  -5   5  158.58   29.00
  -8   5  -5  497.45   17.50
  -8   5  -5  567.64   24.80
  -8   5  -5  526.45   24.50
   8  -5   5  558.74   22.20
   8  -5   5  522.25   44.80
   8  -5   5  545.05   25.00
   8  -5   5  518.45   23.80
   8  -5   5  564.44   48.10
   6   4  -5   25.60    6.60
   6   4  -5   35.50   21.50
   6   4  -5   48.70    8.30
   6   4  -5   35.80    4.60
   6   4  -5   35.00    7.20
  -6  -4   5   37.70    5.70
  -6  -4   5   27.70    8.70
  -6  -4   5   34.10    7.10
  -6  -4   5   24.60   15.90
   5   4  -5 2971.70   93.39
   5   4  -5 2833.12   91.89
   5   4  -5 3035.30   92.29
   5   4  -5 2894.01   90.29
  -5  -4   5 2994.00   93.09
  -5  -4   5 2835.42   91.49
  -5  -4   5 2801.52   94.49
   4   4  -5   14.00    2.70
   4   4  -5   17.70    5.30
   4   4  -5   13.90    4.30
   4   4  -5   20.70   10.80
   4   4  -5   19.00    3.70
  -4  -4   5   23.10    4.20
  -4  -4   5   16.70    4.20
  -4  -4   5   13.20    5.20
  -4  -4   5   10.40    9.90
   3   4  -5 3739.73  116.09
   3   4  -5 3726.93  116.99
   3   4  -5 3685.83  114.39
   3   4  -5 3946.11  131.09
  -3  -4   5 3788.32  115.89
  -3  -4   5 3862.51  131.09
  -3  -4   5 3704.73  116.49
  -3  -4   5 3591.64  117.79
   2   4  -5   10.80    2.50
   2   4  -5   12.00    3.10
   2   4  -5    9.00    2.70
   2   4  -5    9.00    7.60
  -2  -4   5    9.90    2.40
  -2  -4   5   13.90    8.10
  -2  -4   5   12.00    2.50
  -2  -4   5   11.00    3.20
   1   4  -5 1567.64   57.99
   1   4  -5 1534.85   48.10
   1   4  -5 1381.56   45.30
   1   4  -5 1457.05   47.40
   1   4  -5 1491.05   47.10
  -1  -4   5 1494.75   48.60
  -1  -4   5 1458.85   57.99
  -1  -4   5 1518.55   47.00
   0   4  -5  907.91   29.10
   0   4  -5  969.20   31.40
   0   4  -5  983.50   30.90
   0   4  -5  955.30   31.80
   0   4  -5  982.00   40.40
   0  -4   5  974.60   31.50
   0  -4   5  904.11   39.80
   0  -4   5  976.60   30.70
   0  -4   5  951.30   32.30
  -1   4  -5  424.46   22.60
  -1   4  -5  425.16   15.20
  -1   4  -5  413.16   15.60
  -1   4  -5  422.86   13.10
  -1   4  -5  426.26   14.30
   1  -4   5  405.06   15.70
   1  -4   5  420.56   15.20
   1  -4   5  387.06   22.40
  -2   4  -5 3318.87  104.69
  -2   4  -5 3412.76  105.19
  -2   4  -5 3354.96  103.39
  -2   4  -5 3548.94  114.19
  -2   4  -5 3368.36  102.99
   2  -4   5 3422.96  104.99
   2  -4   5 3324.67  113.99
   2  -4   5 3438.36  105.49
  -3   4  -5  894.11   28.50
  -3   4  -5  869.31   29.00
  -3   4  -5  851.81   27.10
  -3   4  -5  844.52   29.30
  -3   4  -5  840.42   37.10
   3  -4   5  830.62   37.80
   3  -4   5  889.31   27.40
   3  -4   5  888.11   29.40
   3  -4   5  847.22   29.60
  -4   4  -5 1754.22   57.09
  -4   4  -5 1859.41   59.69
  -4   4  -5 1889.11   58.99
  -4   4  -5 1951.10   60.09
   4  -4   5 1891.21   58.19
   4  -4   5 1847.12   70.19
   4  -4   5 1891.51   60.19
   4  -4   5 1870.11   60.29
  -5   4  -5  997.80   32.90
  -5   4  -5  949.40   29.30
  -5   4  -5 1000.20   32.80
   5  -4   5  917.11   43.10
   5  -4   5  730.83   33.70
   5  -4   5 1026.40   31.20
   5  -4   5  960.40   42.70
  -6   4  -5  249.18    9.00
   6  -4   5  240.38   24.40
   6  -4   5  280.07   14.10
   6  -4   5  277.97   24.10
   6  -4   5  260.47   13.70
   6  -4   5  272.27   11.40
  -7   4  -5  212.18    7.90
  -7   4  -5  206.48   13.20
  -7   4  -5  227.28   13.40
   7  -4   5  233.28   14.40
   7  -4   5  225.98   13.90
   7  -4   5  230.78   28.40
   7  -4   5  229.08   11.00
   7  -4   5  210.38   27.50
  -8   4  -5   92.49    4.50
  -8   4  -5  121.59   12.20
  -8   4  -5   91.59   12.20
   8  -4   5  122.49   24.60
   8  -4   5   84.99   21.20
   8  -4   5  108.39   13.00
   8  -4   5   97.49   11.90
   8  -4   5   99.19    9.00
   7   3  -5  346.17   15.30
   7   3  -5  331.27   16.60
   7   3  -5  319.87   16.00
   7   3  -5  351.96   42.90
   7   3  -5  336.27   18.30
  -7  -3   5  315.27   20.30
  -7  -3   5  345.67   17.70
  -7  -3   5  328.67   16.60
  -7  -3   5  330.67   37.40
   6   3  -5   50.59   18.90
   6   3  -5   71.49    8.20
   6   3  -5   61.09    8.90
  -6  -3   5   58.79   15.40
  -6  -3   5   47.30    7.30
  -6  -3   5   55.69    8.00
  -6  -3   5   59.99   11.10
   5   3  -5  129.59   11.10
   5   3  -5  161.28    8.80
   5   3  -5  148.59    7.60
  -5  -3   5  145.59   10.40
  -5  -3   5  150.78    9.10
  -5  -3   5  154.58    9.50
  -5  -3   5  156.78   22.80
   4   3  -5 1361.76   58.09
   4   3  -5 1239.48   46.00
   4   3  -5 1401.46   43.50
   4   3  -5 1365.16   44.70
   4   3  -5 1426.56   45.70
  -4  -3   5 1370.36   45.10
  -4  -3   5 1389.76   46.80
  -4  -3   5 1400.06   45.50
  -4  -3   5 1414.36   57.99
   3   3  -5  377.66   13.20
   3   3  -5  411.66   14.90
   3   3  -5  390.76   14.50
   3   3  -5  390.26   15.20
   3   3  -5  393.86   24.50
  -3  -3   5  376.86   15.90
  -3  -3   5  385.16   14.60
  -3  -3   5  392.26   15.00
  -3  -3   5  379.06   24.10
   2   3  -5 3079.79   96.79
   2   3  -5 3192.18   96.39
   2   3  -5 3280.27  106.79
   2   3  -5 3054.49   96.39
  -2  -3   5 3072.09   97.59
  -2  -3   5 3160.38   96.39
  -2  -3   5 3071.09   96.59
  -2  -3   5 3143.59  106.49
   1   3  -5 1276.27   47.70
   1   3  -5 1207.38   37.90
   1   3  -5 1246.18   39.50
   1   3  -5 1256.77   39.80
   1   3  -5 1281.77   39.50
  -1  -3   5 1244.38   47.90
  -1  -3   5 1229.68   39.30
  -1  -3   5 1242.28   40.50
   0   3  -5 1721.53   53.79
   0   3  -5 1714.63   53.29
   0   3  -5 1786.92   60.69
   0   3  -5 1684.43   53.49
   0  -3   5 1722.23   54.39
   0  -3   5 1698.13   60.79
   0  -3   5 1689.53   53.69
   0  -3   5 1761.12   53.19
  -1   3  -5 1100.59   40.20
  -1   3  -5 1041.50   32.90
  -1   3  -5 1049.20   33.50
  -1   3  -5 1029.40   33.70
   1  -3   5 1059.59   33.80
   1  -3   5 1066.09   40.20
   1  -3   5 1050.79   32.10
   1  -3   5 1049.30   34.20
  -2   3  -5  853.81   33.20
  -2   3  -5  806.62   26.60
  -2   3  -5  808.92   25.40
  -2   3  -5  829.02   27.00
   2  -3   5  802.12   33.30
   2  -3   5  795.42   25.50
   2  -3   5  825.72   27.30
   2  -3   5  830.02   27.00
  -3   3  -5  200.68    8.90
  -3   3  -5  204.38    6.90
  -3   3  -5  212.48    8.30
  -3   3  -5  206.18   14.00
  -3   3  -5  216.18    8.90
   3  -3   5  203.98   14.70
   3  -3   5  222.38    9.30
   3  -3   5  199.78    9.10
   3  -3   5  220.18    7.90
  -4   3  -5 1202.68   38.20
  -4   3  -5 1323.07   41.20
  -4   3  -5 1266.97   41.00
  -4   3  -5 1219.08   38.30
   4  -3   5 1261.07   49.30
   4  -3   5 1285.37   41.60
   4  -3   5 1276.47   39.90
   4  -3   5 1284.17   50.19
   4  -3   5 1231.68   41.30
  -5   3  -5   28.80    5.10
  -5   3  -5   35.00    4.90
  -5   3  -5   26.30    1.60
   5  -3   5   30.30    5.20
   5  -3   5   16.50    9.00
   5  -3   5   29.10    3.60
   5  -3   5   28.90    8.90
   5  -3   5   28.90    5.30
  -6   3  -5 1044.60   33.50
  -6   3  -5 1073.49   37.50
  -6   3  -5 1147.09   37.90
   6  -3   5 1121.19   36.40
   6  -3   5 1044.10   37.60
   6  -3   5 1049.70   50.09
   6  -3   5 1178.88   39.40
   6  -3   5 1087.79   49.70
  -7   3  -5    5.80    1.50
  -7   3  -5    8.90    4.90
  -7   3  -5    4.20    4.80
   7  -3   5    4.10    5.00
   7  -3   5   -3.60   13.40
   7  -3   5   11.60    3.70
   7  -3   5    6.00    5.30
   7  -3   5   -2.40    9.90
  -8   3  -5  406.36   19.50
  -8   3  -5  347.97   18.30
  -8   3  -5  329.37   11.70
   8  -3   5  357.46   19.70
   8  -3   5  294.87   35.10
   8  -3   5  360.46   38.30
   8  -3   5  327.67   18.20
   8  -3   5  344.67   15.80
   8   2  -5  352.16   18.50
   8   2  -5  346.47   17.90
   8   2  -5  364.76   47.10
   8   2  -5  353.16   17.80
   8   2  -5  369.16   17.00
  -8  -2   5  325.17   17.30
  -8  -2   5  318.67   36.50
   7   2  -5  421.46   18.30
   7   2  -5  431.56   18.60
   7   2  -5  408.56   40.60
   7   2  -5  437.56   19.80
   7   2  -5  429.16   17.00
  -7  -2   5  382.26   20.40
  -7  -2   5  435.16   20.30
  -7  -2   5  423.86   18.60
  -7  -2   5  398.96   36.90
   6   2  -5  964.20   34.50
   6   2  -5 1005.30   34.80
   6   2  -5  975.90   38.00
   6   2  -5 1003.20   52.69
   6   2  -5 1002.90   33.60
  -6  -2   5 1013.40   34.70
  -6  -2   5 1076.69   57.29
  -6  -2   5  997.50   37.30
  -6  -2   5 1033.30   36.20
   5   2  -5 1196.28   53.19
   5   2  -5 1171.28   39.70
   5   2  -5 1227.28   40.90
   5   2  -5 1230.28   40.10
   5   2  -5 1210.98   39.00
  -5  -2   5 1249.77   41.10
  -5  -2   5 1181.08   39.80
  -5  -2   5 1200.18   52.59
   4   2  -5 2336.67   75.49
   4   2  -5 2409.96   76.29
   4   2  -5 2363.36   74.69
   4   2  -5 2410.86   87.49
   4   2  -5 2472.65   75.89
  -4  -2   5 2451.55   87.09
  -4  -2   5 2419.96   77.19
  -4  -2   5 2482.25   76.29
  -4  -2   5 2447.16   75.69
   3   2  -5 1720.83   52.79
   3   2  -5 1620.34   52.39
   3   2  -5 1640.04   52.89
   3   2  -5 1632.74   51.59
   3   2  -5 1753.82   62.59
  -3  -2   5 1673.83   52.69
  -3  -2   5 1684.63   53.79
  -3  -2   5 1712.93   61.79
  -3  -2   5 1606.94   52.69
   2   2  -5 6566.34  201.58
   2   2  -5 6934.41  210.08
  -2  -2   5 6445.66  208.78
   1   2  -5 2001.00   61.69
   1   2  -5 2084.99   67.89
   1   2  -5 1984.50   61.29
   1   2  -5 2004.00   61.49
  -1  -2   5 1991.70   62.09
  -1  -2   5 1961.70   67.59
  -1  -2   5 1994.20   61.59
  -1  -2   5 1978.50   61.59
  -1   2  -5 1049.40   36.90
  -1   2  -5 1054.99   32.10
  -1   2  -5 1012.70   32.40
  -1   2  -5 1060.39   32.30
   1  -2   5 1030.40   33.10
   1  -2   5  990.50   36.90
   1  -2   5 1052.39   32.10
   1  -2   5 1057.79   31.80
   1  -2   5 1078.29   32.90
  -2   2  -5 4846.31  155.08
   2  -2   5 5046.29  155.88
  -3   2  -5    8.30    1.90
  -3   2  -5    5.80    1.90
   3  -2   5    8.50    2.10
   3  -2   5    5.70    4.10
   3  -2   5    5.40    1.80
   3  -2   5    7.80    1.60
   3  -2   5    7.20    4.20
  -4   2  -5 1736.83   54.49
  -4   2  -5 1705.53   54.39
   4  -2   5 1712.03   62.99
   4  -2   5 1754.52   53.79
   4  -2   5 1753.02   54.09
   4  -2   5 1724.33   55.09
   4  -2   5 1659.43   54.69
   4  -2   5 1730.13   62.79
  -5   2  -5  361.96   14.80
  -5   2  -5  401.56   15.00
   5  -2   5  388.56   14.20
   5  -2   5  372.76   15.10
   5  -2   5  389.66   23.90
   5  -2   5  364.46   22.20
   5  -2   5  361.66   15.60
   5  -2   5  352.26   14.10
  -6   2  -5 1383.86   43.30
  -6   2  -5 1227.88   39.10
  -6   2  -5 1289.67   42.90
   6  -2   5 1226.78   42.70
   6  -2   5 1299.87   42.10
   6  -2   5 1162.88   55.69
   6  -2   5 1294.47   54.89
   6  -2   5 1316.37   41.80
  -7   2  -5  208.78    7.90
  -7   2  -5  222.48   12.70
   7  -2   5  218.58   10.90
   7  -2   5  236.88   26.50
   7  -2   5  220.68   12.20
   7  -2   5  195.88   23.00
   7  -2   5  224.08   12.90
   7  -2   5  230.48   12.30
  -8   2  -5  872.91   32.00
  -8   2  -5  800.22   32.20
   8  -2   5  868.11   31.40
   8  -2   5  746.33   48.90
   8  -2   5  812.92   32.40
   8  -2   5  785.72   31.10
   8  -2   5  812.72   29.80
   8  -2   5  832.72   51.69
   8   1  -5  422.36   20.30
   8   1  -5  401.86   45.60
   8   1  -5  395.26   17.10
   8   1  -5  383.66   17.80
   8   1  -5  393.06   18.50
  -8  -1   5  394.86   18.60
  -8  -1   5  388.46   22.30
  -8  -1   5  406.96   36.00
  -8  -1   5  406.56   20.90
   7   1  -5  136.19   28.30
   7   1  -5  139.59   10.30
   7   1  -5  135.29    9.20
   7   1  -5  161.68   11.30
   7   1  -5  149.19    9.90
  -7  -1   5  176.08   22.60
  -7  -1   5  152.48   11.70
  -7  -1   5  140.19   10.40
  -7  -1   5  160.38   13.30
   6   1  -5 1238.68   44.20
   6   1  -5 1001.90   44.00
   6   1  -5 1235.98   57.79
   6   1  -5 1344.47   41.30
  -6  -1   5 1304.17   43.50
  -6  -1   5 1367.06   42.60
  -6  -1   5 1030.00   58.69
  -6  -1   5 1290.87   41.00
   5   1  -5  498.65   18.10
   5   1  -5  494.35   17.50
   5   1  -5  502.35   30.00
   5   1  -5  508.65   18.60
   5   1  -5  506.35   19.00
  -5  -1   5  459.05   18.00
  -5  -1   5  498.85   19.90
  -5  -1   5  482.05   28.30
  -5  -1   5  515.95   19.30
   4   1  -5 1730.73   63.89
   4   1  -5 1624.44   53.39
   4   1  -5 1702.73   53.79
   4   1  -5 1748.33   54.19
   4   1  -5 1705.43   52.99
  -4  -1   5 1685.83   54.09
  -4  -1   5 1672.43   62.79
  -4  -1   5 1729.33   53.89
  -4  -1   5 1697.03   54.89
   3   1  -5  198.48   14.30
   3   1  -5  198.68    8.50
   3   1  -5  207.28    7.70
   3   1  -5  209.78    8.60
   3   1  -5  208.38    8.10
  -3  -1   5  210.98    9.20
  -3  -1   5  216.38   14.10
  -3  -1   5  216.28    8.60
  -3  -1   5  212.48    8.60
   2   1  -5 1536.55   51.19
   2   1  -5 1421.56   45.00
   2   1  -5 1466.85   45.50
   2   1  -5 1410.66   44.80
   2   1  -5 1382.76   44.50
  -2  -1   5 1404.66   45.10
  -2  -1   5 1488.65   45.50
  -2  -1   5 1454.05   44.60
  -2  -1   5 1486.15   50.49
  -2  -1   5 1494.45   45.70
   1   1  -5  769.72   24.70
   1   1  -5  809.52   28.40
   1   1  -5  748.13   23.90
  -1  -1   5  765.92   24.60
  -1  -1   5  798.92   24.80
  -1  -1   5  787.82   27.80
  -1  -1   5  763.72   23.90
   0  -1   5 3630.94  112.19
   1  -1   5 2114.69   66.99
   2  -1   5 7517.95  231.28
  -3   1  -5  358.86   11.90
  -3   1  -5  333.07   11.80
   3  -1   5  336.37   12.20
   3  -1   5  317.87   16.60
   3  -1   5  330.77   17.10
   3  -1   5  330.97   12.50
   3  -1   5  312.27   11.60
  -4   1  -5 4420.36  135.39
   4  -1   5 4557.04  135.09
   4  -1   5 4451.05  136.09
   4  -1   5 4268.87  135.49
  -5   1  -5   17.90    3.40
  -5   1  -5   16.10    3.20
   5  -1   5   12.50    3.30
   5  -1   5   13.30    7.60
   5  -1   5   18.60    2.90
   5  -1   5   14.70    3.70
  -6   1  -5  699.73   25.00
  -6   1  -5  673.53   25.00
   6  -1   5  647.74   24.50
   6  -1   5  670.73   36.10
  -7   1  -5   11.50    5.90
  -7   1  -5   15.70    5.30
   7  -1   5   16.00    4.50
   7  -1   5    6.50    4.00
   7  -1   5   11.30    5.00
   7  -1   5   16.60   11.40
   7  -1   5    8.10    4.70
  -8   1  -5   43.60    8.20
  -8   1  -5   34.10    7.60
   8  -1   5   33.40    6.20
   8  -1   5   34.50   17.00
   8  -1   5   40.20    7.60
   8  -1   5   45.60    6.70
   8  -1   5   28.20    5.60
   8  -1   5   29.90   18.40
   8   0  -5  142.39   27.70
   8   0  -5  104.59    9.90
   8   0  -5  117.29   11.40
   8   0  -5  116.89    9.60
   8   0  -5  112.39   10.30
  -8   0   5   75.79   11.80
  -8   0   5  120.89   10.70
  -8   0   5  121.09   11.30
  -8   0   5  131.79   23.60
   7   0  -5   11.20    4.80
   7   0  -5   12.00    4.20
   7   0  -5   24.20   14.70
   7   0  -5   12.80    4.30
   7   0  -5   10.60    4.00
  -7   0   5   17.20    6.50
  -7   0   5   12.20    4.80
  -7   0   5   11.30    5.40
  -7   0   5    3.80   10.40
   6   0  -5  522.15   22.70
   6   0  -5  461.95   18.10
   6   0  -5  499.15   19.20
  -6   0   5  465.35   18.30
  -6   0   5  477.45   20.40
  -6   0   5  472.55   33.30
   5   0  -5  629.04   32.30
   5   0  -5  623.54   21.70
   5   0  -5  622.34   22.10
   5   0  -5  635.64   21.20
   5   0  -5  593.14   21.30
  -5   0   5  608.54   22.80
  -5   0   5  611.74   22.20
  -5   0   5  598.64   21.60
  -5   0   5  617.84   31.20
   4   0  -5 3093.59   97.29
   4   0  -5 3197.08   97.39
   4   0  -5 3295.67  106.99
   4   0  -5 3110.29   96.69
   4   0  -5 3058.29   96.89
  -4   0   5 3183.28   97.39
  -4   0   5 3071.39   97.59
  -4   0   5 3137.79   98.09
  -4   0   5 3226.58  105.89
  -4   0   5 3195.78   96.79
   3   0  -5  799.02   26.20
   3   0  -5  804.12   26.00
   3   0  -5  771.62   25.90
   3   0  -5  827.62   26.70
   3   0  -5  835.42   32.70
  -3   0   5  811.62   26.90
  -3   0   5  823.22   32.20
  -3   0   5  828.32   26.70
  -3   0   5  825.82   26.50
  -3   0   5  827.22   26.10
   1   0  -5    9.00    2.10
  -1   0   5    5.20    1.60
  -1   0   5    7.10    0.80
  -1   0   5   11.00    1.50
  -1   0   5   10.00    1.00
  -1   0   5   17.10    1.30
   1   0   5  240.68    8.00
   1   0   5  253.97    8.10
   1   0   5  252.37   10.00
  -2   0  -5   33.00    4.40
  -2   0  -5   32.00    1.60
   2   0   5   34.10    2.70
   2   0   5   30.80    2.30
   2   0   5   39.30    5.10
  -3   0  -5   83.29    4.40
  -3   0  -5   83.19    4.10
  -3   0  -5   78.19    8.10
   3   0   5   85.69    4.50
   3   0   5   75.89    4.80
   3   0   5   79.99    3.20
   3   0   5   72.59    8.30
  -4   0  -5   25.20    6.60
  -4   0  -5   23.00    3.90
  -4   0  -5   29.30    3.70
   4   0   5   29.90    3.30
   4   0   5   34.70    2.20
   4   0   5   24.60    7.00
   4   0   5   24.30    4.20
  -5   0  -5  401.96   24.30
  -5   0  -5  424.46   15.80
  -5   0  -5  403.56   15.90
   5   0   5  395.46   16.70
   5   0   5  378.36   13.40
   5   0   5  389.56   15.70
   5   0   5  416.66   25.30
  -6   0  -5  179.98   18.10
  -6   0  -5  181.98   10.50
  -6   0  -5  202.38   10.40
   6   0   5  178.18   11.70
   6   0   5  194.98    9.60
   6   0   5  180.58   10.30
   6   0   5  191.98   19.40
   6   0   5  198.38    7.90
  -7   0  -5  135.29   23.60
  -7   0  -5  155.38   11.30
   7   0   5  145.39   10.70
   7   0   5  148.29    9.40
   7   0   5  147.19   12.30
   7   0   5  142.39    7.20
   7   0   5  152.18   25.20
  -8   0  -5   94.19   11.20
  -8   0  -5   -8.80   17.70
  -8   0  -5   89.19   12.10
   8   0   5   94.59    6.70
   8   0   5   88.99   10.20
   8   0   5   92.69   12.80
   8   0   5  114.49   25.20
   8   0   5   84.59   10.80
   8  -1  -5  684.13   25.70
   8  -1  -5  707.23   27.60
   8  -1  -5  666.53   26.30
   8  -1  -5  697.13   48.80
   8  -1  -5  682.13   26.20
  -8   1   5  715.53   30.20
  -8   1   5  651.33   25.90
  -8   1   5  729.33   29.00
   7  -1  -5   68.19    9.20
   7  -1  -5   78.59    6.50
   7  -1  -5   66.49   15.50
   7  -1  -5   75.19    7.10
   7  -1  -5   56.69    7.60
  -7   1   5   68.69    8.70
  -7   1   5   63.09    7.70
  -7   1   5   78.29    8.90
   6  -1  -5 1335.87   43.40
   6  -1  -5 1351.06   44.40
   6  -1  -5 1292.47   43.40
  -6   1   5 1314.07   43.60
  -6   1   5 1269.37   43.60
  -6   1   5 1435.06   45.70
  -6   1   5 1320.07   45.50
   5  -1  -5   57.49    4.70
   5  -1  -5   52.29    4.90
   5  -1  -5   52.09    4.50
   5  -1  -5   56.09   12.20
  -5   1   5   51.19    4.70
  -5   1   5   58.69    4.80
  -5   1   5   51.19    9.90
  -5   1   5   52.89    5.50
  -5   1   5   53.19    5.40
   4  -1  -5  973.30   32.80
   4  -1  -5 1028.20   32.90
   4  -1  -5 1013.00   33.20
   4  -1  -5 1056.89   41.40
   4  -1  -5 1021.00   32.90
  -4   1   5 1005.70   40.40
  -4   1   5 1058.39   33.10
  -4   1   5  999.80   33.40
  -4   1   5 1054.99   34.20
  -4   1   5 1043.80   33.80
   3  -1  -5  617.24   20.10
   3  -1  -5  598.94   25.60
   3  -1  -5  614.44   19.90
   3  -1  -5  612.54   19.90
   3  -1  -5  583.44   19.70
  -3   1   5  605.74   20.40
  -3   1   5  619.64   20.80
  -3   1   5  614.34   20.60
  -3   1   5  620.84   20.20
   2  -1  -5 1005.90   32.60
   2  -1  -5 1114.09   33.60
   2  -1  -5 1071.19   37.20
   2  -1  -5 1096.29   37.40
   2  -1  -5 1046.00   32.60
   2  -1  -5 1102.59   33.20
  -2   1   5 1086.19   34.00
  -2   1   5 1072.19   33.60
  -2   1   5 1072.59   33.70
  -2   1   5 1049.59   33.50
   1  -1  -5 2632.24   81.89
   1  -1  -5 2617.64   82.09
   1  -1  -5 2667.73   80.29
  -1   1   5 2620.24   80.29
   0  -1  -5 2148.29   63.79
   0   1   5 2004.80   63.39
   0   1   5 1968.10   62.39
  -1  -1  -5 3464.45  109.99
   1   1   5 3609.64  110.69
  -2  -1  -5 1244.18   39.20
  -2  -1  -5 1327.67   45.10
  -2  -1  -5 1188.68   39.30
   2   1   5 1350.46   45.60
   2   1   5 1258.77   39.90
   2   1   5 1309.17   40.50
  -3  -1  -5 2494.05   78.49
  -3  -1  -5 2597.74   85.99
  -3  -1  -5 2535.85   78.19
   3   1   5 2680.03   86.69
   3   1   5 2478.55   78.59
   3   1   5 2470.55   77.59
   3   1   5 2576.34   79.29
  -4  -1  -5  168.98   15.30
  -4  -1  -5  214.98    9.70
  -4  -1  -5  226.48    9.40
   4   1   5  221.68    9.60
   4   1   5  234.78    8.40
   4   1   5  237.68   10.60
   4   1   5  225.78   17.20
  -5  -1  -5 1801.22   56.09
  -5  -1  -5 1762.42   56.59
  -5  -1  -5 1696.83   67.29
   5   1   5 1780.72   57.49
   5   1   5 1695.83   55.99
   5   1   5 1699.73   68.09
   5   1   5 1779.82   54.39
  -6  -1  -5  108.09    8.80
  -6  -1  -5   86.49   17.90
  -6  -1  -5   97.89    9.20
   6   1   5   87.59   18.60
   6   1   5  104.29    6.10
   6   1   5   84.09    7.90
   6   1   5  105.99    9.70
  -7  -1  -5  744.53   26.60
  -7  -1  -5  641.14   26.50
  -7  -1  -5  656.83   41.80
   7   1   5  674.03   23.10
   7   1   5  670.23   25.50
   7   1   5  660.73   44.00
   7   1   5  662.13   27.40
   7   1   5  645.14   25.90
  -8  -1  -5  134.49   12.60
   8   1   5  139.19    8.90
   8   1   5  122.59   10.70
   8  -2  -5  185.58   11.80
   8  -2  -5  159.58   31.80
   8  -2  -5  161.88   12.20
   8  -2  -5  169.28   11.90
   8  -2  -5  178.18   10.70
   8  -2  -5  176.28   28.70
  -8   2   5  170.38   11.10
  -8   2   5  175.58   15.40
  -8   2   5  191.48   14.20
   7  -2  -5  274.37   24.60
   7  -2  -5  322.27   27.30
   7  -2  -5  328.67   20.20
   7  -2  -5  314.97   14.10
   7  -2  -5  308.47   13.90
   7  -2  -5  291.27   13.70
  -7   2   5  306.07   14.40
  -7   2   5  317.77   16.80
  -7   2   5  331.67   15.90
  -7   2   5  320.27   14.40
   6  -2  -5  802.42   28.40
   6  -2  -5  786.82   42.10
   6  -2  -5  829.02   29.00
   6  -2  -5  816.12   40.40
  -6   2   5  794.92   28.70
  -6   2   5  945.11   32.60
  -6   2   5  814.52   30.20
  -6   2   5  836.82   28.60
   5  -2  -5 1034.00   34.70
   5  -2  -5 1124.59   34.80
   5  -2  -5 1083.69   45.50
   5  -2  -5 1062.09   34.70
   5  -2  -5 1050.19   35.00
   5  -2  -5 1033.00   44.50
  -5   2   5 1082.89   35.90
  -5   2   5 1050.69   34.80
  -5   2   5 1034.50   35.10
  -5   2   5 1052.79   36.20
   4  -2  -5 1263.67   48.10
   4  -2  -5 1210.68   39.60
   4  -2  -5 1170.88   39.40
   4  -2  -5 1281.27   39.60
   4  -2  -5 1257.97   39.70
  -4   2   5 1213.68   40.10
  -4   2   5 1280.37   40.50
  -4   2   5 1268.57   39.90
  -4   2   5 1258.17   40.80
   3  -2  -5 2779.02   85.79
   3  -2  -5 2864.21   92.39
   3  -2  -5 2853.61   92.29
  -3   2   5 2753.02   86.29
  -3   2   5 2768.92   86.09
  -3   2   5 2763.92   85.89
  -3   2   5 2771.82   86.19
   2  -2  -5  378.96   17.30
   2  -2  -5  373.36   12.50
   2  -2  -5  374.36   17.40
   2  -2  -5  395.66   12.60
   2  -2  -5  409.76   13.50
  -2   2   5  388.06   13.40
  -2   2   5  381.56   13.50
  -2   2   5  410.66   13.20
  -2   2   5  396.86   13.60
   1  -2  -5 6000.30  190.78
  -1   2   5 6351.36  190.58
   0  -2  -5  180.08   10.60
   0   2   5  170.88    6.80
   0   2   5  177.38   10.10
   0   2   5  190.48    7.10
  -1  -2  -5 5684.73  178.88
   1   2   5 5770.92  178.88
  -2  -2  -5  860.91   28.90
  -2  -2  -5  913.41   35.80
  -2  -2  -5  916.31   28.80
   2   2   5  873.11   29.20
   2   2   5  974.20   36.60
   2   2   5  934.51   30.20
  -3  -2  -5 1078.19   43.50
  -3  -2  -5 1057.39   35.50
  -3  -2  -5 1125.59   35.30
   3   2   5 1106.49   44.40
   3   2   5 1083.69   35.50
   3   2   5 1139.19   36.70
   3   2   5 1111.49   34.90
  -4  -2  -5  861.71   30.10
  -4  -2  -5  905.31   29.70
   4   2   5  867.21   29.70
   4   2   5  799.72   44.60
   4   2   5  922.61   31.10
   4   2   5  923.41   28.70
  -5  -2  -5   10.70    3.60
  -5  -2  -5   14.00    4.00
  -5  -2  -5   16.80    9.70
   5   2   5   15.70   10.20
   5   2   5   12.90    3.20
   5   2   5   15.70    4.80
   5   2   5   11.60    3.80
  -6  -2  -5   83.59   10.90
  -6  -2  -5  128.59   21.60
   6   2   5   83.99   18.80
   6   2   5   98.49    6.80
   6   2   5  103.69   10.70
   6   2   5   83.89    8.60
  -7  -2  -5   38.80    6.90
  -7  -2  -5   40.30    8.60
  -7  -2  -5   -8.80   15.90
   7   2   5   49.10    6.90
   7   2   5   40.30    8.60
   7   2   5   40.50    7.70
   7   2   5   45.80   20.30
   8  -3  -5   50.39    8.90
   8  -3  -5   52.89    9.60
   8  -3  -5   51.69    7.30
   8  -3  -5   32.00   17.30
   8  -3  -5   51.29   18.10
  -8   3   5   47.70    9.20
  -8   3   5   51.79    8.40
  -8   3   5   53.39    6.60
   7  -3  -5  355.06   32.30
   7  -3  -5  374.56   30.50
   7  -3  -5  377.66   15.40
   7  -3  -5  341.67   15.50
  -7   3   5  351.86   16.40
  -7   3   5  353.46   17.80
  -7   3   5  383.86   17.80
  -7   3   5  369.76   15.80
   6  -3  -5   14.50    3.60
   6  -3  -5   20.00    3.80
   6  -3  -5   11.60    9.10
   6  -3  -5   15.20    3.70
   6  -3  -5    9.50   10.60
  -6   3   5   12.80    3.40
  -6   3   5   17.00    3.60
  -6   3   5   11.50    4.80
  -6   3   5   16.50    4.70
   5  -3  -5 2458.35   86.49
   5  -3  -5 2402.96   74.99
   5  -3  -5 2385.36   74.79
   5  -3  -5 2353.96   85.89
   5  -3  -5 2264.37   74.49
  -5   3   5 2379.86   76.19
  -5   3   5 2386.36   75.09
  -5   3   5 2455.95   75.79
  -5   3   5 2376.66   74.89
   4  -3  -5  369.76   21.30
   4  -3  -5  363.56   13.30
   4  -3  -5  332.27   13.10
   4  -3  -5  365.26   13.30
  -4   3   5  355.46   13.50
  -4   3   5  353.56   13.70
  -4   3   5  346.87   14.40
  -4   3   5  361.76   14.20
   3  -3  -5 3862.81  124.09
   3  -3  -5 3747.53  115.39
   3  -3  -5 3875.21  115.99
  -3   3   5 3866.01  116.69
  -3   3   5 3643.44  115.99
  -3   3   5 3761.12  115.69
  -3   3   5 3757.92  116.39
   2  -3  -5 1377.76   45.00
   2  -3  -5 1515.15   45.80
   2  -3  -5 1443.86   44.90
   2  -3  -5 1426.66   52.09
  -2   3   5 1430.36   46.00
  -2   3   5 1479.95   45.40
  -2   3   5 1468.05   45.90
  -2   3   5 1420.46   46.00
  -2   3   5 1530.75   52.39
   1  -3  -5 1704.33   53.89
   1  -3  -5 1789.82   61.39
   1  -3  -5 1774.12   53.89
  -1   3   5 1710.23   54.69
  -1   3   5 1783.02   54.99
  -1   3   5 1843.52   60.79
  -1   3   5 1723.33   54.79
   0  -3  -5  215.58    8.00
   0  -3  -5  216.88    7.80
   0  -3  -5  221.18   14.40
   0   3   5  232.08    8.70
   0   3   5  228.98    9.40
   0   3   5  231.28    8.80
   0   3   5  219.28   13.50
  -1  -3  -5 1001.70   32.10
  -1  -3  -5 1040.80   40.80
  -1  -3  -5  987.40   32.30
   1   3   5 1057.29   40.20
   1   3   5 1052.99   33.70
   1   3   5  998.80   32.60
  -2  -3  -5  856.51   27.90
  -2  -3  -5  833.82   28.20
  -2  -3  -5  848.02   36.90
   2   3   5  862.21   36.80
   2   3   5  887.51   29.50
   2   3   5  897.01   28.20
   2   3   5  841.42   28.30
  -3  -3  -5 2164.88   68.79
  -3  -3  -5 2163.48   79.99
  -3  -3  -5 2109.19   69.19
   3   3   5 2315.57   80.99
   3   3   5 2276.57   70.59
   3   3   5 2284.47   68.59
   3   3   5 2117.19   68.99
  -4  -3  -5 1560.54   49.60
  -4  -3  -5 1482.15   49.99
   4   3   5 1593.84   64.89
   4   3   5 1594.04   48.80
   4   3   5 1489.65   49.70
   4   3   5 1472.35   51.59
  -5  -3  -5 2351.46   73.79
  -5  -3  -5 2201.18   89.09
  -5  -3  -5 2219.38   73.89
   5   3   5 2403.66   75.79
   5   3   5 2352.56   90.49
   5   3   5 2397.46   72.49
   5   3   5 2224.08   73.69
  -6  -3  -5  511.85   22.40
  -6  -3  -5  511.35   37.80
   6   3   5  523.15   40.00
   6   3   5  540.55   19.80
   6   3   5  506.55   21.50
   6   3   5  520.85   23.10
  -7  -3  -5  664.43   26.10
  -7  -3  -5  610.24   26.70
   7   3   5  625.84   28.20
   7   3   5  571.64   24.80
   7   3   5  629.64   23.60
   8  -4  -5  162.78   10.60
   8  -4  -5  170.58   11.80
   8  -4  -5  181.38   13.00
   8  -4  -5  179.98   29.70
  -8   4   5  155.08   11.30
  -8   4   5  166.38   11.50
  -8   4   5  169.88   12.80
  -8   4   5  188.78   15.70
   7  -4  -5  339.77   30.30
   7  -4  -5  332.37   14.60
   7  -4  -5  326.77   32.30
   7  -4  -5  317.77   15.00
   7  -4  -5  333.57   15.30
  -7   4   5  319.27   15.70
  -7   4   5  320.37   18.00
  -7   4   5  336.27   16.40
  -7   4   5  332.07   15.10
   6  -4  -5  310.97   26.50
   6  -4  -5  299.87   13.20
   6  -4  -5  299.17   12.80
   6  -4  -5  306.77   25.10
   6  -4  -5  289.97   13.10
  -6   4   5  271.77   13.10
  -6   4   5  313.87   15.00
  -6   4   5  292.37   14.70
  -6   4   5  291.57   13.60
   5  -4  -5  205.78    9.70
   5  -4  -5  225.88   20.40
   5  -4  -5  194.58   18.80
   5  -4  -5  207.98    9.70
  -5   4   5  204.18   10.00
  -5   4   5  221.48   13.30
  -5   4   5  202.08   10.00
   4  -4  -5   14.40    3.10
   4  -4  -5   20.50    3.90
   4  -4  -5   23.20    3.10
   4  -4  -5   13.50    7.10
  -4   4   5   16.70    3.70
  -4   4   5   13.20    3.10
  -4   4   5   17.20    3.90
   3  -4  -5 1012.90   31.90
   3  -4  -5  955.40   41.00
   3  -4  -5 1027.10   32.30
   3  -4  -5  940.51   32.00
  -3   4   5  995.20   33.20
  -3   4   5  982.80   32.50
  -3   4   5  957.80   32.10
  -3   4   5 1019.20   41.50
  -3   4   5  996.90   33.20
   2  -4  -5  907.21   30.20
   2  -4  -5  943.81   30.50
   2  -4  -5  925.61   38.80
  -2   4   5  921.11   31.10
  -2   4   5  919.61   30.70
  -2   4   5  973.00   38.80
  -2   4   5  953.30   31.30
   1  -4  -5 3011.90   97.49
   1  -4  -5 3247.07   97.29
   1  -4  -5 3237.88  107.49
  -1   4   5 3353.86   98.99
  -1   4   5 3217.08   98.29
  -1   4   5 3049.89   97.99
   0  -4  -5  976.60   32.00
   0  -4  -5 1011.00   31.70
   0  -4  -5  984.50   41.80
   0   4   5 1027.00   33.50
   0   4   5 1010.80   40.60
   0   4   5 1001.10   32.50
   0   4   5  949.21   32.20
  -1  -4  -5 2828.62   91.29
  -1  -4  -5 2941.31   90.99
  -1  -4  -5 3056.89  103.09
   1   4   5 2847.71   91.39
   1   4   5 3037.90   92.99
   1   4   5 2879.11   91.59
   1   4   5 3153.78  102.09
  -2  -4  -5  487.65   17.20
  -2  -4  -5  456.65   17.50
  -2  -4  -5  458.35   27.40
   2   4   5  481.45   17.50
   2   4   5  483.55   19.10
   2   4   5  471.65   17.00
   2   4   5  499.75   27.40
  -3  -4  -5  863.51   30.20
  -3  -4  -5  892.91   29.80
   3   4   5  889.61   29.30
   3   4   5  837.62   29.90
   3   4   5  885.71   31.60
  -4  -4  -5  296.37   14.00
  -4  -4  -5  312.47   13.70
  -4  -4  -5  286.67   26.00
   4   4   5  298.17   13.70
   4   4   5  313.57   26.90
   4   4   5  310.37   15.60
  -5  -4  -5  203.08   12.90
  -5  -4  -5  220.18   24.60
   5   4   5  231.18   11.40
   5   4   5  210.08   12.50
   5   4   5  230.18   13.70
   5   4   5  222.18   28.40
  -6  -4  -5  145.39   11.10
  -6  -4  -5  127.19   13.20
  -6  -4  -5    5.50   19.10
   6   4   5  129.89   13.80
   6   4   5  128.69   10.30
   6   4   5  136.69   26.70
   6   4   5  127.09   10.10
   8  -5  -5   19.50   23.40
   8  -5  -5   13.00    7.30
   8  -5  -5   23.20    6.30
  -8   5   5   29.30    7.70
  -8   5   5   30.70    8.70
   7  -5  -5  471.85   20.10
   7  -5  -5  515.25   20.50
   7  -5  -5  457.55   36.60
   7  -5  -5  535.75   41.30
   7  -5  -5  483.45   19.30
  -7   5   5  485.55   23.20
  -7   5   5  506.25   22.50
  -7   5   5  447.76   19.90
  -7   5   5  450.95   19.90
   6  -5  -5   61.09    7.00
   6  -5  -5   77.29   16.90
   6  -5  -5   58.89    7.00
   6  -5  -5   60.89   16.60
   6  -5  -5   58.79    7.50
  -6   5   5   60.69    8.40
  -6   5   5   65.09    7.10
  -6   5   5   61.69    8.90
  -6   5   5   54.59    8.10
   5  -5  -5 1057.19   34.20
   5  -5  -5  972.20   34.30
   5  -5  -5 1038.00   48.00
   5  -5  -5 1017.40   47.20
   5  -5  -5 1042.50   34.10
  -5   5   5  999.50   34.60
  -5   5   5 1000.20   36.30
  -5   5   5  949.51   34.70
  -5   5   5 1032.40   35.90
   4  -5  -5   68.99    6.20
   4  -5  -5   83.09   14.40
   4  -5  -5   76.29    5.80
  -4   5   5   62.99   12.90
  -4   5   5   63.49    5.50
  -4   5   5   65.19    6.60
  -4   5   5   72.69    7.40
   3  -5  -5  809.32   29.00
   3  -5  -5  906.61   28.90
  -3   5   5  872.61   30.50
  -3   5   5  886.31   30.50
   2  -5  -5  208.08    9.30
   2  -5  -5  216.08    9.10
   2  -5  -5  213.88   18.20
  -2   5   5  205.28   10.20
  -2   5   5  219.88   10.80
  -2   5   5  245.88   18.70
  -2   5   5  207.58    9.90
   1  -5  -5  834.82   39.20
   1  -5  -5  806.62   28.30
   1  -5  -5  876.31   27.90
  -1   5   5  835.02   28.50
  -1   5   5  874.81   29.90
  -1   5   5  877.41   38.70
  -1   5   5  835.12   29.00
   0  -5  -5  351.26   13.70
   0  -5  -5  368.26   13.20
   0  -5  -5  345.27   24.00
   0   5   5  339.17   22.90
   0   5   5  337.37   13.30
   0   5   5  356.76   15.20
   0   5   5  333.87   13.90
  -1  -5  -5  959.40   48.60
  -1  -5  -5 1114.29   37.20
  -1  -5  -5 1201.38   36.90
   1   5   5 1123.79   36.90
   1   5   5 1155.18   49.10
   1   5   5 1187.18   39.20
   1   5   5 1136.29   37.50
  -2  -5  -5  114.09    7.20
  -2  -5  -5  107.49    7.70
   2   5   5   97.69   11.00
   2   5   5  109.89    7.30
  -3  -5  -5  557.44   21.90
  -3  -5  -5  582.34   21.40
  -3  -5  -5  544.75   35.80
   3   5   5  585.94   23.70
   3   5   5  558.74   35.40
   3   5   5  574.54   20.90
  -4  -5  -5   44.40   15.90
   4   5   5   41.30    7.40
   4   5   5   38.10    5.90
   4   5   5   43.80   15.90
  -5  -5  -5   16.00    6.10
  -5  -5  -5  -16.30   17.50
  -5  -5  -5   19.10    6.20
   5   5   5   18.20    6.10
   5   5   5   12.30    6.10
   5   5   5   13.10    4.70
   5   5   5    2.60   19.10
   7  -6  -5  201.38   34.60
   7  -6  -5  181.78   10.60
   7  -6  -5  197.38   13.50
   7  -6  -5    1.30   18.10
   7  -6  -5  200.48   11.60
  -7   6   5  198.98   14.80
  -7   6   5  192.48   14.70
  -7   6   5  179.68   13.10
  -7   6   5  185.58   12.90
   6  -6  -5  293.67   13.50
   6  -6  -5  276.07   14.40
   6  -6  -5  288.87   31.30
   6  -6  -5  278.67   12.90
   6  -6  -5  280.87   29.70
  -6   6   5  274.27   15.10
  -6   6   5  273.07   16.80
  -6   6   5  269.87   13.90
  -6   6   5  264.87   13.80
   5  -6  -5  787.12   28.80
   5  -6  -5  717.43   41.90
   5  -6  -5  766.22   26.60
  -5   6   5  735.23   27.20
  -5   6   5  735.23   27.30
  -5   6   5  745.03   29.50
  -5   6   5  752.12   28.70
   4  -6  -5  114.49   19.30
   4  -6  -5  132.09    7.60
   4  -6  -5  124.69    8.10
   4  -6  -5  125.49    7.60
  -4   6   5  130.09   10.10
  -4   6   5  117.59   10.00
  -4   6   5  123.99    8.20
  -4   6   5  134.59   19.70
  -4   6   5  121.69    8.40
   3  -6  -5 1098.99   52.09
   3  -6  -5 1135.49   39.30
   3  -6  -5 1240.18   38.90
   3  -6  -5 1228.58   39.30
  -3   6   5 1194.18   39.60
  -3   6   5 1169.48   40.90
  -3   6   5 1234.38   53.19
   2  -6  -5    3.20    2.90
   2  -6  -5    5.70    2.90
  -2   6   5    3.90    2.90
  -2   6   5    3.80    9.40
  -2   6   5    7.50    4.30
   1  -6  -5  244.48   11.20
   1  -6  -5  266.17   11.00
  -1   6   5  245.38   11.10
  -1   6   5  252.57   13.70
   0  -6  -5   38.30    5.90
   0  -6  -5   36.70    4.60
   0   6   5   35.40    6.10
   0   6   5   34.30    6.00
   0   6   5   36.20    4.90
  -1  -6  -5   24.00    4.10
  -1  -6  -5   24.00    4.50
   1   6   5   22.50    3.90
   1   6   5   15.80    4.30
   1   6   5   20.20    3.60
   1   6   5   30.50   12.70
   1   6   5   20.20    5.60
  -2  -6  -5  765.62   25.80
  -2  -6  -5  647.44   40.30
  -2  -6  -5  695.93   26.00
   2   6   5  728.83   28.50
   2   6   5  678.63   26.20
   2   6   5  755.92   41.80
   2   6   5  733.03   25.80
   2   6   5  649.83   24.90
  -3  -6  -5    5.80   16.00
  -3  -6  -5    3.30    4.60
   3   6   5    9.20    4.80
   3   6   5    4.40    6.00
   3   6   5    5.50   11.60
   3   6   5   -1.10    4.40
  -4  -6  -5  715.83   28.80
  -4  -6  -5  762.12   27.60
   4   6   5  693.73   28.20
   4   6   5  748.23   31.00
   4   6   5  710.33   27.00
   6  -7  -5    6.30   14.40
   6  -7  -5   -4.40   16.10
   6  -7  -5    4.20    4.10
   6  -7  -5    5.50    5.10
   6  -7  -5    9.90    5.80
  -6   7   5   14.30    6.80
  -6   7   5    1.90    6.80
  -6   7   5  -12.20    5.90
  -6   7   5   12.50    7.80
   5  -7  -5   -2.60    4.40
   5  -7  -5    4.70    4.50
   5  -7  -5   -9.90   14.60
   5  -7  -5   -1.80    4.40
  -5   7   5    1.10    4.40
  -5   7   5    6.80    6.40
  -5   7   5    5.00    5.00
  -5   7   5   12.40    5.60
   4  -7  -5  331.77   15.60
   4  -7  -5  342.57   16.10
   4  -7  -5  349.27   14.80
   4  -7  -5  351.86   31.10
  -4   7   5  387.46   32.10
  -4   7   5  365.96   17.90
  -4   7   5  309.77   14.90
  -4   7   5  339.17   17.80
  -4   7   5  335.27   15.30
   3  -7  -5    1.20    3.60
   3  -7  -5   -4.60   12.20
  -3   7   5    5.30    5.20
  -3   7   5    1.60    5.40
  -3   7   5   -4.40   12.50
  -3   7   5   -1.40    3.70
   2  -7  -5 1421.36   43.70
   2  -7  -5 1239.48   60.79
   2  -7  -5 1259.97   44.00
  -2   7   5 1377.56   46.70
  -2   7   5 1306.47   45.50
  -2   7   5 1266.07   43.90
  -2   7   5 1374.16   60.49
   1  -7  -5  243.18   11.10
   1  -7  -5  224.88   12.00
   1  -7  -5  192.38   27.30
  -1   7   5  246.88   24.00
  -1   7   5  233.48   13.30
  -1   7   5  233.68   14.40
  -1   7   5  225.78   12.00
   0  -7  -5  798.72   48.40
   0  -7  -5  906.11   29.70
   0  -7  -5  807.72   30.10
   0   7   5  868.11   32.90
   0   7   5  824.62   29.70
   0   7   5  856.71   45.80
   0   7   5  820.02   31.00
  -1  -7  -5  428.96   36.60
   1   7   5  466.95   35.10
   1   7   5  457.75   18.30
   1   7   5  436.16   17.90
   1   7   5  436.76   21.40
   1   7   5  448.56   19.60
  -2  -7  -5   22.30   18.90
  -2  -7  -5  106.09   10.60
   2   7   5  108.29   10.30
   2   7   5  112.29   13.10
   2   7   5  113.39   10.10
   2   7   5  142.79   27.70
   2   7   5   97.09    8.20
  -3  -7  -5   81.49   10.40
  -3  -7  -5   74.59   11.70
   3   7   5   64.89   10.20
   3   7   5   77.59   10.40
   3   7   5   64.29   26.90
   3   7   5   71.69   11.30
   3   7   5   87.59    9.40
   5  -8  -5  163.28   12.80
   5  -8  -5  183.48   11.90
  -5   8   5  141.19   12.10
  -5   8   5  182.38   15.20
  -5   8   5  166.48   12.50
  -5   8   5  158.88   15.20
   4  -8  -5    8.80   18.70
   4  -8  -5  114.39   11.70
  -4   8   5  118.19   13.20
  -4   8   5  105.99   10.90
  -4   8   5  115.19   24.40
  -4   8   5  123.79   13.60
  -4   8   5  116.39   11.00
   3  -8  -5  110.19    8.30
   3  -8  -5  104.59    9.60
   3  -8  -5    3.10   14.00
  -3   8   5   98.39    9.00
  -3   8   5   92.19   12.10
  -3   8   5   97.29   21.40
  -3   8   5  103.19   13.00
   2  -8  -5  107.89    9.60
   2  -8  -5  135.89   10.00
   2  -8  -5   43.50   18.90
  -2   8   5  123.39   13.10
  -2   8   5  116.39   22.00
  -2   8   5  108.59    9.20
  -2   8   5  111.39   11.70
   1  -8  -5    6.80    4.60
   1  -8  -5    6.40    5.80
   1  -8  -5    6.20   17.70
  -1   8   5    8.40   16.80
  -1   8   5    7.60    4.40
  -1   8   5    4.70    6.00
  -1   8   5    1.70    7.10
   0  -8  -5  304.37   14.50
   0  -8  -5  279.17   15.70
   0   8   5  293.67   17.30
   0   8   5  286.87   16.60
   0   8   5  279.17   15.10
   0   8   5  322.27   34.70
   0   8   5  271.57   13.90
  -1  -8  -5    6.30    5.60
  -1  -8  -5    3.30    6.70
   1   8   5    4.70    4.70
   1   8   5   -0.50    5.40
   1   8   5    3.70    6.30
   1   8   5    5.00    7.80
  -1   9  -6   21.60    3.30
  -1   9  -6   25.10    8.10
  -1   9  -6   33.70   24.10
  -1   9  -6   24.20    8.50
  -1   9  -6   36.00    6.90
   1  -9   6   58.09   25.90
  -2   9  -6  729.93   27.10
  -2   9  -6  717.83   24.00
  -2   9  -6  764.82   54.29
  -2   9  -6  737.73   30.80
  -2   9  -6  677.03   30.00
   2  -9   6  703.13   54.29
   2  -9   6  684.63   30.60
  -3   9  -6    9.10    5.50
  -3   9  -6   -2.90    7.30
  -3   9  -6    9.50    3.50
  -3   9  -6    8.50   22.90
  -3   9  -6    3.60    8.20
   3  -9   6   -0.10   19.10
   2   8  -6  452.85   16.30
   2   8  -6  486.35   23.20
   2   8  -6  468.75   22.10
   2   8  -6  476.35   47.50
   2   8  -6  470.25   20.30
  -2  -8   6  439.36   23.70
  -2  -8   6  483.75   47.50
   1   8  -6   -6.40   20.50
   1   8  -6   11.00    2.70
   1   8  -6   11.30    6.60
   1   8  -6   14.50    5.20
   1   8  -6   19.90    7.20
  -1  -8   6   12.50    5.00
  -1  -8   6   12.90    6.80
  -1  -8   6    5.00   17.60
   0   8  -6  499.05   39.00
   0   8  -6  471.95   22.10
   0   8  -6  469.45   21.40
   0   8  -6  454.75   15.90
   0   8  -6  477.25   19.30
   0  -8   6  479.65   20.30
   0  -8   6  474.55   42.80
   0  -8   6  444.46   22.90
  -1   8  -6  298.17   16.70
  -1   8  -6  277.87   13.00
  -1   8  -6  264.37   15.80
  -1   8  -6  269.57   10.40
  -1   8  -6  294.47   30.60
   1  -8   6  269.77   17.10
   1  -8   6  285.97   14.40
   1  -8   6  312.37   36.30
  -2   8  -6  831.12   27.10
  -2   8  -6  831.42   32.60
  -2   8  -6  847.22   29.60
  -2   8  -6  833.62   32.10
  -2   8  -6  869.01   50.89
   2  -8   6  778.52   32.80
   2  -8   6  822.82   51.99
   2  -8   6  860.51   31.50
  -3   8  -6  324.07   17.80
  -3   8  -6  356.36   14.80
  -3   8  -6  340.17   35.90
  -3   8  -6  372.96   18.60
  -3   8  -6  318.07   12.80
   3  -8   6  322.87   18.70
   3  -8   6  349.27   17.20
   3  -8   6  354.66   33.60
  -4   8  -6 1080.09   40.00
  -4   8  -6 1065.19   35.30
  -4   8  -6 1089.99   39.90
  -4   8  -6 1151.88   36.70
  -4   8  -6 1025.10   38.00
  -4   8  -6 1097.09   58.29
   4  -8   6 1012.10   40.40
   4  -8   6 1080.89   38.80
   4  -8   6 1014.70   59.39
   4  -8   6 1119.79   35.00
  -5   8  -6   55.59    7.10
  -5   8  -6   67.49   12.10
  -5   8  -6   49.50    8.70
  -5   8  -6   61.09   20.70
   5  -8   6   57.29    6.10
   5  -8   6   40.70    8.90
   5  -8   6   35.10   22.50
   5  -8   6   46.70    7.90
   4   7  -6  481.75   49.40
   4   7  -6  343.67   15.60
   4   7  -6  463.95   22.20
  -4  -7   6  411.56   47.20
   3   7  -6  479.35   21.80
   3   7  -6  441.56   16.30
   3   7  -6  458.15   19.70
   3   7  -6  446.16   20.60
   3   7  -6  471.05   44.10
   3   7  -6  435.36   15.90
  -3  -7   6  438.46   43.40
  -3  -7   6  469.65   21.10
  -3  -7   6  443.46   23.70
   2   7  -6 1597.84   54.99
   2   7  -6 1658.43   54.19
   2   7  -6 1576.54   50.59
   2   7  -6 1659.23   75.99
   2   7  -6 1656.93   55.89
  -2  -7   6 1738.23   55.39
  -2  -7   6 1585.14   57.39
  -2  -7   6 1560.94   76.09
   1   7  -6  234.68    9.30
   1   7  -6  279.17   14.70
   1   7  -6  281.57   30.80
   1   7  -6  246.48   12.30
   1   7  -6  244.68   13.70
  -1  -7   6  265.37   13.20
  -1  -7   6  256.17   14.90
  -1  -7   6  258.27   31.20
   0   7  -6 2110.39   67.09
   0   7  -6 1920.61   61.69
   0   7  -6 2137.79   84.29
   0   7  -6 2088.59   64.79
   0   7  -6 1953.90   65.79
   0  -7   6 1962.90   67.49
   0  -7   6 1941.21   85.49
  -1   7  -6   43.70   15.30
  -1   7  -6   46.50    8.10
  -1   7  -6   43.30    5.70
  -1   7  -6   31.10    5.70
  -1   7  -6   29.80    3.20
   1  -7   6   36.20    5.60
   1  -7   6   38.20    6.40
  -2   7  -6  551.24   22.90
  -2   7  -6  643.54   26.80
  -2   7  -6  570.04   20.80
  -2   7  -6  577.34   35.70
  -2   7  -6  562.34   19.00
   2  -7   6  563.44   24.10
   2  -7   6  573.94   22.30
  -3   7  -6  260.57   11.10
  -3   7  -6  256.27   13.60
  -3   7  -6  254.87   14.20
  -3   7  -6  228.28   24.50
  -3   7  -6  252.77    9.90
   3  -7   6  236.88   14.50
   3  -7   6  261.27    9.70
   3  -7   6  248.78   13.20
   3  -7   6  248.18   24.90
  -4   7  -6   41.80    5.30
  -4   7  -6   42.90   17.20
  -4   7  -6   41.60    4.90
  -4   7  -6   46.50    8.60
  -4   7  -6   43.70    8.30
   4  -7   6   48.60    4.40
   4  -7   6   51.79    9.60
   4  -7   6   39.70   14.20
   4  -7   6   44.40    8.10
  -5   7  -6  891.61   32.50
  -5   7  -6  952.10   34.20
  -5   7  -6  898.91   29.70
  -5   7  -6  918.61   52.49
  -5   7  -6  873.51   33.50
   5  -7   6  916.31   29.90
   5  -7   6  839.92   49.00
   5  -7   6  875.71   33.20
   5  -7   6  883.01   34.60
  -6   7  -6   68.69   11.10
  -6   7  -6   67.29   12.60
  -6   7  -6   62.99    5.70
  -6   7  -6   52.79    5.90
   6  -7   6   68.69   19.80
   6  -7   6   66.49    7.10
   6  -7   6   66.69   10.60
   6  -7   6   56.89    9.20
   6  -7   6   57.99   21.60
   5   6  -6   24.00    5.50
   5   6  -6   14.50   24.60
   5   6  -6   24.80    7.80
   5   6  -6   19.20    6.90
  -5  -6   6    6.00   23.60
  -5  -6   6   29.00    9.50
  -5  -6   6   27.00    5.80
   4   6  -6  624.94   25.90
   4   6  -6  600.04   24.10
   4   6  -6  610.64   21.30
   4   6  -6  619.04   24.80
   4   6  -6  617.04   46.40
  -4  -6   6  616.54   23.90
  -4  -6   6  579.24   45.70
  -4  -6   6  649.24   25.60
  -4  -6   6  599.44   28.00
   3   6  -6  143.09   27.70
   3   6  -6  151.08    9.50
   3   6  -6  143.09    6.60
   3   6  -6  137.39   10.20
   3   6  -6  140.79   11.10
  -3  -6   6  154.18   10.60
  -3  -6   6  132.49   23.00
  -3  -6   6  140.39    9.10
  -3  -6   6  130.69   11.70
   2   6  -6  349.96   16.30
   2   6  -6  323.17   11.80
   2   6  -6  336.37   15.50
   2   6  -6  350.46   15.20
   2   6  -6  372.16   30.90
  -2  -6   6  339.77   17.50
  -2  -6   6  355.16   15.70
   1   6  -6 1428.06   47.60
   1   6  -6 1590.04   48.80
   1   6  -6 1315.37   43.90
   1   6  -6 1422.56   48.20
  -1  -6   6 1382.26   49.30
  -1  -6   6 1454.95   47.70
   0   6  -6  303.87   14.50
   0   6  -6  306.57   13.80
   0   6  -6  304.07   10.20
   0   6  -6  311.07   24.60
   0   6  -6  317.27   13.00
   0  -6   6  290.77   27.10
   0  -6   6  277.97   14.60
   0  -6   6  337.67   14.50
  -1   6  -6 2869.31   86.99
  -1   6  -6 2794.82   84.89
  -1   6  -6 2637.84   82.79
  -1   6  -6 2948.91  101.29
  -1   6  -6 2765.72   86.29
   1  -6   6 2182.88   88.69
   1  -6   6 2841.82   86.29
   1  -6   6 2791.62  101.99
  -2   6  -6  524.95   16.60
  -2   6  -6  517.55   18.10
  -2   6  -6  509.25   20.40
  -2   6  -6  521.15   20.00
  -2   6  -6  492.05   31.80
   2  -6   6  451.85   20.50
   2  -6   6  540.65   19.70
   2  -6   6  491.65   31.70
  -3   6  -6 1340.47   68.59
  -3   6  -6 1534.45   51.29
  -3   6  -6 1579.14   48.50
  -3   6  -6 1602.84   49.20
  -3   6  -6 1659.93   52.09
   3  -6   6 1618.64   48.40
   3  -6   6 1527.55   52.19
  -4   6  -6  288.37   11.10
  -4   6  -6  295.97   14.20
  -4   6  -6  296.97   13.10
  -4   6  -6  276.97   15.20
  -4   6  -6  269.67   25.70
   4  -6   6  276.27   14.60
   4  -6   6  294.67   10.90
   4  -6   6  287.87   14.00
  -5   6  -6  461.35   16.00
  -5   6  -6  466.55   18.90
  -5   6  -6  508.55   27.20
  -5   6  -6  443.06   19.80
   5  -6   6  457.45   20.60
   5  -6   6  475.75   20.10
   5  -6   6  417.26   31.70
   5  -6   6  473.25   16.90
  -6   6  -6   30.50    4.00
  -6   6  -6   24.20    6.40
  -6   6  -6   24.90    7.30
  -6   6  -6   28.80    3.80
   6  -6   6   26.60    4.50
   6  -6   6    9.00   15.40
   6  -6   6   24.70    6.40
   6  -6   6   26.20   13.60
   6  -6   6   30.10    7.10
  -7   6  -6  243.18   15.30
  -7   6  -6  208.08    8.40
  -7   6  -6  237.78   15.20
   7  -6   6  229.28   36.20
   7  -6   6  223.98   15.50
   7  -6   6  209.88   15.80
   7  -6   6  240.48   12.40
   7  -6   6  207.98   29.60
   6   5  -6  108.79    9.40
   6   5  -6   96.49   11.00
   6   5  -6   94.59   12.80
   6   5  -6   92.89   28.70
  -6  -5   6   78.09   22.10
  -6  -5   6   93.19   10.90
   5   5  -6  723.43   28.00
   5   5  -6  751.62   50.19
   5   5  -6  762.32   29.00
   5   5  -6  733.83   25.10
   5   5  -6  705.23   27.50
  -5  -5   6  738.73   48.30
  -5  -5   6  689.73   26.80
  -5  -5   6  694.53   31.10
  -5  -5   6  734.13   28.90
   4   5  -6  178.68   10.40
   4   5  -6  170.28    8.10
   4   5  -6  170.98   27.50
   4   5  -6  190.28   11.80
   4   5  -6  190.08   10.90
  -4  -5   6  179.78   10.20
  -4  -5   6  187.28   14.30
  -4  -5   6  183.18   26.60
  -4  -5   6  193.28   11.10
   3   5  -6 1372.96   49.10
   3   5  -6 1429.76   45.00
   3   5  -6 1449.55   49.00
   3   5  -6 1477.05   47.60
   3   5  -6 1483.85   64.19
  -3  -5   6 1476.65   48.10
  -3  -5   6 1438.36   49.90
  -3  -5   6 1391.86   47.00
   2   5  -6  177.78    9.10
   2   5  -6  172.38    9.80
   2   5  -6  173.48    6.50
   2   5  -6  183.98   19.30
   2   5  -6  174.18    9.20
  -2  -5   6  163.38   18.60
  -2  -5   6  157.18   10.50
  -2  -5   6  156.18    9.60
   1   5  -6 2008.00   74.39
   1   5  -6 1967.40   60.89
   1   5  -6 1775.72   58.39
   1   5  -6 1892.01   61.29
   1   5  -6 1927.31   61.89
  -1  -5   6 1917.71   60.59
  -1  -5   6 1877.71   75.09
  -1  -5   6 2009.40   61.59
  -1  -5   6 1946.31   62.99
   0   5  -6   28.10    4.90
   0   5  -6   33.40    1.50
   0   5  -6   36.60    3.60
   0   5  -6   31.90    9.90
   0   5  -6   27.70    4.40
   0  -5   6   26.30    9.90
   0  -5   6   26.40    4.60
   0  -5   6   27.00    4.40
  -1   5  -6 3102.79  104.09
  -1   5  -6 3017.90   92.69
  -1   5  -6 2903.51   92.09
  -1   5  -6 2839.12   89.29
  -1   5  -6 2943.51   91.09
   1  -5   6 2979.20   92.29
   1  -5   6 2853.01   93.09
   1  -5   6 3028.60  104.89
  -2   5  -6   23.90    4.20
  -2   5  -6   16.90    7.10
  -2   5  -6   18.00    3.80
  -2   5  -6   21.70    3.00
   2  -5   6   27.80    4.60
   2  -5   6   22.10    4.30
   2  -5   6   25.10    1.90
   2  -5   6   10.00    8.50
  -3   5  -6 3157.28  106.59
  -3   5  -6 2980.90   93.69
  -3   5  -6 2942.91   94.29
  -3   5  -6 3103.39   94.99
  -3   5  -6 3026.00   92.49
   3  -5   6 3103.29   94.89
   3  -5   6 3003.50  106.69
   3  -5   6 2981.90   92.19
   3  -5   6 2919.81   95.19
  -4   5  -6   53.29    6.40
  -4   5  -6   54.39    6.00
  -4   5  -6   53.69    3.50
  -4   5  -6   54.39    5.00
   4  -5   6   58.89    4.20
   4  -5   6   49.50   12.90
  -5   5  -6 1217.18   38.80
  -5   5  -6 1331.57   43.00
  -5   5  -6 1226.68   42.20
  -5   5  -6 1206.68   38.80
   5  -5   6 1295.47   40.40
   5  -5   6 1279.97   43.00
   5  -5   6 1197.68   42.90
   5  -5   6 1262.27   55.09
  -6   5  -6    3.40    1.50
  -6   5  -6    2.20    4.50
  -6   5  -6    7.90    1.60
   6  -5   6    3.00    3.50
   6  -5   6    8.10   13.00
   6  -5   6    0.30   12.80
   6  -5   6    6.00    4.90
   6  -5   6    7.10    5.10
  -7   5  -6  206.78   13.60
  -7   5  -6  216.78   13.70
   7  -5   6  213.08   14.50
   7  -5   6  215.58   11.50
   7  -5   6  195.88   14.20
   7  -5   6  187.38   29.90
   7  -5   6  187.58   30.70
  -8   5  -6  122.79   13.40
   8  -5   6   96.99   22.10
   6   4  -6   33.50    7.10
   6   4  -6   23.60    5.80
   6   4  -6   27.20    4.80
   6   4  -6   33.80    6.10
   6   4  -6   28.40   17.90
  -6  -4   6   22.60    7.10
  -6  -4   6   35.70    7.90
  -6  -4   6   30.90    5.80
  -6  -4   6   28.80   16.00
   5   4  -6  101.09    6.70
   5   4  -6  110.19    9.80
   5   4  -6  109.39    9.10
   5   4  -6   85.59   20.40
   5   4  -6   97.89    8.50
  -5  -4   6   98.49    9.00
  -5  -4   6  101.79   19.90
  -5  -4   6  115.19    9.10
  -5  -4   6   92.59   12.20
   4   4  -6    3.30    3.60
   4   4  -6   -0.20    3.50
   4   4  -6    0.40   11.40
   4   4  -6   -1.50    1.90
   4   4  -6   21.70    4.00
  -4  -4   6    5.30    4.70
  -4  -4   6   -3.10   10.80
  -4  -4   6    2.40    3.50
  -4  -4   6   -2.10    2.70
   3   4  -6 1218.58   39.80
   3   4  -6 1255.77   53.69
   3   4  -6 1195.28   40.30
   3   4  -6 1187.68   37.70
  -3  -4   6 1174.18   52.29
  -3  -4   6 1233.18   40.30
  -3  -4   6 1164.58   41.50
   2   4  -6  313.97   10.60
   2   4  -6  318.57   13.10
   2   4  -6  324.37   12.60
   2   4  -6  320.27   12.70
   2   4  -6  333.57   22.80
  -2  -4   6  309.77   22.50
  -2  -4   6  323.27   12.60
  -2  -4   6  308.67   13.90
  -2  -4   6  323.97   13.00
   1   4  -6 1927.91   62.79
   1   4  -6 2090.59   65.59
   1   4  -6 2008.10   65.19
   1   4  -6 2019.20   62.79
   1   4  -6 2135.89   65.19
   1   4  -6 2267.77   76.79
  -1  -4   6 2066.19   66.59
  -1  -4   6 2135.89   64.99
  -1  -4   6 2108.99   76.79
   0   4  -6  299.47   11.60
   0   4  -6  306.57   19.30
   0   4  -6  302.27   11.30
   0   4  -6  307.27   12.00
   0  -4   6  288.17   19.60
   0  -4   6  297.77   11.10
   0  -4   6  296.57   12.70
   0  -4   6  305.17   11.80
  -1   4  -6 1229.98   40.00
  -1   4  -6 1236.58   40.30
  -1   4  -6 1243.38   39.30
  -1   4  -6 1272.57   48.70
   1  -4   6 1253.87   49.40
   1  -4   6 1242.18   41.00
   1  -4   6 1270.47   40.30
  -2   4  -6  310.27   10.70
  -2   4  -6  320.87   12.30
  -2   4  -6  312.37   19.10
  -2   4  -6  298.07   11.80
   2  -4   6  308.57   10.10
   2  -4   6  296.67   19.40
   2  -4   6  301.97   12.20
   2  -4   6  307.87   12.60
  -3   4  -6 1069.99   34.30
  -3   4  -6 1115.69   36.50
  -3   4  -6 1094.29   45.00
  -3   4  -6 1122.19   35.70
  -3   4  -6 1114.89   36.20
   3  -4   6 1087.49   37.00
   3  -4   6 1164.18   36.80
   3  -4   6 1100.89   34.60
   3  -4   6 1082.19   45.40
  -4   4  -6 1634.64   50.19
  -4   4  -6 1507.55   49.60
  -4   4  -6 1474.95   47.00
   4  -4   6 1519.75   48.30
   4  -4   6 1558.74   60.79
   4  -4   6 1556.64   50.39
   4  -4   6 1537.25   50.49
  -5   4  -6 1585.84   50.29
  -5   4  -6 1681.23   54.09
  -5   4  -6 1747.43   54.59
  -5   4  -6 1542.15   50.29
   5  -4   6 1753.12   55.19
   5  -4   6 1705.93   52.69
   5  -4   6 1696.53   65.89
   5  -4   6 1610.54   73.69
  -6   4  -6  563.54   22.40
  -6   4  -6  625.34   23.00
   6  -4   6  581.64   35.70
   6  -4   6  577.54   21.10
   6  -4   6  577.64   35.20
   6  -4   6  570.84   23.30
   6  -4   6  589.04   23.70
  -7   4  -6 1201.18   40.80
   7  -4   6 1160.38   38.60
   7  -4   6 1145.79   56.99
   7  -4   6 1116.49   40.90
   7  -4   6 1060.29   56.39
   7  -4   6 1136.79   41.20
  -8   4  -6    9.10    7.10
  -8   4  -6   12.80    7.00
   8  -4   6   23.10   18.00
   8  -4   6   13.60    7.10
   8  -4   6   -4.20    5.70
   8  -4   6   18.50    6.60
   8  -4   6   36.50   17.40
   7   3  -6  949.40   35.00
   7   3  -6 1002.70   36.80
   7   3  -6  999.10   61.49
   7   3  -6  998.20   33.90
  -7  -3   6  964.80   39.20
  -7  -3   6  940.81   57.59
  -7  -3   6  933.31   34.70
   6   3  -6  194.58   11.40
   6   3  -6  186.58   30.90
   6   3  -6  198.28    9.80
   6   3  -6  196.08   12.40
   6   3  -6  193.88   11.30
  -6  -3   6  163.08   23.60
  -6  -3   6  200.98   12.00
  -6  -3   6  214.18   15.20
  -6  -3   6  215.58   13.30
   5   3  -6  985.90   33.90
   5   3  -6 1011.70   49.70
   5   3  -6  986.10   32.40
   5   3  -6  949.80   36.60
  -5  -3   6 1019.00   34.70
  -5  -3   6  988.10   33.90
  -5  -3   6  953.70   36.30
   4   3  -6   11.10    2.30
   4   3  -6    8.20    3.30
   4   3  -6   10.30    3.40
   4   3  -6   22.70   10.90
   4   3  -6   11.50    3.10
  -4  -3   6    7.10    3.80
  -4  -3   6   11.70    7.70
  -4  -3   6   11.10    4.40
  -4  -3   6    3.90    3.30
   3   3  -6  779.12   27.10
   3   3  -6  804.22   26.70
   3   3  -6  804.42   27.00
   3   3  -6  796.42   25.40
   3   3  -6  804.12   37.90
  -3  -3   6  790.82   37.00
  -3  -3   6  792.82   27.10
  -3  -3   6  786.62   26.80
  -3  -3   6  789.52   28.40
   2   3  -6 1004.80   33.30
   2   3  -6 1104.19   43.60
   2   3  -6 1052.09   33.80
   2   3  -6 1037.20   33.70
   2   3  -6 1017.50   31.90
  -2  -3   6 1040.00   33.60
  -2  -3   6 1020.30   33.80
  -2  -3   6 1017.20   42.70
  -2  -3   6 1033.70   34.90
   1   3  -6 2150.88   72.99
   1   3  -6 2084.69   64.39
   1   3  -6 2130.19   64.39
   1   3  -6 1980.30   64.09
  -1  -3   6 2051.49   72.99
  -1  -3   6 2081.09   64.59
  -1  -3   6 2070.49   64.29
  -1  -3   6 2041.20   65.39
   0   3  -6 1916.21   62.29
   0   3  -6 2135.39   70.19
   0   3  -6 1988.50   62.39
   0   3  -6 1980.80   62.49
   0  -3   6 2059.89   70.49
   0  -3   6 2079.69   63.59
   0  -3   6 1989.00   62.79
   0  -3   6 2043.50   62.39
  -1   3  -6 4423.46  139.69
  -1   3  -6 4376.46  132.79
   1  -3   6 4337.47  140.19
   1  -3   6 4321.07  133.59
  -2   3  -6  510.65   16.40
  -2   3  -6  501.45   17.30
  -2   3  -6  520.45   17.70
  -2   3  -6  520.15   23.50
   2  -3   6  514.55   24.10
   2  -3   6  519.65   18.10
   2  -3   6  543.25   18.40
   2  -3   6  516.35   16.50
  -3   3  -6 2830.32   88.59
  -3   3  -6 2880.11   88.39
   3  -3   6 2884.61   87.59
   3  -3   6 2927.71   89.19
   3  -3   6 2778.52   89.09
   3  -3   6 2912.61   97.09
  -4   3  -6  147.09    7.60
  -4   3  -6  160.88    8.00
   4  -3   6  157.38    8.30
   4  -3   6  143.59    7.90
   4  -3   6  145.29    6.70
   4  -3   6  148.89   14.40
  -5   3  -6  609.94   22.10
  -5   3  -6  610.74   21.90
   5  -3   6  630.44   23.10
   5  -3   6  579.84   32.70
   5  -3   6  617.64   21.10
   5  -3   6  575.54   22.30
   5  -3   6  604.44   31.60
  -6   3  -6  479.35   19.40
  -6   3  -6  511.75   19.80
   6  -3   6  474.25   19.90
   6  -3   6  474.55   20.40
   6  -3   6  488.45   18.40
   6  -3   6  485.25   30.80
   6  -3   6  499.35   31.40
  -7   3  -6   73.59    9.70
  -7   3  -6   88.99   10.80
   7  -3   6   83.49    8.70
   7  -3   6   84.89   16.60
   7  -3   6   76.39    7.90
   7  -3   6   79.59   10.20
   7  -3   6   83.59   17.90
  -8   3  -6  644.44   24.90
  -8   3  -6  550.34   25.10
   8  -3   6  524.15   42.90
   8  -3   6  578.94   26.20
   8  -3   6  555.44   23.00
   8  -3   6  548.15   24.10
   8  -3   6  577.04   44.70
   7   2  -6  132.99   11.30
   7   2  -6  136.49    8.70
   7   2  -6  144.29   11.10
   7   2  -6  128.29   10.30
   7   2  -6  150.58   26.80
  -7  -2   6  140.29   14.40
  -7  -2   6  135.59   11.20
  -7  -2   6  128.39   10.70
  -7  -2   6  142.69   27.90
   6   2  -6  304.57   13.20
   6   2  -6  336.07   15.60
   6   2  -6  300.87   30.60
   6   2  -6  308.97   14.00
   6   2  -6  300.17   13.80
  -6  -2   6  308.77   27.90
  -6  -2   6  320.87   15.60
  -6  -2   6  311.27   17.10
  -6  -2   6  308.87   14.50
   5   2  -6  773.12   47.70
   5   2  -6  815.32   26.70
   5   2  -6  778.62   27.40
   5   2  -6  786.12   28.20
   5   2  -6  824.72   28.50
  -5  -2   6  818.42   28.80
  -5  -2   6  789.32   29.70
  -5  -2   6  774.82   27.60
   4   2  -6  225.78    9.00
   4   2  -6  227.28   18.50
   4   2  -6  222.88   10.10
   4   2  -6  223.18    9.70
   4   2  -6  234.48   10.40
  -4  -2   6  237.28   10.20
  -4  -2   6  234.18   11.60
  -4  -2   6  225.18   10.30
  -4  -2   6  234.38   18.70
   3   2  -6 1733.53   55.79
   3   2  -6 1774.72   56.59
   3   2  -6 1868.61   57.39
   3   2  -6 1877.31   67.09
   3   2  -6 1853.01   57.09
  -3  -2   6 1775.42   58.09
  -3  -2   6 1855.21   57.29
  -3  -2   6 1818.42   65.79
  -3  -2   6 1778.82   57.09
   2   2  -6   28.30    2.70
   2   2  -6   23.00    2.40
   2   2  -6   31.40    1.90
   2   2  -6   23.80    6.30
   2   2  -6   25.00    3.20
  -2  -2   6   31.10    2.90
  -2  -2   6   26.90    6.30
  -2  -2   6   33.30    3.20
  -2  -2   6   31.80    3.60
   1   2  -6 1817.42   56.29
   1   2  -6 1916.61   62.39
   1   2  -6 1774.92   55.49
   1   2  -6 1770.12   55.59
  -1  -2   6 1816.62   56.69
  -1  -2   6 1754.42   56.09
  -1  -2   6 1855.11   56.29
  -1  -2   6 1828.82   62.09
   0   2  -6  377.36   17.00
   0   2  -6  395.76   13.00
   0  -2   6  385.16   13.00
   0  -2   6  381.86   17.40
   0  -2   6  385.46   12.90
   0  -2   6  386.46   13.40
  -1   2  -6 1325.87   40.60
  -1   2  -6 1325.17   45.20
   1  -2   6 1321.67   40.60
   1  -2   6 1304.07   41.50
   1  -2   6 1350.56   41.30
   1  -2   6 1310.37   45.70
  -2   2  -6 1848.32   57.89
  -2   2  -6 1877.41   57.79
   2  -2   6 1920.51   58.89
   2  -2   6 1892.61   58.89
   2  -2   6 1923.71   64.09
   2  -2   6 1899.31   57.89
  -3   2  -6  781.82   25.70
  -3   2  -6  799.62   25.60
   3  -2   6  829.42   26.60
   3  -2   6  772.22   32.20
   3  -2   6  785.82   31.70
   3  -2   6  815.12   25.50
   3  -2   6  760.12   26.20
  -4   2  -6 1623.84   51.39
  -4   2  -6 1643.74   51.49
   4  -2   6 1588.64   59.99
   4  -2   6 1640.64   51.29
   4  -2   6 1686.83   60.19
   4  -2   6 1555.24   51.89
   4  -2   6 1636.64   52.39
   4  -2   6 1657.53   51.09
  -5   2  -6  147.79    8.30
  -5   2  -6  158.38    8.30
   5  -2   6  161.88    7.50
   5  -2   6  157.88    7.70
   5  -2   6  139.79    8.50
   5  -2   6  147.09   16.00
   5  -2   6  155.18    8.80
  -6   2  -6  728.83   26.70
  -6   2  -6  809.02   27.10
   6  -2   6  739.83   26.50
   6  -2   6  704.33   38.80
   6  -2   6  824.32   30.50
   6  -2   6  739.83   38.80
   6  -2   6  731.93   27.30
   6  -2   6  690.23   30.10
  -7   2  -6    4.70    4.70
  -7   2  -6    8.50    4.60
   7  -2   6    7.00    4.60
   7  -2   6    3.60    3.60
   7  -2   6    5.90    5.40
   7  -2   6    7.60    5.00
   7  -2   6   17.30   11.80
   7  -2   6   -2.80   13.10
  -8   2  -6  435.46   21.40
  -8   2  -6  488.15   20.70
   8  -2   6  428.26   19.40
   8  -2   6  411.66   21.00
   8  -2   6  437.56   22.30
   8  -2   6  425.16   40.60
   8  -2   6  447.36   19.70
   8  -2   6  421.56   39.40
   8   1  -6  206.08   13.20
   8   1  -6  231.08   13.10
   8   1  -6  240.28   16.10
   8   1  -6  234.28   40.40
   8   1  -6  228.38   14.00
  -8  -1   6  210.38   13.00
  -8  -1   6  198.48   30.00
  -8  -1   6  193.98   17.00
  -8  -1   6  203.98   14.20
   7   1  -6  604.54   21.70
   7   1  -6  601.34   23.60
   7   1  -6  563.64   22.40
   7   1  -6  605.54   43.60
   7   1  -6  573.74   22.60
  -7  -1   6  542.05   24.90
  -7  -1   6  567.54   22.60
  -7  -1   6  587.84   39.20
  -7  -1   6  600.74   24.50
   6   1  -6  928.61   31.80
   6   1  -6  987.60   32.50
   6   1  -6  916.31   46.10
   6   1  -6  885.11   32.80
   6   1  -6  976.50   32.90
  -6  -1   6  959.40   33.40
  -6  -1   6  875.61   31.80
  -6  -1   6  913.31   34.00
  -6  -1   6  908.01   45.50
   5   1  -6 1100.69   39.20
   5   1  -6 1195.18   38.10
   5   1  -6 1212.48   52.29
   5   1  -6 1175.78   38.60
   5   1  -6 1236.88   39.50
  -5  -1   6 1194.78   39.70
  -5  -1   6 1144.49   40.90
  -5  -1   6 1209.88   40.70
  -5  -1   6 1161.98   50.09
   4   1  -6 2876.21   97.39
   4   1  -6 2771.42   85.69
   4   1  -6 2778.02   86.79
   4   1  -6 2689.03   85.99
   4   1  -6 2777.82   86.59
  -4  -1   6 2766.72   86.69
  -4  -1   6 2788.12   86.89
  -4  -1   6 2782.72   87.69
  -4  -1   6 2882.71   96.29
   3   1  -6 1958.50   63.49
   3   1  -6 2069.69   64.39
   3   1  -6 2077.29   63.39
   3   1  -6 1964.20   63.69
   3   1  -6 2171.88   72.69
  -3  -1   6 2061.09   64.89
  -3  -1   6 2047.50   64.19
  -3  -1   6 2118.09   64.49
  -3  -1   6 2109.69   71.59
  -3  -1   6 2062.39   63.39
   2   1  -6 3627.94  109.89
   2   1  -6 3613.54  110.89
   2   1  -6 3676.63  116.69
  -2  -1   6 3608.34  110.99
  -2  -1   6 3637.44  115.79
  -2  -1   6 3612.84  110.99
   1   1  -6 1258.37   39.40
   1   1  -6 1312.37   42.90
   1   1  -6 1248.78   38.50
  -1  -1   6 1200.88   38.80
  -1  -1   6 1258.57   38.60
  -1  -1   6 1253.57   42.30
  -1  -1   6 1260.27   39.10
  -1  -1   6 1296.67   39.50
   0   1  -6 2562.54   80.19
   0  -1   6 2600.14   80.59
   1  -1   6   11.70    2.60
   1  -1   6    9.60    1.30
   1  -1   6    5.40    1.90
   1  -1   6    6.80    0.90
   1  -1   6    5.10    1.00
   2  -1   6 3266.47  104.29
   2  -1   6 3310.57  104.09
  -3   1  -6  133.59    5.20
  -3   1  -6  126.09    5.30
   3  -1   6  118.99    6.20
   3  -1   6  126.19    6.00
   3  -1   6  121.19   10.40
   3  -1   6  114.79    5.30
   3  -1   6  119.29    9.80
  -4   1  -6 3944.31  122.39
  -4   1  -6 3895.21  122.59
   4  -1   6 4045.30  123.69
   4  -1   6 4001.70  131.09
   4  -1   6 4061.09  122.59
   4  -1   6 4145.19  131.99
   4  -1   6 3955.10  123.09
  -5   1  -6   15.20    3.40
  -5   1  -6   14.90    3.30
   5  -1   6   17.50    8.00
   5  -1   6   16.90    4.00
   5  -1   6   15.90    2.90
   5  -1   6   16.60    3.10
   5  -1   6   19.20    8.30
   5  -1   6    9.70    3.20
  -6   1  -6 1772.62   58.89
  -6   1  -6 1874.81   58.99
   6  -1   6 1871.01   58.79
   6  -1   6 1843.92   72.99
   6  -1   6 1752.02   59.19
   6  -1   6 1820.62   58.49
   6  -1   6 1826.42   72.29
  -7   1  -6   78.79    9.10
   7  -1   6   73.69    9.20
   7  -1   6   79.19   17.40
   7  -1   6   75.29   17.70
   7  -1   6   87.19   10.60
   7  -1   6   81.29    7.30
   7  -1   6  101.39    9.00
  -8   1  -6  203.08   13.40
  -8   1  -6  177.08   13.60
   8  -1   6  177.38   34.20
   8  -1   6  156.68   31.80
   8  -1   6  204.38   14.20
   8  -1   6  187.28   11.80
   8  -1   6  187.38   15.60
   8  -1   6  205.38   14.20
   8   0  -6  305.27   34.30
   8   0  -6  313.77   16.00
   8   0  -6  302.27   15.20
   8   0  -6  318.27   16.60
   8   0  -6  314.47   15.20
  -8   0   6  286.47   15.00
  -8   0   6  321.37   17.90
  -8   0   6  310.57   19.60
  -8   0   6  275.47   34.10
   7   0  -6  448.66   19.20
   7   0  -6  438.36   35.50
   7   0  -6  426.36   17.70
   7   0  -6  440.86   17.30
   7   0  -6  431.66   18.10
  -7   0   6  408.96   30.20
  -7   0   6  436.76   21.10
  -7   0   6  469.45   20.10
  -7   0   6  434.56   18.80
   6   0  -6  397.26   16.20
   6   0  -6  379.16   28.80
   6   0  -6  410.36   16.00
   6   0  -6  381.56   15.30
   6   0  -6  374.36   15.30
  -6   0   6  379.86   17.30
  -6   0   6  392.86   16.30
  -6   0   6  406.76   17.10
   5   0  -6   97.69    6.80
   5   0  -6   95.89   15.20
   5   0  -6   98.79    5.60
   5   0  -6   94.49    5.80
   5   0  -6   87.49    6.40
  -5   0   6   98.99    5.70
  -5   0   6   91.29   13.60
  -5   0   6   95.89    7.70
  -5   0   6   85.09    6.10
  -5   0   6  103.79    7.10
   4   0  -6 1394.26   43.90
   4   0  -6 1396.66   53.49
   4   0  -6 1414.96   44.70
   4   0  -6 1356.06   43.90
   4   0  -6 1406.26   44.30
  -4   0   6 1417.96   44.00
  -4   0   6 1402.76   45.40
  -4   0   6 1387.86   44.80
  -4   0   6 1388.66   52.49
  -4   0   6 1369.36   44.80
   3   0  -6  132.19    5.30
   3   0  -6  135.29    6.40
   3   0  -6  143.29    5.80
   3   0  -6  133.09   10.90
   3   0  -6  133.89    5.60
  -3   0   6  141.29    6.20
  -3   0   6  134.39    5.70
  -3   0   6  136.99    6.70
  -3   0   6  135.39    6.40
  -3   0   6  129.29   10.10
   2   0  -6 6732.53  203.98
   1   0  -6   17.90    1.20
   1   0  -6   15.80    1.80
   1   0  -6   28.90    3.40
  -1   0   6   22.60    1.40
  -1   0   6   32.90    1.40
  -1   0   6   23.30    2.50
  -1   0   6   16.60    1.90
  -1   0   6   21.00    2.70
   1   0   6  555.44   16.30
   1   0   6  500.85   15.90
   1   0   6  509.75   17.60
   1   0   6  522.35   15.80
   1   0   6  491.25   17.50
   1   0   6  474.05   15.70
  -2   0  -6 4549.74  144.19
   2   0   6 4725.73  144.69
  -3   0  -6  150.08    5.90
  -3   0  -6  153.38    6.00
  -3   0  -6  140.59   10.50
   3   0   6  151.78   11.30
   3   0   6  161.98    5.40
   3   0   6  148.89    6.70
   3   0   6  167.48    7.50
  -4   0  -6  717.33   31.90
  -4   0  -6  757.02   24.40
  -4   0  -6  733.23   24.60
   4   0   6  731.73   22.90
   4   0   6  741.43   25.70
   4   0   6  713.13   24.90
   4   0   6  743.13   32.70
  -5   0  -6  225.98    9.80
  -5   0  -6  209.18    9.90
  -5   0  -6  188.18   17.20
   5   0   6  198.58    9.90
   5   0   6  204.68   18.90
   5   0   6  203.98   11.00
   5   0   6  190.88    7.40
  -6   0  -6  295.47   24.60
  -6   0  -6  289.67   13.60
  -6   0  -6  332.17   13.90
   6   0   6  286.47   13.70
   6   0   6  303.37   10.70
   6   0   6  290.07   25.60
   6   0   6  298.17   15.20
  -7   0  -6  381.06   31.70
  -7   0  -6  405.16   19.70
  -7   0  -6  414.26   18.60
   7   0   6  419.26   33.60
   7   0   6  391.96   14.10
   7   0   6  398.76   18.20
   7   0   6  399.76   19.80
   7   0   6  392.46   17.40
  -8   0  -6  270.57   17.70
  -8   0  -6  297.57   17.00
   8   0   6  255.37   15.80
   8   0   6  215.58   46.80
   8   0   6  278.97   18.10
   8  -1  -6  427.76   19.50
   8  -1  -6  413.46   17.70
   8  -1  -6  409.36   18.60
   8  -1  -6  437.86   37.90
   8  -1  -6  433.36   19.00
  -8   1   6  422.26   22.50
  -8   1   6  394.46   18.50
  -8   1   6  452.85   21.60
   7  -1  -6    9.00    4.50
   7  -1  -6   15.70   14.50
   7  -1  -6   11.10    5.00
   7  -1  -6    7.10    3.40
   7  -1  -6    9.20    3.40
  -7   1   6    7.90    4.90
  -7   1   6   12.00    5.30
  -7   1   6    9.60    6.10
   6  -1  -6 2022.50   63.59
   6  -1  -6 2050.99   64.29
   6  -1  -6 1882.81   63.19
   6  -1  -6 1979.00   77.79
  -6   1   6 2078.39   65.99
  -6   1   6 1991.10   64.09
  -6   1   6 2002.70   63.49
   5  -1  -6  170.98    8.00
   5  -1  -6  159.28    7.70
   5  -1  -6  178.28    8.00
   5  -1  -6  178.08    8.50
   5  -1  -6  169.58   16.90
  -5   1   6  172.78    9.70
  -5   1   6  173.88    8.10
  -5   1   6  182.58    8.70
  -5   1   6  174.38    9.20
   4  -1  -6 2549.94   76.29
   4  -1  -6 2353.56   75.89
   4  -1  -6 2444.46   76.29
   4  -1  -6 2437.56   76.19
   4  -1  -6 2565.14   85.59
  -4   1   6 2491.65   77.19
  -4   1   6 2441.36   77.09
  -4   1   6 2504.45   76.49
  -4   1   6 2449.85   77.49
   3  -1  -6 1092.89   40.10
   3  -1  -6 1105.89   40.50
   3  -1  -6 1112.69   34.10
   3  -1  -6 1070.19   33.60
   3  -1  -6 1088.29   34.40
   3  -1  -6 1015.60   33.50
  -3   1   6 1104.89   35.10
  -3   1   6 1087.19   35.00
  -3   1   6 1083.89   34.50
  -3   1   6 1079.39   34.60
   2  -1  -6  765.32   24.80
   2  -1  -6  781.02   28.50
   2  -1  -6  787.42   28.30
  -2   1   6  761.52   24.60
  -2   1   6  748.23   24.80
  -2   1   6  792.02   25.40
  -2   1   6  794.22   25.00
   1  -1  -6  679.73   23.70
   1  -1  -6  701.43   22.40
   1  -1  -6  699.63   23.50
  -1   1   6  714.63   22.40
  -1   1   6  686.03   21.60
  -1   1   6  720.63   22.80
  -1   1   6  680.13   21.50
   0  -1  -6  358.06   11.90
   0   1   6  323.17   10.40
   0   1   6  343.57   11.80
   0   1   6  333.27   10.40
   0   1   6  333.77   11.60
  -1  -1  -6    2.70    2.20
   1   1   6    6.30    1.30
   1   1   6   14.70    1.40
   1   1   6    5.70    2.50
  -2  -1  -6 1340.47   46.10
   2   1   6 1373.26   46.80
   2   1   6 1333.37   41.80
   2   1   6 1246.68   41.20
  -3  -1  -6  146.99   12.10
  -3  -1  -6  150.98    6.20
  -3  -1  -6  158.28    6.10
   3   1   6  148.99    7.60
   3   1   6  155.68    5.90
   3   1   6  156.88   12.90
   3   1   6  148.09    6.90
  -4  -1  -6 1279.57   40.60
  -4  -1  -6 1250.87   49.80
  -4  -1  -6 1265.37   40.90
   4   1   6 1290.47   42.20
   4   1   6 1233.68   41.10
   4   1   6 1318.57   39.70
   4   1   6 1262.37   50.49
  -5  -1  -6  148.89   16.40
  -5  -1  -6  140.19    7.90
  -5  -1  -6  132.79    8.30
   5   1   6  143.39   17.80
   5   1   6  125.39    9.20
   5   1   6  129.69    8.10
   5   1   6  126.69    6.10
  -6  -1  -6  338.87   15.40
  -6  -1  -6  349.27   15.30
  -6  -1  -6  353.56   31.70
   6   1   6  327.27   15.00
   6   1   6  338.87   28.70
   6   1   6  376.56   17.40
   6   1   6  360.16   13.00
  -7  -1  -6  155.98   11.70
  -7  -1  -6  125.99   24.80
   7   1   6  188.88   25.10
   7   1   6  176.88   11.80
   7   1   6  164.58   12.50
   7   1   6  165.48    8.30
   8  -2  -6  231.68   30.50
   8  -2  -6  243.68   13.50
   8  -2  -6  253.27   13.90
   8  -2  -6  240.48   13.90
   8  -2  -6  246.48   13.90
  -8   2   6  215.98   13.20
  -8   2   6  237.18   17.70
  -8   2   6  250.77   15.20
   7  -2  -6    9.30   14.50
   7  -2  -6    6.10    4.00
   7  -2  -6    6.30    3.60
   7  -2  -6   12.30   12.00
   7  -2  -6    7.50    4.00
   7  -2  -6    8.10    4.30
  -7   2   6   11.50    6.10
  -7   2   6   -0.60    4.80
  -7   2   6    9.60    4.20
  -7   2   6    7.90    3.80
   6  -2  -6  404.96   28.30
   6  -2  -6  395.36   15.50
   6  -2  -6  386.66   15.30
   6  -2  -6  399.36   16.10
   6  -2  -6  380.06   15.30
   6  -2  -6  393.36   26.60
  -6   2   6  413.16   16.10
  -6   2   6  389.76   16.20
  -6   2   6  405.96   18.10
   5  -2  -6   71.49   13.70
   5  -2  -6   67.69    5.10
   5  -2  -6   71.89    5.10
   5  -2  -6   82.49    5.50
  -5   2   6   72.49    6.40
  -5   2   6   70.29    6.90
  -5   2   6   75.09    5.30
  -5   2   6   62.69    5.60
   4  -2  -6 1278.47   49.20
   4  -2  -6 1273.47   40.90
   4  -2  -6 1288.37   41.30
   4  -2  -6 1211.88   40.70
   4  -2  -6 1342.27   49.99
  -4   2   6 1355.26   42.50
  -4   2   6 1321.57   42.00
  -4   2   6 1289.07   41.90
  -4   2   6 1293.37   41.50
   3  -2  -6  400.06   13.10
   3  -2  -6  387.76   13.10
   3  -2  -6  390.96   19.60
   3  -2  -6  383.26   19.40
   3  -2  -6  405.06   14.10
  -3   2   6  405.66   14.30
  -3   2   6  407.76   14.60
  -3   2   6  406.36   14.70
  -3   2   6  389.76   14.20
   2  -2  -6 2260.07   75.39
   2  -2  -6 2363.56   75.39
   2  -2  -6 2331.77   70.99
  -2   2   6 2279.07   70.79
  -2   2   6 2259.57   71.09
  -2   2   6 2330.67   70.99
   1  -2  -6  964.30   34.70
  -1   2   6  972.80   30.80
  -1   2   6 1045.90   34.60
  -1   2   6  979.00   31.30
  -1   2   6  950.10   30.70
   0  -2  -6 1736.43   54.79
   0   2   6 1580.24   50.29
   0   2   6 1633.94   53.79
   0   2   6 1628.44   50.69
   0   2   6 1571.44   49.90
  -1  -2  -6 2296.77   73.49
   1   2   6 2304.27   73.49
   1   2   6 2091.39   67.79
   1   2   6 2182.98   68.59
  -2  -2  -6  980.80   31.00
  -2  -2  -6  955.10   31.10
  -2  -2  -6 1046.70   39.00
   2   2   6 1054.69   39.50
   2   2   6 1036.00   33.10
   2   2   6  990.80   32.20
  -3  -2  -6 2043.90   66.19
  -3  -2  -6 2160.18   75.59
  -3  -2  -6 2099.49   66.09
   3   2   6 2138.49   67.89
   3   2   6 2224.78   76.49
   3   2   6 2166.48   66.09
   3   2   6 2168.18   66.89
  -4  -2  -6 1111.39   46.60
  -4  -2  -6 1064.99   36.00
  -4  -2  -6 1109.39   35.70
   4   2   6 1125.49   37.60
   4   2   6 1075.39   47.00
   4   2   6 1153.68   35.10
   4   2   6 1028.20   36.00
  -5  -2  -6  629.54   23.30
  -5  -2  -6  638.24   23.00
   5   2   6  661.93   36.60
   5   2   6  616.24   23.30
   5   2   6  646.34   21.70
  -6  -2  -6  635.34   39.00
  -6  -2  -6  603.94   24.30
  -6  -2  -6  661.43   24.20
   6   2   6  604.34   24.10
   6   2   6  591.34   40.00
   6   2   6  649.64   26.20
   6   2   6  638.14   22.10
  -7  -2  -6   64.59   11.30
  -7  -2  -6    1.70   17.90
  -7  -2  -6   76.19   10.30
   7   2   6   63.19    9.90
   7   2   6   54.39    9.20
   7   2   6   71.99    7.60
   7   2   6   67.19   21.90
   8  -3  -6  364.86   16.90
   8  -3  -6  391.26   17.60
   8  -3  -6  381.96   17.10
   8  -3  -6  394.46   39.40
  -8   3   6  371.96   18.20
  -8   3   6  359.56   17.00
  -8   3   6  372.76   19.00
  -8   3   6  358.26   21.10
   7  -3  -6  188.08   21.60
   7  -3  -6  202.98   11.10
   7  -3  -6  195.28   10.50
   7  -3  -6  231.38   28.30
   7  -3  -6  185.38   10.50
  -7   3   6  194.28   11.10
  -7   3   6  200.48   12.30
  -7   3   6  192.78   11.40
  -7   3   6  198.78   14.10
   6  -3  -6  414.76   16.20
   6  -3  -6  403.46   16.10
   6  -3  -6  407.96   27.70
   6  -3  -6  413.36   29.10
   6  -3  -6  438.86   16.50
  -6   3   6  407.86   16.80
  -6   3   6  408.46   18.10
  -6   3   6  391.76   16.60
  -6   3   6  422.16   18.00
   5  -3  -6 1029.20   33.00
   5  -3  -6  939.31   32.20
   5  -3  -6  992.90   32.50
   5  -3  -6  977.70   43.70
  -5   3   6  983.30   34.30
  -5   3   6  966.10   33.30
  -5   3   6 1017.60   34.00
  -5   3   6  958.50   33.20
   4  -3  -6  473.65   16.80
   4  -3  -6  445.06   24.30
   4  -3  -6  451.05   16.20
   4  -3  -6  476.55   24.80
   4  -3  -6  473.25   16.30
  -4   3   6  474.35   17.60
  -4   3   6  472.15   18.00
  -4   3   6  463.75   17.50
  -4   3   6  486.95   17.20
   3  -3  -6 2407.26   79.49
   3  -3  -6 2400.56   72.09
   3  -3  -6 2292.87   79.39
   3  -3  -6 2211.68   70.99
   3  -3  -6 2327.37   70.99
  -3   3   6 2292.97   72.59
  -3   3   6 2278.47   72.29
  -3   3   6 2340.47   72.29
   2  -3  -6 1779.92   55.49
   2  -3  -6 1716.73   55.59
   2  -3  -6 1949.60   57.19
   2  -3  -6 1752.32   63.09
  -2   3   6 1776.42   57.09
  -2   3   6 1900.01   63.29
  -2   3   6 1831.02   56.49
  -2   3   6 1846.12   57.19
  -2   3   6 1881.01   57.29
   1  -3  -6 1175.08   43.90
  -1   3   6 1144.89   37.90
  -1   3   6 1249.07   43.50
  -1   3   6 1152.68   37.60
  -1   3   6 1220.08   38.00
   0  -3  -6 4087.49  124.59
   0   3   6 3733.43  116.89
   0   3   6 3649.23  117.09
   0   3   6 3828.52  122.79
  -1  -3  -6   31.70    2.10
  -1  -3  -6   33.10    2.10
  -1  -3  -6   26.00    6.30
   1   3   6   22.50    6.30
   1   3   6   34.30    4.40
   1   3   6   28.40    2.90
  -2  -3  -6 1985.80   61.09
  -2  -3  -6 2056.29   71.79
  -2  -3  -6 1812.92   61.09
   2   3   6 1968.50   63.09
   2   3   6 2079.99   71.59
   2   3   6 2002.00   61.99
  -3  -3  -6  203.08    9.20
  -3  -3  -6  203.88    8.80
  -3  -3  -6  202.18   17.10
   3   3   6  211.08    8.90
   3   3   6  192.48   17.50
   3   3   6  193.48    9.20
   3   3   6  224.28   10.90
  -4  -3  -6  239.28   11.40
  -4  -3  -6  260.17   11.30
  -4  -3  -6  231.88   21.00
   4   3   6  256.77   22.80
   4   3   6  258.17   10.60
   4   3   6  254.67   13.20
  -5  -3  -6   42.40    6.90
  -5  -3  -6   40.30    6.20
   5   3   6   41.80    7.00
   5   3   6   38.50    6.80
   5   3   6   32.20    4.40
  -6  -3  -6   52.79   18.10
  -6  -3  -6   39.10    8.10
   6   3   6   47.60    6.00
   6   3   6   47.70    8.40
   6   3   6   29.60   18.30
   6   3   6   51.39    8.80
   8  -4  -6  139.09   11.70
   8  -4  -6  157.78   28.10
   8  -4  -6  137.69   11.70
   8  -4  -6  123.69    9.60
  -8   4   6  151.58   12.00
  -8   4   6  132.89   15.00
  -8   4   6  129.39   13.20
  -8   4   6  112.59   12.60
   7  -4  -6  740.43   43.30
   7  -4  -6  736.43   26.50
   7  -4  -6  691.63   26.00
   7  -4  -6  695.03   42.60
  -7   4   6  693.43   28.80
  -7   4   6  721.33   27.20
  -7   4   6  752.22   28.80
  -7   4   6  694.03   26.70
   6  -4  -6  777.52   26.70
   6  -4  -6  710.03   39.70
   6  -4  -6  790.42   42.20
   6  -4  -6  745.93   26.80
   6  -4  -6  779.52   27.10
  -6   4   6  754.12   27.60
  -6   4   6  765.12   27.40
  -6   4   6  770.52   28.80
  -6   4   6  761.02   29.40
   5  -4  -6  529.25   19.60
   5  -4  -6  551.64   19.60
   5  -4  -6  560.44   19.90
   5  -4  -6  553.64   31.30
  -5   4   6  559.34   21.80
  -5   4   6  539.35   20.70
  -5   4   6  537.75   20.30
   4  -4  -6  915.01   28.70
   4  -4  -6  862.11   29.50
   4  -4  -6  855.41   39.80
   4  -4  -6  862.01   28.80
   4  -4  -6  820.82   38.40
  -4   4   6  906.21   30.30
  -4   4   6  880.81   30.60
   3  -4  -6  252.27    9.50
   3  -4  -6  244.68    9.70
   3  -4  -6  236.88   18.00
  -3   4   6  266.97   11.50
  -3   4   6  249.18   11.20
  -3   4   6  245.08   10.60
  -3   4   6  252.07   10.20
  -3   4   6  253.77   17.80
   2  -4  -6    5.60    5.80
   2  -4  -6    5.60    1.70
   2  -4  -6    6.10    2.60
   2  -4  -6    1.70    1.50
  -2   4   6   23.20    6.80
  -2   4   6    7.50    2.50
  -2   4   6    2.00    2.20
  -2   4   6    2.90    2.50
   1  -4  -6 1117.29   34.50
   1  -4  -6 1059.99   34.60
   1  -4  -6 1090.59   44.30
  -1   4   6 1099.49   35.90
  -1   4   6 1130.49   43.40
  -1   4   6 1135.59   36.50
  -1   4   6 1105.69   35.90
   0  -4  -6  651.33   31.10
   0  -4  -6  602.24   20.70
   0  -4  -6  644.24   20.70
   0   4   6  677.83   23.00
   0   4   6  592.44   21.70
   0   4   6  656.83   22.10
   0   4   6  664.53   29.80
  -1  -4  -6 3107.89   96.49
  -1  -4  -6 2996.40   96.59
  -1  -4  -6 3303.57  109.59
   1   4   6 3340.07  107.99
   1   4   6 3376.96   99.09
   1   4   6 2928.51   97.29
   1   4   6 3058.09   97.49
  -2  -4  -6  335.77   13.30
  -2  -4  -6  338.77   23.60
  -2  -4  -6  362.36   13.30
   2   4   6  372.76   15.70
   2   4   6  354.26   14.00
   2   4   6  348.47   23.00
   2   4   6  368.46   13.90
  -3  -4  -6 2178.98   67.29
  -3  -4  -6 2055.29   80.69
  -3  -4  -6 2044.20   67.29
   3   4   6 2152.38   67.99
   3   4   6 2204.98   67.29
   3   4   6 2196.98   81.19
  -4  -4  -6   43.30    6.20
  -4  -4  -6   20.90   12.50
  -4  -4  -6   26.20    4.90
   4   4   6   30.30    6.10
   4   4   6   24.50   13.00
   4   4   6   41.00    5.70
   4   4   6   29.40    5.00
  -5  -4  -6  377.56   16.40
  -5  -4  -6  369.66   16.80
   5   4   6  362.76   33.90
   5   4   6  357.16   16.90
   5   4   6  357.26   18.90
   5   4   6  374.66   15.60
  -6  -4  -6   16.60    6.60
  -6  -4  -6   16.00    7.30
   6   4   6   17.30    8.10
   6   4   6    6.60    5.40
   6   4   6   12.90    5.30
   7  -5  -6   48.50   17.50
   7  -5  -6  141.19    9.70
   7  -5  -6  159.08   29.80
   7  -5  -6  148.99    9.50
   7  -5  -6  134.39    9.80
  -7   5   6  131.99   14.10
  -7   5   6  145.39   11.70
  -7   5   6  133.19   10.30
  -7   5   6  148.79   11.70
   6  -5  -6   29.10   13.70
   6  -5  -6   41.60    6.50
   6  -5  -6   34.90    5.40
   6  -5  -6   47.30   15.20
   6  -5  -6   56.59    7.20
  -6   5   6   41.90    5.80
  -6   5   6   38.00    6.50
  -6   5   6   42.20    7.00
  -6   5   6   44.80    6.50
   5  -5  -6 1151.88   38.30
   5  -5  -6 1207.38   38.00
   5  -5  -6 1170.58   52.29
   5  -5  -6 1118.29   38.10
  -5   5   6 1110.69   39.00
  -5   5   6 1145.19   40.50
  -5   5   6 1123.19   38.80
  -5   5   6 1166.68   40.10
   4  -5  -6  199.08   19.40
   4  -5  -6  211.08    9.70
   4  -5  -6  222.48    9.40
   4  -5  -6  199.98    9.60
  -4   5   6  202.08   10.30
  -4   5   6  197.68    9.60
   3  -5  -6 2234.88   73.99
   3  -5  -6 2304.27   86.19
  -3   5   6 2513.25   76.19
  -3   5   6 2350.76   75.89
  -3   5   6 2413.26   75.19
  -3   5   6 2343.67   74.49
  -3   5   6 2526.65   86.79
   2  -5  -6  142.69   16.00
   2  -5  -6  158.08    7.10
   2  -5  -6  151.08    7.40
  -2   5   6  139.19    8.10
  -2   5   6  158.78    8.70
  -2   5   6  165.18    9.30
  -2   5   6  152.88   17.00
   1  -5  -6 1501.05   60.39
   1  -5  -6 1551.44   47.80
   1  -5  -6 1447.16   48.00
  -1   5   6 1504.05   49.30
  -1   5   6 1609.34   59.89
  -1   5   6 1470.25   50.29
  -1   5   6 1593.54   50.29
   0  -5  -6  150.78   17.70
   0  -5  -6  153.38    7.00
   0  -5  -6  153.18    7.40
   0   5   6  147.69    8.20
   0   5   6  156.98   16.40
   0   5   6  143.89    7.70
   0   5   6  161.98    9.70
  -1  -5  -6  611.44   21.70
  -1  -5  -6  658.83   21.60
  -1  -5  -6  600.94   33.90
   1   5   6  661.33   24.40
   1   5   6  632.54   33.10
   1   5   6  594.74   22.10
   1   5   6  637.34   22.60
  -2  -5  -6  120.49    7.70
  -2  -5  -6  116.69   18.80
  -2  -5  -6  123.09    7.00
   2   5   6  119.09    9.70
   2   5   6  104.99    7.80
   2   5   6  105.29    7.80
   2   5   6  131.69   18.20
  -3  -5  -6  476.75   33.50
  -3  -5  -6  468.55   18.70
  -3  -5  -6  507.45   18.60
   3   5   6  504.45   21.40
   3   5   6  439.36   32.90
   3   5   6  497.05   18.80
  -4  -5  -6    8.30    4.50
  -4  -5  -6   11.80    4.90
   4   5   6    7.70    6.10
   4   5   6    4.80    4.70
   4   5   6    1.30    4.30
  -5  -5  -6  275.47   15.60
   5   5   6  277.27   13.50
   5   5   6  273.97   15.50
   5   5   6  240.48   34.80
   5   5   6  283.87   18.00
   7  -6  -6  307.27   16.00
   7  -6  -6  302.87   38.80
   7  -6  -6  312.87   15.30
  -7   6   6  303.87   18.10
  -7   6   6  295.17   17.90
  -7   6   6  283.17   15.50
   6  -6  -6    4.40    5.00
   6  -6  -6    6.60    5.40
   6  -6  -6    6.30   12.40
   6  -6  -6   -0.30    4.60
   6  -6  -6   -3.40   15.20
  -6   6   6    5.50    6.40
  -6   6   6    5.60    6.10
  -6   6   6    3.60    4.40
  -6   6   6    1.40    4.70
   5  -6  -6  409.76   32.50
   5  -6  -6  476.15   34.10
   5  -6  -6  444.66   18.00
   5  -6  -6  434.96   17.70
   5  -6  -6  470.85   17.50
  -5   6   6  428.16   20.60
  -5   6   6  464.75   20.40
  -5   6   6  452.15   18.60
   4  -6  -6   49.30    6.40
   4  -6  -6   50.99    5.60
   4  -6  -6   48.00    6.10
  -4   6   6   50.09    6.50
  -4   6   6   52.19    8.40
  -4   6   6   48.60    7.90
  -4   6   6   47.40    6.60
   3  -6  -6  998.70   32.00
   3  -6  -6  933.21   32.30
   3  -6  -6  927.21   45.90
  -3   6   6  978.30   33.50
  -3   6   6  932.21   35.10
  -3   6   6  980.50   34.40
  -3   6   6 1000.00   46.30
   2  -6  -6   37.10    4.50
   2  -6  -6   32.10    5.00
   2  -6  -6   19.20   11.20
  -2   6   6   38.30   11.70
  -2   6   6   33.50    4.60
  -2   6   6   35.50    6.90
  -2   6   6   36.20    6.30
   1  -6  -6 1142.49   35.50
   1  -6  -6 1044.00   35.80
   1  -6  -6 1041.50   50.09
  -1   6   6 1097.99   36.60
  -1   6   6 1142.79   49.90
  -1   6   6 1014.70   37.60
  -1   6   6 1143.89   38.70
   0  -6  -6    1.00    2.60
   0  -6  -6   -2.90   10.10
   0  -6  -6    6.60    3.50
   0   6   6    3.90    9.60
   0   6   6    2.00    2.90
   0   6   6    1.10    3.60
  -1  -6  -6  188.98   10.00
  -1  -6  -6  223.18   26.10
  -1  -6  -6  214.28    9.90
   1   6   6  194.48   11.00
   1   6   6  192.58   10.10
   1   6   6  202.68   22.60
   1   6   6  189.18   12.60
  -2  -6  -6  100.09    8.10
  -2  -6  -6  117.69    7.80
  -2  -6  -6   78.49   18.00
   2   6   6  101.79   11.00
   2   6   6   84.69    7.30
   2   6   6   95.39    8.80
   2   6   6   85.29   18.10
   2   6   6   91.59    7.40
  -3  -6  -6   12.50    4.70
  -3  -6  -6   17.70    5.20
   3   6   6   14.20    5.40
   3   6   6   16.10    5.50
   3   6   6   11.70    6.70
  -4  -6  -6  495.55   21.10
   4   6   6  367.06   49.20
   4   6   6  486.55   21.70
   4   6   6  487.95   23.20
   4   6   6  526.25   21.00
   6  -7  -6   22.90    5.60
   6  -7  -6   29.80    6.70
   6  -7  -6   10.10   21.10
  -6   7   6   34.20    6.20
  -6   7   6   30.80    7.00
  -6   7   6   28.80    6.20
  -6   7   6   14.10    8.40
   5  -7  -6   98.69   23.20
   5  -7  -6  357.96   16.10
   5  -7  -6  413.46   15.50
   5  -7  -6  395.66   16.40
  -5   7   6  357.36   16.30
  -5   7   6  345.77   18.10
  -5   7   6  370.86   18.80
  -5   7   6  336.97   15.80
   4  -7  -6   29.40    4.90
   4  -7  -6   26.80    5.30
  -4   7   6    8.30   15.10
  -4   7   6   18.90    5.80
  -4   7   6   28.30    4.70
  -4   7   6   29.00    6.90
  -4   7   6   25.00    6.90
   3  -7  -6   22.70    4.80
   3  -7  -6   29.90    5.40
  -3   7   6   19.10    6.00
  -3   7   6   22.10    5.00
  -3   7   6   19.20    6.40
   2  -7  -6  265.17   10.90
   2  -7  -6  249.38   11.60
   2  -7  -6   51.79   18.00
  -2   7   6  222.48   12.80
  -2   7   6  232.78   11.80
  -2   7   6  251.97   26.20
  -2   7   6  249.08   14.70
   1  -7  -6    6.20    3.90
   1  -7  -6    7.20    3.50
   1  -7  -6   -1.00   13.60
  -1   7   6    7.10    5.00
  -1   7   6    8.10    5.70
  -1   7   6    6.70    3.80
  -1   7   6   14.40   13.70
   0  -7  -6  936.51   32.20
   0  -7  -6  694.03   47.80
   0  -7  -6 1008.80   31.80
   0   7   6  898.01   32.20
   0   7   6  970.20   48.80
   0   7   6  985.00   35.70
   0   7   6  950.60   33.80
  -1  -7  -6  258.47   13.10
  -1  -7  -6  267.07   12.30
   1   7   6  232.88   12.40
   1   7   6  258.67   30.10
   1   7   6  253.27   14.50
   1   7   6  249.58   16.20
   1   7   6  270.87   13.60
   2   7   6  369.86   16.50
   2   7   6  378.86   20.80
   2   7   6  340.87   17.70
   2   7   6  365.06   16.00
   4  -8  -6  429.86   19.00
   4  -8  -6  456.75   19.60
  -4   8   6  417.36   22.00
  -4   8   6  382.46   18.70
  -4   8   6  456.45   22.60
  -4   8   6  411.06   18.40
   3  -8  -6  508.25   21.50
   3  -8  -6  549.35   20.80
  -3   8   6  533.15   42.60
  -3   8   6  557.74   25.40
  -3   8   6  495.65   21.20
  -3   8   6  511.65   23.30
  -2   8   6  107.59   12.40
  -2   8   6  122.29   13.70
  -2   8   6  120.99   24.50
  -2   8   6  111.29    9.70
  -1   8   6  314.57   41.60
  -1   8   6  275.77   15.00
  -1   8   6  288.57   18.30
  -1   8   6  280.37   16.70
   0  -8  -6   28.30    6.40
   0   8   6   30.30    5.50
   0   8   6   22.60    5.90
   0   8   6   49.10   25.30
   0   8   6   16.50    6.80
   0   8   6   21.00    7.30
   2   8  -7  449.16   20.60
   2   8  -7  441.56   47.80
   2   8  -7  453.15   22.50
   2   8  -7  434.76   21.30
  -2  -8   7  443.66   47.70
   1   8  -7   41.70    6.50
   1   8  -7   33.90    3.10
   1   8  -7   52.29   20.10
   1   8  -7   37.40    7.90
   1   8  -7   37.00    7.70
  -1  -8   7   22.70   21.70
  -1  -8   7   40.60    7.20
  -1  -8   7   26.00    8.70
   0   8  -7  675.83   27.40
   0   8  -7  619.04   20.40
   0   8  -7  683.23   45.20
   0   8  -7  659.93   24.80
   0   8  -7  639.84   26.60
   0  -8   7  659.03   26.40
   0  -8   7  644.64   28.10
   0  -8   7  645.64   49.10
  -1   8  -7   18.00    5.10
  -1   8  -7   14.20    6.30
  -1   8  -7   16.30    6.40
  -1   8  -7   19.20   15.50
  -1   8  -7   16.90    2.70
   1  -8   7    8.60   15.20
   1  -8   7   16.80    7.60
   1  -8   7   22.00    6.20
  -2   8  -7  611.04   19.90
  -2   8  -7  586.44   22.90
  -2   8  -7  587.64   25.20
  -2   8  -7  616.94   25.70
  -2   8  -7  609.94   43.90
   2  -8   7  657.33   46.20
   2  -8   7  658.23   25.20
   2  -8   7  578.24   26.00
  -3   8  -7   16.40    6.50
  -3   8  -7   23.10    4.70
  -3   8  -7   17.00   18.00
  -3   8  -7   18.20    6.90
   3  -8   7   20.20    7.70
   3  -8   7   19.90    6.20
   3  -8   7   11.80   18.40
  -4   8  -7  685.23   28.60
  -4   8  -7  739.83   50.39
  -4   8  -7  742.63   29.50
  -4   8  -7  674.53   26.60
   4  -8   7  758.32   23.90
   4  -8   7  692.13   30.20
   4  -8   7  753.52   28.80
   4  -8   7  625.44   46.10
  -5   8  -7   47.40   20.60
  -5   8  -7   34.20    8.10
  -5   8  -7   23.80    6.80
  -5   8  -7   49.60    8.70
  -5   8  -7   36.60    4.80
   5  -8   7    0.80   22.80
   5  -8   7   35.30    8.70
   5  -8   7   61.29   11.50
   3   7  -7   17.80   21.60
   3   7  -7    6.30    6.40
   3   7  -7   -0.70    2.60
   3   7  -7   10.20    6.40
   3   7  -7   12.60    2.60
   3   7  -7    7.60    4.80
  -3  -7   7    7.50    6.40
  -3  -7   7    0.60    5.80
  -3  -7   7    5.70   21.30
   2   7  -7  734.03   48.80
   2   7  -7  725.13   28.10
   2   7  -7  701.73   22.40
   2   7  -7  712.83   26.50
   2   7  -7  675.13   22.30
   2   7  -7  690.53   27.20
  -2  -7   7  676.53   29.30
  -2  -7   7  656.23   47.30
  -2  -7   7  724.43   27.20
   1   7  -7   80.69   20.30
   1   7  -7   68.59    3.40
   1   7  -7   70.19    9.50
   1   7  -7   66.79    3.20
   1   7  -7   76.09    9.10
   1   7  -7   69.79    8.20
  -1  -7   7   82.69   20.00
  -1  -7   7   74.49   11.10
  -1  -7   7   75.19    8.50
   0   7  -7 1769.42   54.99
   0   7  -7 1848.62   58.89
   0   7  -7 1810.82   59.89
   0   7  -7 1963.00   79.39
   0  -7   7 1780.52   79.39
   0  -7   7 1760.42   61.59
  -1   7  -7   -1.60    4.30
  -1   7  -7    0.20    1.10
  -1   7  -7   -5.00    4.50
  -1   7  -7    2.90    3.00
  -1   7  -7  -10.90   12.70
   1  -7   7    6.50    5.70
   1  -7   7   -3.00   13.70
   1  -7   7   -0.80    4.30
  -2   7  -7 1805.92   57.19
  -2   7  -7 1737.13   58.79
  -2   7  -7 1836.82   75.49
  -2   7  -7 1826.22   59.59
   2  -7   7 1708.33   76.29
   2  -7   7 1842.72   59.19
   2  -7   7 1746.43   60.19
  -3   7  -7   27.60   15.00
  -3   7  -7   32.80    5.10
  -3   7  -7   33.40    5.90
  -3   7  -7   26.50    6.10
   3  -7   7   29.10    6.00
   3  -7   7   32.70   15.00
   3  -7   7   35.00    5.90
  -4   7  -7  491.85   37.30
  -4   7  -7  485.55   19.90
  -4   7  -7  509.75   21.20
  -4   7  -7  475.15   17.50
  -4   7  -7  466.75   20.50
   4  -7   7  463.85   36.60
   4  -7   7  492.35   21.00
   4  -7   7  470.15   21.40
   4  -7   7  506.15   16.90
  -5   7  -7   77.19   11.10
  -5   7  -7   77.59    6.20
  -5   7  -7   69.69    8.20
  -5   7  -7   88.19   21.50
  -5   7  -7   89.19   10.60
   5  -7   7   74.29   10.20
   5  -7   7   90.49   11.90
   5  -7   7   79.69   20.80
   5  -7   7   82.59    6.50
  -6   7  -7   79.39   11.50
  -6   7  -7   85.49    5.50
  -6   7  -7   89.19   13.10
   6  -7   7  131.09   25.30
   6  -7   7   88.69   12.60
   6  -7   7   90.59   11.60
   6  -7   7   70.69   23.40
   6  -7   7   92.89    7.70
   4   6  -7 1335.67   46.40
   4   6  -7 1388.36   43.20
   4   6  -7 1387.66   70.19
   4   6  -7 1394.06   47.70
   4   6  -7 1350.56   46.70
  -4  -6   7 1340.17   50.19
  -4  -6   7 1394.36   47.40
  -4  -6   7 1297.17   68.09
  -4  -6   7 1298.47   45.90
   3   6  -7   32.70    5.70
   3   6  -7   37.60    3.90
   3   6  -7   30.40    5.30
   3   6  -7   43.90   17.70
   3   6  -7   25.90    3.40
   3   6  -7   34.80    6.20
  -3  -6   7   36.90    6.10
  -3  -6   7   30.50    5.90
  -3  -6   7   39.70   14.60
  -3  -6   7   34.20    7.90
   2   6  -7 1266.07   42.10
   2   6  -7 1216.68   40.80
   2   6  -7 1242.88   58.69
   2   6  -7 1200.38   41.20
   2   6  -7 1183.68   37.40
   2   6  -7 1170.08   37.40
  -2  -6   7 1202.08   43.60
  -2  -6   7 1222.08   59.09
   1   6  -7    3.20    0.70
   1   6  -7    4.20    0.70
   1   6  -7   14.60    4.30
   1   6  -7    7.30   11.30
   1   6  -7    5.30    3.50
   1   6  -7    3.10    3.30
  -1  -6   7    1.40    3.50
  -1  -6   7    5.90   12.20
  -1  -6   7    2.60    4.80
   0   6  -7  551.44   34.00
   0   6  -7  509.15   20.70
   0   6  -7  539.85   19.70
   0   6  -7  517.25   20.20
   0  -6   7  497.65   21.80
   0  -6   7  568.14   41.00
  -1   6  -7  672.33   37.10
  -1   6  -7  653.13   24.40
  -1   6  -7  667.53   22.80
  -1   6  -7  648.94   23.80
   1  -6   7  625.14   37.30
   1  -6   7  636.84   25.40
   1  -6   7  659.93   24.10
  -2   6  -7  586.04   20.30
  -2   6  -7  565.34   22.10
  -2   6  -7  588.94   34.60
  -2   6  -7  582.34   21.60
   2  -6   7  550.04   22.90
   2  -6   7  623.64   24.20
   2  -6   7  539.25   35.50
  -3   6  -7 1502.95   62.89
  -3   6  -7 1442.26   48.80
  -3   6  -7 1469.75   46.90
  -3   6  -7 1559.24   49.80
   3  -6   7 1532.65   49.60
   3  -6   7 1453.45   64.69
   3  -6   7 1427.36   49.90
   3  -6   7 1481.75   45.90
  -4   6  -7 1061.49   33.70
  -4   6  -7 1079.29   37.10
  -4   6  -7 1068.09   36.70
  -4   6  -7 1063.09   35.70
  -4   6  -7 1044.30   50.49
   4  -6   7 1072.59   33.70
   4  -6   7 1024.30   37.70
   4  -6   7 1090.79   37.20
   4  -6   7  982.20   49.50
  -5   6  -7  558.64   22.60
  -5   6  -7  637.34   23.70
  -5   6  -7  566.34   19.00
   5  -6   7  566.84   23.70
   5  -6   7  565.94   20.00
   5  -6   7  536.95   37.60
   5  -6   7  589.84   23.70
  -6   6  -7  633.14   20.80
  -6   6  -7  698.03   26.70
  -6   6  -7  677.43   26.10
  -6   6  -7  657.03   20.80
   6  -6   7  642.24   41.80
   6  -6   7  638.94   26.80
   6  -6   7  634.44   24.90
   6  -6   7  715.03   44.00
   6  -6   7  654.23   27.00
  -7   6  -7   75.09   11.00
  -7   6  -7   83.69   11.60
   7  -6   7   65.09   12.20
   7  -6   7   66.19   11.70
   7  -6   7   73.39    8.60
   7  -6   7   59.29   22.90
   7  -6   7   55.29   23.00
   5   5  -7  180.78   12.10
   5   5  -7  191.88   35.40
   5   5  -7  191.08   13.00
   5   5  -7  177.18   12.60
   5   5  -7  196.08    9.20
  -5  -5   7  164.68   12.30
  -5  -5   7  164.38   14.80
  -5  -5   7  167.68   13.20
  -5  -5   7  186.28   31.90
   4   5  -7  472.35   20.10
   4   5  -7  488.85   16.80
   4   5  -7  480.15   19.80
   4   5  -7  460.75   37.30
  -4  -5   7  481.35   19.30
  -4  -5   7  467.95   36.40
  -4  -5   7  475.35   22.80
  -4  -5   7  480.55   20.20
   3   5  -7 1102.09   37.60
   3   5  -7 1143.79   34.90
   3   5  -7 1142.79   38.30
   3   5  -7 1118.49   53.49
   3   5  -7 1129.59   37.80
  -3  -5   7 1103.99   37.30
  -3  -5   7 1061.39   39.70
  -3  -5   7 1050.39   52.89
   2   5  -7 1158.28   39.10
   2   5  -7 1145.69   38.70
   2   5  -7 1226.08   39.40
   2   5  -7 1222.88   53.79
   2   5  -7 1119.29   35.60
   2   5  -7 1155.98   35.70
  -2  -5   7 1159.18   53.79
  -2  -5   7 1208.28   39.40
  -2  -5   7 1090.89   40.60
  -2  -5   7 1134.29   38.20
   1   5  -7 1356.06   42.90
   1   5  -7 1324.87   43.40
   1   5  -7 1322.57   43.00
   1   5  -7 1283.87   61.19
  -1  -5   7 1286.17   57.69
  -1  -5   7 1321.27   42.50
  -1  -5   7 1314.07   44.90
   0   5  -7 1686.33   53.69
   0   5  -7 1703.13   52.89
   0   5  -7 1651.33   53.29
   0   5  -7 1695.23   65.49
   0  -5   7 1695.83   53.59
   0  -5   7 1579.14   65.99
   0  -5   7 1627.84   54.79
  -1   5  -7  680.43   23.00
  -1   5  -7  672.83   23.80
  -1   5  -7  695.73   24.30
  -1   5  -7  701.93   34.40
   1  -5   7  682.53   25.30
   1  -5   7  669.33   34.90
   1  -5   7  709.53   24.40
  -2   5  -7 1008.10   33.80
  -2   5  -7  998.30   43.40
  -2   5  -7  986.40   33.10
  -2   5  -7 1009.20   32.00
   2  -5   7  958.80   34.30
   2  -5   7 1014.30   33.80
   2  -5   7  999.50   30.70
   2  -5   7  995.40   44.60
  -3   5  -7  565.64   20.60
  -3   5  -7  561.44   18.30
  -3   5  -7  540.15   19.70
  -3   5  -7  537.35   20.00
   3  -5   7  567.34   18.10
   3  -5   7  558.54   20.80
   3  -5   7  545.15   21.30
  -4   5  -7  431.46   17.10
  -4   5  -7  452.95   16.90
  -4   5  -7  437.16   28.20
  -4   5  -7  430.36   14.60
  -4   5  -7  452.95   17.90
   4  -5   7  433.06   20.60
   4  -5   7  458.45   18.20
   4  -5   7  443.16   15.40
  -5   5  -7  584.24   19.00
  -5   5  -7  665.23   23.60
  -5   5  -7  584.94   19.00
  -5   5  -7  599.84   22.90
   5  -5   7  601.94   24.10
   5  -5   7  641.04   21.30
   5  -5   7  648.04   35.60
   5  -5   7  580.74   36.10
   5  -5   7  620.54   24.10
  -6   5  -7  187.98   12.60
  -6   5  -7  195.08   12.00
   6  -5   7  180.48   12.90
   6  -5   7  167.98   24.60
   6  -5   7  195.78   12.90
   6  -5   7  181.08   24.80
   6  -5   7  191.38    9.90
  -7   5  -7  386.26   18.90
  -7   5  -7  374.56   18.60
   7  -5   7  357.66   19.10
   7  -5   7  370.56   16.10
   7  -5   7  363.26   32.80
   7  -5   7  362.06   19.50
   7  -5   7  356.06   36.50
   6   4  -7  223.88   14.20
   6   4  -7  224.18   12.60
   6   4  -7  232.68   39.10
   6   4  -7  218.88   13.90
   6   4  -7  217.78   13.80
  -6  -4   7  232.78   29.20
  -6  -4   7  222.98   18.10
  -6  -4   7  236.48   14.20
  -6  -4   7  213.58   12.80
   5   4  -7  614.14   41.10
   5   4  -7  668.53   25.20
   5   4  -7  630.74   24.30
   5   4  -7  657.63   25.30
   5   4  -7  671.83   22.70
  -5  -4   7  625.34   24.30
  -5  -4   7  675.83   26.00
  -5  -4   7  633.74   27.30
  -5  -4   7  663.33   41.30
   4   4  -7  221.68   24.80
   4   4  -7  234.08   11.80
   4   4  -7  231.98   11.30
   4   4  -7  226.08   11.10
   4   4  -7  222.58    9.10
  -4  -4   7  215.58   13.70
  -4  -4   7  237.98   11.60
  -4  -4   7  226.78   24.10
  -4  -4   7  247.08   12.30
   3   4  -7 1514.95   48.40
   3   4  -7 1487.45   48.40
   3   4  -7 1460.85   47.80
   3   4  -7 1499.95   45.90
  -3  -4   7 1422.26   52.49
  -3  -4   7 1506.05   48.10
  -3  -4   7 1463.05   68.29
   2   4  -7  355.76   13.60
   2   4  -7  345.97   13.80
   2   4  -7  352.46   11.20
   2   4  -7  339.47   23.90
   2   4  -7  357.06   13.70
  -2  -4   7  339.27   13.50
  -2  -4   7  336.67   23.30
  -2  -4   7  365.56   14.00
  -2  -4   7  343.07   15.40
   1   4  -7 2936.61   92.39
   1   4  -7 3156.58  103.99
   1   4  -7 2994.50   92.49
   1   4  -7 2965.20   92.59
  -1  -4   7 2962.30   92.29
  -1  -4   7 2921.31   93.99
  -1  -4   7 3020.70  104.29
   0   4  -7  844.12   27.30
   0   4  -7  812.02   36.30
   0   4  -7  840.02   27.50
   0   4  -7  850.61   27.20
   0  -4   7  809.02   28.70
   0  -4   7  804.42   37.00
   0  -4   7  829.82   27.00
   0  -4   7  843.82   27.90
  -1   4  -7 2620.44   81.09
  -1   4  -7 2581.64   80.39
  -1   4  -7 2758.52   90.89
  -1   4  -7 2553.94   80.79
   1  -4   7 2578.54   82.19
   1  -4   7 2642.04   81.49
   1  -4   7 2606.74   91.09
  -2   4  -7  594.94   28.40
  -2   4  -7  604.54   19.30
  -2   4  -7  581.64   20.50
  -2   4  -7  601.34   20.20
   2  -4   7  607.44   18.60
   2  -4   7  605.84   21.00
   2  -4   7  587.04   21.50
   2  -4   7  555.74   28.50
  -3   4  -7  997.70   32.30
  -3   4  -7  966.70   31.80
  -3   4  -7  967.40   31.60
  -3   4  -7  954.70   30.10
  -3   4  -7  971.90   41.00
   3  -4   7  959.10   33.10
   3  -4   7  950.00   41.50
   3  -4   7  990.30   32.80
   3  -4   7  977.50   30.60
  -4   4  -7    3.90    2.70
  -4   4  -7    7.40    3.20
   4  -4   7    4.30    3.30
   4  -4   7    3.50    3.10
   4  -4   7    4.60    1.90
   4  -4   7    5.90    7.30
  -5   4  -7  519.95   19.50
  -5   4  -7  529.35   19.80
   5  -4   7  515.85   31.10
   5  -4   7  516.75   18.30
   5  -4   7  482.25   30.20
   5  -4   7  527.55   20.80
   5  -4   7  491.75   20.40
  -6   4  -7   82.69    8.60
  -6   4  -7   75.09    7.20
   6  -4   7   95.59   19.40
   6  -4   7   67.19    6.50
   6  -4   7   64.69    8.90
   6  -4   7   69.29   15.50
   6  -4   7   75.99    9.00
  -7   4  -7  587.44   23.40
   7  -4   7  528.15   40.20
   7  -4   7  571.54   24.70
   7  -4   7  613.74   22.40
   7  -4   7  583.14   24.80
   7  -4   7  598.04   40.70
  -8   4  -7   23.20    8.50
  -8   4  -7   23.20    8.20
   8  -4   7   32.50   22.20
   8  -4   7   25.10    8.60
   8  -4   7   16.70    6.00
   8  -4   7   19.10    6.60
   7   3  -7  132.69   12.30
   7   3  -7  140.79    9.90
   7   3  -7  141.29   10.90
   7   3  -7  131.99   26.10
   7   3  -7  140.89   12.50
  -7  -3   7  114.99   26.40
  -7  -3   7  136.29   11.80
  -7  -3   7  133.99   13.10
  -7  -3   7  130.29   15.80
   6   3  -7  331.27   16.10
   6   3  -7  313.87   15.40
   6   3  -7  308.47   12.80
   6   3  -7  295.27   35.00
   6   3  -7  291.97   14.30
  -6  -3   7  280.07   31.20
  -6  -3   7  323.67   15.90
  -6  -3   7  297.17   18.60
  -6  -3   7  298.57   14.50
   5   3  -7  798.92   28.50
   5   3  -7  801.72   26.40
   5   3  -7  771.72   27.60
   5   3  -7  812.52   44.80
   5   3  -7  798.72   28.30
  -5  -3   7  760.42   42.50
  -5  -3   7  759.32   27.90
  -5  -3   7  753.32   30.20
  -5  -3   7  820.92   29.20
   4   3  -7  802.52   31.00
   4   3  -7  838.82   29.30
   4   3  -7  841.92   28.80
   4   3  -7  896.51   43.30
   4   3  -7  855.81   27.50
  -4  -3   7  852.41   29.20
  -4  -3   7  856.31   41.30
   3   3  -7 1070.79   35.50
   3   3  -7 1098.49   36.20
   3   3  -7 1143.89   47.50
   3   3  -7 1066.49   34.20
   3   3  -7 1093.89   35.90
  -3  -3   7 1119.79   46.70
  -3  -3   7 1130.79   36.30
  -3  -3   7 1062.69   35.90
  -3  -3   7 1072.79   37.50
   2   3  -7  138.79    6.50
   2   3  -7  152.08   14.50
   2   3  -7  137.89    5.10
   2   3  -7  136.89    6.70
   2   3  -7  144.69    7.30
  -2  -3   7  145.19    7.10
  -2  -3   7  155.68   14.10
  -2  -3   7  146.49    7.00
  -2  -3   7  151.58    8.30
   1   3  -7 1497.35   46.10
   1   3  -7 1444.56   45.30
   1   3  -7 1524.75   54.49
   1   3  -7 1406.16   45.40
  -1  -3   7 1427.96   53.79
  -1  -3   7 1440.06   46.90
  -1  -3   7 1434.96   46.00
  -1  -3   7 1462.45   45.80
   0   3  -7  672.53   28.30
   0   3  -7  625.14   20.80
   0   3  -7  652.03   21.50
   0   3  -7  640.64   20.90
   0  -3   7  655.13   21.80
   0  -3   7  652.03   22.50
   0  -3   7  663.33   21.40
   0  -3   7  670.63   28.90
  -1   3  -7 3500.55  106.09
  -1   3  -7 3510.05  113.19
   1  -3   7 3476.05  107.39
   1  -3   7 3360.56  113.79
   1  -3   7 3506.75  105.99
   1  -3   7 3576.24  106.99
  -2   3  -7  738.23   23.40
  -2   3  -7  708.73   22.60
  -2   3  -7  706.13   23.10
  -2   3  -7  723.93   30.20
  -2   3  -7  703.63   23.40
   2  -3   7  743.83   31.00
   2  -3   7  754.32   24.70
   2  -3   7  725.13   24.30
   2  -3   7  712.13   22.70
   3  -3   7 4692.23  141.19
   3  -3   7 4752.42  142.79
   3  -3   7 4683.73  150.78
   3  -3   7 4482.85  142.69
  -4   3  -7   32.90    3.80
  -4   3  -7   15.90    3.00
   4  -3   7   13.50    3.20
   4  -3   7   16.10    6.70
   4  -3   7   26.40    4.80
   4  -3   7   32.90    3.50
   4  -3   7   18.00    7.40
  -5   3  -7 2091.19   67.79
  -5   3  -7 2227.08   68.29
   5  -3   7 2165.08   79.59
   5  -3   7 2185.58   69.39
   5  -3   7 2082.49   68.89
   5  -3   7 2146.39   67.29
  -6   3  -7  171.48   10.40
  -6   3  -7  169.98    9.80
   6  -3   7  175.88   21.60
   6  -3   7  187.88   22.50
   6  -3   7  167.48   11.00
   6  -3   7  201.88   12.10
  -7   3  -7  299.17   16.00
   7  -3   7  311.37   30.50
   7  -3   7  333.07   31.00
   7  -3   7  310.47   16.40
   7  -3   7  324.27   17.40
   7  -3   7  321.67   14.10
  -8   3  -7    1.00    7.20
  -8   3  -7   -6.80    7.00
   8  -3   7   -0.20   15.80
   8  -3   7   -9.70   24.00
   8  -3   7    6.40    6.70
   8  -3   7   -5.80    7.20
   8  -3   7    5.30    6.00
   7   2  -7  236.18   11.60
   7   2  -7  238.28   13.90
   7   2  -7  223.78   13.00
   7   2  -7  257.37   36.90
  -7  -2   7  231.08   13.00
  -7  -2   7  236.98   31.60
  -7  -2   7  239.18   15.50
  -7  -2   7  243.18   17.70
   6   2  -7    7.60    3.50
   6   2  -7    2.30   12.10
   6   2  -7    0.30    4.50
   6   2  -7    4.00    5.50
  -6  -2   7    5.20    6.00
  -6  -2   7    7.80   12.40
  -6  -2   7    1.50    3.80
  -6  -2   7    5.80    4.10
   5   2  -7  863.51   44.30
   5   2  -7  885.21   28.60
   5   2  -7  887.01   30.10
   5   2  -7  836.92   29.20
   5   2  -7  884.31   30.10
  -5  -2   7  816.22   31.40
  -5  -2   7  847.32   49.90
  -5  -2   7  861.71   30.10
   4   2  -7  310.77   12.30
   4   2  -7  281.87   11.70
   4   2  -7  301.37   11.00
   4   2  -7  312.57   23.30
  -4  -2   7  283.27   20.90
  -4  -2   7  293.77   13.80
  -4  -2   7  308.87   12.80
  -4  -2   7  280.97   13.50
   3   2  -7 3516.65  104.29
   3   2  -7 3515.15  114.59
   3   2  -7 3378.86  103.39
   3   2  -7 3312.47  102.49
   3   2  -7 3231.38  103.09
  -3  -2   7 3341.87  103.99
  -3  -2   7 3397.66  112.79
  -3  -2   7 3307.37  103.89
  -3  -2   7 3337.87  104.89
   2   2  -7  122.29    5.10
   2   2  -7  137.39   12.10
   2   2  -7  121.39    5.30
   2   2  -7  123.19    6.30
   2   2  -7  112.59    4.60
  -2  -2   7  133.59    5.90
  -2  -2   7  122.89    6.10
  -2  -2   7  124.59    6.80
  -2  -2   7  137.79   11.40
   1   2  -7 5678.73  174.08
  -1  -2   7 5397.76  173.58
   0   2  -7   14.90    2.10
   0   2  -7   13.20    4.20
   0  -2   7   15.20    2.00
   0  -2   7   14.10    4.00
   0  -2   7   16.50    0.90
   0  -2   7   13.20    2.40
   0  -2   7   18.10    2.10
  -1   2  -7 3111.79   93.39
  -1   2  -7 3048.29   97.79
   1  -2   7 3098.19   98.69
   1  -2   7 3095.39   93.39
   1  -2   7 3043.30   94.19
   2  -2   7  117.49    8.90
   2  -2   7  126.29    5.90
   2  -2   7  124.59    9.70
   2  -2   7  140.19    6.20
  -3   2  -7 1029.80   33.70
  -3   2  -7 1070.89   33.60
   3  -2   7 1104.49   34.20
   3  -2   7 1085.79   41.30
   3  -2   7 1092.89   40.70
   3  -2   7 1115.59   35.30
   3  -2   7 1059.69   35.00
  -4   2  -7  878.21   28.50
  -4   2  -7  893.81   28.70
   4  -2   7  877.71   28.70
   4  -2   7  876.21   29.90
   4  -2   7  894.81   37.00
   4  -2   7  848.92   29.50
   4  -2   7  859.71   37.20
  -5   2  -7  537.35   19.40
  -5   2  -7  542.35   19.50
   5  -2   7  544.05   19.20
   5  -2   7  514.05   20.20
   5  -2   7  561.04   21.10
   5  -2   7  551.74   29.50
   5  -2   7  557.54   19.50
   5  -2   7  526.55   30.00
  -6   2  -7  722.93   24.70
  -6   2  -7  658.83   24.20
   6  -2   7  671.43   26.20
   6  -2   7  651.83   24.20
   6  -2   7  674.93   24.00
   6  -2   7  654.63   24.80
   6  -2   7  655.23   37.10
  -7   2  -7  237.68   12.30
  -7   2  -7  230.08   13.90
   7  -2   7  216.58   13.30
   7  -2   7  236.78   12.90
   7  -2   7  220.98   11.50
   7  -2   7  202.28   27.00
   7  -2   7  214.58   27.30
   7  -2   7  234.18   13.60
  -8   2  -7  175.68   14.10
  -8   2  -7  190.68   12.90
   8  -2   7  169.08   14.00
   8  -2   7  181.48   11.40
   8  -2   7  160.18   13.40
   8  -2   7  176.78   34.50
   8  -2   7  181.58   13.60
   8  -2   7  121.09   25.70
   8   1  -7  -10.40   23.90
   8   1  -7    8.00    6.30
  -8  -1   7   16.50    6.80
   7   1  -7  568.24   21.00
   7   1  -7  545.25   42.90
   7   1  -7  563.04   22.20
   7   1  -7  566.74   22.70
   7   1  -7  533.05   21.70
  -7  -1   7  562.84   39.10
  -7  -1   7  537.15   24.60
  -7  -1   7  544.25   22.20
  -7  -1   7  589.74   24.20
   6   1  -7   98.59    7.40
   6   1  -7  103.59   22.40
   6   1  -7   94.49    7.50
   6   1  -7   93.89    6.40
   6   1  -7  100.29    7.60
  -6  -1   7   99.49    8.90
  -6  -1   7   88.29   15.80
  -6  -1   7   92.39    7.60
  -6  -1   7   91.79    9.10
   5   1  -7 1294.97   55.49
   5   1  -7 1283.87   41.80
   5   1  -7 1245.78   41.20
   5   1  -7 1284.57   41.00
   5   1  -7 1229.18   43.70
  -5  -1   7 1312.37   43.10
  -5  -1   7 1268.27   43.50
  -5  -1   7 1279.87   42.30
   4   1  -7   39.80    3.50
   4   1  -7   40.90    3.70
   4   1  -7   39.70    4.70
   4   1  -7   42.00    9.50
   4   1  -7   40.80    3.90
  -4  -1   7   37.00    4.50
  -4  -1   7   38.40    4.30
  -4  -1   7   36.80    5.30
  -4  -1   7   44.20    9.60
   3   1  -7 1947.91   61.69
   3   1  -7 1977.60   61.69
   3   1  -7 2043.20   62.99
   3   1  -7 2115.69   70.99
   3   1  -7 1895.71   61.49
  -3  -1   7 2062.09   62.99
  -3  -1   7 2049.59   69.79
  -3  -1   7 1951.30   62.49
  -3  -1   7 2041.70   61.79
  -3  -1   7 1991.30   63.29
   2   1  -7  332.47   16.70
   2   1  -7  326.67   11.90
   2   1  -7  322.57   10.90
  -2  -1   7  317.27   11.30
  -2  -1   7  328.97   15.90
  -2  -1   7  318.07   10.90
  -2  -1   7  330.17   12.00
  -2  -1   7  324.47   12.00
   1   1  -7 2735.13   86.09
   1   1  -7 2724.13   82.99
  -1  -1   7 2665.53   85.39
  -1  -1   7 2700.23   82.99
   0   1  -7 1367.46   43.20
   0   1  -7 1383.46   42.30
   0  -1   7 1386.86   43.60
   0  -1   7 1359.66   42.30
   0  -1   7 1343.87   41.70
   0  -1   7 1347.97   41.60
   0  -1   7 1349.07   41.50
   1  -1   7 1699.33   53.49
   1  -1   7 1654.13   53.89
   1  -1   7 1648.44   51.49
   1  -1   7 1719.63   51.49
   1  -1   7 1692.23   51.39
   2  -1   7 1338.57   42.20
   2  -1   7 1395.16   45.80
   2  -1   7 1300.17   42.00
   2  -1   7 1367.96   46.00
   2  -1   7 1343.57   40.90
   3  -1   7  366.96   13.50
   3  -1   7  379.26   12.60
   3  -1   7  338.47   12.90
   3  -1   7  352.16   18.00
   3  -1   7  352.36   18.00
  -4   1  -7 1349.16   42.60
  -4   1  -7 1349.86   42.50
   4  -1   7 1342.37   51.49
   4  -1   7 1386.66   51.29
   4  -1   7 1370.16   44.20
   4  -1   7 1319.97   43.60
  -5   1  -7   60.59    5.40
  -5   1  -7   64.59    5.20
   5  -1   7   55.09    5.90
   5  -1   7   72.59   15.30
   5  -1   7   67.99    6.80
   5  -1   7   67.99    5.10
   5  -1   7   65.09   13.00
  -6   1  -7 1196.78   40.50
  -6   1  -7 1273.87   40.50
   6  -1   7 1206.68   54.19
   6  -1   7 1218.18   40.30
   6  -1   7 1190.98   42.30
   6  -1   7 1232.68   40.60
   6  -1   7 1182.48   41.10
   6  -1   7 1203.28   53.69
  -7   1  -7  122.19   10.10
  -7   1  -7  137.49   10.00
   7  -1   7  133.59   10.50
   7  -1   7  104.69   20.20
   7  -1   7  139.79   10.00
   7  -1   7  132.49   10.90
   7  -1   7  118.49   10.60
   7  -1   7  157.48   24.90
  -8   1  -7  429.96   20.70
  -8   1  -7  458.05   20.30
   8  -1   7  421.76   20.10
   8  -1   7  410.66   21.10
   8  -1   7  429.56   20.60
   8  -1   7  401.26   39.80
   8  -1   7  397.06   18.40
   8   0  -7  201.68   13.60
   8   0  -7  166.48   36.30
   8   0  -7  181.28   11.80
   8   0  -7  171.58   11.60
  -8   0   7  167.88   16.20
  -8   0   7  168.48   11.60
  -8   0   7  182.38   31.40
  -8   0   7  181.78   14.50
   7   0  -7  749.23   27.70
   7   0  -7  753.92   26.60
   7   0  -7  702.63   45.50
   7   0  -7  770.62   28.00
   7   0  -7  700.03   26.40
  -7   0   7  704.73   42.00
  -7   0   7  731.33   30.10
  -7   0   7  740.33   27.90
  -7   0   7  761.12   29.10
   6   0  -7  420.76   30.20
   6   0  -7  415.36   16.50
   6   0  -7  440.56   17.30
   6   0  -7  437.36   17.00
   6   0  -7  433.16   16.50
  -6   0   7  429.96   28.40
  -6   0   7  418.66   18.60
  -6   0   7  439.36   18.30
  -6   0   7  417.86   17.30
   5   0  -7 1381.76   44.50
   5   0  -7 1369.96   43.50
   5   0  -7 1354.86   43.70
   5   0  -7 1304.27   43.30
   5   0  -7 1357.76   55.79
  -5   0   7 1419.96   43.70
  -5   0   7 1303.47   54.09
  -5   0   7 1352.46   45.50
  -5   0   7 1391.36   44.90
  -5   0   7 1340.17   44.50
   4   0  -7  512.35   17.90
   4   0  -7  548.05   27.20
   4   0  -7  539.95   18.20
   4   0  -7  545.15   19.30
   4   0  -7  554.44   18.40
  -4   0   7  520.55   25.70
  -4   0   7  536.75   19.50
  -4   0   7  531.95   19.80
  -4   0   7  542.45   19.20
  -4   0   7  548.25   18.50
   3   0  -7  737.73   30.40
   3   0  -7  747.43   24.60
   3   0  -7  740.83   23.70
   3   0  -7  702.93   22.60
   3   0  -7  695.83   22.60
  -3   0   7  737.13   24.60
  -3   0   7  739.73   23.70
  -3   0   7  752.72   24.70
  -3   0   7  728.23   24.10
  -3   0   7  719.73   29.30
   2   0  -7 1524.35   50.89
   2   0  -7 1502.55   46.50
  -2   0   7 1528.05   46.60
  -2   0   7 1468.95   49.80
  -2   0   7 1417.66   46.30
  -2   0   7 1570.94   47.50
  -2   0   7 1503.25   46.70
   1   0  -7   99.99    5.50
   1   0  -7  102.99    5.10
  -1   0   7  112.09    4.60
  -1   0   7  112.09    3.90
  -1   0   7  111.89    5.20
   1   0   7  420.56   13.00
   1   0   7  417.76   14.30
   1   0   7  394.96   12.90
   1   0   7  437.76   13.60
   1   0   7  393.86   14.00
   2   0   7 5402.86  167.48
  -3   0  -7 1176.18   43.10
   3   0   7 1249.18   44.10
   3   0   7 1151.98   37.70
   3   0   7 1192.08   38.20
   3   0   7 1161.18   36.20
  -4   0  -7 1239.38   39.00
  -4   0  -7 1237.68   48.10
  -4   0  -7 1241.38   39.20
   4   0   7 1216.98   40.20
   4   0   7 1231.48   38.00
   4   0   7 1272.27   41.10
   4   0   7 1265.67   48.70
  -5   0  -7  421.56   25.00
  -5   0  -7  409.26   15.30
  -5   0  -7  399.86   15.60
   5   0   7  423.46   13.40
   5   0   7  432.16   17.50
   5   0   7  394.76   25.60
   5   0   7  410.26   16.30
  -6   0  -7   84.59    7.50
  -6   0  -7   87.89    7.20
  -6   0  -7   67.79   13.80
   6   0   7   87.69    7.20
   6   0   7   86.79    9.30
   6   0   7   82.89    4.10
   6   0   7   96.79   18.90
  -7   0  -7   23.60    5.50
  -7   0  -7   24.60    6.00
   7   0   7   10.10    4.50
   7   0   7   11.90    6.50
   7   0   7   16.30   16.60
   7   0   7   14.10    5.70
   8  -1  -7   20.30   16.10
   8  -1  -7  108.09   25.70
   8  -1  -7  109.99   10.20
   8  -1  -7  108.29    9.20
   8  -1  -7  107.69    9.40
   8  -1  -7  118.79   10.10
  -8   1   7   93.89   10.00
  -8   1   7  105.19   12.60
  -8   1   7  112.69   14.60
   7  -1  -7   22.60    4.40
   7  -1  -7   34.70   15.80
   7  -1  -7   17.90    4.70
  -7   1   7   30.30    6.20
  -7   1   7   26.20    7.10
  -7   1   7   14.30    4.90
   6  -1  -7 1129.09   37.80
   6  -1  -7 1153.28   52.29
   6  -1  -7 1104.29   39.30
   6  -1  -7 1173.08   38.30
   6  -1  -7 1186.88   38.10
  -6   1   7 1171.08   40.50
  -6   1   7 1115.99   39.80
  -6   1   7 1151.88   39.10
  -6   1   7 1155.68   38.10
   5  -1  -7   38.20    4.10
   5  -1  -7   50.09    4.50
   5  -1  -7   46.50    4.20
   5  -1  -7   44.60    4.60
   5  -1  -7   53.09   11.20
  -5   1   7   47.60    4.40
  -5   1   7   41.50    5.50
  -5   1   7   40.50    5.10
  -5   1   7   44.60    6.10
   4  -1  -7 4513.05  144.79
   4  -1  -7 4563.04  144.39
   4  -1  -7 4253.67  134.99
   4  -1  -7 4561.94  135.49
   4  -1  -7 4461.25  135.79
  -4   1   7 4372.76  136.39
  -4   1   7 4360.76  136.79
  -4   1   7 4477.35  136.69
  -4   1   7 4457.15  135.89
   3  -1  -7  727.73   23.10
   3  -1  -7  712.03   28.90
   3  -1  -7  696.63   29.20
   3  -1  -7  732.73   23.70
  -3   1   7  716.53   24.40
  -3   1   7  742.43   23.80
  -3   1   7  734.43   24.20
  -3   1   7  707.23   23.80
   2  -1  -7 5096.09  157.58
   2  -1  -7 5020.70  157.68
  -2   1   7 5108.99  154.88
  -2   1   7 5114.09  154.38
   1  -1  -7 1051.09   34.60
   1  -1  -7 1084.39   34.40
  -1   1   7 1058.79   32.80
  -1   1   7 1138.09   34.30
  -1   1   7 1025.90   32.80
  -1   1   7 1076.79   33.80
   0   1   7 1655.53   51.29
  -1  -1  -7    8.60    2.50
   1   1   7    5.40    2.60
   1   1   7   11.10    1.70
   1   1   7    7.70    1.40
  -2  -1  -7  789.92   29.90
   2   1   7  808.32   26.10
   2   1   7  790.62   25.50
   2   1   7  800.42   30.50
  -3  -1  -7  501.15   23.90
   3   1   7  532.15   17.20
   3   1   7  531.05   18.30
   3   1   7  543.35   19.10
   3   1   7  536.05   25.10
  -4  -1  -7 1155.58   47.10
  -4  -1  -7 1128.89   37.30
  -4  -1  -7 1176.68   37.20
   4   1   7 1211.78   39.50
   4   1   7 1144.89   38.30
   4   1   7 1209.48   48.10
   4   1   7 1221.28   36.90
  -5  -1  -7  259.77   21.30
  -5  -1  -7  285.77   11.40
  -5  -1  -7  283.97   11.80
   5   1   7  262.07   12.60
   5   1   7  276.27   10.10
   5   1   7  276.57   22.90
  -6  -1  -7  808.42   27.20
  -6  -1  -7  750.02   27.30
   6   1   7  738.43   27.90
   6   1   7  774.92   25.00
   6   1   7  733.63   42.90
   6   1   7  763.92   29.30
  -7  -1  -7   16.10    6.70
   7   1   7   17.00    5.70
   7   1   7   14.50    3.40
   7   1   7    6.60    6.80
   8  -2  -7  485.65   43.50
   8  -2  -7  504.45   21.20
   8  -2  -7  480.55   20.60
   8  -2  -7  485.85   20.00
   8  -2  -7  483.65   20.30
  -8   2   7  473.85   24.60
  -8   2   7  523.65   23.50
  -8   2   7  478.25   21.80
   7  -2  -7  612.14   22.90
   7  -2  -7  591.04   39.20
   7  -2  -7  549.15   34.50
   7  -2  -7  599.54   22.50
   7  -2  -7  613.54   22.50
  -7   2   7  574.54   25.40
  -7   2   7  580.64   23.00
  -7   2   7  615.44   24.60
  -7   2   7  601.24   23.00
   6  -2  -7  413.06   16.50
   6  -2  -7  436.56   16.60
   6  -2  -7  443.46   16.90
   6  -2  -7  414.06   16.20
   6  -2  -7  428.66   29.40
  -6   2   7  447.76   18.40
  -6   2   7  422.86   16.80
  -6   2   7  423.16   19.00
  -6   2   7  424.76   17.60
   5  -2  -7  878.21   29.50
   5  -2  -7  979.00   31.30
   5  -2  -7  904.81   40.80
   5  -2  -7  855.11   39.40
   5  -2  -7  870.41   31.40
   5  -2  -7  897.81   29.60
  -5   2   7  916.91   31.80
  -5   2   7  886.01   30.80
  -5   2   7  926.21   31.30
  -5   2   7  913.51   31.20
   4  -2  -7  384.76   21.30
   4  -2  -7  391.96   13.50
   4  -2  -7  391.46   21.90
   4  -2  -7  398.76   14.50
   4  -2  -7  400.26   13.60
  -4   2   7  404.16   14.90
  -4   2   7  408.06   15.20
  -4   2   7  389.76   15.20
  -4   2   7  403.66   15.60
   3  -2  -7  323.87   17.40
   3  -2  -7  323.67   17.30
   3  -2  -7  342.37   12.40
  -3   2   7  336.67   13.00
  -3   2   7  337.67   12.50
  -3   2   7  326.37   12.70
  -3   2   7  355.16   12.60
   2  -2  -7 1433.56   44.00
   2  -2  -7 1426.36   47.90
   2  -2  -7 1369.06   47.90
  -2   2   7 1406.96   44.10
  -2   2   7 1390.86   44.50
  -2   2   7 1373.56   43.70
  -2   2   7 1355.86   43.50
   1  -2  -7   28.50    5.40
  -1   2   7   34.20    2.60
  -1   2   7   43.80    3.30
  -1   2   7   40.60    2.30
  -1   2   7   42.20    2.60
  -1   2   7   37.10    5.40
   0  -2  -7 2935.71   90.49
   0   2   7 2674.33   87.19
   0   2   7 2916.21   89.99
  -1  -2  -7   40.60    6.50
   1   2   7    9.10    2.00
   1   2   7    5.80    1.40
   1   2   7    8.60    3.70
  -2  -2  -7 1764.12   61.29
   2   2   7 1704.33   54.79
   2   2   7 1780.62   61.59
   2   2   7 1804.92   55.79
  -3  -2  -7  133.39    5.30
  -3  -2  -7  139.29   13.20
  -3  -2  -7  149.99    5.40
   3   2   7  136.59    7.10
   3   2   7  135.99    8.20
   3   2   7  143.99    6.50
   3   2   7  136.69   13.60
  -4  -2  -7  548.15   19.80
  -4  -2  -7  560.84   29.90
  -4  -2  -7  566.34   19.50
   4   2   7  596.74   31.60
   4   2   7  559.94   20.70
   4   2   7  623.14   19.80
   4   2   7  592.64   22.10
  -5  -2  -7  292.57   12.00
  -5  -2  -7  277.67   12.00
  -5  -2  -7  262.97   23.50
   5   2   7  285.97   11.10
   5   2   7  285.37   12.90
   5   2   7  286.27   24.90
   5   2   7  236.78   15.90
  -6  -2  -7  245.78   26.90
  -6  -2  -7  279.57   12.80
  -6  -2  -7  247.58   12.80
   6   2   7  254.97   13.60
   6   2   7  268.77   11.10
   6   2   7  235.68   29.30
   6   2   7  272.97   15.70
  -7  -2  -7  101.49   11.20
  -7  -2  -7   98.29   11.50
   7   2   7   81.69   13.40
   7   2   7   89.49    7.80
   7   2   7   89.89   10.90
   8  -3  -7  186.98   11.60
   8  -3  -7  203.58   36.20
   8  -3  -7  200.58   12.00
   8  -3  -7  178.18   11.30
  -8   3   7  176.48   16.30
  -8   3   7  203.08   15.40
  -8   3   7  211.58   13.60
  -8   3   7  192.68   13.90
   7  -3  -7   16.70    5.10
   7  -3  -7   16.10   15.30
   7  -3  -7   18.30    5.00
   7  -3  -7    3.90   13.60
  -7   3   7   18.00    4.90
  -7   3   7   17.80    5.30
  -7   3   7   22.00    7.10
  -7   3   7   25.70    6.20
   6  -3  -7  824.02   42.50
   6  -3  -7  774.52   27.60
   6  -3  -7  832.52   28.40
   6  -3  -7  813.92   28.00
  -6   3   7  816.92   28.80
  -6   3   7  852.71   30.30
  -6   3   7  829.82   30.80
  -6   3   7  806.42   29.20
   5  -3  -7    6.80    7.60
   5  -3  -7   15.30    2.70
   5  -3  -7    5.40    2.40
   5  -3  -7   -8.10    7.70
  -5   3   7    0.10    3.30
  -5   3   7    2.50    3.50
  -5   3   7   -1.10    3.10
  -5   3   7    0.00    2.60
   4  -3  -7 1329.87   40.80
   4  -3  -7 1273.57   55.49
   4  -3  -7 1253.47   40.70
   4  -3  -7 1260.67   50.19
   4  -3  -7 1394.76   42.20
  -4   3   7 1329.67   42.70
  -4   3   7 1290.97   42.90
  -4   3   7 1248.08   44.10
  -4   3   7 1332.97   42.40
   3  -3  -7  312.67   18.10
   3  -3  -7  321.37   12.00
   3  -3  -7  291.97   17.20
   3  -3  -7  299.47   10.00
  -3   3   7  324.27   12.40
  -3   3   7  316.17   12.80
  -3   3   7  310.37   12.60
  -3   3   7  304.67   12.10
   2  -3  -7 1421.16   53.29
   2  -3  -7 1549.34   47.70
  -2   3   7 1502.15   47.80
  -2   3   7 1560.34   53.49
  -2   3   7 1516.75   46.80
  -2   3   7 1469.55   47.50
  -2   3   7 1499.25   47.60
   1  -3  -7 1568.74   54.69
  -1   3   7 1597.64   53.79
  -1   3   7 1503.65   48.60
  -1   3   7 1549.45   48.50
  -1   3   7 1488.85   48.20
   0  -3  -7 2256.27   73.99
   0   3   7 2226.68   72.49
   0   3   7 2171.88   66.99
   0   3   7 2072.39   66.29
   0   3   7 2032.60   66.89
  -1  -3  -7 1256.47   47.50
   1   3   7 1301.07   47.00
   1   3   7 1209.38   39.70
   1   3   7 1301.97   41.00
   1   3   7 1226.38   40.30
  -2  -3  -7 2078.29   74.59
   2   3   7 2073.19   65.49
   2   3   7 2108.29   66.69
   2   3   7 2142.49   74.59
  -3  -3  -7  176.58    7.50
  -3  -3  -7  178.98    7.30
  -3  -3  -7  188.48   17.50
   3   3   7  188.38    8.30
   3   3   7  182.98   10.00
   3   3   7  165.38   16.90
   3   3   7  186.78    8.70
  -4  -3  -7  534.15   18.60
  -4  -3  -7  507.65   18.80
  -4  -3  -7  525.95   31.20
   4   3   7  473.55   21.30
   4   3   7  549.05   33.00
   4   3   7  568.14   19.00
  -5  -3  -7   58.59    6.50
  -5  -3  -7   61.59    6.20
  -5  -3  -7   44.00   14.30
   5   3   7   51.49   15.50
   5   3   7   50.89    7.60
   5   3   7   54.79    6.40
   5   3   7   53.59    7.40
  -6  -3  -7    1.90    4.90
  -6  -3  -7   13.70   16.30
  -6  -3  -7    8.40    5.20
   6   3   7    5.30    4.20
   6   3   7   13.40   17.80
   6   3   7    8.00    5.40
   6   3   7   11.90    7.10
   7  -4  -7  198.98   25.60
   7  -4  -7  182.18   10.60
   7  -4  -7  190.28   26.80
  -7   4   7  201.08   13.60
  -7   4   7  167.78   14.60
  -7   4   7  173.98   11.60
  -7   4   7  185.08   11.50
   6  -4  -7  744.73   26.40
   6  -4  -7  786.32   27.20
   6  -4  -7  787.62   26.60
   6  -4  -7  753.72   41.70
  -6   4   7  758.82   28.10
  -6   4   7  767.42   29.80
  -6   4   7  741.33   28.40
  -6   4   7  782.72   29.20
   5  -4  -7  224.88    9.40
   5  -4  -7  210.78   19.50
   5  -4  -7  213.28   10.00
   5  -4  -7  231.78   21.00
   5  -4  -7  198.78    9.10
  -5   4   7  212.18   10.50
  -5   4   7  182.08   11.80
  -5   4   7  219.48   11.50
  -5   4   7  196.38   11.20
   4  -4  -7 3009.40  104.79
   4  -4  -7 2911.01   92.99
   4  -4  -7 3083.39   92.89
   4  -4  -7 3076.09  104.49
  -4   4   7 2984.10   95.39
  -4   4   7 3024.40   95.19
  -4   4   7 3129.29   95.29
  -4   4   7 3048.50   94.69
   3  -4  -7   54.29   10.50
   3  -4  -7   49.00    3.10
   3  -4  -7   51.19    3.30
  -3   4   7   49.90    5.30
  -3   4   7   48.00    5.80
  -3   4   7   51.19    5.90
   2  -4  -7 4231.68  138.99
  -2   4   7 4199.28  130.09
  -2   4   7 4046.30  129.99
  -2   4   7 4233.48  130.29
  -2   4   7 4449.85  138.59
   1  -4  -7  478.95   25.70
  -1   4   7  494.75   17.80
  -1   4   7  504.25   18.30
  -1   4   7  503.05   24.80
  -1   4   7  493.15   17.80
   0  -4  -7 1960.50   70.79
   0   4   7 1936.01   68.89
   0   4   7 2010.50   61.99
   0   4   7 1871.21   61.09
   0   4   7 1926.11   60.99
  -1  -4  -7    8.80    1.60
  -1  -4  -7    7.70    1.30
  -1  -4  -7   15.40    8.40
   1   4   7    9.30    3.50
   1   4   7    1.00    6.10
   1   4   7    6.10    2.40
  -2  -4  -7  593.94   31.70
  -2  -4  -7  603.04   19.60
  -2  -4  -7  576.54   19.60
   2   4   7  621.34   22.90
   2   4   7  591.94   21.20
   2   4   7  601.14   30.90
  -3  -4  -7  808.32   26.10
  -3  -4  -7  753.42   26.10
  -3  -4  -7  735.53   39.00
   3   4   7  815.42   27.00
   3   4   7  779.12   39.30
   3   4   7  812.72   32.20
  -4  -4  -7  474.95   33.10
  -4  -4  -7  515.85   18.50
  -4  -4  -7  479.95   18.50
   4   4   7  515.25   21.60
   4   4   7  480.25   19.60
   4   4   7  514.95   18.80
   4   4   7  474.35   33.40
  -5  -4  -7  608.04   22.50
  -5  -4  -7  544.95   39.80
  -5  -4  -7  599.04   23.00
   5   4   7  568.04   40.20
   5   4   7  594.04   23.90
   5   4   7  608.64   26.10
   5   4   7  635.64   22.50
   7  -5  -7    1.30    4.20
   7  -5  -7    3.30    5.40
   7  -5  -7    7.30   18.40
   7  -5  -7    3.00    4.70
   7  -5  -7   15.20   19.40
  -7   5   7   -4.40    4.70
  -7   5   7    1.40    5.30
  -7   5   7    1.00    7.40
  -7   5   7   -0.40    6.40
   6  -5  -7  245.28   11.60
   6  -5  -7  241.98   11.40
   6  -5  -7  245.68   12.50
   6  -5  -7  247.38   28.00
  -6   5   7  225.48   13.90
  -6   5   7  227.98   15.20
  -6   5   7  227.48   12.70
  -6   5   7  261.07   15.00
   5  -5  -7   22.60    3.70
   5  -5  -7   25.10   12.50
   5  -5  -7   25.80   11.40
   5  -5  -7   25.20    4.50
   5  -5  -7   25.70    4.20
  -5   5   7   16.80    4.50
  -5   5   7   38.40    6.40
  -5   5   7   16.20    5.70
  -5   5   7   20.10    5.40
   4  -5  -7    4.70    3.00
   4  -5  -7    7.30    9.50
   4  -5  -7    4.10    2.70
   4  -5  -7    3.80    9.10
   4  -5  -7    4.30    2.60
  -4   5   7    7.00    3.40
  -4   5   7    6.10    4.20
  -4   5   7    8.30    4.10
   3  -5  -7 1019.90   32.50
   3  -5  -7  988.10   30.60
   3  -5  -7  897.21   43.10
   3  -5  -7  906.91   30.70
  -3   5   7  995.50   33.40
  -3   5   7  935.21   33.10
  -3   5   7  972.80   42.90
  -3   5   7  920.51   31.70
  -3   5   7  941.71   32.70
   2  -5  -7   12.00    2.10
   2  -5  -7    3.50    1.70
   2  -5  -7   10.00    8.30
  -2   5   7    2.10    3.10
  -2   5   7    7.70    7.60
  -2   5   7    7.10    3.60
  -2   5   7    2.50    2.80
   1  -5  -7 2021.70   76.39
   1  -5  -7 1942.51   62.79
   1  -5  -7 2063.99   62.79
  -1   5   7 2148.69   66.09
  -1   5   7 1981.60   64.79
  -1   5   7 2016.90   65.09
  -1   5   7 2163.18   75.59
   0  -5  -7  147.59    6.30
   0  -5  -7  151.28   17.70
   0  -5  -7  141.19    6.30
   0   5   7  144.99    9.60
   0   5   7  158.38    9.00
   0   5   7  141.49   17.50
   0   5   7  152.68    8.10
  -1  -5  -7  973.50   30.40
  -1  -5  -7  921.61   45.40
  -1  -5  -7  911.11   30.40
   1   5   7 1016.10   34.20
   1   5   7  974.50   43.30
   1   5   7  930.71   32.20
   1   5   7  913.71   32.10
  -2  -5  -7  127.29    6.80
  -2  -5  -7  119.19    6.90
  -2  -5  -7  127.59   19.40
   2   5   7  112.79    7.80
   2   5   7  121.99    8.30
   2   5   7  116.39   17.90
   2   5   7  126.79    8.30
  -3  -5  -7  179.38    9.50
  -3  -5  -7  192.88    9.30
  -3  -5  -7  212.08   27.10
   3   5   7  164.48   23.50
   3   5   7  192.48    9.90
   3   5   7  181.48   12.70
  -4  -5  -7    7.20   15.20
  -4  -5  -7    8.90    3.90
  -4  -5  -7    9.20    4.60
   4   5   7   11.40    4.80
   4   5   7   21.90   15.90
   4   5   7    1.80    6.40
   6  -6  -7   12.80   16.60
   6  -6  -7    8.00    4.30
   6  -6  -7    7.90    4.20
  -6   6   7    9.60    5.10
  -6   6   7    6.90    6.40
  -6   6   7   13.60    6.60
  -6   6   7    8.50    6.80
   5  -6  -7  572.14   20.30
   5  -6  -7  605.54   37.70
   5  -6  -7  550.74   20.70
   5  -6  -7  528.25   35.20
   5  -6  -7  571.94   21.80
  -5   6   7  557.84   24.30
  -5   6   7  539.25   22.20
  -5   6   7  581.64   24.00
   4  -6  -7    2.30    3.00
   4  -6  -7    0.10    3.30
   4  -6  -7    4.50   11.20
  -4   6   7    0.00    2.90
  -4   6   7    3.40    3.80
  -4   6   7    2.40    4.80
  -4   6   7    1.00    4.70
  -4   6   7    8.20   11.50
   3  -6  -7  404.66   14.40
   3  -6  -7  377.16   14.70
   3  -6  -7  396.66   28.50
  -3   6   7  419.96   28.20
  -3   6   7  362.46   15.60
  -3   6   7  407.46   17.90
  -3   6   7  397.56   17.90
  -3   6   7  375.56   16.20
   2  -6  -7    5.90    2.70
   2  -6  -7    3.90    2.50
   2  -6  -7    9.10   10.60
  -2   6   7    3.90    3.50
  -2   6   7    6.00    9.30
  -2   6   7   11.40    4.50
   1  -6  -7  510.65   18.40
   1  -6  -7  554.44   18.30
   1  -6  -7  550.54   34.70
  -1   6   7  509.95   20.00
  -1   6   7  542.25   21.00
  -1   6   7  538.35   31.20
   0  -6  -7   67.49   15.40
   0  -6  -7   66.39    5.30
   0  -6  -7   64.89    4.90
   0   6   7   64.99   13.60
   0   6   7   71.29    7.50
   0   6   7   65.99    8.60
   0   6   7   77.49    8.30
  -1  -6  -7  700.73   24.80
  -1  -6  -7  709.83   41.90
  -1  -6  -7  774.32   24.80
   1   6   7  760.02   28.80
   1   6   7  679.43   25.80
   1   6   7  747.03   40.10
   1   6   7  716.43   27.00
  -2  -6  -7  243.28   31.10
  -2  -6  -7  240.88   11.00
  -2  -6  -7  237.38   11.30
   2   6   7  242.08   26.90
   2   6   7  233.18   12.60
   2   6   7  237.48   15.20
   2   6   7  244.08   12.60
   2   6   7  239.08   13.10
  -3  -6  -7  199.58   31.30
  -3  -6  -7  317.27   14.30
  -3  -6  -7  337.77   14.10
   3   6   7  353.06   33.00
   3   6   7  309.57   15.80
   3   6   7  305.77   14.50
   3   6   7  347.57   18.80
   5  -7  -7  424.36   18.00
   5  -7  -7  424.96   18.00
   5  -7  -7  478.45   38.40
  -5   7   7  429.96   19.00
  -5   7   7  440.66   21.70
  -5   7   7  441.96   22.00
  -5   7   7  414.46   18.30
   4  -7  -7   38.50   16.60
   4  -7  -7   45.60    6.50
   4  -7  -7   50.29    6.20
  -4   7   7   49.99    8.20
  -4   7   7   48.50    7.00
  -4   7   7   53.89    8.50
  -4   7   7   43.60   17.10
  -4   7   7   56.79    8.00
   3  -7  -7  241.18   11.40
   3  -7  -7  236.38   27.60
   3  -7  -7  259.07   10.90
  -3   7   7  253.67   15.20
  -3   7   7  254.47   15.60
  -3   7   7  262.57   13.90
  -3   7   7  267.57   28.20
   2  -7  -7   23.40    3.70
   2  -7  -7   24.20    4.40
   2  -7  -7   20.00   14.30
  -2   7   7   20.60    6.50
  -2   7   7   16.60   14.10
  -2   7   7   27.90    5.10
  -2   7   7   27.90    6.40
   1  -7  -7    1.00    3.10
   1  -7  -7    4.90    3.60
   1  -7  -7   12.40   14.80
  -1   7   7    2.70    5.10
  -1   7   7    3.60    3.90
  -1   7   7   -0.10   13.50
  -1   7   7    5.50    5.70
   0  -7  -7  161.38    9.40
   0  -7  -7  181.48    9.30
   0  -7  -7  181.48   28.50
   0   7   7  165.48   11.30
   0   7   7  185.78   13.90
   0   7   7  166.88   12.20
   0   7   7  189.38   26.40
  -1  -7  -7    3.90    3.90
  -1  -7  -7   -3.60   16.90
  -1  -7  -7   10.60    4.40
   1   7   7    3.60    6.50
   1   7   7    6.40    4.20
   1   7   7    4.00    5.60
   1   7   7    5.40    5.40
   1   7   7   -2.20   15.50
  -2  -7  -7  454.35   18.30
   2   7   7  449.56   19.30
   2   7   7  484.95   24.00
   2   7   7  454.45   20.90
   2   7   7  433.66   18.80
   3  -8  -7  129.59    9.30
  -3   8   7  119.99   14.00
  -3   8   7  143.39   14.90
   2  -8  -7  282.17   13.70
  -2   8   7  276.37   14.40
  -2   8   7  281.27   17.30
  -2   8   7  286.07   18.40
   1  -8  -7  467.65   18.40
  -1   8   7  439.46   21.80
  -1   8   7  467.95   23.70
  -1   8   7  446.16   20.30
   1   8  -8  183.78   13.60
   1   8  -8  204.08   38.70
   1   8  -8  165.88   14.40
   1   8  -8  166.88   12.70
  -1  -8   8  163.38   11.70
  -1  -8   8  172.98   29.70
  -1  -8   8  173.68   15.80
   0   8  -8  118.49   10.30
   0   8  -8  109.99   11.60
   0   8  -8  125.09   25.10
   0   8  -8  105.29   11.10
   0  -8   8  106.59   13.90
   0  -8   8  113.49   22.40
   0  -8   8  105.79    9.70
  -1   8  -8  363.26   18.10
  -1   8  -8  371.46   38.00
  -1   8  -8  363.66   18.40
  -1   8  -8  372.86   16.20
   1  -8   8  322.57   19.80
   1  -8   8  299.37   38.50
   1  -8   8  345.97   16.80
  -2   8  -8  248.08   14.90
  -2   8  -8  228.98   12.10
  -2   8  -8  238.68   29.50
  -2   8  -8  215.48   14.80
   2  -8   8  230.48   16.60
   2  -8   8  218.58   30.00
   2  -8   8  228.28   14.20
  -3   8  -8  452.35   39.60
  -3   8  -8  460.65   20.80
  -3   8  -8  448.06   20.40
  -3   8  -8  384.26   22.10
   3  -8   8  491.65   21.00
   3  -8   8  425.86   37.30
   3  -8   8  409.06   22.20
  -4   8  -8  170.08   11.70
  -4   8  -8  166.28   35.80
  -4   8  -8  187.68   12.90
  -4   8  -8  179.18   13.70
  -4   8  -8  208.38   14.30
   4  -8   8  179.78   15.40
   4  -8   8  155.38   34.60
   3   7  -8  190.18   14.20
   3   7  -8  181.88    7.00
   3   7  -8  180.68   13.20
   3   7  -8  201.58   13.90
   3   7  -8  173.08   30.10
  -3  -7   8  182.78   17.00
  -3  -7   8  176.28   36.40
  -3  -7   8  199.68   13.70
   2   7  -8  365.36   37.60
   2   7  -8  339.17   16.70
   2   7  -8  316.17   16.20
   2   7  -8  308.87   15.40
  -2  -7   8  308.37   19.50
  -2  -7   8  334.77   36.60
  -2  -7   8  340.67   16.80
   1   7  -8  111.99   21.90
   1   7  -8  102.79    9.70
   1   7  -8  106.59    9.20
   1   7  -8  125.49    9.60
  -1  -7   8  108.99    8.80
  -1  -7   8   94.19   21.60
  -1  -7   8   99.49   10.90
   0   7  -8  768.32   28.70
   0   7  -8  788.42   27.60
   0   7  -8  742.33   28.00
   0   7  -8  785.22   45.80
   0  -7   8  773.02   28.30
   0  -7   8  732.83   30.50
   0  -7   8  730.93   46.10
  -1   7  -8   28.40   15.20
   1  -7   8   54.09    9.70
   1  -7   8   42.30    6.60
   1  -7   8   24.70   15.50
  -2   7  -8 1432.96   45.80
  -2   7  -8 1389.46   63.99
   2  -7   8 1340.07   63.89
   2  -7   8 1490.35   48.10
   2  -7   8 1370.26   49.20
  -3   7  -8  158.28    8.20
  -3   7  -8  160.88   11.10
  -3   7  -8  168.08   25.70
  -3   7  -8  143.29   13.10
   3  -7   8  170.08   11.40
   3  -7   8  152.88   26.20
   3  -7   8  127.29   12.40
  -4   7  -8  975.20   35.30
  -4   7  -8 1034.90   53.39
  -4   7  -8  996.30   32.60
  -4   7  -8  974.90   34.90
   4  -7   8  969.80   53.39
   4  -7   8 1012.30   36.10
   4  -7   8 1016.50   31.90
   4  -7   8  977.00   37.40
  -5   7  -8  182.48    8.80
  -5   7  -8  219.38   13.70
  -5   7  -8  196.98   31.00
  -5   7  -8  228.78   12.40
  -5   7  -8  218.08   13.30
   5  -7   8  233.78   14.40
   5  -7   8  180.18   31.80
   5  -7   8  222.88    9.50
   5  -7   8  200.68   15.70
  -6   7  -8  196.88   15.40
  -6   7  -8  223.38   14.80
   6  -7   8  207.08   10.50
   6  -7   8  198.88   14.50
   6  -7   8  212.68   37.00
   6  -7   8  206.98   15.20
   4   6  -8  704.73   27.80
   4   6  -8  711.83   47.80
   4   6  -8  707.63   27.70
   4   6  -8  743.13   28.60
  -4  -6   8  753.72   27.50
  -4  -6   8  766.62   29.20
  -4  -6   8  667.03   30.80
  -4  -6   8  720.63   50.29
   3   6  -8   69.19   20.50
   3   6  -8   84.89    8.90
   3   6  -8   94.89    9.30
   3   6  -8   86.69    4.10
   3   6  -8   88.09    4.50
   3   6  -8   93.59    9.40
  -3  -6   8   83.39    7.90
  -3  -6   8   82.09   19.70
  -3  -6   8   91.89   12.60
  -3  -6   8   88.59    9.30
   2   6  -8 1759.72   74.29
   2   6  -8 1698.93   55.59
   2   6  -8 1732.83   58.79
  -2  -6   8 1612.14   58.19
  -2  -6   8 1661.23   55.09
  -2  -6   8 1627.34   73.69
  -2  -6   8 1799.12   56.69
   1   6  -8  430.76   32.30
   1   6  -8  428.06   17.30
   1   6  -8  441.36   18.00
   1   6  -8  432.26   17.50
  -1  -6   8  446.36   18.10
  -1  -6   8  404.26   19.60
  -1  -6   8  408.16   32.50
   0   6  -8 1199.68   40.80
   0   6  -8 1156.68   40.20
   0   6  -8 1295.17   56.09
   0  -6   8 1203.08   56.19
   0  -6   8 1167.48   42.50
   0  -6   8 1249.68   41.10
  -1   6  -8  106.99    7.70
  -1   6  -8  108.19    8.30
  -1   6  -8  107.59   19.20
  -1   6  -8  109.99    6.80
   1  -6   8  108.99   19.40
   1  -6   8  105.99    9.70
  -2   6  -8  427.96   16.60
  -2   6  -8  425.86   15.40
  -2   6  -8  441.06   17.30
  -2   6  -8  411.96   28.30
   2  -6   8  427.76   18.60
   2  -6   8  397.76   29.60
   2  -6   8  383.46   18.90
  -3   6  -8  394.96   16.30
  -3   6  -8  348.77   27.60
  -3   6  -8  383.46   15.30
  -3   6  -8  374.26   13.80
  -3   6  -8  375.36   15.50
   3  -6   8  371.86   17.40
   3  -6   8  397.36   16.70
   3  -6   8  345.77   28.90
   3  -6   8  385.86   12.60
  -4   6  -8  487.05   16.90
  -4   6  -8  497.95   34.00
  -4   6  -8  493.95   20.40
  -4   6  -8  487.85   19.50
  -4   6  -8  509.35   19.40
   4  -6   8  466.25   20.90
   4  -6   8  527.55   20.90
   4  -6   8  498.45   34.40
   4  -6   8  528.35   17.10
  -5   6  -8 1007.20   38.80
  -5   6  -8  956.10   31.30
  -5   6  -8  987.40   31.40
   5  -6   8 1038.00   36.90
   5  -6   8 1054.59   51.59
   5  -6   8 1021.90   33.00
   5  -6   8  999.10   52.59
   5  -6   8 1028.60   37.50
  -6   6  -8  682.73   26.80
  -6   6  -8  706.73   28.00
   6  -6   8  676.13   46.10
   6  -6   8  667.63   28.60
   6  -6   8  723.83   28.50
   6  -6   8  633.94   28.20
   6  -6   8  733.83   43.20
   5   5  -8  181.18    9.30
   5   5  -8  195.98   36.00
   5   5  -8  179.18   12.60
   5   5  -8  184.88   13.40
   5   5  -8  183.78   12.20
  -5  -5   8  185.08   17.30
  -5  -5   8  196.08   28.80
  -5  -5   8  203.58   14.00
  -5  -5   8  179.68   11.60
   4   5  -8  469.75   16.20
   4   5  -8  514.85   22.70
   4   5  -8  467.65   37.90
   4   5  -8  461.25   19.20
   4   5  -8  452.25   19.30
  -4  -5   8  439.16   33.70
  -4  -5   8  478.45   19.70
  -4  -5   8  479.25   19.80
  -4  -5   8  441.36   22.70
   3   5  -8    7.00    1.70
   3   5  -8    4.30    3.90
   3   5  -8    7.70   13.70
   3   5  -8    3.70    3.50
   3   5  -8    5.40    4.30
  -3  -5   8   12.80   11.90
  -3  -5   8   -1.60    3.20
  -3  -5   8    2.30    5.50
  -3  -5   8    8.20    4.00
   2   5  -8  741.43   27.00
   2   5  -8  763.32   26.50
   2   5  -8  816.02   41.40
   2   5  -8  789.62   27.00
  -2  -5   8  747.73   26.40
  -2  -5   8  739.63   40.10
  -2  -5   8  726.83   28.80
   1   5  -8  664.83   23.70
   1   5  -8  665.63   23.50
   1   5  -8  660.33   23.40
   1   5  -8  700.43   36.50
  -1  -5   8  678.83   23.40
  -1  -5   8  649.04   25.50
   0   5  -8 2120.39   67.49
   0   5  -8 2243.08   80.89
   0   5  -8 2154.58   67.79
   0   5  -8 2173.28   67.49
   0  -5   8 2145.39   67.19
   0  -5   8 2093.29   69.59
   0  -5   8 2045.10   81.19
   0  -5   8 2227.58   68.49
  -1   5  -8  817.02   27.50
  -1   5  -8  805.32   26.70
  -1   5  -8  782.52   27.10
  -1   5  -8  818.12   38.80
   1  -5   8  809.92   29.10
   1  -5   8  831.32   28.10
   1  -5   8  771.52   40.20
  -2   5  -8 2840.72   98.29
  -2   5  -8 2757.32   86.59
  -2   5  -8 2805.22   86.09
  -2   5  -8 2718.13   85.19
   2  -5   8 2816.32   87.09
   2  -5   8 2699.03   87.79
  -3   5  -8  198.68    9.70
  -3   5  -8  165.48    8.50
  -3   5  -8  183.58    7.20
  -3   5  -8  174.78    8.90
  -3   5  -8  173.68   18.30
   3  -5   8  166.88   24.00
   3  -5   8  190.78   10.50
   3  -5   8  175.28    9.80
   3  -5   8  179.78    6.80
  -4   5  -8 1411.86   44.90
  -4   5  -8 1389.06   45.00
  -4   5  -8 1331.67   42.20
  -4   5  -8 1409.46   45.60
   4  -5   8 1322.47   61.49
   4  -5   8 1361.36   46.60
   4  -5   8 1411.16   43.40
  -5   5  -8   71.69    7.00
  -5   5  -8   84.69    8.00
   5  -5   8   75.19    8.70
   5  -5   8   61.29    5.30
   5  -5   8   90.79   17.10
   5  -5   8   65.79    8.10
  -6   5  -8  393.76   18.70
  -6   5  -8  404.16   17.90
   6  -5   8  402.56   18.90
   6  -5   8  440.16   17.50
   6  -5   8  368.06   18.80
   6  -5   8  414.56   32.90
   6  -5   8  320.47   31.80
  -7   5  -8  144.29   11.50
  -7   5  -8  118.59   11.50
   7  -5   8  120.99   13.10
   7  -5   8  120.29    9.90
   7  -5   8  128.99   13.10
   7  -5   8  110.89   23.60
   7  -5   8  155.68   31.20
   6   4  -8  602.34   21.90
   6   4  -8  519.15   21.80
   6   4  -8  532.35   48.50
   6   4  -8  551.24   22.90
  -6  -4   8  500.85   21.70
  -6  -4   8  568.64   24.60
  -6  -4   8  521.15   43.60
  -6  -4   8  513.85   27.00
   5   4  -8  193.18    9.00
   5   4  -8  190.08   12.30
   5   4  -8  182.88   11.20
   5   4  -8  170.98   11.00
   5   4  -8  181.48   30.30
  -5  -4   8  179.68   11.80
  -5  -4   8  188.68   11.70
  -5  -4   8  181.98   27.20
  -5  -4   8  189.38   15.20
   4   4  -8 1514.65   49.70
   4   4  -8 1534.95   66.69
   4   4  -8 1477.25   47.10
   4   4  -8 1489.35   49.10
   4   4  -8 1557.34   50.19
  -4  -4   8 1524.15   50.29
  -4  -4   8 1428.56   51.89
  -4  -4   8 1542.25   65.69
  -4  -4   8 1487.35   49.60
   3   4  -8  105.29   17.90
   3   4  -8   97.09    4.40
   3   4  -8   98.79    6.70
   3   4  -8   96.79    7.00
   3   4  -8  103.89    7.40
  -3  -4   8   97.69    7.40
  -3  -4   8  119.79   17.20
  -3  -4   8   93.59    6.80
   2   4  -8 2038.00   66.09
   2   4  -8 2150.28   66.89
   2   4  -8 2106.99   66.49
   2   4  -8 2253.17   80.09
  -2  -4   8 2038.50   79.99
  -2  -4   8 2137.19   67.09
  -2  -4   8 2123.59   68.59
  -2  -4   8 2083.19   66.59
   1   4  -8  148.59   15.40
   1   4  -8  135.59    6.70
   1   4  -8  141.19    6.90
   1   4  -8  139.19    7.40
  -1  -4   8  133.79    6.80
  -1  -4   8  156.28    8.70
  -1  -4   8  164.98   15.70
   0   4  -8 1972.70   62.99
   0   4  -8 2069.39   63.59
   0   4  -8 2111.79   73.79
   0   4  -8 2037.60   63.19
   0  -4   8 2078.19   74.69
   0  -4   8 2006.50   65.09
   0  -4   8 1989.80   63.99
   0  -4   8 2043.90   63.39
  -1   4  -8  608.64   20.60
  -1   4  -8  589.24   20.50
  -1   4  -8  638.44   29.30
  -1   4  -8  611.24   20.70
   1  -4   8  594.74   29.80
   1  -4   8  608.54   22.50
   1  -4   8  713.33   22.00
  -2   4  -8 1637.64   51.89
  -2   4  -8 1701.83   61.39
  -2   4  -8 1664.13   51.19
  -2   4  -8 1643.34   51.69
   2  -4   8 1652.13   53.59
   2  -4   8 1635.94   61.99
   2  -4   8 1683.83   52.99
   2  -4   8 1652.73   50.39
  -3   4  -8  882.41   29.00
  -3   4  -8  846.52   42.90
  -3   4  -8  849.72   27.00
  -3   4  -8  915.71   28.70
   3  -4   8  876.21   30.50
   3  -4   8  872.31   27.70
   3  -4   8  883.31   30.00
  -4   4  -8  551.74   19.90
  -4   4  -8  554.84   19.50
   4  -4   8  485.35   33.70
   4  -4   8  554.14   21.10
   4  -4   8  562.14   18.80
   4  -4   8  561.94   29.50
   4  -4   8  581.44   21.10
  -5   4  -8  576.34   20.90
  -5   4  -8  568.44   20.40
   5  -4   8  557.74   19.70
   5  -4   8  551.94   31.80
   5  -4   8  542.25   32.80
   5  -4   8  546.55   22.00
  -6   4  -8   23.60    5.20
  -6   4  -8   18.50    4.70
   6  -4   8   13.70    5.50
   6  -4   8   10.30   13.30
   6  -4   8   22.00    5.10
  -7   4  -8  348.27   17.60
   7  -4   8  368.16   18.70
   7  -4   8  354.96   15.60
   7  -4   8  353.46   34.30
   7  -4   8  370.16   19.40
   7  -4   8  385.46   35.30
   6   3  -8  192.48   14.00
   6   3  -8  226.38   10.70
   6   3  -8  215.08   32.90
   6   3  -8  221.98   11.70
   6   3  -8  214.18   12.40
  -6  -3   8  227.68   14.20
  -6  -3   8  212.28   16.50
  -6  -3   8  202.68   28.40
  -6  -3   8  197.68   12.90
   5   3  -8  499.75   19.20
   5   3  -8  507.05   19.90
   5   3  -8  510.65   20.00
   5   3  -8  518.95   18.00
   5   3  -8  486.35   36.80
  -5  -3   8  528.45   20.60
  -5  -3   8  504.45   19.80
  -5  -3   8  484.95   22.00
  -5  -3   8  491.15   33.70
   4   3  -8  935.01   32.60
   4   3  -8 1022.30   34.00
   4   3  -8  998.70   47.60
   4   3  -8  991.10   33.10
   4   3  -8 1007.60   31.60
  -4  -3   8  973.50   33.60
  -4  -3   8  975.90   45.40
  -4  -3   8  965.10   38.30
   3   3  -8  997.70   30.80
   3   3  -8 1038.10   44.60
   3   3  -8 1004.70   32.30
   3   3  -8  960.80   31.90
   3   3  -8  961.00   34.60
  -3  -3   8  914.71   33.10
  -3  -3   8  985.80   34.40
  -3  -3   8 1039.00   33.10
  -3  -3   8  937.81   43.70
   2   3  -8 2004.50   63.39
   2   3  -8 1941.51   62.19
   2   3  -8 2092.99   64.69
   2   3  -8 2012.50   63.59
   2   3  -8 2200.98   75.09
  -2  -3   8 2006.80   64.49
  -2  -3   8 2034.50   64.49
  -2  -3   8 2081.59   65.79
  -2  -3   8 2142.89   74.39
   1   3  -8  775.22   25.20
   1   3  -8  765.62   25.20
   1   3  -8  817.82   34.40
   1   3  -8  810.02   26.70
  -1  -3   8  795.02   26.40
  -1  -3   8  815.32   34.50
  -1  -3   8  851.31   26.70
  -1  -3   8  806.52   27.60
   0   3  -8 1059.79   33.50
   0   3  -8 1063.79   40.50
   0  -3   8 1043.30   34.50
   0  -3   8 1052.99   33.40
   0  -3   8 1053.29   40.80
   0  -3   8 1034.30   33.70
  -1   3  -8  823.52   33.10
  -1   3  -8  830.82   26.70
   1  -3   8  819.52   34.00
   1  -3   8  859.91   28.10
   1  -3   8  842.42   27.50
   1  -3   8  866.41   26.70
  -2   3  -8   67.89    3.80
  -2   3  -8   61.69    9.00
  -2   3  -8   70.29    3.00
   2  -3   8   57.39    4.90
   2  -3   8   68.89    4.60
   2  -3   8   71.49    3.10
   2  -3   8   65.59    9.50
  -3   3  -8 1901.61   60.09
  -3   3  -8 1917.81   59.89
   3  -3   8 1989.50   68.79
   3  -3   8 2032.20   70.29
   3  -3   8 1914.71   61.89
   3  -3   8 1979.70   60.29
   3  -3   8 1954.80   61.89
  -4   3  -8  103.09    6.00
  -4   3  -8  119.39    5.90
   4  -3   8  108.49   13.20
   4  -3   8  108.59   14.90
   4  -3   8  115.59    5.90
   4  -3   8  118.19    7.50
   4  -3   8  109.79    7.50
  -5   3  -8 2379.06   73.79
  -5   3  -8 2297.17   73.39
   5  -3   8 2309.87   75.69
   5  -3   8 2366.06   73.49
   5  -3   8 2358.46   86.49
   5  -3   8 2400.46   85.89
  -6   3  -8  668.03   24.20
  -6   3  -8  654.63   24.40
   6  -3   8  632.44   25.50
   6  -3   8  677.33   37.70
   6  -3   8  652.33   38.20
   6  -3   8  710.53   26.60
   6  -3   8  681.83   24.00
  -7   3  -8  975.40   32.90
  -7   3  -8  889.71   32.40
   7  -3   8  921.51   32.00
   7  -3   8  905.71   34.20
   7  -3   8  845.12   49.40
   7  -3   8  932.31   35.30
   7   2  -8  157.88   11.20
   7   2  -8  151.98    9.90
   7   2  -8  131.39   24.80
   7   2  -8  148.09   11.00
   7   2  -8  166.78   12.10
  -7  -2   8  129.69   25.50
  -7  -2   8  142.19   15.70
  -7  -2   8  150.48   13.50
  -7  -2   8  151.28   10.80
   6   2  -8  381.96   17.90
   6   2  -8  426.66   35.10
   6   2  -8  395.66   15.70
   6   2  -8  390.56   17.10
   6   2  -8  402.26   17.30
  -6  -2   8  376.46   17.10
  -6  -2   8  426.16   32.30
  -6  -2   8  389.66   20.30
  -6  -2   8  412.56   18.60
   5   2  -8  263.57   11.70
   5   2  -8  285.27   11.40
   5   2  -8  273.77   25.80
   5   2  -8  281.57   12.50
   5   2  -8  275.37   12.70
  -5  -2   8  286.27   13.50
  -5  -2   8  283.77   23.50
  -5  -2   8  283.27   14.90
  -5  -2   8  280.27   13.30
   4   2  -8   19.00    3.00
   4   2  -8   30.80    4.40
   4   2  -8   29.70    9.90
   4   2  -8   18.70    3.10
   4   2  -8   24.30    3.80
  -4  -2   8   18.50    4.60
  -4  -2   8   25.10    3.80
  -4  -2   8   18.20    8.50
  -4  -2   8   27.40    4.80
   3   2  -8 1389.46   43.40
   3   2  -8 1393.36   43.80
   3   2  -8 1435.06   54.99
   3   2  -8 1452.45   45.30
   3   2  -8 1370.26   43.60
  -3  -2   8 1430.76   45.30
  -3  -2   8 1379.46   53.09
  -3  -2   8 1411.96   45.00
  -3  -2   8 1336.77   45.80
   2   2  -8   22.50    6.60
   2   2  -8   22.80    3.00
   2   2  -8   21.20    1.80
  -2  -2   8   24.00    3.00
  -2  -2   8   29.90    6.30
  -2  -2   8   25.00    3.60
  -2  -2   8   23.30    3.50
   1   2  -8 4754.92  145.59
   1   2  -8 4928.41  151.28
  -1  -2   8 4755.32  145.59
  -1  -2   8 4766.92  150.78
  -1  -2   8 4704.03  145.79
   0   2  -8  464.95   20.10
   0   2  -8  522.65   16.70
   0  -2   8  480.15   16.90
   0  -2   8  531.15   16.70
   0  -2   8  509.05   15.40
   0  -2   8  497.75   16.50
   0  -2   8  474.95   20.90
  -1   2  -8 5268.87  164.78
   1  -2   8 5370.66  165.88
   2  -2   8 1917.01   60.89
   2  -2   8 1957.90   59.29
   2  -2   8 1977.10   66.09
   2  -2   8 1974.90   60.89
   2  -2   8 1967.60   65.09
   3  -2   8 2170.08   69.59
   3  -2   8 2156.88   69.49
   3  -2   8 2310.37   75.79
   3  -2   8 2277.77   76.29
  -4   2  -8  696.83   22.40
  -4   2  -8  677.03   22.40
   4  -2   8  691.13   24.20
   4  -2   8  715.83   31.60
   4  -2   8  738.73   24.80
   4  -2   8  572.14   35.00
   4  -2   8  754.62   23.50
  -5   2  -8  665.53   22.60
  -5   2  -8  655.33   22.50
   5  -2   8  657.83   34.10
   5  -2   8  660.13   24.70
   5  -2   8  662.93   33.30
   5  -2   8  676.43   23.10
   5  -2   8  647.84   24.00
  -6   2  -8    8.10    3.80
  -6   2  -8    6.40    3.60
   6  -2   8    1.60   10.40
   6  -2   8    6.30   12.60
   6  -2   8    2.90    3.50
   6  -2   8    6.40    4.40
   6  -2   8    3.70    3.10
   6  -2   8    8.30    4.80
  -7   2  -8  319.17   15.50
  -7   2  -8  355.46   16.10
   7  -2   8  340.87   31.70
   7  -2   8  352.06   16.30
   7  -2   8  358.46   32.30
   7  -2   8  353.26   17.40
   7  -2   8  355.76   15.90
   7  -2   8  350.26   18.50
   7   1  -8  600.34   21.50
   7   1  -8  548.35   44.30
   7   1  -8  591.84   23.10
  -7  -1   8  546.85   39.20
  -7  -1   8  559.64   23.00
  -7  -1   8  593.64   24.20
  -7  -1   8  529.45   24.90
   6   1  -8    4.40    3.40
   6   1  -8    1.10   13.30
   6   1  -8    4.60    3.70
   6   1  -8    0.60    3.10
  -6  -1   8    5.00    4.00
  -6  -1   8    6.00    4.30
  -6  -1   8    5.20    4.60
  -6  -1   8    2.70   10.70
   5   1  -8 1878.91   59.49
   5   1  -8 1797.62   59.09
   5   1  -8 1896.41   74.19
   5   1  -8 1953.80   60.79
   5   1  -8 1894.71   59.19
  -5  -1   8 1869.61   60.59
  -5  -1   8 1918.41   65.69
  -5  -1   8 1841.42   71.59
   4   1  -8  279.17   10.30
   4   1  -8  277.97   10.30
   4   1  -8  266.47   10.00
   4   1  -8  243.88   20.20
  -4  -1   8  287.37   12.80
  -4  -1   8  256.17   13.10
  -4  -1   8  270.37   11.50
   3   1  -8 2269.27   71.39
   3   1  -8 2281.37   72.39
   3   1  -8 2443.76   81.79
   3   1  -8 2215.08   71.39
   3   1  -8 2383.16   73.79
  -3  -1   8 2399.86   72.49
  -3  -1   8 2374.06   73.29
  -3  -1   8 2434.06   73.99
  -3  -1   8 2382.86   74.09
  -3  -1   8 2445.56   80.49
   2   1  -8  365.16   18.10
   2   1  -8  375.76   12.40
   2   1  -8  375.56   13.50
  -2  -1   8  356.26   12.70
  -2  -1   8  374.46   13.40
  -2  -1   8  358.46   17.00
  -2  -1   8  378.66   13.80
  -2  -1   8  372.26   12.40
   1   1  -8 2057.59   61.49
   1   1  -8 1984.60   63.89
  -1  -1   8 1934.51   60.79
  -1  -1   8 1941.51   60.49
  -1  -1   8 1971.10   61.59
  -1  -1   8 2007.10   63.49
   0   1  -8    8.90    1.60
   0  -1   8    6.70    1.20
   0  -1   8    9.90    1.30
   0  -1   8    9.30    1.90
   0  -1   8    8.80    1.40
   0  -1   8    5.70    1.50
   1  -1   8 1995.40   62.49
   1  -1   8 1948.61   60.49
   1  -1   8 2025.20   60.69
   1  -1   8 1939.21   60.59
   1  -1   8 2016.70   62.09
   2  -1   8  294.17   10.90
   2  -1   8  290.37    9.70
   2  -1   8  331.77   14.50
   2  -1   8  300.27   10.80
   2  -1   8  304.97   14.00
   3  -1   8 1782.72   61.39
   3  -1   8 1781.62   55.99
   3  -1   8 1850.91   61.39
   3  -1   8 1781.92   54.99
   3  -1   8 1685.13   55.49
   4  -1   8  198.28    9.00
   4  -1   8  184.38    8.20
   4  -1   8  190.38    9.80
   4  -1   8  201.88   15.80
   4  -1   8  181.58   17.40
  -5   1  -8  822.02   27.30
  -5   1  -8  820.42   27.20
   5  -1   8  819.92   28.90
   5  -1   8  830.32   28.20
   5  -1   8  833.12   38.60
   5  -1   8  830.92   38.60
   5  -1   8  859.41   30.00
  -6   1  -8  112.59    7.80
  -6   1  -8  118.59    7.50
   6  -1   8  113.09   19.20
   6  -1   8  103.79   10.10
   6  -1   8   87.29   18.50
   6  -1   8   97.39    8.00
   6  -1   8  115.19    8.80
   6  -1   8   95.49    7.40
  -7   1  -8  360.36   15.90
  -7   1  -8  337.17   16.00
   7  -1   8  345.27   17.20
   7  -1   8  352.36   16.20
   7  -1   8  358.86   15.90
   7  -1   8  358.46   32.20
   7  -1   8  334.87   32.30
   7  -1   8  354.16   18.80
   7   0  -8  512.95   19.70
   7   0  -8  498.65   38.60
  -7   0   8  499.25   21.60
  -7   0   8  502.95   35.60
  -7   0   8  517.75   24.10
  -7   0   8  539.95   22.80
   6   0  -8   38.80    5.10
   6   0  -8   45.70    5.80
   6   0  -8   45.90    6.30
   6   0  -8   45.60   14.00
  -6   0   8   44.70    8.50
  -6   0   8   32.70    5.30
  -6   0   8   45.90   12.40
  -6   0   8   50.39    7.30
   5   0  -8 1318.27   42.10
   5   0  -8 1310.47   41.90
   5   0  -8 1299.67   54.69
   5   0  -8 1328.37   43.50
  -5   0   8 1247.58   52.39
  -5   0   8 1337.07   43.60
  -5   0   8 1343.57   42.30
  -5   0   8 1321.27   43.50
  -5   0   8 1297.37   44.20
   4   0  -8   28.00    4.00
   4   0  -8   31.30    2.60
   4   0  -8   30.70    2.60
   4   0  -8   31.50    3.60
  -4   0   8   32.20    5.00
  -4   0   8   28.50    4.20
  -4   0   8   29.70    3.20
  -4   0   8   29.90    8.90
  -4   0   8   25.60    4.70
   3   0  -8 2125.89   71.39
   3   0  -8 2073.99   64.09
  -3   0   8 2093.19   65.29
  -3   0   8 2044.90   64.89
  -3   0   8 2107.39   64.19
  -3   0   8 2098.49   70.09
  -3   0   8 1987.10   64.39
   2   0  -8  163.98    6.40
   2   0  -8  154.58    5.60
   2   0  -8  159.18   10.20
  -2   0   8  155.48    6.50
  -2   0   8  157.98    6.10
  -2   0   8  161.18    6.40
  -2   0   8  150.58    7.30
  -1   0   8 1569.24   47.70
  -1   0   8 1472.15   46.10
  -1   0   8 1514.35   47.00
   0   0   8  609.44   19.90
   0   0   8  599.64   19.60
   1   0   8  855.91   26.40
   1   0   8  839.22   26.30
   1   0   8  882.21   27.20
   2   0   8 1686.23   55.39
   2   0   8 1613.34   51.99
   2   0   8 1683.43   52.29
   2   0   8 1657.53   51.59
   2   0   8 1808.62   55.99
   2   0   8 1671.73   51.59
   3   0   8 1150.58   36.70
   3   0   8 1082.59   36.00
   3   0   8 1173.98   42.50
   3   0   8 1116.09   34.60
   4   0   8 1366.26   52.39
   4   0   8 1355.66   43.80
   4   0   8 1349.96   41.30
   4   0   8 1361.86   44.60
  -5   0  -8 1232.98   39.60
  -5   0  -8 1238.58   39.50
   5   0   8 1328.67   42.70
   5   0   8 1210.58   51.79
   5   0   8 1264.27   38.00
   5   0   8 1212.88   41.40
  -6   0  -8  238.98   11.10
  -6   0  -8  238.58   10.80
   6   0   8  238.98   13.90
   6   0   8  231.48   12.40
   6   0   8  215.28   24.40
  -7   0  -8  364.96   16.80
  -7   0  -8  390.26   16.60
   7   0   8  383.96   17.70
   7   0   8  399.06   17.10
   7   0   8  381.96   20.10
   7   0   8  362.76   18.00
   7   0   8  364.16   34.90
   8  -1  -8   -1.30   20.60
   8  -1  -8   14.90    6.10
   8  -1  -8    6.20    5.70
   8  -1  -8    8.10    5.50
  -8   1   8    2.80    6.90
  -8   1   8    9.30    6.70
  -8   1   8    3.40    7.00
   7  -1  -8  449.36   17.60
   7  -1  -8  424.06   35.40
   7  -1  -8  410.96   16.60
   7  -1  -8  417.86   17.60
   7  -1  -8  438.66   17.70
  -7   1   8  431.06   19.90
  -7   1   8  433.46   19.20
  -7   1   8  428.46   21.20
   6  -1  -8   38.20    5.20
   6  -1  -8   34.20    4.90
   6  -1  -8   35.20    5.50
   6  -1  -8   38.20   12.70
   6  -1  -8   36.30   12.90
   6  -1  -8   48.60    5.30
  -6   1   8   38.70    7.20
  -6   1   8   40.60    5.30
  -6   1   8   61.49    8.50
  -6   1   8   35.10    6.30
   5  -1  -8  320.37   12.30
   5  -1  -8  304.87   11.50
   5  -1  -8  317.97   13.40
   5  -1  -8  308.07   11.60
   5  -1  -8  314.57   22.30
   5  -1  -8  294.57   20.80
  -5   1   8  320.17   13.70
  -5   1   8  296.67   13.40
  -5   1   8  336.17   14.40
  -5   1   8  322.87   12.90
   4  -1  -8  868.71   27.70
   4  -1  -8  844.32   35.70
   4  -1  -8  865.51   28.10
   4  -1  -8  822.22   26.30
  -4   1   8  849.81   29.20
  -4   1   8  867.41   29.20
  -4   1   8  847.52   28.70
  -4   1   8  852.41   28.20
   3  -1  -8  749.73   30.40
   3  -1  -8  812.42   24.90
   3  -1  -8  733.23   29.70
  -3   1   8  758.52   24.90
  -3   1   8  744.43   25.20
  -3   1   8  725.63   24.80
  -3   1   8  752.82   25.70
   2  -1  -8 2893.71   88.69
   2  -1  -8 2857.81   85.49
   2  -1  -8 2733.23   88.09
  -2   1   8 2714.13   85.09
  -2   1   8 2745.83   86.09
  -2   1   8 2760.32   85.49
  -1   1   8 2850.31   87.39
  -1   1   8 2853.11   87.79
   0   1   8 1760.32   53.09
   0   1   8 1642.74   52.79
  -1  -1  -8 3011.70   93.39
   1   1   8 3063.49   93.79
  -2  -1  -8  158.28   10.10
   2   1   8  158.28    7.20
   2   1   8  165.68   11.20
   2   1   8  166.58    6.70
  -3  -1  -8  504.75   24.00
   3   1   8  548.15   25.20
   3   1   8  527.65   17.20
   3   1   8  538.95   19.00
   3   1   8  507.35   18.10
  -4  -1  -8   90.79   12.30
   4   1   8  105.99    4.80
   4   1   8  106.79   14.60
   4   1   8  100.29    6.30
   4   1   8   97.49    7.40
  -5  -1  -8   22.70    4.00
  -5  -1  -8   26.50    3.90
  -5  -1  -8   12.60    9.20
   5   1   8   26.00   11.00
   5   1   8   16.50    4.80
   5   1   8   17.90    2.50
  -6  -1  -8  390.86   16.10
  -6  -1  -8  423.96   16.10
   6   1   8  429.76   32.50
   6   1   8  419.76   19.70
   6   1   8  421.56   14.50
   6   1   8  408.86   17.80
  -7  -1  -8    8.90    5.80
  -7  -1  -8    8.00    4.80
   7   1   8   16.20   17.90
   7   1   8   11.50    5.80
   7   1   8   10.20    2.90
   7   1   8   11.80    7.50
   8  -2  -8  491.75   20.50
   8  -2  -8  533.55   21.20
   8  -2  -8  506.75   39.80
   8  -2  -8  467.55   20.00
  -8   2   8  513.75   25.50
  -8   2   8  507.25   23.90
  -8   2   8  478.75   22.20
   7  -2  -8  183.38    9.90
   7  -2  -8  193.98   10.40
   7  -2  -8  185.98   10.80
   7  -2  -8  203.68   11.30
   7  -2  -8  205.58   28.30
  -7   2   8  183.98   11.80
  -7   2   8  208.48   11.20
  -7   2   8  194.48   14.70
  -7   2   8  177.38   13.00
   6  -2  -8 1086.79   36.10
   6  -2  -8 1130.59   51.39
   6  -2  -8 1074.19   49.10
   6  -2  -8 1120.49   36.30
   6  -2  -8 1115.49   37.00
   6  -2  -8 1128.29   36.80
  -6   2   8 1129.39   37.60
  -6   2   8 1073.29   39.00
  -6   2   8 1159.98   38.80
  -6   2   8 1074.49   38.10
   5  -2  -8  785.52   26.40
   5  -2  -8  828.82   27.80
   5  -2  -8  776.32   36.80
   5  -2  -8  825.32   38.30
   5  -2  -8  849.52   26.60
  -5   2   8  848.22   28.90
  -5   2   8  854.91   29.80
  -5   2   8  814.02   28.10
  -5   2   8  774.72   28.60
   4  -2  -8  632.74   21.70
   4  -2  -8  594.84   28.70
   4  -2  -8  601.54   29.00
  -4   2   8  610.74   22.60
  -4   2   8  708.83   22.60
  -4   2   8  622.24   21.90
   3  -2  -8  491.05   22.70
   3  -2  -8  511.75   17.30
   3  -2  -8  467.05   22.10
  -3   2   8  499.15   17.60
  -3   2   8  493.05   17.40
  -3   2   8  496.45   17.30
  -3   2   8  486.25   18.00
   2  -2  -8  262.77   13.30
   2  -2  -8  256.37   13.50
   2  -2  -8  280.17   10.50
  -2   2   8  270.77    9.80
  -2   2   8  259.27   10.80
  -2   2   8  261.37    9.80
  -2   2   8  265.47   10.50
   1  -2  -8    8.50    3.00
   1  -2  -8   11.40    3.80
  -1   2   8    9.80    1.70
  -1   2   8    7.80    1.30
  -1   2   8   11.60    1.90
  -1   2   8   10.80    2.10
   0  -2  -8 1060.49   34.90
   0   2   8 1058.59   34.60
   0   2   8  973.90   32.00
   0   2   8  986.70   32.70
  -1  -2  -8   70.29    7.30
   1   2   8   60.69    4.40
   1   2   8   70.69    3.80
   1   2   8   89.99    8.00
   1   2   8   78.79    4.50
  -2  -2  -8 1988.60   67.39
   2   2   8 1891.91   61.09
   2   2   8 1963.80   61.99
   2   2   8 2041.90   67.99
  -3  -2  -8   26.40    7.20
   3   2   8   28.70    3.60
   3   2   8   23.80    4.00
   3   2   8   31.50    5.30
   3   2   8   27.90    7.80
  -4  -2  -8  929.61   42.00
   4   2   8  982.50   30.90
   4   2   8  974.30   33.50
   4   2   8  934.91   32.20
   4   2   8  953.70   42.90
  -5  -2  -8   60.69    5.20
  -5  -2  -8   73.29   14.10
  -5  -2  -8   60.09    5.30
   5   2   8   57.09    6.70
   5   2   8   69.49    5.30
   5   2   8   51.69   14.10
   5   2   8   77.49    8.90
  -6  -2  -8  189.18   25.60
  -6  -2  -8  182.48   10.40
  -6  -2  -8  204.28   10.00
   6   2   8  171.38   27.20
   6   2   8  198.78    9.60
   6   2   8  182.88   13.90
   6   2   8  183.48   12.00
   7  -3  -8  239.88   27.40
   7  -3  -8  278.47   12.20
   7  -3  -8  279.57   13.20
   7  -3  -8  284.57   12.90
   7  -3  -8  272.57   33.80
  -7   3   8  288.87   14.70
  -7   3   8  273.37   17.30
  -7   3   8  257.57   15.60
  -7   3   8  290.57   16.10
   6  -3  -8  213.18    9.50
   6  -3  -8  211.18   21.80
   6  -3  -8  224.28   10.80
   6  -3  -8  190.58   25.70
   6  -3  -8  226.18    9.90
  -6   3   8  216.58   11.40
  -6   3   8  224.78   12.60
  -6   3   8  222.18   13.40
  -6   3   8  234.38   12.70
   5  -3  -8  199.88    7.90
   5  -3  -8  202.38    9.80
   5  -3  -8  187.68   19.10
   5  -3  -8  188.18    7.90
   5  -3  -8  190.88   18.10
  -5   3   8  184.38   10.30
  -5   3   8  196.78   10.20
  -5   3   8  208.68   12.00
  -5   3   8  196.28   11.20
   4  -3  -8 1011.00   31.60
   4  -3  -8  976.10   35.50
   4  -3  -8 1079.59   43.30
   4  -3  -8 1007.90   42.30
  -4   3   8 1043.40   35.00
  -4   3   8 1078.19   34.80
  -4   3   8 1043.60   35.20
   3  -3  -8  158.68   15.80
   3  -3  -8  172.18   14.30
   3  -3  -8  195.88    8.60
  -3   3   8  177.08    8.50
  -3   3   8  198.78    9.10
  -3   3   8  188.78    9.20
  -3   3   8  195.98    9.10
   2  -3  -8 1546.55   53.09
   2  -3  -8 1450.55   53.59
  -2   3   8 1536.15   47.10
  -2   3   8 1509.65   47.90
  -2   3   8 1520.35   48.30
  -2   3   8 1515.05   47.90
   1  -3  -8   47.90    8.40
  -1   3   8   46.10    7.70
  -1   3   8   48.60    3.70
  -1   3   8   49.70    4.20
  -1   3   8   45.80    4.20
   0  -3  -8 1041.50   39.40
   0   3   8 1018.30   33.30
   0   3   8 1058.89   34.10
   0   3   8 1105.69   39.20
   0   3   8 1023.50   34.10
  -1  -3  -8   32.80    7.50
   1   3   8   35.10    4.60
   1   3   8   36.80    4.00
   1   3   8   36.30    3.60
   1   3   8   36.70    7.10
  -2  -3  -8  809.22   35.30
   2   3   8  815.52   27.40
   2   3   8  830.42   28.60
   2   3   8  858.51   35.80
  -3  -3  -8   33.20    9.90
   3   3   8   33.10    4.50
   3   3   8   36.60    5.90
   3   3   8   31.60    4.20
   3   3   8   37.10   10.50
  -4  -3  -8  609.84   34.50
  -4  -3  -8  615.44   20.60
  -4  -3  -8  587.74   20.50
   4   3   8  610.34   23.20
   4   3   8  670.03   22.30
   4   3   8  731.53   28.20
   4   3   8  662.33   36.30
  -5  -3  -8   31.90   14.30
  -5  -3  -8   17.80    3.50
  -5  -3  -8   15.70    3.60
   5   3   8    4.60   13.40
   5   3   8   17.80    4.90
   5   3   8   20.10    3.80
   5   3   8   18.50    5.90
  -6  -3  -8  206.98   11.10
   6   3   8  182.68   13.00
   6   3   8  206.18   12.70
   6   3   8  201.58   32.50
   6   3   8  202.88   15.80
   7  -4  -8    3.40   14.10
   7  -4  -8    3.90    3.70
   7  -4  -8    1.50   17.00
   7  -4  -8    3.30    4.10
   7  -4  -8    2.90    4.30
  -7   4   8    5.30    7.00
  -7   4   8    6.20    5.00
  -7   4   8    3.00    6.30
  -7   4   8    5.90    5.50
   6  -4  -8  354.26   29.60
   6  -4  -8  357.26   13.90
   6  -4  -8  353.06   29.70
   6  -4  -8  365.86   15.70
   6  -4  -8  364.76   13.80
  -6   4   8  365.66   17.30
  -6   4   8  364.36   16.70
  -6   4   8  347.67   18.10
  -6   4   8  354.86   17.00
   5  -4  -8  178.88    7.90
   5  -4  -8  193.08    7.90
   5  -4  -8  188.68    9.50
   5  -4  -8  172.38   18.90
   5  -4  -8  203.88   22.20
  -5   4   8  184.18   10.20
  -5   4   8  188.88   11.70
  -5   4   8  179.38   10.50
   4  -4  -8  843.32   38.00
   4  -4  -8  778.82   25.30
   4  -4  -8  842.12   28.00
   4  -4  -8  797.92   37.80
  -4   4   8  817.12   28.70
  -4   4   8  796.12   28.80
  -4   4   8  797.12   28.20
  -4   4   8  789.52   28.80
   3  -4  -8  490.25   19.00
   3  -4  -8  477.05   24.70
   3  -4  -8  456.15   25.70
  -3   4   8  490.95   18.30
  -3   4   8  480.25   17.10
  -3   4   8  485.75   18.20
  -3   4   8  495.95   18.60
   2  -4  -8 1485.15   57.59
  -2   4   8 1598.34   50.19
  -2   4   8 1623.24   57.49
  -2   4   8 1531.75   49.80
  -2   4   8 1577.14   50.39
  -2   4   8 1508.55   49.00
   1  -4  -8   68.09   12.10
  -1   4   8   72.09    5.70
  -1   4   8   68.99    5.30
  -1   4   8   63.89   10.70
   0  -4  -8  915.51   39.80
   0   4   8  934.21   30.90
   0   4   8  907.51   31.20
   0   4   8  961.50   38.60
   0   4   8  965.60   32.00
  -1  -4  -8    3.90    7.60
   1   4   8   15.90    7.90
   1   4   8   25.40    3.60
   1   4   8    8.80    2.90
   1   4   8   13.10    4.00
  -2  -4  -8   50.69   11.30
   2   4   8   42.30   10.20
   2   4   8   54.99    6.60
  -3  -4  -8  101.99   19.50
   3   4   8  110.49    9.30
   3   4   8   97.79    7.60
   3   4   8  106.69   19.60
  -4  -4  -8    6.90    2.70
  -4  -4  -8   -2.30   12.60
  -4  -4  -8    3.40    2.70
   4   4   8   -1.30    5.20
   4   4   8    3.30    4.00
   4   4   8    5.30    6.70
   4   4   8   -0.20   12.10
  -5  -4  -8  363.56   35.70
  -5  -4  -8  432.86   16.50
   5   4   8  445.66   21.80
   5   4   8  441.76   19.40
   5   4   8  466.45   18.40
   5   4   8  440.06   36.80
   7  -5  -8   38.60    7.00
   7  -5  -8   38.10   21.50
   7  -5  -8   33.30    6.50
  -7   5   8   29.30    8.90
  -7   5   8   31.80    6.30
  -7   5   8   32.50    6.60
  -7   5   8   30.30    6.90
   6  -5  -8 1994.50   63.09
   6  -5  -8 1760.22   77.89
   6  -5  -8 1952.20   61.29
   6  -5  -8 1960.10   80.49
   6  -5  -8 2021.70   61.19
  -6   5   8 1997.10   63.99
  -6   5   8 1892.41   65.49
  -6   5   8 2045.10   65.29
  -6   5   8 1813.52   63.69
   5  -5  -8  347.97   27.40
   5  -5  -8  357.96   13.60
   5  -5  -8  381.86   28.90
   5  -5  -8  377.86   13.50
   5  -5  -8  367.96   15.30
  -5   5   8  366.46   17.70
  -5   5   8  364.16   17.10
  -5   5   8  349.67   16.40
  -5   5   8  376.26   16.90
   4  -5  -8 1909.11   58.59
   4  -5  -8 1774.32   72.69
   4  -5  -8 1898.61   58.79
   4  -5  -8 2019.30   61.39
   4  -5  -8 1949.10   73.79
  -4   5   8 1857.01   61.49
  -4   5   8 1928.41   62.59
   3  -5  -8  130.79   16.90
  -3   5   8  139.29    8.70
  -3   5   8  146.89    9.30
  -3   5   8  160.28   18.20
  -3   5   8  148.49    9.40
  -3   5   8  130.39    7.80
   2  -5  -8  976.50   44.60
  -2   5   8 1023.10   35.00
  -2   5   8 1065.99   44.60
  -2   5   8 1050.39   35.50
  -2   5   8 1026.80   35.00
   1  -5  -8  377.16   25.20
  -1   5   8  372.16   15.20
  -1   5   8  357.16   15.00
  -1   5   8  387.06   16.20
  -1   5   8  385.66   24.30
   0  -5  -8  952.90   44.30
   0   5   8  935.61   32.10
   0   5   8  988.10   42.80
   0   5   8  898.91   32.00
   0   5   8  953.60   33.30
  -1  -5  -8 1078.49   48.60
   1   5   8 1008.50   35.30
   1   5   8 1101.59   47.10
   1   5   8 1040.40   35.40
   1   5   8 1022.80   38.90
  -2  -5  -8  981.70   48.10
   2   5   8 1036.70   33.30
   2   5   8  991.70   36.00
   2   5   8  942.71   33.20
   2   5   8  963.20   45.70
   2   5   8  896.11   32.90
  -3  -5  -8  236.68   26.50
  -3  -5  -8  226.78    9.00
  -3  -5  -8  219.88    9.00
   3   5   8  234.98   14.40
   3   5   8  230.88   11.30
   3   5   8  239.18   25.80
  -4  -5  -8  277.27   32.00
  -4  -5  -8  314.27   12.70
   4   5   8  344.37   15.20
   4   5   8  318.67   18.30
   4   5   8  298.27   31.50
   6  -6  -8   86.29   21.70
   6  -6  -8  104.69    8.30
   6  -6  -8   94.79    8.40
  -6   6   8   95.89    9.70
  -6   6   8  106.69   11.20
  -6   6   8  100.29   10.00
  -6   6   8  103.29   13.70
   5  -6  -8  453.15   33.40
   5  -6  -8  484.75   17.50
   5  -6  -8  491.65   37.40
   5  -6  -8  483.45   19.20
  -5   6   8  472.75   22.30
  -5   6   8  471.35   20.60
  -5   6   8  446.86   21.00
  -5   6   8  498.95   21.80
   4  -6  -8  359.66   15.80
   4  -6  -8  365.26   13.20
   4  -6  -8  321.87   28.10
   4  -6  -8  365.86   12.90
  -4   6   8  351.86   15.90
  -4   6   8  332.57   15.20
  -4   6   8  370.26   17.50
  -4   6   8  359.76   17.70
   3  -6  -8  603.34   19.20
   3  -6  -8  576.14   35.60
   3  -6  -8  592.54   19.40
  -3   6   8  565.24   23.30
  -3   6   8  568.14   21.60
  -3   6   8  582.34   22.50
  -3   6   8  622.84   24.40
  -3   6   8  592.84   34.50
   2  -6  -8  442.36   30.90
   2  -6  -8  469.55   14.90
   2  -6  -8  461.15   15.00
  -2   6   8  460.45   19.30
  -2   6   8  464.85   31.10
  -2   6   8  448.76   18.50
  -2   6   8  489.35   20.70
   1  -6  -8  185.98   22.70
  -1   6   8  196.08   11.20
  -1   6   8  206.78   21.30
  -1   6   8  197.88   12.70
  -1   6   8  201.88   11.30
   0  -6  -8  117.09   24.00
   0   6   8  145.29   11.10
   0   6   8  133.19   22.00
   0   6   8  132.89    9.60
   0   6   8  141.09    9.60
  -1  -6  -8  139.09    5.70
  -1  -6  -8  139.79    5.70
  -1  -6  -8  117.09   26.00
   1   6   8  148.59   11.80
   1   6   8  140.59   10.00
   1   6   8  141.29    9.80
   1   6   8  151.28   24.60
  -2  -6  -8   31.50    4.10
  -2  -6  -8   16.90   15.80
   2   6   8   28.50    5.70
   2   6   8   30.80    5.40
   2   6   8   27.60    5.70
   2   6   8   29.30    7.50
   2   6   8   33.10   14.60
  -3  -6  -8  198.38   12.40
   3   6   8  193.38   11.30
   3   6   8  199.08   13.00
   3   6   8  214.18   13.00
   3   6   8  205.58   29.90
   3   6   8  217.58   16.20
   4  -7  -8  144.59    7.90
   4  -7  -8  112.89   21.90
  -4   7   8  158.38   27.50
  -4   7   8  135.09   13.00
  -4   7   8  142.79   13.60
  -4   7   8  138.19   10.10
  -4   7   8  114.89   11.40
   3  -7  -8  485.15   17.00
   3  -7  -8  502.65   36.80
  -3   7   8  452.15   19.20
  -3   7   8  505.85   35.60
  -3   7   8  483.45   20.70
  -3   7   8  486.45   22.40
  -3   7   8  462.55   21.70
   2  -7  -8  461.75   15.70
   2  -7  -8  402.76   34.90
  -2   7   8  438.26   33.60
  -2   7   8  445.86   20.90
  -2   7   8  425.96   18.70
  -2   7   8  461.25   21.40
   1  -7  -8  500.45   17.20
   1  -7  -8  492.95   38.60
  -1   7   8  524.85   37.70
  -1   7   8  500.75   21.10
  -1   7   8  532.95   23.40
  -1   7   8  511.15   22.00
   0  -7  -8  348.97   34.60
   0  -7  -8  365.56   13.00
   0   7   8  360.46   16.80
   0   7   8  360.16   17.70
   0   7   8  358.06   19.50
   0   7   8  386.56   32.90
  -1  -7  -8  172.58   10.10
   1   7   8  190.48   13.20
   1   7   8  225.08   31.80
   1   7   8  198.48   11.80
   1   7   8  201.58   11.50
   1   7   8  205.88   16.10
   0   8  -9   92.99   10.80
   0   8  -9   89.89   10.60
   0   8  -9   93.09    9.20
   0   8  -9   96.99   25.20
   0  -8   9   80.89   13.30
   0  -8   9  100.89   26.20
   0  -8   9   96.09    9.50
  -1   8  -9  113.89   10.00
  -1   8  -9  110.09   11.70
  -1   8  -9   95.59   25.00
  -1   8  -9  104.79   10.90
   1  -8   9   99.29   13.60
   1  -8   9  108.89    9.80
   1  -8   9   92.09   25.60
  -2   8  -9  442.56   20.00
  -2   8  -9  411.46   19.80
  -2   8  -9  444.16   18.30
  -2   8  -9  438.46   40.60
   2  -8   9  389.46   41.00
   2  -8   9  395.46   22.00
   2  -8   9  437.56   20.10
  -3   8  -9  230.68   15.80
  -3   8  -9  260.07   15.30
  -3   8  -9  257.97   35.80
  -3   8  -9  269.17   14.60
   3  -8   9  240.18   15.10
   3  -8   9  223.28   17.00
   3  -8   9  211.68   36.20
  -4   8  -9  385.66   41.60
   4  -8   9  362.96   42.60
   2   7  -9   79.89    9.50
   2   7  -9   60.79    8.50
   2   7  -9   75.99    9.20
   2   7  -9   81.69   20.10
  -2  -7   9   92.29   22.80
  -2  -7   9   88.39   13.30
  -2  -7   9   91.19   10.30
   1   7  -9  946.81   52.99
   1   7  -9 1008.50   34.50
   1   7  -9  922.01   33.40
   1   7  -9  937.51   32.90
  -1  -7   9  973.10   34.20
  -1  -7   9  852.91   35.50
  -1  -7   9  854.71   52.49
   0   7  -9  141.89    9.60
   0   7  -9  120.99   12.40
   0   7  -9  174.18   27.50
   0  -7   9  131.39   26.90
   0  -7   9  136.29   10.40
   0  -7   9  144.59   13.10
  -1   7  -9  926.51   32.60
  -1   7  -9  966.80   50.89
  -1   7  -9  840.82   33.20
  -1   7  -9  950.00   33.10
   1  -7   9  943.11   33.10
   1  -7   9  928.71   51.89
   1  -7   9  885.11   34.90
  -2   7  -9  263.17   13.50
  -2   7  -9  272.77   29.10
  -2   7  -9  249.18   13.10
  -2   7  -9  264.97   11.90
   2  -7   9  263.67   15.90
   2  -7   9  267.37   14.10
   2  -7   9  251.67   29.60
  -3   7  -9  542.05   19.40
  -3   7  -9  555.64   22.10
  -3   7  -9  550.54   21.80
  -3   7  -9  544.25   37.50
  -3   7  -9  542.95   21.10
   3  -7   9  543.65   22.40
   3  -7   9  507.65   39.00
   3  -7   9  517.75   23.80
  -4   7  -9  459.55   19.40
  -4   7  -9  421.46   21.70
  -4   7  -9  459.45   37.10
  -4   7  -9  470.15   16.80
   4  -7   9  470.85   38.90
   4  -7   9  478.55   21.00
   4  -7   9  488.15   15.90
   4  -7   9  478.25   22.30
  -5   7  -9  399.16   18.40
   5  -7   9  421.36   14.90
   5  -7   9  387.56   21.30
   5  -7   9  367.56   38.50
   5  -7   9  413.56   20.00
   4   6  -9  126.09   27.60
   4   6  -9  138.59   12.20
   4   6  -9  120.19   11.80
   4   6  -9  138.39   11.10
  -4  -6   9  133.49   12.30
  -4  -6   9  114.79   11.60
  -4  -6   9  138.79   25.90
  -4  -6   9  138.39   15.80
   3   6  -9  283.77   14.80
   3   6  -9  247.08   32.70
   3   6  -9  271.67   13.90
   3   6  -9  265.27   13.70
  -3  -6   9  249.68   14.00
  -3  -6   9  266.77   13.90
  -3  -6   9  251.57   17.30
  -3  -6   9  229.98   31.70
   2   6  -9  729.73   43.40
   2   6  -9  693.83   25.50
   2   6  -9  674.73   25.30
   2   6  -9  674.13   25.00
  -2  -6   9  672.73   25.40
  -2  -6   9  675.23   42.30
  -2  -6   9  645.94   28.30
  -2  -6   9  736.13   26.50
   1   6  -9  710.23   25.50
   1   6  -9  711.43   25.50
   1   6  -9  699.93   25.10
   1   6  -9  721.93   41.30
  -1  -6   9  722.33   26.30
  -1  -6   9  664.73   27.90
  -1  -6   9  648.74   40.60
   0   6  -9 1194.28   40.70
   0   6  -9 1226.28   41.00
   0   6  -9 1300.57   56.59
   0   6  -9 1189.98   41.00
   0  -6   9 1214.38   43.50
   0  -6   9 1287.77   42.00
   0  -6   9 1213.38   57.29
  -1   6  -9 1477.35   46.10
  -1   6  -9 1419.06   61.29
  -1   6  -9 1418.36   46.70
  -1   6  -9 1411.86   46.30
   1  -6   9 1388.76   48.80
   1  -6   9 1374.46   62.39
   1  -6   9 1466.65   47.50
  -2   6  -9  624.54   36.70
  -2   6  -9  632.24   22.90
  -2   6  -9  602.84   22.30
  -2   6  -9  611.54   21.40
   2  -6   9  628.94   23.60
   2  -6   9  607.04   24.70
   2  -6   9  636.24   37.40
  -3   6  -9  844.22   27.40
  -3   6  -9  832.62   29.60
  -3   6  -9  844.02   43.30
  -3   6  -9  838.72   29.00
  -3   6  -9  840.82   29.00
   3  -6   9  827.72   44.70
   3  -6   9  871.91   26.10
   3  -6   9  795.12   31.10
   3  -6   9  846.02   30.40
  -4   6  -9  200.58   10.70
  -4   6  -9  222.58   11.70
  -4   6  -9  213.68   24.80
  -4   6  -9  201.48   10.80
  -4   6  -9  194.38    7.90
   4  -6   9  212.38    8.40
   4  -6   9  214.28   13.50
   4  -6   9  219.18   25.70
   4  -6   9  195.28   12.20
  -5   6  -9   53.69    7.50
  -5   6  -9   47.10    8.10
   5  -6   9   40.50    7.60
   5  -6   9   38.00   16.70
   5  -6   9   47.90    4.90
   5  -6   9   48.70    7.60
  -6   6  -9  335.47   16.30
   6  -6   9  289.87   35.10
   6  -6   9  331.37   18.20
   6  -6   9  366.46   36.10
   6  -6   9  337.87   18.60
   6  -6   9  322.57   18.90
   5   5  -9  411.36   19.80
   5   5  -9  433.06   18.90
   5   5  -9  419.96   18.30
   5   5  -9  384.36   42.60
  -5  -5   9  397.06   18.30
  -5  -5   9  400.36   22.10
  -5  -5   9  391.26   39.50
   4   5  -9  515.25   39.50
   4   5  -9  514.55   21.30
   4   5  -9  515.75   17.40
  -4  -5   9  510.65   21.40
  -4  -5   9  548.55   21.70
  -4  -5   9  518.95   38.30
  -4  -5   9  500.75   24.70
   3   5  -9  657.93   24.10
   3   5  -9  630.84   20.20
   3   5  -9  645.74   23.70
   3   5  -9  646.84   24.40
   3   5  -9  656.93   40.90
  -3  -5   9  657.73   40.00
  -3  -5   9  649.74   26.90
  -3  -5   9  653.03   24.20
  -3  -5   9  704.43   25.20
   2   5  -9  317.57   13.20
   2   5  -9  313.67   13.50
   2   5  -9  342.57   27.90
   2   5  -9  317.87   14.20
  -2  -5   9  309.17   26.10
  -2  -5   9  337.27   16.40
  -2  -5   9  340.77   14.60
  -2  -5   9  312.77   13.90
   1   5  -9   52.09   12.80
   1   5  -9   41.00    4.70
   1   5  -9   36.50    4.70
  -1  -5   9   36.80    5.20
  -1  -5   9   40.80   12.00
  -1  -5   9   34.40    6.60
   0   5  -9  535.95   30.40
   0   5  -9  548.25   19.20
   0   5  -9  544.95   19.00
   0   5  -9  561.74   19.60
   0  -5   9  527.95   21.50
   0  -5   9  587.14   20.70
   0  -5   9  501.95   31.20
   0  -5   9  546.35   19.20
  -1   5  -9  371.86   13.90
  -1   5  -9  381.96   24.50
  -1   5  -9  372.26   13.90
  -1   5  -9  365.06   13.60
   1  -5   9  358.66   16.00
   1  -5   9  377.86   25.10
   1  -5   9  369.96   15.00
  -2   5  -9 1654.93   52.29
  -2   5  -9 1708.53   51.99
  -2   5  -9 1623.34   64.09
  -2   5  -9 1658.23   52.59
   2  -5   9 1743.23   54.09
   2  -5   9 1612.14   54.59
   2  -5   9 1634.74   65.99
  -3   5  -9  306.07   22.70
  -3   5  -9  296.97   10.30
  -3   5  -9  332.27   12.50
  -3   5  -9  165.18   11.00
  -3   5  -9  306.57   11.80
   3  -5   9  311.87   10.10
   3  -5   9  320.37   23.80
   3  -5   9  325.27   14.70
  -4   5  -9 1819.02   57.39
  -4   5  -9 1783.02   56.79
   4  -5   9 1706.73   71.19
   4  -5   9 1733.63   59.09
   4  -5   9 1848.22   55.69
   4  -5   9 1860.71   59.59
  -5   5  -9    8.20    3.70
  -5   5  -9   15.80    4.60
   5  -5   9   10.80    3.30
   5  -5   9    3.80   12.60
   5  -5   9    4.20   11.50
   5  -5   9   11.80    5.50
   5  -5   9    8.10    4.70
  -6   5  -9  645.24   24.20
  -6   5  -9  626.64   23.30
   6  -5   9  622.14   25.90
   6  -5   9  647.64   40.70
   6  -5   9  580.14   26.60
   6  -5   9  584.64   40.60
   6  -5   9  623.24   25.90
  -7   5  -9    9.30    6.10
   7  -5   9    7.00    5.30
   7  -5   9   16.60   20.50
   7  -5   9    2.50    7.20
   7  -5   9    0.90    7.00
   6   4  -9  194.48   13.20
   6   4  -9  197.08   13.70
   6   4  -9  209.78   10.50
   6   4  -9  186.18   38.50
  -6  -4   9  195.88   18.00
  -6  -4   9  199.58   14.90
  -6  -4   9  232.98   34.70
   5   4  -9   11.50    4.90
   5   4  -9   17.10   16.80
   5   4  -9   11.50    3.30
  -5  -4   9   10.40   15.60
  -5  -4   9   19.10    6.10
  -5  -4   9    9.70    6.40
  -5  -4   9    8.00    4.60
   4   4  -9  904.41   48.50
   4   4  -9  935.31   31.70
   4   4  -9  936.91   29.20
   4   4  -9  914.11   31.00
   4   4  -9  917.81   32.30
  -4  -4   9  896.91   46.60
  -4  -4   9  928.01   32.80
  -4  -4   9  877.61   34.70
  -4  -4   9  907.61   32.50
   3   4  -9  133.49    5.30
   3   4  -9  140.59    7.80
   3   4  -9  137.49    7.60
   3   4  -9  153.38   20.60
   3   4  -9  146.89    8.90
  -3  -4   9  141.99   18.60
  -3  -4   9  146.79   10.60
  -3  -4   9  123.39    8.80
  -3  -4   9  151.18    9.10
   2   4  -9 2491.75   78.19
   2   4  -9 2657.23   92.39
   2   4  -9 2501.55   78.29
  -2  -4   9 2502.55   91.49
  -2  -4   9 2539.15   79.59
  -2  -4   9 2497.85   81.09
   1   4  -9   12.50    3.10
   1   4  -9   14.10    2.70
   1   4  -9   23.10    8.90
   1   4  -9   19.90    2.90
  -1  -4   9   12.30    2.90
  -1  -4   9   19.30    8.20
  -1  -4   9   15.50    3.80
   0   4  -9 2840.02   84.39
   0   4  -9 2747.82   82.99
   0   4  -9 2747.93   95.29
   0   4  -9 2691.43   82.89
   0  -4   9 2776.32   84.19
   0  -4   9 2710.43   85.79
   0  -4   9 2815.12   84.89
   0  -4   9 2466.65   99.89
  -1   4  -9   14.70    7.50
  -1   4  -9   17.50    1.80
  -1   4  -9   14.40    1.90
  -1   4  -9   23.40    3.30
   1  -4   9   18.90    3.70
   1  -4   9   22.90    3.50
   1  -4   9   28.40    2.90
  -2   4  -9 1749.92   54.79
  -2   4  -9 1813.02   65.19
  -2   4  -9 1750.92   54.89
  -2   4  -9 1794.32   55.19
  -2   4  -9 1883.51   56.19
   2  -4   9 1766.32   54.39
   2  -4   9 1814.32   66.79
   2  -4   9 1760.12   57.69
   2  -4   9 1823.52   57.19
  -3   4  -9   16.30    2.60
  -3   4  -9   13.50    1.40
  -3   4  -9   18.60    3.00
   3  -4   9   24.10    8.40
   3  -4   9   17.50    3.70
   3  -4   9   14.50    2.00
   3  -4   9   15.80    3.40
  -4   4  -9 1200.58   38.70
  -4   4  -9 1203.68   39.00
   4  -4   9 1228.18   49.90
   4  -4   9 1261.27   41.20
   4  -4   9 1185.68   41.10
   4  -4   9 1237.98   38.70
   4  -4   9 1212.38   51.49
  -5   4  -9   82.89    6.20
  -5   4  -9   94.99    6.80
   5  -4   9   87.59    8.50
   5  -4   9   66.39   13.60
   5  -4   9   80.09   15.00
   5  -4   9   83.79    6.00
   5  -4   9   72.29    8.30
  -6   4  -9  699.03   25.00
  -6   4  -9  680.13   24.40
   6  -4   9  672.33   40.50
   6  -4   9  656.13   26.80
   6  -4   9  676.33   39.20
   6  -4   9  698.33   27.30
   6  -4   9  680.33   24.60
  -7   4  -9   45.70    8.60
  -7   4  -9   44.30    7.90
   7  -4   9   34.70    8.30
   7  -4   9   62.49   19.50
   7  -4   9   38.30    6.40
   7  -4   9   30.90   19.70
   7  -4   9   61.89   11.20
   6   3  -9  876.61   31.60
   6   3  -9  921.01   34.60
   6   3  -9  860.41   54.39
   6   3  -9  893.91   32.80
   6   3  -9  911.51   30.80
  -6  -3   9  881.91   36.40
  -6  -3   9  950.00   34.50
  -6  -3   9  871.01   32.60
  -6  -3   9  902.31   50.59
   5   3  -9   24.70   16.20
   5   3  -9   20.70    4.10
   5   3  -9   23.90    4.90
   5   3  -9   27.70    4.00
   5   3  -9   27.10    5.10
  -5  -3   9   24.60    5.50
  -5  -3   9   21.50    7.00
  -5  -3   9   19.50    4.60
  -5  -3   9   34.70   14.80
   4   3  -9 1593.14   66.09
   4   3  -9 1510.15   49.00
   4   3  -9 1557.44   50.59
   4   3  -9 1535.05   48.10
   4   3  -9 1565.74   49.40
  -4  -3   9 1529.15   52.39
  -4  -3   9 1534.15   62.69
  -4  -3   9 1512.65   50.49
   3   3  -9    7.70    3.30
   3   3  -9    9.30    2.30
   3   3  -9   11.20    1.60
   3   3  -9   13.00    2.40
   3   3  -9   10.70    9.80
  -3  -3   9   15.80    3.70
  -3  -3   9    9.00    3.00
  -3  -3   9    8.20    3.90
  -3  -3   9   12.80    7.50
   2   3  -9 2376.76   72.39
   2   3  -9 2450.65   82.99
   2   3  -9 2222.78   69.99
   2   3  -9 2261.07   70.09
  -2  -3   9 2296.27   73.29
  -2  -3   9 2259.47   71.99
  -2  -3   9 2331.47   72.19
  -2  -3   9 2232.78   82.09
   1   3  -9  237.08   15.60
   1   3  -9  219.78    9.50
  -1  -3   9  227.68   15.80
  -1  -3   9  230.48   10.20
  -1  -3   9  212.68    9.30
  -1  -3   9  225.58    9.20
   0   3  -9 2045.80   62.59
   0   3  -9 2001.00   69.09
   0  -3   9 2006.00   62.79
   0  -3   9 1976.10   63.49
   0  -3   9 2042.20   70.19
   0  -3   9 2024.20   62.49
  -1   3  -9  290.67   16.20
  -1   3  -9  306.47   10.70
   1  -3   9  313.57   12.10
   1  -3   9  265.57    9.30
   1  -3   9  322.67   10.70
   1  -3   9  311.47   11.50
   1  -3   9  306.17   17.40
  -2   3  -9  234.18   14.70
  -2   3  -9  257.07    8.40
   2  -3   9  245.88   10.00
   2  -3   9  235.78   10.20
   2  -3   9  234.58   15.70
   2  -3   9  249.88    8.40
   3  -3   9  374.36   20.50
   3  -3   9  396.86   13.40
   3  -3   9  393.06   15.10
   3  -3   9  377.46   21.60
   3  -3   9  379.46   15.00
  -4   3  -9  217.98    7.70
  -4   3  -9  216.28    7.60
   4  -3   9  217.48   10.50
   4  -3   9  216.98   18.60
   4  -3   9  218.78    9.00
   4  -3   9  214.78   10.90
   4  -3   9  209.98   17.70
  -5   3  -9  604.44   20.30
  -5   3  -9  590.04   20.40
   5  -3   9  577.84   31.60
   5  -3   9  611.54   21.10
   5  -3   9  615.84   23.60
   5  -3   9  563.04   32.90
  -6   3  -9  253.77   11.50
  -6   3  -9  229.98   10.80
   6  -3   9  236.28   24.10
   6  -3   9  241.48   24.50
   6  -3   9  228.88   11.50
   6  -3   9  238.48   13.40
   6  -3   9  228.38   13.90
  -7   3  -9  404.06   17.10
  -7   3  -9  404.26   16.90
   7  -3   9  393.46   34.50
   7  -3   9  390.26   20.50
   7  -3   9  397.46   16.90
   7  -3   9  389.96   35.40
   7  -3   9  383.66   19.20
   7   2  -9   45.40    6.10
   7   2  -9   63.39   23.30
   7   2  -9   57.39   11.00
   7   2  -9   43.40    8.30
  -7  -2   9   43.80   19.80
  -7  -2   9   50.59   10.30
  -7  -2   9   44.90    8.30
   6   2  -9 1012.30   54.69
   6   2  -9 1033.30   34.90
   6   2  -9 1007.10   34.20
   6   2  -9 1011.60   35.90
   6   2  -9 1072.39   34.10
  -6  -2   9  999.00   51.09
  -6  -2   9 1020.90   38.70
  -6  -2   9 1022.30   36.90
  -6  -2   9  953.30   35.70
   5   2  -9   62.29    5.30
   5   2  -9   64.39    6.80
   5   2  -9   57.49    5.10
   5   2  -9   83.99   17.00
   5   2  -9   65.79    5.80
  -5  -2   9   63.69    7.80
  -5  -2   9   75.99    7.60
  -5  -2   9   63.49   13.40
  -5  -2   9   70.89    9.00
   4   2  -9 1508.55   48.30
   4   2  -9 1531.05   48.50
   4   2  -9 1558.14   50.49
   4   2  -9 1543.65   48.40
   4   2  -9 1589.34   62.59
  -4  -2   9 1527.95   60.29
  -4  -2   9 1611.04   50.39
  -4  -2   9 1520.45   51.39
  -4  -2   9 1521.65   50.29
   3   2  -9  125.79    4.70
   3   2  -9  128.59    4.70
   3   2  -9  136.59    5.50
   3   2  -9  161.38   16.30
   3   2  -9  135.09    7.70
  -3  -2   9  124.99    7.90
  -3  -2   9  127.19    7.70
  -3  -2   9  129.69   12.90
  -3  -2   9  131.49    6.90
   2   2  -9  649.14   22.20
   2   2  -9  681.93   29.30
   2   2  -9  625.34   20.30
  -2  -2   9  646.84   22.30
  -2  -2   9  627.44   21.50
  -2  -2   9  646.14   22.60
  -2  -2   9  650.13   27.80
   1   2  -9 1175.58   42.50
   1   2  -9 1203.68   37.90
  -1  -2   9 1172.98   37.30
  -1  -2   9 1142.09   36.20
  -1  -2   9 1161.88   38.00
  -1  -2   9 1220.48   38.00
  -1  -2   9 1224.18   42.50
   0   2  -9  359.36   16.20
   0   2  -9  413.16   13.60
   0  -2   9  386.26   13.30
   0  -2   9  366.16   13.60
   0  -2   9  394.86   13.60
   0  -2   9  403.56   12.30
   0  -2   9  385.76   17.20
   1  -2   9 3361.06  105.49
   1  -2   9 3550.24  105.89
   1  -2   9 3451.25  106.29
   1  -2   9 3578.74  110.59
   1  -2   9 3488.85  106.59
   2  -2   9 1629.54   49.10
   2  -2   9 1513.85   53.59
   2  -2   9 1560.94   47.40
   2  -2   9 1595.34   53.09
   2  -2   9 1491.05   48.90
   3  -2   9 2816.92   97.39
   3  -2   9 2740.03   86.99
   3  -2   9 2778.92   86.89
   3  -2   9 2882.41   92.89
   4  -2   9 2112.19   70.49
   4  -2   9 2292.87   79.49
   4  -2   9 2330.97   79.19
   4  -2   9 2257.07   69.89
   4  -2   9 2235.78   71.09
  -5   2  -9  700.13   22.60
  -5   2  -9  689.63   22.50
   5  -2   9  709.53   26.70
   5  -2   9  684.53   35.00
   5  -2   9  721.33   25.60
   5  -2   9  700.83   25.90
   5  -2   9  736.73   35.80
  -6   2  -9  634.44   22.30
  -6   2  -9  645.44   22.50
   6  -2   9  667.73   23.50
   6  -2   9  680.53   25.90
   6  -2   9  623.14   24.70
   6  -2   9  643.94   37.00
   6  -2   9  635.84   36.40
  -7   2  -9  133.09    9.40
  -7   2  -9  153.38   10.10
   7  -2   9  153.98   26.60
   7  -2   9  149.99    9.90
   7  -2   9  167.58   12.70
   7  -2   9  155.88   26.60
   7  -2   9  145.69   13.40
   7   1  -9   90.79   10.70
   7   1  -9   89.99    8.50
   7   1  -9   89.19   22.50
  -7  -1   9   83.19   11.40
  -7  -1   9   84.29    9.10
  -7  -1   9   69.49   13.20
  -7  -1   9   59.49   18.70
   6   1  -9   77.99    6.60
   6   1  -9   75.19    6.00
   6   1  -9   75.69    8.80
   6   1  -9   79.49    6.60
   6   1  -9   83.69   18.70
  -6  -1   9   67.39   16.20
  -6  -1   9   76.59   10.60
  -6  -1   9   71.69    8.70
  -6  -1   9   76.19    9.20
   5   1  -9 1050.59   33.60
   5   1  -9 1045.50   33.30
   5   1  -9  970.60   47.30
   5   1  -9 1009.70   33.00
   5   1  -9 1077.29   35.40
  -5  -1   9 1003.50   45.80
  -5  -1   9 1002.20   35.30
  -5  -1   9 1043.70   35.40
   4   1  -9  696.03   21.80
   4   1  -9  695.73   22.90
   4   1  -9  729.23   26.20
   4   1  -9  674.03   33.70
   4   1  -9  695.23   21.80
  -4  -1   9  686.83   25.10
  -4  -1   9  696.63   23.00
  -4  -1   9  645.04   32.60
  -4  -1   9  700.13   24.60
  -4  -1   9  682.23   24.10
   3   1  -9 3063.39   93.49
   3   1  -9 3060.19   91.89
  -3  -1   9 2801.42  102.39
  -3  -1   9 2992.80   92.69
  -3  -1   9 3102.19   91.99
  -3  -1   9 3002.30   93.49
  -3  -1   9 3014.80   93.49
   2   1  -9 3332.07  106.49
   2   1  -9 3436.06  101.89
   2   1  -9 3291.57  100.39
  -2  -1   9 3361.86  101.99
  -2  -1   9 3299.47  105.49
  -2  -1   9 3239.78  101.39
  -2  -1   9 3345.07  100.49
  -2  -1   9 3125.99  100.69
   1   1  -9 2980.20   91.39
  -1  -1   9 2933.41   90.09
  -1  -1   9 2979.80   91.09
  -1  -1   9 2892.91   88.99
  -1  -1   9 2866.61   88.89
  -1  -1   9 2910.21   89.29
   0  -1   9 3574.94  108.19
   0  -1   9 3515.45  107.49
   1  -1   9 1563.54   48.20
   1  -1   9 1588.14   48.50
   1  -1   9 1515.95   48.10
   1  -1   9 1542.65   48.40
   1  -1   9 1593.64   48.40
   1  -1   9 1602.44   48.40
   2  -1   9  583.64   19.80
   2  -1   9  583.74   23.00
   2  -1   9  623.94   23.10
   2  -1   9  624.74   19.00
   2  -1   9  610.94   20.00
   3  -1   9 1189.58   38.90
   3  -1   9 1220.78   44.60
   3  -1   9 1209.08   39.30
   3  -1   9 1256.67   44.40
   4  -1   9    7.90    2.30
   4  -1   9   11.00    7.00
   4  -1   9   13.90    3.70
   4  -1   9   14.40    6.60
   4  -1   9   16.10    3.30
   5  -1   9  903.31   31.60
   5  -1   9  864.61   30.40
   5  -1   9  874.71   29.50
   5  -1   9  868.41   40.50
   5  -1   9  862.11   40.20
  -6   1  -9   28.10    4.70
  -6   1  -9   24.80    4.40
   6  -1   9   26.30   13.20
   6  -1   9   22.10    5.80
   6  -1   9   31.70   14.50
   6  -1   9   29.10    5.30
   6  -1   9   27.30    4.50
   6  -1   9   14.00    4.30
  -7   1  -9  216.48   11.20
   7  -1   9  241.28   13.50
   7  -1   9  231.28   28.90
   7  -1   9  220.08   15.80
   7  -1   9  219.08   12.90
   7  -1   9  209.08   28.90
   7  -1   9  214.68   13.90
   7   0  -9  374.36   36.20
   7   0  -9  391.16   16.10
   7   0  -9  385.16   16.70
   7   0  -9  378.96   15.90
  -7   0   9  401.96   19.30
  -7   0   9  366.86   17.70
  -7   0   9  369.26   20.60
  -7   0   9  382.96   32.20
   6   0  -9  573.94   36.20
   6   0  -9  571.64   20.10
   6   0  -9  579.94   20.60
  -6   0   9  536.35   22.10
  -6   0   9  562.34   33.10
  -6   0   9  575.64   22.70
  -6   0   9  549.25   23.60
   5   0  -9  598.74   32.90
   5   0  -9  591.24   19.70
   5   0  -9  611.34   20.90
   5   0  -9  580.64   19.50
  -5   0   9  620.84   22.40
  -5   0   9  610.64   21.10
  -5   0   9  587.94   23.00
  -5   0   9  574.74   22.20
  -5   0   9  577.14   30.40
   4   0  -9  493.95   17.30
   4   0  -9  482.25   26.00
  -4   0   9  488.75   18.80
  -4   0   9  513.75   18.20
  -4   0   9  494.85   18.70
  -4   0   9  501.65   17.50
   3   0  -9 1382.66   41.30
   3   0  -9 1306.97   41.80
   3   0  -9 1357.06   49.00
  -3   0   9 1318.27   42.10
  -3   0   9 1295.77   42.60
  -3   0   9 1338.77   43.20
  -3   0   9 1330.57   41.90
  -3   0   9 1285.47   47.00
   2   0  -9  132.79    5.60
   2   0  -9  121.59    8.80
   2   0  -9  122.19    8.10
  -2   0   9  127.49    5.70
  -2   0   9  125.09    5.60
  -2   0   9  119.89    5.20
  -2   0   9  122.49    6.70
  -1   0   9 2560.84   78.59
  -1   0   9 2570.74   79.39
   0   0   9   44.10    3.40
   0   0   9   41.00    3.10
   1   0   9 2495.75   76.69
   1   0   9 2483.75   75.59
   1   0   9 2514.35   76.49
   2   0   9    3.90    1.50
   2   0   9   16.30    4.00
   2   0   9    6.20    1.70
   2   0   9    9.80    3.40
   2   0   9    6.90    1.40
   3   0   9 1660.13   51.79
   3   0   9 1664.33   50.69
   3   0   9 1567.44   51.09
   3   0   9 1610.94   49.80
   3   0   9 1682.23   57.29
   3   0   9 1607.74   49.70
   4   0   9  102.09   13.10
   4   0   9  102.29    6.30
   4   0   9   91.49    6.00
   4   0   9   87.59    3.30
   4   0   9   93.49    7.40
   4   0   9  108.09   12.60
   4   0   9   97.19    3.40
   5   0   9 1310.87   53.99
   5   0   9 1337.47   42.70
   5   0   9 1321.07   54.29
   5   0   9 1263.87   43.10
  -6   0  -9  121.39    6.10
  -6   0  -9  120.99    6.30
   6   0   9  117.19   11.00
   6   0   9  122.09    9.70
   6   0   9  129.89   21.40
   6   0   9  113.39    8.70
   6   0   9  125.69   20.80
  -7   0  -9  845.12   29.80
   7   0   9  956.30   40.40
   7   0   9  873.01   57.39
   7   0   9  871.01   32.30
   7   0   9  899.91   35.40
   7   0   9  900.41   32.40
   7  -1  -9  481.95   18.50
   7  -1  -9  508.25   18.90
   7  -1  -9  467.95   34.50
   7  -1  -9  508.95   39.20
   7  -1  -9  494.95   19.70
   7  -1  -9  510.45   19.60
  -7   1   9  496.55   21.90
  -7   1   9  522.15   22.50
  -7   1   9  514.05   23.90
   6  -1  -9   65.19    6.70
   6  -1  -9   77.19   16.70
   6  -1  -9   66.29   15.40
   6  -1  -9   68.69    6.20
   6  -1  -9   60.59    5.10
  -6   1   9   55.69    8.70
  -6   1   9   67.69    8.00
  -6   1   9   64.99    7.00
  -6   1   9   60.39    9.10
   5  -1  -9  827.32   26.20
   5  -1  -9  804.02   38.10
   5  -1  -9  846.62   27.90
   5  -1  -9  832.02   39.60
   5  -1  -9  843.72   26.30
  -5   1   9  839.22   30.10
  -5   1   9  815.72   29.50
  -5   1   9  854.81   30.10
  -5   1   9  882.21   29.70
   4  -1  -9   15.70    7.60
   4  -1  -9   17.90    6.80
   4  -1  -9   19.60    2.90
   4  -1  -9   22.80    3.30
  -4   1   9   23.80    3.30
  -4   1   9   16.40    3.60
  -4   1   9   18.30    3.50
  -4   1   9   18.80    3.60
   3  -1  -9  967.30   37.20
   3  -1  -9  955.50   36.20
   3  -1  -9  992.10   31.60
  -3   1   9  982.70   32.70
  -3   1   9 1001.40   31.80
  -3   1   9  958.60   31.80
  -3   1   9  960.20   31.50
   2  -1  -9  221.38   11.00
   2  -1  -9  228.18    8.90
   2  -1  -9  205.48   10.60
  -2   1   9  215.78    8.80
  -2   1   9  226.18    8.10
  -2   1   9  217.78    8.40
  -2   1   9  222.38    9.50
  -1   1   9 1891.41   57.19
  -1   1   9 1845.12   56.59
  -1   1   9 1760.92   55.19
  -1   1   9 1770.02   55.09
   0   1   9  900.31   28.80
   0   1   9  870.11   27.00
   0   1   9  944.41   29.10
   0   1   9  856.21   27.00
   1   1   9 3362.86  101.09
   1   1   9 3289.67  101.99
  -2  -1  -9  295.37   14.40
   2   1   9  312.87   11.30
   2   1   9  342.57   15.50
   2   1   9  321.87   11.90
  -3  -1  -9 2416.06   81.89
   3   1   9 2383.86   75.89
   3   1   9 2429.86   74.89
   3   1   9 2541.45   83.39
   3   1   9 2474.65   76.69
  -4  -1  -9    2.60    7.50
   4   1   9    8.30    1.90
   4   1   9    2.30    8.70
   4   1   9    8.00    3.80
   4   1   9   11.40    3.00
  -5  -1  -9  363.16   25.00
   5   1   9  363.16   15.40
   5   1   9  384.06   12.80
   5   1   9  367.56   26.20
  -6  -1  -9   22.00   13.70
  -6  -1  -9   13.30    2.60
  -6  -1  -9   10.30    2.50
   6   1   9   13.10    2.50
   6   1   9   14.80   16.00
   6   1   9   16.70    5.20
   6   1   9   12.70    6.20
   7  -2  -9  193.58   32.40
   7  -2  -9  231.38   10.60
   7  -2  -9  220.98   10.40
   7  -2  -9  232.48   12.50
   7  -2  -9  189.28   25.90
  -7   2   9  225.98   12.20
  -7   2   9  208.28   13.10
  -7   2   9  230.38   14.50
  -7   2   9  231.78   16.30
   6  -2  -9  243.78   10.00
   6  -2  -9  256.97   10.10
   6  -2  -9  291.77   12.40
   6  -2  -9  256.67   25.10
   6  -2  -9  252.07   22.70
  -6   2   9  235.08   13.90
  -6   2   9  261.57   13.50
  -6   2   9  240.98   14.40
  -6   2   9  249.08   12.70
   5  -2  -9 1316.97   53.59
   5  -2  -9 1358.26   45.30
   5  -2  -9 1347.17   54.99
  -5   2   9 1345.97   44.50
  -5   2   9 1333.47   45.10
  -5   2   9 1330.07   44.80
  -5   2   9 1344.57   43.90
   4  -2  -9  409.36   22.10
   4  -2  -9  392.76   15.00
   4  -2  -9  394.66   22.60
  -4   2   9  399.36   16.40
  -4   2   9  407.06   16.20
  -4   2   9  405.76   15.60
  -4   2   9  427.76   15.70
   3  -2  -9 3284.67  107.19
   3  -2  -9 3412.86  101.89
   3  -2  -9 3164.78  108.09
  -3   2   9 3302.47  101.59
  -3   2   9 3223.58  101.89
  -3   2   9 3327.87  101.99
  -3   2   9 3416.96  102.79
   2  -2  -9   25.00    4.90
   2  -2  -9   32.30    6.60
  -2   2   9   30.40    4.50
  -2   2   9   22.90    2.90
  -2   2   9   26.10    3.40
  -2   2   9   35.30    3.20
   1  -2  -9 2251.37   70.39
   1  -2  -9 2431.06   71.39
  -1   2   9 2143.79   68.89
  -1   2   9 2302.27   70.59
  -1   2   9 2199.98   70.09
  -1   2   9 2198.88   68.99
   0  -2  -9    4.40    2.60
   0   2   9    2.40    2.20
   0   2   9    3.00    1.60
   0   2   9    3.30    2.20
  -1  -2  -9  290.27   13.50
   1   2   9  293.57   11.10
   1   2   9  301.07   11.50
   1   2   9  297.27   13.90
   1   2   9  284.77   10.30
  -2  -2  -9  423.46   20.60
   2   2   9  446.36   15.50
   2   2   9  460.65   16.60
   2   2   9  460.65   21.60
  -3  -2  -9   43.50    9.00
   3   2   9   47.10    6.00
   3   2   9   45.10    4.70
   3   2   9   53.29   10.30
   3   2   9   49.99    4.30
  -4  -2  -9 1018.80   45.00
   4   2   9 1069.99   33.60
   4   2   9 1051.29   36.30
   4   2   9 1043.50   45.60
   4   2   9 1033.00   34.90
  -5  -2  -9  147.49   20.90
   5   2   9  151.58   24.10
   5   2   9  177.88    8.10
   5   2   9  154.18    9.80
   5   2   9  171.18   11.90
  -6  -2  -9  306.97   33.70
   6   2   9  366.96   33.90
   6   2   9  365.36   13.60
   6   2   9  337.17   16.50
   6   2   9  349.47   19.10
   7  -3  -9  268.17   31.60
   7  -3  -9  251.47   28.10
   7  -3  -9  285.07   11.60
   7  -3  -9  295.47   13.60
   7  -3  -9  225.68   11.20
  -7   3   9  285.47   17.90
  -7   3   9  286.57   15.10
  -7   3   9  290.37   15.50
  -7   3   9  267.77   14.00
   6  -3  -9    2.10   12.30
   6  -3  -9    2.50    3.30
   6  -3  -9    2.10    2.30
   6  -3  -9    0.40    2.30
   6  -3  -9    1.10   11.40
  -6   3   9   -4.80    3.70
  -6   3   9   -2.50    4.20
  -6   3   9    1.80    4.50
  -6   3   9    6.20    5.60
   5  -3  -9  136.39    8.40
   5  -3  -9  143.29   19.00
   5  -3  -9  110.29   17.10
  -5   3   9  118.19   10.30
  -5   3   9  144.29    9.20
  -5   3   9  142.79   10.00
   4  -3  -9   69.69   11.80
   4  -3  -9   78.29   12.60
  -4   3   9   78.49    6.30
  -4   3   9   68.69    6.70
  -4   3   9   75.79    7.20
  -4   3   9   77.59    6.60
   3  -3  -9   62.99   11.20
   3  -3  -9   60.79    9.80
  -3   3   9   59.99    5.80
  -3   3   9   62.69    5.30
  -3   3   9   60.29    5.60
   2  -3  -9  893.51   36.00
   2  -3  -9  901.81   34.70
  -2   3   9  951.80   31.10
  -2   3   9  969.60   30.60
  -2   3   9  927.61   30.50
   1  -3  -9  302.87   16.60
  -1   3   9  314.17   12.40
  -1   3   9  322.97   10.90
  -1   3   9  296.17   11.90
  -1   3   9  337.57   16.00
  -1   3   9  302.47   11.60
   0  -3  -9 1380.86   48.50
   0   3   9 1405.26   43.70
   0   3   9 1384.86   47.70
   0   3   9 1321.87   42.90
   0   3   9 1327.97   43.80
  -1  -3  -9  552.24   25.30
   1   3   9  569.84   19.30
   1   3   9  581.84   20.40
   1   3   9  562.04   25.20
  -2  -3  -9  606.54   28.60
   2   3   9  621.54   29.20
   2   3   9  601.24   21.10
   2   3   9  642.24   22.70
  -3  -3  -9  224.98   19.80
   3   3   9  228.08    9.70
   3   3   9  224.48   11.60
   3   3   9  210.48   10.00
   3   3   9  218.98   19.60
  -4  -3  -9  257.57   24.00
   4   3   9  238.98   24.80
   4   3   9  258.37   10.90
   4   3   9  242.68   11.90
  -5  -3  -9   34.80   17.40
   5   3   9   55.29   16.60
   5   3   9   41.40    7.60
   5   3   9   41.40    6.60
   5   3   9   43.60    6.60
   7  -4  -9  172.88    8.90
   7  -4  -9  171.28   10.70
  -7   4   9  200.78   14.50
  -7   4   9  181.08   13.50
  -7   4   9  185.98   15.90
  -7   4   9  175.88   13.00
   6  -4  -9  235.38   26.50
   6  -4  -9  218.98   24.60
   6  -4  -9  241.68   12.00
   6  -4  -9  235.68    9.50
   6  -4  -9  247.48    9.50
  -6   4   9  240.08   13.30
  -6   4   9  245.38   15.00
  -6   4   9  248.78   12.90
  -6   4   9  248.78   14.20
   5  -4  -9  250.47   23.10
   5  -4  -9  298.77   12.90
   5  -4  -9  238.18   21.70
  -5   4   9  268.17   13.60
  -5   4   9  284.87   13.10
  -5   4   9  272.37   14.30
  -5   4   9  287.87   13.80
   4  -4  -9  323.27   22.20
   4  -4  -9  327.27   22.90
   4  -4  -9  348.77   14.10
  -4   4   9  327.67   15.30
  -4   4   9  352.86   14.90
  -4   4   9  346.67   15.00
  -4   4   9  346.57   14.70
   3  -4  -9  144.59    7.90
   3  -4  -9  125.69   15.20
   3  -4  -9  131.39   14.50
  -3   4   9  139.89    8.30
  -3   4   9  144.69    8.60
  -3   4   9  145.09    8.70
   2  -4  -9  536.35   27.50
  -2   4   9  553.04   19.10
  -2   4   9  551.74   20.50
  -2   4   9  566.54   20.30
  -2   4   9  575.34   20.50
  -2   4   9  584.34   27.00
   1  -4  -9   82.49   13.60
  -1   4   9   75.89    6.00
  -1   4   9   83.99    6.10
  -1   4   9   75.59    5.60
  -1   4   9   95.59   12.20
   0  -4  -9 1059.29   43.10
   0   4   9 1040.30   34.60
   0   4   9  974.00   34.20
   0   4   9  995.10   33.50
   0   4   9 1051.29   40.90
  -1  -4  -9  254.27   19.50
   1   4   9  260.87   11.50
   1   4   9  241.28   11.90
   1   4   9  266.67   19.20
   1   4   9  256.77   10.90
  -2  -4  -9  700.83   35.70
   2   4   9  712.23   26.20
   2   4   9  772.02   36.10
   2   4   9  762.92   27.20
  -3  -4  -9  253.97   24.90
   3   4   9  251.57   11.40
   3   4   9  260.77   24.30
   3   4   9  229.38   11.50
  -4  -4  -9  190.58   28.30
   4   4   9  197.88   11.50
   4   4   9  196.58   10.40
   4   4   9  195.38   13.60
   4   4   9  185.48   24.60
   6  -5  -9  161.78   10.20
   6  -5  -9  148.49   25.90
   6  -5  -9  166.58   25.20
   6  -5  -9  175.68    7.50
  -6   5   9  165.48   13.40
  -6   5   9  150.18   11.30
  -6   5   9  165.08   14.40
  -6   5   9  174.98   11.80
   5  -5  -9   -2.10   11.20
   5  -5  -9    9.30    4.00
   5  -5  -9   23.50   13.70
  -5   5   9    1.60    5.50
  -5   5   9    3.00    4.20
  -5   5   9   12.00    5.20
  -5   5   9    1.00    5.60
   4  -5  -9  292.37   24.70
   4  -5  -9  285.77   25.20
   4  -5  -9  304.87   13.50
  -4   5   9  281.17   13.60
  -4   5   9  290.87   14.50
  -4   5   9  266.47   14.30
  -4   5   9  270.57   14.10
   3  -5  -9  183.28   19.20
  -3   5   9  206.48   11.00
  -3   5   9  208.08   11.40
  -3   5   9  202.08    9.60
   2  -5  -9   45.90   12.00
  -2   5   9   39.20    6.00
  -2   5   9   63.79   11.80
  -2   5   9   48.20    6.00
  -2   5   9   45.50    4.90
  -2   5   9   55.69    7.50
   1  -5  -9   95.69   17.10
  -1   5   9   81.99    7.00
  -1   5   9   82.59    6.70
  -1   5   9   78.29   15.20
  -1   5   9   87.99    7.90
   0  -5  -9   23.40   11.00
   0   5   9    2.10    3.80
   0   5   9   -0.30    9.40
   0   5   9    2.30    3.90
   0   5   9    4.20    3.40
  -1  -5  -9  206.68   23.00
   1   5   9  189.28   14.10
   1   5   9  189.58   21.20
   1   5   9  182.38   10.10
  -2  -5  -9  145.89   24.30
   2   5   9  154.38   11.40
   2   5   9  148.19    9.40
   2   5   9  132.09    9.00
   2   5   9  131.49   19.90
   2   5   9  133.59    8.90
  -3  -5  -9  336.37   33.00
   3   5   9  321.87   15.70
   3   5   9  357.96   18.20
   3   5   9  376.06   32.70
   3   5   9  324.87   15.60
   5  -6  -9  -17.90   16.20
   5  -6  -9    2.50    4.20
   5  -6  -9   16.50   14.80
  -5   6   9    0.40    6.70
  -5   6   9    4.00    6.40
  -5   6   9   -3.80    5.80
  -5   6   9    7.90    6.60
   4  -6  -9  396.86   34.00
   4  -6  -9  460.45   31.70
  -4   6   9  440.46   18.90
  -4   6   9  465.55   20.40
  -4   6   9  439.76   20.60
   3  -6  -9  298.77   28.70
  -3   6   9  320.97   15.90
  -3   6   9  305.57   15.40
  -3   6   9  280.17   13.00
  -3   6   9  282.57   14.20
  -3   6   9  309.87   26.30
   2  -6  -9  842.02   44.60
  -2   6   9  914.51   32.40
  -2   6   9  884.61   32.40
  -2   6   9  944.61   33.80
  -2   6   9  936.11   44.90
   1  -6  -9  140.49   25.30
  -1   6   9  145.49   22.10
  -1   6   9  149.69   11.30
  -1   6   9  141.89   10.30
  -1   6   9  136.39    9.80
   0  -6  -9  780.12   44.60
   0   6   9  764.02   28.70
   0   6   9  846.22   31.00
   0   6   9  827.22   42.90
   0   6   9  791.62   29.10
  -1  -6  -9   24.50   16.70
   1   6   9   17.30   13.10
   1   6   9   16.90    5.00
   1   6   9   17.70    4.80
   1   6   9   16.10    6.30
  -2  -6  -9  146.49   30.60
   2   6   9  176.38   10.80
   2   6   9  175.78   28.70
   2   6   9  170.68   14.40
   2   6   9  164.58   11.70
   2   6   9  172.48   10.80
  -3   7   9    8.70    4.30
  -3   7   9    6.40   15.40
  -3   7   9    6.40    7.90
  -3   7   9    0.20    6.40
  -3   7   9    1.90    5.80
   2  -7  -9   55.99   18.50
  -2   7   9   73.59   19.30
  -2   7   9   67.09   11.50
  -2   7   9   52.99    6.90
  -2   7   9   65.39    9.30
   1  -7  -9   83.29   21.60
  -1   7   9   52.19   16.60
  -1   7   9   51.89    8.60
  -1   7   9   53.19    7.70
  -1   7   9   48.20    7.00
   0   7   9   99.39   21.80
   0   7   9   77.89   12.70
   0   7   9   68.79   10.40
  -1   8 -10  467.05   41.00
  -1   8 -10  430.06   19.00
  -1   8 -10  435.96   19.70
   1  -8  10  443.26   23.40
  -2   8 -10   74.69   10.00
  -2   8 -10   63.09   22.60
  -2   8 -10   73.29    8.60
   2  -8  10   64.09   10.50
   2  -8  10   73.69   24.40
   2  -8  10   71.89   10.70
   2   7 -10   43.10   20.80
   2   7 -10   39.20    6.80
   2   7 -10   56.39    8.60
  -2  -7  10   50.99   22.20
  -2  -7  10   50.69    9.80
  -2  -7  10   31.70    8.10
   1   7 -10  284.87   14.50
   1   7 -10  286.77   14.60
   1   7 -10  268.07   34.10
  -1  -7  10  247.98   34.40
  -1  -7  10  256.57   17.70
  -1  -7  10  276.07   14.30
   0   7 -10  165.58   10.20
   0   7 -10  176.48   28.20
   0   7 -10  157.48   10.50
   0   7 -10  164.28   10.60
   0  -7  10  145.99   12.70
   0  -7  10  148.69   28.80
  -1   7 -10  891.51   31.30
  -1   7 -10  918.41   31.40
  -1   7 -10  917.91   51.09
  -1   7 -10  919.81   31.80
   1  -7  10  937.51   33.10
   1  -7  10  823.52   50.39
   1  -7  10  877.81   34.70
  -2   7 -10   79.39    8.90
  -2   7 -10   64.39    7.60
  -2   7 -10   68.09   18.90
  -2   7 -10   88.99    7.40
   2  -7  10   80.49   20.10
   2  -7  10   78.29    9.20
   2  -7  10   70.59   11.30
  -3   7 -10  972.60   33.50
  -3   7 -10  988.00   32.20
  -3   7 -10  967.60   51.79
  -3   7 -10  995.30   34.20
   3  -7  10  990.90   35.50
   3  -7  10  959.70   53.89
   3  -7  10  917.31   36.10
  -4   7 -10   42.80   18.60
  -4   7 -10   41.30    6.90
  -4   7 -10   30.40    5.40
  -4   7 -10   -1.90    2.70
  -4   7 -10   40.70    7.30
   4  -7  10   47.40    7.90
   4  -7  10   27.80    6.90
   4  -7  10   49.80   18.70
   4  -7  10   35.40    3.30
   3   6 -10  882.31   52.49
   3   6 -10  865.91   31.80
   3   6 -10  863.91   31.50
  -3  -6  10  856.31   31.80
  -3  -6  10  903.61   32.70
  -3  -6  10  836.72   35.30
  -3  -6  10  852.21   51.89
   2   6 -10   25.80    5.80
   2   6 -10   23.70    5.20
   2   6 -10   16.50   15.70
   2   6 -10   18.70    4.80
  -2  -6  10   25.40    5.60
  -2  -6  10   29.20    5.20
  -2  -6  10   34.80   16.60
  -2  -6  10   27.70    7.50
   1   6 -10 1063.79   36.10
   1   6 -10 1141.29   54.29
   1   6 -10 1081.49   36.40
   1   6 -10 1100.59   37.20
  -1  -6  10 1128.39   38.10
  -1  -6  10 1064.59   53.89
  -1  -6  10 1054.79   40.00
  -1  -6  10 1077.19   36.80
   0   6 -10  244.98   11.40
   0   6 -10  207.38   10.10
   0   6 -10  225.08   24.60
   0   6 -10  208.28   10.30
   0  -6  10  220.78   13.80
   0  -6  10  211.78   11.70
   0  -6  10  215.88   25.00
  -1   6 -10 1246.78   56.29
  -1   6 -10 1301.67   41.90
  -1   6 -10 1314.47   42.10
  -1   6 -10 1319.97   42.30
   1  -6  10 1364.26   44.00
   1  -6  10 1237.58   45.00
   1  -6  10 1281.17   59.09
  -2   6 -10  416.16   15.70
  -2   6 -10  427.96   16.00
  -2   6 -10  432.26   16.30
  -2   6 -10  446.86   30.40
   2  -6  10  436.46   19.40
   2  -6  10  413.26   18.00
   2  -6  10  418.76   32.90
  -3   6 -10 1328.87   58.99
  -3   6 -10 1399.06   43.00
  -3   6 -10 1369.26   44.00
  -3   6 -10 1333.27   44.40
  -3   6 -10 1370.16   44.70
   3  -6  10 1326.37   60.89
   3  -6  10 1330.67   47.10
   3  -6  10 1453.15   46.60
  -4   6 -10  189.38   10.30
  -4   6 -10  192.28   26.30
  -4   6 -10  200.08   10.10
  -4   6 -10  218.48   10.80
  -4   6 -10  183.88    7.10
   4  -6  10  195.28   12.40
   4  -6  10  226.38   26.10
   4  -6  10  208.68   13.80
   4  -6  10  193.78    7.90
  -5   6 -10  593.04   22.10
  -5   6 -10  589.84   22.70
   5  -6  10  546.85   40.60
   5  -6  10  602.74   25.10
   5  -6  10  577.54   25.40
   5  -6  10  602.44   20.50
   5  -6  10  642.04   40.00
   4   5 -10  265.57   13.20
   4   5 -10  270.77   15.20
   4   5 -10  313.87   38.70
   4   5 -10  271.27   13.40
  -4  -5  10  282.77   15.10
  -4  -5  10  250.57   30.60
  -4  -5  10  262.77   15.00
  -4  -5  10  261.27   18.20
   3   5 -10 1689.53   55.39
   3   5 -10 1711.13   53.99
   3   5 -10 1730.13   54.29
   3   5 -10 1746.93   73.09
  -3  -5  10 1641.34   71.29
  -3  -5  10 1693.03   55.59
  -3  -5  10 1625.74   54.99
  -3  -5  10 1607.74   57.89
   2   5 -10  311.37   12.90
   2   5 -10  314.67   14.20
   2   5 -10  349.17   28.50
   2   5 -10  320.17   13.20
  -2  -5  10  346.57   27.30
  -2  -5  10  321.17   14.50
  -2  -5  10  329.27   16.70
  -2  -5  10  358.46   15.00
   1   5 -10 2425.26   74.29
   1   5 -10 2610.94   90.69
   1   5 -10 2437.96   74.19
   1   5 -10 2487.05   75.79
  -1  -5  10 2413.36   90.29
  -1  -5  10 1938.01   78.99
  -1  -5  10 2478.15   75.49
   0   5 -10  160.38    8.20
   0   5 -10  155.98    7.00
   0   5 -10  175.78   20.30
   0   5 -10  166.48    7.20
   0  -5  10  180.68   20.80
   0  -5  10  174.78   10.70
   0  -5  10  167.78    9.20
   0  -5  10  167.88    8.30
  -1   5 -10 1026.70   33.10
  -1   5 -10 1010.80   31.90
  -1   5 -10 1010.40   31.90
  -1   5 -10  980.80   44.00
   1  -5  10 1021.90   47.40
   1  -5  10 1067.09   34.60
   1  -5  10  987.40   35.40
  -2   5 -10  501.45   17.80
  -2   5 -10  496.05   16.90
  -2   5 -10  480.85   16.20
  -2   5 -10  485.05   27.70
  -2   5 -10  484.05   16.20
   2  -5  10  498.25   19.90
   2  -5  10  501.25   19.10
   2  -5  10  472.75   29.20
  -3   5 -10  132.19    6.10
  -3   5 -10  123.39    6.30
  -3   5 -10  121.69   18.10
  -3   5 -10  140.29    7.50
  -3   5 -10  127.69    5.50
   3  -5  10  149.39    9.40
   3  -5  10  137.99    5.20
   3  -5  10  133.59   19.60
  -4   5 -10 1486.95   46.90
  -4   5 -10 1471.45   47.10
   4  -5  10 1404.16   61.99
   4  -5  10 1454.85   50.19
   4  -5  10 1553.24   61.39
   4  -5  10 1552.84   50.19
   4  -5  10 1503.35   46.50
  -5   5 -10  112.19    7.20
  -5   5 -10  105.19    7.70
   5  -5  10  105.59    6.50
   5  -5  10   95.39   10.20
   5  -5  10  108.69   10.10
   5  -5  10  114.09   20.90
   5  -5  10   69.09   17.10
  -6   5 -10 1252.67   41.10
   6  -5  10 1181.78   42.60
   6  -5  10 1229.48   62.59
   6  -5  10 1251.67   44.70
   6  -5  10 1280.87   59.59
   6  -5  10 1278.27   44.90
   5   4 -10  314.67   16.00
   5   4 -10  334.07   12.90
   5   4 -10  331.97   14.50
   5   4 -10  378.46   37.60
   5   4 -10  332.47   15.30
  -5  -4  10  331.27   17.10
  -5  -4  10  345.97   20.60
  -5  -4  10  359.36   17.90
  -5  -4  10  339.67   33.30
   4   4 -10   66.69    8.30
   4   4 -10   52.69   17.50
   4   4 -10   70.59    4.10
   4   4 -10   61.79    6.60
   4   4 -10   67.59    6.10
  -4  -4  10   59.59   10.60
  -4  -4  10   71.19   15.90
  -4  -4  10   60.49    7.50
  -4  -4  10   59.79    8.10
   3   4 -10   27.70   12.50
   3   4 -10   16.80    4.60
   3   4 -10   20.10    3.90
   3   4 -10   21.40    4.00
  -3  -4  10   22.30    5.20
  -3  -4  10   26.10    4.60
  -3  -4  10   14.30   11.60
  -3  -4  10   19.70    5.70
   2   4 -10  812.42   39.30
   2   4 -10  790.22   25.90
   2   4 -10  810.82   26.10
   2   4 -10  978.40   31.20
  -2  -4  10  802.32   28.20
  -2  -4  10  812.02   28.40
  -2  -4  10  800.72   38.80
  -2  -4  10  765.22   29.80
   1   4 -10    2.80    8.30
   1   4 -10    5.00    2.80
  -1  -4  10    7.90    3.50
  -1  -4  10   10.70    7.10
  -1  -4  10    4.40    2.70
   0   4 -10 2370.76   84.19
   0   4 -10 2454.85   74.99
   0  -4  10 2420.56   85.79
   0  -4  10 2366.96   76.49
   0  -4  10 2457.95   74.89
   0  -4  10 2395.56   75.39
  -1   4 -10  185.08   15.60
  -1   4 -10  229.28    8.60
   1  -4  10  223.38   10.00
   1  -4  10  215.28    8.40
   1  -4  10  194.48   17.60
   1  -4  10  195.18   10.30
  -2   4 -10 2130.99   65.99
  -2   4 -10 2081.89   74.79
  -2   4 -10 2080.59   65.09
   2  -4  10 2053.39   64.09
   2  -4  10 2171.78   67.29
   2  -4  10 2210.68   77.29
   2  -4  10 2145.69   67.79
   3  -4  10  455.45   14.70
   3  -4  10  430.16   17.70
   3  -4  10  411.86   24.90
   3  -4  10  464.85   17.40
   4  -4  10  955.60   43.60
   4  -4  10  946.01   42.20
   4  -4  10  939.21   30.60
   4  -4  10  949.90   33.90
  -5   4 -10   69.49    5.10
  -5   4 -10   74.19    4.70
   5  -4  10   87.19   17.60
   5  -4  10   78.59   15.50
   5  -4  10   77.39    6.00
   5  -4  10   72.89    8.40
   5  -4  10   80.99    8.70
  -6   4 -10  554.24   19.20
  -6   4 -10  433.06   18.90
   6  -4  10  548.15   23.10
   6  -4  10  582.54   23.70
   6  -4  10  507.85   38.40
   6  -4  10  570.04   20.40
   6  -4  10  574.44   36.20
   6   3 -10  476.95   21.00
   6   3 -10  487.75   19.00
   6   3 -10  468.45   18.60
   6   3 -10  426.96   42.40
  -6  -3  10  465.05   24.70
  -6  -3  10  437.76   37.20
  -6  -3  10  498.15   22.30
  -6  -3  10  437.16   19.90
   5   3 -10   45.40    4.90
   5   3 -10   30.70   17.60
   5   3 -10   44.70    5.60
   5   3 -10   41.50    6.60
   5   3 -10   41.20    6.10
  -5  -3  10   41.00    7.90
  -5  -3  10   37.40    5.70
  -5  -3  10   33.30   14.10
  -5  -3  10   38.10    8.30
   4   3 -10 1175.68   53.59
   4   3 -10 1209.38   40.40
   4   3 -10 1189.28   37.20
   4   3 -10 1163.08   37.50
   4   3 -10 1188.78   37.80
  -4  -3  10 1176.48   40.20
  -4  -3  10 1178.78   51.99
  -4  -3  10 1147.99   41.80
  -4  -3  10 1213.78   40.60
   3   3 -10  336.27   14.20
   3   3 -10  329.57   11.00
   3   3 -10  332.27   24.90
  -3  -3  10  330.27   13.60
  -3  -3  10  336.87   22.10
  -3  -3  10  325.67   15.10
  -3  -3  10  324.27   13.80
   2   3 -10 1751.22   55.69
   2   3 -10 1826.32   65.59
  -2  -3  10 1730.03   63.99
  -2  -3  10 1706.33   55.29
  -2  -3  10 1710.23   56.59
  -2  -3  10 1745.53   55.69
   1   3 -10  364.26   20.80
   1   3 -10  391.66   14.40
  -1  -3  10  382.36   14.10
  -1  -3  10  375.76   20.70
  -1  -3  10  381.16   14.30
  -1  -3  10  388.26   15.20
   0   3 -10 2065.89   81.29
   0   3 -10 2407.66   71.99
   0  -3  10 2452.45   71.99
   0  -3  10 2319.07   72.79
   0  -3  10 2353.46   72.09
  -1   3 -10  116.59    5.00
  -1   3 -10  120.19    5.40
  -1   3 -10   83.29   11.70
   1  -3  10  111.99    5.10
   1  -3  10  116.49    6.10
   1  -3  10  115.49    3.60
   1  -3  10   95.49    6.40
   1  -3  10  114.99    3.60
   2  -3  10 3033.90   98.69
   2  -3  10 2849.01   91.59
   2  -3  10 2912.01   89.69
   2  -3  10 3022.50   91.49
   3  -3  10   21.70    6.90
   3  -3  10   19.50    3.70
   3  -3  10   24.00    4.40
   3  -3  10   23.20    3.20
   3  -3  10   12.70    7.00
   4  -3  10 1869.51   58.09
   4  -3  10 1783.22   59.59
   4  -3  10 1877.91   59.99
   4  -3  10 1901.31   68.39
   4  -3  10 1852.81   68.99
   5  -3  10   18.30   11.70
   5  -3  10   13.50    4.50
   5  -3  10   16.10   11.30
   5  -3  10   11.60    3.50
  -6   3 -10  519.35   17.60
  -6   3 -10  512.15   17.60
   6  -3  10  532.25   35.60
   6  -3  10  521.65   22.20
   6  -3  10  521.65   34.20
   6  -3  10  560.14   23.00
   6  -3  10  565.64   20.40
   7  -3  10   82.99   11.40
   7  -3  10   68.09   12.30
   7  -3  10   83.29    9.90
   6   2 -10  612.64   22.40
   6   2 -10  622.54   44.00
   6   2 -10  654.13   22.90
   6   2 -10  644.04   22.70
   6   2 -10  625.34   25.40
  -6  -2  10  658.33   26.10
  -6  -2  10  633.54   25.10
  -6  -2  10  656.53   41.90
  -6  -2  10  626.04   28.10
   5   2 -10   37.60    5.30
   5   2 -10   36.30    4.40
   5   2 -10   38.10   17.20
   5   2 -10   35.90    4.20
   5   2 -10   35.30    4.20
  -5  -2  10   32.70    5.10
  -5  -2  10   44.50   13.80
  -5  -2  10   34.90    5.90
  -5  -2  10   29.30    6.60
   4   2 -10 1235.78   52.99
   4   2 -10 1199.08   37.80
   4   2 -10 1179.98   40.00
  -4  -2  10 1165.98   49.10
  -4  -2  10 1241.38   39.90
  -4  -2  10 1168.68   41.20
  -4  -2  10 1168.48   40.00
   3   2 -10   33.00    2.80
   3   2 -10   41.40    9.80
   3   2 -10   35.50    4.50
  -3  -2  10   34.30    8.20
  -3  -2  10   35.10    5.40
  -3  -2  10   34.80    4.60
  -3  -2  10   32.80    4.60
   2   2 -10  755.12   31.60
   2   2 -10  724.53   25.10
  -2  -2  10  726.43   30.30
  -2  -2  10  728.43   23.00
  -2  -2  10  732.53   24.30
  -2  -2  10  743.93   25.40
  -2  -2  10  721.73   25.20
   1   2 -10   15.00    4.80
   1   2 -10   24.70    3.00
  -1  -2  10   20.10    4.70
  -1  -2  10   20.60    3.30
  -1  -2  10   20.30    2.80
  -1  -2  10   18.60    3.00
  -1  -2  10   19.10    1.70
   0   2 -10   10.50    3.30
   0   2 -10    7.90    1.00
   0   2 -10    9.70    2.00
   0  -2  10    7.80    1.90
   0  -2  10    9.90    1.50
   0  -2  10   10.30    2.10
   0  -2  10    6.30    3.60
   0  -2  10    8.80    1.70
   1  -2  10   84.29    4.90
   1  -2  10   93.19    4.70
   1  -2  10   87.79    4.40
   1  -2  10   87.19    6.80
   1  -2  10  110.99    4.10
   1  -2  10   83.29    7.60
   2  -2  10   82.39    4.90
   2  -2  10   83.39    8.40
   2  -2  10   83.89    8.80
   2  -2  10   84.79    5.10
   2  -2  10   84.09    3.50
   3  -2  10  392.16   15.20
   3  -2  10  420.66   15.50
   3  -2  10  427.56   20.80
   4  -2  10  100.19   13.30
   4  -2  10  117.19    7.90
   4  -2  10  103.89    7.30
   4  -2  10  123.09   14.10
   5  -2  10  163.08   18.70
   5  -2  10  159.18   17.60
   5  -2  10  145.49   10.70
   5  -2  10  147.99    8.60
   6  -2  10  400.66   31.90
   6  -2  10  448.66   20.40
   6  -2  10  419.96   31.80
   6  -2  10  429.76   19.10
   6  -2  10  431.36   17.60
   7  -2  10   -3.90   23.30
   7  -2  10    0.80    7.00
   7  -2  10    0.50    4.70
   7  -2  10    7.90    6.40
   7   1 -10    1.20    4.10
   7   1 -10    4.50    3.90
   7   1 -10    5.80    4.90
  -7  -1  10    0.80    6.60
  -7  -1  10    9.40    7.00
   6   1 -10  333.87   15.40
   6   1 -10  301.67   14.80
   6   1 -10  308.27   12.30
   6   1 -10  317.57   12.50
   6   1 -10  308.47   31.60
  -6  -1  10  309.67   16.10
  -6  -1  10  290.37   26.70
  -6  -1  10  347.77   16.30
  -6  -1  10  314.27   17.50
   5   1 -10   38.70    5.30
   5   1 -10   39.70    3.10
   5   1 -10   42.00    3.00
   5   1 -10   39.90    4.80
   5   1 -10   41.30   13.30
  -5  -1  10   37.30    5.60
  -5  -1  10   35.40   11.80
  -5  -1  10   47.10    6.70
   4   1 -10  205.48   10.20
   4   1 -10  209.48    8.60
   4   1 -10  197.28   19.20
  -4  -1  10  212.08    8.90
  -4  -1  10  198.68   10.00
  -4  -1  10  204.48   11.20
  -4  -1  10  207.38   16.90
  -4  -1  10  202.68   10.40
   3   1 -10  857.41   26.80
   3   1 -10  853.41   35.60
  -3  -1  10  801.32   30.00
  -3  -1  10  825.72   26.80
  -3  -1  10  831.22   28.50
  -3  -1  10  821.72   27.60
   2   1 -10 1087.19   34.70
   2   1 -10 1064.29   38.60
  -2  -1  10 1041.90   34.20
  -2  -1  10 1078.19   33.30
  -2  -1  10 1088.79   34.90
  -2  -1  10 1062.89   37.40
  -2  -1  10  985.40   33.40
   1   1 -10 1659.33   50.69
  -1  -1  10 1675.33   51.59
  -1  -1  10 1616.74   50.49
  -1  -1  10 1575.34   50.29
   0  -1  10 3582.64  106.89
   0  -1  10 3443.96  106.49
   0  -1  10 3519.15  107.59
   1  -1  10  650.53   21.60
   1  -1  10  695.93   21.30
   1  -1  10  676.03   21.70
   1  -1  10  644.74   21.10
   2  -1  10 2973.20   94.39
   2  -1  10 3229.48   94.59
   2  -1  10 2918.01   91.99
   2  -1  10 2995.00   91.29
   2  -1  10 2944.01   92.19
   3  -1  10  145.39   11.40
   3  -1  10  141.09   11.40
   3  -1  10  131.19    6.70
   3  -1  10  118.79    7.00
   4  -1  10  485.75   18.30
   4  -1  10  491.25   25.30
   4  -1  10  506.15   25.60
   4  -1  10  514.15   19.20
   5  -1  10  221.68   20.50
   5  -1  10  215.68   21.00
   5  -1  10  223.38   10.20
   5  -1  10  236.18   11.30
   6  -1  10   13.10    5.10
   6  -1  10   15.30   12.20
   6  -1  10   20.40    5.30
   6  -1  10   20.40    6.00
   6  -1  10   18.30    4.40
   6  -1  10   25.50   13.40
   7  -1  10  334.67   17.60
   7  -1  10  337.47   19.40
   7  -1  10  334.97   16.10
   7   0 -10  394.76   17.20
   7   0 -10  405.26   38.70
   7   0 -10  409.86   15.60
   7   0 -10  430.16   17.20
  -7   0  10  415.16   22.10
  -7   0  10  399.86   18.90
  -7   0  10  421.36   20.60
   6   0 -10 1236.18   40.50
   6   0 -10 1229.58   38.40
   6   0 -10 1267.97   40.40
   6   0 -10 1223.68   58.39
   6   0 -10 1180.48   38.30
  -6   0  10 1168.98   42.00
  -6   0  10 1216.08   43.50
  -6   0  10 1236.78   42.40
   5   0 -10  803.62   26.60
   5   0 -10  792.12   26.70
   5   0 -10  790.72   39.60
  -5   0  10  810.02   27.00
  -5   0  10  774.92   28.40
  -5   0  10  741.93   30.80
   4   0 -10 2919.71   89.29
   4   0 -10 2962.10  100.39
   4   0 -10 2894.81   89.79
  -4   0  10 2995.60   91.49
  -4   0  10 2934.11   89.89
  -4   0  10 2823.92   90.39
  -4   0  10 2830.62   91.29
   3   0 -10  639.54   26.20
   3   0 -10  624.34   20.30
   3   0 -10  634.74   27.70
   3   0 -10  624.44   21.10
  -3   0  10  617.74   22.70
  -3   0  10  625.34   21.20
  -3   0  10  651.33   21.40
  -3   0  10  625.44   21.90
   2   0 -10 1989.40   62.39
   2   0 -10 1996.50   63.09
  -2   0  10 1862.21   60.19
  -2   0  10 1958.60   60.89
  -2   0  10 1925.91   60.69
  -2   0  10 2039.40   62.19
  -1   0  10  677.93   20.90
  -1   0  10  689.03   23.10
  -1   0  10  666.73   22.20
  -1   0  10  675.53   21.10
   0   0  10  362.26   13.00
   0   0  10  379.26   13.50
   1   0  10 1075.09   32.50
   1   0  10 1066.99   33.60
   1   0  10 1026.00   32.40
   1   0  10 1062.59   33.70
   2   0  10   73.39    6.10
   2   0  10   83.89    4.20
   2   0  10   79.99    4.60
   2   0  10   79.69    5.80
   2   0  10   70.69    4.10
   3   0  10  732.63   29.00
   3   0  10  706.83   22.00
   3   0  10  705.03   22.80
   3   0  10  706.53   24.10
   3   0  10  693.03   23.60
   3   0  10  684.63   22.10
   4   0  10   75.09   13.20
   4   0  10   78.69    5.50
   4   0  10   69.69    5.90
   4   0  10   72.59   13.10
   4   0  10   80.39    6.60
   5   0  10  150.18   20.00
   5   0  10  146.29   10.80
   5   0  10  138.49   18.90
   5   0  10  127.89    8.10
   6   0  10   25.00   16.50
   6   0  10   10.70   12.80
   6   0  10   29.20    6.80
   6   0  10   22.50    5.50
   6   0  10   30.30    5.10
   7  -1 -10  151.78   10.40
   7  -1 -10  129.29   28.50
   7  -1 -10  139.59    9.50
   7  -1 -10  153.08    7.70
   7  -1 -10  129.99   28.60
  -7   1  10  152.88   12.80
  -7   1  10  147.59   14.50
  -7   1  10  141.19   10.20
  -7   1  10  140.99   12.40
   6  -1 -10  331.07   13.90
   6  -1 -10  280.47   27.10
   6  -1 -10  295.67   10.30
   6  -1 -10  323.67   13.50
   6  -1 -10  318.67   25.40
  -6   1  10  333.37   17.60
  -6   1  10  332.47   15.60
  -6   1  10  289.17   15.10
  -6   1  10  315.87   14.30
   5  -1 -10  689.83   23.50
   5  -1 -10  651.63   32.20
   5  -1 -10  671.33   22.80
   5  -1 -10  635.14   34.00
  -5   1  10  678.53   25.60
  -5   1  10  676.23   25.00
  -5   1  10  668.23   25.30
  -5   1  10  699.73   24.00
   4  -1 -10  361.26   13.30
   4  -1 -10  322.57   20.80
   4  -1 -10  316.17   19.20
  -4   1  10  336.17   14.40
  -4   1  10  352.96   14.50
  -4   1  10  343.27   13.30
  -4   1  10  336.87   13.70
   3  -1 -10 1481.85   45.80
   3  -1 -10 1464.15   51.29
   3  -1 -10 1394.66   49.80
  -3   1  10 1426.86   45.80
  -3   1  10 1440.66   45.90
  -3   1  10 1426.96   45.50
   2  -1 -10  284.07   12.10
   2  -1 -10  300.17   12.50
  -2   1  10  318.87   12.70
  -2   1  10  305.27   10.80
  -2   1  10  326.57   11.90
  -2   1  10  311.07   11.00
  -1   1  10 1660.13   50.89
  -1   1  10 1664.93   51.49
  -1   1  10 1590.54   49.30
  -1   1  10 1560.44   49.30
   0   1  10   49.00    4.20
   0   1  10   39.70    1.70
   0   1  10   40.40    1.90
   0   1  10   46.90    4.10
   1   1  10 1994.10   61.29
   1   1  10 1980.90   62.39
   1   1  10 1940.41   60.99
   1   1  10 2089.89   62.39
   2   1  10   20.10    4.40
   2   1  10   22.40    3.00
   2   1  10   18.60    3.50
   3   1  10 2470.45   76.39
   3   1  10 2550.64   82.69
   3   1  10 2314.77   75.39
   3   1  10 2413.36   74.59
   4   1  10    3.90    8.50
   4   1  10    7.50    2.80
   4   1  10    9.70    3.60
   4   1  10   12.20    2.00
   5   1  10 1306.27   38.50
   5   1  10 1124.39   44.90
   5   1  10 1252.67   41.50
   5   1  10 1271.67   54.99
   6   1  10   36.80    2.90
   6   1  10   13.30   16.00
   6   1  10   43.40    8.10
   6   1  10   28.70    6.00
   7  -2 -10  230.28   12.30
   7  -2 -10  214.88   32.00
  -7   2  10  195.68   13.80
  -7   2  10  208.08   16.00
  -7   2  10  197.98   13.10
  -7   2  10  201.98   15.30
   6  -2 -10   40.50    4.90
   6  -2 -10   18.60   14.90
   6  -2 -10   36.20   13.80
  -6   2  10   30.00    6.80
  -6   2  10   37.60    6.90
  -6   2  10   35.60    6.10
  -6   2  10   39.10    5.60
   5  -2 -10  609.64   21.70
   5  -2 -10  600.34   32.10
   5  -2 -10  584.04   31.10
  -5   2  10  619.84   22.30
  -5   2  10  577.24   22.90
  -5   2  10  597.24   23.40
   4  -2 -10   36.70    9.00
   4  -2 -10   35.70    4.80
   4  -2 -10   40.00    9.10
  -4   2  10   35.80    4.90
  -4   2  10   36.50    5.30
  -4   2  10   34.80    4.80
  -4   2  10   34.00    5.20
   3  -2 -10 2096.59   73.09
   3  -2 -10 2158.78   73.69
   3  -2 -10 2302.17   68.79
  -3   2  10 2145.29   68.39
  -3   2  10 2195.28   68.79
  -3   2  10 2260.67   69.99
  -3   2  10 2212.38   68.99
   2  -2 -10   26.40    5.10
  -2   2  10   22.50    3.60
  -2   2  10   24.50    3.40
  -2   2  10   23.70    3.30
  -2   2  10   29.40    3.20
  -1   2  10 3364.86  103.59
  -1   2  10 3403.96  104.89
  -1   2  10 3551.84  105.49
  -1   2  10 3300.87  103.49
   0   2  10  173.18    8.00
   0   2  10  134.49    6.40
  -1  -2 -10 1526.95   49.50
   1   2  10 1571.34   49.99
   1   2  10 1605.24   49.10
   1   2  10 1572.24   49.70
   1   2  10 1515.75   48.20
  -2  -2 -10  100.79   10.20
   2   2  10  106.19    6.50
   2   2  10   95.79    5.50
   2   2  10   93.99   10.10
  -3  -2 -10  134.69   14.20
   3   2  10  150.88    8.90
   3   2  10  135.29    6.80
   3   2  10  142.59   15.30
   3   2  10  135.69    7.20
  -4  -2 -10  132.39   17.50
   4   2  10  116.39    6.50
   4   2  10  111.79   18.60
   4   2  10  121.69    8.20
   4   2  10  120.19   10.60
  -5  -2 -10   51.19   15.60
   5   2  10   46.50   16.60
   5   2  10   48.50    5.30
   5   2  10   54.59    7.40
   5   2  10   50.39    9.30
   7  -3 -10  878.61   31.20
  -7   3  10  907.61   33.90
  -7   3  10  871.01   35.00
  -7   3  10  817.52   34.90
  -7   3  10  862.61   31.90
   6  -3 -10   13.80    4.10
   6  -3 -10   15.00   12.30
   6  -3 -10   18.70   15.20
  -6   3  10   15.80    6.30
  -6   3  10    8.10    5.10
  -6   3  10   26.60    6.00
  -6   3  10   13.10    6.20
   5  -3 -10 1354.06   55.89
   5  -3 -10 1413.76   45.20
   5  -3 -10 1374.36   56.89
  -5   3  10 1353.36   46.30
  -5   3  10 1374.66   45.50
  -5   3  10 1249.57   48.60
  -5   3  10 1476.85   46.60
   4  -3 -10  136.69   15.60
   4  -3 -10  108.69   14.30
   4  -3 -10  130.99    8.10
  -4   3  10  122.89    7.90
  -4   3  10  125.19    8.50
  -4   3  10  119.69    7.80
  -4   3  10  129.69    8.80
   3  -3 -10  603.04   26.90
   3  -3 -10  593.74   27.70
  -3   3  10  599.94   22.70
  -3   3  10  613.84   22.20
  -3   3  10  638.04   21.70
  -3   3  10  605.04   21.80
   2  -3 -10    7.70    5.80
   2  -3 -10    4.50    4.90
  -2   3  10    9.80    3.20
  -2   3  10    7.50    3.40
  -2   3  10   12.20    3.00
  -2   3  10    7.40    2.50
   1  -3 -10  221.48   13.30
   1  -3 -10  208.18   11.70
  -1   3  10  216.58    8.90
  -1   3  10  213.08    9.20
  -1   3  10  220.88    7.90
   0  -3 -10  693.53   26.90
   0   3  10  730.03   26.70
   0   3  10  667.63   22.70
   0   3  10  667.53   23.90
   0   3  10  700.73   23.70
  -1  -3 -10  520.85   23.10
   1   3  10  530.35   19.10
   1   3  10  535.45   19.40
   1   3  10  505.15   23.00
  -2  -3 -10  683.13   31.00
   2   3  10  714.33   25.20
   2   3  10  679.23   24.80
   2   3  10  699.93   23.80
   2   3  10  729.83   31.50
  -3  -3 -10  751.22   35.20
   3   3  10  743.23   35.30
   3   3  10  757.12   27.30
   3   3  10  757.72   25.40
   3   3  10  730.23   25.80
  -4  -3 -10  104.59   20.60
   4   3  10   89.79   16.40
   4   3  10   94.29    7.10
   4   3  10   92.79    9.70
   4   3  10   82.39    7.50
  -5  -3 -10  267.77   29.90
   5   3  10  281.87   29.60
   5   3  10  279.17   12.40
   5   3  10  276.67   16.70
   5   3  10  269.27   14.90
   6  -4 -10   67.09   16.00
   6  -4 -10   58.29   17.50
   6  -4 -10   58.29    8.50
  -6   4  10   68.09   10.20
  -6   4  10   51.29    7.70
  -6   4  10   53.99    7.20
  -6   4  10   58.09   10.70
   5  -4 -10  245.88   11.80
   5  -4 -10  241.18   24.60
   5  -4 -10  214.88   22.20
  -5   4  10  260.97   13.90
  -5   4  10  239.38   14.30
  -5   4  10  256.77   14.10
  -5   4  10  246.18   13.30
   4  -4 -10  396.26   26.30
   4  -4 -10  353.86   24.50
   4  -4 -10  376.36   15.50
  -4   4  10  377.06   16.60
  -4   4  10  354.46   16.20
  -4   4  10  368.46   15.80
   3  -4 -10  659.73   32.10
   3  -4 -10  688.13   32.00
  -3   4  10  724.53   25.20
  -3   4  10  705.13   24.80
  -3   4  10  689.53   25.00
  -3   4  10  690.43   25.70
   2  -4 -10  349.17   21.70
   2  -4 -10  359.86   20.20
  -2   4  10  344.57   13.00
  -2   4  10  369.66   14.70
  -2   4  10  351.76   14.70
  -2   4  10  354.26   14.30
   1  -4 -10  643.64   30.10
  -1   4  10  642.94   22.60
  -1   4  10  632.14   23.20
  -1   4  10  670.83   28.60
  -1   4  10  655.23   23.40
   0  -4 -10  186.08   16.40
   0   4  10  188.48   10.10
   0   4  10  212.78   15.50
   0   4  10  188.98    9.00
   0   4  10  183.58    9.60
  -1  -4 -10  282.77   20.80
   1   4  10  311.37   13.20
   1   4  10  299.27   13.90
   1   4  10  302.27   20.10
   1   4  10  290.27   12.20
  -2  -4 -10  149.49   18.00
   2   4  10  143.49    9.00
   2   4  10  164.28   17.90
   2   4  10  159.48   10.20
  -3  -4 -10  240.08   24.40
   3   4  10  233.38   13.50
   3   4  10  230.88   11.90
   3   4  10  237.98   11.60
   3   4  10  223.28   23.40
  -4  -4 -10   56.69   16.30
   4   4  10   56.09   17.90
   4   4  10   69.49   10.80
   4   4  10   54.49    8.20
   4   4  10   53.69    8.40
   6  -5 -10   88.19    9.50
  -6   5  10   83.09   10.80
  -6   5  10   65.49    9.80
  -6   5  10   74.69   11.60
   5  -5 -10  163.18    9.90
   5  -5 -10  152.08   22.60
   5  -5 -10  155.48   25.00
  -5   5  10  154.88   11.40
  -5   5  10  151.58   12.60
  -5   5  10  151.68   10.90
  -5   5  10  173.98   13.00
   4  -5 -10  340.47   27.10
   4  -5 -10  365.96   27.00
  -4   5  10  353.16   16.90
  -4   5  10  354.66   16.70
  -4   5  10  373.26   16.70
  -4   5  10  354.16   16.10
   3  -5 -10  345.87   25.90
   3  -5 -10  349.96   23.80
  -3   5  10  325.47   15.80
  -3   5  10  360.76   15.60
   2  -5 -10  580.54   32.60
  -2   5  10  654.93   23.40
  -2   5  10  632.64   31.50
  -2   5  10  579.44   21.10
  -2   5  10  600.44   22.70
  -2   5  10  588.44   22.70
   1  -5 -10  602.54   33.00
  -1   5  10  627.84   31.60
  -1   5  10  624.14   23.20
  -1   5  10  643.14   24.20
  -1   5  10  611.24   23.00
   0  -5 -10  265.47   24.40
   0   5  10  286.57   14.60
   0   5  10  272.87   12.80
   0   5  10  278.27   21.20
   0   5  10  263.57   12.30
  -1  -5 -10  172.28   23.50
   1   5  10  130.69   19.40
   1   5  10  177.08   12.70
   1   5  10  139.59    9.10
   1   5  10  155.38   10.40
  -2  -5 -10  100.09   18.10
   2   5  10   97.39   10.60
   2   5  10   92.79    7.70
   2   5  10   85.79    8.70
   2   5  10  113.59   21.60
   2   5  10   89.99    8.30
  -3  -5 -10   58.19   17.10
   3   5  10   80.29   12.90
   3   5  10   62.69    9.10
   3   5  10   76.09    9.90
   3   5  10   85.19   19.10
   3   5  10   86.49    9.20
   4  -6 -10    2.40   15.90
   4  -6 -10    8.60   13.30
  -4   6  10    1.50    4.90
  -4   6  10    2.80    6.10
  -4   6  10    5.00    6.00
  -4   6  10    1.40    5.60
   3  -6 -10   22.20   15.70
  -3   6  10   11.00    6.00
  -3   6  10   15.10    6.20
  -3   6  10    9.10    4.00
  -3   6  10    9.80    6.50
   2  -6 -10   61.49   16.70
  -2   6  10   78.89    7.50
  -2   6  10   76.29   16.10
  -2   6  10   74.09    9.40
  -2   6  10   60.89    8.00
  -2   6  10   66.79    8.60
   1  -6 -10  170.18   25.90
  -1   6  10  182.68   12.40
  -1   6  10  173.08   23.20
  -1   6  10  155.68   11.40
  -1   6  10  150.08   10.70
   0  -6 -10  680.53   41.30
   0   6  10  689.63   38.80
   0   6  10  702.33   26.50
   0   6  10  665.83   25.80
   0   6  10  719.93   28.50
  -1  -6 -10   41.00   16.00
   1   6  10   51.79    9.00
   1   6  10   42.90    7.10
   1   6  10   36.50    6.40
   1   6  10   48.20   17.20
   1   7 -11  201.38   13.00
   1   7 -11  217.48   40.40
   1   7 -11  196.08   11.00
  -1  -7  11  137.49   30.70
  -1  -7  11  207.18   13.60
  -1  -7  11  209.48   16.90
   0   7 -11   46.70   18.70
   0   7 -11   29.00    5.10
   0   7 -11   51.59    6.60
   0   7 -11   47.90    5.90
   0  -7  11   36.80   19.00
   0  -7  11   46.90    8.80
  -1   7 -11  402.36   34.00
  -1   7 -11  398.06   15.60
  -1   7 -11  406.46   16.40
  -1   7 -11  328.87   15.30
   1  -7  11  395.56   20.60
   1  -7  11  358.36   35.50
   1  -7  11  424.96   18.50
  -2   7 -11    0.00   14.90
  -2   7 -11    0.70    4.10
  -2   7 -11    9.10    4.30
  -2   7 -11    9.10    4.30
   2  -7  11   18.00    7.50
   2  -7  11    8.00    5.60
   2  -7  11   19.30   17.50
  -3   7 -11  885.31   48.80
  -3   7 -11  909.31   30.20
   3  -7  11  936.51   33.30
   3  -7  11  821.22   51.09
   3  -7  11  877.11   34.70
  -4   7 -11   13.00    4.70
   4  -7  11   16.90    8.10
   4  -7  11    6.60    6.40
   3   6 -11  424.46   19.10
   3   6 -11  452.15   17.60
  -3  -6  11  458.25   20.30
  -3  -6  11  407.16   23.30
  -3  -6  11  410.56   19.60
   2   6 -11    3.60    4.70
   2   6 -11    6.30    3.90
   2   6 -11   17.70   15.90
   2   6 -11    8.10    3.80
  -2  -6  11    4.40    7.30
  -2  -6  11   16.90    5.50
  -2  -6  11   17.10   15.40
  -2  -6  11   15.70    5.80
   1   6 -11 1134.29   56.19
   1   6 -11 1123.69   36.20
   1   6 -11 1090.59   36.00
   1   6 -11 1132.69   38.30
  -1  -6  11 1101.99   56.29
  -1  -6  11 1094.19   37.80
  -1  -6  11 1087.69   41.20
  -1  -6  11 1157.28   39.10
   0   6 -11   32.00   14.60
   0   6 -11   36.50    4.70
   0   6 -11   48.90    6.50
   0   6 -11   36.40    4.30
   0  -6  11   38.10    6.90
   0  -6  11   31.20   14.20
   0  -6  11   31.80    6.80
  -1   6 -11 1104.69   36.00
  -1   6 -11 1098.79   35.90
  -1   6 -11 1135.39   52.89
  -1   6 -11 1183.48   37.90
   1  -6  11 1146.29   55.79
   1  -6  11 1184.68   39.40
   1  -6  11 1141.39   40.80
  -2   6 -11    8.30    3.10
  -2   6 -11    3.50    2.30
  -2   6 -11   -8.70   12.20
  -2   6 -11   10.90    3.40
  -2   6 -11    5.80    2.30
   2  -6  11    3.30   12.30
   2  -6  11    7.60    5.40
   2  -6  11    7.90    4.30
  -3   6 -11  825.92   26.80
  -3   6 -11  836.72   26.90
  -3   6 -11  844.32   29.10
  -3   6 -11  818.62   42.70
  -3   6 -11  831.02   26.70
   3  -6  11  810.62   31.60
   3  -6  11  802.42   44.60
   3  -6  11  892.81   31.00
  -4   6 -11   18.70    3.20
  -4   6 -11    2.50    2.90
   4  -6  11   21.50    3.00
   4  -6  11   30.40   16.10
   4  -6  11   26.00    6.60
   4  -6  11   15.40    5.60
  -5   6 -11  568.54   20.10
   5  -6  11  581.64   19.60
   5  -6  11  569.74   24.70
   5  -6  11  538.05   24.90
   5  -6  11  598.94   40.80
   4   5 -11    2.70    3.80
   4   5 -11    2.10    5.00
   4   5 -11   26.00   19.10
   4   5 -11   -2.20    4.10
  -4  -5  11    4.40    5.40
  -4  -5  11   11.10    8.50
  -4  -5  11   -3.10    4.90
  -4  -5  11    7.50   16.30
   3   5 -11  905.31   49.40
   3   5 -11  934.61   32.90
   3   5 -11  937.21   30.20
   3   5 -11  935.31   30.30
  -3  -5  11  934.01   48.50
  -3  -5  11  886.21   35.80
  -3  -5  11  868.41   32.40
  -3  -5  11  931.61   33.10
   2   5 -11   37.40    3.60
   2   5 -11   36.60    3.80
   2   5 -11   30.40   13.60
   2   5 -11   28.60    5.40
  -2  -5  11   48.50    9.00
  -2  -5  11   21.50   12.00
  -2  -5  11   39.50    6.70
  -2  -5  11   42.20    5.70
   1   5 -11 1896.11   73.09
   1   5 -11 1819.12   60.79
  -1  -5  11 1829.62   58.69
  -1  -5  11 1826.12   72.99
  -1  -5  11 1791.12   60.99
   0   5 -11   25.40   11.30
   0   5 -11   25.80    4.00
   0  -5  11   37.40    5.10
   0  -5  11   27.70   12.50
  -1   5 -11 1789.82   68.69
  -1   5 -11 1849.52   56.79
   1  -5  11 1776.32   59.09
   1  -5  11 1780.42   70.69
  -2   5 -11    4.60    2.10
  -2   5 -11    0.60    8.20
  -2   5 -11    1.40    2.40
   2  -5  11   -1.10    4.40
   2  -5  11    7.60    9.20
  -3   5 -11  556.64   31.00
  -3   5 -11  566.54   18.00
   3  -5  11  575.34   22.60
   3  -5  11  569.14   17.60
   3  -5  11  554.14   33.90
   4  -5  11   46.90    4.00
   4  -5  11   42.80    7.70
   4  -5  11   63.29   15.00
   4  -5  11   62.59   16.10
   4  -5  11   54.49    8.30
   5  -5  11   93.39   10.30
   5  -5  11   86.49   18.00
   5  -5  11   90.99   10.60
   5  -5  11   87.79   17.20
   5  -5  11   92.29    6.20
   6  -5  11  310.47   18.80
   5   4 -11 1471.95   47.60
  -5  -4  11 1617.84   51.99
  -5  -4  11 1424.26   50.39
  -5  -4  11 1426.56   53.89
   4   4 -11    6.30    1.80
   4   4 -11    7.80    2.80
   4   4 -11    9.80    3.10
   4   4 -11   13.40   15.80
   4   4 -11    9.50    4.40
  -4  -4  11   13.60   15.40
  -4  -4  11    2.10    4.50
  -4  -4  11    4.30    4.80
  -4  -4  11   16.70    8.00
   3   4 -11 1737.23   69.89
   3   4 -11 1656.63   54.39
  -3  -4  11 1618.74   54.09
  -3  -4  11 1619.64   56.19
  -3  -4  11 1711.73   54.29
  -3  -4  11 1581.34   65.99
   2   4 -11   65.09   14.10
   2   4 -11   66.69    6.10
  -2  -4  11   67.99    8.00
  -2  -4  11   55.59    6.00
  -2  -4  11   71.89   13.90
   1   4 -11  742.63   25.10
   1   4 -11  724.73   34.60
  -1  -4  11  704.43   26.40
  -1  -4  11  730.43   35.20
  -1  -4  11  719.03   25.10
   0   4 -11  985.00   32.50
   0   4 -11  960.30   41.20
   0  -4  11 1006.30   32.50
   0  -4  11  985.60   42.00
   0  -4  11  990.20   34.20
   0  -4  11 1009.80   33.10
  -1   4 -11  571.04   18.70
  -1   4 -11  503.55   26.90
   1  -4  11  567.84   19.80
   1  -4  11  530.05   20.50
   1  -4  11  519.85   28.30
   1  -4  11  563.44   18.60
  -2   4 -11 2161.18   66.99
  -2   4 -11 2125.89   75.89
  -2   4 -11 2167.88   66.19
   2  -4  11 2151.88   68.89
   2  -4  11 2170.48   77.79
   2  -4  11 2182.88   68.49
   3  -4  11 1038.00   32.10
   3  -4  11  943.31   43.70
   3  -4  11 1034.50   42.80
   3  -4  11 1099.09   35.20
   3  -4  11  992.00   35.10
   4  -4  11 1107.39   35.20
   4  -4  11 1064.79   48.40
   4  -4  11 1084.19   46.90
   4  -4  11 1125.19   38.00
   5  -4  11  830.52   29.80
   5  -4  11  722.83   28.90
   5  -4  11  797.62   26.50
   5  -4  11  736.83   41.20
   5  -4  11  765.32   40.60
   6  -4  11  152.98   13.20
   6  -4  11  159.78   24.90
   6  -4  11  153.78   13.00
   6  -4  11  154.48   24.80
   6  -4  11  154.08    9.90
   5   3 -11  102.49   10.30
   5   3 -11   90.99    5.90
   5   3 -11   76.49   19.00
   5   3 -11   87.29    5.50
  -5  -3  11   86.39   10.80
  -5  -3  11   86.29   12.60
  -5  -3  11   78.89   10.20
  -5  -3  11  106.29   21.80
   4   3 -11  662.53   21.50
   4   3 -11  672.63   24.80
   4   3 -11  687.73   39.50
  -4  -3  11  635.94   24.70
  -4  -3  11  678.93   24.80
  -4  -3  11  640.14   35.80
  -4  -3  11  657.93   27.20
   3   3 -11  435.86   29.00
   3   3 -11  475.75   18.20
  -3  -3  11  471.65   17.80
  -3  -3  11  442.96   26.00
  -3  -3  11  431.76   19.40
  -3  -3  11  459.15   18.30
   2   3 -11 1519.35   56.79
   2   3 -11 1427.36   47.80
  -2  -3  11 1497.05   55.29
  -2  -3  11 1406.36   49.20
  -2  -3  11 1485.45   47.00
  -2  -3  11 1441.66   48.40
   1   3 -11 1303.87   49.20
   1   3 -11 1367.46   42.80
  -1  -3  11 1272.17   43.40
  -1  -3  11 1348.86   42.80
  -1  -3  11 1325.67   49.30
   0   3 -11 1217.08   38.80
   0   3 -11 1197.98   43.90
   0  -3  11 1144.39   48.60
   0  -3  11 1229.28   39.70
   0  -3  11 1220.48   38.90
   0  -3  11 1249.38   38.80
  -1   3 -11 1008.80   30.70
  -1   3 -11  910.41   35.50
  -1   3 -11  983.70   30.10
   1  -3  11 1000.10   31.50
   1  -3  11  979.40   30.60
   1  -3  11  977.50   29.10
   1  -3  11  858.11   40.30
   1  -3  11  939.01   31.90
   1  -3  11  960.70   29.10
   2  -3  11 1026.70   34.40
   2  -3  11 1053.09   40.80
   2  -3  11 1052.99   34.30
   2  -3  11 1031.60   32.40
   2  -3  11 1044.40   39.10
   3  -3  11  162.68    7.00
   3  -3  11  165.48   13.90
   3  -3  11  148.79    8.20
   3  -3  11  166.58    8.50
   3  -3  11  137.79   14.90
   4  -3  11 1061.99   45.70
   4  -3  11 1128.69   37.50
   4  -3  11 1046.10   36.70
   4  -3  11 1113.69   35.40
   4  -3  11 1098.59   45.00
   5  -3  11   14.60    4.90
   5  -3  11    8.80   12.10
   5  -3  11    4.70   11.40
   5  -3  11    7.90    4.40
   6  -3  11  600.34   25.30
   6  -3  11  573.44   38.80
   6  -3  11  613.04   37.10
   6  -3  11  617.54   22.60
   6  -3  11  584.94   24.40
   6   2 -11  367.46   14.60
   6   2 -11  366.96   40.30
   6   2 -11  333.27   12.70
  -6  -2  11  374.36   18.40
  -6  -2  11  348.07   17.80
  -6  -2  11  332.37   20.10
  -6  -2  11  346.37   32.80
   5   2 -11  589.84   19.90
   5   2 -11  546.05   22.20
   5   2 -11  538.65   36.90
  -5  -2  11  541.15   24.20
  -5  -2  11  593.14   22.70
  -5  -2  11  564.54   33.20
  -5  -2  11  577.74   22.60
   4   2 -11 1107.29   48.60
   4   2 -11 1100.69   36.90
   4   2 -11 1088.99   34.30
  -4  -2  11 1054.69   36.80
  -4  -2  11 1036.10   38.30
  -4  -2  11 1077.19   45.70
   3   2 -11  606.94   19.90
   3   2 -11  596.94   31.00
   3   2 -11  626.74   22.60
  -3  -2  11  623.54   22.70
  -3  -2  11  632.14   21.80
  -3  -2  11  604.74   23.10
  -3  -2  11  621.04   28.90
   2   2 -11 2837.42   89.89
   2   2 -11 2912.11   95.09
  -2  -2  11 2928.51   94.19
  -2  -2  11 2870.41   89.39
  -2  -2  11 2789.22   88.29
  -2  -2  11 2831.72   86.99
  -2  -2  11 2880.21   89.39
   1   2 -11  358.66   17.40
   1   2 -11  432.46   15.20
  -1  -2  11  395.06   15.10
  -1  -2  11  407.56   13.10
  -1  -2  11  422.36   15.30
  -1  -2  11  419.66   17.80
   0  -2  11 3652.03  114.19
   0  -2  11 3662.53  114.69
   0  -2  11 3804.42  114.89
   0  -2  11 3943.91  116.09
   0  -2  11 3696.43  113.49
   1  -2  11  100.49    4.30
   1  -2  11   91.69    4.80
   1  -2  11   94.59    4.90
   1  -2  11   78.39    6.60
   1  -2  11   81.89    6.20
   1  -2  11   76.29    5.00
   2  -2  11 2353.56   71.49
   2  -2  11 2366.56   76.59
   2  -2  11 2292.27   72.99
   2  -2  11 2418.86   75.99
   2  -2  11 2333.57   72.99
   3  -2  11   50.29    5.30
   3  -2  11   62.59   10.50
   3  -2  11   53.49    9.50
   3  -2  11   57.29    5.00
   4  -2  11 1143.69   38.30
   4  -2  11 1112.29   37.60
   4  -2  11 1174.48   45.30
   4  -2  11 1100.89   45.50
   5  -2  11  213.28   21.10
   5  -2  11  204.68   12.00
   5  -2  11  212.18   12.20
   5  -2  11  199.48   20.20
   5  -2  11  185.68   11.20
   6  -2  11  795.22   30.20
   6  -2  11  802.52   31.10
   6  -2  11  745.33   42.90
   6  -2  11  845.62   44.30
   6  -2  11  808.72   28.50
   6   1 -11  268.77   12.00
   6   1 -11  248.68   30.60
  -6  -1  11  255.67   15.30
  -6  -1  11  263.77   16.80
  -6  -1  11  272.27   15.00
  -6  -1  11  254.67   25.60
   5   1 -11  381.76   14.50
   5   1 -11  367.36   16.50
   5   1 -11  389.16   30.10
  -5  -1  11  374.36   17.70
  -5  -1  11  398.56   16.60
  -5  -1  11  384.46   26.00
  -5  -1  11  365.76   16.90
   4   1 -11   77.59   16.50
   4   1 -11   67.49    5.30
   4   1 -11   81.29    6.80
  -4  -1  11   68.59    8.00
  -4  -1  11   69.79    7.30
  -4  -1  11   95.69    7.10
  -4  -1  11   72.09   12.70
  -4  -1  11   73.69    5.50
   3   1 -11  243.78    9.40
   3   1 -11  247.48   16.70
  -3  -1  11  250.97    9.60
  -3  -1  11  243.08   11.30
  -3  -1  11  243.38   15.50
  -3  -1  11  239.28   11.20
  -3  -1  11  250.87   10.30
   2   1 -11   11.20    4.90
   2   1 -11    8.60    1.10
  -2  -1  11    1.70    2.90
  -2  -1  11   10.70    2.10
  -2  -1  11   11.50    2.70
  -2  -1  11    9.30    2.00
  -2  -1  11   10.40    3.90
  -1  -1  11   -1.20    2.20
  -1  -1  11    1.40    1.50
  -1  -1  11    1.80    1.50
   0  -1  11  387.66   12.80
   0  -1  11  376.36   12.20
   0  -1  11  365.16   13.70
   0  -1  11  365.96   12.40
   1  -1  11   32.40    2.60
   1  -1  11   32.50    3.10
   1  -1  11   32.30    3.00
   1  -1  11   40.60    2.90
   2  -1  11 1858.61   56.29
   2  -1  11 1763.92   56.89
   2  -1  11 1814.72   57.19
   2  -1  11 1916.91   56.39
   3  -1  11   33.60    6.90
   3  -1  11   33.20    4.10
   3  -1  11   40.30    8.00
   3  -1  11   37.30    4.70
   4  -1  11 1332.57   44.00
   4  -1  11 1336.97   50.59
   4  -1  11 1321.87   50.39
   4  -1  11 1313.17   43.20
   5  -1  11   33.80   11.30
   5  -1  11   42.70   12.50
   5  -1  11   52.29    8.30
   6  -1  11  143.39   10.90
   6  -1  11  160.58   25.60
   6  -1  11  159.98   12.80
   6  -1  11  136.89   23.50
   6  -1  11  152.08   10.90
   6   0 -11  110.29   23.00
   6   0 -11  114.59   20.70
   6   0 -11  119.49    7.60
   6   0 -11  116.99    7.80
  -6   0  11  121.19   11.40
  -6   0  11  104.79   12.10
  -6   0  11  112.39   11.30
   5   0 -11   80.99   15.50
   5   0 -11   78.29   14.80
   5   0 -11   83.59    6.10
  -5   0  11   93.59    8.10
  -5   0  11   87.19    9.40
  -5   0  11   69.29   11.30
   4   0 -11 1365.56   52.29
   4   0 -11 1451.65   44.40
   4   0 -11 1405.36   55.49
   4   0 -11 1446.36   45.20
  -4   0  11 1451.25   45.40
  -4   0  11 1396.96   45.90
  -4   0  11 1400.26   46.90
  -4   0  11 1396.96   46.70
   3   0 -11   38.70    7.90
   3   0 -11   42.20    8.00
   3   0 -11   26.70    3.70
  -3   0  11   33.90    4.90
  -3   0  11   42.00    4.10
  -3   0  11   32.00    4.10
  -3   0  11   29.60    4.80
  -2   0  11 3408.86  100.69
  -2   0  11 3189.88   99.89
  -2   0  11 3218.88  100.29
  -2   0  11 3308.47  101.89
  -1   0  11   34.70    2.40
  -1   0  11   34.70    3.60
  -1   0  11   32.50    2.00
  -1   0  11   39.60    4.70
   0   0  11 2014.10   63.19
   0   0  11 2060.69   63.59
   1   0  11   22.60    2.90
   1   0  11   27.40    1.90
   1   0  11   18.50    2.90
   1   0  11   21.90    2.10
   2   0  11  434.06   14.40
   2   0  11  422.16   14.70
   2   0  11  405.26   14.20
   3   0  11  586.34   24.00
   3   0  11  537.85   19.00
   3   0  11  536.85   17.60
   3   0  11  547.65   22.90
   3   0  11  546.85   17.40
   3   0  11  547.35   19.70
   4   0  11  204.88   10.90
   4   0  11  193.18   17.40
   4   0  11  205.98    8.80
   4   0  11  185.58    9.40
   4   0  11  192.48   16.30
   5   0  11  586.84   21.60
   5   0  11  619.24   34.00
   5   0  11  585.34   32.60
   5   0  11  610.94   22.70
   6   0  11  229.38   29.70
   6   0  11  234.88   12.20
   6   0  11  249.97   15.50
   6   0  11  217.98   13.00
   6  -1 -11 1020.70   33.90
   6  -1 -11  958.10   47.20
   6  -1 -11  959.10   48.80
  -6   1  11 1006.50   35.60
  -6   1  11  988.20   36.10
  -6   1  11  968.00   36.60
  -6   1  11 1015.30   34.40
   5  -1 -11   20.80    9.40
   5  -1 -11   17.60    3.80
   5  -1 -11   25.90   11.40
  -5   1  11   16.10    3.70
  -5   1  11   12.30    4.60
  -5   1  11   22.10    5.50
   4  -1 -11  688.03   32.20
   4  -1 -11  718.93   24.00
   4  -1 -11  652.33   29.60
  -4   1  11  684.53   24.10
  -4   1  11  708.03   24.40
  -4   1  11  693.93   25.00
  -4   1  11  688.23   25.50
   3  -1 -11  127.09   11.40
   3  -1 -11  120.59   10.10
   3  -1 -11  129.29    6.80
  -3   1  11  110.29    8.20
  -3   1  11  119.89    6.30
  -3   1  11  115.89    7.00
  -3   1  11  128.89    7.00
  -2   1  11  500.55   18.80
  -2   1  11  512.15   17.00
  -2   1  11  502.65   16.80
  -2   1  11  496.25   17.70
  -1   1  11  290.07   12.10
  -1   1  11  281.67    9.70
  -1   1  11  301.67   11.60
  -1   1  11  300.87    9.70
   0   1  11  668.53   21.80
   0   1  11  582.14   19.30
   0   1  11  595.44   19.20
   0   1  11  675.73   21.60
   1   1  11  177.78    8.30
   1   1  11  171.18    7.90
   1   1  11  173.88    6.40
   1   1  11  177.68    6.90
   2   1  11  547.05   18.30
   2   1  11  547.35   18.50
   2   1  11  504.05   17.70
   3   1  11  107.99    5.30
   3   1  11  104.59    7.60
   3   1  11  109.69    5.60
   3   1  11  104.69    6.20
   3   1  11  108.99   11.30
   3   1  11  102.49    5.70
   3   1  11  108.89   11.70
   4   1  11  249.08   19.20
   4   1  11  264.07   20.90
   4   1  11  252.27    9.00
   4   1  11  247.68   12.70
   4   1  11  226.68   11.10
   5   1  11  187.28    6.80
   5   1  11  158.98   21.40
   5   1  11  181.98    6.80
   5   1  11  218.48   25.90
   5   1  11  185.98   11.00
   5   1  11  193.58   13.30
   6  -2 -11  288.17   27.10
   6  -2 -11  280.77   13.30
   6  -2 -11  275.47   26.80
  -6   2  11  274.57   16.20
  -6   2  11  288.67   14.40
  -6   2  11  259.67   14.70
  -6   2  11  290.67   15.00
   5  -2 -11  271.67   12.10
   5  -2 -11  298.87   23.20
   5  -2 -11  251.57   21.40
  -5   2  11  285.77   13.20
  -5   2  11  276.67   14.80
  -5   2  11  269.27   12.60
   4  -2 -11  255.57   18.20
   4  -2 -11  287.47   12.00
   4  -2 -11  262.77   19.70
  -4   2  11  272.97   12.60
  -4   2  11  267.27   12.00
  -4   2  11  276.87   12.20
  -4   2  11  295.57   14.00
   3  -2 -11  595.54   25.30
   3  -2 -11  608.04   25.90
  -3   2  11  623.84   21.60
  -3   2  11  630.34   21.20
  -3   2  11  605.64   22.70
  -2   2  11  118.69    6.90
  -2   2  11  129.59    6.30
  -2   2  11  129.09    7.70
  -2   2  11  123.39    6.00
  -1   2  11 1625.54   51.59
  -1   2  11 1678.03   52.99
  -1   2  11 1732.83   53.59
  -1   2  11 1636.94   51.49
   0   2  11  198.98    9.00
   0   2  11  181.68    7.90
   0   2  11  229.18    9.90
   0   2  11  184.88    7.30
   1   2  11 2013.30   63.99
   1   2  11 1984.70   61.99
   1   2  11 2048.99   62.79
   2   2  11  477.05   17.60
   2   2  11  440.66   16.00
   2   2  11  476.65   17.20
   2   2  11  460.45   19.90
  -3  -2 -11  599.44   28.10
   3   2  11  630.64   21.90
   3   2  11  628.44   23.20
   3   2  11  634.04   21.30
   3   2  11  652.03   29.50
  -4  -2 -11  196.48   20.30
   4   2  11  198.08   20.60
   4   2  11  199.88    8.60
   4   2  11  175.78   13.10
  -5  -2 -11   23.60   14.70
   5   2  11   24.80    5.80
   5   2  11   15.00   16.20
   5   2  11   17.50    7.10
   5   2  11   17.20    3.40
   6  -3 -11   17.90    4.50
   6  -3 -11   26.10   14.80
   6  -3 -11   25.30   15.40
  -6   3  11   17.60    6.30
  -6   3  11   16.00    6.80
  -6   3  11   16.90    5.80
  -6   3  11    9.10    6.70
   5  -3 -11 1201.48   52.09
   5  -3 -11 1238.88   52.99
   5  -3 -11 1317.17   42.00
  -5   3  11 1280.27   45.40
  -5   3  11 1226.28   43.10
  -5   3  11 1265.47   42.30
  -5   3  11 1219.88   43.50
   4  -3 -11  257.57   11.40
   4  -3 -11  228.98   18.60
   4  -3 -11  252.97   19.60
  -4   3  11  245.88   12.50
  -4   3  11  260.37   12.70
  -4   3  11  240.68   12.80
  -4   3  11  244.88   12.00
   3  -3 -11 1216.08   47.30
   3  -3 -11 1282.77   47.40
  -3   3  11 1347.27   42.40
  -3   3  11 1341.37   43.80
  -3   3  11 1287.07   42.80
  -3   3  11 1325.27   42.70
   2  -3 -11  543.65   22.10
   2  -3 -11  534.55   23.00
  -2   3  11  541.65   19.30
  -2   3  11  550.84   19.40
  -2   3  11  570.14   20.40
  -2   3  11  539.45   20.60
   1  -3 -11  312.37   12.50
  -1   3  11  324.87   12.40
  -1   3  11  306.17   12.90
  -1   3  11  314.57   11.90
  -1   3  11  306.17   13.40
   0   3  11   28.30    4.00
   0   3  11   35.10    4.80
   0   3  11   31.50    4.80
  -1  -3 -11   97.69    9.70
   1   3  11   98.79    9.60
   1   3  11   92.69    6.80
   1   3  11   91.49    7.00
  -2  -3 -11  336.57   19.50
   2   3  11  357.46   20.00
   2   3  11  308.67   14.00
   2   3  11  348.17   13.30
   2   3  11  346.07   14.70
  -3  -3 -11  413.16   25.30
   3   3  11  420.86   17.90
   3   3  11  394.56   25.00
   3   3  11  395.96   16.10
   3   3  11  424.86   15.90
  -4  -3 -11  340.67   27.20
   4   3  11  343.07   17.00
   4   3  11  346.37   14.10
   4   3  11  366.56   28.10
   4   3  11  339.07   15.50
   6  -4 -11   82.59    8.10
  -6   4  11   77.29   10.90
  -6   4  11   79.49   10.90
  -6   4  11   74.69   12.10
   5  -4 -11  108.59    9.20
   5  -4 -11  104.69   20.50
   5  -4 -11   91.59   20.20
  -5   4  11  111.49   10.50
  -5   4  11   95.79   10.10
  -5   4  11  109.39   10.50
  -5   4  11  113.39    9.80
   4  -4 -11   36.10   11.20
   4  -4 -11   25.00   11.60
   4  -4 -11   37.50    5.10
  -4   4  11   36.50    5.60
  -4   4  11   35.10    6.10
  -4   4  11   29.50    6.20
   3  -4 -11  306.77   21.70
   3  -4 -11  338.77   21.20
  -3   4  11  332.57   14.30
  -3   4  11  322.17   14.50
  -3   4  11  322.17   15.00
  -3   4  11  330.87   15.80
   2  -4 -11  247.88   18.80
   2  -4 -11  236.58   16.50
  -2   4  11  245.88   11.40
  -2   4  11  242.28   11.90
  -2   4  11  264.67   11.80
   1  -4 -11 1033.70   39.80
  -1   4  11  985.90   34.20
  -1   4  11  995.90   33.40
  -1   4  11  989.90   32.00
  -1   4  11 1019.90   34.20
   0  -4 -11   56.79    9.90
   0   4  11   76.19    7.10
   0   4  11   57.59    5.60
   0   4  11   79.69   11.60
   0   4  11   64.39    6.50
  -1  -4 -11  884.11   37.20
   1   4  11  878.01   29.90
   1   4  11  895.51   31.50
   1   4  11  853.71   30.80
   1   4  11  941.51   37.70
  -2  -4 -11   10.50   10.60
   2   4  11   12.90   10.60
   2   4  11   11.20    4.10
  -3  -4 -11  312.47   26.70
   3   4  11  323.57   14.10
   3   4  11  335.67   17.10
   3   4  11  302.07   14.70
   3   4  11  309.17   14.20
   3   4  11  334.67   26.80
   5  -5 -11  297.27   29.70
  -5   5  11  363.06   17.00
  -5   5  11  362.06   19.50
  -5   5  11  368.46   17.90
  -5   5  11  334.47   17.30
   4  -5 -11    5.10   11.30
   4  -5 -11    7.50   12.80
  -4   5  11   16.40    6.70
  -4   5  11    9.40    5.10
  -4   5  11   10.50    5.90
  -4   5  11    7.80    5.30
   3  -5 -11  353.76   25.20
   3  -5 -11  336.27   25.80
  -3   5  11  359.86   16.50
  -3   5  11  344.47   17.50
  -3   5  11  349.57   16.60
   2  -5 -11    7.00   11.80
  -2   5  11    5.90    3.10
  -2   5  11   11.00    4.30
  -2   5  11    4.60    4.40
   1  -5 -11  458.95   28.10
  -1   5  11  472.85   19.30
  -1   5  11  454.35   18.40
  -1   5  11  457.35   21.40
  -1   5  11  474.25   26.40
   0  -5 -11    6.90   11.50
   0   5  11    6.70    5.20
   0   5  11    8.30    4.80
   0   5  11    7.10   10.70
  -1  -5 -11  605.14   34.30
   1   5  11  488.65   26.10
   1   5  11  616.04   32.50
   1   5  11  575.84   22.70
   1   5  11  579.54   21.60
  -2  -5 -11   18.90   15.80
   2   5  11   12.50    5.20
   2   5  11   19.50   15.20
   2   5  11    9.80    4.40
   2   5  11   10.50    6.90
   2   5  11   15.10    4.70
   3  -6 -11  314.67   29.70
  -3   6  11  294.27   15.40
  -3   6  11  324.17   17.00
  -3   6  11  315.47   17.50
   2  -6 -11   20.00   15.10
  -2   6  11    9.50    6.20
  -2   6  11   10.30    4.10
  -2   6  11   17.60   13.10
  -2   6  11   17.50    7.00
  -2   6  11   11.30    4.80
   1  -6 -11   13.80   16.60
  -1   6  11    5.00    5.00
  -1   6  11    1.80    5.70
  -1   6  11   10.80   13.10
  -1   6  11   10.40    6.10
   0  -6 -11   70.79   19.70
   0   6  11   64.79   11.10
   0   6  11   58.99    8.80
   0   6  11   75.59   16.60
   0   6  11   64.89   10.20
   0   7 -12  683.23   26.00
  -1   7 -12   24.50    5.20
   1  -7  12   18.50    8.00
   1  -7  12   19.80    6.50
  -2   7 -12  133.19    8.90
   2  -7  12  147.39   14.10
   2  -7  12  129.49   11.90
   2   6 -12   80.69   10.00
  -2  -6  12   74.89    9.90
  -2  -6  12   71.59   10.60
  -2  -6  12   69.39    9.20
   1   6 -12  468.35   34.50
   1   6 -12  475.75   19.60
  -1  -6  12  438.66   34.70
  -1  -6  12  491.25   20.10
  -1  -6  12  453.15   22.60
  -1  -6  12  472.65   18.80
   0   6 -12  145.19   22.80
   0   6 -12  175.78   10.10
   0  -6  12  153.78   13.20
   0  -6  12  119.29   23.30
   0  -6  12  154.48   10.70
  -1   6 -12  980.20   32.60
  -1   6 -12  921.01   46.30
   1  -6  12  948.71   35.60
   1  -6  12  935.31   49.10
   1  -6  12 1007.00   34.40
  -2   6 -12  417.76   15.00
  -2   6 -12  366.96   28.10
   2  -6  12  428.76   18.10
   2  -6  12  394.96   19.20
   2  -6  12  380.26   33.80
  -3   6 -12  595.54   35.80
   3  -6  12  632.14   26.40
   3  -6  12  633.84   25.10
   3  -6  12  599.34   40.50
   4  -6  12  293.67   15.90
   4  -6  12  292.07    9.50
   4  -6  12  262.47   16.80
   4  -6  12  320.97   32.00
   3   5 -12  541.05   38.60
   3   5 -12  546.35   22.10
  -3  -5  12  539.75   25.50
  -3  -5  12  574.24   22.80
  -3  -5  12  542.95   22.70
  -3  -5  12  546.15   38.60
   2   5 -12  255.27   25.50
   2   5 -12  236.48   12.90
  -2  -5  12  234.68   15.00
  -2  -5  12  247.28   12.80
  -2  -5  12  237.68   24.80
  -2  -5  12  243.48   13.00
   1   5 -12  773.52   40.70
   1   5 -12  800.52   28.10
  -1  -5  12  840.22   28.80
  -1  -5  12  791.82   30.30
  -1  -5  12  780.72   27.80
  -1  -5  12  791.52   41.00
   0   5 -12  167.48    9.90
   0   5 -12  128.69   18.70
   0  -5  12  136.09   10.60
   0  -5  12  135.19    8.30
   0  -5  12  158.88   11.30
   0  -5  12  136.49   20.00
  -1   5 -12 1088.59   34.80
  -1   5 -12 1018.60   45.50
   1  -5  12 1062.19   48.70
   1  -5  12 1093.09   37.10
  -2   5 -12  127.09    6.90
  -2   5 -12  111.79   16.50
  -2   5 -12  133.89    6.30
   2  -5  12  139.89   10.90
   2  -5  12  111.49    9.70
   2  -5  12   90.69   18.90
   3  -5  12  898.91   32.00
   3  -5  12  907.61   33.10
   3  -5  12  888.81   44.10
   4  -5  12  136.29   22.80
   4  -5  12  117.99    5.80
   4  -5  12   82.09   17.30
   4  -5  12  128.19   10.10
   4  -5  12  116.89   10.90
   5  -5  12  310.37   12.60
   5  -5  12  336.17   32.00
   5  -5  12  302.67   17.60
   5  -5  12  314.67   17.00
   4   4 -12   78.79   18.70
   4   4 -12   64.09    9.80
  -4  -4  12   66.19   12.60
  -4  -4  12   68.59    8.90
  -4  -4  12   57.49   15.80
  -4  -4  12   69.39    9.10
   3   4 -12 1288.87   56.79
   3   4 -12 1253.47   42.20
  -3  -4  12 1183.18   53.69
  -3  -4  12 1265.27   41.80
  -3  -4  12 1176.38   43.80
  -3  -4  12 1217.48   41.80
   2   4 -12  259.77   12.60
   2   4 -12  244.38   22.90
  -2  -4  12  257.27   12.00
  -2  -4  12  261.87   12.80
  -2  -4  12  268.07   21.80
   1   4 -12 1015.60   43.20
   1   4 -12 1030.50   34.20
  -1  -4  12 1014.30   35.50
  -1  -4  12  982.20   34.30
  -1  -4  12 1029.50   43.60
   0   4 -12  140.39   15.50
   0   4 -12  161.58    8.20
   0  -4  12  148.19   15.50
   0  -4  12  146.59    7.70
   0  -4  12  151.08    8.30
   0  -4  12  150.88    9.60
  -1   4 -12  422.26   14.60
  -1   4 -12  426.96   14.90
  -1   4 -12  387.96   22.40
   1  -4  12  427.76   14.90
   1  -4  12  422.16   16.20
   1  -4  12  425.46   16.90
   1  -4  12  424.46   24.00
   2  -4  12   55.99   10.80
   2  -4  12   67.69    6.30
   2  -4  12   57.79    6.90
   3  -4  12  467.45   27.60
   3  -4  12  511.65   19.30
   3  -4  12  501.55   26.30
   3  -4  12  458.25   19.10
   3  -4  12  493.95   16.00
   4  -4  12  365.96   26.70
   4  -4  12  353.16   13.30
   4  -4  12  372.76   26.10
   4  -4  12  353.66   16.10
   5  -4  12  832.72   32.20
   5  -4  12  886.61   44.40
   5  -4  12  865.21   45.30
   5  -4  12  906.11   32.90
   5  -4  12  920.01   29.90
   5   3 -12  499.25   22.00
  -5  -3  12  490.75   24.60
  -5  -3  12  551.04   22.50
  -5  -3  12  492.55   22.00
   4   3 -12   46.10   16.30
   4   3 -12   50.69    3.90
   4   3 -12   54.49    7.20
  -4  -3  12   41.20    7.60
  -4  -3  12   60.09   13.00
  -4  -3  12   56.09    7.60
  -4  -3  12   56.79    7.90
   3   3 -12  529.45   32.00
   3   3 -12  557.64   21.10
  -3  -3  12  535.85   21.30
  -3  -3  12  559.24   29.70
  -3  -3  12  521.95   22.50
   2   3 -12  661.43   31.50
   2   3 -12  655.13   23.90
  -2  -3  12  655.53   24.70
  -2  -3  12  674.63   30.50
  -2  -3  12  671.03   23.20
  -2  -3  12  639.64   23.90
   1   3 -12 1327.07   51.19
   1   3 -12 1494.55   46.20
  -1  -3  12 1448.16   51.89
  -1  -3  12 1415.66   46.80
  -1  -3  12 1452.05   46.10
   0   3 -12  729.73   23.70
   0   3 -12  725.43   29.30
   0   3 -12  749.82   25.30
   0  -3  12  756.52   25.30
   0  -3  12  793.82   25.40
   0  -3  12  757.02   30.40
   0  -3  12  766.32   26.20
   1  -3  12 2399.16   72.09
   1  -3  12 2402.16   77.79
   1  -3  12 2366.86   73.39
   1  -3  12 2130.69   70.39
   1  -3  12 2387.26   72.89
   2  -3  12  137.29    5.80
   2  -3  12  139.19    7.70
   2  -3  12  151.18    8.50
   2  -3  12  138.69   12.00
   2  -3  12  147.39    5.70
   2  -3  12  168.18   13.40
   2  -3  12  135.19    5.70
   3  -3  12 1258.27   49.40
   3  -3  12 1271.27   42.70
   3  -3  12 1320.27   48.70
   3  -3  12 1329.77   41.10
   3  -3  12 1338.67   43.00
   4  -3  12   35.70    5.30
   4  -3  12   30.50    4.10
   4  -3  12   27.70   11.30
   4  -3  12   27.00    9.70
   4  -3  12   30.20    5.30
   5  -3  12  188.28   12.10
   5  -3  12  204.28   10.10
   5  -3  12  191.28   12.20
   5  -3  12  185.08   22.10
   5  -3  12  181.08   22.30
   6  -3  12  131.59   13.00
   6  -3  12  128.39   12.80
   6  -3  12  129.19   27.00
   6  -3  12  131.99   10.10
   5   2 -12  694.93   22.90
   5   2 -12  666.13   42.40
   5   2 -12  695.63   26.10
  -5  -2  12  671.03   26.00
  -5  -2  12  668.13   37.60
  -5  -2  12  634.24   28.40
  -5  -2  12  660.43   26.00
   4   2 -12  223.28    9.00
   4   2 -12  232.48   12.70
   4   2 -12  225.88   24.90
  -4  -2  12  217.88   19.60
  -4  -2  12  174.38   14.40
  -4  -2  12  247.28   12.10
  -4  -2  12  221.48   11.90
   3   2 -12 1311.47   42.90
   3   2 -12 1291.77   51.39
  -3  -2  12 1284.47   43.10
  -3  -2  12 1260.77   43.30
  -3  -2  12 1277.97   49.10
  -3  -2  12 1301.27   42.00
   2   2 -12  255.37   11.60
   2   2 -12  262.07   15.80
  -2  -2  12  237.58   14.70
  -2  -2  12  249.88    8.80
  -2  -2  12  237.98   11.60
  -2  -2  12  245.38   11.70
  -2  -2  12  272.57   10.40
   1   2 -12  877.51   30.80
  -1  -2  12  933.61   28.30
  -1  -2  12  912.91   30.20
  -1  -2  12  874.61   33.10
  -1  -2  12  956.10   30.60
   0  -2  12  582.44   18.60
   0  -2  12  594.44   20.30
   0  -2  12  579.74   20.00
   0  -2  12  583.54   19.40
   1  -2  12  470.55   16.00
   1  -2  12  476.25   16.10
   1  -2  12  470.25   15.40
   1  -2  12  445.76   16.30
   2  -2  12  845.72   28.60
   2  -2  12  825.52   27.50
   2  -2  12  819.32   26.80
   2  -2  12  822.72   27.50
   2  -2  12  827.12   28.90
   2  -2  12  852.01   26.10
   3  -2  12  241.88   15.70
   3  -2  12  280.67   11.60
   3  -2  12  250.47   11.00
   3  -2  12  269.07   15.80
   4  -2  12  408.46   16.60
   4  -2  12  422.36   23.60
   4  -2  12  422.36   23.90
   4  -2  12  419.16   17.30
   5  -2  12  110.69    8.70
   5  -2  12   93.89   18.30
   5  -2  12   97.89   18.90
   5  -2  12  104.69    7.50
   5  -2  12  114.49    9.80
   6  -2  12  150.48   11.80
   6  -2  12  158.58   27.00
   6  -2  12  153.68   10.10
   6  -2  12  144.59   14.30
   6   1 -12  688.43   25.90
   6   1 -12  708.13   24.70
  -6  -1  12  699.33   29.70
  -6  -1  12  641.14   27.90
  -6  -1  12  718.43   27.70
   5   1 -12  359.96   30.20
   5   1 -12  371.16   14.00
  -5  -1  12  370.06   17.70
  -5  -1  12  349.47   16.10
  -5  -1  12  339.57   25.70
  -5  -1  12  355.76   17.70
   4   1 -12 1878.61   57.59
   4   1 -12 1898.81   70.39
   4   1 -12 1867.01   57.89
  -4  -1  12 1879.21   59.29
  -4  -1  12 1842.12   57.89
  -4  -1  12 1808.62   60.29
  -4  -1  12 1818.72   60.19
  -4  -1  12 1784.02   66.39
   3   1 -12  302.37   10.40
   3   1 -12  299.37   18.40
  -3  -1  12  296.77   13.80
  -3  -1  12  297.47   13.40
  -3  -1  12  301.97   11.40
  -3  -1  12  295.67   12.10
   2   1 -12 2065.39   62.89
   2   1 -12 1891.01   62.69
  -2  -1  12 1977.70   62.59
  -2  -1  12 2050.39   61.69
  -2  -1  12 1984.40   61.79
  -1  -1  12   34.70    3.60
  -1  -1  12   38.30    2.80
  -1  -1  12   37.80    3.50
  -1  -1  12   31.20    4.90
   0  -1  12 1464.65   45.50
   0  -1  12 1389.66   44.10
   0  -1  12 1473.25   44.70
   0  -1  12 1385.56   43.80
   1  -1  12   52.59    4.00
   1  -1  12   52.49    3.50
   1  -1  12   62.19    3.60
   1  -1  12   51.19    3.90
   2  -1  12 1468.65   48.20
   2  -1  12 1592.74   48.80
   2  -1  12 1591.24   47.80
   2  -1  12 1540.55   48.60
   3  -1  12   26.80    4.50
   3  -1  12   17.90    3.70
   3  -1  12   24.20    6.10
   3  -1  12   24.50    5.50
   4  -1  12 1542.95   49.99
   4  -1  12 1484.05   55.09
   4  -1  12 1520.05   49.00
   4  -1  12 1527.35   55.79
   5  -1  12   70.99   13.00
   5  -1  12   86.89   16.00
   5  -1  12   79.19    7.70
   6  -1  12  503.65   36.30
   6   0 -12   -2.20   14.00
   6   0 -12    8.50    4.20
   6   0 -12    7.70    3.90
  -6   0  12    3.30    6.70
  -6   0  12   10.00    6.50
  -6   0  12   -4.30    5.00
   5   0 -12  149.79    8.50
   5   0 -12  147.69    7.70
   5   0 -12  151.68   18.60
   5   0 -12  155.68   22.40
  -5   0  12  154.88   12.10
  -5   0  12  156.38   11.70
  -5   0  12  139.49   11.20
  -5   0  12  145.59    8.80
   4   0 -12  117.29   13.40
   4   0 -12  128.09   17.10
   4   0 -12  120.49    6.90
  -4   0  12  109.89    8.60
  -4   0  12  105.69    7.20
  -4   0  12  115.39    7.00
  -4   0  12  109.09    8.60
   3   0 -12   36.10    7.50
   3   0 -12   44.60    7.60
  -3   0  12   43.90    4.50
  -3   0  12   41.40    5.40
  -3   0  12   43.70    6.80
  -3   0  12   38.80    4.50
  -2   0  12 1370.56   42.90
  -2   0  12 1334.97   42.60
  -2   0  12 1338.17   42.10
  -1   0  12  220.58    7.80
  -1   0  12  227.78   10.30
  -1   0  12  199.58    7.30
  -1   0  12  230.98    9.10
   0   0  12 2346.67   72.19
   0   0  12 2278.27   71.59
   1   0  12  461.85   15.40
   1   0  12  486.85   15.70
   1   0  12  498.05   17.20
   1   0  12  501.65   17.20
   2   0  12  836.42   26.80
   2   0  12  819.12   27.60
   2   0  12  837.72   26.70
   2   0  12  831.62   27.10
   3   0  12   66.09    6.30
   3   0  12   66.19    3.60
   3   0  12   65.99    3.40
   3   0  12   57.69    7.40
   3   0  12   54.99    5.10
   4   0  12   62.99   12.80
   4   0  12   63.79    6.30
   4   0  12   72.49   14.40
   4   0  12   62.89    8.20
   5   0  12  116.49   19.30
   5   0  12  105.89    8.10
   5   0  12   97.99   19.70
   5   0  12  120.69    8.80
   5   0  12  122.49   11.30
   6  -1 -12  864.81   43.70
   6  -1 -12  925.91   31.20
  -6   1  12  889.01   34.70
  -6   1  12  856.41   33.30
  -6   1  12  904.91   33.30
  -6   1  12  878.31   31.20
   5  -1 -12  177.08   20.00
   5  -1 -12  196.18   10.10
   5  -1 -12  196.48   23.40
  -5   1  12  182.48   12.60
  -5   1  12  189.08   11.90
  -5   1  12  202.78   10.80
   4  -1 -12 1362.76   50.89
   4  -1 -12 1424.46   45.60
   4  -1 -12 1426.66   53.59
  -4   1  12 1382.16   47.20
  -4   1  12 1405.96   45.90
  -4   1  12 1482.55   46.10
  -4   1  12 1381.66   46.50
   3  -1 -12  132.79   10.70
  -3   1  12  135.79    7.20
  -3   1  12  137.59    7.70
  -3   1  12  135.19    9.50
  -3   1  12  136.59    7.80
  -2   1  12  753.52   26.80
  -2   1  12  762.32   24.60
  -2   1  12  749.03   25.60
  -2   1  12  749.92   24.40
  -1   1  12   79.79    3.70
  -1   1  12   80.79    3.60
  -1   1  12   77.19    5.90
  -1   1  12   78.29    5.40
   0   1  12  410.36   13.20
   0   1  12  439.86   16.10
   0   1  12  402.26   13.30
   0   1  12  439.26   15.70
   1   1  12  617.24   21.30
   1   1  12  634.14   20.10
   1   1  12  613.64   19.60
   1   1  12  602.54   21.40
   2   1  12  609.64   21.70
   2   1  12  601.44   20.40
   2   1  12  639.74   21.10
   2   1  12  619.94   21.20
   3   1  12  394.36   15.80
   3   1  12  391.36   13.50
   3   1  12  407.26   13.70
   3   1  12  392.46   14.70
   3   1  12  384.26   14.00
   3   1  12  396.16   17.70
   4   1  12  544.15   17.00
   4   1  12  527.95   20.90
   4   1  12  518.75   18.30
   4   1  12  471.45   29.90
   4   1  12  500.65   26.50
   4   1  12  523.25   17.10
   4   1  12  515.35   19.30
   5   1  12  127.69   24.60
   5   1  12  104.29   12.30
   5   1  12  113.09    9.10
   5   1  12  131.19   20.70
   5   1  12   95.09    8.50
   6  -2 -12  308.67   14.40
   6  -2 -12  282.17   27.40
  -6   2  12  302.67   15.30
  -6   2  12  313.87   18.50
  -6   2  12  297.87   15.90
  -6   2  12  277.17   16.40
   5  -2 -12   -4.20   10.70
   5  -2 -12    2.00    4.00
   5  -2 -12    4.80   12.50
  -5   2  12    0.10    5.40
  -5   2  12    3.10    5.00
  -5   2  12    2.60    3.90
   4  -2 -12  599.04   29.70
   4  -2 -12  640.64   22.60
   4  -2 -12  610.74   28.20
  -4   2  12  639.34   22.70
  -4   2  12  650.63   24.70
  -4   2  12  628.14   23.30
  -4   2  12  600.44   22.60
   3  -2 -12    0.70    5.90
  -3   2  12    2.60    3.70
  -3   2  12    5.90    2.60
  -3   2  12    2.00    3.60
  -3   2  12    2.40    3.00
  -2   2  12  980.80   32.80
  -2   2  12  988.50   33.80
  -2   2  12  965.50   31.60
  -2   2  12  969.50   31.40
  -1   2  12   10.80    2.20
  -1   2  12    5.50    3.00
  -1   2  12    9.60    4.60
  -1   2  12    7.40    2.10
   0   2  12  874.51   29.10
   0   2  12  840.02   28.70
   0   2  12  827.12   26.70
   0   2  12  839.12   27.20
   1   2  12  145.49    6.40
   1   2  12  170.08    8.80
   1   2  12  146.59    7.40
   1   2  12  146.69    8.30
   2   2  12  720.63   24.40
   2   2  12  683.53   23.20
   2   2  12  680.43   24.50
   3   2  12  302.57   13.90
   3   2  12  308.37   11.90
   3   2  12  306.37   12.50
   4   2  12  509.35   17.70
   4   2  12  497.05   19.20
   5  -3 -12  179.78   21.10
   5  -3 -12  191.88   20.70
   5  -3 -12  194.38   11.20
  -5   3  12  195.88   11.70
  -5   3  12  178.78   12.20
  -5   3  12  193.78   12.70
  -5   3  12  176.98   11.40
   4  -3 -12  271.07   20.60
   4  -3 -12  273.87   21.10
   4  -3 -12  300.67   13.10
  -4   3  12  285.07   14.70
  -4   3  12  291.57   13.50
  -4   3  12  297.57   14.10
  -4   3  12  306.87   14.30
   3  -3 -12  721.23   29.80
  -3   3  12  772.52   26.10
  -3   3  12  758.52   26.50
  -3   3  12  745.03   27.00
  -3   3  12  757.02   28.00
  -2   3  12  872.51   30.40
  -2   3  12  852.61   28.70
  -2   3  12  848.82   29.90
  -2   3  12  851.61   28.70
  -1   3  12  556.14   21.30
  -1   3  12  563.44   19.50
  -1   3  12  556.14   20.80
  -1   3  12  533.05   19.00
   0   3  12  955.80   31.60
   0   3  12  982.10   33.20
   0   3  12  992.70   32.60
   1   3  12   29.70    5.10
   1   3  12   36.50    5.80
   1   3  12   47.70    4.80
  -2  -3 -12  136.79   12.80
   2   3  12  159.18    9.50
   2   3  12  157.18    9.60
   2   3  12  147.79    7.90
  -3  -3 -12    5.80   10.10
   3   3  12    6.00    4.10
   3   3  12   -3.60    4.00
   3   3  12    1.50    4.20
   5  -4 -12  115.09    9.10
   5  -4 -12  129.99   23.60
  -5   4  12  111.29   12.60
  -5   4  12  119.39   11.70
  -5   4  12  111.99   10.80
  -5   4  12  126.49   11.90
   4  -4 -12  222.08   24.40
   4  -4 -12  251.97   21.70
  -4   4  12  250.57   14.20
  -4   4  12  241.48   13.70
  -4   4  12  241.88   13.80
   3  -4 -12   24.90    9.90
  -3   4  12   23.00    5.00
  -3   4  12   22.60    5.20
  -3   4  12   18.30    6.20
  -3   4  12   28.90    6.00
   2  -4 -12   13.70    8.20
   2  -4 -12   17.40    7.20
  -2   4  12   15.30    4.00
  -2   4  12   16.00    4.20
  -2   4  12   16.00    4.50
  -2   4  12    9.00    5.80
   1  -4 -12  181.78   12.30
   1  -4 -12  192.08   13.50
  -1   4  12  195.88   10.60
  -1   4  12  194.78   10.70
  -1   4  12  194.78   10.00
   0  -4 -12  211.98   14.00
   0   4  12  215.78   11.60
   0   4  12  203.28   11.20
   0   4  12  209.18   10.00
  -1  -4 -12  690.63   30.30
   1   4  12  720.53   25.10
   1   4  12  755.92   26.90
   1   4  12  683.03   26.00
  -2  -4 -12   48.10   11.70
   2   4  12   53.19    7.00
   2   4  12   56.39    9.10
  -4   5  12    8.00    6.50
  -4   5  12    7.60    5.80
  -4   5  12    0.70    5.10
  -4   5  12   17.90    7.20
   3  -5 -12  593.34   31.80
  -3   5  12  604.54   24.40
  -3   5  12  641.14   24.50
  -3   5  12  582.34   23.80
  -3   5  12  607.14   25.30
   2  -5 -12   23.60   10.10
   2  -5 -12   20.40   12.80
  -2   5  12   23.90    5.60
  -2   5  12   23.90    6.20
   1  -5 -12  485.05   27.60
  -1   5  12  403.36   21.70
  -1   5  12  423.36   18.40
  -1   5  12  434.36   15.80
   0  -5 -12   20.60   12.00
   0   5  12   31.10    5.60
   0   5  12   29.50    6.40
   0   5  12   28.80   10.70
  -1  -5 -12  205.58   24.20
   1   5  12  264.47   13.10
   1   5  12  244.58   13.90
   1   5  12  262.77   15.70
   1   6 -13   32.80    6.10
  -1  -6  13   20.50    6.10
  -1  -6  13   20.30    7.70
  -1  -6  13   33.30    7.00
   0   6 -13  211.38   11.50
   0  -6  13  219.78   12.80
   0  -6  13  216.38   16.20
  -1   6 -13  204.88   23.70
   1  -6  13  211.08   12.30
   1  -6  13  167.08   26.50
   1  -6  13  198.68   15.10
   2  -6  13  339.97   16.90
   2  -6  13  325.77   18.60
   3  -6  13  735.43   29.50
   3  -6  13  707.83   28.00
   2   5 -13  684.13   39.80
   2   5 -13  703.43   26.20
  -2  -5  13  698.13   26.20
  -2  -5  13  657.43   29.10
  -2  -5  13  670.13   25.50
  -2  -5  13  673.43   37.70
   1   5 -13  460.85   30.50
   1   5 -13  448.06   18.50
  -1  -5  13  498.25   19.20
  -1  -5  13  445.06   20.60
  -1  -5  13  431.46   18.50
  -1  -5  13  454.75   30.10
   0   5 -13 1030.60   33.80
   0   5 -13  959.20   44.30
   0  -5  13  975.00   46.30
   0  -5  13 1016.40   33.70
   0  -5  13 1047.10   34.90
   0  -5  13  979.00   36.10
  -1   5 -13  368.86   14.00
  -1   5 -13  353.66   13.80
  -1   5 -13  352.46   25.10
   1  -5  13  378.66   17.00
   1  -5  13  362.76   27.00
  -2   5 -13  546.45   31.70
   2  -5  13  642.74   23.80
   2  -5  13  596.24   36.00
   2  -5  13  610.04   23.90
   3  -5  13  346.17   15.80
   3  -5  13  331.87   27.90
   3  -5  13  345.77   27.50
   3  -5  13  340.47   16.60
   4  -5  13  293.67   16.80
   4  -5  13  294.97   16.00
   4  -5  13  288.27   10.40
   4  -5  13  282.67   27.50
   3   4 -13  409.96   31.60
   3   4 -13  425.96   18.60
  -3  -4  13  401.86   20.50
  -3  -4  13  409.26   29.90
  -3  -4  13  415.46   18.20
  -3  -4  13  444.96   18.60
   2   4 -13  526.45   30.60
   2   4 -13  529.35   20.10
  -2  -4  13  498.35   29.50
  -2  -4  13  509.45   22.40
  -2  -4  13  505.05   20.60
   1   4 -13  766.22   35.40
   1   4 -13  793.42   28.20
  -1  -4  13  803.02   29.20
  -1  -4  13  772.72   35.70
  -1  -4  13  856.01   28.10
  -1  -4  13  790.42   27.70
   0   4 -13  667.73   31.00
   0   4 -13  737.93   24.40
   0  -4  13  706.93   24.30
   0  -4  13  678.53   25.80
   0  -4  13  722.93   24.80
   0  -4  13  691.73   32.60
  -1   4 -13  574.94   27.80
   1  -4  13  622.34   20.80
   1  -4  13  633.64   23.10
   1  -4  13  627.84   22.20
   1  -4  13  580.74   29.00
   2  -4  13  394.06   22.10
   2  -4  13  413.26   16.10
   2  -4  13  369.76   23.50
   2  -4  13  381.76   16.30
   3  -4  13  285.97   10.20
   3  -4  13  294.97   10.10
   3  -4  13  304.87   21.90
   3  -4  13  303.27   14.30
   3  -4  13  279.77   22.50
   4  -4  13   14.40    5.00
   4  -4  13   13.00   10.80
   4  -4  13   16.50    5.70
   4  -4  13   12.20    3.00
   4  -4  13    8.50   13.20
   5  -4  13  355.06   29.90
   5  -4  13  340.27   17.50
   5  -4  13  329.17   17.80
   5  -4  13  336.27   14.00
   4   3 -13  554.94   22.40
   4   3 -13  582.54   36.90
  -4  -3  13  591.74   22.80
  -4  -3  13  496.15   32.60
  -4  -3  13  565.44   23.30
  -4  -3  13  542.25   24.80
   3   3 -13  298.37   14.30
   3   3 -13  313.87   25.80
  -3  -3  13  356.46   14.80
  -3  -3  13  326.87   15.50
  -3  -3  13  325.47   23.50
  -3  -3  13  289.37   17.90
   2   3 -13  162.78   16.80
   2   3 -13  190.18   10.20
  -2  -3  13  178.48   10.60
  -2  -3  13  183.18    9.30
  -2  -3  13  186.48   11.30
  -2  -3  13  171.28   16.50
   1   3 -13  473.05   21.90
  -1  -3  13  494.95   22.60
  -1  -3  13  498.25   17.90
  -1  -3  13  508.45   19.40
   0   3 -13   22.00    5.40
   0  -3  13   20.10    3.20
   0  -3  13   22.40    6.00
   0  -3  13   20.60    3.30
   0  -3  13   24.10    4.10
   1  -3  13 1548.35   51.69
   1  -3  13 1556.24   49.20
   1  -3  13 1565.74   48.50
   1  -3  13 1511.35   49.70
   2  -3  13   35.30    5.20
   2  -3  13   47.70   10.30
   2  -3  13   36.00    3.30
   2  -3  13   41.40    6.10
   2  -3  13   33.30    3.10
   2  -3  13   51.19    3.40
   3  -3  13 2061.29   64.29
   3  -3  13 2133.69   71.59
   3  -3  13 2032.40   71.79
   3  -3  13 2090.39   66.19
   3  -3  13 2055.09   66.09
   4  -3  13   38.40    5.90
   4  -3  13   28.70   10.50
   4  -3  13   34.90    6.60
   4  -3  13   34.10   11.20
   5  -3  13  750.72   28.70
   5  -3  13  737.93   28.00
   5  -3  13  749.33   26.80
   5  -3  13  746.33   39.40
   5   2 -13  465.55   20.60
  -5  -2  13  504.45   21.10
  -5  -2  13  474.65   23.30
  -5  -2  13  503.15   21.90
   4   2 -13   58.69   15.40
   4   2 -13   47.30    6.80
  -4  -2  13   50.79    6.90
  -4  -2  13   38.00    6.80
  -4  -2  13   38.60    6.80
  -4  -2  13   29.20   11.90
   3   2 -13 1681.13   62.69
  -3  -2  13 1757.02   55.19
  -3  -2  13 1743.73   56.39
  -3  -2  13 1718.83   61.19
  -3  -2  13 1720.13   56.79
   2   2 -13   17.80    5.70
  -2  -2  13    9.00    4.00
  -2  -2  13   32.00    4.10
  -2  -2  13   12.70    2.00
  -2  -2  13   13.60    5.80
  -2  -2  13   16.80    4.50
  -1  -2  13 2344.07   73.09
  -1  -2  13 2398.66   74.09
  -1  -2  13 2382.36   74.49
  -1  -2  13 2348.27   72.09
   0  -2  13   75.69    3.80
   0  -2  13   65.69    4.60
   0  -2  13   75.49    5.90
   0  -2  13   57.19    5.30
   1  -2  13 1137.39   35.30
   1  -2  13 1145.69   36.00
   1  -2  13 1115.79   35.90
   1  -2  13 1108.09   36.20
   2  -2  13   15.90    3.30
   2  -2  13   18.60    2.70
   2  -2  13   17.80    3.40
   2  -2  13   17.50    2.10
   3  -2  13  298.27   12.60
   3  -2  13  284.87   14.90
   3  -2  13  259.77   11.60
   4  -2  13  258.17   18.70
   4  -2  13  277.37   12.70
   4  -2  13  278.27   13.40
   5  -2  13   92.39    8.60
   5  -2  13   98.69    9.00
   5  -2  13   89.69   18.40
   5  -2  13  101.49   11.30
   5   1 -13  680.53   25.30
   5   1 -13  661.93   23.20
   5   1 -13  671.73   40.00
  -5  -1  13  683.03   28.20
  -5  -1  13  732.33   26.20
  -5  -1  13  654.13   26.60
   4   1 -13    1.10    3.00
   4   1 -13   -5.40   11.70
   4   1 -13    5.00    2.40
  -4  -1  13    1.90    5.70
  -4  -1  13    3.90    4.50
  -4  -1  13    5.20    3.20
  -4  -1  13    7.10    5.20
   3   1 -13  855.61   33.90
  -3  -1  13  897.41   31.60
  -3  -1  13  891.01   28.80
  -3  -1  13  886.01   29.50
  -3  -1  13  886.11   30.80
  -2  -1  13  133.49    8.30
  -2  -1  13  129.99    7.60
  -2  -1  13  130.09    6.40
  -2  -1  13  134.69    6.50
  -1  -1  13 1005.10   32.60
  -1  -1  13 1039.50   32.50
  -1  -1  13  991.80   31.90
  -1  -1  13 1032.10   34.00
   0  -1  13  231.68    8.50
   0  -1  13  228.38    8.20
   0  -1  13  228.18    9.20
   0  -1  13  238.78   10.10
   1  -1  13  828.62   26.60
   1  -1  13  810.92   26.30
   1  -1  13  797.22   25.60
   1  -1  13  786.22   25.60
   2  -1  13  207.88    8.00
   2  -1  13  203.28    8.90
   2  -1  13  218.98    9.40
   2  -1  13  212.08    8.60
   3  -1  13  391.76   15.00
   3  -1  13  365.76   14.30
   4  -1  13  325.37   14.90
   4  -1  13  312.37   19.00
   4  -1  13  325.47   13.70
   5  -1  13  196.88   20.10
   5  -1  13  234.68   14.50
   5  -1  13  206.88   12.30
   5   0 -13   89.19   17.30
   5   0 -13   84.89   18.50
   5   0 -13   95.29    7.40
  -5   0  13   90.59    9.90
  -5   0  13   92.79    8.60
  -5   0  13   96.19    7.90
  -5   0  13   96.29   11.30
   4   0 -13  373.86   23.90
   4   0 -13  393.26   14.80
  -4   0  13  378.46   16.70
  -4   0  13  381.16   17.10
  -4   0  13  391.06   15.70
  -4   0  13  398.26   15.10
   3   0 -13   35.40    5.40
   3   0 -13   37.80    4.90
  -3   0  13   25.60    4.30
  -3   0  13   33.60    4.70
  -3   0  13   28.20    3.80
  -3   0  13   23.40    4.80
  -2   0  13  612.24   20.90
  -2   0  13  625.74   23.10
  -2   0  13  623.04   20.40
  -2   0  13  619.24   21.20
  -1   0  13   51.89    2.80
  -1   0  13   59.39    6.30
  -1   0  13   59.89    3.50
  -1   0  13   64.49    4.90
   0   0  13 1496.85   47.20
   0   0  13 1476.05   47.80
   1   0  13  505.75   17.30
   1   0  13  540.25   17.50
   1   0  13  581.94   19.40
   1   0  13  558.64   19.30
   2   0  13 1326.47   41.80
   2   0  13 1342.27   41.50
   2   0  13 1319.07   42.00
   2   0  13 1309.67   42.80
   3   0  13  927.41   30.80
   3   0  13  871.31   29.70
   3   0  13  897.61   28.20
   3   0  13  910.91   28.10
   4   0  13  246.08   17.90
   4   0  13  253.67   13.20
   4   0  13  256.77   11.70
   4   0  13  251.37   16.50
   5   0  13  234.38   15.10
   5   0  13  213.88   12.60
   5  -1 -13  179.88   23.10
   5  -1 -13  200.88   10.50
  -5   1  13  195.28   10.50
  -5   1  13  190.38   13.30
  -5   1  13  196.08   11.90
  -5   1  13  206.68   14.10
   4  -1 -13  799.32   34.20
   4  -1 -13  694.63   31.60
   4  -1 -13  825.12   27.60
  -4   1  13  801.82   28.70
  -4   1  13  825.82   29.60
  -4   1  13  793.92   27.60
  -4   1  13  830.02   28.00
  -3   1  13  766.82   28.00
  -3   1  13  758.82   25.70
  -3   1  13  771.52   26.40
  -2   1  13  748.13   24.90
  -2   1  13  773.12   24.60
  -2   1  13  754.72   27.00
  -2   1  13  750.22   26.00
  -1   1  13  694.53   27.20
  -1   1  13  719.33   22.50
  -1   1  13  694.13   22.40
  -1   1  13  741.23   24.70
   0   1  13  154.68    8.60
   0   1  13  155.58    5.70
   0   1  13  152.58    7.80
   1   1  13   31.60    4.40
   1   1  13   32.10    2.60
   1   1  13   29.40    3.50
   1   1  13   28.20    3.90
   2   1  13  112.39    6.70
   2   1  13  106.79    5.70
   2   1  13  103.49    6.70
   2   1  13  109.59    7.70
   3   1  13   78.19    4.90
   3   1  13   74.19    5.90
   3   1  13   58.49    5.20
   3   1  13   68.69    7.60
   4   1  13  391.76   16.00
   4   1  13  405.76   13.30
   4   1  13  413.56   22.80
   4   1  13  395.46   13.40
   4   1  13  387.16   21.20
   5  -2 -13   17.50    4.90
   5  -2 -13   15.00   13.30
  -5   2  13   28.20    7.60
  -5   2  13   19.10    5.90
  -5   2  13   19.70    5.80
  -5   2  13   23.50    6.00
   4  -2 -13  159.18   16.80
   4  -2 -13  137.19   14.30
  -4   2  13  173.38    9.80
  -4   2  13  168.18   10.50
  -4   2  13  173.68   11.10
  -4   2  13  165.38   11.30
  -3   2  13   83.09    6.30
  -3   2  13   91.99    7.90
  -3   2  13   82.89    7.00
  -3   2  13   75.59    8.30
  -2   2  13  358.86   13.80
  -2   2  13  382.46   15.60
  -2   2  13  381.36   16.60
  -2   2  13  383.36   14.10
  -1   2  13  143.59    8.80
  -1   2  13  148.89    6.70
  -1   2  13  138.69    6.40
  -1   2  13  141.59    9.40
   0   2  13  687.03   24.00
   0   2  13  686.43   22.20
   0   2  13  623.74   25.70
   0   2  13  677.13   21.60
   1   2  13   37.00    3.60
   1   2  13   33.30    4.60
   1   2  13   31.90    4.50
   1   2  13   42.40    4.90
   2   2  13  584.74   20.10
   2   2  13  578.94   21.80
   2   2  13  597.74   21.40
   2   2  13  591.94   21.20
   3   2  13   23.70    4.50
   3   2  13   20.60    5.50
   3   2  13   35.40    5.10
   3   2  13   23.40    4.80
   3   2  13   36.70    5.50
   3   2  13   23.20    4.00
   3   2  13   19.70    5.60
   3   2  13   16.70    2.80
   5  -3 -13   50.49   14.50
   5  -3 -13   49.60    6.80
  -5   3  13   34.70    7.20
  -5   3  13   48.30    8.90
  -5   3  13   43.00    8.20
  -5   3  13   43.10    7.60
   4  -3 -13  515.95   27.10
   4  -3 -13  534.55   26.80
  -4   3  13  568.14   22.30
  -4   3  13  565.64   22.20
  -4   3  13  558.24   23.50
   3  -3 -13   -0.60    0.70
  -3   3  13    5.80    3.70
  -3   3  13    7.50    5.00
  -3   3  13    0.40    4.00
  -3   3  13    3.10    4.90
  -2   3  13  753.02   26.00
  -2   3  13  761.12   26.10
  -2   3  13  755.02   27.20
  -2   3  13  771.42   28.10
  -1   3  13  104.09    7.10
  -1   3  13   91.69    8.70
  -1   3  13   98.59    8.50
  -1   3  13   91.19    6.40
   0   3  13  975.20   32.90
   0   3  13  979.30   32.00
   0   3  13 1018.70   34.50
   0   3  13  977.90   33.80
   1   3  13   71.59    5.60
   1   3  13   70.99    7.40
   1   3  13   86.69    7.50
   2   3  13  642.14   22.90
   2   3  13  667.03   24.70
   2   3  13  672.33   24.70
   3   3  13    5.40    4.60
   3   3  13    6.20    5.70
   3   3  13    5.80    9.90
   3   3  13   -0.40    4.10
   4  -4 -13  889.11   41.10
   4  -4 -13  799.62   38.00
  -4   4  13  847.52   31.70
  -4   4  13  882.41   31.30
  -4   4  13  812.72   32.50
  -4   4  13  857.71   31.70
   3  -4 -13   10.00    9.40
   3  -4 -13    9.10    8.10
  -3   4  13    7.30    5.50
  -3   4  13    8.60    4.80
  -3   4  13   11.10    6.00
  -3   4  13    8.60    4.90
  -2   4  13  530.75   23.20
  -2   4  13  551.14   22.40
  -2   4  13  588.54   21.80
  -2   4  13  574.74   21.40
  -1   4  13   21.10    4.60
  -1   4  13   20.40    4.90
  -1   4  13   28.70    6.80
  -1   4  13   27.40    5.30
   0   4  13   39.60    7.30
   0   4  13   38.70    6.50
   0   4  13   52.99    7.60
   1   4  13   37.00    6.70
   1   4  13   38.70    6.10
   1   4  13   43.00    6.40
   1   5 -14  223.28   12.20
  -1  -5  14  209.18   15.60
  -1  -5  14  217.48   12.60
  -1  -5  14  234.28   12.80
   0   5 -14  752.12   26.00
   0   5 -14  651.83   34.70
   0  -5  14  708.93   28.50
   0  -5  14  729.53   25.40
   0  -5  14  739.83   26.70
   0  -5  14  677.73   36.30
  -1   5 -14  324.47   23.20
  -1   5 -14  337.17   12.90
  -1   5 -14  170.28   11.20
   1  -5  14  341.07   25.20
   1  -5  14  365.46   15.30
   1  -5  14  337.27   16.90
   2  -5  14  726.23   26.30
   2  -5  14  705.73   27.30
   2  -5  14  632.04   35.40
   3  -5  14  151.08   11.90
   3  -5  14  167.28   12.40
   3   4 -14   72.49   10.20
  -3  -4  14   95.69   10.40
  -3  -4  14   77.19    9.30
   2   4 -14  904.21   31.40
   2   4 -14  802.32   40.10
  -2  -4  14  870.71   31.30
  -2  -4  14  951.60   31.30
  -2  -4  14  870.61   40.20
  -2  -4  14  849.41   32.70
   1   4 -14  113.89   16.70
   1   4 -14  130.29    9.00
  -1  -4  14  137.09    9.50
  -1  -4  14  133.09   17.30
  -1  -4  14  142.79   13.20
   0   4 -14  764.12   24.30
   0   4 -14  811.22   26.90
   0   4 -14  686.13   31.40
   0  -4  14  775.52   26.80
   0  -4  14  776.72   33.40
   0  -4  14  739.93   28.00
   0  -4  14  802.42   27.00
   1  -4  14  245.78   10.20
   1  -4  14  236.08   11.80
   1  -4  14  239.38   17.80
   1  -4  14  238.28   13.20
   2  -4  14  650.23   23.30
   2  -4  14  601.04   30.00
   2  -4  14  631.94   24.00
   3  -4  14  178.58    6.80
   3  -4  14  174.18   19.80
   3  -4  14  211.98   13.60
   3  -4  14  174.78    6.80
   4  -4  14  342.67   12.80
   4  -4  14  350.56   17.00
   4  -4  14  322.47   16.70
   3   3 -14  221.98   12.20
   3   3 -14  228.58   21.70
  -3  -3  14  214.08   14.80
  -3  -3  14  227.28   12.70
  -3  -3  14  228.78   12.20
  -3  -3  14  213.68   20.20
   2   3 -14  824.12   35.60
   2   3 -14  934.31   31.50
  -2  -3  14  863.21   35.40
  -2  -3  14  896.81   32.50
  -2  -3  14  896.31   31.60
  -2  -3  14  912.61   30.40
   1   3 -14  158.58   11.10
  -1  -3  14  182.08   10.30
  -1  -3  14  194.18    8.90
  -1  -3  14  168.28    9.90
  -1  -3  14  163.48   11.60
   0  -3  14  356.26   14.00
   0  -3  14  355.16   13.70
   0  -3  14  345.17   14.60
   1  -3  14  333.57   13.30
   1  -3  14  336.67   12.80
   1  -3  14  337.17   14.10
   2  -3  14   38.70    3.40
   2  -3  14   37.90    6.60
   2  -3  14   35.30    3.30
   2  -3  14   45.20    6.00
   3  -3  14  954.80   33.00
   3  -3  14  925.71   36.00
   3  -3  14  982.90   35.80
   3  -3  14  971.10   31.10
   3  -3  14  965.90   33.00
   3  -3  14  968.90   30.90
   4  -3  14   60.99   12.50
   4  -3  14   71.09    6.90
   4  -3  14   66.49    8.80
   4  -3  14   50.99   12.20
   4   2 -14   95.99    6.00
   4   2 -14   79.99   15.70
  -4  -2  14   87.69    9.60
  -4  -2  14  113.99   10.00
  -4  -2  14   99.99   16.40
  -4  -2  14   89.49   12.20
   3   2 -14  590.54   18.20
   3   2 -14  526.95   27.00
  -3  -2  14  570.44   23.00
  -3  -2  14  559.24   25.70
  -3  -2  14  591.84   21.30
  -3  -2  14  579.84   22.50
  -2  -2  14   51.49    5.40
  -2  -2  14   60.69    8.00
  -2  -2  14   51.59    7.50
  -2  -2  14   49.90    3.60
  -1  -2  14 1847.92   58.69
  -1  -2  14 1826.32   59.19
  -1  -2  14 1865.21   57.69
  -1  -2  14 1851.41   56.49
   0  -2  14  323.77   10.60
   0  -2  14  265.37   12.00
   0  -2  14  325.07   12.90
   0  -2  14  285.07   11.30
   1  -2  14 1762.42   54.69
   1  -2  14 1716.93   54.49
   1  -2  14 1756.22   54.09
   1  -2  14 1751.32   54.89
   2  -2  14  509.75   16.50
   2  -2  14  475.85   17.90
   2  -2  14  525.45   18.30
   2  -2  14  510.45   17.50
   3  -2  14  468.95   17.10
   3  -2  14  478.45   17.80
   3  -2  14  472.85   18.30
   4  -2  14   77.99   13.40
   4  -2  14   78.09   14.30
   4  -2  14   73.49    8.30
   4   1 -14  235.48   20.80
   4   1 -14  258.37   18.50
  -4  -1  14  276.87   11.50
  -4  -1  14  284.57   15.70
  -4  -1  14  258.27   13.20
   3   1 -14  702.53   28.10
  -3  -1  14  944.41   33.10
  -3  -1  14  975.40   32.40
  -3  -1  14  987.90   30.90
  -3  -1  14  975.20   30.00
  -2  -1  14  164.28    7.40
  -2  -1  14  157.48    7.30
  -2  -1  14  153.98    8.90
  -2  -1  14  150.98   10.30
  -1  -1  14  510.15   16.70
  -1  -1  14  507.65   17.30
  -1  -1  14  499.35   17.50
  -1  -1  14  496.05   19.60
   0  -1  14   12.10    2.30
   0  -1  14   22.90    3.90
   0  -1  14   14.80    2.80
   0  -1  14   12.30    2.40
   1  -1  14  253.17    9.50
   1  -1  14  268.27    9.60
   1  -1  14  264.27   10.80
   1  -1  14  262.97   10.60
   2  -1  14  119.49    6.30
   2  -1  14  122.29    6.90
   2  -1  14  120.39    6.90
   2  -1  14  129.09    5.90
   3  -1  14  189.08    9.10
   3  -1  14  173.78    9.60
   3  -1  14  165.58    8.90
   4  -1  14   80.89    7.50
   4  -1  14   88.69    9.40
   4  -1  14   79.69    9.60
   4  -1  14   69.99    8.20
   4   0 -14    5.70    7.10
   4   0 -14    3.40    8.60
  -4   0  14    3.80    4.50
  -4   0  14   13.30    4.40
  -4   0  14    1.90    5.40
  -4   0  14   -1.80    6.30
  -3   0  14  919.41   30.20
  -3   0  14  894.01   31.00
  -3   0  14  905.51   30.20
  -3   0  14  904.11   32.70
  -2   0  14   27.80    3.80
  -2   0  14   10.40    4.90
  -2   0  14   19.70    3.90
  -2   0  14   19.10    3.50
  -1   0  14  718.13   25.80
  -1   0  14  726.03   22.50
  -1   0  14  733.03   24.40
  -1   0  14  693.53   22.90
   0   0  14  122.89    7.00
   0   0  14  123.59    8.40
   1   0  14  557.04   17.80
   1   0  14  562.94   19.70
   1   0  14  558.04   19.70
   1   0  14  535.05   17.50
   2   0  14  401.56   14.70
   2   0  14  418.26   14.40
   2   0  14  409.86   16.00
   2   0  14  405.06   15.00
   3   0  14  632.84   19.90
   3   0  14  629.14   22.90
   3   0  14  618.64   21.70
   3   0  14  637.44   23.00
   3   0  14  627.64   20.00
   4   0  14  282.77   15.50
   4   0  14  285.17   12.90
   4  -1 -14  281.87   14.10
   4  -1 -14  276.67   14.40
  -4   1  14  295.07   13.50
  -4   1  14  275.37   16.10
  -4   1  14  294.07   13.40
  -4   1  14  285.67   14.20
  -3   1  14  523.15   18.90
  -3   1  14  510.75   19.30
  -3   1  14  526.25   21.30
  -3   1  14  529.35   19.50
  -2   1  14  746.03   27.40
  -2   1  14  740.23   24.00
  -2   1  14  724.33   25.70
  -2   1  14  735.53   24.40
  -1   1  14 1543.35   46.80
  -1   1  14 1473.85   46.60
  -1   1  14 1508.05   48.90
  -1   1  14 1557.24   50.09
   0   1  14  307.87   15.50
   0   1  14  343.67   10.80
   0   1  14  331.37   13.70
   0   1  14  310.27   10.40
   1   1  14 1024.00   32.50
   1   1  14 1064.89   34.80
   1   1  14 1042.90   35.00
   1   1  14 1053.39   33.00
   2   1  14   14.00    4.70
   2   1  14    5.30    2.40
   2   1  14    8.30    3.50
   2   1  14    5.70    3.40
   3   1  14   55.39    5.00
   3   1  14   50.99    6.40
   3   1  14   49.90    7.60
   3   1  14   49.60    5.50
   3   1  14   52.69    5.80
  -4   2  14   63.59    8.70
  -4   2  14   54.69    9.20
  -4   2  14   57.39    7.70
  -4   2  14   56.79    7.60
  -3   2  14  369.66   15.30
  -3   2  14  366.66   16.10
  -3   2  14  384.36   18.10
  -3   2  14  359.56   14.70
  -2   2  14   41.60    5.80
  -2   2  14   43.30    6.30
  -2   2  14   36.70    5.10
  -2   2  14   39.10    4.80
  -1   2  14   16.90    5.50
  -1   2  14   18.10    2.80
  -1   2  14   14.90    2.90
  -1   2  14   18.40    4.20
   0   2  14  328.17   14.80
   0   2  14  329.97   14.10
   0   2  14  327.27   12.20
   0   2  14  316.37   11.50
   1   2  14    9.70    5.20
   1   2  14    5.30    3.40
   1   2  14    7.30    3.90
   2   2  14  782.22   27.50
   2   2  14  765.12   28.00
   2   2  14  789.92   26.20
   2   2  14  803.02   27.50
  -3   3  14   14.40    4.90
  -3   3  14   11.20    4.80
  -3   3  14    5.20    6.70
  -3   3  14   16.30    4.60
  -2   3  14  417.06   16.50
  -2   3  14  403.66   18.00
  -2   3  14  422.76   16.20
  -2   3  14  427.46   18.70
  -1   3  14   27.10    4.50
  -1   3  14   33.90    6.40
  -1   3  14   36.10    5.30
  -1   3  14   37.80    6.70
   0   3  14  563.04   21.70
   0   3  14  521.65   18.90
   0   3  14  539.65   20.10
   0   3  14  532.45   21.70
   1   3  14    5.90    5.40
   1   3  14    1.00    3.30
   1   3  14    6.00    5.40
   1   3  14    7.30    4.80
  -2   4  14  653.93   26.30
  -1   4  14   18.80    5.60
  -1   4  14   21.10    7.20
  -1   4  14   23.20    5.00
  -1   4  14   25.80    5.90
   1   4 -15   10.80    8.70
  -1  -4  15   10.90    9.70
  -1  -4  15    5.80    5.20
  -1  -4  15   -0.30    5.80
   0  -4  15  546.05   22.20
   0  -4  15  540.05   23.80
   0  -4  15  534.75   20.10
   1  -4  15    3.30    4.90
   1  -4  15    6.10    3.70
   1  -4  15    2.80    4.00
   1  -4  15    4.60    6.90
   1  -4  15   -2.50    6.30
   2  -4  15  205.28   15.40
   2  -4  15  196.18   14.30
   2  -4  15  218.98   15.40
   2   3 -15  609.24   25.00
  -2  -3  15  663.33   25.90
  -2  -3  15  662.43   25.20
  -2  -3  15  667.43   25.70
  -1  -3  15   26.50    5.20
  -1  -3  15   25.90    5.00
  -1  -3  15   24.20    5.60
   0  -3  15  741.23   26.90
   0  -3  15  750.62   25.50
   0  -3  15  747.13   25.90
   1  -3  15   26.30    4.80
   1  -3  15   22.20    4.20
   1  -3  15   14.80    3.70
   2  -3  15  332.67   11.70
   2  -3  15  341.67   14.40
   2  -3  15  357.26   11.80
   2  -3  15  344.97   14.80
   3  -3  15   66.99    5.40
   3  -3  15   80.29    7.90
   3  -3  15   69.29    5.60
   3  -3  15   75.49    8.00
   3   2 -15   17.00    6.10
   3   2 -15   29.50    6.10
  -3  -2  15   24.60    5.80
  -3  -2  15   22.90    7.00
  -2  -2  15  219.18   10.00
  -2  -2  15  211.78   12.10
  -2  -2  15  212.68   12.60
  -1  -2  15  422.46   14.90
  -1  -2  15  402.76   13.60
  -1  -2  15  410.56   16.20
  -1  -2  15  406.56   16.80
   0  -2  15  226.28    9.70
   0  -2  15  257.77    9.00
   0  -2  15  230.98   10.80
   0  -2  15  253.77   11.30
   1  -2  15 1291.97   41.60
   1  -2  15 1324.07   41.50
   1  -2  15 1295.47   41.30
   1  -2  15 1287.07   40.80
   2  -2  15  739.63   24.00
   2  -2  15  727.83   24.70
   2  -2  15  685.73   24.50
   2  -2  15  720.83   22.90
   3  -2  15 1042.80   34.10
   3  -2  15 1027.00   35.10
   3  -2  15 1048.50   34.80
  -3  -1  15  875.11   32.10
  -3  -1  15  871.01   29.00
  -3  -1  15  856.11   31.40
  -3  -1  15  911.31   29.90
  -2  -1  15 1004.20   32.00
  -2  -1  15  987.10   34.50
  -2  -1  15  994.50   32.00
  -2  -1  15  956.90   33.10
  -1  -1  15  658.13   22.00
  -1  -1  15  659.83   22.00
  -1  -1  15  609.14   23.80
  -1  -1  15  668.73   21.20
   0  -1  15  781.42   26.80
   0  -1  15  732.33   24.80
   0  -1  15  798.42   25.60
   1  -1  15  244.58   10.50
   1  -1  15  241.98   10.70
   1  -1  15  240.68    9.10
   1  -1  15  236.68    9.10
   2  -1  15   84.09    6.00
   2  -1  15   87.99    5.30
   2  -1  15   78.79    6.40
   2  -1  15   80.89    5.70
   3  -1  15  202.08   10.60
   3  -1  15  194.58   10.00
   3  -1  15  219.88   11.00
  -3   0  15  119.09    9.70
  -3   0  15  116.49   11.50
  -3   0  15  132.89    7.90
  -2   0  15   16.00    3.10
  -2   0  15   15.50    5.70
  -2   0  15   21.90    3.90
  -2   0  15   15.50    3.80
  -1   0  15  198.28    9.50
  -1   0  15  180.38   10.90
  -1   0  15  170.98    7.20
  -1   0  15  176.18    6.70
   0   0  15    9.90    3.50
   1   0  15  221.08    7.90
   1   0  15  225.88   10.60
   1   0  15  238.28   10.80
   1   0  15  224.28    8.20
   2   0  15    2.00    2.90
   2   0  15    8.00    3.90
   2   0  15    4.10    2.60
   2   0  15    4.10    3.20
   3   0  15  310.27   12.60
   3   0  15  303.07   14.20
   3   0  15  309.17   14.00
  -3   1  15  324.97   17.30
  -3   1  15  326.37   14.50
  -3   1  15  324.47   13.40
  -3   1  15  340.47   14.80
  -2   1  15   44.70    7.20
  -2   1  15   40.00    5.40
  -2   1  15   40.30    4.40
  -2   1  15   33.30    5.20
  -1   1  15  687.23   24.00
  -1   1  15  665.53   25.20
  -1   1  15  642.14   21.10
  -1   1  15  673.03   21.30
   0   1  15   98.99    8.90
   0   1  15  103.29    8.30
   1   1  15 1031.20   33.10
   1   1  15 1077.59   35.70
   1   1  15 1067.39   35.30
   1   1  15 1028.00   32.60
   2   1  15    4.10    4.90
   2   1  15    3.10    2.60
   2   1  15    5.70    3.90
   2   1  15    5.20    4.30
  -3   2  15 1003.80   35.10
  -3   2  15  998.60   33.50
  -3   2  15 1002.50   34.20
  -2   2  15   17.80    3.90
  -2   2  15   22.10    6.70
  -2   2  15   17.40    4.80
  -2   2  15   13.10    3.50
  -1   2  15  303.87   15.80
  -1   2  15  303.67   11.60
  -1   2  15  311.07   14.20
  -1   2  15  329.17   12.00
   0   2  15   73.29    5.50
   0   2  15   79.19    9.00
   0   2  15   79.49    9.20
   0   2  15   75.59    5.00
   1   2  15    5.80    3.40
   1   2  15    1.50    2.50
   1   2  15    2.10    4.70
   1   2  15   -1.60    4.40
  -1  -2  16   19.90    2.90
  -1  -2  16   24.00    4.80
  -1  -2  16   15.60    6.30
  -1  -2  16   21.70    3.50
   0  -2  16  195.88    9.80
   0  -2  16  200.88    7.80
   0  -2  16  188.68   12.00
   1  -2  16   50.39    6.40
   1  -2  16   46.20    5.00
   1  -2  16   45.90    4.80
   1  -2  16   50.29    6.30
  -2  -1  16  669.13   22.30
  -2  -1  16  626.14   23.60
  -2  -1  16  647.94   25.70
  -2  -1  16  646.34   22.10
  -1  -1  16  642.84   25.10
  -1  -1  16  679.63   21.50
  -1  -1  16  661.63   22.50
  -1  -1  16  660.23   22.60
   0  -1  16 1253.87   39.60
   0  -1  16 1224.48   40.10
   0  -1  16 1337.07   42.90
   0  -1  16 1330.27   41.30
   1  -1  16  316.67   11.10
   1  -1  16  297.87   10.90
   1  -1  16  315.97   13.00
   1  -1  16  295.47   12.80
  -2   0  16  398.66   14.30
  -2   0  16  392.46   18.70
  -1   0  16  158.78    6.10
  -1   0  16  148.09   11.20
  -1   0  16  149.59    6.50
   0   0  16   61.89    8.90
   0   0  16   55.59    6.90
   1   0  16  264.57   12.60
   1   0  16  259.97    9.50
   1   0  16  303.27   10.20
   1   0  16  280.67   12.80
  -1   1  16  272.07   13.20
  -1   1  16  248.98   14.80
   0   0   0    0.00    0.00

_computing_structure_solution     'SHELXT 2014/5 (Sheldrick, 2014)'
;
_shelx_hkl_checksum              68857
loop_
_space_group_symop_operation_xyz
'x, y, z'
'-x, -y, -z'
loop_
_atom_site_label
_atom_site_type_symbol
_atom_site_fract_x
_atom_site_fract_y
_atom_site_fract_z
_atom_site_U_iso_or_equiv
_atom_site_adp_type
_atom_site_occupancy
_atom_site_site_symmetry_order
_atom_site_calc_flag
_atom_site_refinement_flags_posn
_atom_site_refinement_flags_adp
_atom_site_refinement_flags_occupancy
_atom_site_disorder_assembly
_atom_site_disorder_group
I1 I 0.76088(2) 0.05531(2) 0.91448(2) 0.02510(6) Uani 1 1 d . . . . .
Cl1 Cl 0.63869(6) 0.36521(6) 0.24449(4) 0.02155(10) Uani 1 1 d . . . . .
Cl2 Cl 0.67203(7) 0.65538(6) 0.07602(3) 0.02339(10) Uani 1 1 d . . . . .
N1 N 0.7400(2) 0.5332(2) 0.46657(12) 0.0178(3) Uani 1 1 d . . . . .
N2 N 0.7903(2) 0.6047(2) 0.56058(12) 0.0192(3) Uani 1 1 d . . . . .
C1 C 0.7492(2) 0.6716(2) 0.39330(13) 0.0150(3) Uani 1 1 d . . . . .
C2 C 0.7072(2) 0.6045(2) 0.28513(14) 0.0149(3) Uani 1 1 d . . . . .
C3 C 0.7189(2) 0.7339(2) 0.21004(13) 0.0161(3) Uani 1 1 d . . . . .
C4 C 0.7688(2) 0.9272(2) 0.24126(14) 0.0174(3) Uani 1 1 d . . . . .
H4 H 0.776576 1.014061 0.189495 0.021 Uiso 1 1 calc R U . . .
C5 C 0.8074(3) 0.9929(2) 0.34904(14) 0.0183(3) Uani 1 1 d . . . . .
H5 H 0.840704 1.125067 0.371010 0.022 Uiso 1 1 calc R U . . .
C6 C 0.7975(2) 0.8663(2) 0.42433(14) 0.0173(3) Uani 1 1 d . . . . .
H6 H 0.823725 0.912303 0.497764 0.021 Uiso 1 1 calc R U . . .
C7 C 0.7829(2) 0.4707(2) 0.63568(14) 0.0163(3) Uani 1 1 d . . . . .
C8 C 0.8382(3) 0.5478(3) 0.74052(15) 0.0195(3) Uani 1 1 d . . . . .
H8 H 0.878397 0.681175 0.757287 0.023 Uiso 1 1 calc R U . . .
C9 C 0.8347(3) 0.4302(3) 0.82074(14) 0.0204(3) Uani 1 1 d . . . . .
H9 H 0.872473 0.482205 0.892413 0.024 Uiso 1 1 calc R U . . .
C10 C 0.7754(2) 0.2361(3) 0.79476(14) 0.0181(3) Uani 1 1 d . . . . .
C11 C 0.7206(3) 0.1567(3) 0.68979(15) 0.0198(3) Uani 1 1 d . . . . .
H11 H 0.681418 0.023249 0.673174 0.024 Uiso 1 1 calc R U . . .
C12 C 0.7241(3) 0.2746(3) 0.61019(14) 0.0187(3) Uani 1 1 d . . . . .
H12 H 0.686530 0.222452 0.538531 0.022 Uiso 1 1 calc R U . . .
loop_
_atom_site_aniso_label
_atom_site_aniso_U_11
_atom_site_aniso_U_22
_atom_site_aniso_U_33
_atom_site_aniso_U_23
_atom_site_aniso_U_13
_atom_site_aniso_U_12
I1 0.03034(9) 0.02783(9) 0.01996(8) 0.01179(5) 0.00492(5) 0.00809(5)
Cl1 0.0275(2) 0.01191(18) 0.0241(2) -0.00166(15) -0.00286(16) 0.00412(15)
Cl2 0.0324(2) 0.0230(2) 0.0141(2) -0.00086(16) -0.00244(16) 0.00645(17)
N1 0.0190(7) 0.0170(7) 0.0183(7) 0.0042(6) -0.0001(5) 0.0049(5)
N2 0.0215(7) 0.0184(7) 0.0178(7) 0.0038(6) -0.0005(6) 0.0038(6)
C1 0.0135(7) 0.0148(7) 0.0170(8) 0.0026(6) -0.0006(6) 0.0037(6)
C2 0.0128(7) 0.0124(7) 0.0197(8) -0.0001(6) -0.0005(6) 0.0040(6)
C3 0.0163(7) 0.0180(8) 0.0139(8) -0.0006(6) -0.0005(6) 0.0051(6)
C4 0.0190(8) 0.0155(8) 0.0191(8) 0.0052(6) 0.0007(6) 0.0051(6)
C5 0.0208(8) 0.0127(7) 0.0207(9) -0.0005(6) -0.0012(6) 0.0036(6)
C6 0.0186(8) 0.0160(8) 0.0164(8) 0.0001(6) -0.0023(6) 0.0031(6)
C7 0.0148(7) 0.0187(8) 0.0166(8) 0.0040(6) 0.0021(6) 0.0053(6)
C8 0.0211(8) 0.0174(8) 0.0198(9) 0.0013(7) 0.0004(7) 0.0042(6)
C9 0.0212(8) 0.0255(9) 0.0154(8) 0.0032(7) 0.0015(6) 0.0066(7)
C10 0.0164(8) 0.0236(9) 0.0170(8) 0.0081(7) 0.0042(6) 0.0074(6)
C11 0.0218(8) 0.0179(8) 0.0205(9) 0.0039(7) 0.0042(7) 0.0052(7)
C12 0.0209(8) 0.0192(8) 0.0161(8) 0.0016(6) 0.0023(6) 0.0050(6)
loop_
_atom_type_symbol
_atom_type_description
_atom_type_scat_dispersion_real
_atom_type_scat_dispersion_imag
_atom_type_scat_source
C C 0.0033 0.0016 'International Tables Vol C Tables 4.2.6.8 and 6.1.1.4'
H H 0.0000 0.0000 'International Tables Vol C Tables 4.2.6.8 and 6.1.1.4'
Cl Cl 0.1484 0.1585 'International Tables Vol C Tables 4.2.6.8 and 6.1.1.4'
I I -0.4742 1.8119 'International Tables Vol C Tables 4.2.6.8 and 6.1.1.4'
N N 0.0061 0.0033 'International Tables Vol C Tables 4.2.6.8 and 6.1.1.4'
loop_
_geom_angle_atom_site_label_1
_geom_angle_atom_site_label_2
_geom_angle_atom_site_label_3
_geom_angle
_geom_angle_site_symmetry_1
_geom_angle_site_symmetry_3
_geom_angle_publ_flag
N2 N1 C1 113.02(14) . . ?
N1 N2 C7 114.46(15) . . ?
C6 C1 C2 119.46(15) . . ?
C6 C1 N1 123.46(16) . . ?
C2 C1 N1 117.08(15) . . ?
C3 C2 C1 119.32(15) . . ?
C3 C2 Cl1 119.95(13) . . ?
C1 C2 Cl1 120.73(13) . . ?
C4 C3 C2 120.94(16) . . ?
C4 C3 Cl2 118.73(13) . . ?
C2 C3 Cl2 120.33(13) . . ?
C3 C4 C5 119.45(16) . . ?
C3 C4 H4 120.3 . . ?
C5 C4 H4 120.3 . . ?
C6 C5 C4 120.25(16) . . ?
C6 C5 H5 119.9 . . ?
C4 C5 H5 119.9 . . ?
C5 C6 C1 120.56(16) . . ?
C5 C6 H6 119.7 . . ?
C1 C6 H6 119.7 . . ?
C8 C7 C12 120.34(16) . . ?
C8 C7 N2 115.19(15) . . ?
C12 C7 N2 124.47(16) . . ?
C9 C8 C7 120.14(17) . . ?
C9 C8 H8 119.9 . . ?
C7 C8 H8 119.9 . . ?
C10 C9 C8 119.09(17) . . ?
C10 C9 H9 120.5 . . ?
C8 C9 H9 120.5 . . ?
C9 C10 C11 121.39(16) . . ?
C9 C10 I1 120.04(13) . . ?
C11 C10 I1 118.55(13) . . ?
C12 C11 C10 119.26(17) . . ?
C12 C11 H11 120.4 . . ?
C10 C11 H11 120.4 . . ?
C11 C12 C7 119.78(17) . . ?
C11 C12 H12 120.1 . . ?
C7 C12 H12 120.1 . . ?
loop_
_geom_bond_atom_site_label_1
_geom_bond_atom_site_label_2
_geom_bond_distance
_geom_bond_site_symmetry_2
_geom_bond_publ_flag
I1 C10 2.0949(17) . ?
Cl1 C2 1.7233(17) . ?
Cl2 C3 1.7253(17) . ?
N1 N2 1.253(2) . ?
N1 C1 1.429(2) . ?
N2 C7 1.424(2) . ?
C1 C6 1.396(2) . ?
C1 C2 1.401(2) . ?
C2 C3 1.395(2) . ?
C3 C4 1.387(2) . ?
C4 C5 1.392(2) . ?
C4 H4 0.9500 . ?
C5 C6 1.384(2) . ?
C5 H5 0.9500 . ?
C6 H6 0.9500 . ?
C7 C8 1.392(2) . ?
C7 C12 1.398(2) . ?
C8 C9 1.390(2) . ?
C8 H8 0.9500 . ?
C9 C10 1.385(3) . ?
C9 H9 0.9500 . ?
C10 C11 1.397(3) . ?
C11 C12 1.385(2) . ?
C11 H11 0.9500 . ?
C12 H12 0.9500 . ?
