#------------------------------------------------------------------------------
#$Date: 2020-03-25 01:47:21 +0200 (Wed, 25 Mar 2020) $
#$Revision: 249663 $
#$URL: file:///home/coder/svn-repositories/cod/cif/4/13/45/4134529.cif $
#------------------------------------------------------------------------------
#
# This file is available in the Crystallography Open Database (COD),
# http://www.crystallography.net/
#
# All data on this site have been placed in the public domain by the
# contributors.
#
data_4134529
loop_
_publ_author_name
'Ding, Qingran'
'Liu, Xiaomeng'
'Zhao, Sangen'
'Wang, Yusong'
'Li, Yanqiang'
'Li, Lina'
'Liu, Shuai'
'Lin, Zheshuai'
'Hong, Maochun'
'Luo, Junhua'
_publ_section_title
;
 Designing a Deep-UV Nonlinear Optical Fluorooxosilicophosphate.
;
_journal_name_full               'Journal of the American Chemical Society'
_journal_paper_doi               10.1021/jacs.0c00060
_journal_year                    2020
_chemical_formula_moiety         'Cs F O7 P2 Si'
_chemical_formula_sum            'Cs F O7 P2 Si'
_chemical_formula_weight         353.94
_space_group_crystal_system      monoclinic
_space_group_IT_number           4
_space_group_name_Hall           'P 2yb'
_space_group_name_H-M_alt        'P 1 21 1'
_atom_sites_solution_primary     iterative
_audit_creation_date             2019-12-10
_audit_creation_method
;
Olex2 1.2
(compiled 2018.05.29 svn.r3508 for OlexSys, GUI svn.r5506)
;
_cell_angle_alpha                90
_cell_angle_beta                 99.77(3)
_cell_angle_gamma                90
_cell_formula_units_Z            2
_cell_length_a                   4.5525(9)
_cell_length_b                   7.9999(16)
_cell_length_c                   9.5565(19)
_cell_measurement_reflns_used    3113
_cell_measurement_temperature    200(2)
_cell_measurement_theta_max      33.68
_cell_measurement_theta_min      3.34
_cell_volume                     343.00(12)
_computing_molecular_graphics    'Olex2 (Dolomanov et al., 2009)'
_computing_publication_material  'Olex2 (Dolomanov et al., 2009)'
_computing_structure_refinement  'olex2.refine (Bourhis et al., 2015)'
_computing_structure_solution    'olex2.solve (Bourhis et al., 2015)'
_diffrn_ambient_temperature      200
_diffrn_measured_fraction_theta_full 0.999
_diffrn_measured_fraction_theta_max 0.912
_diffrn_measurement_device_type  'Bruker APEX-II CCD'
_diffrn_measurement_method       '\f and \w scans'
_diffrn_radiation_type           MoK\a
_diffrn_radiation_wavelength     0.71073
_diffrn_reflns_av_R_equivalents  0.0381
_diffrn_reflns_av_unetI/netI     0.0659
_diffrn_reflns_Laue_measured_fraction_full 0.999
_diffrn_reflns_Laue_measured_fraction_max 0.912
_diffrn_reflns_limit_h_max       7
_diffrn_reflns_limit_h_min       -7
_diffrn_reflns_limit_k_max       12
_diffrn_reflns_limit_k_min       -11
_diffrn_reflns_limit_l_max       14
_diffrn_reflns_limit_l_min       -15
_diffrn_reflns_number            5925
_diffrn_reflns_point_group_measured_fraction_full 0.999
_diffrn_reflns_point_group_measured_fraction_max 0.912
_diffrn_reflns_theta_full        25.242
_diffrn_reflns_theta_max         35.633
_diffrn_reflns_theta_min         3.341
_diffrn_standards_number         0
_exptl_absorpt_coefficient_mu    6.058
_exptl_absorpt_correction_type   none
_exptl_crystal_colour            colourless
_exptl_crystal_colour_primary    colourless
_exptl_crystal_density_diffrn    3.427
_exptl_crystal_description       plate
_exptl_crystal_F_000             328
_exptl_crystal_size_max          0.12
_exptl_crystal_size_mid          0.09
_exptl_crystal_size_min          0.08
_refine_diff_density_max         1.436
_refine_diff_density_min         -1.518
_refine_diff_density_rms         0.346
_refine_ls_abs_structure_details
;
 Refined as an inversion twin.
;
_refine_ls_abs_structure_Flack   0.12(4)
_refine_ls_extinction_method     none
_refine_ls_goodness_of_fit_ref   1.084
_refine_ls_hydrogen_treatment    undef
_refine_ls_matrix_type           full
_refine_ls_number_parameters     110
_refine_ls_number_reflns         2685
_refine_ls_number_restraints     7
_refine_ls_restrained_S_all      1.083
_refine_ls_R_factor_all          0.0650
_refine_ls_R_factor_gt           0.0495
_refine_ls_shift/su_max          0.000
_refine_ls_shift/su_mean         0.000
_refine_ls_structure_factor_coef Fsqd
_refine_ls_weighting_details
'w=1/[\s^2^(Fo^2^)+(0.0347P)^2^+3.6824P] where P=(Fo^2^+2Fc^2^)/3'
_refine_ls_weighting_scheme      calc
_refine_ls_wR_factor_gt          0.1073
_refine_ls_wR_factor_ref         0.1163
_reflns_Friedel_coverage         0.891
_reflns_Friedel_fraction_full    1.000
_reflns_Friedel_fraction_max     0.912
_reflns_number_gt                2305
_reflns_number_total             2685
_reflns_threshold_expression     'I > 2\s(I)'
_iucr_refine_instructions_details
;

    sph.res created by SHELXL-2014/7

TITL sph in P2(1)
CELL 0.71073 4.5525 7.9999 9.5565 90 99.772 90
ZERR 2 0.0009 0.0016 0.0019 0 0.03 0
LATT -1
SYMM -X,0.5+Y,-Z
SFAC Cs F O P Si
UNIT 2 2 14 4 2
ISOR 0.005 0.01 O2
 
L.S. 99
PLAN  5
SIZE 0.12 0.09 0.08
TEMP 173
GRID
fmap 2
acta
MERG 2
TWIN -1 0 0 0 -1 0 0 0 -1 2
REM <olex2.extras>
REM <HklSrc "%.\\sph.hkl">
REM </olex2.extras>
 
WGHT    0.034700    3.682400
BASF   0.11995
FVAR       0.74957
CS1   1    0.364115    0.054840    0.111095    11.00000    0.01922    0.02111 =
         0.02476    0.00018    0.00567    0.00070
P2    4    0.286744    0.514297    0.225928    11.00000    0.00370    0.00721 =
         0.00860   -0.00078    0.00238    0.00082
SI1   5    0.821565    0.721359    0.359422    11.00000    0.00248    0.00564 =
         0.01035    0.00108    0.00344    0.00015
P1    4    0.622154    0.402943    0.484182    11.00000    0.00257    0.00563 =
         0.00970    0.00015    0.00303    0.00064
O5    3    0.028271    0.558410    0.300233    11.00000    0.00744    0.01075 =
         0.01690   -0.00354    0.00721    0.00174
O4    3    0.873215    0.279030    0.507724    11.00000    0.00605    0.00631 =
         0.01103    0.00090   -0.00049    0.00081
O3    3    0.464024    0.367645    0.325878    11.00000    0.00814    0.00717 =
         0.00819   -0.00064    0.00446    0.00025
O1    3    0.712118    0.584780    0.488544    11.00000    0.00706    0.00823 =
         0.00651   -0.00069    0.00287   -0.00341
O7    3    0.198850    0.439285    0.081277    11.00000    0.00612    0.01420 =
         0.01364   -0.00400   -0.00136    0.00136
O6    3    0.507718    0.659514    0.230990    11.00000    0.00371    0.01275 =
         0.01102    0.00204    0.00186   -0.00030
O2    3    0.401571    0.382166    0.584411    11.00000    0.00583    0.00596 =
         0.01233   -0.00019    0.00563   -0.00177
F1    2    0.921561    0.854003    0.242485    11.00000    0.00669    0.01167 =
         0.01026    0.00343    0.00607    0.00312
HKLF 4
 
REM  sph in P2(1)
REM R1 =  0.0495 for    2305 Fo > 4sig(Fo)  and  0.0650 for all    2685 data
REM    110 parameters refined using      7 restraints
 
END  
     
WGHT      0.0347      3.6824 

REM Highest difference peak  1.436,  deepest hole -1.518,  1-sigma level  0.346
Q1    1   0.2463  0.5217  0.1838  11.00000  0.05    1.44
Q2    1   0.5755  0.4419  0.4792  11.00000  0.05    1.43
Q3    1   0.8706  0.6885  0.3768  11.00000  0.05    1.41
Q4    1   0.2315  0.5218  0.2551  11.00000  0.05    1.41
Q5    1   0.7757  0.7624  0.3494  11.00000  0.05    1.39

  REM The information below was added by Olex2.
  REM
  REM R1 = 0.0495 for 2305 Fo > 4sig(Fo) and 0.0650 for all 5945 data
  REM n/a parameters refined using n/a restraints
  REM Highest difference peak 1.44, deepest hole -1.52
  REM Mean Shift 0, Max Shift 0.000.

  REM +++ Tabular Listing of Refinement Information +++
  REM R1_all = 0.0650
  REM R1_gt = 0.0495
  REM wR_ref = 0.1163
  REM GOOF = 1.084
  REM Shift_max = 0.000
  REM Shift_mean = 0
  REM Reflections_all = 5945
  REM Reflections_gt = 2305
  REM Parameters = n/a
  REM Hole = -1.52
  REM Peak = 1.44
  REM Flack = n/a

  
;
_cod_data_source_file            ja0c00060_si_002.cif
_cod_data_source_block           sph
_cod_original_cell_volume        342.99(12)
_cod_database_code               4134529
_shelx_shelxl_version_number     2014/7
_shelx_space_group_comment
;
The symmetry employed for this shelxl refinement is uniquely defined
by the following loop, which should always be used as a source of
symmetry information in preference to the above space-group names.
They are only intended as comments.
;
_shelx_estimated_absorpt_t_max   0.643
_shelx_estimated_absorpt_t_min   0.530
_olex2_refinement_description
;
1. Twinned data refinement
 Scales: 0.88(4)
 0.12(4)
2. Uiso/Uaniso restraints and constraints
Uanis(O2) \\sim Ueq: with sigma of 0.005 and sigma for terminal atoms of 0.01
;
_olex2_submission_special_instructions 'No special instructions were received'
loop_
_space_group_symop_operation_xyz
'x, y, z'
'-x, y+1/2, -z'
loop_
_atom_site_label
_atom_site_type_symbol
_atom_site_fract_x
_atom_site_fract_y
_atom_site_fract_z
_atom_site_U_iso_or_equiv
_atom_site_adp_type
_atom_site_occupancy
_atom_site_site_symmetry_order
_atom_site_calc_flag
_atom_site_refinement_flags_posn
_atom_site_refinement_flags_adp
_atom_site_refinement_flags_occupancy
_atom_site_disorder_assembly
_atom_site_disorder_group
Cs1 Cs 0.36411(14) 0.05484(10) 0.11110(7) 0.02147(17) Uani 1 1 d . . . . .
P2 P 0.2867(5) 0.5143(3) 0.2259(3) 0.0063(4) Uani 1 1 d . . . . .
Si1 Si 0.8216(5) 0.7214(3) 0.3594(3) 0.0059(4) Uani 1 1 d . . . . .
P1 P 0.6222(5) 0.4029(3) 0.4842(3) 0.0057(4) Uani 1 1 d . . . . .
O5 O 0.0283(13) 0.5584(13) 0.3002(7) 0.0111(11) Uani 1 1 d . . . . .
O4 O 0.8732(14) 0.2790(8) 0.5077(7) 0.0080(12) Uani 1 1 d . . . . .
O3 O 0.4640(14) 0.3676(8) 0.3259(7) 0.0075(11) Uani 1 1 d . . . . .
O1 O 0.7121(13) 0.5848(8) 0.4885(7) 0.0071(13) Uani 1 1 d . . . . .
O7 O 0.1988(15) 0.4393(9) 0.0813(8) 0.0117(13) Uani 1 1 d . . . . .
O6 O 0.5077(14) 0.6595(9) 0.2310(8) 0.0091(12) Uani 1 1 d . . . . .
O2 O 0.4016(14) 0.3822(8) 0.5844(7) 0.0076(11) Uani 1 1 d . U . . .
F1 F 0.9216(12) 0.8540(7) 0.2425(6) 0.0090(11) Uani 1 1 d . . . . .
loop_
_atom_site_aniso_label
_atom_site_aniso_U_11
_atom_site_aniso_U_22
_atom_site_aniso_U_33
_atom_site_aniso_U_23
_atom_site_aniso_U_13
_atom_site_aniso_U_12
Cs1 0.0192(3) 0.0211(3) 0.0248(3) 0.0002(3) 0.0057(2) 0.0007(3)
P2 0.0037(8) 0.0072(10) 0.0086(10) -0.0008(7) 0.0024(7) 0.0008(7)
Si1 0.0025(9) 0.0056(10) 0.0104(11) 0.0011(9) 0.0034(8) 0.0002(8)
P1 0.0026(8) 0.0056(10) 0.0097(10) 0.0002(8) 0.0030(7) 0.0006(7)
O5 0.007(2) 0.011(3) 0.017(3) -0.004(4) 0.007(2) 0.002(3)
O4 0.006(3) 0.006(3) 0.011(3) 0.001(2) 0.000(2) 0.001(2)
O3 0.008(3) 0.007(3) 0.008(3) -0.001(2) 0.004(2) 0.000(2)
O1 0.007(2) 0.008(3) 0.007(3) -0.001(2) 0.0029(19) -0.003(2)
O7 0.006(3) 0.014(3) 0.014(3) -0.004(3) -0.001(2) 0.001(2)
O6 0.004(2) 0.013(3) 0.011(3) 0.002(2) 0.002(2) 0.000(2)
O2 0.006(2) 0.006(3) 0.012(3) 0.000(2) 0.006(2) -0.002(2)
F1 0.007(2) 0.012(3) 0.010(3) 0.003(2) 0.0061(19) 0.003(2)
loop_
_atom_type_symbol
_atom_type_description
_atom_type_scat_dispersion_real
_atom_type_scat_dispersion_imag
_atom_type_scat_source
Cs Cs -0.3680 2.1192 'International Tables Vol C Tables 4.2.6.8 and 6.1.1.4'
F F 0.0171 0.0103 'International Tables Vol C Tables 4.2.6.8 and 6.1.1.4'
O O 0.0106 0.0060 'International Tables Vol C Tables 4.2.6.8 and 6.1.1.4'
P P 0.1023 0.0942 'International Tables Vol C Tables 4.2.6.8 and 6.1.1.4'
Si Si 0.0817 0.0704 'International Tables Vol C Tables 4.2.6.8 and 6.1.1.4'
loop_
_geom_angle_atom_site_label_1
_geom_angle_atom_site_label_2
_geom_angle_atom_site_label_3
_geom_angle
_geom_angle_site_symmetry_1
_geom_angle_site_symmetry_3
_geom_angle_publ_flag
P2 Cs1 P2 112.88(6) 2_645 . ?
P2 Cs1 Si1 122.59(6) . 1_545 ?
P2 Cs1 Si1 101.36(5) 2_645 1_545 ?
O3 Cs1 P2 24.57(12) . . ?
O3 Cs1 P2 124.52(12) . 2_645 ?
O3 Cs1 Si1 98.03(13) . 1_545 ?
O3 Cs1 O6 120.76(17) . 1_545 ?
O3 Cs1 O6 112.31(16) . 2_645 ?
O3 Cs1 O2 76.65(17) . 2_646 ?
O7 Cs1 P2 97.61(15) . 2_645 ?
O7 Cs1 P2 21.58(14) 2_645 2_645 ?
O7 Cs1 P2 110.68(15) 2_545 . ?
O7 Cs1 P2 123.72(14) 2_645 . ?
O7 Cs1 P2 21.79(14) . . ?
O7 Cs1 P2 83.88(15) 2_545 2_645 ?
O7 Cs1 Si1 143.88(14) . 1_545 ?
O7 Cs1 Si1 79.99(14) 2_645 1_545 ?
O7 Cs1 Si1 117.79(15) 2_545 1_545 ?
O7 Cs1 O3 46.24(18) . . ?
O7 Cs1 O3 129.54(18) 2_545 . ?
O7 Cs1 O3 125.43(18) 2_645 . ?
O7 Cs1 O7 94.47(13) 2_545 . ?
O7 Cs1 O7 113.98(18) 2_645 . ?
O7 Cs1 O7 96.4(2) 2_545 2_645 ?
O7 Cs1 O6 76.45(18) 2_545 2_645 ?
O7 Cs1 O6 79.29(18) 2_645 1_545 ?
O7 Cs1 O6 44.68(17) 2_645 2_645 ?
O7 Cs1 O6 76.09(18) . 2_645 ?
O7 Cs1 O6 90.87(18) 2_545 1_545 ?
O7 Cs1 O6 164.94(19) . 1_545 ?
O7 Cs1 O2 105.17(18) 2_645 2_646 ?
O7 Cs1 O2 122.19(18) . 2_646 ?
O7 Cs1 O2 122.06(19) 2_545 2_646 ?
O7 Cs1 F1 61.00(17) 2_645 1_545 ?
O7 Cs1 F1 129.79(18) 2_545 1_545 ?
O6 Cs1 P2 94.29(12) 2_645 . ?
O6 Cs1 P2 96.96(12) 1_545 2_645 ?
O6 Cs1 P2 23.52(11) 2_645 2_645 ?
O6 Cs1 P2 144.31(13) 1_545 . ?
O6 Cs1 Si1 27.05(12) 1_545 1_545 ?
O6 Cs1 Si1 124.67(12) 2_645 1_545 ?
O6 Cs1 O6 118.90(17) 1_545 2_645 ?
O2 Cs1 P2 126.75(12) 2_646 2_645 ?
O2 Cs1 P2 100.52(13) 2_646 . ?
O2 Cs1 Si1 26.57(12) 2_646 1_545 ?
O2 Cs1 O6 44.12(17) 2_646 1_545 ?
O2 Cs1 O6 148.91(15) 2_646 2_645 ?
F1 Cs1 P2 119.18(12) 1_545 . ?
F1 Cs1 P2 134.90(13) 1_445 2_645 ?
F1 Cs1 P2 106.79(12) 1_445 . ?
F1 Cs1 P2 82.44(11) 1_545 2_645 ?
F1 Cs1 Si1 23.73(11) 1_545 1_545 ?
F1 Cs1 Si1 73.10(12) 1_445 1_545 ?
F1 Cs1 O3 97.35(16) 1_545 . ?
F1 Cs1 O3 100.42(17) 1_445 . ?
F1 Cs1 O7 129.49(17) 1_445 2_645 ?
F1 Cs1 O7 62.23(18) 1_445 2_545 ?
F1 Cs1 O7 112.95(17) 1_445 . ?
F1 Cs1 O7 135.13(17) 1_545 . ?
F1 Cs1 O6 43.80(15) 1_545 1_545 ?
F1 Cs1 O6 137.93(16) 1_445 2_645 ?
F1 Cs1 O6 104.33(15) 1_545 2_645 ?
F1 Cs1 O6 57.71(15) 1_445 1_545 ?
F1 Cs1 O2 44.64(15) 1_545 2_646 ?
F1 Cs1 O2 62.55(16) 1_445 2_646 ?
F1 Cs1 F1 96.59(16) 1_445 1_545 ?
Cs1 P2 Cs1 86.52(5) . 2 ?
Cs1 P2 Cs1 70.94(4) 2_655 2 ?
Cs1 P2 Cs1 76.81(4) 2_655 . ?
O5 P2 Cs1 80.2(2) . 2 ?
O5 P2 Cs1 147.0(3) . 2_655 ?
O5 P2 Cs1 118.0(4) . . ?
O5 P2 O3 103.8(4) . . ?
O5 P2 O6 111.5(5) . . ?
O3 P2 Cs1 138.8(2) . 2 ?
O3 P2 Cs1 108.5(2) . 2_655 ?
O3 P2 Cs1 54.9(2) . . ?
O7 P2 Cs1 49.0(3) . 2_655 ?
O7 P2 Cs1 51.7(3) . . ?
O7 P2 Cs1 40.9(3) . 2 ?
O7 P2 O5 114.8(4) . . ?
O7 P2 O3 106.2(4) . . ?
O7 P2 O6 113.8(4) . . ?
O6 P2 Cs1 66.4(3) . 2_655 ?
O6 P2 Cs1 129.7(3) . . ?
O6 P2 Cs1 110.9(3) . 2 ?
O6 P2 O3 105.6(4) . . ?
O5 Si1 Cs1 124.6(3) 1_655 1_565 ?
O5 Si1 O4 91.5(3) 1_655 2_756 ?
O5 Si1 O1 89.8(4) 1_655 . ?
O5 Si1 O6 89.0(3) 1_655 . ?
O5 Si1 O2 177.6(4) 1_655 2_656 ?
O4 Si1 Cs1 121.7(2) 2_756 1_565 ?
O4 Si1 O1 86.6(3) 2_756 . ?
O4 Si1 O6 177.8(4) 2_756 . ?
O4 Si1 O2 90.8(3) 2_756 2_656 ?
O1 Si1 Cs1 130.8(2) . 1_565 ?
O1 Si1 O6 91.2(3) . . ?
O6 Si1 Cs1 59.5(2) . 1_565 ?
O2 Si1 Cs1 54.5(2) 2_656 1_565 ?
O2 Si1 O1 89.6(3) 2_656 . ?
O2 Si1 O6 88.7(3) 2_656 . ?
F1 Si1 Cs1 48.4(2) . 1_565 ?
F1 Si1 O5 92.0(4) . 1_655 ?
F1 Si1 O4 92.6(3) . 2_756 ?
F1 Si1 O1 178.1(3) . . ?
F1 Si1 O6 89.6(3) . . ?
F1 Si1 O2 88.7(3) . 2_656 ?
O4 P1 Cs1 99.6(3) . 2_656 ?
O4 P1 O3 103.7(4) . . ?
O4 P1 O1 115.9(4) . . ?
O4 P1 O2 113.8(4) . . ?
O3 P1 Cs1 153.7(2) . 2_656 ?
O1 P1 Cs1 74.0(3) . 2_656 ?
O1 P1 O3 106.0(4) . . ?
O1 P1 O2 107.2(4) . . ?
O2 P1 Cs1 48.0(3) . 2_656 ?
O2 P1 O3 110.0(4) . . ?
P2 O5 Si1 145.6(7) . 1_455 ?
P1 O4 Si1 139.6(5) . 2_746 ?
P2 O3 Cs1 100.5(3) . . ?
P1 O3 Cs1 137.6(3) . . ?
P1 O3 P2 121.9(4) . . ?
P1 O1 Si1 132.7(4) . . ?
Cs1 O7 Cs1 100.3(2) 2_655 . ?
Cs1 O7 Cs1 96.4(2) 2 2_655 ?
Cs1 O7 Cs1 120.9(2) 2 . ?
P2 O7 Cs1 106.5(4) . . ?
P2 O7 Cs1 120.2(4) . 2 ?
P2 O7 Cs1 109.5(4) . 2_655 ?
Cs1 O6 Cs1 87.76(16) 1_565 2_655 ?
P2 O6 Cs1 90.1(3) . 2_655 ?
P2 O6 Cs1 127.5(3) . 1_565 ?
P2 O6 Si1 132.5(5) . . ?
Si1 O6 Cs1 117.7(3) . 2_655 ?
Si1 O6 Cs1 93.4(3) . 1_565 ?
Si1 O2 Cs1 98.9(3) 2_646 2_656 ?
P1 O2 Cs1 111.7(3) . 2_656 ?
P1 O2 Si1 138.3(5) . 2_646 ?
Cs1 F1 Cs1 96.59(16) 1_665 1_565 ?
Si1 F1 Cs1 107.8(3) . 1_565 ?
Si1 F1 Cs1 154.3(3) . 1_665 ?
loop_
_geom_bond_atom_site_label_1
_geom_bond_atom_site_label_2
_geom_bond_distance
_geom_bond_site_symmetry_2
_geom_bond_publ_flag
Cs1 P2 3.869(2) . ?
Cs1 P2 3.840(3) 2_645 ?
Cs1 Si1 3.925(3) 1_545 ?
Cs1 O3 3.219(7) . ?
Cs1 O7 3.072(8) 2_645 ?
Cs1 O7 3.168(7) . ?
Cs1 O7 3.034(7) 2_545 ?
Cs1 O6 3.518(7) 2_645 ?
Cs1 O6 3.389(7) 1_545 ?
Cs1 O2 3.234(7) 2_646 ?
Cs1 F1 3.085(6) 1_545 ?
Cs1 F1 3.013(6) 1_445 ?
P2 Cs1 4.002(3) 2 ?
P2 Cs1 3.840(3) 2_655 ?
P2 O5 1.516(6) . ?
P2 O3 1.637(7) . ?
P2 O7 1.498(8) . ?
P2 O6 1.532(7) . ?
Si1 Cs1 3.925(3) 1_565 ?
Si1 O5 1.757(9) 1_655 ?
Si1 O4 1.777(7) 2_756 ?
Si1 O1 1.781(7) . ?
Si1 O6 1.788(7) . ?
Si1 O2 1.778(7) 2_656 ?
Si1 F1 1.660(6) . ?
P1 Cs1 4.044(3) 2_656 ?
P1 O4 1.501(7) . ?
P1 O3 1.586(7) . ?
P1 O1 1.510(6) . ?
P1 O2 1.510(7) . ?
O5 Si1 1.757(9) 1_455 ?
O4 Si1 1.777(7) 2_746 ?
O7 Cs1 3.072(8) 2_655 ?
O7 Cs1 3.034(7) 2 ?
O6 Cs1 3.389(7) 1_565 ?
O6 Cs1 3.518(7) 2_655 ?
O2 Cs1 3.234(7) 2_656 ?
O2 Si1 1.778(7) 2_646 ?
F1 Cs1 3.013(6) 1_665 ?
F1 Cs1 3.085(6) 1_565 ?
loop_
_refln_index_h
_refln_index_k
_refln_index_l
_refln_F_squared_meas
_refln_F_squared_sigma
-1 0 0 3496.88 98.33
-1 0 0 3308.88 100.81
1 0 0 3369.43 97.53
1 0 0 3344.17 99.92
2 0 0 171.68 11.55
2 0 0 166.49 16.05
2 0 0 183.81 18.6
-2 0 0 155.13 16.05
-2 0 0 158.07 17.72
3 0 0 1192.66 57.31
3 0 0 1178.18 73.72
-3 0 0 1067.36 56.64
-3 0 0 1185.62 64.94
4 0 0 1304.2 74.58
4 0 0 1287.81 58.74
4 0 0 1316.63 67.21
-4 0 0 1328.51 76.88
5 0 0 121.4 22.59
-5 0 0 187.74 38.65
5 0 0 164.36 22.06
-6 0 0 93.33 32.43
6 0 0 70.81 23.86
7 0 0 131.68 29.68
0 -1 0 0.6 1.3
0 -1 0 -0.1 1.1
0 1 0 -0.6 0.6
0 1 0 0.4 1.1
1 -1 0 2315.34 78.43
-1 -1 0 2354.16 77.74
-1 -1 0 2342.94 71.58
1 -1 0 2370.74 65.92
-1 -1 0 2250.61 68.6
-1 -1 0 2374.11 72.97
-1 1 0 2473.59 79.42
1 1 0 2433.48 74.06
1 1 0 2385.73 77.83
2 -1 0 3874.96 115.89
-2 -1 0 3925.38 130.26
2 -1 0 3973.36 132.41
-2 -1 0 3968.18 126.94
2 -1 0 3941.12 107.59
2 1 0 3873.39 125.57
2 1 0 3720.96 127.52
-2 1 0 3942.09 132.61
2 1 0 3961.14 118.83
-3 -1 0 832.93 51.51
3 -1 0 759.05 40.37
3 -1 0 810.65 33.99
3 -1 0 752.29 50.17
-3 -1 0 816.46 50.27
-3 1 0 836.93 53.6
3 1 0 787.52 48.08
3 1 0 760.67 47.6
3 1 0 806.47 41.61
4 -1 0 91.84 13.42
-4 -1 0 94.33 23.17
4 -1 0 102.69 24.27
4 -1 0 100.76 15.54
-4 1 0 82.01 22.89
4 1 0 80.81 16.73
4 1 0 83.57 20.04
5 -1 0 1279.22 64.92
5 -1 0 1234.74 66.95
-5 -1 0 1281.78 81.93
5 1 0 1109.82 64.66
5 1 0 1178.36 72.85
6 -1 0 595.86 46.13
6 -1 0 540.25 43.7
-6 -1 0 521.54 58.05
6 1 0 553.41 49.91
-6 1 0 614.65 65.18
6 1 0 490.33 52.85
-7 -1 0 90.91 42.43
7 -1 0 95.44 29.17
7 1 0 63.65 34.1
0 -2 0 4715.11 127.12
0 -2 0 4595.43 137.15
0 -2 0 4489.67 130
0 2 0 4323.71 126.03
-1 -2 0 2088 75.86
1 -2 0 2229.95 66.97
1 -2 0 2201.31 76.65
-1 -2 0 1948.42 68.45
-1 -2 0 2187.97 75.67
1 2 0 1921.65 81.3
1 2 0 2016.78 75.57
-1 2 0 2091.17 75.96
2 -2 0 556.57 38.22
-2 -2 0 541.3 31.9
2 -2 0 552.09 25.19
-2 -2 0 504.55 25.58
-2 -2 0 544.61 29.37
-2 -2 0 565.42 38.02
2 2 0 547.23 36.95
2 2 0 482.48 31.99
3 -2 0 3649.56 110.96
3 -2 0 3586.83 109.07
3 -2 0 3757.01 141.38
-3 -2 0 3638.86 139.01
-3 -2 0 3558.88 136.74
-3 2 0 3648.8 141.76
3 2 0 3468.86 124.99
3 2 0 3580.2 134.94
4 -2 0 188.8 30.39
4 -2 0 191.17 18.12
4 -2 0 197.22 18.85
-4 -2 0 224.31 29.56
-4 2 0 208.38 31.12
4 2 0 189.89 26.54
4 2 0 156.76 23.16
-5 -2 0 1.23 10.88
5 -2 0 20.88 10
5 2 0 15.18 14.21
-5 2 0 15.7 11.93
6 -2 0 109.7 20.64
6 -2 0 73.69 23.65
-6 -2 0 123.57 32.67
-6 2 0 104.27 30.58
6 2 0 155.74 36.26
6 2 0 110.71 29.33
-7 -2 0 88.83 35.39
7 2 0 21.14 23.36
0 -3 0 -0.69 1.28
0 -3 0 2.76 2.76
0 -3 0 3.55 3.64
0 3 0 -0.79 1.87
-1 -3 0 1319.02 59.66
-1 -3 0 1318.04 62.01
-1 -3 0 1281.2 55.35
1 -3 0 1350.26 59.95
1 -3 0 1397.88 54.27
1 3 0 1423.93 61.32
1 3 0 1479.09 66.52
-2 -3 0 1932.48 73.78
2 -3 0 1979.45 70.01
2 -3 0 1981.08 87.66
-2 -3 0 1889.47 86.22
-2 -3 0 1930.94 72.33
-2 -3 0 2055.54 79.47
-2 3 0 1983.11 87.57
2 3 0 1904.03 84.58
2 3 0 1983.4 86.12
-3 -3 0 1040.64 42.59
-3 -3 0 1001.06 46.73
-3 -3 0 1072.42 65.99
-3 -3 0 1039.23 56.31
3 -3 0 1032.28 65.71
3 -3 0 1032.47 45.5
3 3 0 1061.14 63.73
3 3 0 996.18 61.48
-3 3 0 1093.1 66.84
-4 -3 0 105.35 22.98
4 -3 0 143.49 15.44
4 3 0 121.79 26.79
4 3 0 129.15 24.25
-4 3 0 100.54 28.52
-5 -3 0 180.36 34.14
5 -3 0 194.39 22.21
-5 3 0 132.55 33.88
5 3 0 149.62 32.4
5 3 0 125.85 27.87
-6 -3 0 155.44 35.52
6 -3 0 163.58 28.39
-7 -3 0 57.66 40.43
0 -4 0 2265.81 86.35
0 -4 0 2264.94 81.38
0 -4 0 2156.39 95.3
0 4 0 2493.7 82.26
1 -4 0 576.79 35.06
-1 -4 0 567.11 38.26
1 -4 0 576.11 38.06
-1 -4 0 519.76 34.67
-1 -4 0 553.35 42.13
1 4 0 650.1 45.71
1 4 0 674.7 40.58
-2 -4 0 923.77 57.11
2 -4 0 868.85 44.72
-2 -4 0 841 45.87
-2 -4 0 961.05 56.44
2 -4 0 874.09 55.4
2 4 0 815.16 65.22
2 4 0 890.31 54.82
-3 -4 0 1771.58 78.56
3 -4 0 1835.54 95.86
-3 -4 0 1774.18 94.65
3 -4 0 1908.16 74.1
-3 -4 0 1815.46 78.19
-3 -4 0 1809.24 72.05
3 4 0 1857.3 92.88
3 4 0 1852.09 92.23
4 -4 0 366.41 27.68
-4 -4 0 380.52 36.94
4 4 0 410.72 41.26
4 4 0 388.97 41.62
-5 -4 0 38.12 18.46
5 -4 0 22.85 12.16
5 4 0 45.09 20.01
5 4 0 62.86 24.06
-6 -4 0 71.62 23.85
6 4 0 71.7 26.31
-7 -4 0 91.95 49.75
0 -5 0 5.37 5.56
0 -5 0 4.22 3.84
0 5 0 6.72 3.93
-1 -5 0 982.41 57.35
-1 -5 0 1110.76 67.28
-1 -5 0 1051.31 56.78
1 -5 0 1077.08 64.89
1 -5 0 1072.5 58.69
1 -5 0 1186.26 61.93
1 5 0 1111.72 68.42
1 5 0 1110.38 59.07
-2 -5 0 1933.95 84.4
-2 -5 0 1897.39 94.84
-2 -5 0 1974.93 93.61
2 -5 0 1885.26 93.24
2 -5 0 1977.28 82.05
2 5 0 2073.81 95.49
2 5 0 2057.36 102.64
-3 -5 0 51.53 13.76
-3 -5 0 21.55 11.65
3 -5 0 31.91 14.49
3 -5 0 35.4 12.47
-3 -5 0 57.85 13.48
3 5 0 25.49 13.76
3 5 0 44.75 15.5
-4 -5 0 282.65 23.33
4 -5 0 249.3 26.25
-4 -5 0 275.2 32.11
-4 -5 0 255.42 25.54
4 5 0 364.33 41.87
4 5 0 318.92 58.89
5 -5 0 729.71 46.66
-5 -5 0 538.02 49.81
5 5 0 681.08 60.71
-6 -5 0 316.34 48.26
6 5 0 247.02 46.56
0 -6 0 4779.64 182.84
0 -6 0 4925.16 159.27
0 -6 0 4811.69 167
0 6 0 4883.41 155.79
-1 -6 0 842.65 54.48
1 -6 0 918.6 55.6
1 -6 0 817.23 51.1
-1 -6 0 859.44 53.26
-1 -6 0 836.84 62.54
1 -6 0 899.29 63.48
1 6 0 848.46 52.88
-2 -6 0 34.74 12.29
2 -6 0 74 21.34
2 -6 0 35.66 15.61
2 -6 0 56.35 15.71
-2 -6 0 31.51 13.95
-2 -6 0 35.57 13.49
2 6 0 32.98 13.12
2 6 0 30.21 16.72
-3 -6 0 821.78 65.19
-3 -6 0 785.61 51.13
-3 -6 0 791.56 58.16
3 -6 0 867.4 53.2
3 6 0 866.86 64.02
-4 -6 0 997.12 59.79
-4 -6 0 1108.5 59.35
-4 -6 0 973.2 60.05
4 -6 0 989.96 58.92
4 6 0 1035.26 75.24
-5 -6 0 437.63 44.79
5 -6 0 494 44.29
5 6 0 668.23 61.15
-6 -6 0 8.33 27.96
0 -7 0 -12.1 6
0 -7 0 2.12 6
0 7 0 -7.57 5.17
1 -7 0 2016.78 95.11
-1 -7 0 2039.85 96.58
-1 -7 0 1927.83 94.56
-1 -7 0 2035.25 111.38
1 -7 0 1900.35 92.72
1 -7 0 2020.37 109.45
1 7 0 2127.7 95.2
-1 7 0 2052.07 71.49
2 -7 0 995.99 61.95
-2 -7 0 1000.43 71.09
-2 -7 0 997.35 62.94
-2 -7 0 1011.75 70.37
2 -7 0 997.07 71.73
2 -7 0 987.56 68.47
2 7 0 1014.65 67.2
-3 -7 0 410.2 33.62
-3 -7 0 481.24 42.47
-3 -7 0 419.4 44.49
3 -7 0 416.3 45.38
3 7 0 417.19 45.82
4 -7 0 -1.2 10.97
-4 -7 0 23.83 16.11
-4 -7 0 -6.69 13.89
-4 -7 0 -9.51 11.14
4 7 0 26.06 13.2
-5 -7 0 430.5 44.02
5 7 0 320.6 48.47
0 -8 0 530.18 55.69
0 -8 0 585.06 43.78
0 8 0 560.78 40.26
-1 -8 0 508.36 53.54
-1 -8 0 567.11 47.7
1 -8 0 591.18 57.4
1 -8 0 566.93 47.88
1 -8 0 545.46 46.53
1 8 0 506.47 43.21
-2 -8 0 -4.78 12.85
2 -8 0 13.38 13.73
2 -8 0 10.19 10.63
-2 -8 0 41.1 15.24
2 -8 0 37.83 21.97
2 8 0 8.33 11.78
-3 -8 0 566.5 57.05
-3 -8 0 600.7 52.38
-3 -8 0 583.9 39.66
3 -8 0 637.41 59.91
3 8 0 488.57 52.12
-4 -8 0 287.55 44.74
-4 -8 0 312.9 42.9
4 -8 0 333.47 47.18
-4 -8 0 280 33
4 8 0 364.96 48.27
-5 -8 0 28.86 25.71
5 -8 0 83.58 31.93
0 -9 0 14.88 10.83
0 -9 0 24.65 19.28
0 9 0 15.85 9.86
1 -9 0 84.03 25.33
-1 -9 0 103.23 31.99
-1 -9 0 77.11 18.14
1 9 0 119.44 25.06
-2 -9 0 931.72 77.8
2 -9 0 1050.93 82.56
2 9 0 973.13 69.5
-3 -9 0 206.67 25.71
-3 -9 0 231.86 43.46
3 -9 0 250.04 45.57
3 9 0 170.13 37.97
4 -9 0 152.98 35.13
4 9 0 149.94 35.38
0 -10 0 160.32 29.99
0 -10 0 132.56 35.39
0 10 0 133.07 23.57
-1 -10 0 64.58 25.6
1 -10 0 90.26 33.1
-1 -10 0 27.05 18.86
1 -10 0 90.43 31.14
1 10 0 94.1 30.97
2 -10 0 211.76 44.54
-2 -10 0 172.53 38.4
-2 -10 0 129.5 24.25
2 10 0 156.87 34.36
3 -10 0 61.24 26.21
-3 -10 0 85.97 29.35
3 10 0 52.01 24.15
-4 -10 0 16.5 28.19
4 -10 0 13.77 26.35
0 -11 0 0.58 18.24
0 -11 0 39.06 30.31
0 11 0 25.81 13.74
-1 -11 0 334.14 73.87
1 -11 0 289.86 62.68
-1 -11 0 324.1 48.17
1 11 0 223.69 35.82
-2 -11 0 166.44 45.93
2 -11 0 150.4 44.7
2 11 0 144.42 34.23
-3 -11 0 -1.2 23.1
3 -11 0 9.46 26.87
3 11 0 3.29 24.94
1 12 0 35.56 22.29
2 12 0 51.58 24.88
7 0 -1 116.36 31.71
6 0 -1 13.4 15
6 0 -1 31.44 23.77
-6 0 1 27.64 20.99
-5 0 1 56.26 17.52
5 0 -1 36.54 15.31
5 0 -1 29.73 9.64
5 0 -1 52.98 19.64
4 0 -1 91.44 22.42
-4 0 1 118.75 25.65
4 0 -1 107.68 12.55
4 0 -1 130.01 19.19
3 0 -1 595.03 40.68
-3 0 1 556.44 41.45
3 0 -1 598.46 38.77
-2 0 1 3718.83 123.2
2 0 -1 3771.8 120.94
2 0 -1 3917.82 124.96
1 0 -1 368.55 19.38
-1 0 -1 3119.98 94.97
1 0 1 3261.39 100.73
1 0 1 3439.63 96.46
-1 0 -1 3264.47 92.49
-1 0 -1 3111.05 100.04
1 0 1 3104.3 94.08
-2 0 -1 1721 68.22
2 0 1 1873.35 66.17
2 0 1 1834.51 74.46
-2 0 -1 1767.85 75.24
2 0 1 1746.48 66.85
3 0 1 494.21 39.82
3 0 1 498.48 32.41
-3 0 -1 465.13 34.31
-3 0 -1 503.14 41.05
3 0 1 468.64 33.26
-4 0 -1 615.21 52.07
4 0 1 614.48 42.91
-4 0 -1 626.03 46.66
4 0 1 638.04 42.45
5 0 1 40.13 14.23
-5 0 -1 67.34 42.59
-6 0 -1 13.21 17.97
6 0 1 -0.08 12.37
7 0 1 52.15 23.98
7 -1 -1 157.6 29.43
7 1 -1 174.12 37.89
6 -1 -1 168.65 29.12
-6 -1 1 148.87 34
6 1 -1 113.62 26.09
6 1 -1 138.52 25.08
-5 -1 1 657.72 55.56
5 -1 -1 639.26 59.97
5 -1 -1 626.01 37.46
5 -1 -1 685.98 46.37
-5 1 1 732.36 62.09
5 1 -1 752.76 55.65
-4 -1 1 1876.33 90.93
4 -1 -1 1770.76 92.96
4 -1 -1 1920.92 80.7
-4 1 1 1911.06 96.46
4 1 -1 1779.51 73.33
4 1 -1 1792.87 87.8
4 1 -1 1898.62 90.38
3 -1 -1 14.11 7.63
-3 -1 1 18.97 7.53
3 -1 -1 8.77 5.72
-3 1 1 11.44 6.1
3 1 -1 11.16 6.77
3 1 -1 20.69 7.44
3 1 -1 14.68 6.77
2 -1 -1 1495.24 55.43
2 -1 -1 1546.56 65.89
-2 -1 1 1499.15 59.05
2 1 -1 1328.93 58.46
-2 1 1 1412.43 63.64
2 1 -1 1462.1 51.52
2 1 -1 1477.74 63.25
2 1 -1 1440.68 48.11
-1 -1 1 1727.5 54.88
1 -1 -1 1696.92 62.22
-1 -1 1 1691.96 52.3
-1 -1 1 1632.32 52.89
1 1 -1 1897.9 54.88
1 1 -1 1807.68 63.81
1 1 -1 1839.54 58.55
1 1 -1 1866.53 53.49
0 -1 -1 538.46 24
0 -1 1 526.51 21.61
0 -1 -1 558.17 21.01
0 -1 1 523.13 21.91
0 1 1 428.22 22.11
0 1 1 483.19 20.22
0 1 -1 420.85 20.32
0 1 -1 417.96 17.73
-1 -1 -1 253.04 18.53
1 -1 1 253.13 18.93
-1 -1 -1 237.39 17.24
1 -1 1 249.67 12.48
1 -1 1 258.88 15.36
-1 1 -1 270.57 19.92
1 1 1 234.22 17.54
-1 1 -1 248.48 12.88
-1 1 -1 235.41 13.77
1 1 1 220.64 17.14
-2 -1 -1 1189.49 56.41
2 -1 1 1189.1 45.99
2 -1 1 1224.26 59.24
2 -1 1 1224.75 46.87
-2 -1 -1 1214.63 45.7
-2 -1 -1 1208.88 57.48
-2 1 -1 1203.32 47.94
2 1 1 1192.6 52.42
2 1 1 1204.79 55.44
3 -1 1 2397.52 86.42
3 -1 1 2415.17 85.29
3 -1 1 2434.52 105.02
-3 -1 -1 2373.71 103.6
-3 -1 -1 2241.74 113.75
-3 1 -1 2382.44 90.12
3 1 1 2510.04 98.66
3 1 1 2457.38 93.07
-3 1 -1 2532.14 108.63
-4 -1 -1 786.83 59.04
-4 -1 -1 709.75 53
4 -1 1 773.11 44.95
4 -1 1 731.54 43.4
4 -1 1 737.77 57.03
4 1 1 646.77 50.53
4 1 1 747.01 51.08
-4 1 -1 707.19 58.04
5 -1 1 50.76 13.33
-5 -1 -1 49.97 20.52
5 -1 1 58.92 17.27
-5 1 -1 59 22.54
5 1 1 39.9 15.96
5 1 1 44.89 17.71
6 -1 1 102.24 26.29
-6 -1 -1 112.92 33.8
6 -1 1 120.35 23.96
-6 1 -1 138.96 37.48
6 1 1 112.59 28.3
6 1 1 107.66 24.04
7 1 1 109.15 35.49
7 2 -1 146.44 35.2
-6 -2 1 306.85 43.16
6 -2 -1 278.69 30.43
6 2 -1 220.6 38.89
6 2 -1 297.88 41.24
5 -2 -1 26.91 10.73
-5 -2 1 17.33 15.83
-5 2 1 33.69 16.36
5 2 -1 36.06 13.72
5 2 -1 33.16 13.9
4 -2 -1 349.75 39.34
4 -2 -1 357.27 27.42
-4 -2 1 406.33 35.95
4 2 -1 376.07 37.88
4 2 -1 394.78 32.19
-4 2 1 420.08 43.01
-3 -2 1 1621.24 73.91
3 -2 -1 1653.41 84.25
3 -2 -1 1716.79 65.28
-3 2 1 1837.67 88.14
3 2 -1 1888.33 75.43
3 2 -1 1886.15 85.87
-2 -2 1 1098.43 42.71
2 -2 -1 1218.28 59.24
2 -2 -1 1211.48 41.84
-2 -2 1 1082.77 39.79
-2 -2 1 1089.09 46.31
2 2 -1 1082.57 51.17
2 2 -1 1057.96 55.54
2 2 -1 1008.83 44.75
-1 -2 1 3024.51 81.66
-1 -2 1 2882.91 97.27
1 -2 -1 3046.14 99.94
1 -2 -1 3152.1 82.36
-1 -2 1 2904.34 90.85
1 2 -1 2988.48 92.82
1 2 -1 2808.65 98.16
1 2 -1 2847.36 99.24
0 -2 1 5465.73 152.15
0 -2 -1 5401.86 158.11
0 -2 -1 5175.7 148.1
0 -2 1 5113.8 144.43
0 2 1 5349.58 157.61
0 2 -1 5273.21 150.77
0 2 1 5418.02 147.9
1 -2 1 8285.72 228.51
-1 -2 -1 8377.59 237.78
1 -2 1 8388.54 237.88
-1 -2 -1 8106.99 237.09
1 2 1 8243.42 239.56
-1 2 -1 8428.27 237.49
1 2 1 8660.42 237.49
-1 2 -1 8534.73 226.74
-2 -2 -1 936.29 44.99
-2 -2 -1 948.8 52.35
-2 -2 -1 940.37 49.15
2 -2 1 888.21 40.34
2 -2 1 944.44 53.13
2 2 1 970.72 51.58
2 2 1 1010.86 50.9
-2 2 -1 1005.72 54.87
3 -2 1 44.47 10.76
-3 -2 -1 26.16 11.14
-3 -2 -1 42.68 9.06
3 -2 1 45.23 8.88
-3 -2 -1 34.28 6.61
3 -2 1 34.09 12.75
-3 -2 -1 57.02 14.16
-3 2 -1 46.36 14.73
3 2 1 54.85 13.6
3 2 1 28.61 10.86
-4 -2 -1 2565.8 117.83
4 -2 1 2507.56 122.21
-4 -2 -1 2592.23 119.56
4 -2 1 2591.86 97.05
4 -2 1 2435.11 88.94
-4 2 -1 2538.18 123.3
4 2 1 2620.38 110.72
4 2 1 2775.39 116.92
5 -2 1 503.03 34.57
5 -2 1 526.6 41.39
-5 -2 -1 587.45 56.04
5 2 1 604.3 50.63
-5 2 -1 569.55 58.75
5 2 1 472.31 46.27
-6 -2 -1 53.86 25.94
6 -2 1 82.38 18.12
6 -2 1 44.3 27.43
-6 2 -1 88.44 30.26
6 2 1 105.07 26.35
7 2 1 82.12 30.16
-6 -3 1 226.7 37.22
6 3 -1 333.6 51.28
6 3 -1 283.98 41.87
5 -3 -1 1654.53 67.06
-5 -3 1 1633.92 89.33
5 3 -1 1689.11 88.89
5 3 -1 1713.12 98.15
-4 -3 1 524.55 41.41
4 -3 -1 555.86 29.03
4 -3 -1 465.49 50.59
4 3 -1 471.23 44.6
4 3 -1 482.24 40.59
-3 -3 1 629.24 28.24
-3 -3 1 675.75 40.48
3 -3 -1 699 32.38
3 -3 -1 699.28 51.67
3 3 -1 736.55 51.67
3 3 -1 663.98 45.37
-2 -3 1 914.34 45.74
-2 -3 1 812.15 39.08
2 -3 -1 864.93 51.71
-2 -3 1 845.73 37.44
2 3 -1 834.15 49.3
2 3 -1 804.53 49.98
1 -3 -1 6366.58 161.98
-1 -3 1 6165.33 177.84
1 -3 -1 6216.93 183.13
-1 -3 1 5774.48 185.19
1 3 -1 5793.68 177.26
1 3 -1 6003.45 189.4
1 3 -1 5839.21 182.15
0 -3 -1 987.6 51.64
0 -3 1 961.24 40.24
0 -3 1 1026.66 46.53
0 -3 -1 1011.51 43.29
0 3 1 1079.87 43.29
0 3 -1 1007.28 41.91
0 3 1 1095.12 53.51
0 3 -1 1041.11 46.14
1 -3 1 220.95 19.16
-1 -3 -1 223.3 21.22
1 -3 1 198.07 19.75
-1 -3 -1 224.67 22.78
1 3 1 262.89 25.13
-1 3 -1 234.05 18.48
-1 3 -1 245.48 21.8
1 3 1 207.95 20.53
2 -3 1 1979.87 73.95
2 -3 1 2034.02 89.34
-2 -3 -1 1862.07 80.1
-2 -3 -1 1808.89 73.56
-2 -3 -1 1878.03 86.93
2 3 1 2065.18 88.28
-2 3 -1 2138.45 90.3
2 3 1 2020.07 86.74
-3 -3 -1 381.52 29.23
-3 -3 -1 362.97 24.64
-3 -3 -1 318.67 31.57
-3 -3 -1 382.83 37.19
3 -3 1 341.52 35.88
3 -3 1 341.14 25.86
3 3 1 388.92 36.07
-3 3 -1 439.12 40.84
3 3 1 438.65 37
-4 -3 -1 469.12 45.67
4 -3 1 555.59 36.45
-4 3 -1 533.7 51.73
4 3 1 534.06 45.85
4 3 1 606.05 49.83
-5 -3 -1 123.96 27.65
5 3 1 122.66 27.13
5 3 1 110.52 36.15
-5 3 -1 87.55 28.35
-6 -3 -1 1269.22 89.67
6 -3 1 1145.68 74.64
6 3 1 1217.36 84.14
-6 3 -1 1310.5 105.03
-6 -4 1 188.14 35.31
6 4 -1 323.16 45.53
-5 -4 1 56.71 17.38
5 -4 -1 49.71 10.55
5 4 -1 68.13 23.69
5 4 -1 63.98 27.24
4 -4 -1 757.97 40.35
-4 -4 1 699.61 48.35
4 4 -1 818.3 59.34
4 4 -1 832.17 62.85
-3 -4 1 1820.95 69.26
-3 -4 1 1901.86 76.62
-3 -4 1 1933.51 76.15
3 -4 -1 1850 70.47
3 -4 -1 1649.66 92.07
3 4 -1 1765.57 90.3
3 4 -1 1773.29 92.35
-2 -4 1 1114.36 58.76
-2 -4 1 1084.88 44.37
2 -4 -1 1079.25 62.2
-2 -4 1 1105.48 52.85
2 -4 -1 1086.51 49.32
2 4 -1 970.31 65.25
2 4 -1 977.18 59.14
1 -4 -1 166.22 19.46
-1 -4 1 133.7 19.75
1 -4 -1 158.86 12.59
-1 -4 1 161.38 17.62
1 -4 -1 162.35 20.72
-1 4 1 158.86 11.72
1 4 -1 170.38 19.56
0 -4 1 1785.02 71.95
0 -4 -1 1765.19 80.9
0 -4 -1 1786.77 67.57
0 -4 1 1729.79 80.9
0 4 1 1608.63 77.79
0 4 -1 1657.64 64.66
0 4 1 1616.32 64.37
1 -4 1 6402.54 196.97
1 -4 1 6672.08 194.26
-1 -4 -1 6449.21 212.91
-1 -4 -1 6316.81 199.09
1 4 1 6072.58 207.6
1 4 1 6249.35 196.97
2 -4 1 863.08 46.22
-2 -4 -1 960.16 55.62
2 -4 1 877.72 55.53
-2 -4 -1 871.83 47.07
-2 -4 -1 854.04 55.14
2 4 1 899.21 55.14
2 4 1 871.54 58.19
-2 4 -1 831.7 54.38
3 -4 1 557.19 38.55
-3 -4 -1 545.52 48.27
-3 -4 -1 535.79 41.42
3 -4 1 529.95 48.17
-3 -4 -1 542.27 34.93
-3 -4 -1 587.4 41.33
-3 4 -1 559.05 48.36
3 4 1 494.01 45.03
3 4 1 570.63 46.51
4 -4 1 1599.96 73.03
-4 -4 -1 1600.58 94.61
-4 -4 -1 1669.77 87.44
-4 4 -1 1511.8 94.25
4 4 1 1480.47 88.07
4 4 1 1510.63 89.06
-5 -4 -1 652.25 58.28
5 -4 1 632.26 48.32
5 4 1 688.39 94.25
5 4 1 758.6 63.34
-5 4 -1 754.48 69.87
-6 -4 -1 -12.76 21.76
6 4 1 18.16 24.71
6 5 -1 109.88 31.55
-5 -5 1 323.74 34.67
5 -5 -1 298.89 28.52
5 5 -1 290.28 41.33
-4 -5 1 633.5 42.92
4 -5 -1 597.68 38.93
4 5 -1 553.7 73.04
4 5 -1 618.57 57.85
-3 -5 1 40.58 12.58
3 -5 -1 49.48 11.75
-3 -5 1 31.86 10.83
3 -5 -1 36.91 21.3
-3 -5 1 17.9 8.17
3 5 -1 28.74 14.23
3 5 -1 43.34 14.6
-2 -5 1 1957.93 91.97
2 -5 -1 1921.92 91.03
2 -5 -1 1904.99 91.69
2 -5 -1 1948.33 91.03
2 5 -1 1821.67 90.27
2 5 -1 1643.76 92.34
1 -5 -1 2368 125.08
1 -5 -1 2184.73 100.84
-1 -5 1 2382.5 105.71
1 -5 -1 2216.79 95.31
-1 -5 1 2278.22 92.73
1 -5 -1 2247.59 75.46
1 5 -1 2215.35 93.88
-1 5 1 2161.26 72.03
0 -5 1 938.51 47.72
0 -5 -1 980.48 54.13
0 -5 -1 1037.58 63.81
0 -5 1 980 63.23
0 -5 -1 1026.85 50.87
0 -5 1 1044.38 55.57
0 5 -1 1077.63 50.3
0 5 1 1102.16 50.59
-1 -5 -1 29.62 8.95
-1 -5 -1 62.95 18
1 -5 1 49.62 13.81
1 -5 1 46.77 13.05
1 5 1 31.05 13.72
1 5 1 46.39 13.15
-2 -5 -1 650.4 49.67
2 -5 1 638.87 42.56
2 -5 1 667.83 49.3
-2 -5 -1 624.15 47.89
-2 -5 -1 662.58 43.4
2 5 1 633.99 51.83
2 5 1 594.16 46.5
-3 -5 -1 1111.02 58.2
-3 -5 -1 1051.89 63.68
3 -5 1 1138.34 59.76
-3 -5 -1 1078.03 62.04
3 5 1 1125 72.18
3 5 1 1064.05 73.55
-4 -5 -1 199.98 21.55
-4 -5 -1 187 25.35
-4 -5 -1 174.63 28.53
4 -5 1 243.97 28.09
4 5 1 231.6 33.75
4 5 1 196.89 37.46
-5 -5 -1 103.76 27.47
5 -5 1 70.78 22.21
5 5 1 138.77 31.96
-6 -5 -1 104.31 33.4
6 5 1 72.69 30.49
-6 -6 1 90.56 26.44
6 -6 -1 83.09 27.24
-5 -6 1 112.27 22.46
5 -6 -1 78.12 27.25
5 6 -1 50.37 21.78
-4 -6 1 10.15 9.88
-4 -6 1 4.11 8.92
-4 -6 1 -4.99 8.75
4 -6 -1 22.3 10.15
4 6 -1 14.26 22.13
4 6 -1 -20.38 9.97
-3 -6 1 875.78 52.99
3 -6 -1 861.24 51.91
-3 -6 1 922.28 61.21
-3 -6 1 843.64 43.52
3 -6 -1 820.98 59.32
3 6 -1 858.26 64.37
3 6 -1 935.56 74.58
2 -6 -1 1028.74 66.73
2 -6 -1 1009.88 57.03
-2 -6 1 954.71 58.04
2 -6 -1 990.65 65.34
-2 -6 1 1026.52 68.49
2 6 -1 937.88 63.03
2 6 -1 1149.55 76.35
1 -6 -1 42.47 12.19
-1 -6 1 31.5 13.13
1 -6 -1 23.06 9.94
1 -6 -1 40.59 8.63
-1 -6 1 32.06 10.59
1 -6 -1 24.84 11.63
-1 6 1 50.34 10.13
1 6 -1 24.66 8.72
0 -6 1 186.68 34.08
0 -6 -1 198.07 22.88
0 -6 -1 221.98 22.22
0 -6 1 200.89 20.43
0 -6 1 191.95 23.82
0 -6 -1 194.59 37
0 6 1 144.12 18.26
0 6 -1 145.63 17.98
-1 -6 -1 476.94 38.1
-1 -6 -1 482.37 39.13
1 -6 1 502.59 38.75
1 -6 1 433.32 43.81
-1 -6 -1 422.19 43.43
1 -6 1 472.26 38.28
1 6 1 393.46 42.96
1 6 1 382.79 34.35
-2 -6 -1 752.94 56.38
2 -6 1 619.61 46.06
2 -6 1 743.17 54.36
-2 -6 -1 775.23 57.31
-2 -6 -1 712.67 48.27
2 6 1 713.59 61.73
2 6 1 623.85 50.85
3 -6 1 319.94 32.54
-3 -6 -1 316.88 34.87
-3 -6 -1 283.73 29.84
-3 -6 -1 297.75 30.74
3 6 1 265.48 40.9
3 6 1 256.49 34.96
-4 -6 -1 442.73 41.65
-4 -6 -1 508.11 37.65
-4 -6 -1 485.41 43.82
4 6 1 467.42 49.47
-5 -6 -1 4.43 17.04
5 6 1 18.79 16.54
-6 -6 -1 -10.29 30.62
5 -7 -1 204.13 37.36
-5 -7 1 227.92 31.57
5 7 -1 152.55 36.94
4 -7 -1 461.61 47.48
-4 -7 1 374.8 39.67
-4 -7 1 359.68 30.83
4 -7 -1 384.07 36.58
-4 -7 1 419.96 36.58
4 7 -1 323.02 44.73
3 -7 -1 136.3 30.74
-3 -7 1 62.62 18.69
3 -7 -1 103.18 19.58
-3 -7 1 100.44 16.3
-3 -7 1 115.59 25.51
3 7 -1 82.99 25.16
2 -7 -1 273.37 29.54
2 -7 -1 215.57 32.35
-2 -7 1 246.91 30.63
-2 -7 1 256.61 44.49
2 7 -1 283.61 34.16
-1 -7 1 831.19 44.47
1 -7 -1 919.1 59.34
1 -7 -1 863.25 65.59
1 -7 -1 905.04 57.6
-1 -7 1 950.34 60.99
-1 -7 1 849.1 67.24
1 7 -1 906.24 57.41
-1 7 1 900.08 42.26
0 -7 1 199.43 38.1
0 -7 1 201.64 22.69
0 -7 -1 189.93 30.07
0 -7 -1 180.89 22.05
0 7 -1 209.48 22.6
0 7 1 241.21 24.54
-1 -7 -1 731.46 54.57
1 -7 1 877.38 67.04
1 -7 1 784.38 53.84
1 -7 1 801.62 56.04
-1 -7 -1 837.76 65.58
-1 -7 -1 794.56 55.03
1 7 1 792.45 53.65
-2 -7 -1 621.3 47.6
-2 -7 -1 591.03 65.04
2 -7 1 531.33 49.14
2 -7 1 603.32 47.06
-2 -7 -1 606.3 55.01
2 -7 1 598.08 56.72
2 7 1 610.19 51.3
-3 -7 -1 405.41 43.83
3 -7 1 390.79 40.48
-3 -7 -1 440.51 42.24
-3 -7 -1 422.87 38.89
3 7 1 379.06 43.3
-4 -7 -1 225.55 30.48
-4 -7 -1 223.59 33.04
-4 -7 -1 168.02 33.38
4 7 1 208.06 41.07
-5 -7 -1 82.57 26.68
5 7 1 135.27 33.9
5 -8 -1 -16.77 18.96
-4 -8 1 223.39 34.82
4 -8 -1 286.22 44.66
-4 -8 1 270.58 39.79
4 8 -1 347.79 45.92
-3 -8 1 537.25 55.39
3 -8 -1 514.11 55.65
3 8 -1 591.77 55.21
2 -8 -1 228.9 35.19
-2 -8 1 173.6 36.07
2 -8 -1 170.24 38.29
-2 -8 1 178.3 32.79
2 -8 -1 176.26 33.24
2 8 -1 192.92 28.98
1 -8 -1 380.14 38.62
1 -8 -1 408.52 41.22
-1 -8 1 337.21 28.02
1 -8 -1 326.97 42.75
-1 -8 1 339.91 39.07
-1 -8 1 373.41 45.89
1 8 -1 389.57 37
-1 8 1 367.57 26.67
0 -8 1 738.88 47.87
0 -8 1 769.53 66.27
0 -8 -1 676.84 62.66
0 -8 -1 733.83 49.68
0 8 1 744.56 47.33
0 8 -1 721.75 46.16
1 -8 1 890.57 63.66
1 -8 1 975.49 77.38
-1 -8 -1 967.69 76.13
-1 -8 -1 845.3 60.43
-1 -8 -1 946.79 64.11
1 -8 1 960.51 61.87
1 8 1 878.29 58.73
-2 -8 -1 85.26 23.42
-2 -8 -1 137.74 30.93
-2 -8 -1 138.89 28.45
2 -8 1 140.66 33.75
2 -8 1 74.04 23.77
2 8 1 149.49 29.51
-3 -8 -1 21.58 17.44
-3 -8 -1 19.33 11.82
3 -8 1 37.46 21.06
-3 -8 -1 9.93 14.93
3 8 1 12.95 13.03
4 -8 1 190.62 38.31
-4 -8 -1 191.71 41.98
-4 -8 -1 278.53 34.38
-4 -8 -1 185.77 49.43
5 -8 1 272.95 45.15
-5 -8 -1 261.44 40.81
5 -9 -1 262.51 45.51
4 -9 -1 264.65 50.23
-4 -9 1 173.8 39.47
4 9 -1 178.65 42.34
3 -9 -1 12.45 14.22
-3 -9 1 12.53 17.02
3 9 -1 15.66 15.15
2 -9 -1 31.31 16.61
-2 -9 1 39.7 22.66
-2 -9 1 28.2 10.03
2 9 -1 44.62 16.61
1 -9 -1 959.06 78.58
-1 -9 1 973.17 81.56
1 9 -1 901.68 61.76
0 -9 1 622.25 44.49
0 -9 -1 534.49 47.66
0 -9 -1 570.64 59.71
0 -9 1 548.82 60.23
0 9 -1 592.7 42.83
0 9 1 603.17 44.58
-1 -9 -1 129.2 25.37
1 -9 1 196.9 43.13
1 -9 1 166.46 33.68
-1 -9 -1 179.06 37.09
1 9 1 151.06 27.99
-2 -9 -1 834.91 71.92
2 -9 1 783.87 73.12
2 9 1 787.66 62.26
3 -9 1 425.7 55.72
-3 -9 -1 366.19 37.68
-3 -9 -1 322.69 47.37
3 9 1 506.04 52.18
-4 -9 -1 39.99 26.5
-4 -9 -1 36.23 21.67
4 -9 1 60.75 30.83
4 9 1 56.09 29.11
5 -9 1 157.39 38.44
-4 -10 1 354.28 56.46
3 -10 -1 440.38 57.34
-3 -10 1 411.5 56.93
3 10 -1 344.33 50.58
-2 -10 1 215.9 44.47
2 -10 -1 336.95 59.3
2 10 -1 186.84 36.14
-1 -10 1 67.89 17.06
-1 -10 1 36.51 24.05
1 -10 -1 53.64 24.39
1 10 -1 59.19 18.08
0 -10 -1 720.61 72.42
0 -10 1 795.85 77.47
0 -10 -1 590.83 69.42
0 -10 1 796.88 54.35
0 10 -1 555.74 44.68
0 10 1 657.43 47.08
-1 -10 -1 470.19 60.81
-1 -10 -1 494.64 48.11
1 -10 1 536.55 51.01
1 -10 1 581.76 64.72
1 10 1 451.64 44.03
2 -10 1 111.14 33.86
-2 -10 -1 88.87 25.29
2 10 1 46.11 21.09
-3 -10 -1 57.36 20.96
-3 -10 -1 42.98 28.19
3 -10 1 68.37 29.09
3 10 1 72.81 36.24
4 -10 1 166.2 45.63
-4 -10 -1 127.26 45.95
-4 -11 1 80.38 44.83
-3 -11 1 24.97 29.79
3 -11 -1 26.9 24.81
3 11 -1 -6.74 20.63
-2 -11 1 323.19 57.25
2 -11 -1 244.16 52.17
2 11 -1 234.33 39.4
1 -11 -1 442.22 68.63
-1 -11 1 471.55 104.11
-1 -11 1 287.38 42.1
1 11 -1 432.77 44.67
0 -11 1 179.76 43.67
0 -11 -1 153.47 39.77
0 11 -1 117.13 22.79
0 11 1 141.74 28.95
1 -11 1 19.62 40.56
-1 -11 -1 31.13 23.35
-1 -11 -1 -35.76 29.06
1 11 1 40.73 16.47
-2 -11 -1 708.52 76.13
2 -11 1 736.54 80.21
2 11 1 627.49 59.95
-3 -11 -1 220.71 49.82
2 12 -1 -3.5 28.39
1 12 -1 9.57 23
0 12 -1 4.76 18.56
0 12 1 16.3 20.42
1 12 1 12.29 19.76
2 12 1 15.39 25.06
7 0 -2 48 24.88
6 0 -2 353.72 67.59
5 0 -2 221.28 39.83
-5 0 2 244.38 32.31
5 0 -2 222.87 28.95
4 0 -2 1042.55 61.99
-4 0 2 1288.13 72.42
4 0 -2 1200.03 67.99
3 0 -2 735.9 45.13
-3 0 2 746.59 48.46
3 0 -2 721.02 45.7
2 0 -2 5552.36 167.73
1 0 -2 4944.54 133.84
0 0 -2 10.15 4.08
0 0 2 10.74 4.28
-1 0 -2 9418.45 263.39
-1 0 -2 9381 260.63
1 0 2 9759.49 260.03
-1 0 -2 9857.11 270.9
1 0 2 9879.83 272.19
-2 0 -2 860.94 43.98
2 0 2 857.44 41.94
-2 0 -2 902.2 38.74
2 0 2 903.76 46.31
-2 0 -2 925.2 51.84
-3 0 -2 27.11 10.96
3 0 2 31.55 10.67
-3 0 -2 28.25 12.56
3 0 2 7.94 9.16
4 0 2 646.79 47.18
-4 0 -2 653.99 48.46
4 0 2 667.75 44
-4 0 -2 727.14 59.76
-5 0 -2 2128.37 118.17
5 0 2 1923.94 95.76
5 0 2 1990.31 91.75
-6 0 -2 398.82 58.17
6 0 2 361.24 39.92
7 0 2 -21.61 22.94
7 -1 -2 126.01 29.97
7 1 -2 109.79 30.85
6 -1 -2 142.49 26.55
6 1 -2 154.2 32.36
5 -1 -2 314.29 39.87
5 -1 -2 339.48 31.64
-5 -1 2 249.33 35.09
5 1 -2 244.11 31.91
5 1 -2 253.48 34.47
5 1 -2 286.19 25.9
4 -1 -2 2813.24 109.89
4 -1 -2 2733.1 122.23
-4 -1 2 2951.87 118.18
4 1 -2 2827.79 97.55
4 1 -2 2838.94 119.93
4 1 -2 2865.65 115.69
-3 -1 2 1187.8 59.05
3 -1 -2 1253.52 58.29
3 1 -2 1237.23 58.57
3 1 -2 1218.56 48.76
3 1 -2 1164.85 63.14
3 1 -2 1228.66 44.2
-2 -1 2 852.87 39.92
2 -1 -2 926.46 48.02
2 1 -2 911.72 48.5
2 1 -2 901.18 40.7
2 1 -2 915.72 37.57
2 1 -2 904.11 33.77
1 -1 -2 6448.88 170.43
-1 -1 2 6701.16 171.22
-1 -1 2 6451.75 173.7
1 1 -2 6225.79 172.01
1 1 -2 5640.27 165.38
0 -1 -2 5336.12 152.67
0 -1 2 5049.75 148.8
0 -1 -2 5245.03 147.91
0 1 -2 5318.43 149.79
0 1 2 5377.94 152.77
1 -1 2 150.51 12.03
-1 -1 -2 163.33 15.39
1 -1 2 182.57 17.07
-1 -1 -2 157.12 16.08
1 -1 2 150.02 17.36
-1 1 -2 182.27 17.56
1 1 2 185.92 17.66
-1 1 -2 186.32 13.42
-1 1 -2 171.52 14.4
1 1 2 182.37 15.98
-2 -1 -2 915.55 49.72
2 -1 2 971.28 41.29
2 -1 2 944.62 45.75
2 -1 2 986.79 53.5
-2 -1 -2 939.39 53.5
-2 -1 -2 869.7 43.33
-2 1 -2 985.82 39.16
2 1 2 974 50.2
-2 1 -2 1041.65 56.89
-2 1 -2 926.01 42.94
2 1 2 1017.99 49.72
-3 -1 -2 1598.16 81.39
3 -1 2 1531.01 79.69
3 -1 2 1534.5 67.9
-3 -1 -2 1599.86 54.41
3 -1 2 1466.4 61.77
-3 -1 -2 1578.16 75.54
3 1 2 1369.83 68.94
-3 1 -2 1449.81 79.97
-3 1 -2 1413.6 64.6
3 1 2 1327.68 68.37
-4 -1 -2 282.52 32.48
4 -1 2 267.15 25.2
4 -1 2 247.31 27.84
-4 -1 -2 268.97 35.39
-4 1 -2 311.08 38.66
-4 1 -2 253.59 26.56
4 1 2 229.21 28.47
4 1 2 261.69 30.29
-5 -1 -2 331.8 47.28
-5 -1 -2 271.97 39.11
5 -1 2 243.93 33.44
5 -1 2 316.38 29.87
5 1 2 295.92 38.84
5 1 2 350.43 36.75
-5 1 -2 315.33 44.06
6 -1 2 79.31 34.15
6 -1 2 81.8 19.97
-6 -1 -2 100.28 30.92
-6 1 -2 110.89 34.06
6 1 2 82.87 24.45
7 1 2 182.2 35.78
7 2 -2 339.74 51.18
6 -2 -2 176.91 26.86
6 2 -2 98.44 26.02
6 2 -2 116.82 26.02
-5 -2 2 515.33 45.58
5 -2 -2 459.98 36.08
5 2 -2 608.17 52.53
5 2 -2 529.23 40.13
4 -2 -2 88.75 14.3
-4 -2 2 105.35 21
4 -2 -2 124.88 28.79
4 2 -2 110.94 24.02
4 2 -2 125.52 18.06
3 -2 -2 280.28 22.37
-3 -2 2 281.23 24.36
3 -2 -2 287.77 30.43
3 2 -2 258.1 28.53
3 2 -2 267.68 20.19
3 2 -2 280.28 24.55
3 2 -2 263.41 23.32
-2 -2 2 3289.23 93.8
-2 -2 2 3059.97 93.8
-2 -2 2 2994.43 89.53
2 -2 -2 3056.97 113.71
2 2 -2 3105.9 97.3
2 2 -2 3012.49 92.93
2 2 -2 3043.18 114.1
2 2 -2 2830.23 103.61
-1 -2 2 1503.97 56.42
1 -2 -2 1688.91 54.16
1 -2 -2 1539.81 58.69
-1 -2 2 1477.77 61.94
1 2 -2 1647.15 58.69
0 -2 2 222.57 17.4
0 -2 2 227.71 14.23
0 -2 -2 233.05 17
0 -2 -2 243.33 20.66
0 2 -2 197.57 13.54
0 2 2 218.92 16.41
0 2 2 164.26 32.12
0 2 -2 196.97 16.61
-1 -2 -2 2594.4 92.94
1 -2 2 2667.52 92.84
-1 -2 -2 2686.07 95.89
1 -2 2 2714.03 89.41
-1 2 -2 2515.78 92.16
-1 2 -2 2531.49 85.97
1 2 2 2593.91 91.76
1 2 2 2578.8 96.38
2 -2 2 3216.99 118.83
-2 -2 -2 3437.76 121.72
-2 -2 -2 3204.36 111.5
-2 -2 -2 3003.36 115.65
2 -2 2 3126.81 92.98
2 -2 2 3270.42 106
-2 2 -2 2999.98 95.97
2 2 2 2699.54 131.08
-2 2 -2 2969.59 94.81
-2 2 -2 3108.58 119.89
2 2 2 3035.38 115.36
-3 -2 -2 403.89 36.7
-3 -2 -2 398.82 37.74
3 -2 2 414.4 24.59
3 -2 2 376.67 29.01
3 -2 2 355.45 36.42
-3 -2 -2 379.67 27.22
3 2 2 368.22 33.7
3 2 2 345.5 32.95
-3 2 -2 399.01 26.75
-3 2 -2 427.35 40.65
-4 -2 -2 584.31 53.15
4 -2 2 561.13 40.84
4 -2 2 612.37 34.96
-4 -2 -2 658.01 53.06
-4 2 -2 566.11 52.6
4 2 2 562.12 46.54
4 2 2 474.93 44.19
-5 -2 -2 476.51 52.63
5 -2 2 495.93 33.22
5 -2 2 511.88 42.58
5 2 2 308.27 58.01
-5 2 -2 472.17 54.11
5 2 2 389.53 47.6
6 -2 2 61.66 17.09
-6 -2 -2 84.77 29.97
-6 2 -2 68.18 32.61
6 2 2 121.92 29.22
6 3 -2 80.19 23.68
6 3 -2 44.84 33.1
-5 -3 2 105.37 23.5
5 -3 -2 61.68 14.85
5 3 -2 36.26 15.9
5 3 -2 79.24 18
4 -3 -2 1251.2 81.07
-4 -3 2 1225.92 63.87
4 -3 -2 1285.51 53.59
4 3 -2 1148.2 66.88
4 3 -2 1148.2 75.07
-3 -3 2 3733.67 124.13
3 -3 -2 4104.08 154.4
3 -3 -2 3935.47 118.77
3 3 -2 3707.07 139.74
3 3 -2 3981.27 150.55
-2 -3 2 574.59 24.95
-2 -3 2 604.54 36.12
2 -3 -2 628.61 43.54
2 -3 -2 600.79 34.19
2 -3 -2 575.17 26.78
-2 -3 2 592.31 31.69
2 3 -2 591.35 41.8
2 3 -2 566.02 39.59
2 3 -2 571.89 34.39
1 -3 -2 2981.13 89.36
-1 -3 2 2734.14 97.08
1 -3 -2 2972.05 103.04
-1 -3 2 2882.88 107.53
1 3 -2 2841.57 104.31
1 3 -2 2932.4 99.72
0 -3 2 2041.03 77.62
0 -3 -2 2091.03 74.78
0 -3 -2 2117.48 85.17
0 -3 2 1965.76 67.92
0 3 -2 1944.98 67.33
0 3 2 2079.46 84
0 3 2 2149.14 73.9
0 3 -2 2164.73 78.31
-1 -3 -2 178.22 21.51
1 -3 2 167.8 18.5
1 -3 2 187.76 18.4
-1 -3 -2 185.42 20.05
-1 3 -2 161.09 18.2
1 3 2 182.5 21.32
1 3 2 172.77 18.79
-1 3 -2 167.9 16.74
2 -3 2 145.99 16.84
-2 -3 -2 128.77 19.04
-2 -3 -2 162.92 20
2 -3 2 144.65 21.24
-2 3 -2 121.89 23.54
2 3 2 116.53 18.18
2 3 2 90.69 18.37
-2 3 -2 98.83 11.86
-3 -3 -2 679.17 38.19
-3 -3 -2 741.38 52.52
-3 -3 -2 732.34 45.36
3 -3 2 712.41 53.54
-3 -3 -2 702.45 52.24
3 3 2 664.36 49.45
3 3 2 671.44 51.03
-3 3 -2 716.23 55.41
4 -3 2 393.83 33.17
-4 -3 -2 406.49 42.06
4 3 2 384.57 39.1
4 3 2 376.75 40.45
-4 3 -2 385.56 45.02
5 -3 2 80.08 20.5
-5 -3 -2 86.28 26.35
-5 3 -2 45.63 25.49
5 3 2 90.58 22.65
-6 -3 -2 63.55 25.26
-6 3 -2 22.14 21.24
6 3 2 -0.74 13.7
6 4 -2 219.17 43.35
5 -4 -2 522.93 31.15
-5 -4 2 547.32 44.11
5 4 -2 542.74 53.8
5 4 -2 371.54 49.13
4 -4 -2 245.35 36.38
-4 -4 2 241.39 26.92
4 -4 -2 246.61 19.72
4 4 -2 279.48 34.22
4 4 -2 271.46 36.47
-3 -4 2 550.68 35.16
-3 -4 2 476.1 28.93
-3 -4 2 497.77 29.86
3 4 -2 633.55 47.8
2 -4 -2 3239.35 128.56
2 -4 -2 3149.27 117.6
-2 -4 2 3290.87 122.27
-2 -4 2 3197.93 111.8
2 4 -2 3016.72 177.12
2 4 -2 3371.34 129.03
2 4 -2 3528.84 119.99
1 -4 -2 985.95 49.72
1 -4 -2 1034.99 55.99
-1 -4 2 1028.33 59.76
-1 -4 2 1027.85 51.46
-1 4 2 954.38 40.55
1 4 -2 898.67 51.36
1 4 -2 949.74 55.41
0 -4 -2 122.28 19.09
0 -4 -2 97.37 17.44
0 -4 2 103.87 14.73
0 -4 2 119.85 12.4
0 4 2 111.33 14.24
0 4 -2 110.75 13.28
0 4 2 105.13 20.35
0 4 -2 134.19 16.57
-1 -4 -2 784.04 51.86
-1 -4 -2 767.2 47.73
1 -4 2 834.84 46.87
1 -4 2 789.91 46.1
1 4 2 775.57 52.63
1 4 2 834.56 48.2
-1 4 -2 798.19 45.62
-1 4 -2 808 43.59
2 -4 2 2298.66 100.46
-2 -4 -2 2197.91 100.65
-2 -4 -2 2301.87 99.71
2 -4 2 2342.07 97.44
-2 4 -2 2205.95 100.37
2 4 2 2227.98 98.19
2 4 2 2133.2 103.4
-3 -4 -2 818.75 51.58
3 -4 2 759.89 58.31
-3 -4 -2 805.67 55.54
-3 -4 -2 799.87 45.14
3 -4 2 743.31 47.07
-3 -4 -2 771.32 57.76
-3 4 -2 693.1 56.74
3 4 2 689.33 52.87
3 4 2 739.44 56.83
-4 -4 -2 197.56 29.8
-4 -4 -2 222.29 30.96
4 -4 2 206.54 24.64
-4 -4 -2 200.4 40.3
-4 -4 -2 184.39 19.3
4 4 2 250.57 33.8
-5 -4 -2 110.17 28.4
5 -4 2 109.32 26.44
-5 4 -2 121.86 30.02
5 4 2 105.48 25.75
-6 -4 -2 -23.65 22.02
-6 4 -2 24.62 25.6
6 4 2 27.22 21.29
6 -5 -2 253.8 34.44
6 5 -2 257.15 46.84
5 -5 -2 73.89 18.2
-5 -5 2 44.16 15.72
5 -5 -2 78.59 14.35
5 5 -2 44.5 20.85
4 -5 -2 926.15 55.53
-4 -5 2 910.07 48.24
4 -5 -2 1000.87 49.48
4 5 -2 1008.69 73.12
4 5 -2 805.58 85.03
-3 -5 2 212.52 21.92
-3 -5 2 185.09 23.48
3 -5 -2 225.82 21.01
3 -5 -2 221.87 49.89
3 5 -2 192.79 27.89
3 5 -2 232.96 34.4
-2 -5 2 240.39 28.54
2 -5 -2 253.16 29.29
2 -5 -2 238.42 29.85
2 5 -2 234.3 28.44
1 -5 -2 1352.17 55.75
1 -5 -2 1390.04 74.5
-1 -5 2 1368.64 77.55
-1 -5 2 1361.98 67.17
1 5 -2 1455.98 70.22
-1 5 2 1410.12 54.71
1 5 -2 1397.65 69.27
0 -5 2 3631.39 144.36
0 -5 -2 3387.73 138.83
0 -5 2 3533.24 128.23
0 -5 -2 3429.26 122.12
0 -5 2 3520.92 115.91
0 5 2 3593.29 119.73
0 5 -2 3486.74 118.49
0 5 -2 3610.1 128.81
1 -5 2 101.48 19.54
1 -5 2 73.12 16.5
-1 -5 -2 84.4 20.2
-1 -5 -2 96.83 19.16
1 5 2 128.51 25.23
1 5 2 125.76 18.4
-2 -5 -2 122.83 19.03
-2 -5 -2 174.3 24.81
-2 -5 -2 174.12 24.72
2 -5 2 140.73 19.96
2 -5 2 138.31 26.21
2 5 2 159.47 32.18
-2 5 -2 144.92 22.01
2 5 2 160.78 23.41
-3 -5 -2 810.93 50.15
-3 -5 -2 736.79 55.15
3 -5 2 763.69 50.42
-3 -5 -2 765.5 56.33
3 5 2 826.47 65.6
-3 5 -2 896.88 64.69
3 5 2 921.33 62.78
4 -5 2 198.06 26.16
-4 -5 -2 202.45 29.94
-4 -5 -2 192.88 29.94
-4 -5 -2 182.35 29.85
-4 5 -2 222.99 36.26
4 5 2 110.01 34.68
4 5 2 220 32.4
-5 -5 -2 337.15 45.98
5 5 2 352.23 46.57
-5 5 -2 334.79 47.92
-6 -5 -2 140.22 37.19
6 -6 -2 256.48 53.9
5 -6 -2 359.8 38.63
5 -6 -2 458.41 37.36
5 6 -2 366.7 47.45
-4 -6 2 144.72 19.33
4 -6 -2 179.52 24.92
-4 -6 2 165.27 27.37
4 -6 -2 144.37 23
4 6 -2 167.1 33.76
4 6 -2 106.68 25.45
3 -6 -2 645.85 64.58
3 -6 -2 773.85 55.02
3 -6 -2 797.12 47.98
-3 -6 2 729.38 53.49
-3 -6 2 716.39 47.08
3 6 -2 788.64 61.24
2 -6 -2 1135.16 69.84
-2 -6 2 1035.33 61.35
-2 -6 2 1052.58 69.75
2 -6 -2 1067.99 59.51
2 -6 -2 1096.13 71.41
2 6 -2 1106.28 69.11
-1 -6 2 267.41 18.98
1 -6 -2 349.22 24.31
-1 -6 2 294.52 35.81
-1 -6 2 342.11 31.61
1 -6 -2 320.99 36.56
-1 6 2 267.41 21.32
1 6 -2 300.32 30.58
0 -6 -2 1332.2 80.78
0 -6 2 1311.47 60.79
0 -6 2 1343.18 71.11
0 -6 -2 1357.07 66.7
0 -6 2 1392.81 83.87
0 6 2 1370.76 81.34
0 6 2 1495.82 66.14
0 6 -2 1427.15 64.45
1 -6 2 3608.54 133.18
-1 -6 -2 3439.01 136.45
1 -6 2 3426.9 134.21
-1 -6 -2 3503.13 148.37
1 6 2 3508.82 152.38
1 6 2 3610.5 135.05
-2 -6 -2 858.08 54.82
-2 -6 -2 823.33 61.7
2 -6 2 933.72 61.88
2 -6 2 794.26 54.27
-2 -6 -2 784.82 58.95
2 6 2 767.04 56.38
3 -6 2 16.98 10.91
-3 -6 -2 27.17 11.89
-3 -6 -2 28.34 13.23
-3 -6 -2 32.36 14.03
-3 -6 -2 44.07 15.82
3 -6 2 35.31 19.75
3 6 2 12.87 19.58
3 6 2 28.07 12.87
-4 -6 -2 106.39 24.81
-4 -6 -2 125.84 25.41
4 -6 2 143.81 26.19
-4 -6 -2 69.92 20.4
4 6 2 80.81 19.97
-5 -6 -2 678.66 60.74
5 6 2 719.56 74.11
-6 -6 -2 200.28 47.04
5 -7 -2 282.54 42.08
5 7 -2 298.66 53.74
4 -7 -2 383.59 37.69
4 -7 -2 452.09 47.82
-4 -7 2 407.87 35.2
-4 -7 2 431.23 40.95
4 7 -2 434.92 50.22
-3 -7 2 193.88 27.52
3 -7 -2 169.9 33.89
-3 -7 2 208.39 30
3 -7 -2 150.07 26.55
3 7 -2 143.44 34.69
2 -7 -2 137.49 30.03
2 -7 -2 108.19 22.25
-2 -7 2 174.22 25.06
-2 -7 2 133.97 27.77
2 7 -2 134.51 28.32
1 -7 -2 842.1 58.55
1 -7 -2 796.37 44.08
-1 -7 2 814.7 65.15
1 -7 -2 855.57 65.42
1 -7 -2 785.46 53.33
-1 -7 2 840.36 39.77
-1 -7 2 929.33 59.19
1 7 -2 786.38 54.33
-1 7 2 789.31 41.79
0 -7 2 1454.77 93.59
0 -7 -2 1490.72 91.38
0 -7 2 1502.12 69.87
0 -7 -2 1549.56 74.93
0 7 -2 1600.22 72.17
0 7 2 1647.38 73.82
-1 -7 -2 163.32 34.44
1 -7 2 153.36 32.8
1 -7 2 129.53 25.12
1 -7 2 128.8 24.21
-1 -7 -2 113.82 22.75
1 7 2 150.44 23.66
2 -7 2 297.4 38.21
-2 -7 -2 284.27 38.39
-2 -7 -2 325.35 40.46
2 -7 2 337.4 37.04
2 7 2 343.96 37.49
-3 -7 -2 764.59 62.35
3 -7 2 711.97 55.51
3 7 2 879.74 66.56
-4 -7 -2 373.89 41.59
-4 -7 -2 313.87 41.59
-4 -7 -2 343.75 40.58
4 7 2 415.47 48.97
-5 -7 -2 -26.11 21.78
5 7 2 39.65 19.17
5 -8 -2 428.46 51.8
-4 -8 2 52.22 24.98
-4 -8 2 62.48 24.39
4 -8 -2 161.29 47.51
4 8 -2 59.87 22.54
-3 -8 2 250.2 35.77
3 -8 -2 238.08 35.17
3 8 -2 271.08 37.68
2 -8 -2 997.17 64.67
-2 -8 2 985.75 76.7
-2 -8 2 1175.88 76.7
2 -8 -2 996.55 73.78
2 -8 -2 939.3 73.61
2 8 -2 1006.1 69.63
-1 -8 2 153.81 28.22
-1 -8 2 185.89 38.44
1 -8 -2 184.72 27.59
-1 -8 2 173.52 18.46
1 -8 -2 143.42 19.44
1 -8 -2 158.74 35.21
1 8 -2 181.14 25
-1 8 2 148.8 21.95
0 -8 -2 208.32 26.07
0 -8 2 224.5 32.45
0 -8 2 161.77 33.53
0 -8 -2 160.69 33.44
0 8 -2 185.23 23.55
0 8 2 180.91 24
-1 -8 -2 362.34 44.83
1 -8 2 358.95 37.34
1 -8 2 446.74 44.21
-1 -8 -2 333.13 39.93
1 -8 2 400.75 49.12
-1 -8 -2 333.67 37.69
1 8 2 366 57.42
1 8 2 389.85 36.71
2 -8 2 689.41 76.34
-2 -8 -2 799.25 68.42
-2 -8 -2 739.1 91.38
2 8 2 475 67.98
-3 -8 -2 77.01 23.44
3 8 2 74.61 24.99
-4 -8 -2 551.48 55.47
-4 -8 -2 491.19 48.23
-4 -8 -2 450.77 58.63
4 8 2 562.71 63.21
-5 -8 -2 78.8 32.57
5 -9 -2 52.59 28.96
-4 -9 2 172.79 33.71
4 -9 -2 247.43 44.06
4 9 -2 162.76 38.06
-3 -9 2 390.09 48.8
3 -9 -2 488.2 54.89
3 9 -2 518.91 56.92
2 -9 -2 49.99 22.88
-2 -9 2 82.11 29.62
2 9 -2 45.59 19
1 -9 -2 146.47 32.69
-1 -9 2 155.91 19.23
1 -9 -2 140.18 36.36
-1 -9 2 120.43 32.43
-1 9 2 123.49 20.36
1 9 -2 119.3 25.35
0 -9 2 260.63 49.7
0 -9 -2 363.63 35.86
0 -9 -2 322.87 44.88
0 -9 2 287.63 32.61
0 9 -2 342.59 32.79
0 9 2 339.79 33.84
-1 -9 -2 471.51 48.97
1 -9 2 554.64 49.32
-1 -9 -2 570.75 60.04
1 -9 2 566.14 64.48
1 9 2 602.04 47.31
-2 -9 -2 66.19 22.15
2 -9 2 128.61 35.12
2 9 2 73.31 20.35
3 -9 2 820.71 77.16
-3 -9 -2 633.17 63.32
3 9 2 701.87 62.74
-4 -9 -2 122.46 37.98
-4 -9 -2 187.93 40.34
4 -9 2 261.12 52.12
4 9 2 86.36 28.71
5 -9 2 7.36 47.22
4 -10 -2 167.69 41.38
3 -10 -2 135.37 33.64
-3 -10 2 82.2 31.91
3 10 -2 65.38 23.91
2 -10 -2 984.47 84.44
-2 -10 2 884.46 81.08
2 10 -2 930.22 71.15
1 -10 -2 97.09 29.19
-1 -10 2 100.16 29.79
-1 -10 2 148.99 24.25
1 10 -2 152.4 31.32
-1 10 2 169.5 23.49
0 -10 -2 127.34 38.41
0 -10 -2 96.1 30.04
0 -10 2 60 25.78
0 -10 2 92.52 22.45
0 10 -2 97.3 20.83
0 10 2 79.03 20.14
1 -10 2 125.75 33.18
1 -10 2 78.83 28.43
-1 -10 -2 76.11 24.35
1 10 2 72.12 21.64
-2 -10 -2 23.76 18.74
2 -10 2 19.91 22.25
2 10 2 39.31 19.91
-3 -10 -2 16.68 25.35
3 -10 2 109.5 39.83
-3 -10 -2 32.55 22.57
3 10 2 92.57 27.32
4 -10 2 28.81 30.64
-4 -10 -2 -18.65 29.6
-4 -11 2 55.53 44.9
3 -11 -2 37.55 32.01
-3 -11 2 22.86 26.96
3 11 -2 -15.24 23.99
-2 -11 2 52.42 27.07
2 -11 -2 128.39 38.28
2 11 -2 98.63 30.51
1 -11 -2 88.33 37.06
-1 -11 2 42.01 37.14
1 11 -2 29.69 17.7
0 -11 -2 403.77 86.18
0 -11 2 507.37 103.43
0 -11 2 434.47 50.34
0 11 2 316.27 38.16
0 11 -2 389.26 38.74
1 -11 2 113.09 33.74
-1 -11 -2 110.78 36.13
1 11 2 130.56 30.69
2 -11 2 33.92 28.88
-2 -11 -2 14.32 26.76
2 11 2 -0.49 19.2
2 12 -2 166.09 37.4
1 12 -2 41.89 23.92
0 12 2 46.11 24.55
0 12 -2 73.8 23.58
1 12 2 216.13 38.19
7 0 -3 57.84 18.64
6 0 -3 483.23 46.71
5 0 -3 246.75 44.27
5 0 -3 219.54 30.85
4 0 -3 1089.57 64.33
4 0 -3 1138.35 66.26
3 0 -3 156.79 19.11
3 0 -3 170.86 21.21
2 0 -3 17.72 4.77
2 0 -3 11.19 5.74
-1 0 3 3430.56 103.56
1 0 -3 3613.41 108.39
0 0 3 2342.58 93.56
1 0 3 211.06 17.47
-1 0 -3 196.74 19.43
1 0 3 221.56 21
-1 0 -3 182.41 16.68
-2 0 -3 1200.14 64.65
-2 0 -3 1194.84 53.66
2 0 3 1218.05 61.18
2 0 3 1127.48 52.51
-2 0 -3 1115.63 54.63
3 0 3 3222.32 117.02
-3 0 -3 3264.39 104.09
3 0 3 3279.1 125.55
-3 0 -3 3270.38 126.58
-3 0 -3 3290.25 137.54
4 0 3 376.28 33.15
4 0 3 321.9 36.13
-4 0 -3 367.43 43.27
-4 0 -3 326.78 33.96
5 0 3 305.59 43.14
-5 0 -3 389.1 51.78
5 0 3 326.52 33.72
6 0 3 171.99 30.44
-6 0 -3 96.56 41.29
7 -1 -3 168.04 32.04
7 1 -3 138.39 43.78
6 -1 -3 443.08 41.6
6 1 -3 436.76 47.15
5 -1 -3 104.14 29.74
5 -1 -3 124.35 25.24
5 1 -3 122.76 28.15
5 1 -3 164.15 30.8
5 1 -3 126.11 17.21
4 -1 -3 323.54 36.48
4 -1 -3 321.98 29.87
4 1 -3 266.11 27.66
4 1 -3 237.99 29.96
4 1 -3 222.38 16.82
4 1 -3 217.51 19.57
3 1 -3 4354.4 153.97
3 1 -3 4088.41 127.97
3 1 -3 4206.88 121.7
3 1 -3 4036.86 137.46
2 -1 -3 1668.2 71.9
2 1 -3 1650.71 61.7
2 1 -3 1712.7 58.98
1 -1 -3 768.8 35.45
-1 -1 3 792.93 35.75
1 1 -3 800.11 36.63
-1 1 3 720.56 32.4
0 -1 3 4661.95 139.81
0 -1 -3 4382.54 135.66
0 -1 -3 4570.33 142.18
0 1 -3 4546.33 139.51
0 1 3 4667.48 143.17
0 1 3 4504.96 135.76
1 -1 3 5785.32 169.57
-1 -1 -3 5811.29 173.58
-1 -1 -3 5476.26 167.02
-1 1 -3 5593.81 171.62
-1 1 -3 5415.04 165.16
1 1 3 5279.95 163.88
-1 1 -3 5157.59 158.69
1 1 3 5484.1 172.8
2 -1 3 1224.82 52.9
-2 -1 -3 1267.83 60.02
-2 -1 -3 1263.02 62.62
2 -1 3 1368.83 62.62
-2 -1 -3 1343.34 69.74
2 1 3 1362.19 66.66
-2 1 -3 1312.17 56.46
-2 1 -3 1326.98 69.06
-2 1 -3 1323.52 55.4
2 1 3 1321.4 62.33
3 -1 3 422.06 29.47
-3 -1 -3 411.41 28.44
-3 -1 -3 396.81 35.92
3 -1 3 416.27 34.8
-3 -1 -3 427.68 41.16
3 1 3 420.67 37.51
-3 1 -3 424.78 41.63
-3 1 -3 440.68 24.79
3 1 3 385.78 32.74
-3 1 -3 447.14 33.3
4 -1 3 582.97 38.96
-4 -1 -3 559.16 48.61
4 -1 3 673.34 49.15
-4 -1 -3 540.94 54.2
-4 1 -3 624 44.2
-4 1 -3 576.75 55.91
4 1 3 609.84 45.81
4 1 3 647.09 51.13
-5 -1 -3 170.93 36
5 -1 3 150.38 23.05
-5 -1 -3 139.07 35.14
-5 1 -3 143.82 27.28
-5 1 -3 157.29 37.82
5 1 3 145.37 30.22
5 1 3 128.8 26.76
6 -1 3 48.62 20.78
-6 -1 -3 32.28 34.91
-6 1 -3 102.43 35.24
6 1 3 8.05 16.27
7 2 -3 3.74 22.85
6 -2 -3 311.88 32.79
6 2 -3 178.71 30.19
6 2 -3 250.58 39.08
5 -2 -3 971.3 56.23
5 2 -3 890.55 53.77
5 2 -3 984.92 71.35
4 -2 -3 63.29 15.28
4 -2 -3 120.47 28.63
4 2 -3 60 13.17
4 2 -3 33.76 8.87
4 2 -3 68.14 16.92
3 -2 -3 253.76 29.38
3 2 -3 221.17 20.03
3 2 -3 258.86 28.72
3 2 -3 211.06 18.52
3 2 -3 241.1 22.68
2 -2 -3 2212.51 92.92
-2 -2 3 2270.72 73.1
-2 -2 3 2254.09 75.22
2 -2 -3 2128.48 75.32
2 2 -3 2424.46 80.83
2 2 -3 2355.42 71.36
1 -2 -3 3674.5 114.34
-1 -2 3 3617.88 115.71
1 -2 -3 3836.85 120.12
1 2 -3 3597.89 117.28
-1 2 3 3805.3 115.9
0 -2 -3 1512.51 58.74
0 -2 3 1400.81 58.84
0 -2 -3 1488.54 63.85
0 2 3 1371.14 62.18
0 2 -3 1389.61 51.77
0 2 3 1359.25 55.6
0 2 -3 1368.49 58.15
1 -2 3 120.09 14.82
1 -2 3 96.7 14.33
-1 -2 -3 119.51 15.5
-1 -2 -3 117.46 16.86
1 2 3 127.99 15.4
-1 2 -3 80.32 13.16
-1 2 -3 110.64 14.04
1 2 3 78.66 17.25
-1 2 -3 98.65 10.92
-2 -2 -3 3370.6 139.86
2 -2 3 3487.2 131.43
-2 -2 -3 3430.43 126.74
2 -2 3 3485.28 121.77
2 2 3 3543.19 125.6
-2 2 -3 3530.84 111.04
-2 2 -3 3609.43 135.17
2 2 3 3526.06 132.39
-2 2 -3 3462.21 113.34
-3 -2 -3 1045.38 54.46
-3 -2 -3 1022.01 62.56
3 -2 3 974.62 64.89
3 -2 3 983.46 56.14
3 -2 3 971.08 45.72
-3 -2 -3 1022.47 67.68
-3 2 -3 1023.4 49.71
3 2 3 955.63 62.19
-3 2 -3 1014.46 41.34
-3 2 -3 989.88 67.78
3 2 3 1041.75 60.14
-4 -2 -3 437.43 46.68
4 -2 3 387.51 37.89
4 -2 3 430.33 29.27
-4 2 -3 405.1 33.04
4 2 3 395.5 39.6
4 2 3 391.37 38.43
-4 2 -3 356.44 44.45
5 -2 3 478.22 47.62
5 -2 3 563.07 36.97
-5 -2 -3 602.44 57.68
-5 2 -3 459.66 56.65
5 2 3 504.01 46.76
5 2 3 533.59 58.88
-6 -2 -3 441.17 62.51
6 -2 3 474.71 38.13
6 2 3 403.2 49.17
-6 2 -3 442.23 64.8
6 3 -3 143.27 33.07
5 -3 -3 115.77 19.19
5 3 -3 89.42 25.04
5 3 -3 50.94 19.54
4 -3 -3 551.29 53.19
4 -3 -3 585.61 36.13
4 3 -3 521.78 41.49
4 3 -3 599.67 52.01
3 -3 -3 1200.38 51.08
3 -3 -3 1210.23 71.61
3 3 -3 1154.18 69.45
3 3 -3 1201.13 56.23
3 3 -3 1158.68 63.64
2 -3 -3 300.19 23.98
-2 -3 3 296.83 24.55
-2 -3 3 265.28 20.81
2 -3 -3 267.48 19.76
2 -3 -3 258.18 30.21
2 3 -3 269.79 28.3
2 3 -3 209.94 20.43
-1 -3 3 298.79 27.79
-1 -3 3 289.17 23.52
1 -3 -3 310.07 21.67
1 -3 -3 260.99 24.78
-1 3 3 280.43 23.91
1 3 -3 273.14 23.32
0 -3 3 4750.72 152.67
0 -3 -3 4707.27 149.94
0 -3 3 4999.85 141.28
0 -3 -3 4951.04 162.41
0 3 3 4915.58 161.54
0 3 -3 4710.19 151.99
0 3 -3 4602.24 140.11
0 3 3 4825.15 147.41
-1 -3 -3 1317.43 72.22
1 -3 3 1314.04 61.68
-1 -3 -3 1302.84 63.9
1 -3 3 1292.97 61.87
1 3 3 1277.99 77.34
1 3 3 1464.87 72.22
-1 3 -3 1413.72 64.19
-1 3 -3 1458.39 62.45
-2 -3 -3 505.08 39.6
-2 -3 -3 481.15 39.98
2 -3 3 521.61 41.03
2 3 3 479.06 37.7
-2 3 -3 522.18 42.07
2 3 3 503.66 42.36
-2 3 -3 496.25 31.72
-2 3 -3 504.99 26.21
-3 -3 -3 747.56 56.07
-3 -3 -3 738.23 56.81
3 -3 3 679.11 45.64
-3 -3 -3 739.89 48.87
3 -3 3 653.98 53.3
3 3 3 703.12 51.45
3 3 3 724.93 55.33
-3 3 -3 689.92 54.96
-4 -3 -3 460.5 32.71
-4 -3 -3 449.09 28.34
-4 -3 -3 473.25 48.48
-4 -3 -3 479.31 49.28
4 -3 3 475.83 40.73
-4 3 -3 518.78 57.48
4 3 3 467.81 48.84
4 3 3 449.09 43.05
5 -3 3 286.33 37.48
-5 -3 -3 263.96 42.68
-5 3 -3 258.07 47.63
5 3 3 290.6 37.22
-6 -3 -3 115.26 46.17
-6 3 -3 42.91 29.43
6 4 -3 228.76 42.74
5 4 -3 513.87 53.55
5 4 -3 419.8 49.23
4 -4 -3 359.05 23.63
4 -4 -3 339.1 28.21
4 -4 -3 400.02 46.17
4 4 -3 468.46 47.07
4 4 -3 352.04 38.99
3 -4 -3 576.27 37.92
3 -4 -3 579.7 29.67
-3 -4 3 555.96 31.52
-3 -4 3 595.09 35.51
3 4 -3 584.89 39.4
3 4 -3 528.98 47.18
-2 -4 3 761.68 42.3
2 -4 -3 788.9 36.13
-2 -4 3 801.14 49.69
2 -4 -3 729.44 45.33
2 4 -3 642.48 42.11
2 4 -3 664.01 48.93
-1 -4 3 978.88 51.97
1 -4 -3 1014.71 46.4
1 -4 -3 1073.69 60.04
-1 -4 3 1021.24 62.05
1 4 -3 934.98 59.46
-1 4 3 998.1 54.66
1 4 -3 1079.55 55.04
0 -4 3 664.31 40.84
0 -4 3 735.01 44.41
0 -4 -3 730.19 42
0 -4 -3 725.08 49.21
0 4 3 744.25 40.65
0 4 -3 675 34.68
0 4 3 716.33 48.83
0 4 -3 697.35 42.77
-1 -4 -3 448.76 35.37
-1 -4 -3 447.9 39
1 -4 3 374.88 31.35
1 -4 3 422.2 32.31
-1 4 -3 415.6 32.79
-1 4 -3 443.7 32.69
1 4 3 429.56 33.74
1 4 3 419.42 38.43
-2 -4 -3 2551.57 108.56
-2 -4 -3 2311.17 107.15
2 -4 3 2403.11 98.88
2 -4 3 2341.51 104.33
-2 4 -3 2441.61 91.27
-2 4 -3 2358.69 105.46
2 4 3 2384.05 103.67
2 4 3 2308.36 110.9
-3 -4 -3 902.33 64.34
-3 -4 -3 858.19 57.21
3 -4 3 822.73 52.91
3 4 3 770 61.32
3 4 3 762.87 56.11
-3 4 -3 832.96 61.87
-4 -4 -3 33.08 16.5
4 -4 3 26.11 11.12
-4 -4 -3 46.04 11.91
-4 -4 -3 39.35 13.5
4 4 3 18.09 17.91
-4 4 -3 34.67 17.56
4 4 3 37.94 14.91
-5 -4 -3 658.98 64
-5 4 -3 606.22 63.92
5 4 3 554.13 53.26
-6 -4 -3 164.16 54.69
6 4 3 246.08 43.25
6 5 -3 198.66 43.46
5 -5 -3 131.19 23.89
5 -5 -3 110.55 17.4
5 5 -3 74.89 25.68
4 -5 -3 261.24 22.7
4 -5 -3 210.01 33.51
4 5 -3 329.58 39.54
-3 -5 3 1800.97 74.79
3 -5 -3 1705.98 96.73
-3 -5 3 1816.88 82.29
3 5 -3 1722.25 95.36
-2 -5 3 1474.09 71.8
2 -5 -3 1391.26 79.65
-2 -5 3 1478.58 79.84
2 -5 -3 1464.65 75.82
2 -5 -3 1415.2 55.34
2 5 -3 1576.08 81.33
2 5 -3 1431.75 72.36
1 -5 -3 1008.04 48.09
-1 -5 3 1003.69 65.51
-1 -5 3 930.22 54.34
1 -5 -3 891.59 60.21
1 5 -3 974.91 56.61
-1 5 3 945.75 45.73
1 5 -3 981.07 56.14
0 -5 3 1255.32 54.1
0 -5 -3 1317.59 63.98
0 -5 -3 1339.43 75.47
0 -5 3 1317.59 67.02
0 5 -3 1307.24 66.45
0 5 3 1228.64 73.76
0 5 -3 1236.9 60.09
0 5 3 1264.72 60.37
-1 -5 -3 1523.55 84.23
1 -5 3 1383.73 72.73
1 -5 3 1505.83 71.7
-1 -5 -3 1583.65 78.48
-1 5 -3 1562.36 72.73
-1 5 -3 1545.6 59.54
1 5 3 1556.33 86.3
1 5 3 1559.15 74.62
-1 5 -3 1543.99 73.86
2 -5 3 591.65 44.45
2 -5 3 636.83 48.33
-2 -5 -3 537.66 47.4
-2 -5 -3 692.57 52.96
-2 5 -3 661.92 50.18
2 5 3 610.71 47.49
2 5 3 580.17 53.14
-2 5 -3 645.62 41.39
-3 -5 -3 328.18 36.79
-3 -5 -3 386.88 33.54
3 -5 3 361.18 36.88
-3 -5 -3 413.56 43.1
3 5 3 358.47 38.95
3 5 3 274.36 42.56
-3 5 -3 323.31 41.03
-4 -5 -3 530.69 38.41
4 -5 3 572.4 46.5
-4 -5 -3 512.57 45.54
-4 -5 -3 532.95 52.94
-4 5 -3 590.34 59.39
4 5 3 504.56 49.63
-5 -5 -3 305.69 53.37
-5 5 -3 273.12 50.78
5 5 3 291.33 41.92
-6 -5 -3 44.67 35.12
5 -6 -3 202.92 28.49
5 -6 -3 282.16 34.79
5 6 -3 281.32 43.52
4 -6 -3 796.59 58.45
4 -6 -3 876.69 50.34
4 6 -3 1031.2 75.64
3 -6 -3 366.81 36.51
-3 -6 3 413.92 34.89
-3 -6 3 410.23 40.02
3 6 -3 426.6 44.16
-2 -6 3 453.35 45.4
-2 -6 3 517.03 40.81
2 -6 -3 530.82 47.42
2 -6 -3 470.26 43.01
2 6 -3 481.38 44.02
-1 -6 3 1438.14 74.9
1 -6 -3 1326.76 81.6
1 -6 -3 1381.75 63.18
-1 -6 3 1392.64 86.35
-1 6 3 1555 63.73
1 6 -3 1480.56 75.37
1 6 -3 1496.85 77.13
0 -6 -3 147.67 30.69
0 -6 -3 167.07 21.74
0 -6 3 158.58 32.28
0 -6 3 154.01 18.1
0 -6 3 177.9 24.63
0 6 -3 191.42 22.02
0 6 3 199.73 22.39
0 6 -3 197.86 24.16
0 6 3 225.85 32.28
1 -6 3 134.37 21.3
-1 -6 -3 134.65 29.82
-1 -6 -3 157.7 23.99
1 -6 3 168.72 21.86
-1 6 -3 173.35 22.87
1 6 3 153.25 22.97
-1 6 -3 166.03 16.02
1 6 3 148.81 33.9
2 -6 3 725.67 52.71
-2 -6 -3 708.64 57.53
2 -6 3 705.73 53.71
-2 -6 -3 765.36 59.63
2 6 3 766.91 55.53
3 -6 3 1350.64 84.62
-3 -6 -3 1177.84 77.44
-3 -6 -3 1252.17 70.52
3 -6 3 1266.72 74.33
3 6 3 1251.91 80.54
-3 6 -3 1231.68 82.41
-4 -6 -3 97.49 23.32
-4 -6 -3 39.36 20.49
-4 -6 -3 77.6 24.01
-4 6 -3 40.56 20.41
4 6 3 36.79 18.01
-5 -6 -3 73.17 27.33
5 6 3 17.62 20.17
-6 -6 -3 39.89 43.27
5 -7 -3 71.67 22.38
5 7 -3 59.94 23.12
-4 -7 3 127.65 25.45
4 -7 -3 129.78 28.19
4 -7 -3 129.95 23.13
4 7 -3 122.16 34.01
3 -7 -3 1163.49 65.9
-3 -7 3 1187.85 67.67
-3 -7 3 1146.82 75.08
3 -7 -3 1281.97 79.31
3 7 -3 1163.93 80.99
-2 -7 3 428.01 40.37
2 -7 -3 400.98 43.89
-2 -7 3 350.52 42.53
2 7 -3 362.5 39.47
1 -7 -3 97.95 14.5
1 -7 -3 40.77 17.51
-1 -7 3 80.25 17.97
-1 -7 3 66.57 21.43
1 7 -3 67.67 17.79
-1 7 3 86.27 17.42
0 -7 3 1041.91 52.84
0 -7 -3 1066.41 60.52
0 -7 3 991.35 75.24
0 -7 -3 1053.52 74.79
0 7 3 898.55 70.67
0 7 3 983.3 55.95
0 7 -3 965.02 54.76
-1 -7 -3 977 64.99
-1 -7 -3 925.63 71.44
1 -7 3 876.7 55.73
1 -7 3 773.12 66.35
1 7 3 872.52 57.82
2 -7 3 550.18 49.64
-2 -7 -3 658.13 57.94
2 -7 3 670.62 53.48
-2 -7 -3 622.14 59.01
2 7 3 683.84 54.37
-3 -7 -3 58.94 18.11
-3 -7 -3 92.02 21.68
3 7 3 100.47 23.68
-4 -7 -3 649.94 63.42
-4 -7 -3 524.46 69.06
4 7 3 735.51 64.51
-5 -7 -3 134.24 36.9
5 -8 -3 372.18 49.46
-4 -8 3 112.45 29.71
4 -8 -3 187.9 47.58
-4 -8 3 113.46 28.03
4 8 -3 100.54 29.21
-3 -8 3 11.05 16.58
3 -8 -3 31.61 14.77
3 8 -3 14.34 13.65
2 -8 -3 536.08 46.53
-2 -8 3 650.04 63.46
2 -8 -3 666.08 60.64
-2 -8 3 611.17 54.03
2 8 -3 665.11 55.61
1 -8 -3 1306.78 78.12
-1 -8 3 1290.2 90.78
1 -8 -3 1324.71 89.53
1 -8 -3 1377.6 66.7
-1 -8 3 1394 81.06
-1 8 3 1386.51 65.19
1 8 -3 1398.37 77.76
0 -8 -3 740.34 64.72
0 -8 3 775.38 72.67
0 -8 3 787.99 69.81
0 -8 3 742.85 44.96
0 -8 -3 727.47 51.93
0 8 3 720.77 48.98
0 8 -3 687.51 46.48
1 -8 3 183.05 50.24
-1 -8 -3 195.21 46.25
-1 -8 -3 157.75 32.32
1 -8 3 225.21 29.3
1 8 3 208.18 28.85
2 -8 3 510.8 53.72
-2 -8 -3 513.43 55.56
2 8 3 559.99 50.05
-3 -8 -3 37.26 22.59
3 8 3 57.37 20.21
-4 -8 -3 161.95 35.17
-4 -8 -3 180.03 35.08
4 8 3 212.21 40.28
-5 -8 -3 26.83 30.64
5 -9 -3 185.3 45.23
4 -9 -3 240.12 44.95
-4 -9 3 203.62 37.49
4 9 -3 130.93 31.34
3 -9 -3 127.94 34.08
-3 -9 3 163.71 32.98
3 9 -3 90.75 27.16
2 -9 -3 20.91 16.86
-2 -9 3 52.22 20.74
2 9 -3 2.84 10.93
-1 -9 3 -1.22 12.97
1 -9 -3 -0.26 10.18
1 -9 -3 13.14 14.71
1 9 -3 14.88 9.14
-1 9 3 2.96 10.09
0 -9 -3 395.86 39.16
0 -9 -3 351.56 45.35
0 -9 3 386.53 32.8
0 -9 3 378.51 49.88
0 9 3 301.41 32.1
0 9 -3 312.83 33.41
1 -9 3 456.54 44.09
-1 -9 -3 406.03 51.71
1 -9 3 471.79 58.47
1 9 3 489.98 58.99
2 -9 3 40.95 25.85
-2 -9 -3 61.5 25.08
2 9 3 70.03 18.77
3 -9 3 75.71 30.57
-3 -9 -3 128.35 37.07
3 9 3 106.29 27.41
4 -9 3 114.63 36.33
-4 -9 -3 91.14 33.91
-4 -9 -3 86.46 30.52
4 -10 -3 148.31 51.86
-4 -10 3 179.2 39.78
-3 -10 3 11.92 27.3
3 -10 -3 49.66 26.81
3 10 -3 38.4 25.41
-2 -10 3 224.11 43.75
2 -10 -3 296.28 54.81
2 10 -3 192.61 35.54
-1 -10 3 635.39 68.04
1 -10 -3 433.99 57.19
1 10 -3 441.53 78.12
0 -10 -3 33.38 24.12
0 -10 -3 13.67 16.14
0 -10 3 46.36 14.61
0 -10 3 23.44 23.53
0 10 3 40.6 15.2
0 10 -3 42.54 16.9
-1 -10 -3 506.58 58.22
1 -10 3 543.2 66.82
1 10 3 488.86 48.09
2 -10 3 346.03 60.18
-2 -10 -3 399.89 51.45
2 10 3 263.99 42.89
-3 -10 -3 97.64 35.66
3 -10 3 -0.65 26.97
3 10 3 31.6 24.29
-4 -10 -3 -11.35 33.02
-3 -11 3 211.86 49.28
3 -11 -3 199.78 48.16
3 11 -3 162.9 44.08
-2 -11 3 -20.46 28.69
2 -11 -3 -36.76 20.13
1 -11 -3 124.62 36
-1 -11 3 172.32 46.29
1 11 -3 131.37 29.33
0 -11 -3 103.52 31.78
0 -11 3 92.62 33.85
0 11 -3 176.24 27.74
0 11 3 167.65 32.03
1 -11 3 279.9 57.01
-1 -11 -3 253.98 52.09
1 11 3 264.31 39.38
-2 -11 -3 89.43 38.09
2 -11 3 131.06 55.38
2 11 3 72.93 28.14
-3 -11 -3 -23.96 56.85
2 12 -3 174.02 40.91
1 12 -3 227.51 42.05
0 12 3 42.21 24.92
0 12 -3 -11.38 23.31
1 12 3 0.4 34.08
7 0 -4 144.78 32.35
6 0 -4 -0.93 13.62
5 0 -4 1032.79 67.81
5 0 -4 1096.99 70.54
4 0 -4 724.54 53.86
4 0 -4 828.34 54.78
3 0 -4 333.75 28.75
2 0 -4 338.03 22.53
-1 0 4 2491.03 85.85
1 0 -4 2535.17 90.35
0 0 -4 140.73 15.3
0 0 4 138.77 16.97
0 0 -4 138.77 16.97
1 0 4 18.86 6.51
-1 0 -4 32.09 10.21
-1 0 -4 12.93 6.32
1 0 4 45.8 12.06
-2 0 -4 948.99 51.9
-2 0 -4 1040.29 63.44
-2 0 -4 1006.8 53.42
-3 0 -4 747.76 48.59
3 0 4 675.62 50.63
-3 0 -4 680.91 40.53
-3 0 -4 691.11 55.82
3 0 4 716.32 44.51
4 0 4 605.94 52.9
-4 0 -4 668.06 51.47
-4 0 -4 579.04 57.91
4 0 4 630.61 44.6
-5 0 -4 389.94 47.55
5 0 4 292.61 32.85
-5 0 -4 303.63 49.43
-6 0 -4 490.62 69.74
6 0 4 429.18 45.65
7 -1 -4 -24.17 19.14
7 1 -4 21.54 25.29
6 -1 -4 144.69 27.97
6 1 -4 180.47 36.53
5 -1 -4 907.14 67.36
5 -1 -4 873.81 59.27
5 1 -4 945.38 67.53
5 1 -4 836.34 59
4 -1 -4 199.86 25.61
4 -1 -4 207.64 28.91
4 1 -4 194.92 16.19
4 1 -4 243.31 31.1
4 1 -4 151.65 21.86
3 -1 -4 964.38 57.58
3 1 -4 1026.01 43.33
3 1 -4 1028 51.73
2 -1 -4 1953.39 67.86
2 1 -4 1816.32 83.5
2 1 -4 1954.26 71.04
1 -1 -4 326.99 24.82
-1 -1 4 382.49 26.68
-1 1 4 377.31 24.63
1 1 -4 372.23 26.78
0 -1 -4 340.43 25.36
0 -1 -4 301.26 26.34
0 -1 4 339.15 27.12
0 1 4 393.49 29.67
0 1 -4 352.95 27.42
-1 -1 -4 4315.01 143.95
1 -1 4 4604.07 151.13
-1 -1 -4 4511.18 152.68
-1 1 -4 4411.69 146.37
1 1 4 4395.09 142.2
-1 1 -4 4278.22 138.22
-1 1 -4 4582.81 150.64
1 1 4 4427.21 152.78
-2 -1 -4 381.39 37.72
2 -1 4 330.62 40.87
-2 -1 -4 336.04 30.96
2 -1 4 340.33 26.01
-2 -1 -4 361.48 31.63
-2 1 -4 428.44 30.48
-2 1 -4 389.01 36.48
2 1 4 403.39 31.72
2 1 4 419.2 36.39
-2 1 -4 409.39 30.2
-3 -1 -4 141.84 29.54
-3 -1 -4 173.78 20.65
3 -1 4 180.72 26.11
-3 -1 -4 145.08 23.43
3 -1 4 178.32 19.91
3 1 4 180.35 23.06
3 1 4 142.11 26.11
-3 1 -4 157.67 17.87
-3 1 -4 202.11 30.46
-3 1 -4 189.89 26.57
-4 -1 -4 490.64 47.29
4 -1 4 635.3 52.02
4 -1 4 643.16 41.14
-4 -1 -4 570.96 56.49
4 1 4 531.87 50.77
-4 1 -4 581.31 56.04
4 1 4 527.14 43.64
-4 1 -4 581.66 45.06
5 -1 4 155.11 24.43
-5 -1 -4 179.88 36.65
-5 1 -4 107.28 26.99
-5 1 -4 155.88 38.53
5 1 4 161.69 31.78
6 -1 4 101.43 25.6
-6 -1 -4 63.63 35.6
6 1 4 109.39 27.8
-6 1 -4 181.64 40.71
7 2 -4 377.88 54.34
6 -2 -4 93.01 20.83
6 2 -4 97.69 29.36
5 -2 -4 472.63 39.67
5 2 -4 559.92 42.29
4 -2 -4 2347.26 116.46
4 -2 -4 2530.64 104.53
4 2 -4 2460.53 98.06
4 2 -4 2577.08 90.51
4 2 -4 2645.91 120.38
3 -2 -4 636.04 48.47
3 2 -4 703.41 36.46
3 2 -4 677.1 51.2
3 2 -4 710.35 37.68
2 -2 -4 360.89 25.17
-2 -2 4 310.95 22.77
-2 -2 4 324.78 22.38
2 2 -4 313.16 18.45
2 2 -4 336.97 24.98
-1 -2 4 1346.22 57.37
1 -2 -4 1310.83 59.41
1 -2 -4 1262.01 54.84
1 2 -4 1130.93 55.52
0 -2 -4 1480.53 63.71
0 -2 -4 1510.34 69.17
0 -2 4 1400.65 64
0 2 -4 1530.5 66.34
0 2 -4 1448.18 57.96
0 2 4 1419.54 67.8
0 2 4 1464.16 62.54
1 -2 4 158.79 19.42
-1 -2 -4 135.13 17.77
1 2 4 156.76 20.67
-1 2 -4 160.43 19.8
-1 2 -4 171.44 16.13
-1 2 -4 144.97 17.87
1 2 4 206.22 23.57
-2 -2 -4 134.52 19.24
2 -2 4 122.85 18.77
-2 -2 -4 141.15 20.1
2 2 4 179.06 21.33
-2 2 -4 144.65 16.5
-2 2 -4 149.96 22.37
2 2 4 159.25 23.23
3 -2 4 876.39 56.67
-3 -2 -4 881.92 53.91
-3 -2 -4 870.41 59.81
-3 -2 -4 904.32 67.18
-3 2 -4 934.46 49.85
-3 2 -4 909.85 45.07
3 2 4 829.86 61.1
3 2 4 864.97 55.93
-3 2 -4 908.37 65.24
-4 -2 -4 1141.87 83.25
4 -2 4 1230.63 75.34
4 -2 4 1217.3 57.66
-4 -2 -4 1134.58 91.96
-4 -2 -4 1137.16 69.65
-4 2 -4 1104.65 92.76
4 2 4 1189.32 71.61
4 2 4 906.52 84.05
-4 2 -4 1192.7 62.64
-5 -2 -4 62.86 26.63
5 -2 4 87.02 17.35
-5 2 -4 92.97 27.05
-5 2 -4 125.38 24.24
5 2 4 109.05 24.16
-6 -2 -4 154.3 43.63
6 2 4 153.73 34.57
6 -3 -4 486.35 39.3
6 3 -4 607.23 62.14
5 -3 -4 271.06 27.91
5 3 -4 290.1 41.3
4 -3 -4 37.69 26.03
4 -3 -4 46.81 13.2
4 3 -4 41.66 12.56
3 -3 -4 648.67 37.01
3 -3 -4 613.34 50.7
3 3 -4 643.45 42.51
3 3 -4 666.66 52.85
2 -3 -4 7208.46 210.58
-2 -3 4 7284.97 218.78
-2 -3 4 7267.64 210.3
2 -3 -4 6979.87 215.25
2 3 -4 7178.35 215.63
1 -3 -4 227.82 24.11
-1 -3 4 205.53 20.55
1 -3 -4 230.42 20.74
-1 3 4 196.27 21.41
1 3 -4 181.71 20.45
0 -3 -4 1031.87 52.27
0 -3 4 1055.15 54.49
0 -3 -4 964.23 60.68
0 3 4 1047.91 51.01
0 3 4 982.59 56.91
0 3 -4 961.14 64.25
0 3 -4 974.47 45.52
-1 -3 -4 2602.85 107.97
1 -3 4 2552.84 103.95
-1 -3 -4 2566.25 103.38
1 3 4 2640.02 110.75
-1 3 -4 2523.72 100.4
-1 3 -4 2425.14 96.86
1 3 4 2507.91 99.64
-1 3 -4 2536.93 88.04
2 -3 4 2793.5 110.12
-2 -3 -4 2700.12 114.64
2 -3 4 2651.31 114.26
-2 -3 -4 2630.53 114.17
-2 3 -4 2677.65 91.88
2 3 4 2717.7 120.75
-2 3 -4 2682.62 101.94
2 3 4 2758.52 111.53
-2 3 -4 2683.66 116.61
-3 -3 -4 508.64 42.07
3 -3 4 467.95 41.07
-3 -3 -4 477.01 44.54
-3 -3 -4 547.97 50.66
-3 3 -4 524.65 43.72
3 3 4 511.57 43.81
-3 3 -4 505.72 49.1
-3 3 -4 494.84 32.19
3 3 4 481.03 48.92
-4 -3 -4 304.83 25.85
-4 -3 -4 275.28 39.43
4 -3 4 267.87 40.49
-4 -3 -4 272.19 28.23
-4 3 -4 269.64 24.88
-4 3 -4 321.14 44.27
4 3 4 228.71 39.08
4 3 4 367.63 46.48
-5 -3 -4 253.77 51.11
-5 3 -4 187.37 39.29
5 3 4 231.38 36.41
-6 -3 -4 225.77 56.54
6 3 4 194.41 37.08
6 4 -4 44.61 30.21
5 4 -4 435.56 49.92
4 -4 -4 1398.98 90.42
4 -4 -4 1388.6 63.23
4 -4 -4 1347.92 60.72
4 4 -4 1398.26 88.18
4 4 -4 1214.93 66.09
-3 -4 4 638.88 37.35
3 -4 -4 612.51 52.92
-3 -4 4 579.96 33.01
3 -4 -4 604.21 40.2
3 -4 -4 568.44 34.03
3 4 -4 631.41 42.33
3 4 -4 626.98 52.28
2 -4 -4 294.08 27.99
2 -4 -4 254.12 21.01
-2 -4 4 179.87 20.45
-2 -4 4 213.8 26.76
2 4 -4 283.33 31.1
2 4 -4 276.55 27.23
-1 -4 4 2594.93 115.77
-1 -4 4 2664.64 104.04
1 -4 -4 2835.9 119.01
1 -4 -4 2620.11 96.69
1 4 -4 2712.23 105.95
-1 4 4 2766.2 108.33
0 -4 4 1014.36 54.93
0 -4 -4 977.59 60.66
0 -4 -4 923.23 51.3
0 4 4 867.72 47.86
0 4 -4 891.04 52.16
0 4 -4 841.83 41.66
0 4 4 855.59 60.56
1 -4 4 1581.83 77.3
-1 -4 -4 1581.74 78.63
1 -4 4 1697.78 75.5
-1 -4 -4 1692.76 86.49
-1 4 -4 1631.47 107.62
-1 4 -4 1542.43 73.51
1 4 4 1681.58 87.53
1 4 4 1645.12 77.3
-2 -4 -4 103.06 24.09
2 -4 4 65.66 17.95
2 -4 4 73.29 17.67
-2 4 -4 137.66 27.07
2 4 4 47.62 19.35
-2 4 -4 98.87 18.51
-2 4 -4 98.03 11.91
2 4 4 89.76 19.72
-3 -4 -4 1080.22 70.12
-3 -4 -4 1133.87 78.36
3 -4 4 1135.68 68.59
-3 4 -4 1217.22 79.26
3 4 4 1213.33 72.21
-3 4 -4 1181.83 55.19
3 4 4 1177.22 91.21
-4 -4 -4 482 42.53
4 -4 4 477.11 44.62
-4 -4 -4 530.81 37.46
-4 -4 -4 644.94 77.8
-4 4 -4 579.97 57.8
4 4 4 493.52 48.46
-5 -4 -4 72.55 30.63
5 4 4 65.6 22.09
-5 4 -4 73.89 29.54
-6 -4 -4 58.03 39.22
6 5 -4 118.93 31.97
5 -5 -4 361.8 26.61
5 -5 -4 363.16 38.34
5 5 -4 369.45 49.9
4 -5 -4 41.75 14.48
4 5 -4 51.72 18.18
-3 -5 4 803.66 46.47
3 -5 -4 798.84 53.29
-3 -5 4 930.8 54.02
3 5 -4 802.93 53.02
3 5 -4 875.87 64.57
2 -5 -4 1323.17 57.13
-2 -5 4 1388.94 67.91
-2 -5 4 1351.77 76.45
2 5 -4 1277.18 76.27
2 5 -4 1272.72 68.74
-1 -5 4 1666.02 91.27
1 -5 -4 1682.66 87.04
1 -5 -4 1675.8 71.91
-1 -5 4 1579.73 78.3
1 5 -4 1620.53 80.93
-1 5 4 1607.93 81.31
1 5 -4 1698.17 81.12
0 -5 -4 56.68 16.1
0 -5 4 42.38 9.23
0 -5 -4 37.48 10.08
0 -5 4 40.21 12.15
0 5 4 27.97 14.69
0 5 -4 27.5 10.36
0 5 4 23.17 8.19
1 -5 4 2564.6 109.92
-1 -5 -4 2638.37 120.38
1 -5 4 2746.89 109.36
-1 -5 -4 2556.1 111.51
1 5 4 2554.79 107.12
-1 5 -4 2395.18 102.82
-1 5 -4 2445.8 103.1
1 5 4 2540.31 122.06
-2 -5 -4 146.39 27.98
2 -5 4 175.01 24.77
2 -5 4 186.11 26.05
-2 5 -4 117.59 17.98
-2 5 -4 93.1 22.93
2 5 4 118.69 24.22
3 -5 4 38.57 22.05
3 -5 4 40.18 19.29
-3 -5 -4 34.38 12.32
3 5 4 86.78 29.56
3 5 4 79.1 22.41
-3 5 -4 73.21 22.68
-4 -5 -4 188.29 28.71
-4 -5 -4 242.26 38.37
-4 -5 -4 230.79 31.04
4 5 4 269.67 35.87
-4 5 -4 217.34 43.1
-5 -5 -4 340.05 51.17
5 5 4 256.3 49.69
-5 5 -4 340.46 50.84
5 -6 -4 180.13 32.5
5 -6 -4 164.81 22.95
5 6 -4 122.44 34.42
4 -6 -4 563.15 46.04
4 -6 -4 526.57 37.19
4 6 -4 449.69 50.47
-3 -6 4 94.92 20.22
3 -6 -4 136.24 30.6
-3 -6 4 109.05 23.44
3 6 -4 114.24 28.9
-2 -6 4 171.16 24.94
2 -6 -4 176.37 32.24
2 -6 -4 194.27 19.18
-2 -6 4 196.01 36.54
2 6 -4 180.02 27.13
2 6 -4 194.73 25.12
1 -6 -4 617.92 50.07
-1 -6 4 714.38 50.07
1 -6 -4 718.54 56.91
-1 -6 4 673.64 58.94
1 6 -4 730.27 50.9
1 6 -4 748.01 51.83
0 -6 -4 1198.29 78.58
0 -6 -4 1178.67 66.73
0 -6 4 1288.44 55.99
0 -6 4 1260.95 71.63
0 6 4 1215.69 78.48
0 6 -4 1287.14 65.06
0 6 -4 1192.83 69.32
0 6 4 1222.27 63.21
-1 -6 -4 182.33 28.1
-1 -6 -4 197.02 37.55
1 -6 4 202.53 23.41
-1 6 -4 142.3 17.63
1 6 4 140.37 27.45
1 6 4 186.46 34.25
-1 6 -4 132.76 20.93
-2 -6 -4 619.19 54.39
2 -6 4 569.94 52.68
-2 -6 -4 500.02 50.33
2 -6 4 607.46 50.51
-2 6 -4 638.32 51.51
-2 6 -4 591.85 43.67
2 6 4 548.65 48.44
-3 -6 -4 280.72 37.7
3 -6 4 314.8 46.12
3 6 4 279.93 35.68
-3 6 -4 319.55 68.88
-4 -6 -4 320.34 40.84
-4 -6 -4 293.18 43.64
-4 -6 -4 176.77 32.44
-4 6 -4 258.02 42.2
4 6 4 215.31 34.3
-5 -6 -4 27.22 22.57
5 6 4 9.94 20.54
-5 6 -4 22.33 22.25
5 -7 -4 183.53 32.51
5 7 -4 122.47 37.2
-4 -7 4 345.33 35.49
-4 -7 4 341.07 33.53
4 -7 -4 329.98 33.79
4 -7 -4 325.8 42.82
4 7 -4 379.89 49.73
3 -7 -4 238.66 34.41
-3 -7 4 218.22 37.05
-3 -7 4 187.93 30.73
3 7 -4 276.41 37.31
2 -7 -4 453.76 31.26
-2 -7 4 555.6 47.02
2 -7 -4 443.28 46.57
-2 -7 4 574.41 55.62
2 -7 -4 547.72 51.5
2 7 -4 448.48 45.68
1 -7 -4 70.28 20.2
-1 -7 4 48.18 19.29
1 -7 -4 40.67 11.32
-1 7 4 53.35 13.04
1 7 -4 45.46 15.22
0 -7 4 128.84 16.7
0 -7 4 109.88 28.67
0 -7 -4 118.95 22.5
0 -7 -4 96.72 24.59
0 7 -4 69.59 19.06
0 7 4 122.94 19.69
0 7 4 150.43 32.58
0 7 -4 106.79 20.78
-1 -7 -4 607 52.3
1 -7 4 613.84 45.73
-1 -7 -4 618.34 57.88
1 7 4 601.51 47.53
-1 7 -4 510.32 34.12
1 7 4 594.39 64.18
-2 -7 -4 264.77 48.67
2 7 4 351.67 56.1
-3 -7 -4 41.58 17.17
3 7 4 70.64 20.79
-4 -7 -4 206.96 42.46
-4 -7 -4 176.76 38.13
-4 -7 -4 53.13 44.29
4 7 4 114.2 30.03
-5 -7 -4 133.57 35.26
5 -8 -4 -11.78 26.55
-4 -8 4 349.37 41.87
-4 -8 4 299.05 42.12
4 -8 -4 433.87 66.7
4 8 -4 433.62 51.65
-3 -8 4 434.8 50.61
3 -8 -4 511.37 54.05
3 8 -4 526.66 54.22
-2 -8 4 63.62 24.01
2 -8 -4 77.9 23.49
-2 -8 4 51.52 22
2 8 -4 56.34 19.37
1 -8 -4 552.42 56.34
-1 -8 4 608.14 55.27
1 -8 -4 582 41.91
1 8 -4 576.51 48.19
0 -8 4 803.81 72.23
0 -8 -4 795.83 56.61
0 -8 -4 754.21 81.01
0 -8 4 810.64 45.78
0 8 -4 826.44 53.15
0 8 4 841.88 75.69
0 8 4 801.33 53.41
-1 -8 -4 17.79 11.45
1 -8 4 -12.15 12.95
1 -8 4 15.76 14
-1 -8 -4 20.96 12.51
1 8 4 57.59 17.88
2 -8 4 112.86 26.68
-2 -8 -4 102.89 26.42
2 8 4 121.6 27.89
-3 -8 -4 372.97 49.42
3 8 4 382.93 46.37
-4 -8 -4 -0.9 23.8
-4 -8 -4 29.44 25.19
4 8 4 45.3 24.53
-5 -8 -4 -27.13 34.52
5 -9 -4 101.72 34.99
-4 -9 4 7.76 21.82
4 -9 -4 26.72 22.96
4 9 -4 11.69 22.15
3 -9 -4 389.41 46.92
-3 -9 4 336.61 48.18
3 9 -4 361.79 47.51
-2 -9 4 466 58.77
2 -9 -4 535.38 58.43
2 9 -4 586.11 55.01
-1 -9 4 12.8 16.77
1 -9 -4 29.14 12.88
1 -9 -4 4.84 14.7
1 9 -4 28.19 15.56
0 -9 -4 118.2 31.44
0 -9 4 72.39 29.1
0 -9 -4 43.9 19.05
0 9 4 83.91 18.36
0 9 -4 102 22.26
-1 -9 -4 390.06 51.14
1 -9 4 313.13 39.11
1 -9 4 352.33 52.6
1 9 4 323.96 39.03
2 -9 4 691.16 74.1
-2 -9 -4 596.34 62.17
2 9 4 548.63 52.86
-3 -9 -4 445.77 53.17
3 9 4 282.87 57.46
-4 -9 -4 74.79 33.04
-4 -9 -4 108.87 42.71
-4 -10 4 138.25 45.28
4 -10 -4 163.69 59.4
-3 -10 4 410.44 55.32
3 -10 -4 375.08 57.7
3 10 -4 364.85 88.31
2 -10 -4 20.34 21.09
-2 -10 4 48.68 29.85
2 10 -4 20.26 21.43
1 -10 -4 737.49 72.25
1 -10 -4 781.7 57.68
-1 -10 4 870.54 81.6
1 10 -4 759.38 60.46
0 -10 -4 608.4 61.65
0 -10 4 594.4 69.15
0 -10 4 531.66 39.98
0 10 4 465.7 57.85
0 10 -4 471.94 41.92
-1 -10 -4 94.79 32.24
1 -10 4 129.88 37.69
1 10 4 85.25 22.36
2 -10 4 96.96 41.55
-2 -10 -4 125.49 60.85
2 10 4 92.92 25.73
-3 -10 -4 330.61 60.56
3 -10 4 455.93 71.84
3 -11 -4 136.36 45.64
-3 -11 4 91.36 39.82
2 -11 -4 185.59 48.08
-2 -11 4 224.83 57.65
-1 -11 4 176.12 43.23
1 -11 -4 185.53 40.78
1 11 -4 141.81 33.9
0 -11 -4 43.86 22.8
0 -11 4 57.81 31.24
0 11 -4 6.89 18.29
0 11 4 -18.12 18.21
1 -11 4 227.12 50.41
-1 -11 -4 215.8 48.37
1 11 4 174.76 34.53
2 11 4 70.36 30.25
1 12 -4 175.42 36.41
0 12 4 318.94 49.35
1 12 4 81.36 29.97
7 0 -5 525.84 56.89
6 0 -5 279.75 39.51
5 0 -5 297.46 36.08
5 0 -5 278.99 36.61
4 0 -5 858.25 60.42
4 0 -5 821.03 54.77
3 0 -5 4548.32 139.12
3 0 -5 4491.38 155.91
2 0 -5 1046.19 50.59
-1 0 5 508.87 33.44
1 0 -5 566.05 37.42
0 0 -5 4210.05 137.68
0 0 5 4142.22 144.96
0 0 -5 4115.06 143.6
-1 0 -5 557.09 40.85
1 0 5 594.1 50.26
-1 0 -5 542 37.01
-2 0 -5 664.27 45.16
-2 0 -5 710.36 54.01
2 0 5 669.26 50.24
-2 0 -5 676.14 45.16
2 0 5 666.53 42.52
-3 0 -5 3.48 8.15
3 0 5 10.72 9.71
-3 0 -5 15.94 9.25
3 0 5 -5.59 8.79
-3 0 -5 6.59 7.97
-4 0 -5 1311.19 93.82
-4 0 -5 1349.24 75.11
-4 0 -5 1200.25 75.81
4 0 5 1356.48 82.88
4 0 5 1191.07 67.52
-5 0 -5 224.86 50.59
5 0 5 236.6 30.41
6 0 5 -13.58 18.97
7 -1 -5 100.84 27.42
7 1 -5 118.72 30.91
6 -1 -5 174.04 33.11
6 1 -5 122.3 28.76
5 -1 -5 582.61 57.01
5 -1 -5 788.36 56.75
5 1 -5 581.12 32.44
5 1 -5 700.66 58.32
5 1 -5 590.31 48.44
4 -1 -5 482.17 42.89
4 -1 -5 482.53 43.25
4 1 -5 501.88 38.8
4 1 -5 508.24 47.33
4 1 -5 481.53 29.62
3 -1 -5 242.77 19.3
3 -1 -5 216.17 25.85
3 1 -5 199.22 20.89
3 1 -5 206.06 19.58
-2 -1 5 3001.28 96.82
2 -1 -5 2984.05 105.34
-2 -1 5 2994.77 95.1
2 1 -5 3179.71 108.31
-1 -1 5 5193.05 164.41
1 -1 -5 5154.35 166.05
-1 1 5 5143.51 162.66
1 1 -5 5189.47 165.86
0 -1 5 773.56 47.95
0 -1 -5 729.29 43.3
0 -1 -5 806.11 49.4
0 1 5 771.91 47.95
0 1 -5 749.63 46.21
-1 -1 -5 895.02 54.89
1 -1 5 874.58 66.69
-1 -1 -5 853.28 54.02
-1 1 -5 888.11 54.41
1 1 5 878.23 48.26
1 1 5 842.05 64.87
-1 1 -5 821.51 45.59
-1 1 -5 834.85 51.05
-2 -1 -5 4231.97 151.52
-2 -1 -5 4092.12 163.94
-2 -1 -5 4332.57 152.36
2 -1 5 4168.63 156.88
-2 1 -5 4152.44 144.18
2 1 5 3964.78 156.41
2 1 5 3973.35 143.14
-2 1 -5 4084.97 145.4
-2 1 -5 4145.01 159.42
3 -1 5 976.18 66.57
-3 -1 -5 981.3 72.79
-3 -1 -5 937.59 55.78
3 -1 5 964.56 53.49
-3 -1 -5 943.99 61.81
-3 1 -5 951.22 57.88
-3 1 -5 959.9 52.67
-3 1 -5 861.79 67.85
3 1 5 1016.51 68.4
3 1 5 921.95 56.33
-4 -1 -5 111.93 32.88
4 -1 5 107.61 20.54
-4 -1 -5 106.38 18.42
-4 -1 -5 99.5 25.47
4 -1 5 100.38 26.09
-4 1 -5 108.76 15.25
4 1 5 86.81 21.07
4 1 5 123.21 26.53
-4 1 -5 101.53 24.94
-4 1 -5 121.63 31.29
5 -1 5 447 37.37
-5 -1 -5 357.84 51.79
5 1 5 392.08 40.33
-5 1 -5 356.91 48.5
-5 1 -5 365.6 54.57
6 -1 5 122.09 27.94
6 1 5 97.93 27.13
6 -2 -5 358.26 40.63
6 2 -5 393.63 49.2
5 -2 -5 -0.26 8.45
5 2 -5 20.55 13.93
5 2 -5 12.19 11.84
4 -2 -5 1161.5 75.7
4 2 -5 1194.6 55.26
4 2 -5 1119.44 56.34
4 2 -5 1150.19 76.97
3 -2 -5 1282.52 73.55
3 -2 -5 1282.43 55.37
3 2 -5 1333.8 59.94
3 2 -5 1309.37 55.65
2 -2 -5 92.83 17.62
-2 -2 5 126.92 15.05
-2 -2 5 77.69 14.95
2 2 -5 140.45 12.38
2 2 -5 105.69 15.24
1 -2 -5 174.77 19.84
-1 -2 5 192.78 21.28
1 -2 -5 209.83 22.92
1 2 -5 198.08 22.34
-1 2 5 233.33 22.73
0 -2 -5 1826.6 78.17
0 -2 5 1839.52 80.68
0 -2 -5 1814.36 85.02
0 2 -5 1818.69 73.64
0 2 -5 1772.43 80
0 2 5 1774.36 83.09
-1 -2 -5 905.49 52.52
-1 -2 -5 833 54.91
1 -2 5 881.71 52.71
1 2 5 816.1 54.62
-1 2 -5 800.73 49.46
-1 2 -5 778.29 50.13
-1 2 -5 740.85 42.12
1 2 5 727.38 45.94
-2 -2 -5 14.43 8.71
2 -2 5 24.92 8.62
-2 -2 -5 27.82 10.59
2 2 5 25.76 10.77
2 2 5 15.36 8.15
-2 2 -5 15.55 8.9
-2 2 -5 9.93 9.27
-2 2 -5 12.93 6.18
-3 -2 -5 643.12 48.61
-3 -2 -5 638.75 58.98
3 -2 5 610.71 52.25
-3 -2 -5 706.93 53.79
-3 2 -5 649.86 57.53
3 2 5 706.2 59.98
-3 2 -5 701.37 43.15
-3 2 -5 725.04 45.87
3 2 5 708.75 50.24
-4 -2 -5 200.87 25.36
4 -2 5 151.72 30.28
-4 -2 -5 247.28 37.91
-4 -2 -5 182.79 49.93
4 2 5 123.82 34.58
4 2 5 217.45 30.01
-4 2 -5 256.06 28.43
-4 2 -5 261.41 40.98
-5 -2 -5 756.61 78.21
5 2 5 556.83 51.41
-5 2 -5 574.72 68.47
-5 2 -5 557.33 54.1
6 2 5 5.92 20.79
6 -3 -5 20.26 15.38
6 3 -5 9.35 17.2
5 -3 -5 274.92 29.74
5 3 -5 317.36 43.31
4 -3 -5 180.71 19.3
4 -3 -5 197.14 40.85
4 3 -5 225.05 33.13
4 3 -5 184.48 21.46
3 -3 -5 38.48 12.12
3 -3 -5 46.89 18.04
3 3 -5 49.94 15.08
3 3 -5 48.37 13.14
2 -3 -5 234.72 22.86
-2 -3 5 307.26 24.84
-2 -3 5 321.53 28.72
2 -3 -5 262.2 25.88
2 3 -5 261.54 26.36
1 -3 -5 1547.09 69.53
-1 -3 5 1624.17 72.78
1 -3 -5 1490.44 93.8
1 3 -5 1607.45 74.12
-1 3 5 1697.72 75.55
1 3 -5 1519.77 53.29
0 -3 -5 1525.76 73.52
0 -3 5 1579.97 73.81
0 -3 -5 1516.67 77.83
0 3 -5 1440.76 62.43
0 3 5 1519.26 78.11
0 3 -5 1450.61 71.8
0 3 5 1531.02 69.89
-1 -3 -5 1084.2 61.86
-1 -3 -5 1025.36 65.08
1 -3 5 1006.41 59.49
1 3 5 1108.25 59.39
-1 3 -5 1074.34 59.49
-1 3 -5 1098.3 51.15
1 3 5 1015.6 65.27
-1 3 -5 1042.04 59.49
2 -3 5 1232.61 70.16
-2 -3 -5 1259.55 72.58
-2 -3 -5 1181.3 72.21
-2 3 -5 1121.36 54.46
2 3 5 1099.06 74.16
-2 3 -5 1183.25 61.8
2 3 5 1150.18 66.17
-2 3 -5 1201.47 73.05
-3 -3 -5 4.16 11.38
-3 -3 -5 15.09 9.67
3 -3 5 24.58 11.38
3 3 5 13.28 26.93
-3 3 -5 2.98 10.39
-3 3 -5 19.61 10.03
-3 3 -5 -4.97 7.41
3 3 5 -9.58 6.32
-4 -3 -5 -22.65 12.9
-4 -3 -5 -11.24 11.59
4 3 5 -10.37 9.5
-4 3 -5 -10.28 9.24
-4 3 -5 -6.01 10.02
-5 -3 -5 134.6 36.22
5 3 5 91.12 26.79
-5 3 -5 40.39 22.87
6 4 -5 218.94 44.65
5 -4 -5 -3.08 7.53
5 4 -5 -11.56 12.07
4 -4 -5 460.33 44.51
4 -4 -5 476.42 54.55
4 -4 -5 466.11 34.65
4 4 -5 449.67 69.57
4 4 -5 472.77 36.97
-3 -4 5 584.45 35.69
-3 -4 5 655.82 38.71
3 -4 -5 547.2 37.89
3 -4 -5 599.81 42.19
3 -4 -5 609.79 53.16
3 4 -5 698 46.11
3 4 -5 675.95 55.81
2 -4 -5 60.9 16.35
2 -4 -5 65.48 14.39
-2 -4 5 65.29 14.29
-2 -4 5 81.92 19.43
2 4 -5 69.31 15.32
1 -4 -5 385.55 33.06
-1 -4 5 346.72 31.55
1 -4 -5 395.65 36.93
-1 4 5 322.55 31.93
1 4 -5 340.58 31.08
0 -4 5 1570.33 78.28
0 -4 -5 1537.34 75.92
0 -4 -5 1574.59 84.9
0 4 -5 1569.86 77.24
0 4 5 1649.76 74.31
0 4 5 1704.59 87.36
0 4 -5 1600.68 66.37
-1 -4 -5 1329.56 75.69
1 -4 5 1375.36 75.04
-1 -4 -5 1388.58 81.13
1 4 5 1480.67 85.53
-1 4 -5 1571.45 76.26
1 4 5 1617.26 76.63
-1 4 -5 1556.45 76.35
-1 4 -5 1596.84 64.83
-2 -4 -5 116.02 26.3
2 -4 5 107.1 22.34
-2 4 -5 94.42 13.98
-2 4 -5 96.16 20.78
-2 4 -5 83.38 22.99
2 4 5 53.78 17.38
-3 -4 -5 150.65 37.11
3 -4 5 139.56 27.81
-3 -4 -5 162.1 33.71
-3 -4 -5 231.83 34.78
3 4 5 225.13 30.58
-3 4 -5 226.2 24.14
-3 4 -5 212.44 33.62
3 4 5 138.58 32.46
-3 4 -5 233.71 21.01
-4 -4 -5 112.41 31.84
-4 -4 -5 168.05 29.16
-4 4 -5 136.9 33.47
4 4 5 219.98 32.18
-5 -4 -5 24.31 27.78
-5 4 -5 53.48 26.79
5 4 5 53.48 21.25
6 5 -5 199.38 41.46
5 -5 -5 528.88 32.39
5 -5 -5 504.01 40.76
5 5 -5 646.91 64.09
4 -5 -5 251.78 29.29
4 5 -5 277.65 38.68
4 5 -5 303.61 32.36
-3 -5 5 420.82 36.02
-3 -5 5 369.64 31.51
3 -5 -5 305.65 26.45
3 -5 -5 351.77 35.39
3 5 -5 426.69 37.65
3 5 -5 422.27 45.31
2 -5 -5 882 59.32
-2 -5 5 926.77 55.17
-2 -5 5 839.35 61.16
2 -5 -5 916.27 49.46
2 5 -5 951.83 65.4
2 5 -5 950.63 59.13
-1 -5 5 1469.02 77.01
1 -5 -5 1599.67 74.31
-1 -5 5 1497.61 89.86
1 -5 -5 1562.88 85.67
1 5 -5 1525.55 78.5
0 -5 -5 36.35 12.4
0 -5 5 44.28 12.77
0 -5 -5 64.22 20.88
0 5 -5 76.43 12.21
0 5 -5 38.31 13.52
0 5 5 61.14 19.58
0 5 5 46.6 13.61
-1 -5 -5 459.47 44.81
-1 -5 -5 423.35 40.65
1 5 5 534.48 42.03
-1 5 -5 478.04 38.52
-1 5 -5 485.43 40.19
1 5 5 421.23 46.37
2 -5 5 1555.72 88.6
-2 -5 -5 1542.66 92.59
-2 5 -5 1591.45 63.66
2 5 5 1701.9 89.41
-2 5 -5 1658.28 79.8
-2 5 -5 1633.53 89.05
-3 -5 -5 487.07 49.06
3 -5 5 539.75 50.38
-3 5 -5 563.58 40.24
3 5 5 577.78 51.35
-3 5 -5 649 58.94
-4 -5 -5 140.31 26.67
-4 -5 -5 124.47 32.89
-4 -5 -5 167.4 31.95
4 5 5 120.21 30.42
-4 5 -5 96.44 26.5
-5 -5 -5 136.26 38.32
-5 5 -5 84.47 29.41
5 5 5 129.4 27.7
5 -6 -5 13.33 12.91
5 -6 -5 65.89 21.33
5 6 -5 42.06 18.58
4 -6 -5 170.08 31.95
4 6 -5 110.08 31.08
3 -6 -5 1555.04 66.43
-3 -6 5 1582.4 85.35
-3 -6 5 1588.26 77
3 -6 -5 1608.15 86.85
3 6 -5 1528.76 139.43
3 6 -5 1591.63 85.43
2 -6 -5 613.97 49.18
-2 -6 5 587.44 54.35
-2 -6 5 634.9 48.91
2 -6 -5 624.75 53.71
2 6 -5 638.97 53.98
2 6 -5 690.24 51.54
1 -6 -5 401.52 33.69
-1 -6 5 385.69 37.35
-1 -6 5 350.8 42.57
1 -6 -5 311.72 38
-1 6 5 390.9 41.38
1 6 -5 377.72 38.09
1 6 -5 410.04 38.27
0 -6 -5 1619.49 96.12
0 -6 -5 1716.71 86.04
0 6 -5 1679.79 87.42
0 6 5 1819.07 83.2
0 6 -5 1746.22 82.83
0 6 5 1722.3 98.87
-1 -6 -5 886.25 68.67
-1 -6 -5 878.44 63.4
-1 6 -5 1014.51 58.95
-1 6 -5 921.23 59.95
1 6 5 936.76 60.76
-2 -6 -5 501.61 49.95
-2 -6 -5 460.58 49.59
2 -6 5 460.75 44.78
2 -6 5 406.42 44.25
-2 6 -5 410.79 43.72
2 6 5 484.13 45.76
-2 6 -5 459.68 38.9
-3 -6 -5 205.07 46.2
3 6 5 312.86 38.66
-3 6 -5 326.75 44.12
-4 -6 -5 400.04 54.8
-4 -6 -5 472.8 49.68
-4 -6 -5 411.45 47.66
4 6 5 445.19 50.68
-4 6 -5 430.42 54.04
-5 -6 -5 11.44 32.86
-5 -6 -5 -30.04 23.76
5 -7 -5 445.82 49.61
5 7 -5 459.73 58.95
4 -7 -5 168.14 30.87
-4 -7 5 122.69 23.07
-4 -7 5 115.23 24.59
4 -7 -5 162.37 24.42
4 7 -5 171.7 39.77
-3 -7 5 55.78 20.4
3 -7 -5 80.97 20.75
-3 -7 5 44.45 19.35
3 7 -5 15.69 13.34
2 -7 -5 1393.28 66.37
-2 -7 5 1309.22 87.7
2 -7 -5 1311 85.92
2 7 -5 1350.37 80.32
2 7 -5 1375.6 84.32
-1 -7 5 1192.68 87.44
1 -7 -5 1254.8 67.77
1 -7 -5 1234.33 82.86
1 7 -5 1188.91 71.36
1 7 -5 1109.19 71.9
0 -7 -5 187.07 32.8
0 -7 -5 250.68 36.75
0 -7 5 198.39 30.82
0 -7 5 154.18 36.21
0 7 -5 169.64 24.8
0 7 5 184.46 23.27
0 7 -5 228.76 29.47
1 -7 5 258.89 31.36
-1 -7 -5 297.56 46.23
-1 -7 -5 322.41 40.36
-1 7 -5 234.84 29.94
1 7 5 237.42 31.63
-1 7 -5 197.51 30.56
1 7 5 269.14 47.04
-2 -7 -5 768.49 66.96
2 7 5 751.33 60.05
-3 -7 -5 483.16 55.26
-3 7 -5 780.4 65.67
3 7 5 644.35 59.87
-4 -7 -5 35.96 21.11
-4 -7 -5 41.73 20.45
-4 7 -5 13.69 22.52
4 7 5 35.96 23.92
-5 -7 -5 28.44 38.1
5 -8 -5 4.1 22.16
-4 -8 5 638.08 54.33
4 -8 -5 706.62 62.98
-4 -8 5 577.85 53.75
4 8 -5 626.86 66.22
3 -8 -5 294.34 60.42
-3 -8 5 356.8 47.27
-3 -8 5 308.58 58.88
3 8 -5 305.17 44.97
-2 -8 5 290.5 40.44
2 -8 -5 251.55 26.44
-2 -8 5 209.47 40
2 8 -5 237.02 34.52
1 -8 -5 24.5 13.96
-1 -8 5 10.8 19.15
1 -8 -5 7.82 12.91
1 8 -5 4.83 9.4
1 8 -5 37.15 13.09
0 -8 -5 968.37 73.31
0 -8 5 1019 86.05
0 -8 -5 1008.99 78.58
0 8 -5 1015.48 70.05
0 8 -5 952.64 59.86
0 8 5 929.69 80.25
0 8 5 911.42 60.03
1 -8 5 391.25 38.97
-1 -8 -5 394.03 49.86
-1 8 -5 381.92 31.47
1 8 5 401.36 40.72
-2 -8 -5 34.11 16.37
2 -8 5 20.14 20.06
2 8 5 7.54 14.14
-3 -8 -5 242.66 44.7
3 8 5 290.79 43.45
-4 -8 -5 99.87 35.58
-4 -8 -5 204.1 41.4
5 -9 -5 246.13 49.9
4 -9 -5 45.57 26.08
-4 -9 5 26.32 31.28
4 9 -5 34.45 22.75
-3 -9 5 75.63 27.35
3 -9 -5 126.16 31.02
3 9 -5 133.16 35.44
-2 -9 5 189.35 42.03
2 -9 -5 207.35 26.41
2 -9 -5 144.17 34.82
2 9 -5 170.41 34.05
1 -9 -5 139.05 25.46
-1 -9 5 75.7 24.69
1 -9 -5 139.22 32.41
1 9 -5 99.02 24.26
0 -9 5 242.99 48.73
0 -9 -5 245.83 37.59
0 -9 -5 197.18 42.73
0 9 -5 175.73 28.15
0 9 5 240.25 33.55
1 -9 5 -24.52 15.66
-1 -9 -5 12.17 15.41
1 -9 5 -22.3 13.62
1 9 5 -9.11 13.11
-2 -9 -5 144.09 35.5
2 9 5 137.48 31.57
-3 -9 -5 15.44 39.14
3 9 5 -4.41 17.57
-4 -9 -5 -2.85 31.42
-4 -9 -5 10.6 27.06
-4 -10 5 19.51 34.57
-3 -10 5 84.32 36.84
3 -10 -5 162.14 42.12
3 10 -5 103.11 30.9
-2 -10 5 22.93 24
2 -10 -5 11.92 20.61
2 10 -5 56.27 22.76
-1 -10 5 66.15 30.66
1 -10 -5 136.15 26.31
1 -10 -5 85.62 29.91
1 10 -5 77.93 22.05
0 -10 -5 239.25 45.97
0 -10 5 424.01 62.78
0 10 -5 301.2 35.37
0 10 5 281.14 37.96
1 -10 5 272.43 81.46
1 10 5 223.64 35.51
2 -10 5 72.98 31.35
-2 -10 -5 -12.9 23.76
2 10 5 -23.43 15.92
-3 -11 5 35.15 38.16
-2 -11 5 171.57 46.45
2 -11 -5 89.93 35.51
2 11 -5 181.47 61.83
1 -11 -5 75.79 32.66
-1 -11 5 64.1 33.64
1 11 -5 91.23 26.81
0 -11 -5 28.13 27.32
0 -11 5 93.66 36.92
0 11 5 64.72 23.34
0 11 -5 39.76 23.74
1 11 5 84.98 38.01
1 12 -5 73.84 33.61
7 0 -6 -41.93 22.08
6 0 -6 337.39 44.24
5 0 -6 568.05 56.13
5 0 -6 599.59 54.57
4 0 -6 128.8 25.44
4 0 -6 78.37 14.07
3 0 -6 1727.6 72.53
-2 0 6 194 16.87
2 0 -6 260.62 24.83
1 0 -6 162.5 38.4
-1 0 6 165.18 20.11
0 0 -6 314.43 28.07
0 0 -6 292.88 29.69
0 0 6 287.71 29.6
-1 0 -6 956.39 55.94
1 0 6 1058.03 65.51
-1 0 -6 1121.55 64.19
-2 0 -6 60.22 17.85
-2 0 -6 57.9 17.85
-2 0 -6 54.27 15.71
2 0 6 47.3 15.15
2 0 6 39.97 11.15
-3 0 -6 21.67 16.79
3 0 6 27.72 12.1
-3 0 -6 42.26 15.53
3 0 6 35.75 19.23
-3 0 -6 40.18 15.44
-4 0 -6 2.61 10.53
-4 0 -6 20.71 17.05
-4 0 -6 -3.39 14.79
4 0 6 -9.05 7.57
-5 0 -6 82.36 32.98
5 0 6 117.51 23.4
6 0 6 113.41 30.83
7 -1 -6 111.75 29.32
7 1 -6 22.76 22.92
6 -1 -6 -13.95 11.63
6 1 -6 -4.4 12.46
5 -1 -6 157.06 33.06
5 -1 -6 241.4 42.7
5 1 -6 240.45 21.18
5 1 -6 275.25 32.2
5 1 -6 258.67 38.62
4 -1 -6 505.84 46.82
4 -1 -6 519.98 32.33
4 1 -6 572.94 35.13
4 1 -6 627.87 55.47
4 1 -6 606.7 42.42
3 -1 -6 472.08 32.74
3 -1 -6 474.3 40.43
3 1 -6 400.31 31.07
3 1 -6 440.92 32.18
2 -1 -6 49.1 15.24
2 1 -6 69.92 16.37
-1 -1 6 687.89 44.37
1 1 -6 812.08 49.04
-1 1 6 769.15 46.85
0 -1 6 1530.31 98.49
0 -1 -6 1896.06 90.74
0 -1 -6 1871.39 82.9
0 1 6 2121.92 97.92
0 1 -6 2042.08 90.74
0 1 -6 2058.61 90.07
-1 -1 -6 1157.34 68.34
-1 -1 -6 1152.42 63.89
1 -1 6 1257.69 71.94
-1 1 -6 1164.73 66.45
1 1 6 1281.63 73.08
-1 1 -6 1128.47 67.78
-1 1 -6 1198.04 60.68
-2 -1 -6 617.65 46.86
-2 -1 -6 614.58 54.84
2 -1 6 535.8 48.71
-2 -1 -6 591.3 47.88
2 1 6 595.2 50.94
-2 1 -6 666.28 44.92
-2 1 -6 604.38 45.47
-2 1 -6 665.07 54.1
2 1 6 638.9 44.55
-3 -1 -6 722.69 64.54
-3 -1 -6 686.63 50.75
3 -1 6 792.73 90.78
3 1 6 754.16 52.46
-3 1 -6 761.28 53
-3 1 -6 780.02 65.71
3 1 6 692.85 63.73
-3 1 -6 759.02 50.12
4 -1 6 124.33 22.42
-4 -1 -6 109.04 34.41
-4 -1 -6 147.43 27.46
4 1 6 112.51 26.76
-4 1 -6 160.46 34.06
-4 1 -6 153.86 21.64
5 1 6 41.91 19.88
-5 1 -6 27.28 20.05
6 1 6 81.69 27.15
6 -2 -6 840.59 62.04
6 2 -6 773.84 69.4
5 -2 -6 205.65 37.94
5 2 -6 223.96 27.57
5 2 -6 259.14 37.59
5 2 -6 203.15 22.9
4 -2 -6 113.59 16.77
4 -2 -6 129.2 28.96
4 2 -6 140.22 30.4
4 2 -6 156.45 18.65
4 2 -6 138.33 18.29
3 -2 -6 988.78 66.54
3 -2 -6 1094.64 55.1
3 2 -6 1166.35 58.24
3 2 -6 1128.98 50.85
2 -2 -6 2149.96 90.31
-2 -2 6 2128.11 83.9
-2 -2 6 2281.8 91.25
2 2 -6 2083.11 90.68
1 -2 -6 78.59 17.22
-1 -2 6 68.88 15.32
1 -2 -6 67.26 16.94
-1 2 6 61.27 14.56
1 2 -6 40.25 13.04
0 -2 6 982.05 58.61
0 -2 -6 920 54.52
0 -2 -6 1017.06 61.18
0 2 -6 976.91 58.23
0 2 -6 886.89 51.19
0 2 6 936.46 59.76
1 -2 6 1601.68 85.45
-1 -2 -6 1757.97 84.98
-1 -2 -6 1692.78 90.35
-1 2 -6 1905.04 83.94
1 2 6 1832.97 93.83
-1 2 -6 1817.71 85.92
-1 2 -6 1838.34 87.33
1 2 6 1733.58 81.68
-2 -2 -6 675.1 52.27
2 -2 6 717.3 55.78
-2 -2 -6 653.02 51.81
2 2 6 687.84 57.08
-2 2 -6 748.89 56.99
-2 2 -6 752.77 46.55
-2 2 -6 712.04 49.41
2 2 6 712.41 50.24
3 -2 6 176.52 34.11
-3 -2 -6 251.01 37.79
-3 -2 -6 238.53 30.43
-3 2 -6 169.97 26.66
3 2 6 165.66 31.86
-3 2 -6 155.25 34.29
3 2 6 210.45 27.02
-3 2 -6 264.65 28.45
-4 -2 -6 197.25 27.95
-4 -2 -6 162.99 40.75
-4 2 -6 234.62 37.98
-4 2 -6 218.52 23.53
4 2 6 228.47 31.32
-4 2 -6 226.14 33.92
-5 -2 -6 179.92 45.64
-5 2 -6 222.65 43.9
-5 2 -6 282.38 60.22
5 2 6 240.05 36.95
6 -3 -6 595.92 49.63
6 3 -6 638.4 82.34
5 -3 -6 397.1 40.25
5 3 -6 431.16 35.27
5 3 -6 411.86 49.51
4 -3 -6 522.58 51.08
4 -3 -6 535.4 36.22
4 3 -6 583.63 54.91
4 3 -6 529.61 39.34
3 -3 -6 149.75 29.68
3 -3 -6 175.85 21.16
3 3 -6 161.56 21.53
2 -3 -6 395.86 35.41
2 -3 -6 426.68 34.57
-2 -3 6 427.43 33.73
-2 -3 6 417.63 39.06
2 3 -6 452.84 37.09
-2 3 6 424.35 27.1
-1 -3 6 3393.95 128.56
1 -3 -6 3397.53 126.29
1 -3 -6 3470.87 135.35
-1 3 6 3680.41 133.37
1 3 -6 3513.44 132.52
1 3 -6 3176.95 106.47
0 -3 -6 1158.39 70.04
0 -3 6 1146.78 65.32
0 -3 -6 1192.09 64.57
0 3 6 1107.88 68.25
0 3 -6 1121.38 56.26
0 3 -6 1065.79 63.62
-1 -3 -6 102.91 22.15
-1 -3 -6 116.19 24.3
1 -3 6 102.07 21.69
1 3 6 99.92 26.08
1 3 6 117.12 22.72
-1 3 -6 134.79 21.03
-1 3 -6 124.04 24.77
2 -3 6 396.69 41.07
-2 -3 -6 409.16 42.26
-2 3 -6 455.26 46.01
-2 3 -6 381.02 36.12
2 3 6 415.75 37.86
-2 3 -6 428.21 33
3 -3 6 2062.44 110.73
-3 -3 -6 2083.02 121.51
-3 -3 -6 2212.45 114.38
-3 -3 -6 2241.58 107.88
-3 3 -6 2215.92 93.72
3 3 6 2017.98 117.86
3 3 6 2345.1 108.24
-3 3 -6 2312.22 97.37
-3 3 -6 2199.8 119.02
-4 -3 -6 598.5 47.76
-4 -3 -6 536.4 61.59
4 3 6 600.91 52.48
-4 3 -6 551.69 35.57
-4 3 -6 580.29 62.79
-4 3 -6 577.37 45.1
-5 -3 -6 112.82 67.14
-5 3 -6 70.19 33.66
5 3 6 92.16 25.1
6 -4 -6 461.98 42.17
6 4 -6 474.36 61.71
5 -4 -6 276.26 30.93
5 -4 -6 235.72 28.81
5 -4 -6 151.34 23.97
5 4 -6 203.77 26.51
4 -4 -6 70.47 24.84
4 -4 -6 148.96 21.5
4 4 -6 160.24 22.11
4 4 -6 87.92 28.28
3 -4 -6 2301.51 98.96
3 -4 -6 2193.57 92.25
-3 -4 6 2208.98 88.54
-3 -4 6 2148.08 84.91
3 4 -6 2199.65 115.18
3 4 -6 2235.07 99.05
-2 -4 6 1436.28 78.73
2 -4 -6 1433.6 76.33
-2 -4 6 1341.1 71.9
2 -4 -6 1349.04 67.64
2 4 -6 1338.33 72.17
1 -4 -6 121.64 27.82
-1 -4 6 69.73 17.27
1 -4 -6 99.6 20.91
-1 4 6 119.3 25.02
1 4 -6 114.17 23.43
0 -4 -6 314.45 31.47
0 -4 6 316.59 32.4
0 -4 -6 339.55 37.07
0 4 6 339.93 31.37
0 4 -6 335.45 33.24
0 4 6 279.24 35.57
0 4 -6 318.55 27.08
-1 -4 -6 1153.74 70.73
-1 -4 -6 1248.21 78.21
-1 4 -6 1038.54 64.25
-1 4 -6 1174.99 66.66
1 4 6 1167.97 66.38
1 4 6 1135.8 77.2
-1 4 -6 1035.02 78.21
2 -4 6 528.51 73.73
-2 -4 -6 571.05 52.68
-2 4 -6 639.79 54.68
-2 4 -6 673.8 41.63
-2 4 -6 597.8 47.06
2 4 6 639.7 50.42
-3 -4 -6 30.6 17.37
-3 -4 -6 29.54 21.87
-3 4 -6 51.58 14.37
3 4 6 52.81 17.55
-3 4 -6 46.11 14.02
-4 -4 -6 482.29 45.17
-4 -4 -6 394.66 57.42
-4 4 -6 508.15 59.89
4 4 6 478.46 49.34
-5 -4 -6 276.23 51.85
5 4 6 272.64 42.56
-5 4 -6 241.41 47.61
5 -5 -6 326.01 34.08
5 5 -6 316.94 46.83
4 -5 -6 460.12 34.53
4 -5 -6 427.6 39.4
4 5 -6 444.99 40.88
4 5 -6 360.99 47.13
3 -5 -6 140.91 34.7
-3 -5 6 205.29 27.81
3 -5 -6 182.58 22.44
-3 -5 6 146.28 23.88
3 -5 -6 204.31 34.16
3 5 -6 159.33 33.89
3 5 -6 167.29 26.2
2 -5 -6 29.63 11.49
-2 -5 6 10.85 9.21
-2 -5 6 21.88 12.4
2 -5 -6 4.19 7.2
2 5 -6 3.46 6.65
1 -5 -6 695.8 48.32
1 -5 -6 738.52 58.17
-1 -5 6 718.64 52
-1 5 6 747.17 56.24
1 5 -6 673.07 51.64
0 -5 6 1255.29 72.54
0 -5 -6 1173.17 76.96
0 -5 -6 1116.83 67.11
0 5 6 1031.76 72.36
0 5 -6 1058.55 53.12
0 5 -6 997.14 65.45
0 5 6 1051.83 62.32
-1 -5 -6 78.42 21.43
-1 -5 -6 98.48 24.8
1 5 6 89.54 21.25
-1 5 -6 106.51 22.62
-1 5 -6 106.51 16.14
-1 5 -6 125.2 23.07
-2 -5 -6 993.44 72.47
2 -5 6 963.37 68
-2 5 -6 931.89 60.03
-2 5 -6 971.52 68.8
2 5 6 930.99 64.42
-2 5 -6 884.28 48.04
-3 -5 -6 400.84 59.45
3 5 6 451.07 44.48
-3 5 -6 422.95 50.4
-3 5 -6 472.57 39.61
-4 -5 -6 229.16 51.85
-4 -5 -6 335.97 42.52
4 5 6 297.9 41.77
-4 5 -6 343.7 50.75
-5 -5 -6 -22.73 21.92
-5 -5 -6 21.84 31.59
5 -6 -6 307.01 36.89
5 6 -6 251.68 49.79
4 -6 -6 122.88 26.63
4 -6 -6 158.5 29.54
4 6 -6 131.18 26.55
4 6 -6 133.15 34.17
3 -6 -6 785.37 58.07
-3 -6 6 667.82 47.86
3 -6 -6 695.71 43.12
-3 -6 6 756.42 57.72
3 6 -6 585.99 58.6
3 6 -6 682.43 54.81
-2 -6 6 209.43 30.31
-2 -6 6 188.99 29.5
2 -6 -6 169.17 23.31
2 -6 -6 177.33 33.44
2 6 -6 137.07 29.41
2 6 -6 174.11 26.18
-1 -6 6 401.1 44.72
1 -6 -6 281.97 38.11
1 -6 -6 326.05 33.13
1 6 -6 332.12 35.94
-1 6 6 313.66 39.92
1 6 -6 351.22 38.02
0 -6 -6 256.12 35.76
0 -6 -6 318.49 39.3
0 6 -6 211.94 28.97
0 6 6 284.46 39.3
0 6 6 249.78 28.88
-1 -6 -6 621.55 54.8
-1 -6 -6 572.14 56.32
1 6 6 642.27 51.03
1 6 6 596.35 61.08
-1 6 -6 622.36 50.49
-1 6 -6 696.09 49.24
-2 -6 -6 93.51 28.62
2 6 6 139.11 28.79
-2 6 -6 133.92 25.36
-2 6 -6 89.9 16.29
-2 6 -6 154.87 33.11
-3 -6 -6 6.6 15.77
-3 6 -6 10.03 15.34
3 6 6 12.6 14.66
-3 6 -6 23.91 12.69
-4 -6 -6 35.69 25.92
-4 -6 -6 35.53 20.62
4 6 6 32.88 29.65
-4 6 -6 71.04 28.32
5 -7 -6 114.88 30.49
5 7 -6 77.97 31.79
4 -7 -6 780.3 62.07
4 7 -6 849.27 73.68
3 -7 -6 179.83 21.08
-3 -7 6 200.99 33.17
3 -7 -6 171.45 34.03
-3 -7 6 111.42 30.06
3 7 -6 138.71 28.76
3 7 -6 153.39 33.43
2 -7 -6 107.41 28.94
2 -7 -6 85.5 18.3
-2 -7 6 86.91 23.84
2 7 -6 96.5 26.83
2 7 -6 116.82 26.92
-1 -7 6 150.68 30.81
-1 -7 6 137.09 33.66
1 -7 -6 187.62 27.44
1 7 -6 105.04 24.86
-1 7 6 236.27 42.09
1 7 -6 170.39 27.17
0 -7 -6 349.36 40.23
0 7 6 328.57 34.1
0 7 -6 371.03 36.86
0 7 -6 343.58 67.49
-1 -7 -6 69.61 22.97
-1 7 -6 46.37 18.39
1 7 6 67.14 24.55
-1 7 -6 73.92 17.87
-2 -7 -6 147.01 32.85
2 7 6 128.7 27.75
-2 7 -6 170.61 32.85
-2 7 -6 115.73 28.35
-3 -7 -6 57.08 20.96
3 7 6 60.95 23.07
-3 7 -6 68.86 26.02
-4 -7 -6 35.17 27.76
-4 -7 -6 -4.64 27.03
4 7 6 -26.37 17.58
-4 7 -6 42.16 24.01
5 -8 -6 12.76 24.33
4 -8 -6 100.99 26.88
-4 -8 6 72.63 24.49
4 8 -6 61.41 29.1
3 -8 -6 30.71 18.78
-3 -8 6 54.39 23.26
-3 -8 6 0.59 22.93
3 8 -6 53.37 23.86
2 -8 -6 489.51 40.39
-2 -8 6 471.52 51.92
2 -8 -6 504.92 52.87
2 8 -6 478.32 48.9
2 8 -6 467.13 48.56
1 -8 -6 125.13 26.77
1 -8 -6 114.53 33.28
-1 -8 6 177.78 41.02
1 8 -6 153.02 32.5
1 8 -6 150.32 30.5
0 -8 -6 38.07 17.73
0 -8 -6 42.85 20.69
0 -8 6 91.08 26.77
0 8 -6 69.96 22.95
0 8 -6 31.55 14.86
0 8 6 85.95 20.77
-1 -8 -6 446.98 55.3
1 8 6 547.51 50.56
-1 8 -6 559.74 39.8
-1 8 -6 503.06 49.35
-2 -8 -6 246.57 43.84
2 8 6 332.91 42.24
-3 -8 -6 -19.89 21.04
3 8 6 53.46 22.53
-4 -8 -6 99.63 37.53
-4 -8 -6 81.11 38
4 -9 -6 197.29 45.39
-4 -9 6 183.99 59.18
-3 -9 6 36.79 29.77
3 -9 -6 41.83 18.02
3 9 -6 32.16 22.9
2 -9 -6 352.76 47.18
-2 -9 6 216.58 43.65
2 -9 -6 252.41 35.92
2 9 -6 264.44 46.51
1 -9 -6 1185.5 91.98
1 -9 -6 1215.12 76.45
-1 -9 6 1169.46 99.11
1 9 -6 1173.96 78.74
0 -9 6 69.76 27.5
0 -9 -6 152.42 35.73
0 9 -6 77.14 21.73
0 9 6 82.15 23.93
-1 -9 -6 -26.51 14.31
1 -9 6 -3.96 17.17
1 9 6 -8.08 12.54
-2 -9 -6 48.89 28.79
2 9 6 50.21 25.32
-3 -9 -6 237.07 48.25
4 -10 -6 -3.86 28.89
3 -10 -6 165.32 43.22
-3 -10 6 176.45 43.46
3 10 -6 161.36 43.3
-2 -10 6 334.23 60.35
2 -10 -6 364.17 70.11
2 10 -6 276.75 45.59
-1 -10 6 98.83 35.32
1 -10 -6 91.14 29.69
1 10 -6 62.94 22.83
0 -10 -6 158.4 36.07
0 -10 6 204.22 51.03
0 10 -6 224.24 34.5
0 10 6 183.46 31.35
1 -10 6 473.15 63.9
-1 -10 -6 352.73 55.78
1 10 6 404.49 47.98
2 10 6 199.79 40.99
2 11 -6 102.54 34.32
1 11 -6 257.96 42.88
0 11 -6 85.06 31.87
1 11 6 9.02 21.48
7 0 -7 12.1 24.36
6 0 -7 395.1 49.48
5 0 -7 969.2 47.68
5 0 -7 892.34 83.4
5 0 -7 971.09 74.62
4 0 -7 209.84 21.59
4 0 -7 167.9 31.5
3 0 -7 38.08 11.93
2 0 -7 5011.82 168.99
-2 0 7 4713.48 153.09
1 0 -7 1373.04 73.26
-1 0 7 1364.93 70.61
0 0 -7 1321.38 67.17
0 0 -7 1196.08 69.81
0 0 7 1185.05 70.38
-1 0 -7 1039.42 61.6
-1 0 -7 1034.94 65.24
1 0 7 1075.44 70.65
-2 0 -7 525.06 50.76
-2 0 -7 521.04 44.73
-2 0 -7 544.64 45.37
-3 0 -7 210.98 46.45
3 0 7 244.99 44.59
-3 0 -7 186.19 26.12
-4 0 -7 30.31 16.7
4 0 7 45.8 16.44
-4 0 -7 33.82 22.18
-5 0 -7 76.23 37.87
7 -1 -7 143.58 41.66
6 -1 -7 41.83 16.56
6 1 -7 10.3 18.94
5 -1 -7 260.76 44.43
5 -1 -7 328.31 64.8
5 1 -7 295.32 40.66
5 1 -7 285.95 25.27
5 1 -7 225.86 37.13
4 -1 -7 756.94 44.63
4 -1 -7 741.81 56.3
4 1 -7 700.29 43.66
4 1 -7 682.29 47.39
3 -1 -7 766.07 48.64
3 1 -7 824.6 50.02
3 1 -7 802.06 48
2 -1 -7 643.83 46.23
-2 -1 7 585.01 38.66
-2 1 7 745.61 56.77
2 1 -7 651.58 46.04
1 -1 -7 414.45 38.27
1 -1 -7 392.77 33.84
-1 -1 7 450.92 37.24
1 1 -7 422.46 37.33
-1 1 7 423.31 36.29
0 -1 -7 1972.13 88.26
0 -1 -7 1922.12 94.95
0 -1 7 2015.56 94.1
0 1 -7 1864 91.46
0 1 7 1852.13 93.16
0 1 -7 1789.78 84.11
-1 -1 -7 771.45 53.4
-1 -1 -7 736.78 55.35
1 -1 7 812.45 58.06
-1 1 -7 816.73 50.51
-1 1 -7 713.2 54.61
-1 1 -7 677.98 52.65
1 1 7 763.99 58.06
-2 -1 -7 13.43 10.23
-2 -1 -7 71.23 21.28
-2 -1 -7 43.93 15.71
2 -1 7 55.15 18.36
2 1 7 35.34 12.51
2 1 7 24.48 13.7
-2 1 -7 50.86 14.8
-2 1 -7 57.89 19.27
-2 1 -7 42.47 12.88
3 -1 7 1137.69 89.5
-3 -1 -7 994.26 79.83
-3 -1 -7 958.24 64.31
-3 -1 -7 940.32 69.63
-3 1 -7 998.6 85.6
-3 1 -7 931.1 60.49
3 1 7 987.69 64.13
-3 1 -7 1020.68 66.88
-4 -1 -7 797.16 55.23
-4 -1 -7 810.24 78.31
-4 1 -7 882.91 53.26
-4 1 -7 779.29 78.23
4 1 7 797.5 58.31
-4 1 -7 940.11 69.59
-5 -1 -7 56.15 33.97
5 1 7 59.1 22.02
-5 1 -7 50.99 29.39
6 -2 -7 7.14 15.75
6 2 -7 16.49 17.47
5 -2 -7 833.02 62.39
5 2 -7 751.71 48.87
5 2 -7 701.39 66.93
5 2 -7 778.68 47.24
4 -2 -7 544.14 54.81
4 -2 -7 559.48 40.36
4 2 -7 544.49 36.99
4 2 -7 557.88 40.36
3 -2 -7 621.76 63.83
3 2 -7 622.4 44.6
3 2 -7 600.6 35.57
-2 -2 7 2017.05 85.13
2 -2 -7 1984.81 90.8
2 -2 -7 1890.2 86.99
2 2 -7 1909.15 89.69
-1 -2 7 869.15 55.44
1 -2 -7 876.37 53.66
1 -2 -7 863.52 57.22
1 2 -7 841.57 56
-1 2 7 785.85 53.19
0 -2 7 61.68 17.72
0 -2 -7 66.18 16.69
0 -2 -7 51.37 21.19
0 2 -7 50.71 16.69
0 2 7 60.56 16.5
-1 -2 -7 1581.04 90.44
-1 -2 -7 1661.27 85.71
-1 2 -7 1778.61 80.14
-1 2 -7 1635.58 86.36
1 2 7 1502.38 90.07
-1 2 -7 1698.84 87.01
-2 -2 -7 438.06 42.27
2 -2 7 351.34 66.9
2 2 7 405.88 38.18
-2 2 -7 370.34 36.36
-2 2 -7 332.34 33.64
-2 2 -7 354.34 41.09
-3 -2 -7 167.89 31.53
-3 -2 -7 194.56 52.1
-3 -2 -7 162.59 35.42
-3 2 -7 304.34 42.13
-3 2 -7 236.68 33.21
3 2 7 256.73 34
-3 2 -7 244.98 30.38
-4 -2 -7 -18.99 15.5
-4 -2 -7 8.34 12.86
-4 2 -7 48.27 20.01
4 2 7 22.39 14.05
-4 2 -7 3.41 12.94
-5 -2 -7 -0.65 26.99
5 2 7 12.23 16.47
6 -3 -7 290.61 41.88
6 3 -7 321.91 51.18
5 -3 -7 51.42 16.83
5 3 -7 17.26 10.37
5 3 -7 37.91 18.87
4 -3 -7 515.27 57.23
4 3 -7 530.51 41.48
4 3 -7 496.87 52.92
3 -3 -7 610.92 44.26
3 -3 -7 560.96 42.81
3 3 -7 625.94 46.34
-2 -3 7 510.16 39.38
2 -3 -7 504.17 40.03
2 -3 -7 508.31 42.79
-2 3 7 491.91 34.03
2 3 -7 531.28 43.26
1 -3 -7 100.43 20.85
1 -3 -7 110.48 23.92
-1 -3 7 91.77 21.69
1 3 -7 113.55 22.99
1 3 -7 113.55 15.36
-1 3 7 173.4 40.58
0 -3 -7 403.5 36.47
0 -3 -7 437.07 42.7
0 -3 7 341.92 37.86
0 3 7 424.42 41.95
0 3 -7 463.12 41.12
0 3 -7 418.65 37.86
-1 -3 -7 1097.96 75.75
1 3 7 1070.07 75.66
1 3 7 1180.8 68.11
-1 3 -7 1182.91 62.22
-1 3 -7 1163.67 69.21
-1 3 -7 1107.72 68.57
-2 -3 -7 21.2 20.21
2 -3 7 56.11 18.59
-2 -3 -7 55.03 19.58
-2 3 -7 72 22.11
-2 3 -7 31.67 14.62
-2 3 -7 53.14 16.06
2 3 7 53.41 15.88
-3 -3 -7 136.07 35.95
-3 -3 -7 194.12 30.16
3 3 7 199.12 28.94
-3 3 -7 189.04 36.48
-3 3 -7 150.63 26.74
-3 3 -7 143.26 25.25
-4 -3 -7 31.63 18.77
-4 -3 -7 66.71 25.96
4 3 7 85.83 24.27
-4 3 -7 53.01 22.92
-4 3 -7 107.64 28.75
-4 3 -7 68.49 17.76
-5 -3 -7 79.95 42.61
5 3 7 162.99 34.11
6 -4 -7 -0.48 18.9
6 4 -7 5.57 24.71
5 -4 -7 876.81 52.19
5 -4 -7 638.55 55.64
5 -4 -7 790.26 56.74
5 4 -7 846.75 56.91
5 4 -7 869.31 75.01
4 -4 -7 182.8 27.29
4 -4 -7 272.24 28.51
4 4 -7 205.46 32.87
4 4 -7 183.76 27.11
-3 -4 7 72.01 16.3
3 -4 -7 87.24 20.24
3 -4 -7 119.13 21.5
-3 -4 7 55.8 23.74
-2 -4 7 1459.58 82.38
2 -4 -7 1260.23 69.25
-2 -4 7 1384.86 72.71
2 -4 -7 1399.46 78.73
-2 4 7 1237.33 62.77
2 4 -7 1271.45 74.26
1 -4 -7 813.89 54.32
1 -4 -7 857.72 61.78
-1 -4 7 719.8 53.03
-1 4 7 756.81 54.87
1 4 -7 765.1 56.07
1 4 -7 726.98 37.29
0 -4 -7 242.9 34.42
0 -4 -7 286.89 33.22
0 -4 7 315.6 34.05
0 4 -7 251.18 32.11
0 4 -7 242.44 32.85
0 4 7 317.16 36.9
-1 -4 -7 252.78 35.24
1 4 7 260.52 30.69
-1 4 -7 228.65 30.96
-1 4 -7 248.59 27.96
-1 4 -7 327.36 34.33
2 -4 7 555.38 52.77
-2 -4 -7 593.77 56.07
-2 4 -7 639.85 53.66
-2 4 -7 526.36 41.08
2 4 7 684.13 52.32
-2 4 -7 595.29 49.1
-3 -4 -7 60.76 22.4
-3 -4 -7 27.09 18.41
-3 4 -7 30.82 13.72
-3 4 -7 47.91 16.15
3 4 7 55.21 18.84
-3 4 -7 102.7 31.43
-4 -4 -7 -12.4 23.54
-4 -4 -7 4.61 15.83
-4 4 -7 -10.81 16.59
-4 4 -7 11.06 12.56
4 4 7 13.49 17.09
-5 -4 -7 -4.74 39.18
5 -5 -7 38.51 20.3
5 -5 -7 40.01 15.3
5 -5 -7 6.32 16.22
5 5 -7 1.91 15.22
5 5 -7 -0.33 17.3
4 -5 -7 418.72 36.84
4 -5 -7 358.56 37.44
4 5 -7 436.71 54.56
4 5 -7 479.06 43.12
3 -5 -7 593.63 48.43
3 -5 -7 494.19 41.55
-3 -5 7 579.93 46.93
3 5 -7 529.73 46.84
3 5 -7 585.23 57.63
-2 -5 7 401.7 38.62
2 -5 -7 377.22 35.83
2 -5 -7 441.75 44.29
-2 -5 7 343.28 40.78
2 5 -7 309.63 36.01
1 -5 -7 617.71 48.22
1 -5 -7 588.92 53.94
-1 -5 7 561.59 49.58
-1 5 7 725.5 55.3
1 5 -7 573.76 49.67
0 -5 -7 1971.2 107.46
0 -5 -7 1978.73 99.2
0 5 -7 1894.51 98.2
0 5 -7 1750.58 87.49
0 5 7 1844.15 105.82
-1 -5 -7 315.96 40.16
-1 -5 -7 242.29 38.45
1 5 7 332.85 34.95
-1 5 -7 295.48 31.9
-1 5 -7 304.02 29.11
1 5 7 278.23 40.61
-1 5 -7 264.3 33.78
-2 -5 -7 500.27 53.66
-2 5 -7 437 42.21
2 5 7 478.25 45.47
-2 5 -7 468.29 37.46
-2 5 -7 565.75 51.46
-3 -5 -7 151.12 37.46
-3 5 -7 126.09 31.55
-3 5 -7 123.09 24.69
-3 5 -7 131.23 21
3 5 7 140.49 28.72
-4 -5 -7 318.02 62.64
-4 -5 -7 297.74 43.03
-4 5 -7 346.65 49.48
5 -6 -7 269.26 40.82
5 6 -7 223.6 44.09
4 -6 -7 101.72 24.08
4 -6 -7 100.87 27.72
4 6 -7 92.82 26.45
4 6 -7 134.01 28.82
-3 -6 7 64.9 20.88
3 -6 -7 51.85 20.45
-3 -6 7 68.3 22.45
3 -6 -7 45.5 16.01
3 6 -7 48.11 19.23
3 6 -7 40.64 16.79
-2 -6 7 1389.3 81.38
2 -6 -7 1362.92 87.67
-2 -6 7 1386.29 90.77
2 -6 -7 1321.73 73.77
2 6 -7 1419.24 89.62
2 6 -7 1306.32 81.12
1 -6 -7 502.5 44.84
1 -6 -7 517.86 53.69
1 6 -7 513.04 46.63
-1 6 7 547.35 52.7
0 -6 7 26.7 13.57
0 -6 -7 3.93 13.48
0 -6 -7 29.64 14.29
0 6 -7 3.84 9.11
0 6 7 19.73 8.39
-1 -6 -7 288.26 41.29
-1 6 -7 285.61 65.23
-1 6 -7 336.43 31.47
1 6 7 339.79 46.4
-1 6 -7 324.94 33.86
-2 -6 -7 332.76 45.97
-2 6 -7 400.33 42.08
-2 6 -7 246.1 28.63
2 6 7 359.3 41.03
-2 6 -7 321.3 39.39
-3 -6 -7 188.69 42.29
3 6 7 279.7 42.29
-3 6 -7 304.69 44.74
-4 -6 -7 63.45 26.75
-4 -6 -7 80.09 34.99
4 6 7 65.08 25.53
5 -7 -7 122.09 37.88
4 -7 -7 278.42 47.88
4 7 -7 270.76 53.47
4 7 -7 299.57 39.56
-3 -7 7 535.05 49.89
3 -7 -7 424.76 49.37
-3 -7 7 480.28 51.34
3 -7 -7 486.95 40.84
3 7 -7 495.75 52.45
3 7 -7 567.59 52.45
-2 -7 7 158.1 36.07
2 -7 -7 146.54 42.16
-2 -7 7 134.37 28.16
2 -7 -7 235.11 28.77
2 7 -7 156.02 32.68
2 7 -7 200.78 30.51
1 -7 -7 872.02 73.02
-1 -7 7 839.15 74.42
1 -7 -7 938.29 64.95
1 7 -7 858.61 65.13
-1 7 7 875.35 72.58
1 7 -7 820.13 64.08
0 -7 -7 584.33 56.68
0 -7 -7 601.32 60.97
0 7 -7 642.15 56.33
0 7 7 491.46 63.07
0 7 -7 647.85 51.42
0 7 7 653.19 49.93
-1 -7 -7 182.98 34.45
1 7 7 176.22 33.49
-1 7 -7 223.06 26.99
-1 7 -7 197.99 28.81
-1 7 -7 140.73 30.54
-2 -7 -7 -4.17 13.2
-2 7 -7 18.57 10.31
-2 7 -7 48.64 31.35
2 7 7 3.58 13.46
-3 -7 -7 438.52 55.99
-3 7 -7 386.41 52.76
-4 -7 -7 197.53 46.03
-4 -7 -7 103.94 42.42
-4 7 -7 110.84 46.03
5 -8 -7 143.58 35.42
-4 -8 7 -4.9 21.88
4 -8 -7 -10.86 19.35
4 8 -7 -21.72 16.82
-3 -8 7 201.46 38.92
3 -8 -7 199.78 30.97
3 -8 -7 259.62 40.51
-3 -8 7 115.59 38.08
3 8 -7 154.67 34.07
3 8 -7 139.85 31.97
-2 -8 7 212.27 47.66
2 -8 -7 284.02 43.23
2 -8 -7 356.7 38.22
2 8 -7 298.74 40.6
2 8 -7 228.78 42.05
-1 -8 7 239.6 46.08
1 -8 -7 191.2 40.77
1 -8 -7 224.92 35.1
1 8 -7 229.38 36.3
0 -8 -7 50.26 22.56
0 -8 7 50.26 22.56
0 8 -7 42.46 18.27
0 8 7 66.21 21.7
0 8 -7 34.05 16.73
-1 -8 -7 416.32 53.44
1 8 7 322.69 40.79
-1 8 -7 278.51 33.56
-1 8 -7 431.02 44.26
-1 8 -7 369.17 35.6
-2 -8 -7 248.71 48.4
2 8 7 376.23 46.65
-3 -8 -7 136.15 38.96
3 8 7 233.1 42.04
-4 -8 -7 23.69 47.92
4 -9 -7 235.14 45.68
3 -9 -7 369.67 54.33
-3 -9 7 389.31 57.27
3 9 -7 411.4 58.01
2 -9 -7 31.77 20.46
2 -9 -7 57.22 22.29
-2 -9 7 45.24 22.54
2 9 -7 22.29 21.04
-1 -9 7 12.83 23.39
1 -9 -7 26.41 18.86
1 9 -7 10.31 13.67
1 9 -7 60.36 22.13
0 -9 -7 206.37 40.31
0 -9 7 187.94 43.73
0 9 -7 294.59 39.89
0 9 -7 240.89 35.78
1 -9 7 207.98 73.81
-1 -9 -7 146.38 47.07
-1 9 -7 80.7 24.5
1 9 7 144.22 30.14
-2 -9 -7 -19.42 21.71
2 9 7 30.77 20.32
3 -10 -7 -5.51 28.18
2 -10 -7 -3.16 27.01
-2 -10 7 3.33 34.8
2 10 -7 10.55 23.36
1 -10 -7 90.08 35.72
-1 -10 7 101.28 35.23
1 10 -7 34.66 22.48
0 -10 -7 79.9 30.07
0 -10 7 138.06 37.5
0 10 -7 179 31.7
1 10 7 26.24 23.08
2 11 -7 23.85 36.01
1 11 -7 194.04 41.29
0 11 -7 152.82 49.45
6 0 -8 62.28 20.33
5 0 -8 82.87 24.34
5 0 -8 3.4 21.27
5 0 -8 59.47 16
4 0 -8 1388.33 68.88
4 0 -8 1302.01 77.07
3 0 -8 311.22 31.85
2 0 -8 169.48 24.6
-2 0 8 95.79 19.16
1 0 -8 1210.02 71.61
-1 0 8 1205.37 69.01
0 0 -8 2138.82 98.41
0 0 -8 2240.57 108.33
0 0 8 2222.58 107.04
-1 0 -8 -5.04 10.64
-1 0 -8 3.12 6.97
1 0 8 23.39 11.74
-2 0 -8 915.55 64.14
-2 0 -8 820.68 68.37
-3 0 -8 234.81 31.24
-3 0 -8 187.87 38.05
-3 0 -8 274.51 43.8
-4 0 -8 142.57 27.76
6 -1 -8 440.15 49.81
6 1 -8 338.41 54.46
6 1 -8 375.17 33.59
5 -1 -8 65.76 24.73
5 -1 -8 77.49 17.17
5 1 -8 72.73 25.24
5 1 -8 102.73 20.99
4 -1 -8 330.09 41.08
4 -1 -8 254.19 28.59
4 1 -8 348.82 31.14
4 1 -8 266.24 29.64
3 -1 -8 908.03 57.99
3 1 -8 953.1 58.8
3 1 -8 941.63 56.27
-2 -1 8 541.58 38.63
2 -1 -8 478.13 42.77
-2 1 8 446.4 34.4
2 1 -8 459.27 40.74
-1 -1 8 741.83 52.02
1 -1 -8 700.37 53.88
1 -1 -8 711.04 49.7
-1 1 8 651.78 49.24
1 1 -8 691.66 52.3
0 -1 -8 6.76 7.78
0 -1 8 32.6 11.67
0 1 -8 20.84 11.58
0 1 8 21.67 13.89
0 1 -8 38.71 12.41
-1 -1 -8 757.66 56.68
-1 -1 -8 868.64 63.18
-1 1 -8 929.44 64.19
-1 1 -8 791.9 61.62
-1 1 -8 904.53 59.24
-2 -1 -8 881.81 63.96
-2 -1 -8 842.16 70.33
2 -1 8 627.13 60.28
-2 1 -8 784.3 57.86
-2 1 -8 854.09 60.46
-2 1 -8 917.87 70.15
-3 -1 -8 126.87 27.89
-3 -1 -8 142.02 36.34
-3 1 -8 217.66 43.56
-3 1 -8 151.7 29.63
-3 1 -8 119.29 29.98
-4 -1 -8 50.06 29.82
-4 -1 -8 133.38 26.29
-4 1 -8 171.78 31.08
-4 1 -8 159.76 43.84
4 1 8 114.91 27.55
6 -2 -8 16.57 22.5
6 2 -8 20.14 17.05
6 2 -8 -3.41 19.09
5 -2 -8 203.43 26.32
5 2 -8 256.39 29.79
5 2 -8 196.23 26.74
5 2 -8 229.06 46.45
4 -2 -8 312.03 43.44
4 -2 -8 322.45 33.81
4 2 -8 283.31 31.27
4 2 -8 294.87 28.38
3 -2 -8 905.94 59.17
3 2 -8 878.15 48.02
3 2 -8 862.68 56.47
2 -2 -8 191.42 27.56
2 -2 -8 160.11 25.54
-2 -2 8 183.09 24.26
-2 2 8 178.05 22.52
2 2 -8 182.99 25.45
-1 -2 8 3022.04 125.08
1 -2 -8 3083.81 124.34
1 -2 -8 2922.35 131.08
1 2 -8 2964.45 128.04
-1 2 8 2967.86 125.45
0 -2 -8 392.31 41.48
0 -2 8 366.4 39.46
0 2 -8 381.06 38.9
0 2 8 364.01 39.92
0 2 -8 387.88 35.12
0 2 -8 357.83 35.03
-1 -2 -8 55.6 16.77
-1 2 -8 35.46 14.49
-1 2 -8 50.95 18.69
-1 2 -8 49.31 16.59
-2 -2 -8 495.93 48.4
-2 -2 -8 612.12 54.39
2 -2 8 491.37 53.85
-2 2 -8 565.68 55.1
2 2 8 611.49 49.83
-2 2 -8 545.59 46.88
-2 2 -8 587.74 49.65
-3 -2 -8 358.33 81.38
-3 -2 -8 394.51 51.62
-3 2 -8 334.03 36.36
-3 2 -8 364.58 48.76
3 2 8 309.04 38.61
-4 -2 -8 56.88 24.51
-4 -2 -8 106.08 26.35
-4 2 -8 77.38 27.11
4 2 8 46.34 22.17
-4 2 -8 47.1 18.99
5 2 8 76.05 25.49
6 -3 -8 306.26 41.22
6 3 -8 226.39 51.07
6 3 -8 286.57 36.07
5 -3 -8 197.17 27.32
5 3 -8 128.58 23.53
5 3 -8 140.69 37.99
4 -3 -8 23.83 14
4 3 -8 50.08 17.39
4 3 -8 12.17 14.52
-3 -3 8 322.87 30.98
3 -3 -8 245.57 31.42
3 -3 -8 319.48 34.37
3 3 -8 302.25 33.12
2 -3 -8 181.06 27.17
-2 -3 8 170.07 25.89
2 -3 -8 245.83 31.53
2 3 -8 186.06 27.35
-2 3 8 206.23 25.62
1 -3 -8 94.81 21.8
1 -3 -8 124.4 28.58
-1 -3 8 69.34 19.15
-1 3 8 102.87 23.64
1 3 -8 115.51 16.49
1 3 -8 101.22 23.82
0 -3 -8 1048.18 73.82
0 -3 8 1138.92 72.35
0 -3 -8 1132.79 69.88
0 3 -8 1126.2 63.57
0 3 -8 1095.74 70.71
0 3 8 1108.55 75.19
-1 -3 -8 416.05 47.76
-1 3 -8 541.62 47.22
-1 3 -8 503.89 46.68
-1 3 -8 470.07 40.62
-2 -3 -8 241.05 35.38
2 3 8 256.66 35.11
-2 3 -8 246.55 32.81
-2 3 -8 335.47 42.47
-2 3 -8 257.81 31.48
-3 -3 -8 42.22 17.15
-3 -3 -8 2.41 18.96
-3 3 -8 32.14 19.56
3 3 8 35.84 16.11
-3 3 -8 36.79 20.59
-3 3 -8 29.04 16.8
-4 -3 -8 780.12 60.83
-4 -3 -8 742.89 77.45
-4 3 -8 718.54 53.6
4 3 8 710.9 61.82
-4 3 -8 592.9 63.98
-4 3 -8 862.89 79.69
6 -4 -8 77.72 25.51
5 -4 -8 180.33 28.98
5 -4 -8 150.11 30.97
5 4 -8 186.74 37.22
5 4 -8 186.66 43.29
4 -4 -8 362.9 41.76
4 -4 -8 459.5 42.11
4 4 -8 419.64 39.26
4 4 -8 405.26 49.5
3 -4 -8 39.32 16.61
3 -4 -8 50.36 16.35
-3 -4 8 34.9 12.46
-3 -4 8 32.87 15.38
3 4 -8 42.33 15.82
-2 -4 8 204.79 30.21
2 -4 -8 218.73 29.31
2 -4 -8 203.09 30.66
-2 -4 8 241.2 35.24
-2 4 8 252.71 27.96
2 4 -8 194.37 29.76
-1 -4 8 1075.82 69.7
1 -4 -8 1028.15 67.25
1 -4 -8 1090.96 75.13
-1 4 8 1067.39 71.15
1 4 -8 964.07 48.85
1 4 -8 1071.1 70.24
0 -4 -8 339.03 41.09
0 -4 -8 402.85 44.81
0 4 -8 353.7 32.4
0 4 -8 301.39 37.56
0 4 8 399.59 44.26
-1 -4 -8 69.11 22.47
-1 -4 -8 105.02 28.74
-1 4 -8 109.94 25.79
1 4 8 133.67 25.34
1 4 8 100.72 28.38
-1 4 -8 111.02 20.77
-2 -4 -8 701.47 64.24
-2 4 -8 648.73 49.49
-2 4 -8 643.29 59.06
2 4 8 790.2 59.15
-2 4 -8 684.18 55.11
-3 -4 -8 355.43 45.73
-3 -4 -8 362.6 52.81
-3 4 -8 355.69 52.3
3 4 8 477.77 48.8
-3 4 -8 483.31 44.53
-4 -4 -8 92.62 29.39
-4 -4 -8 88.59 39.93
4 4 8 135.67 39.11
-4 4 -8 119.54 24.95
-4 4 -8 117.4 41.24
5 -5 -8 57.66 22.62
5 5 -8 52.81 21.88
5 5 -8 49.68 24.6
4 -5 -8 319.95 39.29
4 -5 -8 325.05 65.13
4 5 -8 203.81 45.49
4 5 -8 344.19 38.78
3 -5 -8 420.21 44.65
-3 -5 8 381.67 40.04
3 -5 -8 464.61 43.26
-3 -5 8 441.5 42.65
3 5 -8 346.6 38.55
3 5 -8 387.51 48.75
2 -5 -8 938.15 69.91
-2 -5 8 927.87 64.49
2 -5 -8 805.88 59.88
-2 -5 8 966.19 72.39
2 5 -8 1003.18 68.04
-2 5 8 966.72 59.79
1 -5 -8 211.22 40.51
1 5 -8 292.69 34.61
-1 5 8 285.53 38.01
0 -5 -8 136.72 29.03
0 -5 8 131.99 25.01
0 -5 -8 238.43 35.01
0 5 -8 124.76 29.29
-1 -5 -8 511.3 53.89
-1 5 -8 444.5 38.79
1 5 8 488.23 46.12
-1 5 -8 494.77 45.23
-1 5 -8 491.15 51.33
-2 -5 -8 452.79 54.06
-2 5 -8 476.78 46
-2 5 -8 495.24 42.63
2 5 8 476.1 47.65
-2 5 -8 533.45 53.37
-3 -5 -8 26.8 18.63
-3 5 -8 -8.76 19.81
-3 5 -8 32.03 14.75
-3 5 -8 31.52 19.13
3 5 8 25.45 15.51
-4 -5 -8 68.91 28.56
-4 -5 -8 80.14 32.71
4 5 8 2.93 23.11
-4 5 -8 48.73 28.72
5 -6 -8 166.06 27.65
5 -6 -8 200.2 35.11
5 6 -8 211.55 37.38
4 -6 -8 631.55 55.78
4 -6 -8 473.16 48.16
4 6 -8 660.53 55.7
4 6 -8 584.98 63.66
3 -6 -8 22.67 17.09
-3 -6 8 55.99 21.99
-3 -6 8 24.73 19.15
3 -6 -8 33.32 19.32
3 6 -8 28 19.67
3 6 -8 14.43 12.8
-2 -6 8 183.97 37.55
2 -6 -8 190.09 36.15
2 -6 -8 119.8 28.21
2 6 -8 111.68 24.1
-1 -6 8 270.77 40.48
1 -6 -8 192.19 58.08
1 -6 -8 242.08 33.97
1 6 -8 289.96 35.38
-1 6 8 273.15 42.42
0 -6 -8 520.07 55.62
0 6 -8 575 40.17
0 6 -8 530.36 50.18
0 6 8 546.35 59.84
-1 -6 -8 145.84 34.27
-1 6 -8 149.06 30.7
-1 6 -8 170.28 27.83
-1 6 -8 134.71 24.61
1 6 8 168.28 33.22
-2 -6 -8 540.49 59.38
-2 6 -8 588.95 53.75
-2 6 -8 504.74 42.32
-2 6 -8 564.89 55.88
2 6 8 562.41 53.83
-3 -6 -8 212.71 45
-3 6 -8 252.57 47.82
3 6 8 252.4 61.11
-3 6 -8 192.46 34.21
-4 -6 -8 55.82 32.89
-4 6 -8 101.71 46.92
5 -7 -8 340.5 47.44
4 -7 -8 6.59 17.7
4 7 -8 -25.93 17.78
4 7 -8 -14.49 15.97
3 -7 -8 545.05 50.27
-3 -7 8 423.67 54.48
3 -7 -8 509.29 53.81
3 7 -8 584.27 60.05
3 7 -8 504.56 53.3
2 -7 -8 300.99 43.55
2 -7 -8 324.39 40.04
-2 -7 8 389.54 50.83
2 7 -8 205.15 41.41
2 7 -8 341.63 41.33
-1 -7 8 247.92 45.78
1 -7 -8 279.97 43.36
1 7 -8 216.47 33.87
1 7 -8 197.64 47.68
0 -7 -8 79.8 27.78
0 7 -8 113.27 27.78
-1 -7 -8 828.58 76.94
-1 7 -8 955.66 61.65
-1 7 -8 788.79 65.75
1 7 8 1002.53 70.02
-1 7 -8 771.54 55.59
-2 -7 -8 150.11 34.53
-2 7 -8 86.5 23.47
-2 7 -8 143.15 26.49
-2 7 -8 186.15 35.54
2 7 8 134.94 27.49
-3 -7 -8 83.08 42.19
3 7 8 84.39 27.51
-3 7 -8 47.82 31.67
-3 7 -8 78.02 25.06
-4 -7 -8 3.24 33.85
4 -8 -8 142.3 32.21
-3 -8 8 111.76 32.49
3 -8 -8 118.29 31.5
3 -8 -8 79.19 28.11
3 8 -8 83.32 28.93
3 8 -8 102.25 31.66
2 -8 -8 43.24 21.58
-2 -8 8 43.83 26.88
2 8 -8 5.96 15.54
-1 -8 8 714.63 76.39
1 -8 -8 703.21 71.23
1 8 -8 617.17 59.13
1 8 -8 665.39 61
0 -8 -8 122.01 30.93
0 8 -8 144.23 31.94
0 8 -8 72.75 22.31
-1 -8 -8 105.58 30.37
-1 8 -8 77.13 21.17
1 8 8 38.32 16.9
-1 8 -8 76.88 24.01
-1 8 -8 39.74 22.84
-2 -8 -8 10.11 20.46
-2 8 -8 39.35 22.59
2 8 8 36.97 22.43
-3 -8 -8 36.34 47.62
4 -9 -8 64.06 28.28
-3 -9 8 91.35 36.14
3 -9 -8 115.04 43
3 9 -8 165.15 40.41
-2 -9 8 311.37 57.46
2 -9 -8 354.64 52.54
2 9 -8 222.63 46.71
2 9 -8 368.43 48.84
-1 -9 8 -1.08 25.47
1 -9 -8 -2.07 18.69
1 9 -8 -5.46 16.95
1 9 -8 -0.83 14.14
0 -9 8 287.14 54.75
0 -9 -8 360.47 55.74
0 9 -8 396.23 46.32
0 9 -8 477.98 56.81
-1 -9 -8 67.39 30.35
-1 9 -8 85.31 25.85
-1 9 -8 115.16 30.84
1 9 8 88.25 35.99
-3 -10 8 -12.94 38.98
-2 -10 8 114.45 44.29
2 10 -8 140.24 35.16
-1 -10 8 169.61 55
1 10 -8 88.31 28.63
0 10 -8 26.34 26.59
1 11 -8 -5.5 36.68
6 0 -9 20.01 20.33
5 0 -9 -3.86 10.58
5 0 -9 24.6 22.84
4 0 -9 26.3 13.54
4 0 -9 50.43 20.83
3 0 -9 225.09 28.41
-2 0 9 111.55 22.91
2 0 -9 135.09 27.17
1 0 -9 1589.21 89.12
-1 0 9 1545.6 86.11
0 0 -9 1061.08 71.36
0 0 9 1080.02 72.99
1 0 9 43.36 16.55
-1 0 -9 30.5 15.29
-2 0 -9 20.44 16.65
-2 0 -9 27.76 16.74
-3 0 -9 283.43 43.9
-3 0 -9 267.08 37.4
-4 0 -9 -8.42 24.01
-4 0 -9 110.24 27.89
6 -1 -9 352.77 53.41
6 1 -9 288.8 42.77
6 1 -9 384.34 57.35
5 -1 -9 268.99 32.62
5 1 -9 372.97 36.48
5 1 -9 389.15 51.06
5 1 -9 362.57 45.11
4 -1 -9 82.87 20.98
4 -1 -9 94.4 27.57
4 1 -9 81.74 19.68
4 1 -9 100.12 20.55
3 -1 -9 430.05 40.81
3 1 -9 453.79 42.15
-2 -1 9 444.53 48.82
2 -1 -9 693.51 53.52
2 -1 -9 488.29 45.56
2 1 -9 747.04 54.6
-2 1 9 585.84 44.03
1 -1 -9 435.91 43.27
-1 -1 9 349.56 38.62
1 1 -9 444.92 42.63
-1 1 9 422.61 43.63
0 -1 9 156.58 30.99
0 1 9 117.69 26.72
0 1 -9 121.87 28.72
-1 -1 -9 236.05 33.51
1 -1 9 234.7 35.12
-1 -1 -9 209.83 32.7
-1 1 -9 218.27 32.88
-1 1 -9 216.57 31.26
1 1 9 215.49 40.6
-2 -1 -9 108.57 28.16
-2 -1 -9 90.7 24.81
-2 1 -9 35.63 20.24
-2 1 -9 88.77 24.46
-3 -1 -9 357.13 52.3
-3 -1 -9 406.86 46.83
-3 1 -9 466.43 56.14
-3 1 -9 422.93 45.29
-4 -1 -9 -22.99 25.79
-4 -1 -9 24.31 19.53
-4 1 -9 -3.46 20.11
-4 1 -9 14.09 18.38
6 -2 -9 13.48 26.73
6 2 -9 50.39 36.76
6 2 -9 68.45 23.6
5 -2 -9 52.53 17.12
5 2 -9 75.74 27.39
5 2 -9 78.5 20.96
5 2 -9 63.72 21.05
4 -2 -9 684.21 51.53
4 2 -9 524.1 43.5
4 2 -9 717.7 50.92
3 -2 -9 581.21 49.92
3 2 -9 666.81 52.22
3 2 -9 590.95 40.01
2 -2 -9 72 21.96
2 -2 -9 83.07 21.6
-2 -2 9 90.54 19.71
-2 2 9 86.94 18.72
2 2 -9 54.9 17.1
1 -2 -9 329.84 40.62
-1 -2 9 256.32 34.19
1 -2 -9 275.36 35.18
-1 2 9 308.73 37
1 2 -9 287.42 35.73
0 -2 -9 1181.18 78.35
0 2 9 989.56 74.46
0 2 -9 1112.51 74
0 2 -9 1075.96 67.94
1 -2 9 465.09 50.88
-1 -2 -9 533.14 48.28
-1 -2 -9 410.09 47.39
1 2 9 539.76 54.9
-1 2 -9 516.15 49.63
-1 2 -9 477.7 47.12
-2 -2 -9 181.15 34.6
-2 2 -9 202.7 31.1
-2 2 -9 166.17 29.52
-2 2 -9 143.13 32.41
-3 -2 -9 311.14 50.29
-3 -2 -9 384.41 46.12
-3 2 -9 274.55 51.99
-3 2 -9 344.07 41.11
-4 -2 -9 181.47 45.71
-4 -2 -9 254.19 40.06
-4 2 -9 144.86 43.17
-4 2 -9 230.06 38.74
6 -3 -9 153.73 35.25
6 3 -9 198.07 35.73
5 -3 -9 960.53 62.3
5 3 -9 978.69 87.85
5 3 -9 983.42 64.95
4 -3 -9 86.23 25.2
4 3 -9 137.74 28.46
3 -3 -9 865.88 60.9
-3 -3 9 706.38 48.42
-3 -3 9 661.21 42.19
3 -3 -9 662.26 53.87
3 3 -9 722.47 55.8
2 -3 -9 842.72 59.85
2 -3 -9 796.26 63.16
-2 -3 9 770.35 56.01
-2 3 9 867.55 55.83
2 3 -9 933.31 64.05
1 -3 -9 332.6 38.16
-1 -3 9 239.01 35.1
1 -3 -9 302.19 39.87
1 3 -9 359.96 39.96
-1 3 9 323.78 39.96
1 3 -9 314.25 30.15
0 -3 -9 153.73 30.35
0 -3 -9 162.35 33.14
0 3 -9 130.48 27.75
0 3 -9 180.67 25.86
-1 -3 -9 146.55 36.58
-1 3 -9 124.63 38.17
-1 3 -9 184.02 28.76
-2 -3 -9 491.58 52.44
-2 3 -9 523.85 50.62
-2 3 -9 588.2 56.53
-3 -3 -9 269.12 40.91
-3 -3 -9 303.85 49.53
-3 3 -9 238.85 35.92
-3 3 -9 215.78 40.66
-3 3 -9 232.43 45.55
3 3 9 160.93 31.53
-4 -3 -9 60.5 22.75
-4 -3 -9 -3.02 28.54
4 3 9 23.89 21.53
-4 3 -9 45.49 23.32
-4 3 -9 15.82 25.52
6 -4 -9 65.52 24.74
6 4 -9 49.95 26.24
5 -4 -9 26.55 20.47
5 4 -9 25.15 20.14
5 4 -9 -1.97 21.78
4 -4 -9 1068.36 69.26
4 4 -9 1012.34 86.24
4 4 -9 957 70.2
-3 -4 9 901.97 55.42
-3 -4 9 923.98 59.25
3 -4 -9 940.6 67.95
3 -4 -9 803.13 58.72
3 4 -9 860.73 63.86
-2 -4 9 368.03 38.82
2 -4 -9 339.99 39.26
2 -4 -9 339.73 42.89
2 4 -9 348.31 40.24
-2 4 9 414 38.91
1 -4 -9 148.11 30.82
1 -4 -9 147.75 31.8
1 4 -9 134.3 31.09
-1 4 9 144.72 30.46
1 4 -9 153.9 19.77
0 -4 9 759.24 64.96
0 -4 -9 657.22 80.07
0 4 -9 554.75 66.48
0 4 -9 783.95 52.7
-1 -4 -9 638.12 64.06
-1 4 -9 603.41 56.23
-1 4 -9 720.28 58.87
-2 -4 -9 28.42 16.71
-2 4 -9 21.79 18.17
2 4 9 69.75 20.41
-2 4 -9 56.75 21.27
-3 -4 -9 270.76 49.81
-3 -4 -9 366.11 48.14
3 4 9 384.95 46.21
-3 4 -9 355.15 42.78
-3 4 -9 401.94 51.99
-3 4 -9 400.44 52.82
-4 -4 -9 130.16 31.35
4 4 9 84.76 34.91
-4 4 -9 88.07 25.54
-4 4 -9 92.6 42.58
5 -5 -9 154.81 35.09
5 5 -9 106.24 38.75
5 5 -9 115.99 30.62
4 -5 -9 -17.11 16.1
4 5 -9 6.62 21.13
4 5 -9 -27.25 11.57
-3 -5 9 62.11 22.6
3 -5 -9 59.36 20.79
3 -5 -9 73.96 23.2
-3 -5 9 68.64 20.1
3 5 -9 69.41 21.74
-2 -5 9 930.2 73.32
2 -5 -9 829.47 62.93
2 -5 -9 965.99 74.1
2 5 -9 871.46 66.77
-1 -5 9 160.51 30.24
1 -5 -9 231.62 52.39
-1 5 9 280.06 43.34
1 5 -9 139.76 17.76
1 5 -9 179.59 35.52
0 5 -9 17.02 9.74
0 5 9 -11.05 20.79
0 5 -9 -4.83 8.77
-1 -5 -9 262.07 40.86
-1 5 -9 303.45 36.61
-1 5 -9 275.17 37.91
-2 -5 -9 34.45 20.33
2 5 9 41.42 19.31
-2 5 -9 80.37 25.26
-2 5 -9 75.52 21.52
-3 -5 -9 258.41 43.92
-3 5 -9 244.68 43.09
-3 5 -9 262.96 43.26
3 5 9 220.94 42.68
-4 -5 -9 112.62 42.57
-4 5 -9 39.86 25.24
5 -6 -9 112.75 32.76
5 6 -9 128.2 33.16
4 -6 -9 168.14 33.05
4 6 -9 158.63 39.99
4 6 -9 179.13 37.35
-3 -6 9 68.7 25.22
3 -6 -9 81.9 25.64
-3 -6 9 50.68 26.15
3 6 -9 51.52 23.69
3 6 -9 78.77 23.44
-2 -6 9 122.9 31.63
2 -6 -9 90.84 28.96
-2 -6 9 150.39 39.71
2 6 -9 91.7 27.25
1 -6 -9 404.37 51.57
1 6 -9 432.59 45.69
0 -6 -9 638.36 65.37
0 6 -9 565.55 41.02
0 6 -9 493.88 51.38
-1 -6 -9 65.26 28.28
-1 6 -9 30.16 18.2
-1 6 -9 49.97 19.91
-2 -6 -9 -4.69 15.42
-2 6 -9 -23.96 11.81
-2 6 -9 -1.59 20.86
2 6 9 3.1 12.82
-3 -6 -9 93.35 37.75
3 6 9 61.96 27.48
-3 6 -9 115.61 28.94
-3 6 -9 128.07 36.53
-4 -6 -9 1.5 36.79
4 -7 -9 35.42 20.79
4 7 -9 29.65 35.09
4 7 -9 12.35 23.88
-3 -7 9 53.04 29.02
3 -7 -9 81.39 27.6
-3 -7 9 106.75 38.99
3 7 -9 71.24 26.19
3 7 -9 32.43 22.03
2 -7 -9 322.02 46.51
-2 -7 9 270.37 50.56
2 7 -9 360.01 45.49
2 7 -9 334.6 44.99
1 -7 -9 181.01 39.18
1 7 -9 249.93 36.12
-1 7 9 275.42 52
0 -7 -9 40.71 20.02
0 7 -9 11.28 15.78
-1 -7 -9 137.36 34.66
-1 7 -9 178.06 33.65
-1 7 -9 92.64 29.12
-1 7 -9 165.31 31.05
-2 -7 -9 119.89 32.69
-2 7 -9 182.54 39.28
-2 7 -9 90.16 29.97
2 7 9 114.53 32.03
-3 -7 -9 42 27.9
-3 7 -9 36.56 24.77
-3 7 -9 5.37 31.11
4 -8 -9 154 39.76
3 -8 -9 115.73 34.89
-3 -8 9 98.29 36.11
3 8 -9 87.7 33.01
3 8 -9 154.2 36.52
2 -8 -9 -33.17 19.44
-2 -8 9 -25.73 28.13
2 8 -9 26.97 40.37
2 8 -9 68.91 26.72
1 -8 -9 83.27 32.81
-1 -8 9 73.19 32.81
1 8 -9 104.83 30.98
1 8 -9 87.35 30.15
0 -8 -9 105.88 33.08
0 8 -9 110.28 32.41
0 8 -9 150.92 29.5
-1 -8 -9 144.67 37.18
-1 8 -9 103.63 24.51
-1 8 -9 175.6 59.96
-2 8 -9 127.32 30.44
-3 8 -9 106.35 56.87
3 -9 -9 89.78 32.61
-3 -9 9 85.39 41.94
-2 -9 9 157.02 55.17
2 -9 -9 180.88 37.7
2 9 -9 122.79 36
1 -9 -9 364 54.71
-1 -9 9 230.4 49.74
1 9 -9 188.96 39.82
1 9 -9 200.12 39.41
0 -9 9 183.41 50.46
0 -9 -9 86.95 31.86
0 9 -9 94.51 28.61
0 9 -9 114.09 34.86
-1 9 -9 175.53 44.64
-1 9 -9 226.53 38.13
1 10 -9 161.92 59.66
0 10 -9 82.4 33.95
6 0 -10 41.14 32.71
5 0 -10 2.48 14.81
4 0 -10 148.67 27.5
4 0 -10 150.47 35.36
3 0 -10 821.63 61.5
-2 0 10 752.07 54.91
2 0 -10 766.64 59.26
1 0 -10 46.77 17.35
-1 0 10 91.31 25.67
0 0 -10 472.26 47.88
0 0 -10 476.54 47.88
0 0 10 437.39 67.41
-1 0 -10 1488.3 92.5
-2 0 -10 402.97 49.6
-2 0 -10 441.02 46.84
-3 0 -10 150.35 34.28
-3 0 -10 214.12 44.08
-4 0 -10 210.38 38.96
6 -1 -10 113.81 36.24
5 -1 -10 886.97 61.54
5 1 -10 805.68 58.98
4 -1 -10 858.75 84
4 -1 -10 1026.06 67.03
4 1 -10 1024.7 66.17
4 1 -10 905.48 63.1
3 -1 -10 7.08 11.18
3 1 -10 6.03 9.09
-2 -1 10 531.11 45.42
2 -1 -10 565.71 51.37
2 1 -10 654.97 53.5
-2 1 10 550.54 51.55
1 -1 -10 580.98 54.29
-1 -1 10 694.03 57.15
1 -1 -10 707.43 59.29
1 1 -10 670.01 57.42
-1 1 10 620.45 55.81
1 1 -10 595.62 51.7
0 -1 10 249.4 42.66
0 -1 -10 231.24 44.26
0 1 10 239.88 62.68
0 1 -10 253.32 34.02
0 1 -10 168.29 38.02
-1 -1 -10 76.88 24.11
-1 1 -10 24.72 18.65
-1 1 -10 49.87 18.65
-2 -1 -10 460.39 49.79
-2 -1 -10 475.46 56.08
-2 1 -10 521.3 51.95
-2 1 -10 448.93 56.51
-3 -1 -10 232.58 48.04
-3 1 -10 150.64 38.67
-3 1 -10 166.8 33.98
-4 -1 -10 48.59 26.72
-4 1 -10 51.82 27.77
6 -2 -10 28.98 25.26
5 -2 -10 66.23 24.19
5 2 -10 92.24 34.56
5 2 -10 63.68 37.85
4 -2 -10 1.87 11.47
4 2 -10 8.49 12.49
4 2 -10 -1.02 12.49
3 -2 -10 286.18 36.88
3 2 -10 332.1 32.88
3 2 -10 322.18 38.02
-2 -2 10 601.49 49.73
2 -2 -10 602.9 54.68
2 2 -10 559.36 51.23
-2 2 10 768.45 81.09
-1 -2 10 77.88 24.9
1 -2 -10 112.74 27.47
-1 2 10 53.61 21.16
1 2 -10 131.94 30.41
0 -2 -10 613.82 57.44
0 -2 10 577.3 56.82
0 2 -10 493.87 50.7
0 2 10 463.83 56.29
0 2 -10 591.48 50.17
0 2 -10 637.32 52.12
-1 -2 -10 522.65 54.74
-1 2 -10 481.83 49.13
-1 2 -10 437.25 48.17
-2 -2 -10 167.98 34.41
-2 2 -10 221.16 34.58
-3 -2 -10 90.44 28.93
-3 -2 -10 66.52 31.26
-3 2 -10 109.53 34.35
-3 2 -10 137.03 31.76
-4 -2 -10 251.44 43.01
-4 2 -10 159.37 37.31
6 -3 -10 15.19 27.85
5 -3 -10 179.18 31.15
5 3 -10 184.82 47.08
5 3 -10 133.97 32.05
4 -3 -10 29.86 16.2
4 3 -10 -19.57 13.41
-3 -3 10 48.8 14.77
3 -3 -10 91.81 24.1
-3 -3 10 52.42 17.53
3 3 -10 85.51 37.66
-2 -3 10 424.74 47.27
2 -3 -10 446.58 50.51
-2 3 10 582.07 59.81
2 3 -10 457.1 65.16
1 -3 -10 750.39 76.34
-1 3 10 689.31 62.04
1 3 -10 767.25 62.4
1 3 -10 701.85 47.66
0 -3 -10 -1.85 12.15
0 3 -10 30.54 13.73
0 3 -10 -6.95 6.51
0 3 10 13.91 20.68
0 3 -10 38.9 20.6
-1 -3 -10 59.83 21.48
-1 3 -10 68.79 21.92
-1 3 -10 92.27 25.66
-2 -3 -10 -1.45 13.04
-2 3 -10 24.96 15.85
-2 3 -10 4.94 15.25
-3 -3 -10 98.37 29.48
-3 -3 -10 42.31 26.91
-3 3 -10 48.52 21.03
-3 3 -10 124.69 35.03
-4 -3 -10 24.21 24.21
-4 3 -10 58.32 28.13
5 -4 -10 47.87 25.19
5 4 -10 42.03 22.44
4 -4 -10 9.02 18.55
4 4 -10 33.42 17.71
4 4 -10 28.91 19.13
-3 -4 10 94.68 27.2
-3 -4 10 117.95 29.77
3 -4 -10 122.39 28.74
3 4 -10 111.96 24.55
-2 -4 10 363.04 45.23
2 4 -10 359.48 43.67
-2 4 10 275.69 42.03
1 -4 -10 142.86 33.99
-1 -4 10 73.13 26.04
1 4 -10 111.41 22.11
1 4 -10 131.76 29.01
-1 4 10 53.64 26.04
0 -4 -10 421.19 52.27
0 4 -10 399.93 38.86
0 4 -10 412.13 47.4
-1 -4 -10 227.85 48.74
-1 4 -10 241.2 37.2
-1 4 -10 189.1 36.26
-2 -4 -10 125.56 30.21
-2 4 -10 93.75 26.92
-2 4 -10 82.52 26.5
-3 -4 -10 51.52 30.6
-3 -4 -10 64.31 27.4
-3 4 -10 52.42 28.63
-3 4 -10 62.1 25.19
-4 -4 -10 54.4 32.07
-4 4 -10 45.29 28.91
5 -5 -10 184.39 41.63
5 5 -10 194.32 36.51
4 -5 -10 437.44 52.17
4 5 -10 436.53 46.56
4 5 -10 382.54 56.71
-3 -5 10 76.62 27.46
-3 -5 10 101.62 27.79
3 -5 -10 139.97 29.32
3 5 -10 142.51 30.84
-2 -5 10 226.17 37.47
-2 -5 10 227.89 50.07
2 -5 -10 283.28 43.12
-2 5 10 233.38 38.41
2 5 -10 300.85 40.39
1 -5 -10 504.14 56.42
1 5 -10 510.27 36.32
1 5 -10 449.37 50.2
0 -5 -10 297.24 44.39
0 5 -10 323.13 34.93
0 5 -10 396.77 44.47
-1 -5 -10 4.08 12.42
-1 5 -10 23.81 17.27
-1 5 -10 -6.12 10.8
-2 -5 -10 175.89 35.6
-2 5 -10 201.48 36.85
-2 5 -10 253.58 39.77
-3 -5 -10 72.4 42.4
-3 -5 -10 116.75 36.41
-3 5 -10 84.4 28.62
-3 5 -10 112.78 34.87
5 6 -10 36.48 27.64
4 -6 -10 219.19 39.71
4 6 -10 133.27 37.02
4 6 -10 82.91 36.05
-3 -6 10 722.4 63.08
-3 -6 10 679.71 64.91
3 -6 -10 696.69 68.33
3 6 -10 708.5 71.74
3 6 -10 758.86 64.58
-2 -6 10 143.56 37.5
2 -6 -10 97.37 26.27
2 6 -10 71.86 25.25
1 -6 -10 15.21 17.93
-1 6 10 38.23 34.58
1 6 -10 1.53 11.64
0 -6 -10 205.81 39.06
0 6 -10 316.63 32.2
0 6 -10 254.69 39.83
-1 -6 -10 757.48 73.47
-1 6 -10 776.08 67.1
-1 6 -10 669.1 59.98
-2 -6 -10 87.16 34.09
-2 6 -10 91.76 35.82
-2 6 -10 103.02 28.51
-3 6 -10 86.25 31.34
4 -7 -10 202.42 42.88
4 7 -10 183.87 42.88
-3 -7 10 -5.07 28.72
3 -7 -10 24.54 21.27
3 7 -10 -3.19 18.57
3 7 -10 3.27 23.32
-2 -7 10 206.95 45.97
2 -7 -10 170.6 37.84
2 7 -10 187.7 38.75
2 7 -10 149.44 34.19
1 -7 -10 473.42 58.76
-1 -7 10 441.55 64.52
1 7 -10 400.06 53.5
0 -7 -10 450.62 60.19
0 7 -10 447.46 53.94
0 7 -10 460.86 38.13
-1 -7 -10 51.54 24.95
-1 7 -10 11.69 34.83
-1 7 -10 30.14 23.47
-2 7 -10 293.17 49.67
-2 7 -10 396.23 51.69
-3 7 -10 148.61 35.47
4 -8 -10 98.45 35.41
3 -8 -10 221.91 44.12
-3 -8 10 176.66 47.41
2 -8 -10 175.39 38.24
-2 -8 10 173.11 47.51
2 8 -10 237.71 49.21
2 8 -10 195.41 37.83
1 -8 -10 54.33 30.28
-1 -8 10 -4.09 30.28
1 8 -10 28.72 19.39
1 8 -10 11.21 19.39
0 -8 -10 185.34 40.65
0 8 -10 218.47 38.44
0 8 -10 201.09 43.74
-1 8 -10 42.38 22.85
-1 8 -10 27.53 24.87
-2 8 -10 111.88 37.16
-3 -9 10 -25.29 47.34
-2 -9 10 70.44 38.84
2 9 -10 45.84 41.22
1 9 -10 12.41 48.74
0 9 -10 50.13 32.98
1 10 -10 75.33 60.4
5 0 -11 -18.63 18.39
4 0 -11 -25.42 21.98
3 0 -11 16.31 18.45
-2 0 11 144 27.6
2 0 -11 149.92 32.22
1 0 -11 480.54 49.81
0 0 -11 103.64 26.52
-1 0 -11 31.02 15.85
-1 0 -11 16.37 14.13
-2 0 -11 15.86 16.7
-2 0 -11 27.34 15.61
-3 0 -11 116.88 35.25
-3 0 -11 200.64 41.39
-4 0 -11 27.36 32.18
5 1 -11 210.03 34.21
4 -1 -11 272.82 45.15
4 1 -11 348.88 48.58
4 1 -11 365.13 41.05
3 -1 -11 156.48 42.93
3 1 -11 143.28 30.17
2 -1 -11 36.78 17.48
-2 -1 11 12.17 18.43
-2 1 11 25.65 18.35
2 1 -11 47.72 15.82
1 -1 -11 581.52 55.33
1 1 -11 609.32 56.3
0 -1 -11 231.19 36.42
0 1 -11 256.46 37.2
-1 -1 -11 3.36 14.63
-1 1 -11 8.78 13.08
-1 1 -11 0 14.63
-2 -1 -11 25.44 20.64
-2 -1 -11 57.2 19.55
-2 1 -11 24.6 21.57
-2 1 -11 57.28 23.09
-3 -1 -11 10.31 19.4
-3 -1 -11 4.99 18.25
-3 1 -11 19.24 26.93
-3 1 -11 20.63 21.94
-4 -1 -11 24.88 32.38
-4 1 -11 49.27 57.33
5 -2 -11 29.3 33.75
5 2 -11 6.07 21.53
5 2 -11 47.34 28.41
4 2 -11 112.04 21.94
4 2 -11 81.92 24.28
3 -2 -11 129.37 33.2
3 2 -11 172.81 35.16
-2 -2 11 196.43 35.24
2 -2 -11 258.24 38.87
2 2 -11 363.76 40.78
-2 2 11 307.32 41.73
1 -2 -11 152.77 33.95
-1 -2 11 68.85 28.73
1 2 -11 132.92 27.16
0 -2 -11 74.6 23.16
0 2 -11 81.45 27.5
0 2 -11 100.62 27.67
-1 -2 -11 213.24 40.78
-1 2 -11 264.21 40.44
-1 2 -11 304.04 43.26
-2 -2 -11 728.86 72.99
-2 -2 -11 742.62 67.54
-2 2 -11 674.58 65.44
-2 2 -11 552.41 63.34
-3 -2 -11 90.75 35.39
-3 2 -11 80.72 30.9
-3 2 -11 98.82 31.07
-4 -2 -11 114.16 39.57
-4 2 -11 62.15 66.32
5 -3 -11 42.7 30.64
5 3 -11 70.44 25.01
4 -3 -11 1257.89 84.11
4 3 -11 1261.95 84.86
-3 -3 11 361.13 41.36
-3 -3 11 401.04 42.96
3 3 -11 495.96 49.32
2 -3 -11 71.09 21.49
-2 -3 11 27.25 22.52
-2 3 11 126.88 32.84
2 3 -11 37.23 19.52
2 3 -11 62.75 15.13
1 -3 -11 320.32 45.72
1 3 -11 307.87 33.88
1 3 -11 271.31 39.85
0 -3 -11 327.56 46.08
0 3 -11 390.17 47.02
0 3 -11 466.75 44.53
-1 -3 -11 190.58 39.4
-1 3 -11 208.62 37.78
-1 3 -11 213.97 39.31
-2 -3 -11 24.92 27.34
-2 3 -11 99.68 32.51
-2 3 -11 78.26 28.92
-3 -3 -11 166.3 39.21
-3 3 -11 95.02 33.05
-3 3 -11 199.92 49.49
-4 3 -11 15.4 41.2
5 -4 -11 77.79 29.89
5 4 -11 90.62 31.56
4 -4 -11 48.68 22.5
4 4 -11 19.05 18.89
-3 -4 11 357.78 45.33
-3 -4 11 297.25 43.4
3 4 -11 362.15 45.75
-2 -4 11 127.95 36.01
2 -4 -11 177.24 37.46
-2 4 11 151.79 34.48
2 4 -11 202.1 38.65
1 -4 -11 69.58 28.42
1 4 -11 62.14 18.66
-1 4 11 73.01 32.53
1 4 -11 103.14 28.08
0 -4 -11 33.1 19.02
0 4 -11 53.9 20.22
0 4 -11 40.52 17.83
-1 -4 -11 598.22 66.15
-1 4 -11 531.39 56.54
-1 4 -11 540.41 57.05
-2 4 -11 532.55 61.1
-2 4 -11 469.46 55.73
-3 -4 -11 16.54 25.45
-3 4 -11 93.52 34.36
-3 4 -11 60.2 25.77
5 5 -11 56.65 29.08
4 -5 -11 207.48 41.3
4 5 -11 275.64 43.25
4 5 -11 164.39 59.39
-3 -5 11 140.24 31.52
-3 -5 11 164.88 34.59
3 -5 -11 148.21 38.9
3 5 -11 141.9 35.17
2 -5 -11 -3.62 19.34
-2 -5 11 -15.73 21.36
2 5 -11 -2.35 14.89
-2 5 11 54.07 31.28
1 -5 -11 758.1 72.19
1 5 -11 698.51 63.65
1 5 -11 680.75 45.22
0 -5 -11 243.65 46.5
0 5 -11 175.74 36.74
0 5 -11 155.35 28.23
-1 -5 -11 56.27 25.48
-1 5 -11 125.7 30.64
-1 5 -11 25.48 25.31
-2 -5 -11 20.89 23.42
-2 5 -11 38.68 23.5
-2 5 -11 -1.06 24.64
-3 5 -11 48.49 26.19
4 -6 -11 17.2 27.76
4 6 -11 11.76 28.16
3 -6 -11 21.66 20.52
-3 -6 11 43.56 29.02
3 6 -11 -41.27 19.37
3 6 -11 -24.93 15.53
-2 -6 11 125.19 37.95
2 -6 -11 180.62 38.94
-2 6 11 24.2 42
2 6 -11 137.04 34.06
1 -6 -11 239.19 49.88
1 6 -11 177.81 39.15
0 -6 -11 23 20.09
0 6 -11 45.9 29.72
0 6 -11 13.7 22
-1 -6 -11 58.58 28.88
-1 6 -11 12.55 25.44
-1 6 -11 51.19 23.63
-2 6 -11 1.53 22.6
-2 6 -11 55.01 32.18
4 -7 -11 91.68 41.23
-3 -7 11 38.5 37.46
3 -7 -11 54.01 29.42
2 -7 -11 39.34 29.32
-2 -7 11 31.36 30.06
2 7 -11 16.78 25.25
2 7 -11 -12.54 19.96
1 -7 -11 58.85 31.93
-1 -7 11 7.94 48.21
1 7 -11 66.8 20.96
0 -7 -11 64.7 28.97
0 7 -11 59.56 27.09
0 7 -11 120.11 26.68
-1 7 -11 30.74 37.51
-1 7 -11 22.18 26.62
-2 7 -11 1.03 63.53
-3 -8 11 75.54 45.89
-2 -8 11 225.43 54.08
2 8 -11 202.1 79.24
-1 -8 11 -5.54 41.26
1 8 -11 12.2 25.85
0 8 -11 88.99 31.53
0 9 -11 -4.23 40.18
5 0 -12 232.59 42.82
4 0 -12 67.29 25.34
3 0 -12 118.35 29
-2 0 12 212.87 38.93
1 0 -12 74.71 25.59
0 0 -12 23.44 15.26
-1 0 -12 20.53 15.9
-1 0 -12 6.31 15.32
-2 0 -12 566.08 113.61
-2 0 -12 410.37 95.49
-3 0 -12 183.57 41.7
5 -1 -12 357.66 50.43
4 -1 -12 123.39 32.78
4 1 -12 156.34 35.33
3 -1 -12 764.86 63.96
3 1 -12 730.19 65.3
-2 -1 12 95.19 28.92
2 -1 -12 152.01 32.24
-2 1 12 125.64 29.95
2 1 -12 175.15 35.99
1 -1 -12 85.72 26.32
-1 1 12 4.96 34.62
1 1 -12 126.4 32.99
0 -1 -12 753.21 67.15
0 1 -12 666.23 63.57
-1 -1 -12 388.62 51
-1 1 -12 470.54 51
-1 1 -12 438.87 52.6
-2 -1 -12 -0.66 18.27
-2 -1 -12 35.55 25.51
-2 1 -12 -19.83 20.32
-3 -1 -12 50.13 31.5
-3 1 -12 78.19 32.14
5 -2 -12 176.88 36.09
5 2 -12 216.38 45.47
4 -2 -12 172.25 38.05
4 2 -12 133.95 31.67
3 -2 -12 -18.81 14.13
3 2 -12 66.54 21.99
2 -2 -12 134.52 33.38
-2 2 12 161.97 35.67
2 2 -12 156.3 32.02
1 -2 -12 195.83 39.49
1 2 -12 213.61 41.62
0 -2 -12 245.37 44.92
0 2 -12 253.59 36.87
0 2 -12 256.56 46.44
-1 -2 -12 45.61 22.26
-1 2 -12 45.77 23.27
-1 2 -12 11.38 19.33
-2 -2 -12 22.7 24.51
-2 -2 -12 7.95 23.28
-2 2 -12 28.28 27.21
-2 2 -12 1.72 20.41
-3 2 -12 154.28 42.61
5 -3 -12 65.09 35.55
5 3 -12 48.97 55.06
4 -3 -12 78.86 27.24
4 3 -12 46.66 23.58
3 -3 -12 116.84 32.39
-3 -3 12 160.85 32.22
3 3 -12 172.89 37.62
3 3 -12 160.93 32.64
-2 -3 12 419.34 59.06
2 -3 -12 543.03 57.72
-2 3 12 423.55 59.06
2 3 -12 510.29 55.19
2 3 -12 422.79 38.45
1 -3 -12 -3.47 16.4
1 3 -12 1.86 16.74
1 3 -12 13.86 15.47
0 -3 -12 342.11 46.8
0 3 -12 348.93 49.58
0 3 -12 325.52 47.9
-1 -3 -12 3.74 16.88
-1 3 -12 4.82 15.8
-1 3 -12 2.16 17.21
-2 -3 -12 42.66 24.02
-2 -3 -12 18.16 25.49
-2 3 -12 36.15 26.46
-2 3 -12 59.84 28.17
5 4 -12 272.19 48.78
4 -4 -12 0 22.96
4 4 -12 37.38 40.68
3 -4 -12 -38.84 19.17
-3 -4 12 43.85 26
3 4 -12 -6.25 19.83
2 -4 -12 33.59 22.01
2 4 -12 63.17 25.34
2 4 -12 41.43 15.59
-2 4 12 66.09 37.43
1 -4 -12 273.78 53.33
1 4 -12 336.57 36.42
1 4 -12 273.03 41.11
0 -4 -12 125.49 35.94
0 4 -12 195.38 32.36
0 4 -12 137 34.53
-1 -4 -12 147.33 35
-1 4 -12 157.38 35.91
-1 4 -12 230.84 45.54
-2 4 -12 38.97 49.94
-2 4 -12 53.97 23.64
4 -5 -12 204.11 45.31
4 5 -12 150.2 36.16
3 -5 -12 616.22 69.27
-3 -5 12 434.91 61.79
3 5 -12 489.87 59.76
-2 -5 12 84.74 40.44
2 -5 -12 90.09 32.61
2 5 -12 68.27 27.67
1 -5 -12 -7.28 19.19
1 5 -12 17.79 18.86
1 5 -12 -28.79 14.64
0 -5 -12 99.53 34.11
0 5 -12 193.87 33.54
0 5 -12 182.17 42.92
-1 -5 -12 162.04 44.6
-1 5 -12 145.11 37.2
-1 5 -12 167.66 37.2
-2 5 -12 -60.61 30.23
4 -6 -12 138.55 44.3
-3 -6 12 60.52 37.52
3 -6 -12 20.44 27.98
2 -6 -12 381.1 58.85
-2 -6 12 270.3 55.28
2 6 -12 345.47 52.19
1 -6 -12 135.74 36.45
1 6 -12 115.53 35.55
0 -6 -12 48.72 34.11
0 6 -12 53.03 29.89
0 6 -12 23.88 24.37
-1 6 -12 86.01 35.63
-2 6 -12 178.08 46.01
-3 -7 12 62.53 70.73
-1 -7 12 -61.09 32.63
4 0 -13 161.53 34.4
3 0 -13 99.65 30.42
2 0 -13 44.44 24.06
1 0 -13 153.48 35.93
0 0 -13 142.78 37.43
-1 0 -13 85.11 31.36
-1 0 -13 62.29 26.19
5 1 -13 78.89 34.12
4 -1 -13 37.18 24.7
4 1 -13 91.73 32.43
3 -1 -13 45.57 24.14
3 1 -13 79.65 26.28
-2 -1 13 271.98 60.68
2 -1 -13 298.98 51.78
2 1 -13 310.87 47.54
1 -1 -13 495.38 57.24
1 1 -13 486.2 53.9
0 -1 -13 87.53 30.57
0 1 -13 88.2 40.37
0 1 -13 40.2 23.09
-1 -1 -13 191.24 46.15
-1 -1 -13 282.72 49.67
-1 1 -13 310.33 46.8
-1 1 -13 219.51 47.29
-2 1 -13 41.33 45.26
5 2 -13 37.58 39.76
4 -2 -13 301.93 51.13
4 2 -13 269.55 64.36
3 -2 -13 57.82 28.87
3 2 -13 6.38 24.46
-2 -2 13 -17.55 42.63
2 -2 -13 92.06 27.49
-2 2 13 60.43 40.57
2 2 -13 31.79 19.46
1 -2 -13 101.47 31.92
1 2 -13 88.67 25.77
1 2 -13 41.31 22.44
0 -2 -13 61.46 25.48
0 2 -13 60.38 29.37
0 2 -13 70.97 23.99
-1 -2 -13 140.35 37.97
-1 2 -13 47.68 31.52
-1 2 -13 92.92 32.91
-2 2 -13 10.23 39.97
4 -3 -13 -54.55 30.27
4 3 -13 11.15 27.32
3 -3 -13 222.06 43.71
3 3 -13 100.19 20.88
3 3 -13 164.13 42.98
2 -3 -13 294.26 44.98
2 3 -13 155.11 28.79
2 3 -13 235.54 70.56
1 3 -13 4.46 20.31
1 3 -13 17.42 20.15
0 -3 -13 66.06 20.79
0 3 -13 100 30.9
0 3 -13 23.59 23.34
-1 -3 -13 304.26 68.38
-1 3 -13 295.83 50.86
-1 3 -13 349.86 53.45
4 -4 -13 144.7 41.28
3 -4 -13 77.3 36.24
-3 -4 13 -55.48 33.5
3 4 -13 86.88 29.96
2 -4 -13 66.9 30.4
2 4 -13 79.13 29.66
1 -4 -13 107.56 36.89
1 4 -13 180.44 37.55
1 4 -13 95.62 26.5
0 -4 -13 157.22 34.85
0 4 -13 103.24 30.13
0 4 -13 97.54 33.47
-1 4 -13 62.86 34.57
3 -5 -13 37.81 33.2
-2 -5 13 108.9 45.34
1 -5 -13 109.54 38.4
1 5 -13 129.99 28.38
0 5 -13 104.54 33.56
-1 5 -13 38.7 33.22
-2 -6 13 44.95 46.62
4 0 -14 103.7 37.51
3 0 -14 192.45 38
2 0 -14 114.45 34.77
1 0 -14 193.02 44.4
4 -1 -14 19.13 33.77
3 -1 -14 16.77 26.47
3 1 -14 -0.08 26.8
2 -1 -14 142.04 36.75
2 1 -14 124.28 35.13
1 -1 -14 107.17 30.52
1 1 -14 129.7 37.76
0 1 -14 4.61 26.71
-1 1 -14 75.4 31.47
3 -2 -14 142.88 39.4
3 2 -14 177.08 45.15
2 -2 -14 134.62 38.55
2 2 -14 19.23 23.6
2 2 -14 87.19 30.14
1 -2 -14 58.84 30.4
1 2 -14 72.54 24.89
1 2 -14 17.75 29.75
0 2 -14 165.38 37.18
-1 2 -14 33.1 31.11
2 -3 -14 6.42 36.54
2 3 -14 101.81 28.51
1 3 -14 287.41 47.11
0 3 -14 107.92 30.69
-1 3 -14 6.88 34.32
1 4 -14 22.59 27.78
0 4 -14 143.01 41.05
-1 4 -14 118.5 41.22
-2 -5 14 138 57.75
1 1 -15 58.34 36.07
1 2 -15 4.82 32.46
0 2 -15 102.71 34.55
0 3 -15 97.07 41.51
loop_
_twin_individual_id
_twin_individual_mass_fraction_refined
1 0.88(4)
2 0.12(4)
