#------------------------------------------------------------------------------
#$Date: 2020-03-04 03:38:54 +0200 (Wed, 04 Mar 2020) $
#$Revision: 248706 $
#$URL: file:///home/coder/svn-repositories/cod/cif/4/13/41/4134181.cif $
#------------------------------------------------------------------------------
#
# This file is available in the Crystallography Open Database (COD),
# http://www.crystallography.net/
#
# All data on this site have been placed in the public domain by the
# contributors.
#
data_4134181
loop_
_publ_author_name
'Patel, Harshal D.'
'Tran, Thanh-Huyen'
'Sumby, Christopher J.'
'Pa\<steka, Luk\'a\<s F'
'Fallon, Thomas'
_publ_section_title
;
 Boronate Ester Bullvalenes.
;
_journal_issue                   8
_journal_name_full               'Journal of the American Chemical Society'
_journal_page_first              3680
_journal_page_last               3685
_journal_paper_doi               10.1021/jacs.9b12930
_journal_volume                  142
_journal_year                    2020
_chemical_formula_moiety         'C22 H18'
_chemical_formula_sum            'C22 H18'
_chemical_formula_weight         282.36
_space_group_crystal_system      triclinic
_space_group_IT_number           2
_space_group_name_Hall           '-P 1'
_space_group_name_H-M_alt        'P -1'
_atom_sites_solution_hydrogens   geom
_atom_sites_solution_primary     direct
_audit_creation_date             2019-10-10
_audit_creation_method
;
Olex2 1.2
(compiled 2018.05.29 svn.r3508 for OlexSys, GUI svn.r5506)
;
_cell_angle_alpha                108.776(5)
_cell_angle_beta                 90.715(5)
_cell_angle_gamma                96.917(4)
_cell_formula_units_Z            2
_cell_length_a                   5.9975(3)
_cell_length_b                   10.0967(5)
_cell_length_c                   13.1405(8)
_cell_measurement_reflns_used    5460
_cell_measurement_temperature    150(2)
_cell_measurement_theta_max      29.0570
_cell_measurement_theta_min      3.8620
_cell_volume                     746.78(7)
_computing_cell_refinement       'CrysAlisPro 1.171.38.46 (Rigaku OD, 2015)'
_computing_data_collection       'CrysAlisPro 1.171.38.46 (Rigaku OD, 2015)'
_computing_data_reduction        'CrysAlisPro 1.171.38.46 (Rigaku OD, 2015)'
_computing_molecular_graphics    'Olex2 (Dolomanov et al., 2009)'
_computing_publication_material  'Olex2 (Dolomanov et al., 2009)'
_computing_structure_refinement  'ShelXL (Sheldrick, 2015)'
_computing_structure_solution    'ShelXS (Sheldrick, 2008)'
_diffrn_ambient_environment      N~2~
_diffrn_ambient_temperature      150(2)
_diffrn_detector                 'CCD plate'
_diffrn_detector_area_resol_mean 16.1695
_diffrn_detector_type            Eos
_diffrn_measured_fraction_theta_full 0.995
_diffrn_measured_fraction_theta_max 0.896
_diffrn_measurement_details
;
List of Runs (angles in degrees, time in seconds):

  # Type    Start    End  Width  t~exp~   \w     \q     \k     \f   Frames
--------------------------------------------------------------------------
  1  \w     -2.00  88.00   1.00    6.00    --   18.95  57.00-150.00   90
  2  \w     -2.00  88.00   1.00    6.00    --   18.95  57.00  60.00   90
  3  \w    -50.00  39.00   1.00    6.00    --   18.95 -57.00 -60.00   89
  4  \w    -50.00  39.00   1.00    6.00    --   18.95 -57.00  60.00   89
  5  \w    -25.00  22.00   1.00    6.00    --  -19.50 -99.00  90.00   47
  6  \w    -25.00  22.00   1.00    6.00    --  -19.50 -99.00-150.00   47
  7  \w     35.00  95.00   1.00    6.00    --   18.95 178.00 -60.00   60
  8  \w     -2.00  88.00   1.00    6.00    --   18.95  57.00 -30.00   90
  9  \w    -50.00  39.00   1.00    6.00    --   18.95 -57.00 -90.00   89
 10  \w    -74.00   6.00   1.00    6.00    --  -19.50 121.00  80.00   80
 11  \w    -94.00 -14.00   1.00    6.00    --  -19.50 152.00-119.00   80
 12  \w    -50.00  39.00   1.00    6.00    --   18.95 -57.00-180.00   89
 13  \w     35.00  89.00   1.00    6.00    --   18.95 178.00 120.00   54
 14  \w    -88.00   2.00   1.00    6.00    --  -19.50 -57.00  60.00   90
;
_diffrn_measurement_device       'four-circle diffractometer'
_diffrn_measurement_device_type  'Xcalibur, Eos'
_diffrn_measurement_method       '\w scans'
_diffrn_orient_matrix_type
'CrysAlisPro convention (1999,Acta A55,543-557)'
_diffrn_orient_matrix_UB_11      0.0713526000
_diffrn_orient_matrix_UB_12      -0.0088449000
_diffrn_orient_matrix_UB_13      -0.0436951000
_diffrn_orient_matrix_UB_21      -0.0954983000
_diffrn_orient_matrix_UB_22      -0.0151703000
_diffrn_orient_matrix_UB_23      -0.0362146000
_diffrn_orient_matrix_UB_31      0.0048961000
_diffrn_orient_matrix_UB_32      0.0727596000
_diffrn_orient_matrix_UB_33      0.0062725000
_diffrn_radiation_monochromator  graphite
_diffrn_radiation_probe          x-ray
_diffrn_radiation_type           MoK\a
_diffrn_radiation_wavelength     0.71073
_diffrn_reflns_av_R_equivalents  0.0412
_diffrn_reflns_av_unetI/netI     0.0298
_diffrn_reflns_Laue_measured_fraction_full 0.995
_diffrn_reflns_Laue_measured_fraction_max 0.896
_diffrn_reflns_limit_h_max       8
_diffrn_reflns_limit_h_min       -8
_diffrn_reflns_limit_k_max       13
_diffrn_reflns_limit_k_min       -13
_diffrn_reflns_limit_l_max       17
_diffrn_reflns_limit_l_min       -17
_diffrn_reflns_number            16532
_diffrn_reflns_point_group_measured_fraction_full 0.995
_diffrn_reflns_point_group_measured_fraction_max 0.896
_diffrn_reflns_theta_full        27.000
_diffrn_reflns_theta_max         29.275
_diffrn_reflns_theta_min         3.427
_diffrn_source                   'fine-focus sealed X-ray tube'
_diffrn_source_type              'Enhance (Mo) X-ray Source'
_exptl_absorpt_coefficient_mu    0.071
_exptl_absorpt_correction_T_max  1.00000
_exptl_absorpt_correction_T_min  0.98074
_exptl_absorpt_correction_type   multi-scan
_exptl_absorpt_process_details
;
CrysAlisPro 1.171.38.46 (Rigaku Oxford Diffraction, 2015)
Empirical absorption correction using spherical harmonics,
 implemented in SCALE3 ABSPACK scaling algorithm.
;
_exptl_crystal_colour            colourless
_exptl_crystal_density_diffrn    1.256
_exptl_crystal_description       plate
_exptl_crystal_F_000             300
_exptl_crystal_size_max          0.47
_exptl_crystal_size_mid          0.38
_exptl_crystal_size_min          0.12
_refine_diff_density_max         0.257
_refine_diff_density_min         -0.276
_refine_diff_density_rms         0.048
_refine_ls_extinction_method     none
_refine_ls_goodness_of_fit_ref   1.040
_refine_ls_hydrogen_treatment    constr
_refine_ls_matrix_type           full
_refine_ls_number_parameters     199
_refine_ls_number_reflns         3635
_refine_ls_number_restraints     0
_refine_ls_restrained_S_all      1.040
_refine_ls_R_factor_all          0.0547
_refine_ls_R_factor_gt           0.0445
_refine_ls_shift/su_max          0.000
_refine_ls_shift/su_mean         0.000
_refine_ls_structure_factor_coef Fsqd
_refine_ls_weighting_details
'w=1/[\s^2^(Fo^2^)+(0.0437P)^2^+0.2767P] where P=(Fo^2^+2Fc^2^)/3'
_refine_ls_weighting_scheme      calc
_refine_ls_wR_factor_gt          0.1004
_refine_ls_wR_factor_ref         0.1066
_reflns_Friedel_coverage         0.000
_reflns_number_gt                3073
_reflns_number_total             3635
_reflns_threshold_expression     'I > 2\s(I)'
_iucr_refine_instructions_details
;
REM reset to P-1 #2
REM <HKL>D:/XcaliburData/Sumby%202019_2/HP322/struct/olex2_HP322/HP322.hkl</HKL
REM  HP322 in P-1 #2
REM R1 =  0.2152 for    3073 Fo > 4sig(Fo)  and  0.2257 for all    3635 data
REM     89 parameters refined using      0 restraints
REM Highest difference peak  0.801,  deepest hole -1.040,  1-sigma level  0.193
REM  HP322 in P-1 #2
REM R1 =  0.0445 for    3073 Fo > 4sig(Fo)  and  0.0547 for all    3635 data
REM    199 parameters refined using      0 restraints
REM Highest difference peak  0.258,  deepest hole -0.276,  1-sigma level  0.048
TITL HP322 in P-1 #2
CELL 0.71073 5.9975 10.0967 13.1405 108.776 90.715 96.917
ZERR 2.0000 0.0003 0.0005 0.0008 0.005 0.005 0.004
LATT 1
SFAC C H
UNIT 44 36
MERG 2
FMAP 2
GRID
PLAN 20
TEMP -123
SIZE 0.47 0.38 0.12
BOND
CONF
L.S. 20
ACTA 54
WGHT    0.043700    0.276700
FVAR      10.67318
C1    1    0.059943    0.306097    0.206346    11.00000    0.01767    0.01392 =
         0.01811    0.00462    0.00390    0.00159
AFIX  13
H1    2    0.039219    0.311592    0.282926    11.00000   -1.20000
AFIX   0
C2    1    0.161527    0.171197    0.151012    11.00000    0.01267    0.01421 =
         0.01857    0.00404   -0.00026   -0.00021
C3    1    0.208537    0.133930    0.046799    11.00000    0.01385    0.01795 =
         0.01955    0.00397    0.00037    0.00277
AFIX  43
H3    2    0.271873    0.048473    0.018683    11.00000   -1.20000
AFIX   0
C4    1    0.172938    0.210570   -0.028520    11.00000    0.01921    0.02339 =
         0.01578    0.00485    0.00093    0.00324
AFIX  13
H4    2    0.221652    0.164020   -0.102622    11.00000   -1.20000
AFIX   0
C5    1    0.200153    0.372350    0.005173    11.00000    0.02050    0.02434 =
         0.01952    0.01065    0.00088    0.00149
AFIX  13
H5    2    0.263424    0.410878   -0.051155    11.00000   -1.20000
AFIX   0
C6    1    0.273503    0.460880    0.115640    11.00000    0.01631    0.01735 =
         0.02325    0.00831    0.00109    0.00030
AFIX  43
H6    2    0.368509    0.546238    0.123200    11.00000   -1.20000
AFIX   0
C7    1    0.222132    0.435349    0.206916    11.00000    0.01360    0.01387 =
         0.02025    0.00530    0.00175    0.00222
C8    1   -0.169644    0.300366    0.154796    11.00000    0.01323    0.01593 =
         0.03281    0.00598    0.00553    0.00212
AFIX  43
H8    2   -0.295774    0.303838    0.198163    11.00000   -1.20000
AFIX   0
C9    1   -0.205364    0.290773    0.052559    11.00000    0.01402    0.02161 =
         0.03634    0.00890   -0.00285    0.00280
AFIX  43
H9    2   -0.356962    0.285621    0.028194    11.00000   -1.20000
AFIX   0
C10   1   -0.033658    0.287360   -0.026339    11.00000    0.02107    0.02458 =
         0.02288    0.00880   -0.00594    0.00244
AFIX  13
H10   2   -0.094775    0.281046   -0.099142    11.00000   -1.20000
AFIX   0
C11   1    0.194514    0.077869    0.215502    11.00000    0.01749    0.01257 =
         0.01527    0.00179   -0.00200   -0.00129
C12   1    0.384817    0.008622    0.207407    11.00000    0.02007    0.01942 =
         0.02209    0.00617    0.00109    0.00230
AFIX  43
H12   2    0.497139    0.021680    0.159927    11.00000   -1.20000
AFIX   0
C13   1    0.411834   -0.079222    0.268033    11.00000    0.02591    0.02281 =
         0.03102    0.00994   -0.00250    0.00659
AFIX  43
H13   2    0.542460   -0.125379    0.261709    11.00000   -1.20000
AFIX   0
C14   1    0.250004   -0.099967    0.337510    11.00000    0.03611    0.02309 =
         0.02936    0.01484   -0.00285    0.00216
AFIX  43
H14   2    0.269210   -0.159942    0.378874    11.00000   -1.20000
AFIX   0
C15   1    0.059655   -0.032459    0.346204    11.00000    0.02866    0.02470 =
         0.02475    0.01128    0.00327   -0.00219
AFIX  43
H15   2   -0.052653   -0.046714    0.393339    11.00000   -1.20000
AFIX   0
C16   1    0.032595    0.055949    0.286229    11.00000    0.01907    0.01790 =
         0.02192    0.00592    0.00068    0.00036
AFIX  43
H16   2   -0.097933    0.102298    0.293325    11.00000   -1.20000
AFIX   0
C21   1    0.324496    0.530708    0.312409    11.00000    0.01935    0.01223 =
         0.02102    0.00663    0.00046    0.00340
C22   1    0.201280    0.560951    0.404715    11.00000    0.02632    0.01665 =
         0.02387    0.00599    0.00438    0.00038
AFIX  43
H22   2    0.049427    0.518922    0.400246    11.00000   -1.20000
AFIX   0
C23   1    0.297155    0.651483    0.502946    11.00000    0.04394    0.02093 =
         0.02034    0.00425    0.00596    0.00112
AFIX  43
H23   2    0.210155    0.671171    0.564726    11.00000   -1.20000
AFIX   0
C24   1    0.518286    0.713208    0.511549    11.00000    0.04270    0.01984 =
         0.02313    0.00304   -0.00957   -0.00079
AFIX  43
H24   2    0.583548    0.774958    0.578897    11.00000   -1.20000
AFIX   0
C25   1    0.643625    0.684125    0.421044    11.00000    0.02236    0.01961 =
         0.03587    0.00804   -0.00774    0.00021
AFIX  43
H25   2    0.795623    0.726212    0.426347    11.00000   -1.20000
AFIX   0
C26   1    0.548527    0.593797    0.322539    11.00000    0.01992    0.01711 =
         0.02649    0.00678    0.00096    0.00309
AFIX  43
H26   2    0.636638    0.574501    0.261136    11.00000   -1.20000
AFIX   0
HKLF 4
 
REM  HP322 in P-1 #2
REM R1 =  0.0445 for    3073 Fo > 4sig(Fo)  and  0.0547 for all    3635 data
REM    199 parameters refined using      0 restraints
 
END  
     
WGHT      0.0438      0.2776 

REM Highest difference peak  0.257,  deepest hole -0.276,  1-sigma level  0.048
Q1    1  -0.0445  0.3009  0.1711  11.00000  0.05    0.26
Q2    1   0.1213  0.2424  0.1807  11.00000  0.05    0.25
Q3    1   0.1269  0.3737  0.2076  11.00000  0.05    0.25
Q4    1   0.1728  0.1215  0.1804  11.00000  0.05    0.24
Q5    1   0.4055 -0.0110  0.2540  11.00000  0.05    0.21
Q6    1   0.2754  0.4881  0.2610  11.00000  0.05    0.21
Q7    1   0.1271  0.1406  0.0961  11.00000  0.05    0.20
Q8    1   0.1808  0.1755  0.0173  11.00000  0.05    0.19
Q9    1   0.0347 -0.0089  0.3059  11.00000  0.05    0.18
Q10   1   0.0362  0.2187 -0.0228  11.00000  0.05    0.18
Q11   1   0.3075  0.4194  0.1593  11.00000  0.05    0.18
Q12   1  -0.1043  0.2941  0.0212  11.00000  0.05    0.18
Q13   1   0.2617  0.1847  0.1104  11.00000  0.05    0.17
Q14   1   0.2734  0.5238  0.3665  11.00000  0.05    0.17
Q15   1   0.0662  0.0173  0.3241  11.00000  0.05    0.17
Q16   1   0.0048 -0.0308  0.2815  11.00000  0.05    0.16
Q17   1   0.1017  0.0412  0.2351  11.00000  0.05    0.16
Q18   1   0.2605  0.0149  0.1988  11.00000  0.05    0.16
Q19   1   0.1919  0.4600  0.1626  11.00000  0.05    0.16
Q20   1   0.2416  0.4011  0.0608  11.00000  0.05    0.16
;
_cod_data_source_file            ja9b12930_si_002.cif
_cod_data_source_block
C:\Users\chris\DOCUME~1\X-RAYC~1\Fallon\14AREP~1\HP322
_cod_depositor_comments
'Adding full bibliography for 4134168--4134181.cif.'
_cod_database_code               4134181
_shelxl_version_number           2014/6
_chemical_oxdiff_formula         C22H18
_chemical_oxdiff_usercomment
'colourless plate (from rod) 0.47 x 0.38 x 0.12'
_shelx_space_group_comment
;
The symmetry employed for this shelxl refinement is uniquely defined
by the following loop, which should always be used as a source of
symmetry information in preference to the above space-group names.
They are only intended as comments.
;
_shelx_estimated_absorpt_t_max   0.992
_shelx_estimated_absorpt_t_min   0.967
_reflns_odcompleteness_completeness 99.80
_reflns_odcompleteness_iscentric 1
_reflns_odcompleteness_theta     26.32
_olex2_refinement_description
;
1. Fixed Uiso
 At 1.2 times of:
  All C(H) groups
2.a Ternary CH refined with riding coordinates:
 C1(H1), C4(H4), C5(H5), C10(H10)
2.b Aromatic/amide H refined with riding coordinates:
 C3(H3), C6(H6), C8(H8), C9(H9), C12(H12), C13(H13), C14(H14), C15(H15),
 C16(H16), C22(H22), C23(H23), C24(H24), C25(H25), C26(H26)
;
_olex2_submission_special_instructions 'No special instructions were received'
_oxdiff_exptl_absorpt_empirical_details
;
Empirical correction (ABSPACK) includes:
- Absorption correction using spherical harmonics
- Frame scaling
;
_oxdiff_exptl_absorpt_empirical_full_max 1.057
_oxdiff_exptl_absorpt_empirical_full_min 0.958
loop_
_space_group_symop_operation_xyz
'x, y, z'
'-x, -y, -z'
loop_
_atom_site_label
_atom_site_type_symbol
_atom_site_fract_x
_atom_site_fract_y
_atom_site_fract_z
_atom_site_U_iso_or_equiv
_atom_site_adp_type
_atom_site_occupancy
_atom_site_site_symmetry_order
_atom_site_calc_flag
_atom_site_refinement_flags_posn
_atom_site_refinement_flags_adp
_atom_site_refinement_flags_occupancy
_atom_site_disorder_assembly
_atom_site_disorder_group
C1 C 0.05994(19) 0.30610(11) 0.20635(9) 0.0167(2) Uani 1 1 d . . . . .
H1 H 0.0392 0.3116 0.2829 0.020 Uiso 1 1 calc R . . . .
C2 C 0.16153(18) 0.17120(11) 0.15101(9) 0.0156(2) Uani 1 1 d . . . . .
C3 C 0.20854(18) 0.13393(12) 0.04680(9) 0.0176(2) Uani 1 1 d . . . . .
H3 H 0.2719 0.0485 0.0187 0.021 Uiso 1 1 calc R . . . .
C4 C 0.1729(2) 0.21057(13) -0.02852(9) 0.0198(2) Uani 1 1 d . . . . .
H4 H 0.2217 0.1640 -0.1026 0.024 Uiso 1 1 calc R . . . .
C5 C 0.2002(2) 0.37235(13) 0.00517(10) 0.0207(3) Uani 1 1 d . . . . .
H5 H 0.2634 0.4109 -0.0512 0.025 Uiso 1 1 calc R . . . .
C6 C 0.27350(19) 0.46088(12) 0.11564(10) 0.0187(2) Uani 1 1 d . . . . .
H6 H 0.3685 0.5462 0.1232 0.022 Uiso 1 1 calc R . . . .
C7 C 0.22213(18) 0.43535(11) 0.20692(9) 0.0159(2) Uani 1 1 d . . . . .
C8 C -0.16964(19) 0.30037(12) 0.15480(10) 0.0211(3) Uani 1 1 d . . . . .
H8 H -0.2958 0.3038 0.1982 0.025 Uiso 1 1 calc R . . . .
C9 C -0.2054(2) 0.29077(13) 0.05256(11) 0.0241(3) Uani 1 1 d . . . . .
H9 H -0.3570 0.2856 0.0282 0.029 Uiso 1 1 calc R . . . .
C10 C -0.0337(2) 0.28736(13) -0.02634(10) 0.0227(3) Uani 1 1 d . . . . .
H10 H -0.0948 0.2810 -0.0991 0.027 Uiso 1 1 calc R . . . .
C11 C 0.19451(19) 0.07787(11) 0.21550(9) 0.0161(2) Uani 1 1 d . . . . .
C12 C 0.3848(2) 0.00862(12) 0.20741(10) 0.0207(3) Uani 1 1 d . . . . .
H12 H 0.4971 0.0217 0.1599 0.025 Uiso 1 1 calc R . . . .
C13 C 0.4118(2) -0.07922(13) 0.26803(11) 0.0260(3) Uani 1 1 d . . . . .
H13 H 0.5425 -0.1254 0.2617 0.031 Uiso 1 1 calc R . . . .
C14 C 0.2500(2) -0.09997(14) 0.33751(11) 0.0282(3) Uani 1 1 d . . . . .
H14 H 0.2692 -0.1599 0.3789 0.034 Uiso 1 1 calc R . . . .
C15 C 0.0597(2) -0.03246(13) 0.34620(10) 0.0257(3) Uani 1 1 d . . . . .
H15 H -0.0527 -0.0467 0.3933 0.031 Uiso 1 1 calc R . . . .
C16 C 0.0326(2) 0.05595(12) 0.28623(10) 0.0200(2) Uani 1 1 d . . . . .
H16 H -0.0979 0.1023 0.2933 0.024 Uiso 1 1 calc R . . . .
C21 C 0.32450(19) 0.53071(11) 0.31241(9) 0.0171(2) Uani 1 1 d . . . . .
C22 C 0.2013(2) 0.56095(12) 0.40472(10) 0.0226(3) Uani 1 1 d . . . . .
H22 H 0.0494 0.5189 0.4002 0.027 Uiso 1 1 calc R . . . .
C23 C 0.2972(3) 0.65148(13) 0.50295(11) 0.0292(3) Uani 1 1 d . . . . .
H23 H 0.2102 0.6712 0.5647 0.035 Uiso 1 1 calc R . . . .
C24 C 0.5183(2) 0.71321(13) 0.51155(11) 0.0300(3) Uani 1 1 d . . . . .
H24 H 0.5835 0.7750 0.5789 0.036 Uiso 1 1 calc R . . . .
C25 C 0.6436(2) 0.68412(13) 0.42104(11) 0.0265(3) Uani 1 1 d . . . . .
H25 H 0.7956 0.7262 0.4263 0.032 Uiso 1 1 calc R . . . .
C26 C 0.5485(2) 0.59380(12) 0.32254(10) 0.0212(3) Uani 1 1 d . . . . .
H26 H 0.6366 0.5745 0.2611 0.025 Uiso 1 1 calc R . . . .
loop_
_atom_site_aniso_label
_atom_site_aniso_U_11
_atom_site_aniso_U_22
_atom_site_aniso_U_33
_atom_site_aniso_U_23
_atom_site_aniso_U_13
_atom_site_aniso_U_12
C1 0.0177(5) 0.0139(5) 0.0181(6) 0.0046(4) 0.0039(4) 0.0016(4)
C2 0.0127(5) 0.0142(5) 0.0186(6) 0.0040(4) -0.0003(4) -0.0002(4)
C3 0.0138(5) 0.0180(5) 0.0196(6) 0.0040(4) 0.0004(4) 0.0028(4)
C4 0.0192(6) 0.0234(6) 0.0158(6) 0.0048(5) 0.0009(4) 0.0032(4)
C5 0.0205(6) 0.0243(6) 0.0195(6) 0.0106(5) 0.0009(4) 0.0015(5)
C6 0.0163(5) 0.0173(5) 0.0232(6) 0.0083(5) 0.0011(4) 0.0003(4)
C7 0.0136(5) 0.0139(5) 0.0202(6) 0.0053(4) 0.0017(4) 0.0022(4)
C8 0.0132(5) 0.0159(5) 0.0328(7) 0.0060(5) 0.0055(5) 0.0021(4)
C9 0.0140(6) 0.0216(6) 0.0363(7) 0.0089(5) -0.0028(5) 0.0028(4)
C10 0.0211(6) 0.0246(6) 0.0229(6) 0.0088(5) -0.0059(5) 0.0024(5)
C11 0.0175(5) 0.0126(5) 0.0153(5) 0.0018(4) -0.0020(4) -0.0013(4)
C12 0.0201(6) 0.0194(6) 0.0221(6) 0.0062(5) 0.0011(5) 0.0023(4)
C13 0.0259(6) 0.0228(6) 0.0310(7) 0.0099(5) -0.0025(5) 0.0066(5)
C14 0.0361(7) 0.0231(6) 0.0294(7) 0.0148(5) -0.0029(6) 0.0022(5)
C15 0.0287(7) 0.0247(6) 0.0247(7) 0.0113(5) 0.0033(5) -0.0022(5)
C16 0.0191(6) 0.0179(5) 0.0219(6) 0.0059(5) 0.0007(4) 0.0004(4)
C21 0.0193(6) 0.0122(5) 0.0210(6) 0.0066(4) 0.0005(4) 0.0034(4)
C22 0.0263(6) 0.0167(5) 0.0239(6) 0.0060(5) 0.0044(5) 0.0004(5)
C23 0.0439(8) 0.0209(6) 0.0203(6) 0.0043(5) 0.0060(6) 0.0011(5)
C24 0.0427(8) 0.0198(6) 0.0231(7) 0.0030(5) -0.0096(6) -0.0008(5)
C25 0.0224(6) 0.0196(6) 0.0359(7) 0.0080(5) -0.0077(5) 0.0002(5)
C26 0.0199(6) 0.0171(5) 0.0265(6) 0.0068(5) 0.0010(5) 0.0031(4)
loop_
_atom_type_symbol
_atom_type_description
_atom_type_scat_dispersion_real
_atom_type_scat_dispersion_imag
_atom_type_scat_source
C C 0.0033 0.0016 'International Tables Vol C Tables 4.2.6.8 and 6.1.1.4'
H H 0.0000 0.0000 'International Tables Vol C Tables 4.2.6.8 and 6.1.1.4'
loop_
_geom_angle_atom_site_label_1
_geom_angle_atom_site_label_2
_geom_angle_atom_site_label_3
_geom_angle
_geom_angle_site_symmetry_1
_geom_angle_site_symmetry_3
_geom_angle_publ_flag
C2 C1 C7 110.29(9) . . ?
C8 C1 C2 110.45(9) . . ?
C8 C1 C7 112.99(9) . . ?
C3 C2 C1 121.79(10) . . ?
C3 C2 C11 120.89(10) . . ?
C11 C2 C1 117.23(10) . . ?
C2 C3 C4 127.18(11) . . ?
C3 C4 C5 123.12(10) . . ?
C3 C4 C10 122.10(10) . . ?
C10 C4 C5 59.77(8) . . ?
C6 C5 C4 121.40(10) . . ?
C6 C5 C10 123.55(10) . . ?
C10 C5 C4 60.07(8) . . ?
C7 C6 C5 127.55(11) . . ?
C6 C7 C1 121.43(10) . . ?
C6 C7 C21 120.90(10) . . ?
C21 C7 C1 117.66(10) . . ?
C9 C8 C1 123.93(11) . . ?
C8 C9 C10 126.35(11) . . ?
C5 C10 C4 60.16(8) . . ?
C9 C10 C4 121.97(10) . . ?
C9 C10 C5 121.99(11) . . ?
C12 C11 C2 121.66(10) . . ?
C12 C11 C16 117.97(11) . . ?
C16 C11 C2 120.36(10) . . ?
C13 C12 C11 120.77(11) . . ?
C14 C13 C12 120.55(12) . . ?
C13 C14 C15 119.41(12) . . ?
C14 C15 C16 120.21(12) . . ?
C15 C16 C11 121.07(11) . . ?
C22 C21 C7 121.29(10) . . ?
C22 C21 C26 117.74(11) . . ?
C26 C21 C7 120.97(10) . . ?
C23 C22 C21 121.04(12) . . ?
C24 C23 C22 120.51(12) . . ?
C23 C24 C25 119.34(12) . . ?
C24 C25 C26 120.41(12) . . ?
C25 C26 C21 120.96(12) . . ?
loop_
_geom_bond_atom_site_label_1
_geom_bond_atom_site_label_2
_geom_bond_distance
_geom_bond_site_symmetry_2
_geom_bond_publ_flag
C1 C2 1.5259(15) . ?
C1 C7 1.5288(15) . ?
C1 C8 1.5134(16) . ?
C2 C3 1.3416(16) . ?
C2 C11 1.4832(15) . ?
C3 C4 1.4668(16) . ?
C4 C5 1.5360(17) . ?
C4 C10 1.5347(16) . ?
C5 C6 1.4676(17) . ?
C5 C10 1.5301(16) . ?
C6 C7 1.3376(16) . ?
C7 C21 1.4842(16) . ?
C8 C9 1.3282(19) . ?
C9 C10 1.4659(18) . ?
C11 C12 1.3965(16) . ?
C11 C16 1.3996(16) . ?
C12 C13 1.3906(17) . ?
C13 C14 1.3841(19) . ?
C14 C15 1.3862(19) . ?
C15 C16 1.3888(17) . ?
C21 C22 1.3960(17) . ?
C21 C26 1.4013(16) . ?
C22 C23 1.3884(18) . ?
C23 C24 1.383(2) . ?
C24 C25 1.384(2) . ?
C25 C26 1.3889(18) . ?
loop_
_geom_torsion_atom_site_label_1
_geom_torsion_atom_site_label_2
_geom_torsion_atom_site_label_3
_geom_torsion_atom_site_label_4
_geom_torsion
_geom_torsion_site_symmetry_1
_geom_torsion_site_symmetry_2
_geom_torsion_site_symmetry_3
_geom_torsion_site_symmetry_4
_geom_torsion_publ_flag
C1 C2 C3 C4 -0.16(18) . . . . ?
C1 C2 C11 C12 -140.96(11) . . . . ?
C1 C2 C11 C16 39.56(14) . . . . ?
C1 C7 C21 C22 -38.14(15) . . . . ?
C1 C7 C21 C26 142.03(11) . . . . ?
C1 C8 C9 C10 -1.48(19) . . . . ?
C2 C1 C7 C6 66.33(14) . . . . ?
C2 C1 C7 C21 -112.58(11) . . . . ?
C2 C1 C8 C9 -61.90(15) . . . . ?
C2 C3 C4 C5 34.85(18) . . . . ?
C2 C3 C4 C10 -37.67(18) . . . . ?
C2 C11 C12 C13 -179.55(11) . . . . ?
C2 C11 C16 C15 179.21(11) . . . . ?
C3 C2 C11 C12 42.46(16) . . . . ?
C3 C2 C11 C16 -137.03(12) . . . . ?
C3 C4 C5 C6 2.56(17) . . . . ?
C3 C4 C5 C10 -110.75(13) . . . . ?
C3 C4 C10 C5 112.40(12) . . . . ?
C3 C4 C10 C9 1.18(17) . . . . ?
C4 C5 C6 C7 -36.22(18) . . . . ?
C4 C5 C10 C9 111.18(13) . . . . ?
C5 C4 C10 C9 -111.22(13) . . . . ?
C5 C6 C7 C1 -3.60(19) . . . . ?
C5 C6 C7 C21 175.28(11) . . . . ?
C6 C5 C10 C4 -109.86(12) . . . . ?
C6 C5 C10 C9 1.32(18) . . . . ?
C6 C7 C21 C22 142.94(12) . . . . ?
C6 C7 C21 C26 -36.89(16) . . . . ?
C7 C1 C2 C3 -63.09(14) . . . . ?
C7 C1 C2 C11 120.36(10) . . . . ?
C7 C1 C8 C9 62.18(15) . . . . ?
C7 C21 C22 C23 -179.27(11) . . . . ?
C7 C21 C26 C25 179.36(10) . . . . ?
C8 C1 C2 C3 62.53(14) . . . . ?
C8 C1 C2 C11 -114.02(11) . . . . ?
C8 C1 C7 C6 -57.84(14) . . . . ?
C8 C1 C7 C21 123.25(11) . . . . ?
C8 C9 C10 C4 36.99(19) . . . . ?
C8 C9 C10 C5 -35.45(19) . . . . ?
C10 C4 C5 C6 113.30(13) . . . . ?
C10 C5 C6 C7 36.52(18) . . . . ?
C11 C2 C3 C4 176.27(11) . . . . ?
C11 C12 C13 C14 0.15(19) . . . . ?
C12 C11 C16 C15 -0.29(17) . . . . ?
C12 C13 C14 C15 0.1(2) . . . . ?
C13 C14 C15 C16 -0.4(2) . . . . ?
C14 C15 C16 C11 0.55(19) . . . . ?
C16 C11 C12 C13 -0.05(17) . . . . ?
C21 C22 C23 C24 -0.40(19) . . . . ?
C22 C21 C26 C25 -0.47(17) . . . . ?
C22 C23 C24 C25 0.1(2) . . . . ?
C23 C24 C25 C26 -0.05(19) . . . . ?
C24 C25 C26 C21 0.22(18) . . . . ?
C26 C21 C22 C23 0.56(17) . . . . ?
loop_
_refln_index_h
_refln_index_k
_refln_index_l
_refln_F_squared_meas
_refln_F_squared_sigma
_refln_scale_group_code
0 0 3 34021.7 992.706 2
0 0 -3 36080.5 1030.77 14
0 0 3 33236.7 990.856 12
0 0 3 36217.9 1041.58 1
0 0 3 34185.2 973.071 6
0 0 -3 36088.5 1006.1 12
0 0 -3 36376.4 1004.65 2
0 0 3 33353 1014.95 14
0 0 -3 35616.3 1036.81 1
0 0 4 82488.6 2113.62 1
0 0 -4 78845.6 2086.58 14
0 0 -4 75513.5 2088.97 1
0 0 4 73465.7 2033.36 12
0 0 -4 82930.6 2066.34 12
0 0 -4 79895.7 2053.02 2
0 0 4 74467.5 2069.29 14
0 0 4 77088 2014.26 6
0 0 4 74325.2 2034.06 2
0 0 -5 23374.7 830.155 12
0 0 5 21318 803.951 2
0 0 -5 22437.4 869.739 1
0 0 5 23157.2 792.208 6
0 0 5 21475.7 803.273 12
0 0 5 21542.8 840.067 14
0 0 -5 23300.1 827.482 2
0 0 6 70061.3 2098.23 14
0 0 6 71429.1 2046.93 2
0 0 -6 75238.5 2141.81 1
0 0 6 70998.1 2040.52 12
0 0 7 227.686 102.475 2
0 0 -7 289.016 135.053 1
0 0 7 404.797 133.11 12
0 0 8 1785.05 250.552 12
0 0 8 1829.27 258.976 2
0 0 -8 1737.78 276.115 1
0 0 -9 443.896 214.72 1
0 0 9 607.047 180.845 12
0 0 9 66.6691 102.4 2
0 0 10 14085.8 796.518 12
0 0 10 13707.3 795.144 2
0 0 -10 12714.2 838.446 1
0 0 -11 33111.3 1496.28 1
0 0 11 31663.4 1377.65 12
0 0 11 32786 1401.81 2
0 0 12 1078.54 249.029 2
0 0 12 668.772 218.261 12
0 0 -12 958.63 281.816 1
0 0 13 14155.5 929.925 2
0 0 -13 13630.9 988.099 1
0 0 13 14550.9 940.062 12
0 0 -14 5257.13 629.503 1
0 0 14 5472.2 594.735 12
0 0 14 6824.59 652.799 2
0 0 -15 838.086 288.154 1
0 0 15 1117.77 304.04 12
0 0 15 1364.34 338.836 2
0 0 16 5816.52 663.556 12
0 0 16 6485.69 699.348 2
0 0 17 6531.39 729.325 2
0 -1 17 2055.2 437.676 2
0 -1 16 17400.7 1185.04 2
0 -1 15 1181.81 309.617 2
0 -1 15 946.087 275.395 12
0 1 -15 1203.28 343.883 1
0 1 -15 671.482 295.261 4
0 -1 14 1267.24 296.298 12
0 -1 14 1217.93 304.675 2
0 1 -13 24858.9 1365.82 1
0 -1 13 27732.3 1297.59 12
0 -1 13 25318.5 1312.73 2
0 -1 12 30317.4 1323.62 12
0 -1 12 29654.7 1367.97 2
0 1 -12 28349.6 1411.75 1
0 -1 11 13950.2 802.288 12
0 -1 11 14365.9 859.97 2
0 1 -11 13652 877.963 1
0 1 -10 74923.9 2461.45 1
0 -1 10 71585.6 2295.15 12
0 -1 10 77142.9 2414.93 2
0 -1 9 1957.28 257.946 12
0 -1 9 1686.89 291.824 14
0 1 -9 2254.52 319.259 1
0 -1 9 1785.03 273.185 2
0 -1 8 3566.26 373.118 14
0 -1 8 2986.32 326.432 2
0 -1 8 2963.18 298.336 12
0 -1 7 85.1148 102.945 2
0 -1 7 257.141 112.928 12
0 -1 7 132.485 147.217 14
0 1 -7 103.215 124.372 1
0 1 -6 35.602 73.2368 12
0 -1 6 21.7954 103.072 2
0 1 -6 -49.7797 118.917 1
0 -1 6 39.733 81.4261 12
0 -1 6 98.3612 116.844 14
0 -1 5 27.6079 27.1261 10
0 -1 5 159.037 132.016 14
0 -1 5 142.17 94.8101 2
0 -1 5 27.9454 70.3324 12
0 1 -5 110.964 112.609 1
0 1 -5 44.2571 79.1908 12
0 -1 5 23.4714 28.3646 11
0 -1 4 28274.9 925.152 14
0 1 -4 27682.7 745.468 11
0 1 -4 30700.7 882.036 12
0 1 -4 30417.2 945.43 14
0 1 -4 30923.9 948.918 2
0 -1 4 29354.9 759.098 10
0 -1 4 27919.2 851.882 12
0 1 -4 28922.4 933.196 1
0 1 -4 28531.8 754.588 10
0 -1 4 30879.6 956.838 1
0 -1 4 28970.9 755.694 11
0 -1 4 28074.2 923.014 2
0 1 -3 3.69634 50.0611 12
0 -1 3 -20.1218 72.7485 2
0 1 -3 15.5855 77.8457 2
0 -1 3 -68.906 84.3406 1
0 1 -3 60.5726 42.2026 10
0 1 -3 -31.7169 74.4561 1
0 -1 3 -9.32551 39.4901 11
0 1 -3 25.5522 40.93 11
0 -1 3 227.981 50.1093 10
0 1 -3 44.6532 56.9641 14
0 -1 3 97.6081 91.4562 14
0 -1 3 53.0015 54.6586 12
0 -1 -2 769124 17582.6 6
0 1 2 771613 17529.2 2
0 1 2 766335 17476.6 10
0 -1 -2 707222 17579.8 1
0 -1 -2 818175 17623.1 12
0 1 2 784579 17478.6 11
0 1 2 763357 17599.3 1
0 1 2 800553 17600 6
0 1 2 753109 17590.1 7
0 -1 -2 729371 17474.9 11
0 -1 -2 766758 17478 10
0 1 2 776215 17606.1 12
0 -1 -2 802365 17536.8 2
0 1 3 61328.4 1627.23 6
0 1 3 63174.6 1671.77 1
0 -1 -3 60019.5 1465.73 10
0 -1 -3 61105.2 1648.93 14
0 -1 -3 59293.6 1650.23 1
0 -1 -3 60904.2 1581.89 2
0 1 3 56789.6 1638.95 12
0 -1 -3 59933.9 1468.71 11
0 1 3 58163.8 1570.47 2
0 1 3 61350.5 1465.62 11
0 -1 -3 63310.5 1667.67 12
0 -1 -3 55796.9 1605.13 6
0 -1 -4 114444 2796.85 12
0 -1 -4 104365 2725.16 6
0 1 4 97164.5 2738.92 12
0 1 4 102753 2678.76 2
0 -1 -4 104224 2778.07 1
0 -1 -4 107932 2770.73 14
0 1 4 106045 2724.47 6
0 -1 -4 104908 2499.88 11
0 -1 -4 107866 2500.55 10
0 -1 -4 109023 2702.18 2
0 -1 -5 987.415 71.4309 10
0 -1 -5 922.263 71.0796 11
0 1 5 1083.1 182.301 12
0 -1 -5 1112.1 200.53 1
0 1 5 868.8 146.064 2
0 -1 -5 1106.26 155.524 2
0 1 6 3004.36 268.467 2
0 -1 -6 2793.67 327.407 1
0 1 6 2797.88 293.322 12
0 -1 -7 21886.5 983.553 1
0 1 7 21974.6 946.63 12
0 1 7 21385.2 884.638 2
0 1 8 818.454 190.704 2
0 1 8 477.717 145.519 12
0 -1 -8 696.711 223.655 1
0 1 9 2327.91 325.564 12
0 -1 -9 2212.39 349.631 1
0 1 9 1903.43 276.675 2
0 1 10 2968.11 390.359 12
0 1 10 2880.62 359.633 2
0 -1 -10 2543.99 372.912 1
0 1 11 3145.23 389.765 2
0 1 11 4069.13 466.364 12
0 -1 -11 3555.82 479.813 1
0 1 12 1635.64 313.807 12
0 1 12 2102.15 339.331 2
0 -1 -12 2199.75 406.509 1
0 -1 -13 5748.55 650.485 1
0 1 13 5146.19 548.249 2
0 1 13 4198.94 530.795 12
0 -1 -14 7271.95 761.582 1
0 1 14 7604.65 693.892 2
0 1 14 6596.09 726.096 7
0 1 14 9185.28 804.255 12
0 1 15 1222.03 320.703 2
0 1 15 1243.94 413.087 7
0 -1 -15 1114.16 327.913 1
0 1 15 993 295.854 12
0 1 16 4697.07 626.314 12
0 -2 17 407.745 236.457 2
0 2 -16 673.096 320.607 4
0 -2 16 1004.51 293.663 2
0 2 -15 5034.38 639.046 4
0 -2 15 4705.79 576.443 2
0 -2 15 6246.43 606.667 12
0 2 -14 2366.1 427.056 4
0 -2 14 3287.48 477.222 2
0 -2 14 3344.85 423.605 12
0 -2 13 357.608 155.739 12
0 2 -13 906.086 298.094 1
0 -2 13 287.208 196.624 2
0 2 -13 214.956 208.779 4
0 -2 12 21942 1161.03 2
0 -2 12 21343.5 1035.93 12
0 2 -12 23088.4 1215.26 1
0 2 -11 393.871 216.727 1
0 -2 11 576.864 210.55 2
0 -2 11 -36.8842 166.498 14
0 -2 11 476.473 156.113 12
0 2 -10 26108.2 1203.45 1
0 -2 10 26518.3 1217.1 14
0 -2 10 27379.9 1088.24 12
0 -2 10 27737.8 1222.29 2
0 -2 9 4549.12 420.62 2
0 2 -9 4373.48 418.785 1
0 -2 9 4072.79 417.112 14
0 -2 9 3919.9 340.114 12
0 -2 8 13434.1 452.993 11
0 2 -8 13000 704.66 1
0 -2 8 14195.3 456.571 10
0 -2 8 11667.7 591.998 12
0 -2 8 12752 716.078 14
0 -2 8 12071.2 696.234 2
0 -2 7 1946.97 256.382 14
0 -2 7 1800.31 139.886 10
0 2 -7 1403.76 233.729 1
0 -2 7 1980.35 152.038 11
0 -2 7 1211.6 210.369 2
0 -2 7 1813.19 194.094 12
0 2 -6 17701.9 768.116 1
0 -2 6 20509.5 626.803 10
0 2 -6 20388.5 718.673 8
0 -2 6 18390.6 779.894 14
0 -2 6 17702.1 784.703 2
0 -2 6 17791.4 669.576 12
0 -2 6 19971.4 620.225 11
0 2 -6 17917.4 595.802 11
0 -2 5 3671.77 225.618 12
0 -2 5 4010.18 296.298 1
0 -2 5 3542.02 214.689 11
0 2 -5 3277.95 206.987 10
0 2 -5 3807.45 236.164 8
0 2 -5 3726.88 213.686 11
0 -2 5 3541.47 213.184 10
0 -2 5 3335.62 282.56 14
0 2 -5 3260.66 272.246 4
0 -2 5 3361.86 288.406 2
0 2 -4 26757.5 807.339 11
0 2 -4 26090.7 869.285 4
0 -2 4 26466.2 809.529 11
0 2 -4 28056.5 925.309 2
0 2 -4 26033.2 890.41 13
0 2 -4 30105 904.486 14
0 -2 4 26643.8 777.301 12
0 -2 4 26803.4 815.351 10
0 2 -4 27873.5 801.846 8
0 2 -4 27379 886.266 5
0 -2 4 26353.2 908.719 2
0 2 -4 27268.5 815.636 10
0 -2 4 25969.9 872.88 14
0 -2 4 27700.4 888.494 1
0 -2 4 29650.9 939.443 3
0 -2 3 104843 2714.4 14
0 2 -3 113585 2728.49 14
0 2 -3 110180 2709.32 11
0 -2 3 107098 2769.77 2
0 -2 3 106003 2728.82 5
0 -2 3 108720 2635.54 8
0 2 -3 112824 2787.23 2
0 2 -3 111329 2740.35 5
0 2 -3 108448 2718.32 4
0 -2 3 112128 2719.71 10
0 -2 3 112576 2726.8 4
0 -2 3 109163 2710.98 11
0 2 -3 110590 2715.49 10
0 -2 3 114342 2767.09 13
0 -2 3 116143 2796.75 3
0 2 -3 108027 2756.75 13
0 2 -3 111650 2640.24 8
0 2 -2 686351 15163.3 3
0 -2 2 716219 15169.8 13
0 -2 2 595961 15125.5 10
0 2 -2 701248 15104.2 14
0 2 -2 715470 15144.3 5
0 -2 2 695525 15171.3 3
0 -2 2 693217 15136.5 5
0 -2 2 700130 15041.5 8
0 -2 2 649899 15151.8 2
0 -2 2 670306 15092 14
0 2 -2 724210 15046.1 8
0 -2 2 699490 15100.2 4
0 2 -2 695733 15094.7 4
0 2 -2 659842 15148.5 13
0 2 -1 70002.9 1759.59 9
0 -2 1 69666 1729.63 12
0 -2 1 72234.8 1731.1 4
0 2 -1 69610.7 1810.22 11
0 -2 1 72566.2 1764.11 9
0 -2 1 70216 1816.65 10
0 2 -1 69959.6 1799.86 13
0 2 -1 70694.4 1770.34 3
0 -2 1 70374.3 1727.28 14
0 -2 1 72062.7 1771.42 3
0 2 -1 71183.1 1728.7 4
0 2 -1 70527 1812.08 10
0 -2 1 73016.3 1806.67 13
0 -2 1 69362.7 1816.97 11
0 -2 1 70049.5 1728.97 8
0 -2 0 6211.76 247.308 3
0 2 0 6536.26 301.576 11
0 -2 0 6560.22 262.887 1
0 -2 0 6038.9 256.859 9
0 2 0 7079.92 311.874 10
0 -2 0 6171.55 255.283 4
0 2 0 6114.85 294.151 7
0 2 0 6154.95 254.936 9
0 2 0 6465.05 247.515 3
0 -2 0 6683.79 306.408 11
0 -2 0 6574.89 286.019 12
0 -2 0 6652.52 300.715 7
0 2 0 6002.2 278.488 12
0 -2 0 6582.64 306.25 10
0 2 1 58393 1490.37 9
0 -2 -1 53753.1 1567.86 6
0 2 1 57984.6 1570.16 7
0 2 1 59221.2 1545.26 11
0 -2 -1 59140.1 1491.02 9
0 -2 -1 59672.3 1549.1 10
0 2 1 59506.6 1549.12 10
0 -2 -1 58728.9 1533.57 1
0 2 1 59087.5 1438.09 3
0 -2 -1 59583.5 1549.56 11
0 -2 -1 59744.2 1578.02 12
0 -2 -1 57928.4 1440.91 3
0 2 1 57461 1568.21 12
0 2 1 62464.9 1547.8 1
0 -2 -1 61272.7 1583.12 7
0 2 2 281516 6535.97 3
0 -2 -2 291183 6645.34 11
0 -2 -2 286510 6644.91 10
0 -2 -2 300330 6758.66 12
0 2 2 265961 6712.88 7
0 2 2 289626 6742.65 6
0 2 2 287630 6714.95 1
0 2 2 264467 6732.13 12
0 -2 -2 303488 6742.06 7
0 -2 -2 286637 6616.85 2
0 -2 -2 271090 6726.61 6
0 2 2 284674 6642.23 10
0 2 2 282548 6622.33 9
0 2 2 285268 6639.09 11
0 -2 -2 277149 6699.52 1
0 -2 -3 6214.05 379.364 1
0 2 3 6369.76 332.312 9
0 -2 -3 6612.2 318.454 2
0 2 3 6255.25 374.219 7
0 2 3 6869.82 308.472 10
0 2 3 6049.07 378.315 12
0 2 3 6264.8 295.512 11
0 2 3 6950.48 384.844 6
0 2 3 6264.12 368.902 1
0 -2 -3 5999.09 363.436 6
0 -2 -3 6041.23 293.482 10
0 -2 -3 6248.72 297.275 11
0 -2 -4 31827.1 881.633 11
0 2 4 28410.7 1050.2 12
0 -2 -4 27102.4 1026.67 1
0 2 4 29378.9 948.86 2
0 2 4 28709.3 860.039 11
0 -2 -4 30076.8 1034.7 6
0 -2 -4 31607.9 879.524 10
0 2 4 27936.5 1035.31 7
0 -2 -4 30293 958.296 2
0 -2 -5 19876.2 616.415 11
0 -2 -5 20070.1 617.435 10
0 2 5 18316.8 600.499 11
0 -2 -5 18184.6 785.133 6
0 2 5 18959.1 730.101 2
0 2 5 17414.6 807.525 12
0 2 5 17685.3 803.174 7
0 -2 -5 17622.7 807.761 1
0 -2 -6 2439.42 311.208 1
0 -2 -6 2027.31 151.356 10
0 2 6 1713.25 219.674 2
0 -2 -6 2227.09 154.165 11
0 2 6 1775.49 257.919 12
0 2 6 2028.23 293.367 7
0 -2 -6 2211.45 280.161 6
0 -2 -7 2803.63 163.348 10
0 2 7 2721.28 334.237 12
0 2 7 2680.88 285.768 2
0 2 7 3430.71 381.05 7
0 -2 -7 3009.09 359.583 1
0 2 8 21095.7 1043.77 12
0 2 8 21983.9 953.276 2
0 -2 -8 24353.3 1121.13 1
0 2 8 22220.6 1062.56 7
0 2 9 43713.4 1538.97 2
0 2 9 40110.9 1629.2 12
0 -2 -9 41949.3 1689.67 1
0 2 9 40333.9 1650.2 7
0 2 10 2025.65 375.408 7
0 2 10 1246.69 234.793 2
0 2 10 1785.98 322.943 12
0 -2 -10 1529.63 347.433 1
0 2 11 2572.08 404.251 12
0 -2 -11 1786.63 364.738 1
0 2 11 3028.41 374.588 2
0 2 11 2661.31 460.976 7
0 -2 -12 2126.81 406.928 1
0 2 12 2416.45 451.81 7
0 2 12 1258.06 270.25 2
0 2 12 1312.45 320.611 12
0 2 13 676.105 240.112 2
0 2 13 894.66 303.754 7
0 2 13 663.27 259.834 12
0 -2 -13 428.095 245.53 1
0 2 14 1473.64 319.571 2
0 2 14 1383.35 392.855 7
0 -2 -14 1790.89 420.158 1
0 2 14 1432.76 336.276 12
0 2 15 8575.93 839.579 12
0 -3 17 360.59 241.108 2
0 -3 16 347.309 210.834 2
0 3 -16 492.557 311.261 4
0 3 -15 3721.19 529.63 4
0 -3 15 3721.96 531.454 2
0 -3 14 44884.9 1705.56 12
0 -3 14 42950 1906.71 2
0 3 -14 43648 1932.59 4
0 -3 13 22016.9 1239.35 14
0 -3 13 21979.9 1215.04 2
0 -3 13 21643.6 1037.74 12
0 3 -13 22707.3 1237.84 4
0 -3 12 19155.3 1085.03 2
0 -3 12 19689.5 935.794 12
0 -3 12 19458.7 1105.4 14
0 3 -12 18860.9 1076.84 4
0 -3 11 46007.9 1546.56 12
0 3 -11 44215.1 1733.11 4
0 -3 11 43282.2 1739.13 14
0 -3 11 44245.5 1754.39 2
0 -3 10 30491.7 900.292 10
0 -3 10 26470.5 1234.5 14
0 -3 10 27780.2 1261.62 2
0 3 -10 27484.4 1238.79 4
0 -3 10 29362.4 1095.14 12
0 -3 9 218.474 63.6454 10
0 -3 9 207.486 68.9432 11
0 -3 9 118.842 166.707 14
0 -3 9 197.529 87.0336 12
0 -3 9 315.757 159.549 2
0 3 -9 86.1091 136.323 4
0 -3 8 2563.64 209.495 10
0 3 -8 2252.66 192.493 11
0 -3 8 1924.67 285.156 14
0 -3 8 1919.08 277.787 2
0 -3 8 2302.53 198.865 11
0 -3 8 2143.17 220.639 12
0 3 -8 1954.97 277.8 4
0 -3 7 20883 729.474 11
0 -3 7 18756.5 878.568 2
0 -3 7 21524.2 735.663 10
0 3 -7 19997.2 709.298 11
0 3 -7 22341.1 775.877 8
0 3 -7 18935 868.932 13
0 -3 7 19509.4 862.69 14
0 -3 7 18397.7 706.163 12
0 3 -7 18938.3 841.545 4
0 3 -6 73187.1 1862.74 8
0 -3 6 66704.5 2041.42 2
0 -3 6 73585.6 1895.99 10
0 -3 6 72558.3 1889.91 11
0 -3 6 69827.3 1815.49 12
0 3 -6 66791.8 1868.49 10
0 3 -6 67405.6 1857.58 11
0 3 -6 65674.8 1977.57 4
0 -3 6 66094.9 1985.51 14
0 3 -6 63602.3 2003.09 13
0 -3 5 151319 3703 8
0 3 -5 148874 3834.51 4
0 -3 5 157134 3801.26 11
0 3 -5 148634 3779.6 11
0 3 -5 149581 3889.95 13
0 -3 5 149645 3844.7 14
0 -3 5 161694 3812.52 10
0 3 -5 160033 3718.96 8
0 -3 5 148863 3667.13 12
0 -3 5 161266 3856.79 1
0 3 -5 150580 3793.61 10
0 -3 5 152112 3930.98 2
0 -3 4 36020.1 1014.63 8
0 3 -4 39412.4 1163.34 5
0 -3 4 39087.9 1129.91 4
0 3 -4 35266.7 1108.97 4
0 3 -4 38996.6 1133.15 14
0 -3 4 38206.1 1145.81 10
0 3 -4 36518.4 1124.14 11
0 -3 4 38103.7 1138.26 11
0 -3 4 34704.3 1133.37 5
0 3 -4 35749.1 1163.59 13
0 -3 4 35514.3 1112.14 14
0 -3 4 35495.8 1178.43 2
0 3 -4 38210.5 1021.4 8
0 3 -4 36083.7 1129.05 10
0 -3 3 28535.4 823.561 8
0 -3 3 31199.8 972.102 13
0 -3 3 30941.5 964.716 11
0 3 -3 28023.5 881.993 4
0 -3 3 29935.3 897.583 4
0 3 -3 26548.3 942.495 13
0 -3 3 32826 993.921 3
0 -3 3 31262.2 954.736 9
0 3 -3 30304.5 833.599 8
0 3 -3 30682.1 946.771 5
0 -3 3 28932.6 889.942 14
0 -3 3 29203.2 962.212 2
0 3 -3 29174.2 968.792 3
0 3 -3 28377.2 950.32 10
0 -3 3 29914.6 962.893 10
0 -3 3 27629.8 924.81 5
0 3 -3 31769.8 913.171 14
0 3 -3 29348.3 952.569 11
0 -3 2 219968 5391.31 11
0 -3 2 235214 5354.74 3
0 3 -2 213784 5366.47 13
0 3 -2 217619 5349.02 3
0 -3 2 238606 5392.91 13
0 3 -2 207053 5369.19 11
0 -3 2 228307 5237.9 12
0 3 -2 228699 5269.65 4
0 3 -2 232228 5274.85 14
0 3 -2 207623 5372.6 10
0 -3 2 226041 5397.82 10
0 -3 2 216070 5344.12 2
0 -3 2 234175 5335.28 9
0 -3 2 222778 5239.17 8
0 -3 2 231275 5272.44 4
0 -3 2 213684 5331.31 5
0 -3 2 220295 5268.58 14
0 3 -1 105929 2583.82 4
0 -3 1 107793 2618.39 12
0 -3 1 106244 2626.57 9
0 3 -1 102417 2705.84 11
0 3 -1 104857 2623.98 3
0 -3 1 103152 2715.51 11
0 -3 1 106341 2720.43 10
0 3 -1 101319 2708.49 10
0 -3 1 110315 2712.8 13
0 3 -1 103706 2612.63 9
0 -3 1 107704 2584.26 4
0 3 -1 101319 2603.52 12
0 -3 1 107153 2628.35 3
0 -3 1 113214 2717.64 7
0 -3 0 125247 3011.5 12
0 3 0 113608 3023.02 7
0 -3 0 118827 3038.32 7
0 3 0 116857 3036.72 11
0 3 0 114193 2991.08 12
0 3 0 118677 2933.66 9
0 -3 0 126100 2937.14 4
0 -3 0 116251 2939.46 1
0 3 0 119474 2904.7 3
0 -3 0 123074 2942.19 9
0 -3 0 123666 3051.61 10
0 -3 0 120913 2910.29 3
0 3 0 117281 3041.16 10
0 -3 0 126220 3056.47 11
0 3 1 36.7015 79.7432 9
0 3 1 110.292 52.2744 3
0 3 1 298.205 121.43 11
0 -3 -1 292.634 108.676 11
0 -3 -1 110.645 89.7075 7
0 3 1 137.204 83.1637 10
0 3 1 29.1637 109.224 12
0 -3 -1 201.208 98.9163 12
0 3 1 314.727 124.667 7
0 3 1 147.786 82.3916 1
0 -3 -1 116.873 47.6387 3
0 -3 -1 155.046 118.7 6
0 -3 -1 -26.2704 84.8742 1
0 -3 -1 214.098 73.6433 9
0 3 2 56535.4 1579.1 9
0 -3 -2 60344.5 1588.12 9
0 3 2 56628.6 1699.89 12
0 3 2 56189.6 1628.5 11
0 3 2 59049.5 1482.6 3
0 -3 -2 61007.3 1650.42 10
0 3 2 55343.4 1682.5 7
0 3 2 58993.4 1641.74 10
0 -3 -2 61245.3 1657.63 11
0 -3 -2 56219.5 1652.05 1
0 -3 -2 57494.9 1711.37 6
0 3 2 63609.9 1679.04 1
0 -3 -3 5405.59 319.142 11
0 3 3 4673.78 356.644 7
0 3 3 4988.12 233.598 3
0 -3 -3 5433.66 305.058 2
0 -3 -3 4891.11 369.928 6
0 3 3 5289.15 386.9 12
0 3 3 4422.33 293.125 11
0 3 3 4945.54 305.741 9
0 3 3 5296.98 318.42 10
0 -3 -3 5193.74 311.171 10
0 -3 -3 5280.3 362.768 1
0 3 4 97083.7 2863.99 12
0 -3 -4 103280 2844.15 1
0 -3 -4 100944 2847.74 6
0 -3 -4 108592 2688.72 10
0 3 4 100960 2703.18 9
0 -3 -4 110987 2698.22 11
0 3 4 101901 2666.22 11
0 3 4 95250.5 2835.32 7
0 3 4 108912 2567.28 3
0 -3 -4 102911 2696.4 2
0 3 5 3624.97 358.272 7
0 -3 -5 4158.91 269.615 11
0 3 5 3952.12 261.774 11
0 3 5 3782.21 373.045 12
0 -3 -5 4026.83 271.138 10
0 -3 -5 3449.84 332.856 6
0 3 5 3485.2 292.473 9
0 -3 -5 3719.4 355.948 1
0 -3 -6 366.895 180.785 1
0 3 6 366.893 132.387 9
0 -3 -6 285.542 81.0738 11
0 -3 -6 458.409 163.567 6
0 -3 -6 291.579 82.1905 10
0 3 6 30.9332 152.21 7
0 3 6 346.598 140.963 12
0 -3 -7 6545.92 333.345 11
0 3 7 5788.42 508.065 7
0 -3 -7 5521.66 470.54 6
0 3 7 6260.99 458.8 9
0 3 7 5037.4 475.147 12
0 -3 -7 6032.99 327.573 10
0 -3 -7 5448.06 493.997 1
0 3 8 105.89 153.119 12
0 -3 -8 173.361 175.064 1
0 3 8 387.713 218.57 7
0 3 9 56.5603 149.12 12
0 3 9 328.14 224.557 7
0 -3 -9 -122.949 173.91 1
0 3 10 282.1 186.095 7
0 -3 -10 132.515 190.231 1
0 3 10 98.4572 137.476 12
0 -3 -11 11413.3 891.666 1
0 3 11 11275.7 769.063 9
0 3 11 9969.26 816.694 7
0 3 11 9838.19 808.522 12
0 3 12 1197.17 338.99 7
0 -3 -12 1957.75 429.116 1
0 3 12 1746.65 346.853 9
0 3 12 1564.22 359.93 12
0 3 13 1694.37 350.288 9
0 3 13 574.324 231.434 12
0 3 13 1391.76 380.147 7
0 -3 -13 1151.44 384.187 1
0 3 14 3548.46 500.588 9
0 3 14 4511.81 623.373 12
0 3 14 2851.64 520.66 7
0 -4 16 1407.63 347.56 2
0 4 -16 1174.37 326.547 4
0 4 -16 845.686 312.093 13
0 4 -15 915.032 307.777 13
0 -4 15 1179.1 306.836 2
0 4 -15 486.131 237.516 4
0 -4 14 45.8727 196.984 14
0 4 -14 20.3992 174.639 13
0 -4 14 300.293 223.27 2
0 4 -14 321.666 260.084 4
0 -4 13 1213.35 294.269 2
0 4 -13 1095.88 274.034 4
0 -4 13 1389.06 326.567 14
0 4 -13 1412.26 314.721 13
0 -4 12 44986.2 1860.14 2
0 4 -12 45058.8 1838.14 13
0 -4 12 48030.6 1586.6 12
0 -4 12 44068.3 1821.59 14
0 4 -12 45748.2 1839.45 4
0 -4 11 12996.3 817.121 14
0 4 -11 12331.8 819.266 13
0 -4 11 12110.3 817.533 2
0 -4 11 12361.3 640.315 12
0 4 -11 12171.8 802.724 4
0 -4 10 123.97 90.5767 12
0 4 -10 26.4716 140.615 4
0 4 -10 81.1854 148.601 13
0 -4 10 15.0732 125.631 2
0 -4 10 293.649 178.19 14
0 -4 9 6487.33 381.224 12
0 -4 9 6638.11 519.604 14
0 4 -9 6398.57 384.021 11
0 4 -9 5026.92 476.46 13
0 4 -9 5695.61 478.554 4
0 -4 9 5653.06 504.34 2
0 4 -8 6.81865 75.0459 11
0 4 -8 -159.557 167.071 13
0 -4 8 -51.5936 99.7539 2
0 -4 8 -63.6098 140.062 14
0 -4 8 13.4723 61.9045 12
0 4 -8 -118.577 112.086 4
0 -4 7 10780.1 609.097 14
0 -4 7 12167.3 489.58 12
0 4 -7 12483.7 524.756 8
0 -4 7 10452.6 648.245 2
0 4 -7 11156.4 647.263 13
0 4 -7 12929.3 591.132 10
0 4 -7 12010.5 568.118 11
0 4 -7 11849.7 623.856 4
0 -4 6 815.559 117.776 8
0 4 -6 809.973 149.616 10
0 -4 6 1154.12 209.872 2
0 4 -6 716.474 160.822 4
0 4 -6 1110.19 170.684 11
0 4 -6 989.814 128.428 8
0 4 -6 954.321 206.712 13
0 -4 6 872.466 179.51 14
0 4 -5 29055 846.93 8
0 4 -5 26548.4 1013.45 13
0 -4 5 25838.8 1022.73 2
0 4 -5 26921.6 976.715 11
0 4 -5 27894.6 992.239 10
0 4 -5 26239.6 936.158 4
0 -4 5 27149.5 953.833 14
0 -4 5 27222 837.423 8
0 -4 5 27774.4 989.525 5
0 4 -4 2131.71 236.115 10
0 4 -4 2368.77 264.867 13
0 4 -4 2367.28 249.113 11
0 4 -4 2432.5 214.879 14
0 -4 4 2205.24 177.267 8
0 4 -4 1981.88 201.665 4
0 -4 4 1920.87 226.136 2
0 -4 4 2439.67 214.2 14
0 4 -4 2250.41 173.944 8
0 -4 4 2601.17 220.368 4
0 -4 4 2565.08 243.898 5
0 4 -3 40506.1 1190 4
0 4 -3 37523.8 1293.11 13
0 4 -3 42891.1 1206.51 14
0 -4 3 43785.4 1276.63 9
0 -4 3 41279.2 1139.38 12
0 -4 3 39928 1143.39 8
0 -4 3 41032.9 1194.86 14
0 4 -3 40902.5 1294.5 3
0 4 -3 40809.6 1325.27 10
0 -4 3 42223.8 1199.66 4
0 -4 3 39791.8 1262.43 5
0 4 -3 41811.6 1325.1 11
0 -4 3 41205.7 1284.09 2
0 -4 2 536.605 97.4654 12
0 4 -2 162.865 104.315 3
0 -4 2 457.299 117.831 3
0 4 -2 341.61 96.7215 9
0 -4 2 279.344 121.856 5
0 4 -2 240.037 123.387 13
0 -4 2 284.815 69.6087 4
0 -4 2 357.703 88.0938 8
0 4 -2 319.904 94.9966 4
0 4 -2 256.736 141.119 10
0 -4 2 545.451 115.918 9
0 4 -2 344.619 145.579 11
0 -4 2 379.689 84.2312 14
0 -4 1 35044.5 1049.56 3
0 4 -1 32234.7 1035.92 9
0 4 -1 32571.9 1155.04 10
0 -4 1 36137.4 1059.02 9
0 -4 1 34735.3 1059.07 12
0 4 -1 32814 1045.13 12
0 -4 1 35126 1014.5 4
0 4 -1 33017.6 1141.09 11
0 4 -1 34091.6 1039.9 3
0 4 -1 34523.1 1009.02 4
0 4 0 1111.77 192.481 10
0 -4 0 1271.11 170.727 12
0 -4 0 1265.93 143.215 9
0 4 0 1374.21 200.639 11
0 4 0 1183.61 133.961 3
0 4 0 1038.25 139.032 9
0 -4 0 1320.06 139.437 3
0 4 0 1141.28 188.403 7
0 4 0 1021.81 161.778 12
0 -4 0 1363.08 145.793 4
0 -4 0 1126.27 142.822 1
0 -4 -1 10934.7 569.676 6
0 -4 -1 10567.7 460.947 9
0 4 1 11143 475.577 9
0 4 1 10110.4 543.23 7
0 4 1 10304.7 537.897 10
0 4 1 10773.1 496.099 1
0 4 1 11100 419.534 3
0 -4 -1 9993.75 483.068 1
0 -4 -1 10293.5 410.031 3
0 4 1 11015.5 545.105 11
0 4 1 10122.1 532.206 12
0 4 2 440.675 140.781 12
0 4 2 571.181 111.696 9
0 4 2 483.488 147.089 7
0 4 2 434.893 85.1559 3
0 4 2 609.4 150.895 11
0 -4 -2 764.224 130.092 9
0 -4 -2 278.002 102.711 1
0 4 2 500.402 146.239 10
0 -4 -2 389.664 147.731 6
0 4 3 272.151 133.008 7
0 4 3 474.624 167.031 12
0 -4 -3 774.88 130.519 2
0 4 3 149.841 84.1272 11
0 4 3 411.177 84.1828 3
0 4 3 421.735 122.611 10
0 -4 -3 447.98 146.769 1
0 4 3 363.554 106.73 9
0 -4 -3 329.581 157.925 6
0 4 4 7293.46 512.734 12
0 4 4 6281.5 397.376 11
0 -4 -4 6048.89 474.356 6
0 -4 -4 6010.96 455.258 1
0 4 4 6835.56 308.886 3
0 4 4 5741.92 452.491 7
0 4 4 6377.38 395.258 9
0 4 5 2390.13 234.575 11
0 4 5 2302.69 312.094 12
0 4 5 2169.98 305.993 7
0 4 5 2128.41 241.201 9
0 4 5 2298.78 179.741 3
0 -4 -5 2556.18 324.699 6
0 -4 -5 1968.7 276.108 1
0 -4 -6 4401.11 435.735 6
0 4 6 4193.91 429.195 12
0 4 6 4174.09 433.331 7
0 4 6 3936.01 349.497 9
0 4 6 4720.13 277.802 3
0 -4 -6 4720.43 444.508 1
0 4 7 10196.7 461.273 3
0 -4 -7 8929.48 672.177 1
0 4 7 9940.26 702.324 7
0 4 7 9598.96 589.9 9
0 -4 -7 10233.8 696.783 6
0 4 7 8115.96 652.053 12
0 -4 -8 1847.58 327.454 6
0 4 8 1527.91 287.433 7
0 4 8 1800.18 194.743 3
0 4 8 1398.1 254.062 9
0 4 8 1659.34 319.851 12
0 -4 -8 2310.23 363.093 1
0 4 9 6203.29 614.304 12
0 4 9 6752.29 538.723 9
0 4 9 4936.78 527.91 7
0 -4 -9 5988.74 605.675 1
0 -4 -10 1377.47 316.625 1
0 4 10 1174.29 271.113 9
0 4 10 1085.28 290.086 12
0 4 10 1142.39 298.513 7
0 -4 -11 7950.76 762.59 1
0 4 11 7507.75 733.85 12
0 4 11 7642.22 640.154 9
0 4 11 6374.38 674.304 7
0 4 12 1534.58 330.084 9
0 4 12 901.402 279.21 7
0 -4 -12 1338.47 373.519 1
0 4 12 1330.62 357.789 12
0 4 13 -69.355 246.425 7
0 -4 -13 593.864 264.729 1
0 -5 16 542.317 276.462 2
0 5 -16 343.756 232.958 13
0 5 -16 1218.22 396.732 4
0 5 -15 1177.01 355.042 13
0 5 -15 1528.86 360.474 4
0 -5 15 1562.18 371.204 14
0 -5 15 898.571 292.282 2
0 -5 14 518.973 213.065 2
0 5 -14 497.499 194.097 13
0 5 -14 676.263 252.894 4
0 -5 14 1237.67 332.053 14
0 -5 13 423.035 218.852 2
0 5 -13 211.587 158.499 4
0 5 -13 770.027 284.107 13
0 -5 13 593.495 221.838 14
0 5 -12 2319.16 372.225 13
0 -5 12 3305.37 439.901 2
0 5 -12 2484.85 374.53 4
0 -5 12 2873.67 406.685 14
0 5 -11 17299.8 1010.56 13
0 5 -11 18481.1 1002.97 4
0 -5 11 19625.5 1030.73 14
0 -5 11 19133.9 789.779 12
0 -5 11 18302.5 1048.33 2
0 5 -10 24.558 97.0658 11
0 -5 10 88.5591 180.009 2
0 5 -10 -102.106 150.24 4
0 -5 10 145.268 92.2496 12
0 5 -10 12.1514 172.307 13
0 -5 10 47.0229 161.744 14
0 -5 9 -185.692 163.397 14
0 5 -9 -28.0945 92.4863 11
0 5 -9 -50.9866 159.031 13
0 -5 9 -56.2564 113.936 2
0 5 -9 -24.4876 153.337 4
0 -5 9 -28.7387 59.2366 12
0 5 -8 7333.26 482.56 11
0 5 -8 8104.8 509.736 10
0 -5 8 7690.79 582.27 2
0 -5 8 8006.01 392.79 12
0 5 -8 8840.05 551.822 4
0 5 -8 8651.38 440.584 8
0 5 -8 8278.24 581.863 13
0 -5 8 7232.54 526.269 14
0 5 -7 7147 368.692 8
0 -5 7 6830.93 465.697 14
0 -5 7 5378.38 463.759 2
0 -5 7 6803.93 363.734 8
0 5 -7 6705.48 454.675 11
0 5 -7 6221.85 486.011 13
0 5 -7 6341.72 440.662 4
0 5 -7 5679.23 433.045 10
0 5 -6 1046.09 198.337 11
0 5 -6 909.446 188.421 10
0 -5 6 949.05 131.698 8
0 -5 6 945.162 190.709 5
0 5 -6 672.652 108.538 8
0 5 -6 576.271 146.386 4
0 -5 6 724.822 150.944 14
0 -5 6 884.636 204.034 2
0 5 -6 828.358 194.401 13
0 -5 5 20763 863.376 5
0 -5 5 21198.4 816.482 14
0 -5 5 19267.1 875.001 2
0 5 -5 22649.9 730.596 8
0 5 -5 21770.2 906.642 10
0 5 -5 21269.5 889.445 11
0 -5 5 20475.9 712.492 8
0 5 -5 19395 885.541 13
0 5 -5 20864.7 802.6 4
0 5 -4 50966.6 1635.02 11
0 -5 4 52324.1 1505.51 14
0 5 -4 47401.2 1617.41 13
0 -5 4 49533.7 1583.22 5
0 5 -4 52893.9 1641.94 3
0 5 -4 51159.8 1651.23 10
0 -5 4 49771.7 1599.46 2
0 5 -4 50677.6 1489.79 4
0 -5 4 50345.8 1413.47 12
0 5 -4 55535.2 1520.85 14
0 -5 4 49316.8 1413.92 8
0 5 -3 4449.87 369.491 11
0 5 -3 3831.64 339.352 13
0 -5 3 4041.49 329.459 2
0 5 -3 4234.15 334.626 3
0 -5 3 3983.77 277.604 14
0 -5 3 4396.89 287.599 4
0 5 -3 4291.47 373.957 10
0 -5 3 4740.92 286.558 12
0 -5 3 4226.39 274.44 8
0 -5 3 3996.17 328.927 5
0 5 -3 4456.38 292.943 4
0 5 -2 18117.8 820.228 10
0 -5 2 18152.5 692.882 12
0 -5 2 16515.2 740.804 5
0 5 -2 17263 712.169 9
0 -5 2 17414.5 678.28 8
0 5 -2 18631.4 672.13 4
0 5 -2 18529.2 818.153 11
0 -5 2 19143.7 680.97 4
0 -5 2 17270.1 660.044 14
0 5 -2 18600.7 734.04 3
0 -5 1 207.927 98.5101 1
0 -5 1 30.6354 58.5424 4
0 5 -1 301.926 94.9881 3
0 5 -1 -54.5806 80.608 12
0 5 -1 364.061 161.164 10
0 5 -1 154.258 99.8681 9
0 -5 1 139.312 77.9211 3
0 5 -1 155.777 121.241 11
0 -5 0 65474.2 2069.11 6
0 5 0 64394.5 2049.25 7
0 5 0 67641 2079.74 10
0 5 0 70072.7 1926.23 9
0 5 0 72398.7 1890.92 3
0 5 0 68646.3 2013.63 12
0 -5 0 74461.3 1937.59 4
0 -5 0 67192.3 1922.84 1
0 -5 0 73028.8 1896.56 3
0 5 0 67250.1 2070.97 11
0 5 1 2914.47 316.603 7
0 5 1 3484.65 234.143 3
0 -5 -1 3142.5 222.479 3
0 -5 -1 2961.04 272.586 1
0 5 1 3348.46 321.283 11
0 5 1 3366.98 320.484 12
0 5 1 3019.08 260.77 9
0 -5 -1 3066.63 333.958 6
0 5 1 3102.42 309.412 10
0 -5 -2 12153.1 605.037 1
0 5 2 11677.3 547.791 9
0 5 2 11017.3 638.52 7
0 5 2 11241.5 618.335 11
0 5 2 12193.8 636.503 10
0 -5 -2 10755.5 651.476 6
0 5 2 11016 638.815 12
0 5 2 11419.3 459.966 3
0 5 3 20578.3 967.173 12
0 5 3 22823.6 708.275 3
0 5 3 21178.9 829.985 9
0 5 3 21221.4 964.135 7
0 5 3 21368.2 901.768 11
0 -5 -3 20143.3 972.362 6
0 5 3 21726 922.683 10
0 -5 -3 20610.5 910.862 1
0 -5 -4 1117.5 228.804 6
0 5 4 1917.89 229.189 9
0 5 4 2009.79 165.8 3
0 -5 -4 1634.57 255.365 1
0 5 4 1348.76 249.31 12
0 5 4 1518.6 243.949 7
0 5 4 1822.16 241.779 11
0 5 5 999.087 233.127 12
0 -5 -5 682.144 194.054 6
0 5 5 649.71 163.695 11
0 5 5 771.322 104.828 3
0 5 5 533.389 203.386 7
0 -5 -5 690.394 207.785 1
0 5 5 729.369 175.922 9
0 5 6 4344.02 380.665 9
0 5 6 4275.13 484.011 12
0 5 6 3864.35 453.682 7
0 -5 -6 4200.13 448.901 1
0 -5 -6 4107.88 454.644 6
0 5 6 4700.31 271.403 3
0 5 7 8125.59 665.45 7
0 5 7 7510.26 530.932 9
0 5 7 7441.68 655.246 12
0 -5 -7 7631.9 638.487 6
0 -5 -7 7438.25 626.631 1
0 5 8 11661.9 852.95 12
0 -5 -8 11693.4 834.956 1
0 5 8 11282.6 829.733 7
0 -5 -8 12206.9 840.251 6
0 5 8 11680.2 711.159 9
0 -5 -9 13022.9 908.624 6
0 5 9 11419.9 869.59 7
0 5 9 11367 889.091 12
0 5 9 12902 779.085 9
0 -5 -9 12184 886.932 1
0 5 10 571.282 206.795 12
0 5 10 419.95 201.839 7
0 -5 -10 859.002 309.381 1
0 5 10 646.966 236.952 9
0 5 11 198.63 181.93 12
0 5 11 -118.94 215.8 7
0 -5 -11 -160.504 252.381 1
0 5 12 444.726 244.531 12
0 5 12 -198.771 315.224 7
0 -5 -12 -168.709 178.657 1
0 6 -16 5590.57 665.282 4
0 6 -16 5526.77 668.328 13
0 -6 16 5689.13 691.465 14
0 -6 15 536.137 272.839 14
0 6 -15 252.153 219.949 13
0 6 -15 597.86 247.023 4
0 -6 15 39.7169 203.585 2
0 6 -14 15380.8 1062.38 13
0 6 -14 15069.8 1031.62 4
0 -6 14 15091.5 1029.45 14
0 -6 14 15359.6 1079.93 2
0 6 -13 5793 609.236 13
0 -6 13 5605.69 609.726 2
0 -6 13 5710.42 590.944 14
0 6 -13 5525.62 580.464 4
0 -6 12 175.265 185.063 2
0 6 -12 460.801 216.264 4
0 -6 12 252.971 200.761 14
0 6 -12 296.927 208.567 13
0 -6 11 568.851 240.501 2
0 -6 11 404.991 190.386 14
0 6 -11 387.654 197.048 4
0 6 -11 344.813 180.29 13
0 -6 10 241.748 81.2555 12
0 6 -10 268.16 175.258 4
0 6 -10 279.593 145.833 11
0 6 -10 44.3025 163.435 13
0 -6 10 353.255 174.2 2
0 -6 10 338.353 167.404 14
0 -6 9 21427.3 1095.59 2
0 6 -9 20840.5 986.186 4
0 6 -9 22189.2 969.856 11
0 -6 9 20859.5 996.284 14
0 6 -9 19806 1037.96 13
0 -6 9 21784.5 763.211 12
0 6 -8 11406.5 655.454 4
0 6 -8 10591.8 701.241 13
0 6 -8 12164.8 533.992 8
0 -6 8 11539.6 748.092 2
0 6 -8 10950.1 669.984 10
0 -6 8 11278.1 483.09 12
0 -6 8 11532.8 529.903 8
0 6 -8 11595.4 661.06 11
0 -6 8 11531.2 673.295 14
0 -6 7 4602.88 301.198 8
0 -6 7 4123.93 424.47 2
0 -6 7 4686.39 386.674 14
0 -6 7 5663.9 451.746 5
0 6 -7 4132.42 403.106 10
0 6 -7 4756.92 382.189 4
0 6 -7 4061.14 394.846 11
0 6 -7 4665.7 302.153 8
0 6 -7 4275.45 426.386 13
0 6 -6 2294.96 295.862 11
0 -6 6 2093.41 198.102 8
0 -6 6 2162.02 274.292 5
0 6 -6 1860.49 234.983 4
0 6 -6 1530.76 271.422 13
0 -6 6 1728.74 230.778 14
0 6 -6 1905.08 286.11 10
0 -6 6 1903.35 273.553 2
0 -6 6 2128.73 187.298 12
0 6 -6 2438.04 210.736 8
0 -6 5 1069.01 167.556 14
0 -6 5 1254.81 229.657 2
0 6 -5 929.875 205.55 10
0 6 -5 884.143 192.898 11
0 6 -5 1159.46 179.955 4
0 -6 5 1083.57 138.726 12
0 -6 5 1380.44 167.7 8
0 6 -5 1169.18 225.79 13
0 -6 5 1218.31 220.729 5
0 6 -4 8900.67 595.714 10
0 -6 4 9511.81 570.385 5
0 -6 4 9356.92 456.742 8
0 6 -4 9163.05 483.354 4
0 6 -4 9216.62 568.395 3
0 6 -4 9003.48 579.192 13
0 -6 4 9503.74 493.48 14
0 -6 4 9652.17 462.071 12
0 -6 4 9413.37 563.156 2
0 6 -4 9551.24 612.337 11
0 6 -3 53718.7 1854.87 11
0 6 -3 57352.9 1786.26 3
0 -6 3 57593.2 1801.83 5
0 6 -3 60228.6 1677.57 4
0 6 -3 56248.4 1884.57 10
0 -6 3 56888.6 1657.04 8
0 -6 3 57515.4 1781.49 2
0 -6 3 56186.1 1658.94 14
0 -6 2 7743.53 447.671 8
0 6 -2 8538.01 492.512 3
0 6 -2 8688.22 446.814 4
0 6 -2 7919.77 556.344 11
0 -6 2 8342.29 441.666 14
0 6 -2 8194.81 475.901 9
0 6 -2 8715.82 584.869 10
0 -6 1 149.153 91.5301 1
0 6 -1 92.5628 90.3396 12
0 6 -1 234.429 90.6988 3
0 6 -1 183.232 166.829 11
0 6 -1 369.995 185.488 10
0 6 -1 127.533 94.6154 9
0 6 0 206.131 131.34 11
0 6 0 275.954 142.177 10
0 6 0 286.842 87.4436 3
0 6 0 175.545 83.4651 9
0 -6 0 341.945 110.949 1
0 6 0 264.325 138.331 7
0 -6 0 511.787 195.837 6
0 6 0 357.915 120.59 12
0 6 1 5780.52 382.258 9
0 -6 -1 6208.35 345.017 3
0 -6 -1 5344.52 478.018 6
0 -6 -1 5289.75 393.482 1
0 6 1 5247.25 438.645 12
0 6 1 5473.9 456.343 10
0 6 1 5587.25 334.775 3
0 6 1 4978.78 429.207 11
0 6 1 5417.74 458.49 7
0 6 2 84429 2619.5 12
0 6 2 88101.4 2665.1 7
0 6 2 88925.9 2626.06 10
0 6 2 89248.8 2292.99 3
0 6 2 83735.6 2581.95 11
0 6 2 90271.8 2448.84 9
0 -6 -2 86679.9 2523.89 1
0 -6 -2 86251.1 2684.38 6
0 6 3 8356.47 492.518 9
0 -6 -3 8119.84 618.172 6
0 6 3 8464.38 605.917 12
0 6 3 7088.36 521.856 11
0 6 3 7162.1 568.934 7
0 6 3 7897.34 374.46 3
0 -6 -3 7253.21 523.787 1
0 6 4 1273.69 266.861 7
0 6 4 1825.57 162.636 3
0 6 4 1636.75 249.892 11
0 6 4 1240.18 193.816 9
0 -6 -4 1613.8 268.061 1
0 -6 -4 1632.2 296.315 6
0 6 4 1996.06 311.544 12
0 6 5 437.267 141.545 9
0 6 5 475.371 202.89 7
0 6 5 372.278 197.054 12
0 6 5 194.771 117.775 11
0 -6 -5 661.368 204.894 1
0 6 5 339.63 82.4553 3
0 -6 -5 581.164 204.341 6
0 6 6 14403.4 941.8 12
0 6 6 15396.1 938.005 7
0 6 6 16029.9 797.596 9
0 -6 -6 15013.4 901.885 1
0 -6 -6 13247.8 893.898 6
0 6 7 4395.47 513.065 7
0 -6 -7 4902.12 530.214 1
0 -6 -7 4908.09 549.39 6
0 6 7 4692.56 549.328 12
0 6 7 4649.85 429.814 9
0 6 8 1610.05 365.415 7
0 -6 -8 1693.07 359.377 1
0 6 8 2013.48 299.657 9
0 6 8 1675.04 338.956 12
0 -6 -8 1964.06 374.939 6
0 6 9 1294.91 299.368 12
0 -6 -9 898.468 274.379 1
0 6 9 1678.42 298.638 9
0 6 9 1644.64 364.467 7
0 -6 -9 2048.52 403.421 6
0 6 10 422.501 215.151 12
0 -6 -10 649.165 283.925 1
0 6 10 971.9 307.293 7
0 -6 -11 388.055 255.714 1
0 6 11 -16.7034 202.055 12
0 6 11 127.131 200.155 7
0 -7 16 523.537 281.277 14
0 7 -16 124.763 225.71 13
0 7 -16 731.852 322.833 4
0 7 -15 1559.41 386.207 13
0 -7 15 1909.43 410.343 14
0 7 -15 734.039 273.961 4
0 -7 15 1529.67 393.203 2
0 -7 14 3792.14 544.771 2
0 7 -14 4289.44 567.168 13
0 -7 14 3412.95 484.986 14
0 7 -14 4711.7 551.758 4
0 -7 13 3451.21 505.181 2
0 -7 13 3578.76 466.56 14
0 7 -13 3639.27 468.406 4
0 7 -13 3389.2 499.691 13
0 -7 12 2853.43 444.077 2
0 -7 12 2797.54 413.81 14
0 7 -12 3176.65 447.727 13
0 7 -12 2925.49 404.939 4
0 7 -11 8115.07 702.791 13
0 -7 11 9746.76 707.627 14
0 -7 11 10641.3 810.458 2
0 7 -11 9093.07 637.24 11
0 7 -11 10528 721.246 4
0 7 -10 2187.09 311.496 11
0 -7 10 2298.13 327.328 14
0 7 -10 2242.19 323.807 4
0 -7 10 1576.58 303.834 2
0 7 -10 2097.4 349.239 13
0 7 -9 -41.7683 145.492 4
0 -7 9 72.7334 114.444 14
0 7 -9 63.0685 141.536 13
0 7 -9 -12.6856 136.099 11
0 -7 9 40.9399 163.154 2
0 7 -8 21924.7 1065.97 10
0 -7 8 20616.5 1087.88 2
0 7 -8 20174 1062.41 13
0 -7 8 22212.4 1062.85 5
0 -7 8 22917.6 1002.69 14
0 -7 8 23786.7 835.126 8
0 7 -8 21297.9 1033.24 11
0 7 -8 20881.7 962.423 4
0 7 -7 4509.34 467.39 13
0 -7 7 5359.75 345.814 8
0 -7 7 5030.64 480.341 2
0 7 -7 5792.84 495.533 11
0 -7 7 5638.62 441.808 14
0 7 -7 5849.96 442.107 4
0 -7 7 5041.75 452.204 5
0 7 -7 4721.12 464.487 10
0 7 -6 3830.59 417.232 13
0 -7 6 3995.58 350.603 14
0 7 -6 4594.13 460.484 10
0 -7 6 5201.28 443.847 5
0 -7 6 4470.01 436.425 2
0 -7 6 4926.88 326.708 8
0 -7 6 4699.92 307.093 12
0 7 -6 4990.05 466.108 11
0 7 -6 5113.12 388.325 4
0 7 -5 914.979 219.69 13
0 7 -5 989.033 181.519 4
0 -7 5 1097.27 225.432 2
0 -7 5 1013.06 179.551 14
0 7 -5 1245.35 257.455 10
0 -7 5 806.343 143.95 8
0 -7 5 1227.56 238.642 5
0 7 -5 1153.19 241.636 11
0 -7 4 15336.3 692.256 14
0 7 -4 15452.7 800.851 3
0 7 -4 15555.6 867.552 10
0 7 -4 15593 856.541 11
0 -7 4 15146.9 782.022 2
0 7 -4 16052 702.341 4
0 -7 4 14982.6 785.687 5
0 -7 4 15272.1 671.164 8
0 -7 3 35598.2 1205.76 14
0 -7 3 34346.4 1345.03 5
0 7 -3 36343.1 1204.65 4
0 7 -3 37324.3 1331.48 3
0 -7 3 35370.3 1218.62 8
0 7 -3 35821.9 1447.89 10
0 7 -3 33020.5 1392.35 11
0 -7 3 37739.1 1331.68 2
0 -7 2 39348.1 1305.04 1
0 7 -2 38625.2 1362.03 9
0 7 -2 38085.6 1509.56 11
0 7 -2 42108.9 1397.91 3
0 -7 2 39496.7 1356.26 8
0 7 -2 41021.7 1562.62 10
0 -7 2 40584.9 1308.44 14
0 -7 1 31863.2 1359.24 6
0 7 -1 33847.9 1266.98 12
0 7 -1 34877.6 1414.6 10
0 7 -1 36816.2 1226.8 3
0 7 -1 33261.5 1377.23 11
0 7 -1 34258.3 1216.79 9
0 -7 1 33821.7 1188.25 1
0 7 0 23147.1 1099.16 11
0 -7 0 23019 1116.3 6
0 7 0 23694.7 1048.3 12
0 7 0 26038.2 943.683 3
0 7 0 23714.3 1120.78 10
0 -7 0 25395.6 984.369 1
0 7 0 24573.8 962.362 9
0 7 1 1680.13 295.829 7
0 7 1 1717.76 286.496 11
0 7 1 2129.92 301.45 12
0 7 1 1951.52 308.7 10
0 7 1 1801.82 238.658 9
0 -7 -1 1894.91 326.396 6
0 7 1 1961.2 208.035 3
0 -7 -1 1898.03 258.579 1
0 -7 -2 10184.6 625.946 1
0 7 2 9565.78 691.576 7
0 7 2 10254.9 575.222 9
0 7 2 9626.42 655.52 11
0 7 2 10554.3 489.355 3
0 7 2 9057.88 661.707 12
0 -7 -2 10026.3 726.882 6
0 7 3 17.1309 119.035 12
0 7 3 102.82 153.497 7
0 7 3 60.9155 123.863 11
0 -7 -3 104.58 125.57 6
0 -7 -3 161.96 138.817 1
0 7 3 221.67 111.792 9
0 7 3 205.443 82.4655 3
0 -7 -4 2742.76 349.437 1
0 7 4 2870.69 309.238 9
0 7 4 3069.83 418.338 7
0 -7 -4 2492.4 388.974 6
0 7 4 2317.9 340.314 12
0 7 4 3061.89 368.974 11
0 -7 -5 18455.5 1000.75 1
0 7 5 17702.6 922.755 11
0 -7 -5 16895.3 1050.23 6
0 7 5 16340.4 1007.06 7
0 7 5 17409.8 1062.34 12
0 7 5 19347 892.065 9
0 7 6 2972.25 338.983 9
0 7 6 1637.71 329.829 7
0 7 6 1625.63 357.814 12
0 -7 -6 2443.12 414.415 6
0 -7 -6 2144.19 368.803 1
0 -7 -7 5691.73 598.295 1
0 7 7 4904.79 602.088 12
0 7 7 5007.76 577.376 7
0 -7 -7 4947.53 583.683 6
0 -7 -8 3502.26 504.007 1
0 7 8 3830.29 528.888 7
0 -7 -8 3750.34 531.868 6
0 7 8 3177.06 516.476 12
0 7 9 1499.04 374.704 12
0 -7 -9 2567.33 461.161 1
0 -7 -9 2150.03 436.046 6
0 7 9 2336.05 448.066 7
0 7 10 185.59 234.481 7
0 -7 -10 -80.4724 206.298 6
0 -7 -10 -75.213 187.096 1
0 -8 16 11841.1 986.903 14
0 8 -16 11932.1 975.236 4
0 8 -15 264.662 241.375 13
0 -8 15 413.534 260.211 14
0 -8 15 213.389 242.164 2
0 8 -15 144.03 186.507 4
0 -8 14 3185.55 517.281 2
0 8 -14 4003.73 521.623 4
0 8 -14 3701.4 531.949 13
0 -8 14 4370.01 549.027 14
0 8 -13 193.17 166.924 4
0 -8 13 177.279 171.818 14
0 8 -13 -28.1254 202.735 13
0 -8 13 422.108 207.011 2
0 8 -12 167.514 181.181 13
0 -8 12 -47.9266 187.776 2
0 -8 12 277.392 199.347 14
0 8 -12 522.672 212.097 4
0 8 -11 521.832 231.829 13
0 -8 11 717.354 246.254 2
0 8 -11 592.477 207.956 4
0 -8 11 662.725 226.218 14
0 8 -11 626.181 207.852 11
0 -8 10 7326.37 677.115 2
0 -8 10 6948.77 586.436 14
0 8 -10 8013.57 626.065 11
0 8 -10 8425.71 623.161 4
0 8 -10 7222.25 662.223 13
0 8 -9 2790.59 372.58 11
0 8 -9 3430.38 378.436 4
0 -8 9 2284.68 325.159 14
0 -8 9 3508.03 457.498 2
0 8 -9 2966.94 411.751 13
0 -8 9 3209.12 411.009 5
0 -8 8 15721 913.299 5
0 8 -8 17972.6 873.199 4
0 -8 8 15424.2 942.308 2
0 8 -8 17304.8 954.855 11
0 -8 8 17517.2 868.09 14
0 8 -8 14902.3 935.766 13
0 -8 7 1017.5 231.308 2
0 -8 7 1016.39 168.026 8
0 8 -7 1369.52 277.071 10
0 8 -7 1039.08 249.965 11
0 -8 7 540.977 149.07 5
0 8 -7 502.675 202.768 13
0 8 -7 1026.66 199.158 4
0 -8 7 773.515 188.548 14
0 8 -6 5216.73 423.625 4
0 8 -6 4204.41 468.218 11
0 8 -6 5144.15 515.969 10
0 -8 6 5070.57 409.91 14
0 -8 6 5658.82 387.277 8
0 -8 6 5462.54 502.615 2
0 -8 6 4806.25 467.264 5
0 8 -6 4864.05 492.645 13
0 -8 5 8.16847 110.853 2
0 -8 5 221.508 170.091 5
0 8 -5 332.281 183.99 10
0 -8 5 -24.2037 94.8545 8
0 8 -5 68.3281 105.52 4
0 -8 5 201.607 111.449 14
0 8 -5 222.441 130.675 11
0 -8 4 1804.43 228.317 14
0 8 -4 1488.37 279.018 10
0 8 -4 2063 251.177 4
0 -8 4 1975.67 238.746 8
0 8 -4 2254.9 349.197 11
0 -8 4 1841.11 283.188 2
0 -8 4 1578.28 278.774 5
0 -8 3 6463.61 437.653 14
0 -8 3 6586.29 443.291 1
0 8 -3 7342.16 595.204 11
0 -8 3 6118.9 525.808 5
0 8 -3 6520.75 584.536 10
0 -8 3 7099.59 521.514 2
0 -8 3 6362.79 457.544 8
0 8 -3 6771.13 508.253 3
0 -8 2 17832.2 989.852 6
0 -8 2 18859.7 972.611 5
0 -8 2 18476.9 873.362 8
0 8 -2 19960.1 1056.62 10
0 -8 2 19346.8 828.131 14
0 8 -2 19852.4 894.982 9
0 -8 2 19549.4 841.312 1
0 8 -2 19905.2 896.609 3
0 8 -2 17791.1 1004.38 11
0 -8 1 8291.27 524.582 1
0 -8 1 8323.94 576.9 8
0 8 -1 8579.98 665.342 11
0 -8 1 8645.55 668.781 6
0 8 -1 9500.51 567.681 3
0 8 -1 9409.33 568.463 9
0 8 -1 9210.34 699.047 10
0 8 0 46987.7 1504.14 3
0 8 0 45535.2 1780.13 10
0 8 0 45926.9 1676.81 12
0 8 0 42670.5 1725.3 11
0 -8 0 42917.4 1763.89 6
0 -8 0 45473.3 1560.45 1
0 8 0 45930.8 1549.95 9
0 8 1 1400.01 299.619 11
0 -8 -1 1341.7 236.293 1
0 -8 -1 1026.46 270.023 6
0 8 1 1801.29 250.401 9
0 8 1 1706.06 279.128 12
0 8 1 1836.28 226.736 3
0 8 1 1789.36 323.529 7
0 8 2 4704.45 329.979 3
0 8 2 4157.93 482.759 7
0 8 2 4717.71 405.539 9
0 8 2 4280.04 466.152 12
0 -8 -2 4482.67 432.595 1
0 -8 -2 4480.04 522.732 6
0 8 2 4031.88 441.805 11
0 8 3 8248.75 686.76 12
0 -8 -3 7958.64 600.067 1
0 -8 -3 7770.77 698.069 6
0 8 3 7294.27 659.348 7
0 8 3 7171.83 518.299 9
0 8 3 8134.21 635.766 11
0 -8 -4 599.339 225.516 1
0 8 4 176.064 141.304 12
0 8 4 471.793 168.081 9
0 8 4 255.257 182.59 11
0 -8 -4 253.974 208.602 6
0 8 4 222.172 217.391 7
0 -8 -5 5208.92 532.396 1
0 -8 -5 5189.5 603.724 6
0 8 5 5365.59 591.3 7
0 8 5 4732.59 566.473 12
0 8 6 2535.84 440.232 12
0 8 6 1700.79 355.592 7
0 -8 -6 1447.87 361.774 6
0 -8 -6 2231.02 379.486 1
0 8 7 8697.74 825.359 7
0 8 7 10411.6 894.036 12
0 -8 -7 8789.65 828.995 6
0 -8 -7 9912.09 816.656 1
0 -8 -8 2748.53 505.743 6
0 8 8 2535.01 472.918 12
0 8 8 3669.92 537.645 7
0 -8 -8 2460.82 422.964 1
0 8 9 13.1184 197.314 7
0 -8 -9 505.955 250.941 1
0 -8 -9 401.102 218.189 6
0 -8 -10 175.873 222.182 1
0 9 -16 -224.169 233.08 4
0 -9 16 148.364 183.856 14
0 -9 15 415.482 239.861 14
0 9 -15 647.801 256.594 4
0 9 -15 511.235 244.998 13
0 -9 14 4739.78 639.483 2
0 -9 14 4975.34 586.619 14
0 9 -14 6097.83 628.927 4
0 9 -14 5065.33 635.524 13
0 -9 13 -72.5494 232.926 2
0 9 -13 247.974 231.573 13
0 9 -13 77.8381 174.309 4
0 -9 13 90.9761 148.275 14
0 9 -12 5326.41 625.975 13
0 -9 12 4843.61 532.965 14
0 9 -12 4815.52 527.416 4
0 -9 12 4220.16 557.825 2
0 -9 11 1610.36 364.382 2
0 9 -11 1675.52 322.253 11
0 9 -11 952.953 275.448 13
0 9 -11 1808.8 299.728 4
0 -9 11 1787.16 329.483 14
0 -9 10 11727 760.737 14
0 9 -10 11440.8 745.918 4
0 9 -10 9662.59 795.651 13
0 -9 10 10067.8 823.028 2
0 9 -10 10536.9 786.223 11
0 9 -9 12702.5 765.285 4
0 -9 9 12884.9 775.383 14
0 9 -9 12451.3 898.539 13
0 -9 9 12600.3 856.156 5
0 9 -9 12491 863.865 11
0 -9 9 12715.1 894.454 2
0 9 -8 3212.23 364.158 4
0 9 -8 2755.26 425.321 13
0 -9 8 2964.34 352.145 14
0 -9 8 3359.53 438.85 2
0 -9 8 3418.07 428.431 5
0 9 -8 3280.36 438.737 11
0 -9 7 13293.7 834.616 5
0 9 -7 13249.6 730.32 4
0 -9 7 12487.8 713.748 14
0 9 -7 12918 860.756 11
0 9 -7 10874.9 818.399 13
0 -9 7 12425.5 833.05 2
0 -9 6 11972.5 668.988 14
0 -9 6 11494.9 768.79 5
0 9 -6 10439.1 804.781 10
0 9 -6 10984.4 646.213 4
0 -9 6 10636 588.072 8
0 -9 6 10777.5 748.791 2
0 9 -6 10321.5 783.802 11
0 9 -5 24033.1 1260.43 10
0 9 -5 23555.5 997.572 4
0 -9 5 22783 984.454 14
0 -9 5 23480.2 968.708 8
0 9 -5 22807.5 1213.09 11
0 -9 5 23522.1 1135.92 2
0 -9 5 24624.8 1180.65 5
0 9 -4 1014.87 276.215 11
0 -9 4 1524.29 240.376 8
0 -9 4 1458.17 263.277 2
0 -9 4 1703.58 236.992 1
0 -9 4 1409.82 278.133 5
0 9 -4 1472.53 314.166 10
0 -9 4 1868.47 241.702 14
0 -9 3 1852.33 308.986 5
0 -9 3 2344.25 285.669 1
0 -9 3 1948.26 270.414 8
0 9 -3 2633.91 403.849 10
0 -9 3 2353.9 318.59 2
0 9 -3 2167.43 368.074 11
0 -9 3 2418.38 278.334 14
0 -9 2 2576.21 294.788 1
0 -9 2 2570.48 322.488 8
0 -9 2 2645.06 395.639 6
0 9 -2 2856.6 430.457 11
0 9 -2 2716.66 325.287 9
0 -9 2 2345.52 311.905 2
0 -9 2 2452.44 285.929 14
0 -9 2 3089.29 411.044 5
0 -9 1 10210 615.929 1
0 9 -1 9563.84 618.11 9
0 -9 1 9614.91 658.614 8
0 9 -1 9163.77 736.494 11
0 -9 1 9906.96 596.668 14
0 9 -1 10581.4 623.011 3
0 -9 1 7749.53 693.531 6
0 9 0 -64.9913 148.986 11
0 -9 0 23.8959 182.467 6
0 -9 0 -32.744 132.239 1
0 9 0 62.3814 150.506 9
0 9 0 -45.8066 79.3005 3
0 9 1 215.892 186.864 11
0 -9 -1 28.6447 109.875 1
0 -9 -1 265.863 205.661 6
0 9 1 -43.3023 90.6968 9
0 9 1 -112.571 174.094 12
0 9 2 959.658 264.162 11
0 9 2 1069.12 278.047 12
0 -9 -2 917.76 283.155 6
0 9 2 471.769 137.006 9
0 -9 -2 653.569 208.712 1
0 9 2 489.308 252.756 7
0 9 3 11887.3 885.408 7
0 -9 -3 9926.02 838.717 6
0 9 3 10386.3 791.836 11
0 9 3 9982.3 803.138 12
0 -9 -3 11146.4 759.648 1
0 -9 -4 10318.9 753.782 1
0 9 4 10594.7 859.159 7
0 9 4 9643.52 756.322 11
0 -9 -4 8501.79 810.111 6
0 9 4 10342.2 834.178 12
0 9 5 157.737 182.474 12
0 -9 -5 548.275 291.328 6
0 9 5 97.1981 208.449 7
0 -9 -5 109.168 196.483 1
0 9 6 409.335 261.595 12
0 9 6 917.837 310.881 7
0 -9 -6 1509.83 350.898 1
0 -9 -6 1235.19 338.326 6
0 -9 -7 364.705 233.209 6
0 9 7 869.802 324.457 7
0 -9 -7 833.732 284.933 1
0 9 7 929.061 316.815 12
0 10 -15 1801.83 391.811 4
0 -10 14 251.973 219.769 2
0 10 -14 414.42 210.595 4
0 10 -14 411.45 206.849 13
0 -10 13 1501.06 395.585 2
0 10 -13 1057.69 276.915 4
0 10 -13 1528.22 368.062 13
0 10 -12 478.885 174.686 4
0 10 -12 692.953 280.242 13
0 -10 12 641.304 274.346 2
0 -10 11 128.281 177.098 2
0 10 -11 -133.369 213.382 13
0 10 -11 175.88 213.143 11
0 10 -11 22.7756 132.292 4
0 10 -10 8366.08 732.545 11
0 10 -10 7981.87 757.34 13
0 10 -10 9109.38 665.779 4
0 -10 10 8889.96 759.458 5
0 -10 10 7878.82 747.42 2
0 10 -9 -117.965 193.705 11
0 -10 9 -96.2626 183.542 2
0 10 -9 75.3595 108.144 4
0 -10 9 -30.322 165.387 5
0 10 -9 257.529 177.537 13
0 10 -8 6743.99 656.074 11
0 10 -8 6616.63 530.553 4
0 -10 8 6880.69 649.643 2
0 -10 8 5893.73 595.544 5
0 -10 7 148.214 187.511 5
0 10 -7 252.634 194.067 11
0 10 -7 -39.0325 115.464 4
0 -10 7 129.588 167.508 2
0 -10 6 7166.15 644.982 5
0 10 -6 7179.41 524.718 4
0 -10 6 7707.61 653.613 2
0 10 -6 6652.74 660.684 11
0 10 -5 12761.6 927.953 11
0 10 -5 13363.8 725.365 4
0 -10 5 13591 891.111 5
0 -10 5 12589.8 826.122 2
0 -10 4 3316.94 413.264 2
0 10 -4 3797.36 506.88 11
0 -10 4 4055.52 395.752 8
0 -10 4 3679.51 448.579 5
0 -10 3 5138.48 563.813 6
0 -10 3 5568.98 563.442 5
0 -10 3 4545.64 466.735 2
0 -10 3 5986.16 502.786 8
0 10 -3 5009.21 574.303 11
0 10 -2 -195.736 208.542 11
0 -10 2 319.746 211.239 6
0 -10 2 -92.7781 134.887 8
0 -10 2 -43.3083 135.656 5
0 -10 2 -539.989 169.956 2
0 -10 1 968.495 318.341 6
0 -10 1 108.748 126.091 8
0 10 -1 703.564 185.401 9
0 10 -1 503.83 215.698 11
0 10 0 4537.79 431.784 9
0 -10 0 3902.63 530.632 6
0 10 0 3509.23 496.201 11
0 -10 0 3714.52 471.576 8
0 10 1 3664.61 504.983 11
0 -10 -1 3424.32 507.082 6
0 -10 -2 806.993 314.959 6
0 10 2 882.184 267.106 11
0 10 2 931.278 276.167 12
0 -10 -3 6026.49 714.71 6
0 10 3 6249.79 681.074 7
0 10 3 6046.05 627.212 11
0 10 3 6324.33 672.893 12
0 10 4 -27.4027 212.315 7
0 10 4 -34.5262 138.617 12
0 -10 -4 -232.837 241.435 6
0 10 5 343.319 194.948 12
0 -10 -5 500.012 272.778 6
0 10 5 657.967 304.354 7
0 10 6 764.981 324.606 7
0 -11 13 -20.7389 188.173 2
0 11 -12 298.713 251.524 13
0 -11 12 146.47 219.244 2
0 -11 11 126.403 158.43 2
0 11 -11 579.952 276.216 13
0 11 -11 219.821 199.226 11
0 11 -10 610.088 268.33 13
0 -11 10 314.444 150.254 2
0 -11 10 -68.5656 177.478 5
0 11 -10 286.049 191.994 11
0 11 -9 1421.36 389.376 11
0 -11 9 800.451 270.529 5
0 -11 9 1177.64 329.269 2
0 -11 8 14320.6 978.121 5
0 11 -8 13781.5 1015.82 11
0 -11 8 14593.2 1007.54 2
0 -11 7 6946.17 669.438 5
0 -11 7 5725.1 615.267 2
0 11 -7 7676.19 736.531 11
0 -11 6 480.573 196.108 2
0 -11 6 638.672 263.604 5
0 11 -6 848.302 314.707 11
0 -11 5 1196.69 271.717 2
0 -11 5 598.102 237.344 5
0 11 -5 539.247 245.911 11
0 -11 5 587.315 245.828 6
0 -11 4 1564.45 293.64 2
0 -11 4 1068.8 302.753 5
0 11 -4 963.616 316.789 11
0 -11 4 816.164 262.284 6
0 11 -3 415.408 243.026 11
0 -11 3 309.348 232.777 5
0 -11 3 377.755 156.948 6
0 -11 2 2442.93 426.613 5
0 11 -2 1892.38 380.217 11
0 -11 2 2294.26 347.824 8
0 -11 2 2003.82 393.007 6
0 11 -1 184.259 189.382 11
0 -11 1 -128.404 161.827 8
0 -11 1 145.977 222.306 6
0 -11 1 312.874 206.251 5
0 -11 0 2776.17 409.543 8
0 -11 0 2552.57 461.926 6
0 11 0 3248.7 500.356 11
0 11 1 2887.77 474.912 11
0 -11 -1 2971.88 518.507 6
0 -11 -1 2150.78 390.794 8
0 -11 -2 954.426 307.243 8
0 -11 -2 781.242 288.164 6
0 11 4 3390.72 536.005 12
0 -12 11 571.258 270.56 2
0 -12 11 378.537 196.483 5
0 -12 10 186.091 228.976 5
0 -12 10 583.044 272.986 2
0 12 -10 462.082 244.253 11
0 12 -9 921.555 316.939 11
0 -12 9 218.383 193.156 2
0 -12 9 864.179 297.207 5
0 -12 8 952.57 286.332 5
0 -12 8 1047.93 291.871 2
0 12 -8 1371.25 369.768 11
0 -12 7 678.048 269.167 5
0 12 -7 65.5229 190.861 11
0 -12 7 181.068 188.969 2
0 12 -6 5060.98 637.019 11
0 -12 6 5906.71 659.065 5
0 -12 6 5746.04 653.724 6
0 -12 5 601.55 262.776 6
0 -12 5 520.835 268.827 5
0 12 -5 801.254 326.282 11
0 -12 4 1720.47 396.462 6
0 12 -4 1708.67 405.685 11
0 -12 4 1406.36 348.157 5
0 12 -3 8023.93 808.718 11
0 -12 3 9197.34 853.862 6
0 -12 3 8693.24 804.482 5
0 12 -2 12437.4 1028.15 11
0 -12 2 15244.5 1082.11 5
0 -12 2 13252 1061.12 6
0 -12 1 7612.15 809.554 6
0 -12 1 6684.73 720.279 5
0 12 -1 7089.28 775.117 11
0 12 0 6441.03 744.386 11
0 -12 -1 2615.01 434.865 8
0 -12 -2 8389.17 813.278 8
0 -13 10 3060.13 522.406 2
0 -13 9 5722.16 684.729 5
0 -13 8 384.737 223.529 6
0 -13 8 581.509 255.395 5
0 -13 7 101.052 206.554 5
0 -13 7 549.304 243.666 6
0 -13 6 517.171 282.881 5
0 -13 6 249.275 230.289 6
0 -13 5 1590.14 394.337 5
0 -13 4 4368.53 599.592 5
0 -13 3 50.0941 178.207 5
1 -13 4 2199.1 436.561 6
1 -13 5 -375.81 289.703 6
1 -13 6 206.344 204.012 6
1 -13 6 -43.7074 213.705 5
1 -13 7 2054.56 419.799 6
1 -13 8 2151.37 425.068 6
-1 12 3 14669 1115.78 12
-1 12 2 626.801 291.158 12
1 -12 0 11414.3 992.185 6
1 -12 0 11110.7 959.802 5
1 -12 1 9030.23 850.072 5
1 -12 1 10621.4 932.204 6
-1 12 -2 3016.66 510.658 10
1 -12 2 1987.92 407.25 6
1 -12 2 2934.19 498.949 5
1 -12 3 3347.69 528.619 6
-1 12 -3 2865.56 521.683 10
1 -12 3 3282.62 512.946 5
1 -12 4 711.694 291.536 5
-1 12 -4 768.764 313.866 10
1 -12 4 523.912 227.526 6
1 -12 5 2160.16 420.759 5
-1 12 -5 2507.67 477.472 10
1 -12 5 2537.46 446.626 6
-1 12 -6 1556.39 408.009 10
1 -12 6 1072.6 304.331 5
1 -12 6 1086.63 276.028 6
1 -12 7 1603.52 352.208 5
1 -12 7 1948.8 379.38 6
-1 12 -7 2268.44 456.573 10
1 -12 8 -8.47801 210.772 5
-1 12 -8 15.7728 235.663 10
1 -12 8 -96.6162 198.596 6
-1 12 -9 610.277 296.004 10
1 -12 9 -23.7231 197.148 2
1 -12 9 434.567 262.07 5
1 -12 10 466.502 308.067 5
1 -12 10 373.411 203.78 2
1 -12 11 250.364 226.532 5
1 -12 11 216.181 193.186 2
1 -12 12 95.8312 208.071 2
-1 11 4 616.45 264.15 12
-1 11 3 340.032 292.766 7
1 -11 -3 849.328 323.215 6
-1 11 3 974.247 288.22 12
-1 11 2 12494.4 942.16 12
1 -11 -2 11607.2 1002.27 6
1 -11 -1 7024.16 755.313 6
-1 11 1 7016.9 734.27 10
-1 11 1 7801.61 706.146 12
-1 11 0 4265.22 498.275 12
-1 11 0 3511.88 522.685 10
1 -11 0 4431.55 592.623 6
1 -11 1 20013 1253.8 6
-1 11 -1 23105.8 1361.84 10
1 -11 1 20743.1 1264.89 5
1 -11 2 17359.5 1134.35 5
1 -11 2 19039.5 1192.68 6
-1 11 -2 19677.6 1242.27 10
-1 11 -3 2431.5 479.363 10
1 -11 3 2019.45 390.209 6
1 -11 3 1983.84 401.85 5
1 -11 4 102.917 201.924 6
-1 11 -4 273.837 202.173 10
1 -11 4 447.295 250.754 5
1 -11 5 2924.49 437.71 6
1 -11 5 3682.66 504.834 5
-1 11 -5 2727.54 476.626 10
1 -11 5 3378.76 412.999 14
1 -11 6 558.242 244.74 6
-1 11 -6 103.242 136.752 4
-1 11 -6 -13.4672 183.706 10
1 -11 6 521.82 210.861 14
1 -11 6 272.826 148.911 2
1 -11 6 21.2274 172.274 5
1 -11 7 5538.26 585.298 6
-1 11 -7 5739.29 671.423 10
1 -11 7 5500.71 565.531 2
1 -11 7 5391.45 604.736 5
-1 11 -7 6597.86 587.261 4
1 -11 7 5859.12 550.703 14
1 -11 8 3892.11 487.045 6
1 -11 8 4506.32 563.583 5
1 -11 8 4310.72 483.051 14
-1 11 -8 3467.49 433.941 4
-1 11 -8 3952.02 559.617 10
1 -11 8 4760.3 534.128 2
1 -11 9 1162.4 316.611 5
1 -11 9 1019.4 278.382 2
-1 11 -9 538.513 266.994 10
1 -11 9 954.682 264.878 14
-1 11 -9 1044.34 257.404 4
-1 11 -10 593.711 287.382 10
1 -11 10 1315.43 345.44 5
1 -11 10 839.699 263.548 14
-1 11 -10 733.91 274.024 4
1 -11 10 282.436 175.234 2
-1 11 -11 3166.27 494.322 13
-1 11 -11 2776.85 486.577 10
1 -11 11 2141.5 378.248 14
-1 11 -11 2214.38 381.89 4
1 -11 11 2241.06 423.233 2
1 -11 12 723.865 278.86 2
1 -11 12 132.313 188.506 14
-1 11 -12 472.74 219.607 13
-1 11 -12 418.352 256.96 4
-1 11 -13 1387.5 327.542 4
1 -11 13 1451.29 365.85 14
1 -11 13 2075.01 470.325 2
-1 11 -13 853.935 308.154 13
-1 11 -14 2811.81 485.263 4
-1 11 -15 12468.3 1010.62 4
1 -10 -7 2173.28 427.915 1
-1 10 6 806.349 294.557 12
1 -10 -6 -0.47317 213.179 1
-1 10 5 54.0341 182.212 12
1 -10 -5 311.149 211.356 1
-1 10 5 284.246 277.981 7
1 -10 -5 259.946 235.851 6
1 -10 -4 1989.96 398.134 1
1 -10 -4 2517.1 476.716 6
-1 10 4 2207.07 415.531 12
-1 10 4 2069.96 414.866 7
-1 10 3 5554.72 659.056 7
-1 10 3 6858.96 683.606 12
-1 10 3 6688.23 669.359 10
1 -10 -3 5475.72 672.193 6
1 -10 -3 5240.02 580.498 1
-1 10 2 338.113 180.193 12
-1 10 2 189.245 168.036 10
1 -10 -2 282.839 175.346 1
1 -10 -2 457.79 300.485 6
-1 10 2 461.85 230.496 7
1 -10 -1 4011.68 474.018 1
-1 10 1 3971.37 473.364 12
-1 10 1 4481.15 548.632 10
1 -10 -1 3657.59 531.139 6
-1 10 0 468.674 178.415 12
1 -10 0 261.457 208.251 6
1 -10 0 216.774 193.865 1
-1 10 0 229.589 190.651 10
1 -10 1 5692.07 524.725 1
1 -10 1 5453.21 602.24 6
-1 10 -1 5538.95 515.721 12
1 -10 1 5841.46 517.745 14
1 -10 1 4718.29 546.687 5
-1 10 -1 6800.27 674.85 10
-1 10 -2 5727.74 628.101 10
1 -10 2 6272.19 623.009 6
1 -10 2 6744.08 548.306 14
1 -10 2 6568.84 519.842 8
1 -10 2 5299.47 592.164 5
1 -10 2 6577.27 560.007 1
1 -10 3 23529.3 1118.75 1
1 -10 3 23381.3 1115.69 14
-1 10 -3 23180 1308.05 10
1 -10 3 22017.1 1218.87 5
1 -10 3 21669.5 1202.09 6
1 -10 4 2522.37 341.248 14
-1 10 -4 2500.26 426.658 10
1 -10 4 1512.58 316.298 5
1 -10 4 2354.24 331.886 2
1 -10 4 2876.95 411.724 6
1 -10 4 2473.59 320.516 1
1 -10 5 7818.97 693.265 5
-1 10 -5 6786.75 681.608 10
1 -10 5 7053.82 574.03 14
1 -10 5 7948.31 605.058 2
-1 10 -5 8764.79 633.685 4
1 -10 5 6788.19 615.19 6
1 -10 6 309.881 172.416 14
-1 10 -6 235.074 187.568 10
1 -10 6 -26.2857 226.211 5
-1 10 -6 9.31522 149.777 4
1 -10 6 29.9669 141.512 6
1 -10 6 105.836 117.082 2
-1 10 -7 380.469 187.859 4
1 -10 7 619.253 206.348 2
1 -10 7 467.652 239.595 5
1 -10 7 415.662 200.236 14
-1 10 -7 491.367 234.641 10
1 -10 8 241.473 198.244 5
-1 10 -8 -128.614 231.947 10
1 -10 8 -57.0645 140.163 2
-1 10 -8 335.72 188.57 4
1 -10 8 -78.5873 142.195 14
-1 10 -9 1230.04 322.169 10
-1 10 -9 2002.54 381.66 13
1 -10 9 1852.42 351.581 2
1 -10 9 1613.77 334.16 5
1 -10 9 1971.91 343.628 14
-1 10 -9 1933.16 330.51 4
-1 10 -10 175.284 192.401 13
1 -10 10 212.815 182.136 2
-1 10 -10 1031.28 289.824 4
-1 10 -10 195.749 206.295 10
1 -10 10 242.284 180.706 14
1 -10 10 413.648 248.544 5
-1 10 -11 -130.024 183.102 13
1 -10 11 545.775 249.824 2
-1 10 -11 137.739 192.502 10
1 -10 11 271.877 187.054 14
-1 10 -11 -14.6485 154.606 4
1 -10 12 12355.6 904.777 14
-1 10 -12 12833.7 917.094 4
1 -10 12 12852.2 999.016 2
-1 10 -12 11172.7 926.25 13
1 -10 13 215.926 210.279 2
-1 10 -13 621.128 274.743 13
-1 10 -13 -106.998 237.185 4
1 -10 13 736.587 277.897 14
-1 10 -14 2660.94 459.167 4
1 -10 14 2421.2 475.171 2
1 -10 14 3505.73 522.365 14
-1 10 -14 4181.99 585.253 13
-1 10 -15 8089.96 805.121 4
1 -10 15 6949.82 755.387 14
1 -9 -8 1157.55 356.051 1
1 -9 -7 -330.876 287.785 6
-1 9 7 -218.571 231.291 7
-1 9 7 147.441 157.486 12
1 -9 -7 -254.854 213.945 1
1 -9 -6 1275.55 325.162 6
-1 9 6 1787.92 402.354 12
1 -9 -6 1321.3 337.282 1
-1 9 6 1059.86 303.904 7
1 -9 -5 3104.47 496.688 6
-1 9 5 3624.7 505.499 12
-1 9 5 3076.76 516.762 7
1 -9 -5 2407.19 392.913 1
-1 9 4 5152.2 586.36 12
-1 9 4 5392.34 565.762 10
1 -9 -4 5565.84 589.747 1
-1 9 4 3941.7 545.175 7
1 -9 -4 4413.6 570.987 6
-1 9 3 -101.713 172.79 12
-1 9 3 -114.539 228.576 7
-1 9 3 50.4997 178.731 10
1 -9 -3 66.8282 149.296 1
1 -9 -3 8.39633 175.321 6
-1 9 2 4155.24 496.088 10
1 -9 -2 4365.35 480.213 1
-1 9 2 4220.1 495.44 12
1 -9 -2 3518.94 475.652 6
-1 9 2 4156.36 532.384 7
-1 9 1 46994.5 1789.58 12
1 -9 -1 45436.6 1760.8 1
1 -9 -1 43960.5 1883.06 6
-1 9 1 45012.2 1899.22 7
-1 9 1 45919.8 1882.45 10
1 -9 0 3839.38 416.989 1
-1 9 0 2888.63 365.493 12
1 -9 0 3071.44 444.298 6
-1 9 0 2909.27 415.758 10
-1 9 -1 13103.4 766.461 12
-1 9 -1 12707.6 895.646 10
1 -9 1 13719.9 799.249 1
1 -9 2 10540 607.173 2
1 -9 2 10383 673.395 14
1 -9 2 11060.1 699.996 1
1 -9 2 10357.7 753.692 6
-1 9 -2 10300.2 637.38 12
-1 9 -2 10444.4 793.921 10
1 -9 2 9380.61 728.663 5
1 -9 2 11296.1 644.759 8
1 -9 3 3902.57 460.749 5
1 -9 3 3797.81 368.868 2
1 -9 3 3335.67 380.458 14
-1 9 -3 3679.49 467.704 10
1 -9 3 2638.22 333.175 1
1 -9 3 3594.23 437.871 6
1 -9 3 4121.99 352.473 8
-1 9 -4 307.511 190.51 10
1 -9 4 164.214 167.7 6
-1 9 -4 46.8791 126.808 4
1 -9 4 61.5544 175.183 5
1 -9 4 53.8815 77.8498 8
1 -9 4 351.718 150.564 2
1 -9 4 -55.4352 128.201 14
1 -9 5 -42.7688 122.85 14
1 -9 5 110.771 152.718 5
1 -9 5 133.984 159.644 6
1 -9 5 31.2024 123.628 2
-1 9 -5 22.6257 166.405 10
-1 9 -5 38.5782 142.053 4
1 -9 6 4594.33 460.94 2
1 -9 6 4734.55 507.205 5
-1 9 -6 5626.39 487.412 4
-1 9 -6 5536.83 571.861 10
1 -9 6 4356.2 447.101 14
1 -9 7 158.014 178.834 5
1 -9 7 459.019 165.557 2
-1 9 -7 398.153 172.977 4
1 -9 7 558.327 192.345 14
-1 9 -7 657.729 243.951 10
1 -9 8 25835.8 1280.03 2
-1 9 -8 26653.4 1224.75 4
1 -9 8 26264.5 1216.43 14
-1 9 -8 27860.3 1370.72 10
1 -9 8 26205.1 1310.55 5
-1 9 -8 25356.6 1302.26 13
-1 9 -9 3803.98 479.066 10
-1 9 -9 4209.44 465.115 4
1 -9 9 3851.98 494.127 5
1 -9 9 3110.95 406.182 14
-1 9 -9 4314.23 513.887 13
1 -9 9 4494.47 511.76 2
1 -9 10 9720.9 730.837 14
-1 9 -10 8923.05 752.586 13
-1 9 -10 9177.94 756.157 10
1 -9 10 8987.91 763.069 2
-1 9 -10 9941.95 731.002 4
1 -9 11 3212.32 437.59 14
-1 9 -11 3167.51 447.367 10
-1 9 -11 2636.56 401.992 13
1 -9 11 3395.58 489.612 2
-1 9 -11 3621.69 447.938 4
-1 9 -12 2433.92 381.547 10
1 -9 12 1895.39 397.474 2
-1 9 -12 2001.67 385.998 4
1 -9 12 1889.06 363.245 14
-1 9 -12 1844.88 371.188 13
1 -9 13 2121.28 391.299 14
-1 9 -13 1804.17 362.882 13
-1 9 -13 2108.71 403.165 4
1 -9 13 2375.96 457.62 2
1 -9 14 3189.13 491.552 14
1 -9 14 3236.4 534.838 2
-1 9 -14 2963.5 480.633 4
-1 9 -14 2344.49 451.638 13
-1 9 -15 3156.56 526.887 13
1 -9 15 3259.34 530.792 14
-1 9 -15 3749.25 544.053 4
1 -8 -9 183.988 263.141 1
1 -8 -8 532.582 286.111 6
-1 8 8 984.033 350.131 7
-1 8 8 386.252 194.772 12
1 -8 -8 554.547 263.489 1
1 -8 -7 3640.12 541.992 6
1 -8 -7 3973.46 543.076 1
-1 8 7 3470.59 503.532 12
-1 8 7 3182.81 512.342 7
-1 8 6 2212.72 404.731 12
-1 8 6 2237.77 432.463 7
1 -8 -6 2602.17 440.676 6
1 -8 -6 2839.5 445.461 1
-1 8 5 2946.68 442.656 7
-1 8 5 2813.8 430.265 12
1 -8 -5 2814.08 411.922 1
-1 8 5 2797.14 390.494 10
1 -8 -5 2756.68 451.107 6
-1 8 4 5071.46 552.465 12
-1 8 4 4244.43 463.069 10
-1 8 4 3892.5 499.687 7
1 -8 -4 5630.61 604.711 6
1 -8 -4 4688.9 508.357 1
-1 8 3 8564.69 720.477 7
1 -8 -3 8357.37 716.348 6
-1 8 3 9547.76 700.574 10
-1 8 3 8867.63 697.817 12
1 -8 -3 9310.8 694.861 1
-1 8 2 -48.9791 147.419 10
-1 8 2 168.547 147.56 12
1 -8 -2 -40.7131 137.843 6
-1 8 2 60.5061 66.3212 9
1 -8 -2 93.8849 154.894 1
-1 8 2 87.9726 148.196 7
1 -8 -1 30979.8 1441.72 6
-1 8 1 34926.8 1481.3 10
-1 8 1 30671.8 1443.86 7
-1 8 1 34930.4 1122.34 9
-1 8 1 31975 1363.52 12
1 -8 -1 31825.3 1342.39 1
1 -8 0 3217.84 279.349 2
-1 8 0 3056.89 352.627 12
-1 8 0 3139.53 403.404 10
1 -8 0 2744.17 344.302 1
1 -8 0 2792.69 387.317 6
-1 8 -1 15208.4 910.884 10
1 -8 1 14586.8 792.643 1
-1 8 -1 14521.1 760.383 12
1 -8 1 15374.9 685.077 2
1 -8 1 13450.7 837.699 6
1 -8 2 4083.72 393.465 1
-1 8 -2 4321.33 363.688 12
-1 8 -2 3936.02 458.068 10
1 -8 2 4155.47 436.851 6
1 -8 2 3750.73 379.779 14
1 -8 2 4025.33 339.135 2
1 -8 2 3787.98 436.011 5
1 -8 3 64.2529 135.296 14
1 -8 3 181.095 108.361 2
1 -8 3 -17.7412 122.9 6
1 -8 3 -137.291 150.735 5
-1 8 -3 13.9892 167.966 11
-1 8 -3 117.675 162.029 10
-1 8 -3 -198.656 133.789 4
1 -8 3 198.637 99.9239 8
1 -8 4 4472.01 417.046 14
-1 8 -4 4409.22 416.183 4
1 -8 4 4698.62 326.204 8
1 -8 4 5128.07 473.955 6
-1 8 -4 4507.96 485.891 10
-1 8 -4 4653.8 475.707 11
1 -8 4 5296.44 427.497 2
1 -8 4 4662.64 476.185 5
-1 8 -5 43128.8 1541.68 4
-1 8 -5 41148.3 1683.75 10
1 -8 5 41802.5 1538.23 2
1 -8 5 40406.9 1624.02 5
1 -8 5 41800.4 1534.18 14
1 -8 5 43715.9 1262.44 8
-1 8 -6 178.763 210.656 13
1 -8 6 -163.028 166.396 5
-1 8 -6 258.95 151.661 10
1 -8 6 -45.6147 126.426 14
-1 8 -6 59.6953 135.071 4
1 -8 6 185.821 147.539 2
-1 8 -7 5121.31 495.997 13
-1 8 -7 4737.43 454.417 4
-1 8 -7 3917.67 464.958 10
1 -8 7 4801.17 448.421 14
1 -8 7 4577.7 487.036 5
1 -8 7 4827.77 477.686 2
-1 8 -8 199.803 190.409 10
1 -8 8 206.927 173.072 5
1 -8 8 178.849 145.161 14
-1 8 -8 110.54 119.328 4
1 -8 8 418.221 196.529 2
-1 8 -8 183.514 167.783 13
-1 8 -9 10263.2 711.351 4
1 -8 9 10535.6 774.836 5
1 -8 9 10478.3 760.683 2
-1 8 -9 11221.7 779.582 10
1 -8 9 10017.8 710.938 14
-1 8 -9 9751.82 728.69 13
1 -8 10 159.206 178.652 14
-1 8 -10 320.653 190.74 10
-1 8 -10 429.994 179.565 4
1 -8 10 193.428 226.925 2
-1 8 -10 307.647 194.484 13
-1 8 -11 392.807 201.483 4
-1 8 -11 585.237 195.008 10
1 -8 11 650.96 237.226 14
1 -8 11 422.525 213.989 2
-1 8 -11 947.009 282.208 13
-1 8 -12 6597.5 650.709 13
1 -8 12 6800.12 652.271 14
-1 8 -12 6769.64 643.272 4
-1 8 -12 6666.3 594.42 10
1 -8 12 6182.4 654.736 2
1 -8 13 721.619 246.324 14
-1 8 -13 1798.87 362.897 13
1 -8 13 1802.36 388.187 2
-1 8 -13 1007.99 307.431 4
1 -8 14 160.33 185.875 2
-1 8 -14 296.893 216.371 13
1 -8 14 -57.1204 200.105 14
-1 8 -14 282.173 203.033 4
-1 8 -15 -29.7048 164.001 13
-1 8 -15 109.854 170.964 4
1 -8 15 168.005 189.166 14
1 -8 15 105.707 222.636 2
1 -8 16 15217.8 1151.1 14
-1 8 -16 14287.2 1112.99 13
-1 8 -16 15005.9 1126.85 4
1 -7 -10 352.191 214.238 1
-1 7 10 392.606 273.364 7
-1 7 10 307.755 260.133 12
1 -7 -9 503.626 260.312 1
-1 7 9 1414.03 350.953 7
-1 7 9 999.198 328.076 12
1 -7 -8 -67.6721 184.61 6
-1 7 8 112.149 167.328 7
1 -7 -8 345.15 247.714 1
-1 7 8 238.837 205.018 12
1 -7 -7 2232.51 395.417 1
-1 7 7 1729.35 351.333 12
-1 7 7 1490.19 321.619 7
1 -7 -7 1651.64 378.899 6
-1 7 6 1536.54 304.599 7
1 -7 -6 1343.06 322.82 1
-1 7 6 1490.04 332.362 12
1 -7 -6 662.527 273.322 6
-1 7 6 988.122 221.191 10
-1 7 5 1734.47 343.61 12
-1 7 5 2281.74 319.751 10
1 -7 -5 2063.82 375.409 6
1 -7 -5 1872.3 339.783 1
-1 7 5 1568.8 331 7
-1 7 4 4034.8 484.838 7
-1 7 4 3918.92 412.089 10
1 -7 -4 3149.03 426.961 6
-1 7 4 3894.91 445.979 12
1 -7 -4 3650.05 436.198 1
-1 7 4 3331.77 278.906 9
-1 7 3 197.301 154.6 12
1 -7 -3 -271.52 216.558 6
-1 7 3 100.529 82.0404 9
1 -7 -3 116.339 163.443 1
-1 7 3 72.4423 169.538 7
-1 7 3 -26.6859 112.697 10
-1 7 2 3046.17 379.318 10
1 -7 -2 3103.18 395.621 6
-1 7 2 3555.68 430.757 7
1 -7 -2 3107.08 349.356 1
-1 7 2 3095.45 375.199 12
-1 7 2 3181.53 251.867 9
-1 7 1 3405.74 363.405 12
-1 7 1 3030.66 384.222 7
-1 7 1 3655.65 266.681 9
-1 7 1 3940.22 415.142 10
1 -7 -1 3413.72 406.554 6
1 -7 -1 3581.18 382.083 1
1 -7 0 139.008 83.3489 3
1 -7 0 55.1423 71.3174 2
-1 7 0 40.2321 118.651 7
1 -7 0 418.869 167.983 6
1 -7 0 226.715 93.3342 9
1 -7 0 412.085 156.671 1
-1 7 0 116.474 154.459 10
-1 7 0 94.2199 107.491 12
1 -7 1 10781.6 631.336 1
-1 7 -1 11762.8 615.448 12
-1 7 -1 10560.1 695.086 10
1 -7 1 10351.3 668.708 6
1 -7 1 10750.3 527.436 2
-1 7 -2 -208.209 174.405 10
1 -7 2 -59.3286 98.3093 2
1 -7 2 302.577 162.337 6
1 -7 2 -69.4835 100.593 14
1 -7 2 48.7744 138.225 5
-1 7 -2 -42.5262 112.868 4
-1 7 -2 44.8433 76.3605 12
-1 7 -2 -61.4083 156.646 11
1 -7 3 18686.8 707.549 8
-1 7 -3 17408 826.001 4
1 -7 3 18376.4 913.543 5
1 -7 3 18603.8 848.994 14
1 -7 3 18400.5 795.827 2
-1 7 -3 18066.9 921.084 11
1 -7 3 17722.8 865.399 6
-1 7 -3 17916.4 937.946 10
1 -7 4 15818.4 597.867 12
-1 7 -4 14321.2 817.013 11
1 -7 4 15703.8 590.027 8
-1 7 -4 15958.7 779.272 4
1 -7 4 15540.1 770.97 14
1 -7 4 15712.1 753.52 2
1 -7 4 14198.6 805.596 5
-1 7 -4 15616.7 859.914 10
-1 7 -5 1792.86 297.109 13
1 -7 5 1524.65 242.464 2
1 -7 5 2076.34 164.306 8
1 -7 5 1541.03 249.34 14
1 -7 5 1544.23 259.206 5
1 -7 5 1857.69 149.563 12
-1 7 -5 1439.48 265.122 10
-1 7 -5 1811.39 261.243 4
1 -7 6 43925.8 1125.24 12
-1 7 -6 41800.9 1608.36 13
-1 7 -6 46376.7 1592.4 4
1 -7 6 47320.4 1609.34 14
-1 7 -6 46328.7 1689.57 10
1 -7 6 43706.4 1598.29 2
1 -7 6 45664.8 1185.2 8
1 -7 6 45035 1654.67 5
-1 7 -7 684.751 189.035 4
1 -7 7 740.129 221.473 2
1 -7 7 526.364 175.81 14
1 -7 7 401.145 207.794 5
-1 7 -7 362.222 158.505 10
-1 7 -7 348.463 177.069 13
1 -7 8 6883.54 548.001 14
-1 7 -8 6917.37 568.457 13
1 -7 8 6621.98 565.785 2
-1 7 -8 7667.1 587.774 10
1 -7 8 6533.72 564.211 5
-1 7 -8 7003.99 551.777 4
-1 7 -9 273.429 190.677 13
1 -7 9 243.027 160.769 14
-1 7 -9 304.248 179.424 10
1 -7 9 210.032 140.224 2
-1 7 -9 126.038 162.921 4
-1 7 -10 14894.4 898.421 13
1 -7 10 15356.4 911.251 14
1 -7 10 14624.9 935.178 2
-1 7 -10 13573.8 852.076 4
-1 7 -10 15120.5 861.163 10
-1 7 -11 929.333 264.444 4
-1 7 -11 1662.39 322.244 13
1 -7 11 1981.54 349.146 14
-1 7 -11 1431.94 263.152 10
1 -7 11 1632.95 329.613 2
1 -7 12 1921.75 375.115 2
1 -7 12 3634.7 462.492 14
-1 7 -12 3478.94 400.034 10
-1 7 -12 2883.35 417.696 13
-1 7 -12 3165.37 451.821 4
1 -7 13 15760.9 1046.74 14
-1 7 -13 16186.1 1047.94 13
1 -7 13 16940.5 1114.22 2
-1 7 -13 16475.6 1059.67 4
-1 7 -14 2302.57 410.425 4
1 -7 14 2035.67 403.053 2
-1 7 -14 2097.12 415.117 13
1 -7 14 2826.69 483.382 14
-1 7 -15 1278.54 308.997 13
1 -7 15 1816.02 385.399 14
1 -7 15 822.506 284.573 2
-1 7 -15 1957.47 422.896 4
-1 7 -16 4856.87 636.007 13
1 -7 16 4315.04 615.327 14
-1 7 -16 4205.75 601.844 4
-1 6 11 2015.08 428.801 7
-1 6 11 2305.18 447.381 12
1 -6 -11 2422.7 488.651 1
-1 6 10 1946.85 423.065 7
1 -6 -10 1910.46 423.118 1
-1 6 10 2110.4 423.319 12
-1 6 9 268.74 218.417 12
-1 6 9 188.289 212.315 7
1 -6 -9 -58.766 168.908 1
1 -6 -8 34.3743 167.928 6
-1 6 8 309.398 185.616 7
1 -6 -8 -34.0147 186.952 1
-1 6 8 45.1549 179.368 12
1 -6 -7 21559.3 1222.21 6
-1 6 7 22599 1241.23 12
1 -6 -7 23718.1 1244.37 1
-1 6 7 22347.1 1232.71 7
1 -6 -6 23060.8 1169.4 1
-1 6 6 19258.2 1116.14 12
1 -6 -6 21986.3 1187.18 6
-1 6 6 22229.5 989.673 10
-1 6 6 19440.1 1118.57 7
-1 6 6 22172.8 869.694 9
-1 6 5 5581.97 364.037 9
1 -6 -5 5657.03 560.656 6
-1 6 5 4753.94 512.498 7
-1 6 5 6160.33 482.492 10
-1 6 5 4397.51 482.263 12
1 -6 -5 5242.9 517.881 1
-1 6 4 166.968 134.917 7
-1 6 4 239.541 80.6565 9
1 -6 -4 -35.8541 162.853 1
1 -6 -4 274.803 193.52 6
-1 6 4 140.384 136.186 10
-1 6 4 270.497 160.019 12
-1 6 3 32273.5 1346.85 12
-1 6 3 36239.9 1070.39 9
1 -6 -3 31781.8 1322.31 1
1 -6 -3 33890.2 998.569 2
-1 6 3 31951.9 1373.88 7
-1 6 3 34925.8 1329.09 10
1 -6 -3 31688 1377.5 6
1 -6 -2 4608.78 448.528 6
-1 6 2 4680.01 427.754 12
-1 6 2 5030.98 293.151 9
1 -6 -2 4869.3 268.435 2
1 -6 -2 5056.12 436.684 1
-1 6 2 5422.79 447.79 10
-1 6 2 5323.27 474.88 7
-1 6 1 7903.38 572.498 7
1 -6 -1 9153.48 363.115 3
-1 6 1 8156.97 383.815 9
1 -6 -1 7682.86 572.269 6
1 -6 -1 8459.34 389.779 9
-1 6 1 7930.53 552.402 10
-1 6 1 8587.7 551.76 12
1 -6 -1 8121.48 533.001 1
-1 6 0 24020.6 801.665 9
1 -6 0 25502.4 810.379 3
1 -6 0 25902 816.587 9
1 -6 0 22640 975.413 1
1 -6 0 22997.3 1024.61 6
-1 6 0 21687.8 1026.76 7
1 -6 0 23672.4 802.642 2
-1 6 0 24240.7 1052.48 10
-1 6 0 25327.3 970.402 12
1 -6 1 8404.25 402.989 9
-1 6 -1 8187.9 559.163 10
1 -6 1 8505.73 425.96 3
1 -6 1 7151.62 508.734 6
1 -6 1 8094.84 502.992 1
-1 6 -1 7447.03 448.718 12
1 -6 1 7665.44 397.3 2
1 -6 2 12829 554.592 9
1 -6 2 12302.8 658.027 6
1 -6 2 12061.6 673.093 5
-1 6 -2 13024.9 640.416 4
-1 6 -2 12211.4 549.478 12
-1 6 -2 11710.9 674.132 11
1 -6 2 12753.7 568.968 2
1 -6 2 10895.2 605.64 14
-1 6 -2 12153.2 698.675 10
1 -6 2 12818.7 560.33 12
-1 6 -3 44298.6 1561.68 11
-1 6 -3 42517.1 1568.78 10
1 -6 3 43970.9 1549.98 5
1 -6 3 43822.8 1472.89 14
1 -6 3 45396.7 1283 8
1 -6 3 46064.8 1435.12 2
1 -6 3 45691.4 1310.54 12
-1 6 -3 47361.2 1302.54 12
-1 6 -3 46056.7 1490.08 4
1 -6 3 44110.7 1491.41 6
1 -6 4 864.303 108.206 8
-1 6 -4 866.084 208.813 10
-1 6 -4 837.841 199.967 13
1 -6 4 687.261 139.06 2
1 -6 4 949.446 216.239 5
-1 6 -4 1189.48 201.581 4
1 -6 4 771.795 172.361 14
1 -6 4 927.29 107.379 12
1 -6 5 14048.7 423.035 12
1 -6 5 14267.1 715.607 2
-1 6 -5 14520.5 771.816 10
-1 6 -5 14850.2 716.268 4
1 -6 5 13542.4 744.915 5
-1 6 -5 13919.7 729.436 13
1 -6 5 13119.6 441.06 8
1 -6 5 15175.5 730.185 14
-1 6 -6 13500.5 736.543 10
1 -6 6 13312.3 726.667 2
1 -6 6 12717.4 735.965 5
1 -6 6 13316.9 706.971 14
-1 6 -6 13833.6 729.323 13
-1 6 -6 13005.1 698.458 4
1 -6 7 2677.53 330.136 5
1 -6 7 2565.25 317.869 2
-1 6 -7 2490.44 314.827 10
-1 6 -7 2722.98 327.803 13
-1 6 -7 2818.74 324.213 4
1 -6 7 2295.53 304.715 14
-1 6 -8 41.9153 145.343 13
1 -6 8 -17.7157 152 2
-1 6 -8 29.5537 27.6651 8
-1 6 -8 14.9764 109.838 10
-1 6 -8 28.979 124.06 4
1 -6 8 53.9365 160.132 14
1 -6 9 733.811 212.984 2
-1 6 -9 587.52 185.339 10
-1 6 -9 248.8 149.337 13
1 -6 9 594.463 187.626 14
-1 6 -9 400.861 174.156 4
1 -6 10 9431.23 712.236 2
-1 6 -10 7148.95 600.184 13
-1 6 -10 8101.05 631.375 4
-1 6 -10 8507.85 583.498 10
1 -6 10 8717.4 660.837 14
-1 6 -11 3187.92 410.971 13
-1 6 -11 3500.49 374.924 10
1 -6 11 4055.2 474.996 14
-1 6 -11 4093.16 469.091 4
1 -6 11 3792.84 467.241 2
1 -6 12 12498.4 904.357 2
1 -6 12 13355.7 901.505 14
-1 6 -12 12988.8 884.46 4
-1 6 -12 12808.1 871.069 13
1 -6 13 25233 1392.93 2
1 -6 13 25820.2 1368.74 14
-1 6 -13 26962.7 1380.92 4
-1 6 -13 24396.3 1311.58 13
-1 6 -14 5360.37 604.492 13
-1 6 -14 4335.94 556.199 4
1 -6 14 5319.53 629.566 2
1 -6 14 5336.75 613.99 14
-1 6 -15 12360.9 952.762 13
1 -6 15 12003.3 973.321 14
1 -6 15 11930.1 983.749 2
-1 6 -15 11142.2 928.087 4
-1 6 -16 78.5243 170.569 13
1 -6 16 662.963 346.788 14
1 -6 16 761.687 347.821 2
-1 5 12 115.399 249.202 7
1 -5 -12 522.03 325.032 1
-1 5 12 201.729 219.865 12
1 -5 -11 1413.25 377.162 1
-1 5 11 960.352 302.029 7
-1 5 11 1298.74 357.622 12
-1 5 10 669.519 254.261 7
-1 5 10 856.229 297.694 12
1 -5 -10 943.317 326.954 1
-1 5 9 511.866 157.015 9
-1 5 9 502.018 254.794 12
-1 5 9 679.543 221.204 7
1 -5 -9 847.67 269.502 1
-1 5 8 29077 1102.8 9
-1 5 8 25115.5 1332.84 7
-1 5 8 26307.1 1363.37 12
1 -5 -8 27044.6 1363.61 1
-1 5 7 4406.03 497.114 12
1 -5 -7 5151.84 543.528 6
-1 5 7 5487.15 401.954 10
-1 5 7 4784.77 373.482 9
-1 5 7 4842.97 519.225 7
1 -5 -7 4591.55 513.392 1
-1 5 6 4088.85 458.154 7
-1 5 6 3357.68 413.332 12
1 -5 -6 3998.1 458.39 6
-1 5 6 4356.98 331.893 9
1 -5 -6 4300.46 458.282 1
-1 5 6 4120.71 356.578 10
1 -5 -5 23492.4 1110.64 1
-1 5 5 25632.7 873.653 9
-1 5 5 22957.5 1118.3 7
-1 5 5 24891.9 992.796 10
1 -5 -5 23633.3 799.142 2
1 -5 -5 22974 1122.78 6
-1 5 5 22679.2 1112.55 12
-1 5 4 23262.1 790.091 9
-1 5 4 20328.9 1027.7 7
1 -5 -4 21273 1049.66 6
1 -5 -4 23315.8 739.012 2
1 -5 -4 22601.5 1036.64 1
-1 5 4 22048.8 1044.43 12
-1 5 4 25334.2 986.905 10
-1 5 3 1184.1 228.882 12
1 -5 -3 1082.42 225.857 1
-1 5 3 1231.53 235.766 7
-1 5 3 1448.07 219.238 10
1 -5 -3 1205.15 245.327 6
1 -5 -3 1241.97 117.561 2
-1 5 3 928.297 123.902 9
1 -5 -2 16191.7 529.352 2
-1 5 2 16010 765.026 10
-1 5 2 14677.3 749.697 12
1 -5 -2 16317.7 777.655 1
-1 5 2 14615.3 787.767 7
1 -5 -2 16499.8 825.838 6
-1 5 2 17140 567.077 9
-1 5 1 29499.2 1196.41 7
-1 5 1 32375.8 1164.34 12
1 -5 -1 34337.2 1197.22 1
1 -5 -1 33418.5 902.73 3
1 -5 -1 32076.1 1219.02 6
1 -5 -1 33245.1 939.559 9
-1 5 1 32392.6 1200.74 10
-1 5 1 32137.9 935.571 9
-1 5 0 13542.2 687.488 10
-1 5 0 13801.7 624.307 12
1 -5 0 14001.2 508.662 3
1 -5 0 14287.3 501.759 9
1 -5 0 12763.1 642.903 1
-1 5 0 13702.5 702.283 7
1 -5 0 12584.6 664.791 6
1 -5 0 14215.8 502.608 2
1 -5 1 20129 855.973 6
-1 5 -1 21753.7 922.516 10
-1 5 -1 21453.2 850.634 4
1 -5 1 23773.3 772.566 3
-1 5 -1 21198.8 775.8 12
1 -5 1 22643.9 729.059 9
1 -5 1 21409.2 727.382 2
1 -5 1 21626.7 789.442 12
1 -5 2 821.13 153.152 14
1 -5 2 1093.07 157.752 3
1 -5 2 998.889 178.896 6
1 -5 2 1002.57 143.268 2
1 -5 2 721.656 164.775 5
-1 5 -2 886.809 124.441 12
-1 5 -2 720.851 175.754 10
1 -5 2 897.789 127.006 12
1 -5 2 915.134 130.247 9
-1 5 -2 707.796 162.998 4
1 -5 3 244699 5692.77 12
-1 5 -3 225191 6027.5 10
1 -5 3 228229 5999.2 5
1 -5 3 238633 5954.68 14
1 -5 3 246317 5676.93 8
1 -5 3 257007 5874.3 9
-1 5 -3 244160 5959 4
-1 5 -3 245106 5691.01 12
1 -5 3 238509 5892.31 2
1 -5 4 143133 3898.52 5
1 -5 4 148194 3483.51 12
-1 5 -4 151421 3856.92 4
1 -5 4 150689 3861.03 14
1 -5 4 149206 3835.89 2
-1 5 -4 142528 3900.04 10
-1 5 -4 145596 3857.85 13
1 -5 4 152132 3489.04 8
-1 5 -5 5440 417.851 10
1 -5 5 5212.68 397.561 2
-1 5 -5 5525.81 408.47 13
1 -5 5 5625.34 408.318 14
-1 5 -5 5186.84 393.524 4
1 -5 5 5471.03 422.096 5
1 -5 6 16749.1 812.434 5
1 -5 6 16471.2 790.739 14
-1 5 -6 16377.2 782.191 4
1 -5 6 18265.2 837.65 2
-1 5 -6 17717.7 798.08 10
-1 5 -6 15622.9 759.448 13
-1 5 -7 7077.19 507.734 4
-1 5 -7 6958.98 472.57 10
-1 5 -7 6512.37 478.978 13
1 -5 7 6820.19 501.647 14
1 -5 7 7316 525.94 2
-1 5 -7 7327.52 276.822 8
-1 5 -8 9258.28 591.043 13
1 -5 8 8224.49 597.949 2
1 -5 8 7208.58 263.97 12
1 -5 8 7705.39 560.757 14
-1 5 -8 7679.25 550.002 4
-1 5 -8 8483.82 523.08 10
-1 5 -8 9309.73 353.939 8
-1 5 -9 832.965 175.292 10
-1 5 -9 459.604 173.23 4
1 -5 9 661.216 82.0528 12
1 -5 9 823.515 222.979 14
1 -5 9 990.018 233.66 2
-1 5 -9 640.508 102.096 8
-1 5 -9 775.581 211.115 13
1 -5 10 3711.85 429.72 14
-1 5 -10 2832.98 359.415 13
-1 5 -10 3554.3 340.817 10
1 -5 10 3590.31 225.824 12
1 -5 10 2634.81 387.452 2
-1 5 -10 3023.45 378.437 4
1 -5 11 13076.6 876.195 2
-1 5 -11 13601.4 857.845 13
-1 5 -11 13216.1 857.6 4
-1 5 -11 15189 716.194 10
1 -5 11 13138.3 867.731 14
-1 5 -12 2129.31 358.137 13
1 -5 12 1487.02 300.132 2
-1 5 -12 1581.32 312.08 4
1 -5 12 2108.07 362.312 14
1 -5 13 6922.79 677.127 14
-1 5 -13 6672.49 642.41 13
1 -5 13 6359.5 648.747 2
-1 5 -13 7194.9 673.905 4
1 -5 14 1825.2 390.021 2
-1 5 -14 2365.7 406.785 13
-1 5 -14 2597.72 437.765 4
1 -5 14 1388.35 318.22 14
-1 5 -15 10671.2 892.801 13
1 -5 15 9662.08 883.312 2
-1 5 -15 11889 949.181 4
1 -5 15 10838.5 909.981 14
1 -5 16 1935.07 417.641 14
-1 5 -16 528.619 252.135 13
-1 5 -16 1689.29 416.299 4
1 -5 16 889.874 296.63 2
1 -4 -13 7190.56 809.328 1
-1 4 13 6369.01 762.276 7
-1 4 13 5388.78 672.16 12
-1 4 12 483.54 236.991 12
1 -4 -12 513.569 284.531 1
-1 4 12 56.6897 211.665 7
-1 4 11 338.644 216.149 7
-1 4 11 602.619 260.359 12
1 -4 -11 797.882 286.517 1
-1 4 10 6432.26 654.065 12
-1 4 10 6333.41 649.522 7
-1 4 10 7648.75 560.125 9
1 -4 -10 7039.07 698.278 1
-1 4 9 691.786 249.597 7
-1 4 9 1089.19 286.154 12
1 -4 -9 698.458 256.96 1
-1 4 9 903.311 201.556 9
1 -4 -8 29087 1389.18 1
-1 4 8 33522.4 1191.83 9
-1 4 8 28937.3 1388.46 7
-1 4 8 28518.6 1387.02 12
-1 4 7 2524.39 356.514 7
-1 4 7 3579.76 285.214 10
-1 4 7 3124 141.491 3
-1 4 7 2487.04 369.082 12
1 -4 -7 3019.31 392.083 1
-1 4 7 2769.56 275.92 9
-1 4 6 44469.6 1353.85 10
-1 4 6 40176.8 1296.13 9
1 -4 -6 39356.6 1567.04 6
-1 4 6 38843.6 1570.27 7
-1 4 6 38089.4 1548.02 12
1 -4 -6 42665 1272.51 2
1 -4 -6 41442.7 1586.05 1
1 -4 -5 7760.12 564.264 1
-1 4 5 7519.09 550.518 12
1 -4 -5 8331.76 583.11 6
-1 4 5 8043.05 460.576 10
-1 4 5 7281.15 555.6 7
-1 4 5 8133.66 411.439 9
1 -4 -5 8024.1 378.339 2
-1 4 4 48.1321 141.803 7
-1 4 4 -80.1456 100.422 12
1 -4 -4 85.4208 99.8463 1
-1 4 4 10.5851 51.3907 9
1 -4 -4 136.028 136.347 6
1 -4 -4 13.2915 45.7713 2
-1 4 4 -11.6773 98.2224 10
1 -4 -3 35906.1 1338.59 6
1 -4 -3 35947.8 1317.16 1
-1 4 3 36298.7 1336.65 7
-1 4 3 38232 1245.33 10
-1 4 3 37889.8 1058.2 9
1 -4 -3 38864.8 1009.22 2
-1 4 3 34385.7 1300.48 12
-1 4 2 18357.9 809.157 7
1 -4 -2 17473 793.05 6
1 -4 -2 18105.2 780.254 1
1 -4 -2 17469.2 519.554 2
-1 4 2 16963.7 760.777 12
-1 4 2 18696.3 760.613 10
-1 4 2 18560.1 560.082 9
-1 4 1 140080 3702.27 12
-1 4 1 140494 3786.58 7
1 -4 -1 141067 3773.66 6
-1 4 1 145331 3753.51 10
1 -4 -1 149650 3451.92 9
-1 4 1 150009 3451.15 9
1 -4 -1 146568 3427.95 3
1 -4 -1 139160 3743.09 1
-1 4 0 41838.4 1351.21 10
1 -4 0 42202.6 1326.43 1
1 -4 0 42610.4 1275.6 12
-1 4 0 42254.2 1266.35 12
1 -4 0 42832.9 1109.29 9
1 -4 0 43331.4 1146.89 3
1 -4 0 39369.9 1322.59 6
1 -4 0 42605.2 1116.34 2
-1 4 0 41432.5 1363.9 7
-1 4 -1 45344.9 1309.89 12
-1 4 -1 44486.4 1457.73 10
1 -4 1 49058.2 1326.69 12
1 -4 1 47874.4 1257.64 9
-1 4 -1 45169.2 1408.23 4
1 -4 1 45317.5 1408.25 6
1 -4 1 50482.6 1333.38 3
1 -4 1 47313.1 1279.42 2
-1 4 -2 196.907 138.325 10
1 -4 2 51.9814 81.672 6
1 -4 2 6.55263 121.411 5
1 -4 2 172.893 106.554 13
1 -4 2 147.89 59.2759 12
-1 4 -2 123.809 56.3702 12
1 -4 2 -32.5861 69.0749 2
-1 4 -2 130.089 71.7924 2
1 -4 2 275.773 120.794 14
-1 4 -2 -50.4169 116.094 4
1 -4 2 135.127 89.4267 3
1 -4 2 65.7566 55.8544 9
1 -4 3 43666.1 1325.68 2
-1 4 -3 43183.9 1398.58 10
-1 4 -3 43788.2 1105.54 12
1 -4 3 45437.6 1113.06 12
-1 4 -3 43075 1347.45 13
-1 4 -3 49099.2 1360.13 2
1 -4 3 42811.7 1396.73 5
-1 4 -3 43469.3 1361.82 4
1 -4 3 44566.5 1094.73 8
1 -4 3 44074.6 1377.83 14
-1 4 -4 3652.11 306.295 10
1 -4 4 3805.92 327.268 5
1 -4 4 3448.78 296.645 14
-1 4 -4 3798.81 310.245 4
-1 4 -4 4247.54 309.287 13
1 -4 4 3628.14 299.204 2
-1 4 -5 117092 3099.59 10
1 -4 5 114535 3151.31 5
1 -4 5 116701 3134.17 14
-1 4 -5 118189 3128.91 4
-1 4 -5 118213 3090.61 13
1 -4 5 119235 3146.49 2
1 -4 6 2985.27 310.056 2
-1 4 -6 3176.28 282.59 10
-1 4 -6 3303.44 307.277 13
1 -4 6 3379.85 321.334 14
-1 4 -6 3404.43 328.193 4
-1 4 -6 3551.9 170.467 8
1 -4 7 573.1 176.815 2
1 -4 7 661.076 71.2706 12
-1 4 -7 719.568 195.219 4
-1 4 -7 380.815 152.862 13
-1 4 -7 657.845 155.869 10
-1 4 -7 670.812 92.3688 8
1 -4 8 20241.9 973.889 14
-1 4 -8 23005.2 745.915 8
-1 4 -8 21400.1 847.002 10
1 -4 8 21497.8 679.611 12
1 -4 8 20631 993.143 2
-1 4 -8 21459.3 961.504 13
-1 4 -8 21198 978.884 4
1 -4 9 2731.98 351.604 14
-1 4 -9 2867.18 352.406 4
1 -4 9 3064.4 221.308 12
-1 4 -9 2904.28 240.232 8
-1 4 -9 2441.73 324.314 13
1 -4 9 2658.81 344.619 2
-1 4 -9 3107.78 282.517 10
1 -4 10 1596.16 292.699 14
-1 4 -10 1900.76 217.096 10
1 -4 10 1347.93 276.268 2
1 -4 10 1885.8 193.412 12
-1 4 -10 2185.23 340.964 13
-1 4 -10 1479.64 288.59 4
1 -4 11 754.451 229.982 14
-1 4 -11 616.316 133.256 10
-1 4 -11 418.846 195.389 13
1 -4 11 567.341 128.763 12
-1 4 -11 580.861 204.085 4
1 -4 11 840.219 253.746 2
1 -4 12 6011.94 596.833 14
1 -4 12 6237.02 608.047 2
-1 4 -12 5242.3 543.425 13
-1 4 -12 5963.47 599.001 4
1 -4 13 3361.27 481.871 14
-1 4 -13 3327.57 443.016 13
1 -4 13 3214.85 457.957 2
-1 4 -13 2930.71 438.996 4
1 -4 14 1358.73 337.497 14
1 -4 14 1589.63 349.739 2
-1 4 -14 2508.44 418.688 13
-1 4 -14 1785.35 378.162 4
1 -4 15 2108.54 420.312 14
-1 4 -15 1300.76 361.445 4
-1 4 -15 2286.04 399.256 13
1 -4 15 2770.78 482.648 2
1 -4 16 -89.6919 219.781 14
-1 4 -16 192.367 272.322 13
1 -4 16 -105.502 192.563 2
-1 4 -16 -165.54 201.232 4
-1 3 14 2281.03 446.474 12
-1 3 13 458.546 277.242 12
-1 3 13 108.511 248.132 7
1 -3 -13 172.643 254.243 1
-1 3 12 1698.51 352.734 12
1 -3 -12 1665.68 388.794 1
-1 3 12 1442.9 403.859 7
-1 3 11 2617.22 329.751 2
-1 3 11 2602.37 435.773 7
-1 3 11 2486.15 411.409 12
1 -3 -11 1857.63 396.873 1
1 -3 -10 219.86 216.62 1
-1 3 10 42.1797 123.17 12
-1 3 10 318.261 126.199 2
-1 3 10 407.01 199.34 7
1 -3 -9 4404.01 519.49 1
-1 3 9 4541.57 378.602 2
-1 3 9 3809.74 465.847 12
-1 3 9 2872.37 414.541 7
-1 3 8 24926 1213.99 7
-1 3 8 23226.9 1183.55 12
1 -3 -8 25851.6 1242.22 1
-1 3 8 28305.2 858.546 10
-1 3 8 26480.3 1008.64 2
1 -3 -7 16745.4 618.561 11
-1 3 7 16608.1 614.896 10
-1 3 7 13791.8 836.55 7
-1 3 7 13651.5 818.787 12
-1 3 7 14428.5 652.982 2
1 -3 -7 14365.3 846.671 1
-1 3 7 15650.8 541.758 3
1 -3 -6 26832.3 886.912 10
-1 3 6 25528.9 885.929 2
-1 3 6 22585.6 1083.16 7
-1 3 6 26819 748.882 3
-1 3 6 27374.7 890.381 10
1 -3 -6 27739.3 898.778 11
1 -3 -6 24684.7 1110.36 1
-1 3 6 23193.1 1094.28 12
1 -3 -6 25867.6 902.452 2
1 -3 -5 148.041 160.046 6
-1 3 5 40.5988 22.21 3
1 -3 -5 32.4157 55.1554 11
-1 3 5 -85.2937 151.033 7
1 -3 -5 68.1906 53.3324 2
1 -3 -5 99.6986 80.0003 10
1 -3 -5 63.7337 171.085 1
-1 3 5 127.613 71.9088 10
-1 3 5 212.283 135.072 12
-1 3 5 45.0956 53.2949 2
-1 3 4 6929.08 481.083 12
-1 3 4 7669.81 403.22 10
1 -3 -4 7231.85 484.055 1
1 -3 -4 7114.82 396.973 10
1 -3 -4 7711.27 329.568 2
1 -3 -4 7171.05 490.171 6
-1 3 4 7624.09 495.683 7
1 -3 -4 8460.04 419.364 11
1 -3 -3 4534 302.227 10
-1 3 3 4050.93 337.192 7
1 -3 -3 4612.97 302.36 11
-1 3 3 4543.16 308.122 10
-1 3 3 4622.74 225.382 9
-1 3 3 4174.88 338.669 12
1 -3 -3 4429.99 362.755 1
1 -3 -3 4755.62 204.901 2
1 -3 -3 4607.12 367.231 6
1 -3 -2 14480 656.159 6
-1 3 2 14850.8 445.222 9
-1 3 2 15212.7 652.272 12
-1 3 2 14514.9 608.6 10
1 -3 -2 16241.2 630.918 10
-1 3 2 14834.8 659.182 7
1 -3 -2 15731 620.144 11
1 -3 -2 14930.9 654.99 1
1 -3 -1 9825.4 474.488 10
1 -3 -1 10842.1 479.65 12
1 -3 -1 9710.41 489.123 1
-1 3 1 10390.1 498.106 6
-1 3 1 9614.47 473.575 10
1 -3 -1 9888.63 304.043 3
1 -3 -1 10402 477.802 11
1 -3 -1 10837.8 493.038 4
-1 3 1 9416.19 486.514 7
-1 3 1 9172.47 453.114 12
1 -3 0 27813.2 885.998 4
-1 3 0 24674.6 811.652 12
1 -3 0 26412.2 885.498 11
1 -3 0 23549.2 852.479 6
1 -3 0 27793.6 901.442 7
-1 3 0 24565.6 861.806 4
-1 3 0 24457.3 877.35 7
1 -3 0 26277.2 694.592 2
-1 3 0 24887 888 10
-1 3 0 28135.1 884.526 6
1 -3 0 27763.4 914.883 10
1 -3 0 27711.3 835.889 12
1 -3 0 25711.4 677.422 9
-1 3 -1 827125 18639.6 4
1 -3 1 762536 18627.1 11
1 -3 1 889512 18656.3 4
-1 3 -1 743772 18466.8 12
1 -3 1 803214 18485.6 12
1 -3 1 919580 18684.4 7
1 -3 1 792397 18659.7 10
-1 3 -1 716148 18627.7 10
1 -3 1 732826 18458.4 2
1 -3 1 801571 18637.9 5
1 -3 1 888677 18609.8 13
-1 3 -1 873634 18489.1 2
1 -3 1 754019 18564.9 6
-1 3 -2 28582.6 899.591 13
1 -3 2 29575.3 765.449 12
1 -3 2 27264.4 868.503 2
1 -3 2 30743.6 987.634 10
1 -3 2 27489.2 933.922 14
-1 3 -2 28425.1 935.914 4
1 -3 2 27803.3 947.545 5
-1 3 -2 31346.8 967.086 5
1 -3 2 27880.4 948.346 11
1 -3 2 29815.3 901.162 13
-1 3 -2 29287.2 974.365 10
-1 3 -2 29537.3 759.752 12
-1 3 -2 30624.6 896.576 2
1 -3 2 30326.2 953.595 4
1 -3 2 27143.1 858.983 6
-1 3 -3 33042.1 1041.81 13
-1 3 -3 36859.7 1094.01 2
1 -3 3 37461.8 1125.45 10
-1 3 -3 32586.2 1093.06 10
1 -3 3 35288.7 1098.17 11
1 -3 3 36491.6 1111.64 4
-1 3 -3 33205.1 1089.35 4
1 -3 3 32716.7 1102.44 5
1 -3 3 32583.2 1089.82 14
1 -3 3 32967.7 1063.79 2
1 -3 3 36106 1058.24 13
-1 3 -3 37227.7 1125.26 5
-1 3 -3 36779 1119.35 14
1 -3 4 123684 2911.65 13
1 -3 4 118205 2910.95 11
1 -3 4 125248 2950.31 10
-1 3 -4 110555 2906.96 10
1 -3 4 110438 2954.61 5
1 -3 4 110974 2949.83 14
1 -3 4 104025 2924.14 2
-1 3 -4 107626 2932 4
-1 3 -4 107605 2872.12 13
-1 3 -5 33704.8 1123.97 13
1 -3 5 34662.3 1178.66 14
1 -3 5 37975.5 1126.16 10
1 -3 5 36002.8 1108.31 11
-1 3 -5 35282.4 1115.17 10
-1 3 -5 33467.8 1166.38 4
-1 3 -5 37247.3 915.466 8
1 -3 5 32447.7 870.686 12
1 -3 5 34233.9 1183.59 2
-1 3 -6 37279.2 991.327 12
-1 3 -6 34643.3 1246.94 4
-1 3 -6 37598.8 1018.5 8
-1 3 -6 33450.8 1190.82 13
1 -3 6 35804.8 975.101 12
1 -3 6 38028.3 1154.71 10
-1 3 -6 35480.5 1130.34 10
1 -3 6 37278.8 1141.05 11
1 -3 6 34983.3 1253.57 14
1 -3 6 33568.6 1251.61 2
1 -3 7 2311.07 295.198 2
-1 3 -7 2854.71 199.93 12
1 -3 7 2765.36 192.887 12
1 -3 7 2545.27 308.912 14
1 -3 7 3007.68 241.551 10
-1 3 -7 2662.26 305.789 4
-1 3 -7 2251.09 278.065 13
1 -3 7 3025.66 239.802 11
-1 3 -7 2530.54 226.728 10
-1 3 -8 22024.6 795.239 10
-1 3 -8 23257.4 797.291 12
1 -3 8 24323.5 816.825 10
1 -3 8 23066.1 805.02 11
1 -3 8 21368.2 996.513 14
1 -3 8 20702.3 990.434 2
1 -3 8 21626.7 771.98 12
-1 3 -8 22814.5 1011.17 4
1 -3 9 13701.9 799.722 14
1 -3 9 14953.1 636.205 12
-1 3 -9 14111.1 815.699 4
-1 3 -9 15598.7 610.048 10
1 -3 9 14202 822.61 2
1 -3 9 15479.1 598.821 11
1 -3 10 2246.86 338.393 14
1 -3 10 1933 225.706 12
1 -3 10 1363.27 287.271 2
-1 3 -10 1676.84 174.768 10
-1 3 -10 1380.59 266.926 4
1 -3 11 3716.61 463.193 14
1 -3 11 3861.02 343.142 12
1 -3 11 3674.81 446.042 2
-1 3 -11 3312.72 443.231 4
1 -3 12 44283.6 1871.74 2
1 -3 12 48337.1 1927.83 14
1 -3 12 48055.5 1619.27 12
-1 3 -12 46730.7 1899.69 4
1 -3 13 4963.12 562.941 2
1 -3 13 5589.26 611.615 14
-1 3 -13 4664.34 542.809 4
1 -3 14 1021.07 344.155 14
-1 3 -14 747.245 254.168 4
1 -3 14 879.548 277.007 2
1 -3 15 -289.503 273.804 2
-1 3 -15 257.993 252.707 4
1 -3 15 143.015 214.709 14
1 -3 16 583.501 245.648 2
-1 3 -16 879.403 284.21 4
-1 2 15 7328.66 788.79 12
-1 2 14 -86.8252 198.905 12
1 -2 -14 80.8217 262.549 1
-1 2 14 218.522 226.204 7
1 -2 -13 -222.639 279.453 1
-1 2 13 194.657 163.528 2
-1 2 13 -42.2751 177.584 12
-1 2 13 325.602 241.032 7
-1 2 12 217.925 140.814 2
1 -2 -12 391.62 239.841 1
-1 2 12 299.774 212.343 12
-1 2 12 258.452 240.52 7
-1 2 11 3855.9 485.631 12
-1 2 11 3336.57 469.849 7
-1 2 11 3687.86 388.445 2
1 -2 -11 3912.81 517.612 1
-1 2 10 16266 989.015 12
-1 2 10 17608.2 1033.76 7
-1 2 10 17965.1 872.853 2
1 -2 -10 17636 1043.06 1
1 -2 -9 79577.6 2668.32 1
-1 2 9 78018.3 2634.63 7
-1 2 9 76875.5 2596.95 12
-1 2 9 86576.5 2421.58 2
-1 2 8 1712.22 291.571 12
-1 2 8 2694.64 379.186 7
-1 2 8 2520.62 269.031 2
-1 2 8 2512.84 152.517 10
1 -2 -8 2397.26 350.987 1
1 -2 -8 2372.42 156.547 11
-1 2 8 2001.69 201.475 3
-1 2 7 1626.36 262.33 12
1 -2 -7 1645.25 141.2 11
-1 2 7 1269.3 184.096 2
-1 2 7 1581.34 162.576 3
-1 2 7 1799.61 293.278 7
1 -2 -7 1515.61 254.982 1
-1 2 7 1567.61 133.369 10
1 -2 -6 7881.05 552.283 1
-1 2 6 8196.16 360.112 10
-1 2 6 7758.43 547.505 7
-1 2 6 8214.62 427.304 2
-1 2 6 8509.26 367.721 3
1 -2 -6 8454.54 440.816 2
1 -2 -6 9352.68 382.353 11
-1 2 6 7806.25 542.183 12
1 -2 -5 27615.3 823.146 11
1 -2 -5 26045.2 845.904 2
-1 2 5 24837 803.553 10
1 -2 -5 25186.1 1030.52 1
-1 2 5 23861.1 1001.1 12
-1 2 5 23865.2 1005.09 7
-1 2 5 25917.2 832.609 2
-1 2 5 26754.7 755.879 3
1 -2 -4 3747.34 233.119 10
1 -2 -4 3405.15 225.124 11
-1 2 4 3408.25 162.916 3
-1 2 4 3345.16 225.303 10
1 -2 -4 3272.11 203.463 2
-1 2 4 3209.32 303.472 12
-1 2 4 3305.06 199.669 2
-1 2 4 3058.73 304.57 7
1 -2 -4 3119.74 306.035 1
1 -2 -3 462.961 157.528 6
-1 2 3 366.085 135.317 7
1 -2 -3 915.57 181.213 1
1 -2 -3 681.21 76.4939 2
1 -2 -3 655.618 102.481 10
-1 2 3 586.039 70.8058 2
-1 2 3 626.258 146.026 12
-1 2 3 750.307 125.316 10
1 -2 -2 59114.2 1589.54 10
-1 2 2 62732.5 1689.46 1
1 -2 -2 63286 1676.91 12
-1 2 2 57451.9 1647.8 12
-1 2 2 57184.4 1582.5 10
1 -2 -2 54261 1644.81 6
-1 2 2 60900.5 1671.12 6
-1 2 2 57611.2 1651.11 7
1 -2 -2 61993.4 1662.3 7
1 -2 -2 56059.5 1649.6 1
1 -2 -1 31371.8 949.071 10
1 -2 -1 33936 983.399 4
-1 2 1 32540.1 969.519 6
1 -2 -1 28746.4 946.55 6
-1 2 1 30778.5 945.922 10
1 -2 -1 32200.4 957.668 12
1 -2 -1 28996.2 963.193 1
1 -2 -1 34036.1 979.287 7
-1 2 1 29851.8 938.814 12
-1 2 1 30707.6 957.457 7
1 -2 0 572.124 99.6832 7
-1 2 0 414.261 109.285 4
-1 2 0 341.7 80.941 12
1 -2 0 443.062 96.1455 6
-1 2 0 403.347 88.5111 6
1 -2 0 233.712 75.1958 4
1 -2 0 706.116 120.771 10
-1 2 0 970.274 143.124 10
1 -2 0 660.829 97.7141 12
-1 2 0 486.367 105.286 7
1 -2 1 675395 14709.8 5
-1 2 -1 616819 14601.5 2
-1 2 -1 653055 14627.7 6
1 -2 1 714466 14711.9 7
1 -2 1 590002 14709.4 10
-1 2 -1 675010 14722.8 4
1 -2 1 712478 14636.4 13
1 -2 1 586101 14609.3 6
-1 2 -1 574677 14697 10
1 -2 1 589814 14590.1 2
1 -2 1 682417 14553.4 8
1 -2 1 726527 14738.7 4
-1 2 -1 630792 14576.3 12
1 -2 2 128219 3013.49 13
-1 2 -2 129967 3117.26 14
-1 2 -2 133089 3112.71 5
-1 2 -2 122453 3004.09 13
-1 2 -2 124149 3096.02 10
1 -2 2 124920 3103.48 10
1 -2 2 125089 3094.78 5
1 -2 2 123450 2945.26 6
-1 2 -2 120342 3092.28 4
1 -2 2 121047 3049.96 2
-1 2 -2 126795 3063.8 2
1 -2 2 130977 3108.75 4
1 -2 2 120468 3099.42 14
1 -2 3 142096 3687.35 5
1 -2 3 156628 3670.51 10
1 -2 3 142133 3688 14
-1 2 -3 154615 3706.18 2
-1 2 -3 146179 3609.65 13
-1 2 -3 156223 3715.01 5
1 -2 3 158656 3715.21 4
-1 2 -3 158013 3729.7 14
-1 2 -3 148424 3656.97 10
-1 2 -3 142246 3686.36 4
1 -2 3 145878 3683.39 2
-1 2 -4 13.4943 110.132 4
-1 2 -4 30.1957 37.6288 12
-1 2 -4 -38.9968 97.0779 14
-1 2 -4 -9.15903 79.8601 13
1 -2 4 121.355 83.7352 10
1 -2 4 28.5181 42.0833 12
1 -2 4 47.7514 69.0937 4
-1 2 -4 66.0733 96.7928 5
-1 2 -4 15.6275 75.6685 10
1 -2 4 119.978 115.21 2
-1 2 -4 -12.6701 83.6163 2
1 -2 4 -27.6048 98.726 14
1 -2 5 5638.53 267.008 12
-1 2 -5 5379.42 378.001 4
1 -2 5 5942.34 308.971 11
-1 2 -5 5996.42 315.373 10
1 -2 5 5504.27 382.792 2
1 -2 5 6181.02 317.875 10
-1 2 -5 6363.6 280.365 12
1 -2 5 5413.15 380.889 14
1 -2 6 44211 1276.82 12
-1 2 -6 47165 1293.42 10
-1 2 -6 48295 1305 12
1 -2 6 45980.1 1272.03 11
-1 2 -6 45035.6 1486.3 4
1 -2 6 44229 1487.21 14
1 -2 6 42803.3 1476.77 2
1 -2 7 43646.4 1330.76 12
1 -2 7 41980.7 1524.29 2
1 -2 7 44242 1539.89 14
-1 2 -7 47940.2 1363.08 12
-1 2 -7 46354.9 1276.7 10
1 -2 7 46428.4 1271.7 6
1 -2 7 45939 1263.18 11
-1 2 -7 41702.9 1508.13 4
1 -2 8 15444.8 673.503 12
1 -2 8 17139.9 574.05 11
1 -2 8 16306.4 620.55 6
-1 2 -8 15593.2 814.233 4
1 -2 8 16038.4 826.995 14
-1 2 -8 16921 577.545 10
1 -2 8 15363.1 812.078 2
1 -2 9 11673.6 730.489 14
1 -2 9 11727.1 535.324 6
-1 2 -9 11933.7 441.522 10
1 -2 9 12254.6 436.364 11
1 -2 9 9955.01 678.254 2
-1 2 -9 11339.2 717.764 4
1 -2 9 11139.9 583.936 12
1 -2 10 50089.9 1845.57 14
1 -2 10 48974.9 1831.85 2
-1 2 -10 50079.3 1287.41 10
-1 2 -10 46858.3 1817.58 4
1 -2 10 50254.2 1630.56 12
1 -2 11 22028 1149.92 14
1 -2 11 22163.3 978.637 12
-1 2 -11 20930.6 1128.83 4
1 -2 11 21437.5 1125.98 2
1 -2 12 99.2336 142.431 2
1 -2 12 -55.6824 192.389 14
1 -2 12 269.241 148.058 12
-1 2 -12 293.163 190.897 4
1 -2 13 -55.9774 222.315 14
1 -2 13 99.8684 153.057 2
1 -2 13 -157.679 148.278 12
-1 2 -13 146.316 220.801 4
1 -2 14 5515.79 608.155 2
1 -2 14 6711.69 711.303 14
-1 2 -14 5953.13 672.823 4
1 -2 15 5999.55 670.596 2
-1 2 -15 5653.37 681.536 4
1 -2 16 3082.17 511.898 2
-1 2 -16 1996 454.501 4
-1 1 15 128.452 212.505 12
1 -1 -15 106.997 201.432 1
-1 1 14 365.791 206.545 2
-1 1 14 659.647 344.768 7
1 -1 -14 348.267 184.737 1
-1 1 14 225.151 200.629 12
-1 1 13 556.516 228.128 12
-1 1 13 1117.89 235.21 2
-1 1 12 59.56 130.777 2
-1 1 12 322.93 210.251 12
1 -1 -12 195.278 191.69 1
-1 1 11 5493.11 558.506 12
-1 1 11 6046.34 509.512 2
1 -1 -11 6818.93 651.857 1
-1 1 10 177.019 178.176 12
-1 1 10 160.318 130.841 2
1 -1 -10 121.501 166.282 1
-1 1 9 62512.1 1983.07 2
1 -1 -9 66735.9 2222.24 1
-1 1 9 60634.5 2124.72 12
-1 1 8 5513.54 479.317 12
1 -1 -8 7021.06 554.465 1
-1 1 8 6473.05 439.318 2
1 -1 -8 6356.48 221.075 11
-1 1 7 35640.9 937.904 10
-1 1 7 33060.6 1307.11 12
-1 1 7 36002.9 1140.62 3
-1 1 7 35760.2 1206.3 2
1 -1 -7 34440 1345.73 1
1 -1 -7 37031.7 960.204 11
-1 1 6 49549.9 1506.58 2
-1 1 6 52839 1330.41 10
-1 1 6 53535.2 1462.4 3
1 -1 -6 51384.5 1681.63 1
-1 1 5 5365.98 281.449 3
-1 1 5 5150.33 246.323 10
-1 1 5 5273.86 309.059 2
1 -1 -5 5393.59 310.533 2
-1 1 5 4756.97 370.762 12
1 -1 -5 4689.44 367.152 1
1 -1 -4 8978.65 477.749 1
-1 1 4 8566.24 467.601 12
-1 1 4 8037.12 331.977 10
1 -1 -4 8566.77 368.239 2
-1 1 4 8521.76 339.704 3
-1 1 4 7596.37 352.011 2
-1 1 3 81913.4 2333.87 12
1 -1 -3 89492.9 2150.57 3
-1 1 3 91786.5 2356.22 1
1 -1 -3 84089.6 2326.83 1
-1 1 3 87714.1 2150.38 3
-1 1 3 88917.1 2196.14 10
-1 1 3 89171 2172.14 2
1 -1 -3 92821.4 2366.02 12
-1 1 3 87670.3 2340.55 6
1 -1 -3 91137.4 2179.79 2
1 -1 -2 1055.93 156.265 1
-1 1 2 972.753 147.495 1
1 -1 -2 890.559 128.976 12
-1 1 2 936.981 77.8376 2
-1 1 2 1371.63 172.107 7
1 -1 -2 1027.89 84.9131 3
-1 1 2 848.928 80.4658 3
-1 1 2 832.604 144.158 12
-1 1 2 1078.2 123.472 10
-1 1 2 1277.02 158.212 6
-1 1 1 20495.2 640.188 6
-1 1 1 19537.7 612.492 7
-1 1 1 19646 638.351 12
1 -1 -1 19708.5 548.169 3
1 -1 -1 20147.8 645.696 1
-1 1 1 19275.4 619.085 10
1 -1 -1 19680.6 624.174 8
1 -1 -1 20510.7 620.702 7
1 -1 0 101812 2434.45 7
-1 1 0 100656 2444.96 6
1 -1 0 101248 2377.4 9
-1 1 0 100987 2432.42 7
-1 1 0 100920 2400.68 2
-1 1 0 101398 2434.11 8
1 -1 0 104678 2440.93 8
1 -1 0 104877 2495.68 4
-1 1 0 98584.3 2483.44 4
-1 1 -1 55912.5 1440.4 5
1 -1 1 55072.7 1427.52 2
1 -1 1 54691.8 1458.74 14
-1 1 -1 56536.9 1464.13 14
1 -1 1 56154 1434.81 5
-1 1 -1 55072 1457.62 4
1 -1 1 58505.7 1374.6 8
-1 1 -1 57685.1 1435.63 2
-1 1 -1 54937.3 1371.51 8
-1 1 -1 57051.8 1356.52 6
1 -1 1 56730.6 1467.06 4
-1 1 -2 2904.1 206.437 4
1 -1 2 2992.71 207.166 14
-1 1 -2 3017.28 199.602 5
1 -1 2 3122.9 207.896 2
-1 1 -2 3190.33 199.043 10
-1 1 -2 3410.58 214.747 2
1 -1 2 3047.85 209.182 4
-1 1 -2 3109.9 151.328 8
-1 1 -2 3018.81 206.789 14
-1 1 -3 20377.7 699.501 14
1 -1 3 21303.3 711.848 4
-1 1 -3 17970.2 675.384 4
-1 1 -3 19872.1 597.606 12
1 -1 3 19268.9 688.931 14
-1 1 -3 20231.5 706.14 2
1 -1 3 18403.4 686.045 2
-1 1 -3 20704.9 633.923 10
1 -1 3 19593.3 591.968 12
-1 1 -4 15234.3 521.874 10
-1 1 -4 15662.3 541.35 12
1 -1 4 16185.3 649.347 1
-1 1 -4 16986.8 645.085 14
1 -1 4 15290.9 447.775 6
-1 1 -4 15346.1 625.292 4
-1 1 -4 16098.2 644.262 2
1 -1 4 15564.8 538.136 12
1 -1 4 14315.4 621.628 2
1 -1 4 14911.4 629.356 14
-1 1 -5 20132.2 797.717 4
1 -1 5 19486.9 612.952 6
1 -1 5 20210.2 703.753 12
1 -1 5 19496.3 802.789 14
-1 1 -5 21386.4 643.909 10
-1 1 -5 22105.7 725.48 12
1 -1 5 19304.3 793.812 2
1 -1 6 6730.31 461.799 2
-1 1 -6 6832.25 302.169 10
1 -1 6 7455.93 475.512 14
1 -1 6 7517.3 400.779 12
-1 1 -6 7377.7 462.626 4
1 -1 6 6969.84 328.801 6
-1 1 -6 7815.62 407.65 12
1 -1 7 2273 272.207 2
1 -1 7 2272.53 237.724 12
-1 1 -7 2394.99 158.05 10
1 -1 7 2147.29 147.794 11
1 -1 7 2547.08 205.489 6
1 -1 7 2317.78 292.768 14
-1 1 -7 2006.54 274.228 4
1 -1 8 154.766 137.245 2
1 -1 8 -89.6478 128.114 14
1 -1 8 64.6421 28.9549 11
-1 1 -8 118.601 39.5544 10
-1 1 -8 68.9417 141.307 4
1 -1 8 59.7257 63.2643 6
1 -1 8 90.5169 79.9577 12
1 -1 9 3369.65 390.768 14
-1 1 -9 2846.16 355.543 4
1 -1 9 3187.99 376.063 2
1 -1 9 3190.73 322.144 12
1 -1 10 1228.79 256.909 2
1 -1 10 1038.91 212.423 12
1 -1 10 868.329 238.812 14
-1 1 -10 845.603 246.969 4
1 -1 11 -88.1985 166.622 2
-1 1 -11 69.4844 137.776 4
1 -1 11 62.9606 204.019 14
1 -1 11 60.9215 105.663 12
1 -1 12 3283.24 460.336 14
1 -1 12 4521.32 462.216 12
1 -1 12 4361.44 497.192 2
-1 1 -12 3392.63 478.142 4
1 -1 13 541.114 190.022 12
1 -1 13 475.746 200.226 2
-1 1 -13 403.354 223.258 4
1 -1 14 904.191 275.694 12
1 -1 14 1261.57 321.6 2
-1 1 -14 542.247 265.178 4
-1 1 -15 7756.17 794.697 4
1 -1 15 8613.44 803.409 2
1 -1 16 218.264 236.29 2
-1 0 16 2294.3 436.636 12
-1 0 15 409.786 191.817 2
-1 0 15 -7.67222 180.74 12
1 0 -15 157.063 253.482 1
1 0 -14 742.82 300.83 1
-1 0 14 700.218 234.162 2
-1 0 14 398.343 195.328 12
-1 0 13 1861.91 354.4 12
1 0 -13 1632.9 355.433 1
-1 0 13 2095.64 356.493 2
1 0 -12 8247.63 745.02 1
-1 0 12 8628.25 688.201 12
-1 0 12 8780.46 665.026 2
-1 0 11 17412.6 987.469 12
-1 0 11 18836.3 960.701 2
1 0 -11 18144.9 1069 1
1 0 -10 1876.68 335.182 1
-1 0 10 1534.89 284.221 12
-1 0 10 1777.29 274.934 2
-1 0 9 4879.72 419.954 2
1 0 -9 4508.99 456.108 1
-1 0 9 4141.8 413.949 12
-1 0 8 22136.7 995.948 12
1 0 -8 23149.7 1041.53 1
-1 0 8 23099.1 948.898 2
1 0 -7 606.916 183.556 1
1 0 -7 702.132 74.4121 11
-1 0 7 658.72 67.7572 10
-1 0 7 714.712 186.614 12
-1 0 7 623.04 140.27 2
-1 0 6 17124.7 661.831 3
-1 0 6 16032.5 681.294 2
1 0 -6 17841.3 781.57 1
-1 0 5 14857.3 580.411 3
-1 0 5 14788.2 661.358 12
1 0 -5 14222.9 658.549 1
-1 0 5 14902.6 607.001 2
1 0 -5 16359.6 628.176 2
-1 0 4 8889.41 409.114 2
-1 0 4 8801.09 457.39 12
1 0 -4 9010.6 398.859 3
1 0 -4 9026.8 413.129 2
-1 0 4 9468.62 404.443 3
1 0 -4 9572.71 462.838 8
1 0 -4 9246.53 458.912 1
-1 0 4 9338.51 458.562 1
-1 0 3 144.046 98.136 12
-1 0 3 97.2302 67.2246 1
-1 0 3 122.642 64.7298 3
1 0 -3 87.9053 78.2961 8
1 0 -3 153.055 83.1458 1
-1 0 3 92.9787 66.9851 2
1 0 -3 162.213 76.4482 3
1 0 -2 1151.29 128.91 1
1 0 -2 1050.42 114.469 3
-1 0 2 1185.61 129.914 1
-1 0 2 1298.36 121.603 3
-1 0 2 1201.86 112.898 9
-1 0 2 926.971 126.446 8
1 0 -2 1341.45 142.216 8
1 0 -1 966945 21811.3 9
-1 0 1 957811 21815.7 9
-1 0 1 928928 21832.9 3
1 0 -1 889547 21830.7 3
-1 0 1 945752 21858.4 8
1 0 -1 999999 21868.7 8
1 0 -1 963236 21821.8 1
-1 0 0 43318.4 1149.16 8
1 0 0 45116.7 1155.57 8
1 0 1 29395.5 842.981 9
-1 0 -1 30640.2 863.387 2
-1 0 -1 28715.8 810.228 4
1 0 1 29921.7 814.716 4
-1 0 -1 30592.2 852.045 9
1 0 1 29620.7 816.155 14
-1 0 -1 30028.4 822.935 14
-1 0 -1 29825.5 826.897 8
1 0 1 30305.2 831.283 8
-1 0 -2 278.859 76.1962 12
1 0 2 350.474 97.8109 2
-1 0 -2 259.031 79.5908 14
-1 0 -2 277.034 97.1011 2
1 0 2 191.484 76.7757 14
-1 0 -2 216.23 77.2951 4
1 0 2 352.114 88.1133 4
-1 0 -3 142713 3385.48 6
-1 0 -3 137980 3512.99 4
-1 0 -3 152575 3516.18 12
1 0 3 136594 3546.31 2
1 0 3 149884 3568.88 1
-1 0 -3 148901 3576.28 2
-1 0 -3 143687 3530.92 14
1 0 3 142050 3495.76 12
1 0 3 138031 3520.59 14
1 0 4 377.907 100.309 12
-1 0 -4 337.757 118.228 4
-1 0 -4 568.28 109.409 12
-1 0 -4 619.972 93.5936 6
1 0 4 587.917 140.39 14
1 0 4 808.335 154.494 1
-1 0 -4 569.492 129.954 14
-1 0 -4 717.431 144.003 1
1 0 4 474.287 134.186 2
1 0 4 538.837 92.0892 6
-1 0 -5 129615 3211.26 6
1 0 5 127548 3387.6 14
1 0 5 134476 3221.79 6
1 0 5 126890 3332.3 12
1 0 5 128220 3400.09 2
-1 0 -5 125840 3403.34 1
1 0 6 1690.45 234.357 2
-1 0 -6 1810.19 246.681 1
1 0 6 1735.19 175.131 6
1 0 6 1772.61 131.712 11
1 0 6 1659.52 244.049 14
1 0 6 1840.97 216.52 12
-1 0 -7 3858.91 188.74 10
1 0 7 3435.7 314.922 12
1 0 7 3938.41 284.246 6
1 0 7 3657.18 177.275 11
-1 0 -7 3665.72 376.942 1
1 0 7 3766.5 370.109 14
1 0 7 3400.18 340.148 2
1 0 8 15392 811.319 14
-1 0 -8 14779.1 808.553 1
-1 0 -8 14611 424.428 10
1 0 8 13167.9 750.91 2
1 0 8 13584.7 721.907 12
-1 0 -9 2018.49 328.489 1
1 0 9 2534.14 346.067 14
1 0 9 2710.76 315.48 12
1 0 9 3004.7 365.414 2
1 0 10 15940.6 866.54 12
1 0 10 17006.1 933.82 2
-1 0 -10 15492.2 929.491 1
1 0 10 16910.3 958.081 14
1 0 11 3538.09 423.665 2
1 0 11 2864.79 373.07 12
-1 0 -11 3518.66 451.673 1
1 0 12 4060.45 459.537 12
1 0 12 3601.51 457.039 2
-1 0 -12 3755.39 502.034 4
-1 0 -12 4546.89 532.951 1
1 0 13 3207.94 437.367 12
1 0 13 3439.57 475.342 2
-1 0 -13 3256.11 476.683 4
1 0 14 9465.63 821.999 2
-1 0 -14 9128.78 837.468 4
1 0 14 9106.09 753.912 12
-1 0 -15 1735.11 421.232 4
1 0 15 656.13 266.06 2
1 0 15 1300.45 311.234 12
1 0 16 20715.3 1340 2
-1 -1 17 1503.77 331.508 2
-1 -1 16 1638.62 380.202 2
1 1 -16 2185.48 460.113 1
-1 -1 16 1979 380.441 12
-1 -1 15 -66.7251 181.28 12
-1 -1 15 280.938 179.901 2
1 1 -15 -103.958 273.17 1
-1 -1 14 2329.94 384.983 12
-1 -1 14 3037.68 432.697 2
-1 -1 13 13616 901.062 12
1 1 -13 15645.5 1030.62 1
-1 -1 13 14314.4 917.379 2
-1 -1 12 2051.68 348.309 12
1 1 -12 2185.98 385.489 1
-1 -1 12 1642.09 304.399 2
1 1 -11 45783.8 1809.5 1
-1 -1 11 43955.8 1684.72 2
-1 -1 11 43297.4 1685.64 12
1 1 -10 9566.98 694.05 1
-1 -1 10 9731.25 651.827 2
-1 -1 10 9659.85 650.952 12
1 1 -9 10574.9 690.387 1
-1 -1 9 10162.7 310.949 10
1 1 -9 10122.9 329.713 11
-1 -1 9 10395 637.898 12
-1 -1 9 9778.41 627.041 2
1 1 -8 1299.61 108.82 11
-1 -1 8 824.138 187.761 12
-1 -1 8 1141.45 102.286 10
1 1 -8 1014.78 218.502 1
-1 -1 8 1308.38 211.791 2
-1 -1 7 319.273 127.987 2
-1 -1 7 439.79 147.179 12
1 1 -7 177.895 56.8761 11
-1 -1 7 311.169 63.5385 10
1 1 -7 259.649 122.693 1
-1 -1 6 48344.1 1511.23 2
-1 -1 6 46408.4 1496.92 12
1 1 -6 49997.7 1309.65 11
1 1 -6 48075.4 1527.61 1
-1 -1 5 228633 5649.04 2
1 1 -5 235560 5480.1 11
-1 -1 5 226165 5649.22 12
1 1 -5 227328 5643.51 1
1 1 -5 233141 5639.66 3
-1 -1 5 240905 5643 3
1 1 -4 60050.7 1574.79 11
1 1 -4 61914.2 1663.39 14
-1 -1 4 62621.1 1671.74 3
-1 -1 4 61457.6 1652.54 1
1 1 -4 62906.2 1684.35 8
1 1 -4 57330.5 1636.78 1
-1 -1 4 55613 1650.77 8
1 1 -4 59005.1 1652.92 3
-1 -1 4 57871.1 1663.02 2
1 1 -3 10632.5 413.047 11
-1 -1 3 10251 436.14 3
1 1 -3 9764.43 427.09 3
1 1 -3 10389.3 412.908 14
-1 -1 3 9570.75 426.037 9
-1 -1 3 10963.8 414.399 1
-1 -1 3 9391.24 430.506 8
1 1 -3 10354.6 444.97 8
1 1 -3 10052.1 401.746 1
1 1 -2 1982.72 185.56 3
-1 -1 2 2716.77 150.605 1
1 1 -2 3204.6 214.421 11
-1 -1 2 2496.82 193.812 3
1 1 -2 2917.63 199.594 9
-1 -1 2 2632.2 188.576 9
1 1 -2 2632.37 185.237 13
-1 -1 2 2133.58 181.398 8
1 1 -2 2477.16 190.174 8
1 1 -2 2686.74 150.427 1
1 1 -1 971.46 121.13 8
1 1 -1 736.947 117.927 9
1 1 -1 1172.79 153.663 11
-1 -1 1 772.889 108.834 9
-1 -1 1 856.594 119.672 3
-1 -1 1 819.594 123.314 8
-1 -1 1 875.008 99.1672 13
1 1 -1 741.903 93.913 13
1 1 -1 742.174 116.348 3
-1 -1 0 2062.5 105.569 7
-1 -1 0 1879.92 159.069 3
1 1 0 2116.81 170.019 9
1 1 0 1928.48 163.503 3
1 1 0 2196.34 173.172 8
1 1 0 2577.46 198.889 11
-1 -1 0 1741.69 153.095 9
-1 -1 0 1690.47 161.364 8
-1 -1 0 1876.87 132.593 13
1 1 1 639967 14410.6 9
-1 -1 -1 643892 14415.4 9
-1 -1 -1 646434 14421.9 12
1 1 1 580174 14367 11
-1 -1 -1 610882 14285 14
1 1 1 630871 14319 1
1 1 1 646338 14275.8 7
-1 -1 -1 617583 14281.7 4
-1 -1 -1 644094 14277.7 7
-1 -1 -1 640675 14409.4 8
1 1 1 634167 14401.2 3
1 1 1 599576 14278.6 14
-1 -1 -2 5049.72 298.627 12
-1 -1 -2 4704.67 249.756 14
1 1 2 5303.32 272.286 11
1 1 2 4608.42 286.083 12
-1 -1 -2 5020.54 298.947 2
-1 -1 -2 4743.21 263.389 1
1 1 2 4896.32 256.037 14
1 1 2 4401.3 278.842 9
1 1 2 5541.45 283.848 1
1 1 2 4831.67 240.311 7
1 1 3 173311 4428.36 12
-1 -1 -3 178384 4408.09 1
1 1 3 174916 4310.68 11
1 1 3 171506 4422.29 9
-1 -1 -3 194272 4468.6 12
1 1 3 176156 4374.4 14
-1 -1 -3 180090 4345.43 6
-1 -1 -3 185820 4394.74 14
-1 -1 -3 189350 4458.58 2
1 1 3 190444 4444.55 1
-1 -1 -4 18149.2 732.666 1
-1 -1 -4 17760.7 652.879 6
1 1 4 18554.1 607.293 11
1 1 4 18353.7 739.259 2
1 1 4 17050.2 725.718 12
1 1 4 18359.3 713.03 14
-1 -1 -4 18736.1 719.739 14
1 1 5 152975 3611.98 11
1 1 5 147058 3859.57 2
1 1 5 142301 3850.49 12
-1 -1 -5 149611 3737.32 6
1 1 5 146715 3844.04 14
-1 -1 -5 149332 3882.11 1
1 1 5 155719 3762.63 6
1 1 6 11201.7 409.625 11
1 1 6 9649.36 568.583 12
1 1 6 10156.7 580.954 2
-1 -1 -6 10336.1 509.424 6
1 1 6 10701.3 595.809 14
-1 -1 -6 10343.1 605.149 1
1 1 7 18777.3 579.183 11
1 1 7 19088.3 875.841 12
-1 -1 -7 19252.1 786.82 6
1 1 7 17725.3 864.695 14
-1 -1 -7 19053.7 597.112 10
-1 -1 -7 17498.8 879.681 1
1 1 7 17485.9 851.672 2
1 1 8 149.05 38.3383 11
-1 -1 -8 224.645 45.9315 10
-1 -1 -8 103.149 154.259 1
1 1 8 120.536 98.8112 2
1 1 8 96.8783 126.411 12
1 1 9 1396.56 257.924 2
-1 -1 -9 1232.31 270.994 1
1 1 9 1893.92 296.496 12
1 1 10 -42.8788 152.136 2
1 1 10 316.619 145.613 12
-1 -1 -10 492.823 216.136 1
-1 -1 -11 9952.09 785.885 1
1 1 11 10089.8 741.365 12
1 1 11 11277.9 780.106 2
1 1 12 9421.03 753.414 2
-1 -1 -12 10347.7 827.427 1
1 1 12 8759.9 720.631 12
1 1 13 12385.2 905.398 12
-1 -1 -13 11342.4 926.238 1
1 1 13 13040.9 925.627 2
1 1 14 92.4977 162.507 12
1 1 14 356.551 256.397 7
-1 -1 -14 128.289 218.489 1
1 1 14 147.232 200.854 2
-1 -1 -14 210.552 230.798 4
1 1 15 5217.99 636.169 2
1 1 15 5408.57 632.472 12
-1 -1 -15 5464.18 694.392 4
1 1 15 5265.77 661.144 7
1 1 16 24.5472 170.593 12
1 1 16 -463.412 283.409 2
-1 -2 17 4482.33 610.468 2
1 2 -16 317.188 247.739 1
-1 -2 16 252.112 191.756 2
-1 -2 15 12772.3 901.561 12
1 2 -15 12815.4 992.252 1
-1 -2 15 12701.6 949.081 2
-1 -2 14 168.278 162.317 2
1 2 -14 436.635 224.465 1
-1 -2 14 32.4891 118.245 12
1 2 -13 3277.37 455.638 1
-1 -2 13 3086.58 413.53 12
-1 -2 13 3102.67 433.282 2
-1 -2 12 10155 746.847 2
-1 -2 12 10033.2 698.714 12
1 2 -12 9087.43 724.112 1
-1 -2 11 54960.3 1943.33 12
1 2 -11 59630.4 2099.89 1
-1 -2 11 57803.6 2057.18 2
-1 -2 10 7353.39 308.528 10
1 2 -10 6242.49 543.893 1
1 2 -10 7136.55 308.956 11
-1 -2 10 6573.52 549.726 2
-1 -2 10 6453.99 504.661 12
-1 -2 9 29141.6 860.847 10
-1 -2 9 25209.6 1081.68 12
1 2 -9 29018.8 863.419 11
1 2 -9 27129.1 1167.21 1
-1 -2 9 25375 1142.89 2
-1 -2 8 31371.4 1217.86 12
1 2 -8 35540.7 1038.77 11
1 2 -8 34600.4 1299.16 1
-1 -2 8 36121.9 1047.05 10
-1 -2 8 32491.4 1281.26 2
1 2 -7 910.749 177.742 1
-1 -2 7 1154.79 193.927 12
-1 -2 7 1271.91 142.051 10
1 2 -7 1269.17 144.736 11
-1 -2 7 1108.68 192.39 2
1 2 -6 980.499 137.897 11
1 2 -6 1122.94 193.735 3
-1 -2 6 869.373 159.811 12
1 2 -6 1008.48 181.961 1
-1 -2 6 901.424 184.84 2
-1 -2 6 1193.25 142.101 10
1 2 -5 15358.2 610.3 1
-1 -2 5 13505.4 645.185 2
-1 -2 5 15162.4 601.157 1
1 2 -5 12970.4 629.711 13
-1 -2 5 13862.9 597.936 14
-1 -2 5 14372.2 611.74 8
1 2 -5 15671.6 619.386 14
1 2 -5 13741.5 635.071 3
1 2 -5 14320.6 562.648 11
1 2 -4 4062.26 240.429 5
-1 -2 4 3898.67 247.331 14
1 2 -4 3405.42 252.009 11
-1 -2 4 3151.17 275.105 2
1 2 -4 3996.72 274.947 8
1 2 -4 3310.27 270.293 13
1 2 -4 4042.89 246.828 1
1 2 -4 3450.28 283.906 3
-1 -2 4 3737.18 268.568 8
1 2 -4 3607.94 241.711 14
-1 -2 4 3924.14 244.866 1
-1 -2 4 3805.1 259.751 11
-1 -2 4 4252.37 302.425 3
1 2 -3 75156.3 2079.89 3
-1 -2 3 76349.2 2084.43 9
1 2 -3 74197.2 2055.22 13
1 2 -3 74444.9 2052.4 11
-1 -2 3 82712.4 2080.44 11
1 2 -3 80743.6 1950.76 5
1 2 -3 74632.6 2073 9
1 2 -3 78712.4 1957.69 14
1 2 -3 79507.9 1935.96 1
-1 -2 3 79967.3 2105.9 3
-1 -2 3 81570.6 2086.7 13
-1 -2 3 75167.2 2043.77 8
1 2 -3 81057.3 2066.17 8
-1 -2 3 79028.7 1935.98 1
-1 -2 3 76941.4 1953.76 14
1 2 -2 2765.83 138.485 14
1 2 -2 2876.6 214.819 13
1 2 -2 2721.11 219.852 9
-1 -2 2 2798.62 226.66 3
-1 -2 2 2901.47 215.547 13
-1 -2 2 2904.22 228.939 9
1 2 -2 2769 223.265 11
-1 -2 2 2824.75 230.074 11
-1 -2 2 2974.75 160.231 5
-1 -2 2 2866.95 217.023 8
1 2 -2 3212.41 224.885 8
1 2 -2 2724.91 226.028 3
1 2 -1 7068.44 367.752 3
-1 -2 1 8450.34 404.528 11
-1 -2 1 8271.04 388.945 3
-1 -2 1 8778.01 392.014 9
1 2 -1 7810.44 387.912 11
1 2 -1 7525.49 352.301 13
1 2 -1 7466.32 371.364 9
-1 -2 1 6849.28 359.536 8
1 2 -1 7965.58 376.571 8
-1 -2 1 8362.32 365.743 13
1 2 0 73554.2 2027.03 3
-1 -2 0 80229.9 1960.04 7
-1 -2 0 80280.3 2057.09 9
1 2 0 75575.8 2042.57 9
-1 -2 0 79086.4 2042.32 3
-1 -2 0 81262.5 2028.28 13
-1 -2 0 79186.1 1858.48 1
-1 -2 0 80703.4 2083.99 11
-1 -2 0 74526.1 2045.8 8
1 2 0 78108.2 1860.35 1
1 2 0 75110.7 2058.22 11
1 2 1 742446 16952.2 9
-1 -2 -1 693240 16764.8 14
-1 -2 -1 809000 16872.6 7
-1 -2 -1 728133 16941.8 11
1 2 1 661919 16913.8 11
1 2 1 741670 16912.2 3
-1 -2 -1 748012 16964.3 9
-1 -2 -1 707353 16809.6 1
-1 -2 -1 768088 16992.3 12
1 2 1 740667 16849.3 7
1 2 1 729897 16809.1 1
1 2 2 19835.9 778.825 12
-1 -2 -2 22754.5 724.528 7
1 2 2 20387.9 707.436 7
1 2 2 21953.6 716.68 1
1 2 2 20892.3 767.105 9
-1 -2 -2 21753.4 718.445 1
-1 -2 -2 22019.8 775.225 9
-1 -2 -2 21246.8 684.134 14
-1 -2 -2 22340.2 754.29 11
1 2 2 19911 718.577 3
1 2 2 20286.8 731.804 11
1 2 3 14277.9 665.274 12
-1 -2 -3 14704 622.21 6
1 2 3 15326 592.474 11
1 2 3 15697.8 618.972 7
-1 -2 -3 16667.6 620.314 14
1 2 3 15399 653.064 9
1 2 3 17250.2 649.845 1
-1 -2 -3 16117.4 639.128 1
1 2 4 8725.45 482.169 7
-1 -2 -4 8998.1 479.084 6
1 2 4 9369.04 509.277 9
1 2 4 9427.58 533.205 12
-1 -2 -4 9909.41 527.719 1
1 2 4 10324.3 447.496 11
-1 -2 -5 43993.4 1382.09 6
1 2 5 40978 1451.51 12
1 2 5 39206.2 1397.02 9
1 2 5 41108.1 1394.02 7
1 2 5 43075.2 1249.1 11
-1 -2 -5 45506.2 1272 10
-1 -2 -5 44218 1459.88 1
1 2 6 2339.34 299.255 12
1 2 6 2053.76 263.419 7
1 2 6 2458.96 192.855 11
-1 -2 -6 2342.4 198.241 10
-1 -2 -6 2334.3 297.332 1
-1 -2 -6 1672.89 228.81 6
1 2 6 2364.52 284.064 9
-1 -2 -7 254.785 80.4786 10
1 2 7 232.327 152.337 9
1 2 7 321.823 85.5793 11
-1 -2 -7 282.938 145.935 1
-1 -2 -7 469.082 156.635 6
1 2 7 317.396 114.285 2
1 2 7 191.186 125.422 12
1 2 7 407.996 165.039 7
1 2 8 146.362 146.216 12
-1 -2 -8 286.883 142.817 6
-1 -2 -8 189.738 166.521 1
1 2 8 504.643 220.742 7
1 2 8 196.354 59.3045 11
1 2 8 118.231 108.805 2
-1 -2 -9 8784.21 675.02 1
1 2 9 8391.7 648.517 12
1 2 9 7627.91 620.171 7
1 2 9 8258.52 613.359 2
1 2 10 1217.49 312.409 7
1 2 10 2104.55 312.994 2
-1 -2 -10 1336.62 321.39 1
1 2 10 1117.76 290.71 12
1 2 11 2651.37 417.44 7
1 2 11 2046.36 360.371 12
-1 -2 -11 2061.1 369.024 1
1 2 11 2188.02 345.215 2
1 2 12 5239.66 596.837 7
-1 -2 -12 5420.57 625.022 1
1 2 12 6304.69 624.465 9
1 2 12 7219.82 654.253 2
1 2 12 5287.54 583.834 12
-1 -2 -13 66.1005 222.933 1
1 2 13 576.841 246.923 7
1 2 13 659.6 276.179 12
1 2 13 461.672 244.512 9
1 2 14 7472.3 767.462 7
-1 -2 -14 9263.58 892.556 1
1 2 14 10333.4 873.833 9
1 2 14 8649.43 826.015 12
1 2 15 883.923 301.619 12
1 2 15 662.636 249.262 9
-1 -3 17 3504.52 548.157 2
-1 -3 16 1443.12 334.573 2
1 3 -16 1801.28 438.185 4
1 3 -15 3284.25 520.295 4
-1 -3 15 3474.25 453.713 12
-1 -3 15 3490.76 502.044 2
-1 -3 14 67.0537 129.583 12
1 3 -14 416.127 221.993 1
-1 -3 14 -88.6842 184.262 2
-1 -3 13 -183.178 148.08 2
1 3 -13 141.527 179.859 1
-1 -3 13 61.2695 154.868 12
-1 -3 12 32826.5 1365.84 12
-1 -3 12 30605.3 1459.31 2
-1 -3 11 39853 1507.44 12
1 3 -11 41976.8 1212.68 11
1 3 -11 41780.5 1629.07 1
-1 -3 11 39210.6 1631.84 2
-1 -3 10 1085.73 253.946 2
-1 -3 10 1250.52 152.989 10
1 3 -10 1281.67 261.128 1
-1 -3 10 1237.73 224.185 12
1 3 -10 1375.16 167.426 11
-1 -3 9 2488.02 326.891 2
-1 -3 9 2593.89 297.187 12
-1 -3 9 3039.84 351.003 14
-1 -3 9 2758.72 235.045 10
1 3 -9 3128.74 251.987 11
1 3 -9 3385.65 347.49 1
-1 -3 8 2333.39 290.142 14
-1 -3 8 1652.53 263.002 2
-1 -3 8 1792.91 232.325 12
1 3 -8 2329.57 217.053 11
1 3 -8 1956.71 258.754 1
1 3 -8 1849.91 273.475 13
-1 -3 8 2189.12 210.664 10
1 3 -7 25263.5 1047.36 13
-1 -3 7 28009.9 936.912 10
1 3 -7 24712 890.86 11
-1 -3 7 24140.1 951.176 8
-1 -3 7 26747 923.077 11
1 3 -7 25681.4 965.758 1
-1 -3 7 24219.8 938.295 12
1 3 -7 24889.9 1048.68 3
-1 -3 7 26657.9 1073.19 2
-1 -3 7 24636.6 979.051 14
1 3 -6 1988.85 209.393 1
1 3 -6 2148.73 283.504 3
-1 -3 6 2203.67 235.645 14
1 3 -6 2131.75 224.041 11
1 3 -6 2099.73 254.742 13
-1 -3 6 2638.47 241.849 10
-1 -3 6 1776.73 257.693 2
-1 -3 6 1649.95 200.747 8
1 3 -5 13171.4 581.618 11
1 3 -5 12529.4 620.078 13
-1 -3 5 12365.7 547.25 14
1 3 -5 13027 531.948 1
1 3 -5 13561.3 554.731 5
-1 -3 5 13290.9 589.456 10
1 3 -5 12364.8 628.621 3
1 3 -5 14327.7 568.351 14
-1 -3 5 12299.2 634.274 2
-1 -3 5 13819.2 543.944 1
-1 -3 5 12861.1 575.753 8
-1 -3 4 8306.96 424.04 8
1 3 -4 8605.55 454.918 11
-1 -3 4 8999.66 366.526 1
1 3 -4 8782.97 394.802 5
-1 -3 4 7786.48 383.716 5
1 3 -4 8285.99 371.153 4
1 3 -4 8832.92 381.834 14
1 3 -4 7776.18 462.658 3
1 3 -4 7993.6 453.782 13
1 3 -4 9326.58 446.002 8
-1 -3 4 7923.62 370.287 14
1 3 -3 2083.94 226.744 11
1 3 -3 1976.06 222.502 3
-1 -3 3 2167.92 173.714 5
1 3 -3 2120.08 170.587 5
1 3 -3 1857.69 210.693 13
1 3 -3 2140.83 144.991 14
-1 -3 3 1906.45 126.535 1
1 3 -3 1794.65 211.201 9
-1 -3 3 1795.53 137.812 14
-1 -3 3 1949.79 198.187 8
1 3 -3 1929.4 136.61 4
1 3 -3 1903.59 188.647 8
1 3 -2 41761.7 1325.58 11
1 3 -2 42871.5 1064.25 4
-1 -3 2 42706.6 1182.77 5
1 3 -2 39994.5 1289.49 9
-1 -3 2 44894.6 1312.19 13
-1 -3 2 42987.8 1067.16 14
1 3 -2 41603.1 1293.6 13
-1 -3 2 46458.6 1334.04 9
1 3 -2 42307.7 1306.86 3
1 3 -2 43100.6 1067.29 14
-1 -3 2 41056.1 1263.01 8
1 3 -2 45470.7 1292.06 8
-1 -3 2 46804.3 1337.5 3
1 3 -1 115361 3137.05 11
-1 -3 1 123175 3057 7
-1 -3 1 116908 3090.62 8
-1 -3 1 130944 3130.39 13
1 3 -1 118500 3110.36 9
-1 -3 1 128091 3132.7 9
-1 -3 1 125418 3116.84 3
1 3 -1 123605 3110.76 8
1 3 -1 118549 3098.76 3
-1 -3 0 5895.65 355.141 12
-1 -3 0 6054.99 351.654 9
1 3 0 5508.8 334.565 3
1 3 0 5327.84 354.707 11
-1 -3 0 5526.39 326.101 3
1 3 0 4403.73 322.389 9
1 3 0 5122.22 306.194 7
-1 -3 0 6155.76 324.122 7
1 3 0 5593.53 234.595 1
-1 -3 0 5675.82 232.829 1
-1 -3 0 5802.92 358.229 8
-1 -3 -1 51453.9 1372.82 1
1 3 1 51301.6 1465.2 3
1 3 1 47832.6 1498.7 11
-1 -3 -1 55539 1477.95 7
-1 -3 -1 49999 1333.07 14
1 3 1 49629.1 1497.66 9
1 3 1 51742.8 1375.66 1
-1 -3 -1 52623.6 1471.61 3
1 3 1 48396.7 1444.05 7
-1 -3 -2 285.835 89.4776 1
-1 -3 -2 361.344 118.195 7
1 3 2 385.45 113.576 3
1 3 2 189.54 86.9031 11
1 3 2 173.364 120.297 12
-1 -3 -2 267.44 77.6193 14
1 3 2 278.647 120.716 7
1 3 2 364.301 139.323 9
1 3 2 264.009 80.8485 1
1 3 3 319133 7765.41 7
1 3 3 330817 7815.43 9
1 3 3 321285 7740.83 11
-1 -3 -3 323757 7830.96 6
-1 -3 -3 332454 7709.62 14
-1 -3 -3 318986 7746.54 1
1 3 3 333452 7712.76 3
1 3 3 312496 7877.3 12
1 3 4 63692.8 1997.01 7
1 3 4 66723 2097.81 12
-1 -3 -4 68744.5 2034.83 6
-1 -3 -4 70123.2 2023.26 1
1 3 4 69785.5 1918.78 3
1 3 4 70706.6 1933.7 11
1 3 4 68504.3 2019.59 9
1 3 5 55184.9 1884.4 12
-1 -3 -5 57434.7 1810.69 6
1 3 5 55409.7 1810.31 7
1 3 5 57231.1 1806.69 9
-1 -3 -5 59178.6 1848.8 1
1 3 5 59189.9 1676.07 11
-1 -3 -6 100.512 110.688 6
1 3 6 146.528 100.11 11
-1 -3 -6 163.96 78.6323 10
1 3 6 121.49 131.553 7
1 3 6 140.59 124.462 12
-1 -3 -6 122.673 114.414 1
1 3 6 115.568 121.13 9
-1 -3 -7 1285.86 231.472 6
1 3 7 1548.76 182.729 11
1 3 7 1082.53 227.12 7
1 3 7 1635.62 283.667 12
-1 -3 -7 1132.13 248.331 1
1 3 7 1359.29 249.137 9
1 3 8 860.209 241.276 12
1 3 8 1348.04 158.599 11
-1 -3 -8 1212.12 235.276 6
1 3 8 508.085 202.196 7
-1 -3 -8 1302.56 298.251 1
1 3 8 1148.76 245.134 9
-1 -3 -9 839.47 221.845 6
1 3 9 845.935 247.992 7
1 3 9 721.194 224.835 12
-1 -3 -9 1187.1 283.456 1
1 3 9 475.815 196.599 9
1 3 10 279.651 214.663 7
1 3 10 314.909 182.882 9
1 3 10 218.03 220.008 12
-1 -3 -10 675.989 257.702 1
-1 -3 -11 4489.21 558.351 1
1 3 11 4721.21 556.728 12
1 3 11 5284.06 551.363 9
1 3 11 5671.18 616.862 7
-1 -3 -12 1242.5 303.313 1
1 3 12 752.273 267.977 7
1 3 12 837.637 280.495 12
1 3 12 513.292 207.693 9
1 3 13 1767.04 392.759 12
1 3 13 1229.17 339.122 7
-1 -3 -13 1892.66 403.516 1
1 3 13 1446.68 325.856 9
1 3 14 6663.34 692.748 9
1 3 14 4838.8 630.162 7
1 3 14 4944.79 641.171 12
1 3 15 1761.25 424.271 9
-1 -4 17 1668.43 405.68 2
1 4 -16 1883.15 416.056 4
1 4 -16 2909.7 527.498 13
-1 -4 16 1874.97 416.552 2
1 4 -15 531.81 279.101 13
1 4 -15 433.943 205.594 4
-1 -4 14 4441.28 473.552 12
1 4 -14 4180.26 537.532 4
-1 -4 14 3704.05 504.673 2
1 4 -14 3655.78 520.838 13
1 4 -13 24882.3 1349.3 13
-1 -4 13 27446.5 1211.89 12
1 4 -13 26151.5 1326.21 4
-1 -4 13 25471.7 1348.63 2
-1 -4 12 2819.27 408.753 2
1 4 -12 3167.48 445.151 13
-1 -4 12 3435.3 378.665 12
1 4 -12 2860.06 401.696 4
-1 -4 11 8731.07 667.218 14
1 4 -11 8666.05 699.699 13
-1 -4 11 9379.49 603.916 12
1 4 -11 10068.5 515.872 11
1 4 -11 9996.75 700.703 4
-1 -4 11 8665.3 693.215 2
-1 -4 10 53581 1896.52 14
-1 -4 10 55623.1 1796.51 12
1 4 -10 57647.3 1686.65 11
1 4 -10 53469.7 1882.34 4
-1 -4 10 53558 1982.69 2
1 4 -10 51399.1 1947.84 13
1 4 -9 55440 1646.59 11
1 4 -9 50973.9 1847.53 13
1 4 -9 50120 1747.58 4
-1 -4 9 51999 1776.93 14
-1 -4 9 50695.8 1869.34 2
-1 -4 9 53074.6 1687.96 12
-1 -4 8 4067.72 338.812 12
-1 -4 8 4132.95 367.563 14
1 4 -8 4600.37 386.263 4
-1 -4 8 4524.9 360.854 8
-1 -4 8 3878.21 411.25 2
1 4 -8 4466.45 350.785 11
1 4 -8 3596.05 387.897 13
1 4 -7 48128 1505.05 11
1 4 -7 46175 1608.18 13
1 4 -7 48197.2 1506.53 4
1 4 -7 46975.9 1645.35 3
-1 -4 7 46155.7 1487.55 8
-1 -4 7 44623.2 1621.96 2
-1 -4 7 46888.2 1506.82 14
1 4 -6 1015.61 203.839 13
-1 -4 6 929.004 206.327 2
-1 -4 6 926.881 155.848 14
1 4 -6 839.787 192.825 3
-1 -4 6 1244.07 180.634 8
1 4 -6 1093.99 168.724 4
-1 -4 6 1056.91 161.523 1
1 4 -6 1006.51 176.075 11
-1 -4 5 9309.98 475.535 5
1 4 -5 10587.8 465.945 14
-1 -4 5 8878.06 556.671 2
1 4 -5 8695.5 533.762 13
-1 -4 5 9622.69 451.581 14
-1 -4 5 10789.7 448.142 1
1 4 -5 9460.79 442.618 4
-1 -4 5 9619.22 489.969 8
1 4 -5 9205.17 565.697 3
1 4 -5 9205.09 519.587 11
1 4 -4 41861.2 1161.28 14
-1 -4 4 38244.9 1221.34 5
1 4 -4 43586.1 1245.64 5
1 4 -4 38372 1332.69 9
1 4 -4 40139.2 1145.23 4
-1 -4 4 44168.4 1141.96 1
1 4 -4 39251 1339.45 11
1 4 -4 39343.2 1347.36 13
-1 -4 4 40690.6 1157.09 14
-1 -4 4 39359.1 1262.36 8
1 4 -4 38961.4 1352.4 3
1 4 -3 4773.3 361.969 9
1 4 -3 4047.91 336.444 3
1 4 -3 4307.41 354.213 11
-1 -4 3 4947.81 308.757 5
-1 -4 3 5030.14 239.561 14
-1 -4 3 4539.87 208.256 1
1 4 -3 4041.13 340.743 13
1 4 -3 5200.84 236.297 4
-1 -4 3 4724.68 326.803 8
1 4 -3 5369.54 239.816 14
-1 -4 2 -7.53782 33.3227 14
-1 -4 2 44.6051 92.1708 5
1 4 -2 -45.475 124.954 3
-1 -4 2 27.7998 34.6352 4
1 4 -2 62.4646 132.236 11
-1 -4 2 73.9104 93.1699 8
1 4 -2 -45.5112 110.407 9
1 4 -2 -21.4984 31.826 4
-1 -4 2 22.1637 28.8829 1
1 4 -2 -89.8866 113.975 13
-1 -4 1 116456 2753.53 4
1 4 -1 111420 3099.05 11
-1 -4 1 115900 2753.65 14
1 4 -1 115374 3055.35 9
1 4 -1 117743 3036.55 3
-1 -4 1 118823 2773.43 1
-1 -4 1 113874 3044.1 8
1 4 0 71168.2 2028.83 3
1 4 0 72622.4 2119.58 11
-1 -4 0 73885 1866.02 1
-1 -4 0 75779.8 1835.56 4
1 4 0 73403.5 2045.74 7
1 4 0 72729.7 2075.14 9
-1 -4 0 71036.2 2089.09 8
1 4 1 17510.2 696.817 3
1 4 1 18764.5 644.42 1
1 4 1 16348.4 730.041 9
1 4 1 15646.7 709.176 7
-1 -4 -1 18415.9 642.571 1
1 4 1 18124.7 791.357 12
1 4 1 17455 770.17 11
-1 -4 -2 5361.38 313.318 14
1 4 2 4871.2 329.464 3
1 4 2 4529.89 392.198 12
-1 -4 -2 4729.75 390.508 6
1 4 2 4675.08 313.438 1
1 4 2 4561.71 365.649 11
1 4 2 4573.59 351.399 7
1 4 2 5108.24 374.603 9
-1 -4 -2 5074.61 332.06 1
1 4 3 40009.3 1427.76 12
1 4 3 41761.7 1263.1 3
1 4 3 38819.2 1325.06 11
1 4 3 39023.6 1343.7 9
-1 -4 -3 40808.2 1311.38 1
-1 -4 -3 39959.2 1403.4 6
1 4 3 36541.3 1326.25 7
1 4 4 6631.85 438.873 11
1 4 4 7242.06 416.545 3
1 4 4 7549.16 502.908 7
-1 -4 -4 6855.92 500.869 6
1 4 4 7214.2 478.941 9
1 4 4 5943.81 494.394 12
-1 -4 -4 7068.9 476.057 1
1 4 5 23091.8 1118.42 12
1 4 5 24964 1070.51 7
1 4 5 25835.1 980.29 11
-1 -4 -5 26849.8 1118.54 6
1 4 5 25592.3 1057.7 9
-1 -4 -5 26064.8 1077.7 1
1 4 5 25576.1 941.532 3
1 4 6 41880.4 1625.55 7
-1 -4 -6 45578.4 1661.54 1
1 4 6 42751.8 1708.12 12
1 4 6 47195.4 1473.8 3
1 4 6 48158.1 1494.88 11
1 4 6 46473.1 1627.64 9
-1 -4 -6 45763.8 1664.85 6
-1 -4 -7 18285.7 966.74 6
1 4 7 20198 964.492 9
1 4 7 17184.3 1003.13 12
1 4 7 19058 821.17 3
1 4 7 18874.1 986.384 7
-1 -4 -7 18732.4 996.767 1
1 4 7 19404.4 794.63 11
1 4 8 1341.36 296.135 12
1 4 8 1051.35 262.098 7
-1 -4 -8 1395.68 284.119 6
1 4 8 1204.2 195.435 3
-1 -4 -8 1145.93 265.121 1
1 4 8 1379.9 274.284 9
1 4 9 6421.3 567.723 9
1 4 9 5018.41 576.149 12
1 4 9 5849.35 448.239 3
-1 -4 -9 5140.28 532.183 6
1 4 9 6364.11 600.488 7
-1 -4 -9 6276.21 605.193 1
1 4 10 12285.5 904.581 12
-1 -4 -10 11300 815.886 6
1 4 10 11285.8 798.449 9
-1 -4 -10 11116.3 865.84 1
1 4 10 10612.2 833.519 7
1 4 11 967.174 264.85 7
-1 -4 -11 2203.19 423.647 1
1 4 11 2601.97 448.659 12
1 4 11 2222.05 377.681 9
-1 -4 -12 791.615 305.114 1
1 4 12 462.533 235.44 7
1 4 12 259.102 182.008 12
1 4 12 626.009 245.823 9
1 4 13 261.201 217.631 12
-1 -4 -13 213.199 169.743 1
1 4 13 525.19 249.603 9
1 4 13 -31.8365 203.35 7
1 4 14 61.3116 189.55 9
1 5 -16 -256.353 258.522 13
-1 -5 16 -65.4814 161.237 2
1 5 -16 484.46 281.463 4
-1 -5 15 458.519 290.669 2
1 5 -15 343.031 238.052 13
1 5 -15 620.704 261.486 4
-1 -5 14 271.068 240.169 2
1 5 -14 610.797 281.387 13
1 5 -14 166.632 213.611 4
-1 -5 13 900.691 275.552 2
1 5 -13 1011.89 285.957 13
1 5 -13 1687.26 338.469 4
1 5 -12 8166.2 723.551 13
-1 -5 12 10146.5 639.051 12
1 5 -12 10311.6 570.598 11
-1 -5 12 9172.58 709.301 14
1 5 -12 9395.26 707.206 4
-1 -5 12 9235.86 760.153 2
-1 -5 11 -13.117 85.536 12
1 5 -11 119.99 114.319 11
-1 -5 11 176.469 202.918 2
-1 -5 11 286.737 192 14
1 5 -11 -0.33541 188.87 13
1 5 -11 3.09685 144.825 4
-1 -5 10 45282.2 1679.7 14
1 5 -10 41858.4 1737.06 13
-1 -5 10 47217.1 1573.22 12
1 5 -10 46541.3 1682.04 4
-1 -5 10 46082.1 1818.96 2
1 5 -10 49011.6 1588.86 11
1 5 -9 36062.1 1518.91 13
-1 -5 9 39245 1354.99 12
-1 -5 9 41130.5 1616.08 2
-1 -5 9 39797.9 1450.59 14
1 5 -9 40201.9 1449.95 4
-1 -5 9 38638.9 1382.65 8
1 5 -9 41856.5 1430.78 11
1 5 -8 21502.2 1047.1 3
1 5 -8 18807.9 974.767 13
-1 -5 8 21110.5 880.599 8
1 5 -8 20380.2 909.614 11
-1 -5 8 20458.3 892.574 14
1 5 -8 21825.4 906.68 4
-1 -5 8 19903.6 1012.11 2
1 5 -7 17913.9 922.959 3
1 5 -7 18695.9 853.176 11
1 5 -7 18084.6 767.893 4
1 5 -7 17828.7 900.719 13
-1 -5 7 17606.8 771.501 8
-1 -5 7 18554.4 784.205 14
-1 -5 7 18147.3 916.811 2
1 5 -6 16221.8 831.968 3
-1 -5 6 14962.7 688.951 5
1 5 -6 13376.9 754.229 13
-1 -5 6 16855.2 654.424 1
1 5 -6 15053.4 643.924 4
-1 -5 6 15943.9 663.711 14
1 5 -6 15130 761.082 11
-1 -5 6 15067 685.81 8
-1 -5 6 15539.1 809.729 2
-1 -5 5 818.122 166.396 8
-1 -5 5 1130.06 155.084 14
1 5 -5 1005.58 203.953 11
-1 -5 5 777.489 192.465 2
1 5 -5 779.353 125.273 4
1 5 -5 361.936 154.154 13
-1 -5 5 804.355 119.272 1
1 5 -5 806.303 128.121 14
-1 -5 5 992.971 170.085 5
1 5 -5 813.385 196.889 3
1 5 -4 46256 1551.08 3
-1 -5 4 45856.9 1290.94 14
1 5 -4 43297.2 1521.14 9
-1 -5 4 48215.8 1258.88 1
1 5 -4 46032.7 1282.8 4
-1 -5 4 44206.7 1411.47 5
1 5 -4 49653.3 1304.06 14
1 5 -4 43529.9 1539.09 13
-1 -5 4 43916.8 1425.92 8
1 5 -4 45031.4 1553.42 11
1 5 -3 18834.1 871.588 13
-1 -5 3 21482.7 655.28 14
-1 -5 3 20013.3 790.237 5
-1 -5 3 21529.6 656.441 4
1 5 -3 20185 869.94 3
1 5 -3 21868.7 658.789 4
1 5 -3 19347.5 856.129 9
1 5 -3 20287.9 911.738 11
-1 -5 3 20231.2 821.252 8
-1 -5 2 59856.8 1533.91 1
1 5 -2 54945.9 1812.52 9
1 5 -2 60604 1833.29 3
1 5 -2 58478.8 1896.21 11
-1 -5 2 61823.4 1540.76 4
-1 -5 2 58638 1797.17 8
-1 -5 2 62536.2 1546.92 14
1 5 -1 9949.14 533.473 3
1 5 -1 8257.18 550.352 11
-1 -5 1 9548.39 362.163 14
-1 -5 1 9841.33 365.033 4
1 5 -1 8840.84 531.548 9
-1 -5 1 9389.45 377.106 1
-1 -5 1 8889.73 521.681 8
-1 -5 0 280.677 65.1347 1
1 5 0 443.052 135.935 3
1 5 0 410.462 134.194 9
-1 -5 0 437.283 87.4353 4
1 5 0 321.784 162.339 11
-1 -5 0 285.011 139.999 8
1 5 1 5546.81 371.221 3
1 5 1 4736.43 389.861 7
1 5 1 6323.58 353.742 1
1 5 1 5168.38 422.692 11
-1 -5 -1 5872.7 320.406 4
1 5 1 5209.78 401.735 9
-1 -5 -1 5217.3 326.882 1
1 5 2 11372 680.391 12
1 5 2 11382 651.286 11
-1 -5 -2 12631.2 552.67 14
-1 -5 -2 11209.5 674.204 6
1 5 2 10624 625.335 7
1 5 2 11639 636.985 9
-1 -5 -2 11667.2 567.516 1
1 5 2 12523 582.231 3
1 5 3 46321.2 1555.02 9
1 5 3 43494.9 1550.1 7
1 5 3 43805 1641.32 12
1 5 3 45976 1557.39 11
-1 -5 -3 45091 1637.16 6
-1 -5 -3 44405.2 1477.56 1
1 5 3 47667.4 1443.79 3
1 5 4 553.408 164.281 11
-1 -5 -4 122.649 147.935 6
1 5 4 584.69 181.859 12
1 5 4 886.741 158.122 3
-1 -5 -4 594.057 161.901 1
1 5 4 824.342 196.623 9
1 5 4 560.028 190.741 7
1 5 5 2305.3 246.474 3
1 5 5 2110.28 311.306 7
-1 -5 -5 2084.47 317.056 6
1 5 5 1828.68 253.763 11
-1 -5 -5 1993.55 289.103 1
1 5 5 2166.54 328.973 12
1 5 5 1852.43 281.541 9
1 5 6 2970.08 283.832 3
1 5 6 2166.84 338.633 7
-1 -5 -6 2530.14 355.631 6
1 5 6 2829.87 317.578 11
1 5 6 2861.3 353.36 9
-1 -5 -6 3344.55 391.128 1
1 5 6 2668.78 390.082 12
1 5 7 33137.3 1175.2 3
-1 -5 -7 30706.7 1399.97 6
1 5 7 30625.3 1390.7 7
1 5 7 30998.1 1344.22 9
-1 -5 -7 30980.4 1398.64 1
1 5 7 33846 1216.76 11
1 5 7 30251.1 1461.55 12
1 5 8 1364.15 272.824 9
1 5 8 545.053 223.197 7
1 5 8 818.388 249.131 12
-1 -5 -8 1189.16 280.347 6
-1 -5 -8 946.46 259.442 1
1 5 9 860.141 284.697 7
-1 -5 -9 1434.38 303.567 6
1 5 9 350.629 223.19 12
1 5 9 724.164 215.964 9
-1 -5 -9 1317.61 351.681 1
1 5 10 148.789 192.471 7
1 5 10 110.395 137.616 12
-1 -5 -10 -120.936 184.474 1
-1 -5 -10 -62.925 183.18 6
1 5 10 97.4157 202.974 9
1 5 11 1580.79 362.743 7
-1 -5 -11 1916.53 396.734 1
1 5 11 1992.33 412.311 12
1 5 11 1077.97 300.622 9
-1 -5 -12 15493.9 1163.78 1
1 5 12 17568 1248.92 12
1 5 12 15756.3 1140.79 7
1 5 12 17528.5 1124.13 9
1 6 -17 1851.48 421.981 4
-1 -6 16 248.676 242.41 2
1 6 -16 421.76 270.452 4
1 6 -16 31.1401 225.837 13
-1 -6 15 762.457 272.317 2
1 6 -15 587.815 298.554 13
1 6 -15 768.475 280.307 4
1 6 -14 3162.43 478.103 13
1 6 -14 3317.81 462.692 4
-1 -6 14 2233.35 418.534 2
1 6 -13 2940.74 438.973 13
-1 -6 13 3134.38 461.357 2
-1 -6 13 3354.77 452.284 14
1 6 -13 3747.23 452.438 4
-1 -6 12 1051.93 255.595 14
1 6 -12 1003.41 205.989 11
1 6 -12 1128.12 277.21 13
-1 -6 12 835.745 286.471 2
1 6 -12 1249.35 245.784 4
-1 -6 11 5904.89 461.023 12
1 6 -11 5115.23 548.173 13
1 6 -11 6140.78 489.669 11
1 6 -11 6398.1 532.385 4
-1 -6 11 5836.97 594.868 2
-1 -6 11 6618.17 559.479 14
-1 -6 10 13168.9 765.165 14
1 6 -10 13280.3 757.169 11
-1 -6 10 13977 707.154 12
1 6 -10 14059.4 778.56 4
1 6 -10 12972.1 856.51 13
-1 -6 10 12161 855.919 2
1 6 -9 6018.71 466.349 4
1 6 -9 6742.77 589.548 13
1 6 -9 6001.15 495.835 11
-1 -6 9 6213.95 452.219 8
-1 -6 9 5958.41 564.92 2
-1 -6 9 5677.59 458.694 14
-1 -6 8 17996.6 821.424 8
1 6 -8 19179.5 839.964 4
1 6 -8 19260.6 933.727 11
1 6 -8 17353.5 954.054 13
-1 -6 8 19709.9 857.455 14
1 6 -8 20045 1037.86 3
-1 -6 8 17495.9 976.204 2
-1 -6 7 4569.87 455.967 2
1 6 -7 3447.47 421.59 3
1 6 -7 4073.24 402.834 11
-1 -6 7 3852.79 359.299 5
1 6 -7 3459.32 387.597 13
1 6 -7 4093.77 325.95 4
-1 -6 7 3796.78 337.609 8
-1 -6 7 3984.69 323.038 14
1 6 -6 26612.7 1198.54 3
1 6 -6 29234.2 993.279 4
1 6 -6 28586.1 1193.6 11
-1 -6 6 29788.7 1006.5 14
-1 -6 6 28976 1104.51 5
-1 -6 6 25843.7 1186.67 2
1 6 -6 26390.6 1178.09 13
-1 -6 6 30942.6 983.141 1
-1 -6 6 26754.3 1044.71 8
1 6 -5 21144.3 742.485 14
1 6 -5 19743.7 950.661 3
1 6 -5 19603.4 953.139 13
-1 -6 5 18189.7 806.886 8
1 6 -5 18657.4 928.038 11
-1 -6 5 19171 839.144 5
-1 -6 5 20540.4 695.718 1
1 6 -5 19674.2 718.987 4
-1 -6 5 19457.8 724.853 14
-1 -6 5 18536.7 930.549 2
-1 -6 4 4470.25 360.219 5
1 6 -4 4914.04 432.891 13
-1 -6 4 4658.61 278.736 4
1 6 -4 4798.62 279.593 4
1 6 -4 4988.11 422.453 9
1 6 -4 4629.08 418.031 3
1 6 -4 4868.64 440.959 11
-1 -6 4 4712.61 365.602 8
-1 -6 4 4315.22 269.747 14
1 6 -3 16536 867.572 11
1 6 -3 16433.3 817.763 9
1 6 -3 17894.1 605.552 4
-1 -6 3 17976.3 607.393 4
-1 -6 3 18057 606.538 14
-1 -6 3 16986.6 767.256 5
-1 -6 3 17406.8 784.076 8
-1 -6 3 17297.6 584.192 1
1 6 -3 17384.1 824.673 3
1 6 -2 123.968 130.247 11
-1 -6 2 117.92 61.5615 14
1 6 -2 88.5901 124.662 9
1 6 -2 -44.4334 107.927 3
-1 -6 2 106.815 62.6375 1
-1 -6 2 131.255 67.7799 4
-1 -6 2 188.365 134.331 8
-1 -6 1 37889.2 1110.38 1
-1 -6 1 37636.1 1084.45 4
1 6 -1 38787.7 1327.41 3
-1 -6 1 35224.4 1330.12 8
1 6 -1 37924.9 1348.6 9
1 6 -1 35574 1411.74 11
-1 -6 1 38182.5 1086.43 14
-1 -6 0 8509.83 400.75 4
1 6 0 8233.59 533.179 9
1 6 0 7587.97 557.916 11
1 6 0 7724.95 488.282 3
-1 -6 0 8175.51 554.856 8
-1 -6 0 8351.14 420.398 1
1 6 1 2731.55 272.786 3
-1 -6 -1 2762.96 240.795 4
1 6 1 2625.68 325.368 7
1 6 1 3096.52 326.364 9
1 6 1 2757.02 343.801 11
-1 -6 -1 3048.26 262.909 1
1 6 2 9223.31 608.947 7
1 6 2 8405.31 617.079 12
-1 -6 -2 9272.91 519.452 1
1 6 2 8144.49 587.1 11
1 6 2 9905.72 530.63 3
1 6 2 8477.33 554.914 9
-1 -6 -2 8543.7 628.339 6
1 6 3 11381.2 702.137 11
1 6 3 11650 717.861 7
1 6 3 12283.9 608.45 3
1 6 3 11593.1 759.953 12
-1 -6 -3 11879.6 766.599 6
1 6 3 11771 679.545 9
-1 -6 -3 12167.8 656.688 1
1 6 4 16285.1 910.743 7
1 6 4 17994.9 903.052 11
1 6 4 15506 946.838 12
-1 -6 -4 17156 971.612 6
1 6 4 18255.7 772.971 3
1 6 4 17570.7 883.119 9
-1 -6 -4 18011.8 879.803 1
1 6 5 6696.46 587.201 7
1 6 5 7959.92 578.885 11
-1 -6 -5 8374.85 673.776 6
1 6 5 7857.47 662.118 12
1 6 5 7863.82 584.186 9
-1 -6 -5 7677.06 584.126 1
1 6 5 8752.48 502.624 3
-1 -6 -6 3793.22 475.143 6
1 6 6 3820.89 392.787 11
1 6 6 4565.52 358.274 3
1 6 6 3411.24 465.402 12
-1 -6 -6 4330.55 469.719 1
1 6 6 4382.72 452.171 9
1 6 6 3693.03 441.871 7
1 6 7 6518.86 610.938 7
1 6 7 5393.5 612.202 12
-1 -6 -7 6684.42 627.135 6
1 6 7 5708.1 533.864 9
-1 -6 -7 7791.49 652.81 1
1 6 8 912.531 253.525 7
1 6 8 705.611 262.406 12
-1 -6 -8 880.348 271.012 6
-1 -6 -8 882.627 267.383 1
1 6 8 1207.49 274.235 9
1 6 9 3601.95 498.542 7
-1 -6 -9 2576.23 420.04 6
-1 -6 -9 3783.5 507.496 1
1 6 9 3109.34 436.503 9
1 6 9 4006.44 563.642 12
1 6 10 234.329 173.445 7
1 6 10 290.342 235.522 12
-1 -6 -10 138.5 166.121 6
-1 -6 -10 194.927 201.902 1
1 6 10 -125.223 200.975 9
1 6 11 179.543 221.82 7
-1 -6 -11 308.012 227.489 1
1 7 -17 278.003 231.325 4
1 7 -16 517.28 236.792 4
1 7 -15 300.409 249.752 13
-1 -7 15 -7.78177 231.778 2
1 7 -15 225.219 189.096 4
-1 -7 14 2508.24 404.496 14
1 7 -14 1533.93 366.958 13
-1 -7 14 1459.15 352.17 2
1 7 -14 1259.32 286.637 4
1 7 -13 326.879 224.457 13
-1 -7 13 328.662 209.422 14
-1 -7 13 99.3566 170.445 2
1 7 -13 92.4541 156.131 4
-1 -7 12 442.849 192.781 14
-1 -7 12 170.829 187.941 2
1 7 -12 267.944 165.001 11
1 7 -12 -12.3526 176.31 13
1 7 -12 129.959 152.557 4
1 7 -11 7921.03 604.257 11
1 7 -11 7124.55 662.244 13
1 7 -11 7751.34 593.916 4
-1 -7 11 6582.46 660.009 2
-1 -7 11 8445.69 624.533 14
-1 -7 10 922.804 212.333 14
1 7 -10 714.63 205.525 11
-1 -7 10 674.874 245.623 2
1 7 -10 813.657 253.49 13
1 7 -10 1099.55 231.494 4
-1 -7 10 716.548 186.808 8
-1 -7 9 19284.5 899.954 14
1 7 -9 18171.8 974.328 11
1 7 -9 16853.8 1004.08 13
1 7 -9 18565 880.745 4
-1 -7 9 18531.3 857.295 8
-1 -7 9 18406.5 1059.63 2
1 7 -8 2112.07 344.877 13
1 7 -8 2485.65 276.654 4
1 7 -8 2242.71 328.005 11
-1 -7 8 2228.28 261.242 14
-1 -7 8 2533.54 367.524 2
1 7 -8 1932.76 325.655 3
-1 -7 8 2588.13 289.547 8
1 7 -7 -77.421 148.392 13
1 7 -7 15.5746 145.892 3
1 7 -7 16.3649 78.3717 4
1 7 -7 110.117 149.957 11
-1 -7 7 -17.4271 114.338 2
-1 -7 7 130.488 127.609 5
-1 -7 7 81.5901 109.532 8
-1 -7 7 277.625 130.14 14
-1 -7 6 3832.39 300.967 14
1 7 -6 2729.71 357.425 11
-1 -7 6 3262.2 351.115 5
1 7 -6 3419.11 405.007 13
1 7 -6 2985.9 385.293 3
-1 -7 6 3277.63 403.648 2
1 7 -6 3347.3 279.901 4
-1 -7 6 3531.04 335.644 8
-1 -7 5 10451.8 495.156 14
1 7 -5 9154.68 659.681 13
1 7 -5 9991.4 697.082 11
-1 -7 5 10094.3 609.259 5
1 7 -5 10325 674.449 3
1 7 -5 10567.2 491.629 4
-1 -7 5 10190.3 588.731 8
-1 -7 5 10408.9 695.1 2
-1 -7 4 8698.13 415.128 4
-1 -7 4 8363.4 409.753 14
1 7 -4 7890.82 617.875 11
-1 -7 4 7471.84 518.685 5
1 7 -4 8846.55 419 4
1 7 -4 8424.76 599.681 3
1 7 -4 7780.76 572.371 9
-1 -7 4 8227.7 528.62 8
1 7 -3 16528.5 841.684 3
-1 -7 3 16641.9 607.9 1
1 7 -3 15898.4 901.094 11
-1 -7 3 16969.6 616.386 14
-1 -7 3 15810 790.744 5
-1 -7 3 16652.2 614.106 4
1 7 -3 16558.3 848.079 9
-1 -7 3 15530.8 784.386 8
-1 -7 2 15906.6 806.88 8
-1 -7 2 15481.2 591.284 4
1 7 -2 15009.9 787.838 3
-1 -7 2 16566.6 613.639 1
1 7 -2 15508 806.938 9
1 7 -2 14927.7 881.033 11
-1 -7 2 16864.7 608.885 14
-1 -7 1 2513.61 324.476 8
-1 -7 1 2580.99 213.445 4
1 7 -1 2122.1 270.588 3
-1 -7 1 2561.58 227.196 1
1 7 -1 2040.98 318.576 11
1 7 -1 2296.8 298.767 9
-1 -7 1 2518.4 208.367 14
-1 -7 0 297.674 140.831 8
1 7 0 218.761 139.849 3
1 7 0 102.136 144.94 11
1 7 0 344.202 159.797 9
-1 -7 0 164.258 80.9959 1
1 7 1 1348.51 210.844 3
1 7 1 1354.81 272.612 11
1 7 1 1097.06 229.114 7
-1 -7 -1 997.436 185.017 1
-1 -7 -1 1743.03 308.522 6
1 7 1 1264.98 222.407 9
-1 -7 -1 1547.11 267.383 8
1 7 2 55.5924 129.14 12
-1 -7 -2 333.421 133.072 1
1 7 2 223.154 138.635 7
1 7 2 455.393 209.653 11
-1 -7 -2 555.286 216.901 6
1 7 2 141.57 99.0219 3
1 7 2 109.427 137.293 9
-1 -7 -3 1353.25 299.377 6
1 7 3 1562.32 293.319 11
-1 -7 -3 1714.61 265.223 1
1 7 3 2045.11 346.21 12
1 7 3 1671.35 221.57 3
1 7 3 1650.84 304.343 7
1 7 3 1386.58 248.837 9
1 7 4 12473.4 638.173 3
-1 -7 -4 12535.1 745.138 1
-1 -7 -4 12100.2 858.247 6
1 7 4 12798.3 794.669 11
1 7 4 10823.5 774.952 7
1 7 4 12307.6 751.198 9
1 7 4 12796.5 866.852 12
1 7 5 -118.476 170.427 12
1 7 5 206.998 152.237 11
-1 -7 -5 50.6416 196.921 6
1 7 5 221.738 165.543 7
1 7 5 -79.5055 116.267 9
-1 -7 -5 10.2333 141.391 1
1 7 6 324.159 195.14 12
-1 -7 -6 751.833 239.49 6
1 7 6 405.689 201.864 7
1 7 6 686.545 205.196 11
1 7 6 742.959 215.482 9
-1 -7 -6 801.3 247.298 1
1 7 7 -96.833 161.871 12
1 7 7 49.8503 154.922 9
1 7 7 -202.027 182.825 7
-1 -7 -7 177.062 230.698 1
-1 -7 -7 -232.001 183.105 6
1 7 8 4430.81 589.643 12
1 7 8 3771.55 518.369 7
-1 -7 -8 4750.69 566.31 1
-1 -7 -8 4489.12 565.138 6
1 7 8 4514.45 512.992 9
1 7 9 107.363 199.52 7
1 7 9 82.6765 183.014 12
-1 -7 -9 596.215 278.422 6
-1 -7 -9 876.886 305.332 1
1 7 10 642.432 294.919 7
-1 -7 -10 1090.51 328.011 6
-1 -7 -10 1163.51 337.381 1
-1 -7 -11 5704.63 698.238 1
-1 -7 -11 5588.33 682.783 6
1 8 -17 6212.61 707.169 4
1 8 -16 -137.969 201.491 4
1 8 -15 6837.6 771.966 13
1 8 -15 8034.99 744.884 4
1 8 -14 186.379 202.798 13
-1 -8 14 1116.79 326.018 2
1 8 -14 857.184 267.017 4
-1 -8 14 919.75 288.975 14
1 8 -13 553.187 205.636 11
1 8 -13 312.154 225.367 13
-1 -8 13 603.724 282.602 2
-1 -8 13 541.476 190.918 14
1 8 -13 221.892 165.268 4
-1 -8 12 404.002 190.844 14
1 8 -12 279.486 206.023 13
1 8 -12 260.354 166.146 11
-1 -8 12 580.346 270.823 2
1 8 -12 589.551 207.468 4
-1 -8 11 1382.53 266.518 14
-1 -8 11 1167.26 311.863 2
1 8 -11 1127.19 270.712 11
1 8 -11 990.674 248.002 4
1 8 -11 754.235 246.175 13
1 8 -10 2088.25 367.857 13
-1 -8 10 2024.64 375.354 2
-1 -8 10 2572.42 323.342 14
1 8 -10 2049.42 352.1 11
1 8 -10 1695.38 266.056 4
-1 -8 9 1172.69 216.591 14
1 8 -9 1115.96 316.272 13
-1 -8 9 1114.83 278.961 2
1 8 -9 1483.26 308.808 11
1 8 -9 1549.04 243.068 4
-1 -8 9 1162.8 209.612 8
-1 -8 8 23985.1 995.094 14
-1 -8 8 23997.9 1118.03 5
1 8 -8 22605.9 1212.12 13
1 8 -8 25318.1 1010.11 4
-1 -8 8 25636.4 1051.04 8
-1 -8 8 23586.4 1240.56 2
1 8 -8 23847.5 1209.38 11
1 8 -8 22354.7 1215.37 3
1 8 -7 15172.3 961.627 13
1 8 -7 16093.8 978.718 3
-1 -8 7 16585.6 884.043 5
1 8 -7 17538.5 768.362 4
-1 -8 7 18179.3 851.149 8
-1 -8 7 16758.9 988.457 2
1 8 -7 16594.1 988.121 11
-1 -8 7 18773.8 791.058 14
-1 -8 6 11319.9 651.861 8
1 8 -6 11867.6 811.96 11
1 8 -6 11162.2 773.345 3
-1 -8 6 11310 694.391 5
1 8 -6 11862.4 570.649 4
1 8 -6 9877.06 748.831 13
-1 -8 6 11438.5 569.616 14
-1 -8 6 11046.8 770.828 2
1 8 -5 1841.76 316.508 3
-1 -8 5 1671.59 254.726 8
1 8 -5 1472.32 315.962 11
-1 -8 5 1625.88 262.164 5
-1 -8 5 1356.81 274.344 2
1 8 -5 1811.29 195.035 4
-1 -8 5 1934.71 209.285 14
-1 -8 4 1203.06 155.18 14
-1 -8 4 1033.26 146.728 1
1 8 -4 1134.95 277.151 11
-1 -8 4 1145.04 224.796 8
1 8 -4 1425.9 271.622 3
-1 -8 4 1037.53 213.245 5
1 8 -4 988.163 219.422 9
-1 -8 3 12758.8 534.848 1
-1 -8 3 12399.9 529.044 14
1 8 -3 11588.1 726.888 3
-1 -8 3 10870.5 696.075 5
1 8 -3 11322.6 802.292 11
1 8 -3 11890 734.219 9
-1 -8 3 11812.4 708.138 8
1 8 -2 33036 1326.65 3
1 8 -2 32375.8 1466.19 11
-1 -8 2 34329.5 1071.44 14
1 8 -2 32306.4 1338.89 9
-1 -8 2 34473.9 1091.46 1
-1 -8 2 30468.9 1308.15 8
1 8 -1 437.417 211.001 11
1 8 -1 499.605 155.087 3
-1 -8 1 217.41 155.9 8
1 8 -1 333.456 166.051 9
-1 -8 1 258.127 100.806 1
1 8 0 12384.5 854.408 11
1 8 0 13915.7 740.595 3
-1 -8 0 11139 818.443 6
1 8 0 12802.8 760.988 9
-1 -8 0 14774.9 669.753 1
-1 -8 0 14062.9 833.871 8
1 8 1 14560.4 921.159 11
-1 -8 -1 15125.1 730.551 1
1 8 1 15485.3 853.835 9
1 8 1 15140.3 764.243 3
-1 -8 -1 14211.8 882.755 8
-1 -8 -1 13713.2 927.113 6
-1 -8 -2 6716.76 635.973 6
1 8 2 7493.75 637.732 7
1 8 2 7486.04 651.097 11
1 8 2 7581.66 589.406 9
1 8 2 7119.81 496.05 3
-1 -8 -2 7727.76 529.52 1
1 8 3 1745.11 305.582 9
-1 -8 -3 1746.85 274.723 1
1 8 3 1580.98 334.304 12
-1 -8 -3 1267.72 290.833 6
1 8 3 1447.02 301.014 7
1 8 3 1436.23 303.419 11
1 8 4 7762.37 693.341 7
-1 -8 -4 6591.84 674.513 6
1 8 4 7152.4 623.6 11
1 8 4 7729.23 610.035 9
1 8 4 7113.57 685.015 12
-1 -8 -4 7723.16 595.36 1
1 8 5 440.828 220.56 7
1 8 5 849.126 265.877 12
-1 -8 -5 705.987 260.739 6
1 8 5 1161.54 282.053 11
1 8 5 764.602 235.217 9
-1 -8 -5 578.975 212.67 1
1 8 6 3928.74 551.727 12
1 8 6 4693.01 502.578 9
-1 -8 -6 3962.6 536.415 6
1 8 6 4527.45 536.888 7
1 8 7 842.313 317.415 12
-1 -8 -7 959.618 322.158 6
1 8 7 486.335 227.751 7
1 8 8 -17.6403 199.218 12
-1 -8 -8 454.922 238.591 6
1 8 8 283.533 232.162 7
1 8 9 -36.2194 236.45 7
-1 -8 -9 815.713 289.718 6
1 9 -14 1257.16 367.891 13
-1 -9 14 1567.83 426.812 2
1 9 -13 1400.04 295.362 11
1 9 -13 2439.38 468.003 13
-1 -9 13 1397.9 366.19 2
1 9 -12 -8.74083 206.358 13
-1 -9 12 123.794 202.318 2
1 9 -12 151.166 168.79 11
1 9 -11 404.879 211.46 11
1 9 -11 278.752 235.28 13
1 9 -11 251.188 175.54 4
-1 -9 11 704.576 273.927 2
1 9 -10 8141.7 755.347 13
1 9 -10 8006.31 713.359 11
1 9 -10 8772.74 603.118 4
-1 -9 10 8351.13 770.293 2
1 9 -9 -180.933 217.089 13
-1 -9 9 49.133 159.216 2
1 9 -9 161.599 135.188 4
1 9 -9 -76.417 168.897 11
-1 -9 9 -180.995 191.579 5
-1 -9 8 2891.59 341.495 8
-1 -9 8 2718.82 420.841 2
-1 -9 8 2633.31 366.484 5
1 9 -8 2519.65 402.978 11
1 9 -8 2411.2 407.167 13
1 9 -7 12995.5 878.751 3
-1 -9 7 12217.9 701.416 8
1 9 -7 9387.6 773.007 13
-1 -9 7 11324.5 757.55 5
1 9 -7 12782.4 893.12 11
-1 -9 7 9918.62 784.369 2
-1 -9 6 2890.13 406.593 2
-1 -9 6 2577.87 321.997 8
-1 -9 6 2800.6 372.942 5
1 9 -6 2842.62 435.965 11
1 9 -6 2858.15 419.787 3
1 9 -5 87.2754 195.682 11
1 9 -5 162.159 175.744 3
-1 -9 5 260.768 165.017 8
-1 -9 5 323.128 194.628 2
-1 -9 5 87.0318 141.488 5
1 9 -4 6883.51 665.258 11
1 9 -4 7147.41 611.86 3
1 9 -4 8141.01 632.652 9
-1 -9 4 7288.21 582.868 5
-1 -9 4 7855.49 583.692 8
1 9 -3 325.618 184.731 3
-1 -9 3 539.543 181.346 8
1 9 -3 480.687 232.595 11
-1 -9 3 810.924 248.66 5
1 9 -3 417.94 179.7 9
1 9 -2 272.771 140.736 3
1 9 -2 701.509 262.642 11
-1 -9 2 505.027 196.174 5
1 9 -2 346.614 178.2 9
-1 -9 2 462.668 189.775 8
1 9 -1 43373.7 1601.95 3
-1 -9 1 40254.3 1786.65 6
1 9 -1 41349.4 1796.71 11
1 9 -1 42120.5 1635.85 9
-1 -9 1 42414.2 1693.27 8
1 9 0 3215.74 352.814 3
-1 -9 0 2811.28 452.424 6
1 9 0 2321.63 408.852 11
-1 -9 0 3196.43 428.067 8
1 9 0 2769.26 364.191 9
-1 -9 -1 5988.37 632.48 6
1 9 1 6645.52 643.964 11
1 9 1 6734.07 570.316 9
1 9 1 7190.62 527.256 3
-1 -9 -1 6367.9 623.433 8
-1 -9 -2 180.622 184.33 6
-1 -9 -2 415.351 205.732 8
1 9 2 689.11 252.237 11
1 9 2 343.734 183.661 9
-1 -9 -3 6571.26 680.403 6
1 9 3 7535.86 700.362 7
1 9 3 6757.15 646.17 11
1 9 3 6326.58 568.565 9
1 9 4 83.6607 153.523 11
-1 -9 -4 91.7745 188.294 6
1 9 4 120.69 183.34 9
1 9 4 -100.24 204.875 7
1 9 5 1215.11 303.64 7
1 9 5 1360.87 311.121 11
1 9 5 773.188 300.292 12
-1 -9 -5 840.888 311.517 6
1 9 6 -157.274 185.124 7
1 9 6 -219.395 175.917 12
-1 -9 -6 -6.07331 201.829 6
1 9 7 5044.08 641.122 7
-1 -9 -7 5592.57 679.192 6
1 10 -13 6724.96 753.829 13
1 10 -13 6275.49 651.764 11
-1 -10 13 6052.84 735.378 2
1 10 -12 2228.08 474.473 13
-1 -10 12 1716.04 404.631 2
1 10 -12 1871.11 370.286 11
1 10 -11 2015.54 424.571 13
1 10 -11 1667.01 362.124 11
-1 -10 11 2286.45 436.749 2
1 10 -10 -88.9973 198.62 13
-1 -10 10 -68.2467 209.092 2
-1 -10 9 1258.1 328.165 2
-1 -10 9 932.584 260.461 5
1 10 -9 1100.87 332.453 11
1 10 -9 1156.32 325.759 13
-1 -10 8 -162.906 190.602 2
-1 -10 8 191.741 190.615 5
1 10 -8 114.36 175.288 11
-1 -10 7 501.585 217.105 2
-1 -10 7 859.065 220.59 5
1 10 -7 528.483 238.021 11
1 10 -6 1756.33 351.78 3
-1 -10 6 2415.24 332.329 8
-1 -10 6 2443.87 398.383 2
-1 -10 6 2570.25 391.818 5
1 10 -6 1711.28 361.623 11
1 10 -5 5711.64 582.506 3
-1 -10 5 4217.76 495.782 2
1 10 -5 5509.26 613.432 11
-1 -10 5 5781.61 561.364 5
-1 -10 5 5375.42 492.627 8
1 10 -4 6109.99 589.433 3
-1 -10 4 5611.29 563.616 5
1 10 -4 5904.48 642.251 11
-1 -10 4 6520.55 566.01 8
-1 -10 4 5857.4 587.945 2
1 10 -3 15572.1 945.577 3
-1 -10 3 15714.2 954.422 5
1 10 -3 15637 1057.62 11
1 10 -3 15536.5 943.971 9
-1 -10 3 15798.6 927.483 8
-1 -10 2 148.043 174.548 5
1 10 -2 584.32 212.576 3
-1 -10 2 -120.924 215.056 6
-1 -10 2 33.5422 168.632 8
1 10 -2 126.169 158.227 11
1 10 -2 372.75 202.104 9
-1 -10 1 811.621 274.487 8
1 10 -1 1122.84 298.715 11
1 10 -1 1033.09 270.095 9
-1 -10 1 561.822 276.668 6
1 10 -1 1207.25 254.683 3
-1 -10 0 2223.47 413.994 6
1 10 0 2288.91 401.063 11
-1 -10 0 2497.84 406.459 8
1 10 0 2875.5 390.902 9
1 10 1 24895.5 1379.58 11
-1 -10 -1 24702.3 1417.41 6
-1 -10 -1 24922 1347.54 8
1 10 1 24531.9 1221.28 9
-1 -10 -2 3376.45 526.421 6
1 10 2 3385.7 488.292 11
1 10 2 4126.9 479.15 9
-1 -10 -2 3337.59 476.438 8
1 10 3 1282.5 310.291 11
-1 -10 -3 1593.69 401.628 6
-1 -10 -3 1189.53 310.359 8
1 10 4 -191.255 211.611 7
-1 -10 -4 -419.634 308.59 6
1 10 4 322.042 240.819 11
-1 -10 -4 162.367 159.235 8
1 10 5 738.112 252.498 7
1 10 6 271.732 262.699 7
1 11 -13 16691.8 1146.48 11
-1 -11 12 1173.91 361.788 2
1 11 -12 359.763 255.788 11
1 11 -11 3518.4 557.544 13
-1 -11 11 3299.08 515.762 2
1 11 -11 3050.75 503.018 11
-1 -11 10 6.91281 136.658 2
1 11 -10 22.5356 192.857 13
1 11 -10 -84.6538 191.624 11
-1 -11 10 -231.138 212.444 5
-1 -11 9 813.353 265.273 2
1 11 -9 1039.79 320.875 11
-1 -11 9 474.394 203.152 5
-1 -11 8 11590.4 841.297 5
-1 -11 8 10196 872.062 2
1 11 -8 10675.1 899.321 11
-1 -11 7 -106.876 202.633 2
-1 -11 7 347.333 221.419 5
1 11 -7 102.293 211.524 11
1 11 -6 -10.9032 220.386 11
-1 -11 6 156.853 134.438 2
-1 -11 6 -33.1028 145.61 5
1 11 -5 2626.21 470.204 11
-1 -11 5 2429.06 410.499 2
-1 -11 5 2588.14 394.877 5
1 11 -5 1982.38 365.619 3
1 11 -4 18140.8 1216.44 11
1 11 -4 18913.6 1111.97 3
-1 -11 4 18276.1 1091.87 5
-1 -11 4 20145.5 1080.43 8
-1 -11 4 18459.9 1127.91 2
-1 -11 3 1100.29 288.207 6
1 11 -3 1428.5 332.288 3
-1 -11 3 597.933 253.602 5
1 11 -3 1359.19 367.574 11
-1 -11 3 1232.99 294.076 8
-1 -11 2 2337.69 433.284 6
-1 -11 2 2960.64 426.781 8
1 11 -2 2974.49 495.882 11
-1 -11 2 2351.14 395.985 5
1 11 -2 2505.12 383.477 9
-1 -11 1 10289 915.918 6
1 11 -1 9759.1 871.18 11
-1 -11 1 9429.48 803.967 5
1 11 -1 10739.4 793.879 9
-1 -11 1 11197.3 852.699 8
-1 -11 0 308.599 219.467 8
-1 -11 0 -10.6243 180.443 6
1 11 0 11.9101 270.3 11
-1 -11 -1 1155.32 337.522 6
1 11 1 1530.82 369.813 11
-1 -11 -1 748.945 270.22 8
-1 -11 -2 1608.45 411.749 6
1 11 2 2380.68 457.086 11
-1 -11 -2 2276.85 425.439 8
1 11 3 -57.789 207.151 11
-1 -11 -3 -73.4007 217.063 8
1 12 -11 13621 1087.4 11
-1 -12 10 1003.47 376.681 2
1 12 -10 897.03 343.544 11
-1 -12 9 1588.92 396.05 2
1 12 -9 1998.99 432.341 11
-1 -12 8 2286.57 442.735 2
-1 -12 8 2020.33 372.658 5
1 12 -7 1494.77 386.135 11
-1 -12 7 1555.56 368.886 2
-1 -12 7 1622.98 346.16 5
1 12 -6 -25.3121 219.466 11
-1 -12 6 446.388 229.508 2
-1 -12 6 467.928 229.499 5
1 12 -5 1147.56 364.271 11
-1 -12 5 1128.04 316.5 5
-1 -12 5 1167.98 296.407 2
1 12 -4 8096.91 846.614 11
-1 -12 4 9388.64 804.823 5
-1 -12 4 8666.64 854.57 6
-1 -12 3 1834.18 439.309 6
-1 -12 3 2294.73 429.696 5
1 12 -3 2083.1 429.848 11
-1 -12 2 18331.7 1306.8 6
1 12 -2 21791.3 1412.82 11
-1 -12 2 22063 1301.88 5
1 12 -1 16648.3 1217.5 11
-1 -12 1 15894.2 1114.39 5
-1 -12 1 16556 1109.9 8
-1 -12 0 1031.93 344.178 8
-1 -12 -1 523.628 266.386 8
-1 -13 8 200.045 201.839 2
-1 -13 4 6595.74 712.656 5
-1 -13 3 -169.221 215.958 5
2 -13 3 1879.52 412.86 6
2 -13 4 3138.26 519.163 6
2 -13 5 45.5916 195.216 6
2 -13 6 668.238 269.816 6
-2 12 3 -4.00315 134.071 12
-2 12 3 252.437 209.827 10
-2 12 2 8758.89 889.864 10
-2 12 1 5902.11 720.031 10
2 -12 0 44.5667 157.753 6
-2 12 0 -151.769 254.237 10
2 -12 1 593.854 273.479 5
-2 12 -1 401.198 265.07 10
2 -12 1 -80.695 224.611 6
-2 12 -2 186.103 257.768 10
2 -12 2 31.6929 167.301 6
2 -12 2 -65.7027 233.86 5
2 -12 3 1526.69 358.318 6
-2 12 -3 1120.26 361.033 10
2 -12 3 853.606 310.154 5
2 -12 3 1198.06 300.551 14
2 -12 4 1104.83 335.339 6
2 -12 4 983.658 284.494 14
2 -12 4 636.349 309.364 5
-2 12 -4 798.67 300.935 10
2 -12 5 618.156 351.949 5
-2 12 -5 166.204 184.773 10
2 -12 5 212.214 197.635 6
2 -12 5 -72.002 177.411 14
2 -12 6 356.263 235.216 6
2 -12 6 242.49 266.589 5
-2 12 -6 156.241 162.395 10
2 -12 6 365.671 225.337 14
-2 12 -6 -2.33687 187.235 4
2 -12 7 2570.39 421.827 14
2 -12 7 2114.36 440.102 5
-2 12 -7 2483.7 476.372 10
-2 12 -7 2830.81 430.95 4
2 -12 8 1009.23 362.796 5
2 -12 8 569.623 236.22 14
-2 12 -8 80.8451 187.103 10
-2 12 -8 859.856 288.501 4
2 -12 9 633.68 343.147 5
-2 12 -9 134.246 264.479 10
-2 12 -9 31.1136 197.508 4
2 -12 9 -147.286 205.914 14
-2 12 -10 4230.17 614.158 10
-2 12 -10 3318.73 505.013 4
2 -12 10 4111.2 548.578 14
2 -12 11 1776.12 395.499 14
-2 12 -11 1700.56 403.356 10
-2 12 -11 1331.36 313.329 4
2 -12 11 1723.65 363.052 2
-2 12 -12 8548.62 821.501 4
2 -12 12 7310.55 781.325 2
2 -12 12 5653.44 670.319 14
2 -11 -5 405.931 320.948 1
-2 11 4 1949.68 379.913 12
-2 11 4 2407.25 438.896 10
2 -11 -4 2581.52 490.748 1
2 -11 -3 14756.8 1168.82 6
2 -11 -3 15233.8 1084.67 1
-2 11 3 16935.1 1165.52 10
-2 11 3 13815.2 1035.87 12
2 -11 -2 14910.2 1053.72 1
2 -11 -2 13513.9 1086.17 6
-2 11 2 15444.4 1124.88 10
-2 11 2 15044.4 1034.26 12
2 -11 -1 6189.44 659.022 1
2 -11 -1 5469.62 667.275 6
-2 11 1 4816.77 626.93 10
-2 11 1 5255 571.65 12
2 -11 0 23278.1 1284.12 1
2 -11 0 20530.8 1296.28 6
2 -11 0 22401.5 1350.38 5
-2 11 0 19790.9 1294.97 10
-2 11 0 22936.8 1199.77 12
-2 11 -1 7889.25 796.637 10
2 -11 1 8531.33 733.628 14
2 -11 1 8453.29 799.401 5
2 -11 1 8575.79 784.171 6
2 -11 1 10339.5 802.394 1
2 -11 2 5121.18 627.976 5
2 -11 2 4518.44 562.24 6
-2 11 -2 5754.87 672.218 10
2 -11 2 5386.73 573.015 1
2 -11 2 5123.48 554.773 14
2 -11 3 2027.04 383.237 6
2 -11 3 1830.61 395.098 5
2 -11 3 2777.8 415.227 14
2 -11 3 1881.96 334.903 1
-2 11 -3 1880.27 404.331 10
2 -11 4 -37.0655 165.928 6
2 -11 4 -206.407 184.903 1
2 -11 4 161.567 211.34 5
-2 11 -4 -88.8341 237.6 10
2 -11 4 414.173 226.561 14
-2 11 -5 4060.58 574.565 10
2 -11 5 4201.37 504.68 6
2 -11 5 4065.87 496.937 14
2 -11 5 4267.94 568.484 5
-2 11 -5 3549.3 460.655 4
2 -11 6 3104.15 430.024 6
2 -11 6 1526.42 372.925 5
-2 11 -6 2078.13 368.946 4
2 -11 6 2106.8 368.162 14
-2 11 -6 2226.5 450.014 10
2 -11 7 2901.31 483.118 5
2 -11 7 3093.6 416.852 6
-2 11 -7 3085.32 496.333 10
-2 11 -7 3031.58 437.245 4
2 -11 7 3147.47 441.323 14
2 -11 8 17997.2 1087.57 14
2 -11 8 16733.2 1143.89 5
-2 11 -8 16766.4 1175.22 10
-2 11 -8 17067 1072.26 4
2 -11 8 17337.7 1032.83 2
2 -11 9 18643.3 1232.38 5
2 -11 9 18774.7 1156.26 14
-2 11 -9 19205 1259.67 10
-2 11 -9 19305 1160.64 4
2 -11 9 19558.4 1148.69 2
2 -11 10 195.798 206.261 14
2 -11 10 660.312 250.286 2
-2 11 -10 335.722 238.153 10
2 -11 10 264.83 233.226 5
-2 11 -10 773.153 267.621 4
-2 11 -11 1731.98 392.27 13
-2 11 -11 2165.76 436.964 10
2 -11 11 1970.45 389.998 2
2 -11 11 1994.58 413.038 14
-2 11 -11 1767.8 370.253 4
-2 11 -12 -150.135 210.016 13
2 -11 12 -14.652 185.383 2
-2 11 -12 -105.726 244.167 10
2 -11 12 -225.48 226.198 14
-2 11 -12 222.574 203.543 4
2 -11 13 751.204 320.723 2
2 -11 13 550.069 243.827 14
-2 11 -13 837.468 301.034 13
-2 11 -13 885.346 350.866 10
-2 11 -13 539.803 273.617 4
2 -10 -6 1000.05 346.761 1
-2 10 6 874.894 278.468 12
-2 10 5 391.173 214.255 12
2 -10 -5 1127.97 346.276 1
-2 10 5 530.676 258.321 10
-2 10 5 535.924 297.142 7
2 -10 -5 449.395 282.949 6
2 -10 -4 6671.76 706.27 1
-2 10 4 7479.89 734.459 12
-2 10 4 6617.04 758.895 7
2 -10 -4 6443.92 737.171 6
-2 10 4 7754.43 730.501 10
-2 10 3 8343.61 741.942 12
2 -10 -3 6332.13 717.365 6
-2 10 3 8047.1 755.486 10
-2 10 3 6850.83 740.396 7
2 -10 -3 8368.47 761.015 1
2 -10 -2 -184.396 214.793 1
-2 10 2 -0.7515 145.115 12
2 -10 -2 -186.609 185.685 6
-2 10 2 265.999 244.417 7
-2 10 2 201.602 215.343 10
-2 10 1 255.631 185.892 12
2 -10 -1 306.011 215.483 1
2 -10 -1 197.267 217.478 6
-2 10 1 -6.84947 176.532 10
-2 10 0 812.286 219.755 12
2 -10 0 1251.32 296.276 1
2 -10 0 629.556 202.746 6
2 -10 1 4632.77 547.202 6
-2 10 -1 5693.75 628.004 10
2 -10 1 5580.27 568.126 1
2 -10 1 4634.06 562.5 5
-2 10 -1 5762.38 507.496 12
2 -10 1 4585.95 506.523 14
2 -10 2 36103.8 1580.06 14
-2 10 -2 40257.2 1468.81 12
2 -10 2 37405.8 1629.38 1
2 -10 2 36228.5 1699.82 5
-2 10 -2 38458.1 1776.99 10
2 -10 2 36766.1 1653.98 6
2 -10 3 1562.64 282.319 1
2 -10 3 1982.39 357.581 6
2 -10 3 1464.07 300.507 14
2 -10 3 1287.83 325.196 5
-2 10 -3 1437.15 336.794 10
-2 10 -4 110.486 210.177 10
2 -10 4 -61.8888 179.999 14
2 -10 4 -18.1574 207.193 5
-2 10 -4 210.135 146.348 4
2 -10 4 155.108 176.304 6
2 -10 5 1470.89 296.59 6
2 -10 5 1669.26 328.107 14
2 -10 5 2083.88 394.098 5
-2 10 -5 1789.66 360.106 10
-2 10 -5 2029.8 342.24 4
-2 10 -6 3145.42 468.807 10
2 -10 6 2463.13 338.413 2
2 -10 6 2107.41 339 6
2 -10 6 2532.67 430.293 5
-2 10 -6 2992.78 409.875 4
2 -10 6 2363.9 373.787 14
2 -10 7 16883.1 954.416 2
-2 10 -7 16983.2 1008.03 4
2 -10 7 15267 888.607 6
2 -10 7 14539.3 1009.25 5
-2 10 -7 15251.1 1052.46 10
2 -10 7 14635.4 942.275 14
2 -10 8 18428.1 1072.08 14
-2 10 -8 17394.8 1127.62 10
2 -10 8 17162 1116.26 5
-2 10 -8 16666.4 1033.99 4
2 -10 8 17852.8 1032.18 2
2 -10 9 4212.76 500.754 14
2 -10 9 3922.72 538.067 5
-2 10 -9 4802.8 582.024 10
-2 10 -9 4496.9 522.378 4
2 -10 9 3965.32 497.363 2
2 -10 10 6621.16 672.049 14
2 -10 10 6937.36 720.273 5
-2 10 -10 7070.89 680.748 13
-2 10 -10 7148.97 716.008 10
-2 10 -10 6444.77 649.302 4
2 -10 10 7702.7 701.735 2
2 -10 11 743.498 255.223 2
-2 10 -11 577.55 215.111 10
2 -10 11 841.128 291.917 14
-2 10 -11 641.614 262.617 4
-2 10 -11 989.174 293.306 13
-2 10 -12 1856.07 390.359 10
-2 10 -12 1541.5 356.565 13
-2 10 -12 1101.35 290.871 4
2 -10 12 1537.01 349.283 2
2 -10 12 1274.99 323.861 14
2 -10 13 2289.19 442.804 2
-2 10 -13 2635.12 444.75 13
2 -10 13 1938.53 428.444 14
-2 10 -13 2160.17 422.975 4
-2 10 -14 4026.75 572.084 13
2 -10 14 3303.51 556.848 2
-2 10 -14 3601.29 544.931 4
2 -10 14 4136.07 597.634 14
-2 10 -15 746.133 301.659 13
-2 9 7 522.179 276.958 12
-2 9 7 230.389 188.298 7
2 -9 -7 231.054 200.552 1
-2 9 6 449.464 278.928 7
2 -9 -6 991.263 353.253 6
2 -9 -6 480.4 254.797 1
-2 9 6 297.839 210.402 12
-2 9 5 136.099 196.059 7
2 -9 -5 63.4131 172.001 1
-2 9 5 384.447 213.453 12
-2 9 5 653.527 256.274 10
-2 9 4 3160.18 507.464 7
2 -9 -4 3948.15 551.2 6
-2 9 4 4185.47 510.976 10
2 -9 -4 4318.99 540.73 1
-2 9 4 4475.09 541.247 12
-2 9 3 11396.8 830.68 12
2 -9 -3 10698 872.689 6
2 -9 -3 11125.8 850.499 1
-2 9 3 11669.9 852.715 10
-2 9 3 10617.2 876.202 7
-2 9 2 1152.51 261.693 12
2 -9 -2 808.032 274.502 6
-2 9 2 1143.2 306.067 10
2 -9 -2 887.975 262.916 1
-2 9 2 778.505 242.876 7
-2 9 1 355.511 223.514 10
-2 9 1 319.077 193.851 7
2 -9 -1 361.864 170.439 1
-2 9 1 362.04 125.656 12
2 -9 -1 262.585 164.127 6
-2 9 0 12981.5 775.457 12
2 -9 0 13019.1 847.726 1
2 -9 0 10778.1 805.886 6
-2 9 0 11344.7 845.86 10
-2 9 -1 13098.1 742.334 12
2 -9 1 12478.2 845.48 6
2 -9 1 12261.3 862.769 5
-2 9 -1 12235.7 875.589 10
2 -9 1 11912.6 815.716 1
2 -9 2 21510 1126.06 6
2 -9 2 21467.2 1168.76 5
-2 9 -2 22170.2 959.625 12
2 -9 2 20634.6 1094.37 1
-2 9 -2 21592 1201.92 10
2 -9 2 20767.9 1071.85 14
-2 9 -3 10049.7 554.187 12
2 -9 3 9683.52 702.254 6
2 -9 3 8978.92 674.514 14
-2 9 -3 9172.4 754.808 10
2 -9 3 8850.95 727.256 5
-2 9 -3 10214.3 708.634 4
2 -9 4 1399.77 226.385 2
2 -9 4 1849.96 313.822 6
-2 9 -4 1812.23 359.827 10
2 -9 4 1382.07 318.669 5
2 -9 4 1882.5 328.144 14
-2 9 -4 1722.67 306.744 4
2 -9 5 567.102 178.879 6
-2 9 -5 877.187 255.778 10
2 -9 5 916.382 186.494 2
2 -9 5 762.7 252.951 5
-2 9 -5 634.693 219.439 4
2 -9 5 976.983 252.92 14
-2 9 -6 175.21 157.195 10
2 -9 6 -221.364 201.675 14
2 -9 6 345.76 227.784 5
2 -9 6 180.42 134.46 2
-2 9 -6 224.767 184.816 4
2 -9 6 26.9812 118.602 6
2 -9 7 28374.6 1328.68 14
2 -9 7 28273.1 1199.8 6
2 -9 7 28671.8 1281.56 2
2 -9 7 27703.7 1388.59 5
-2 9 -7 27813.1 1397.48 10
-2 9 -7 28342.3 1328.16 4
2 -9 8 297.365 179.659 14
-2 9 -8 487.008 245.464 13
-2 9 -8 695.126 255.635 10
2 -9 8 378.028 159.87 6
2 -9 8 486.806 262.457 5
-2 9 -8 176.839 172.942 4
2 -9 8 719.833 223.694 2
2 -9 9 2022.83 347.399 2
2 -9 9 2369.33 401.711 14
2 -9 9 2393.96 422.228 5
-2 9 -9 2681.4 409.77 4
-2 9 -9 1912.2 352.38 13
-2 9 -9 2881.6 434.494 10
2 -9 10 890.043 282.48 14
2 -9 10 870.716 254.764 2
-2 9 -10 918.46 263.209 10
-2 9 -10 936.224 285.986 4
-2 9 -10 388.012 224.62 13
2 -9 11 426.311 221.755 14
-2 9 -11 334.878 157.013 13
2 -9 11 51.8974 158.588 2
-2 9 -11 228.064 195.852 10
-2 9 -11 -192.043 228.18 4
2 -9 12 2419.65 420.785 14
-2 9 -12 1501.84 332.031 13
-2 9 -12 2102.57 376.759 10
2 -9 12 1249.6 320.798 2
-2 9 -12 1611.2 377.815 4
-2 9 -13 14302.2 1007.65 13
-2 9 -13 13339.8 1005.16 4
2 -9 13 14062 1036.7 14
2 -9 13 12010.4 982.039 2
-2 9 -14 7767.56 793.986 4
2 -9 14 7837.81 818.166 2
2 -9 14 7925.32 803.477 14
-2 9 -14 8225.01 784.275 13
-2 9 -15 -145.953 236.758 13
2 -8 -9 9445.28 918.327 1
-2 8 8 5717.55 711.131 7
-2 8 8 6391.39 725.309 12
2 -8 -8 5856.32 691.465 1
-2 8 7 17609.2 1189.19 7
-2 8 7 16564.4 1140.69 12
2 -8 -7 15806.8 1120.27 1
2 -8 -6 5023.24 599.919 1
-2 8 6 4284.31 551.744 12
-2 8 6 4911.46 620.431 7
2 -8 -6 4038 572.177 6
-2 8 6 5150.93 530.572 10
-2 8 5 1442.27 345.735 7
-2 8 5 2092.51 385.283 12
2 -8 -5 1725.18 375.536 6
-2 8 5 1762.99 325.329 10
2 -8 -5 1179.17 302.252 1
-2 8 4 3551.17 503.595 7
2 -8 -4 4383.98 546.812 6
-2 8 4 4445.21 493.837 10
-2 8 4 5143.17 550.185 12
2 -8 -4 4345.98 504.456 1
-2 8 3 5132.37 527.331 12
2 -8 -3 4984.01 554.471 6
-2 8 3 5410.42 532.873 10
2 -8 -3 5354.58 562.327 1
-2 8 3 4738.63 549.421 7
-2 8 2 1015.09 254.532 12
2 -8 -2 1130.19 280.157 6
2 -8 -2 989.684 257.48 1
-2 8 2 689.393 252.9 7
-2 8 2 996.004 266.234 10
-2 8 1 524.952 224.207 7
2 -8 -1 758.804 230.297 6
-2 8 1 897.672 250.584 10
-2 8 1 548.63 178.996 12
2 -8 -1 815.396 215.348 1
-2 8 0 15917.7 943.97 10
-2 8 0 15101.3 935.49 7
2 -8 0 14126.5 864.791 1
-2 8 0 15473.9 816.24 12
2 -8 0 15133.6 903.408 6
2 -8 1 805.011 224.935 1
-2 8 -1 463.882 136.338 12
-2 8 -1 527.429 212.678 10
2 -8 1 336.257 185 5
2 -8 1 819.95 243.283 6
2 -8 2 -188.834 193.071 14
-2 8 -2 219.251 94.8194 12
2 -8 2 120.575 181.529 6
2 -8 2 155.393 74.9582 2
-2 8 -2 481.206 214.851 10
2 -8 2 -88.484 218.638 5
-2 8 -3 62646.1 1792.86 12
2 -8 3 58940.8 2024.74 6
2 -8 3 59122.1 2127.41 5
-2 8 -3 60170.5 2185.86 10
-2 8 -3 60127 2069.56 4
2 -8 3 57611 2048.76 14
2 -8 3 63034.1 1847.69 2
-2 8 -4 186850 4424.62 12
2 -8 4 180243 4794.86 6
2 -8 4 176186 4959.99 5
-2 8 -4 170384 4979.54 10
2 -8 4 178246 4656.57 2
-2 8 -4 182729 4899.06 4
2 -8 4 178487 4883.49 14
2 -8 5 21888 1132.65 5
2 -8 5 22961.3 1008.57 6
2 -8 5 21100.1 1069.87 14
-2 8 -5 21095.7 1126.71 10
-2 8 -5 23503.9 1106.73 4
2 -8 5 21611 979.462 2
2 -8 6 23981.3 1020.33 6
2 -8 6 23978 1193.16 5
-2 8 -6 22058.8 1167.32 10
-2 8 -6 23863.4 1134.78 4
2 -8 6 22842.9 1060.94 2
2 -8 6 21849.3 1109.81 14
2 -8 7 22926.6 971.79 6
-2 8 -7 23937.7 1112.11 13
2 -8 7 19608.3 1108.7 5
2 -8 7 21700.3 1107.48 14
-2 8 -7 22449.9 1161.2 10
-2 8 -7 21894.9 1106.78 4
2 -8 7 21376 1059.31 2
-2 8 -8 8284.4 667.569 4
-2 8 -8 8873.03 657.647 13
2 -8 8 8928.33 710.955 5
-2 8 -8 8831.82 694.317 10
2 -8 8 8548.1 659.251 2
2 -8 8 9184.67 693.471 14
2 -8 8 8578.47 537.348 6
2 -8 9 12047 867.848 5
-2 8 -9 11994.3 803.011 13
2 -8 9 13051.4 866.737 14
-2 8 -9 13580.6 869.284 10
-2 8 -9 12145.8 836.781 4
2 -8 9 12183.7 828.935 2
-2 8 -10 1248.11 284.417 10
2 -8 10 1453.97 318.414 14
2 -8 10 1423.86 306.592 2
-2 8 -10 848.988 239.655 13
-2 8 -10 1121.31 297.619 4
-2 8 -11 9477.31 735.563 13
-2 8 -11 9471.31 724.011 10
2 -8 11 9146.81 770.892 2
-2 8 -11 9908.21 792.021 4
2 -8 11 8924.87 762.198 14
-2 8 -12 815.081 278.188 13
2 -8 12 1005.24 303.922 14
-2 8 -12 764.997 246.63 10
2 -8 12 761.705 273.753 2
-2 8 -12 1241.41 309.011 4
2 -8 13 1869.09 397.622 2
2 -8 13 1790.08 402.771 14
-2 8 -13 1390.92 358.566 13
-2 8 -13 1860.04 364 4
2 -8 14 1289.63 349.487 2
2 -8 14 1855.13 424.82 14
-2 8 -14 1709.58 348.211 13
-2 8 -14 1829.68 396.553 4
2 -8 15 5001.99 661.888 2
-2 8 -15 6388.6 697.366 13
-2 8 -15 7046.15 747.865 4
2 -8 15 5730.1 699.839 14
-2 8 -16 916.126 325.483 13
2 -7 -10 7201.26 793.495 1
-2 7 9 15325.5 1138.63 7
-2 7 9 14871.9 1120.26 12
2 -7 -9 15524.9 1145.65 1
-2 7 8 2624.94 442.574 12
2 -7 -8 2920.1 485.374 1
-2 7 8 2601.86 459.345 7
-2 7 7 3356.51 496.769 7
-2 7 7 3599.2 500.304 12
2 -7 -7 3733.34 529.368 1
2 -7 -6 24225.7 1315.13 1
-2 7 6 23357.2 1318.59 7
-2 7 6 24759.9 1328.35 12
-2 7 6 26721.7 1203.28 10
2 -7 -6 23543.4 1327.93 6
2 -7 -5 12683.9 874.414 1
-2 7 5 11095.9 818.523 12
2 -7 -5 11000.5 852.242 6
-2 7 5 12966.4 787.463 10
-2 7 5 10334.6 813.198 7
-2 7 4 18427 1042.33 12
-2 7 4 18707.9 1099.76 7
-2 7 4 20540.1 1033.1 10
2 -7 -4 20320.9 1126.77 6
2 -7 -4 18541.1 1059.4 1
2 -7 -3 6855.35 591.703 1
-2 7 3 6852 573.361 12
-2 7 3 7047.66 572.357 10
2 -7 -3 7061.8 628.448 6
-2 7 3 6368.58 595.395 7
-2 7 2 181.332 134.777 12
-2 7 2 38.5264 119.045 10
2 -7 -2 195.362 197.407 6
-2 7 2 -199.698 209.477 7
2 -7 -2 313.89 206.301 1
2 -7 -1 388.696 178.333 1
-2 7 1 920.149 212.393 12
2 -7 -1 729.132 213.782 6
-2 7 1 619.693 212.634 10
-2 7 1 805.708 229.755 7
2 -7 0 79.4413 107.421 1
-2 7 0 127.042 144.197 7
-2 7 0 46.7289 99.8746 12
2 -7 0 -83.9232 120.736 6
-2 7 0 59.9231 113.047 10
2 -7 0 33.8325 39.2711 2
2 -7 1 2061.53 170.037 9
2 -7 1 2365.05 189.236 2
-2 7 -1 2178.73 251.086 12
2 -7 1 2545.47 320.416 1
2 -7 1 2025.71 285.613 6
2 -7 1 1990.67 307.38 5
-2 7 -1 2466.33 344.576 10
2 -7 2 -183.942 155.579 14
2 -7 2 -2.86466 139.309 5
2 -7 2 18.6787 57.4021 2
-2 7 -2 -72.9937 73.9268 12
2 -7 2 156.365 134.374 6
-2 7 -2 298.021 181.656 10
2 -7 2 23.74 61.224 9
-2 7 -2 -122.376 143.033 4
-2 7 -3 13331.7 805.836 10
2 -7 3 11853.8 679.935 6
-2 7 -3 12860.6 548.757 12
2 -7 3 11579 740.903 5
-2 7 -3 12665.7 742.411 4
2 -7 3 12231.2 601.164 2
2 -7 3 11855.1 721.966 14
2 -7 3 13197.5 559.703 12
2 -7 4 4536.47 389.115 6
-2 7 -4 5540.94 282.363 12
2 -7 4 4604.16 441.932 14
-2 7 -4 4814.66 479.444 10
-2 7 -4 4745.99 449.602 4
2 -7 4 5235.16 494.179 5
2 -7 4 5447.5 399.711 2
2 -7 4 5330.72 244.914 8
2 -7 4 5416.1 249.212 8
2 -7 5 3321.16 386.802 14
2 -7 5 3198.32 324.948 6
2 -7 5 3080.07 396.662 5
-2 7 -5 3811.98 425.162 10
2 -7 5 3494.53 349.612 2
-2 7 -5 3018.83 352.263 4
-2 7 -6 51491 1766.55 13
2 -7 6 51401.1 1841.16 14
2 -7 6 52765.7 1646.32 6
2 -7 6 51220.7 1881.47 5
-2 7 -6 51833.7 1882.46 10
-2 7 -6 50672.6 1834.47 4
2 -7 6 52120.2 1771.49 2
2 -7 7 2290.74 345.45 14
-2 7 -7 2113.52 313.609 13
2 -7 7 2205.62 315.784 2
2 -7 7 2495.23 255.976 6
-2 7 -7 1499.04 288.499 10
2 -7 7 2129.19 342.457 5
-2 7 -7 2359.68 347.482 4
2 -7 8 915.856 237.714 14
2 -7 8 1254.34 255.104 2
-2 7 -8 1041.36 219.546 13
2 -7 8 1064.52 169.366 6
2 -7 8 829.326 259.972 5
-2 7 -8 789.831 227.662 10
-2 7 -8 1077.77 244.051 4
2 -7 9 647.668 234.788 14
2 -7 9 463.751 171.541 2
-2 7 -9 250.088 141.626 13
-2 7 -9 145.222 155.413 10
-2 7 -9 537.036 210.254 4
2 -7 10 2405.39 383.716 2
-2 7 -10 2821.83 373.168 13
-2 7 -10 2177.13 326.161 10
-2 7 -10 2057.63 345.605 4
2 -7 10 2308.51 385.511 14
-2 7 -11 -138.229 156.921 13
2 -7 11 365.788 225.745 14
-2 7 -11 79.826 140.814 10
2 -7 11 62.8968 130.382 2
-2 7 -11 256.144 229.047 4
-2 7 -12 1739.18 334.454 13
-2 7 -12 2139.18 325.661 10
2 -7 12 2015.16 399.526 14
-2 7 -12 1550.38 353.778 4
2 -7 12 1756.12 366.09 2
2 -7 13 50.9059 186.065 2
-2 7 -13 93.5955 170.484 13
2 -7 13 -72.1589 222.505 14
-2 7 -13 280.442 243.218 4
-2 7 -14 414.124 231.103 13
2 -7 14 1074.7 334.742 14
-2 7 -14 994.183 299.176 4
2 -7 14 680.001 250.467 2
2 -7 15 1410.33 374.348 14
2 -7 15 1692.18 376.175 2
-2 7 -15 1887.55 381.749 13
-2 7 -15 1829.56 398.675 4
-2 7 -16 771.703 282.041 13
-2 6 11 5061.66 678.373 7
2 -6 -11 5871.78 723.639 1
-2 6 10 954.618 366.831 7
-2 6 10 1123.85 356.118 12
2 -6 -10 819.894 337.923 1
-2 6 9 150.983 170.106 7
-2 6 9 723.024 277.279 12
2 -6 -9 454.035 207.363 1
-2 6 8 251.654 222.459 7
-2 6 8 201.501 182.159 12
2 -6 -8 154.853 180.087 1
-2 6 7 1000.27 319.8 7
-2 6 7 470.454 257.93 12
2 -6 -7 561.303 244.197 1
-2 6 7 569.181 168.729 10
-2 6 6 12721.5 884.713 12
2 -6 -6 12996.9 899.99 1
-2 6 6 13680.7 923.559 7
2 -6 -5 6047.55 591.212 6
-2 6 5 5932.5 564.14 12
-2 6 5 6205.16 510.927 10
-2 6 5 6625.92 594.661 7
2 -6 -5 6434.65 595.349 1
2 -6 -4 2487.35 369.538 6
2 -6 -4 2479.37 353.116 1
-2 6 4 2922.1 344.781 10
-2 6 4 2512.39 349.014 12
-2 6 4 2443.72 361.687 7
-2 6 3 916.343 217.213 12
2 -6 -3 1189.3 276.481 6
2 -6 -3 1044.2 247.871 1
-2 6 3 948.561 206.359 10
-2 6 3 1095 253.205 7
2 -6 -2 14639.3 830.473 6
-2 6 2 14985.7 844.728 7
-2 6 2 14556.8 779.026 12
2 -6 -2 13393.1 795.722 1
-2 6 2 15284 818.946 10
2 -6 -1 1396.67 121.97 3
-2 6 1 1056.89 229.596 7
-2 6 1 1598.94 235.108 12
2 -6 -1 1606.18 266.361 6
2 -6 -1 832.176 210.037 1
-2 6 1 1098.33 224.69 10
-2 6 0 5762.56 413.94 12
2 -6 0 6292.44 329.174 3
2 -6 0 5478.53 470.545 1
-2 6 0 7170.24 532.927 10
2 -6 0 5636.43 225.346 9
2 -6 0 6123.91 253.927 2
2 -6 0 6295 482.872 6
-2 6 0 5624.56 481.664 7
2 -6 1 11556.8 690.487 5
-2 6 -1 11719 677.623 4
2 -6 1 11430.1 653.867 6
-2 6 -1 10844.2 688.625 10
2 -6 1 13222.3 568.13 3
2 -6 1 12158.8 442.819 9
-2 6 -1 12059 585.15 12
2 -6 1 12262.9 475.411 2
-2 6 -2 92449.6 2427.41 12
2 -6 2 85905.6 2676.3 5
2 -6 2 98847.7 2462.5 12
2 -6 2 88113.1 2586.05 6
-2 6 -2 89072 2736.19 10
-2 6 -2 92084.3 2678.96 4
2 -6 2 91836.6 2351.3 9
2 -6 2 90012.7 2394.84 2
2 -6 2 89425.8 2656.82 14
-2 6 -3 1453.05 148.171 12
2 -6 3 769.212 160.087 6
2 -6 3 856.704 207.43 5
2 -6 3 1328.59 184.182 2
-2 6 -3 1524.95 273.642 10
2 -6 3 1206.07 157.878 9
-2 6 -3 891.312 209.726 4
2 -6 3 1217.66 117.635 8
2 -6 3 1275.02 225.927 14
2 -6 4 7428.54 449.136 6
-2 6 -4 6427.09 532.349 10
-2 6 -4 7531.06 295.661 12
-2 6 -4 7379.99 533.558 4
2 -6 4 6467.63 520.827 5
2 -6 4 7376.21 457.572 2
2 -6 4 7603.36 542.75 14
2 -6 5 89878.6 2395.88 6
2 -6 5 84386.4 2632.1 5
-2 6 -5 86259.7 2646.72 10
2 -6 5 86668.6 2515.48 2
-2 6 -5 87166.1 2515 13
-2 6 -5 86079.1 2615.79 4
2 -6 5 86951.8 2619.42 14
2 -6 6 3257.19 369.152 14
2 -6 6 3287.05 266.153 6
-2 6 -6 2502.22 336.882 10
2 -6 6 2865.8 369.001 5
2 -6 6 2595.13 311.188 2
-2 6 -6 2728.63 334.849 4
-2 6 -6 2844.92 308.843 13
2 -6 7 3356.13 365.062 2
-2 6 -7 3973.32 369.923 13
2 -6 7 2956.67 380.824 5
-2 6 -7 3921.32 411.794 4
2 -6 7 3822.89 276.601 6
-2 6 -7 2976.94 358.836 10
2 -6 7 3350.57 387.91 14
-2 6 -8 7447.11 542.005 13
2 -6 8 7252.34 578.381 2
-2 6 -8 7018.18 541.928 10
2 -6 8 6699.95 570.287 14
-2 6 -8 7491.39 595.352 4
2 -6 9 229.495 176.605 14
2 -6 9 149.096 138.555 2
-2 6 -9 205.237 163.316 13
-2 6 -9 52.2598 122.166 10
-2 6 -9 155.041 192.9 4
2 -6 10 4327.36 495.891 14
-2 6 -10 4006.16 434.959 13
-2 6 -10 4833.07 446.515 10
-2 6 -10 4435.35 507.143 4
2 -6 10 4069.65 478.108 2
-2 6 -11 15770.1 834.673 10
2 -6 11 14909.1 972.353 14
2 -6 11 15157.8 977.025 2
-2 6 -11 13791.6 928.348 4
-2 6 -11 14893.2 883.218 13
2 -6 12 695.413 308.415 14
-2 6 -12 443.505 205.451 13
-2 6 -12 651.127 269.422 4
2 -6 12 311.894 189.05 2
-2 6 -13 9215.52 737.114 13
2 -6 13 8472.25 771.708 14
2 -6 13 7683.64 745.829 2
-2 6 -13 7961.8 741.779 4
-2 6 -14 3675.45 492.872 13
2 -6 14 3510.61 515.976 14
-2 6 -14 4098.61 552.432 4
2 -6 14 3709.22 531.393 2
2 -6 15 2294.12 456.733 14
-2 6 -15 2731.71 449.972 13
2 -6 15 2291.24 463.562 2
-2 6 -15 2569.31 455.642 4
-2 6 -16 7983.56 786.741 13
-2 5 12 -31.0917 311.947 7
-2 5 12 440.643 267.489 12
-2 5 11 10250.5 902.547 12
-2 5 11 7768.51 802.426 7
2 -5 -11 8849.53 861.698 1
2 -5 -10 4863.06 604.622 1
-2 5 10 3166.57 471.921 7
-2 5 10 3512.28 514.602 12
-2 5 9 8928.12 780.132 12
-2 5 9 7210.73 724.744 7
2 -5 -9 8280.16 750.076 1
-2 5 8 33195.8 1590.4 7
-2 5 8 35336.8 1619.25 12
2 -5 -8 34477.5 1612.76 1
-2 5 7 873.015 242.771 7
2 -5 -7 2008.17 373.413 1
-2 5 7 1775.06 253.426 10
-2 5 7 1127.28 289.432 12
-2 5 6 14164.7 905.849 7
-2 5 6 15089.5 910.402 12
-2 5 6 15316.1 763.141 10
-2 5 6 15708.9 575.03 9
2 -5 -6 14341.4 904.454 1
2 -5 -5 53136 1998.68 1
-2 5 5 51184.7 1977.87 7
-2 5 5 52186.7 1969.36 12
-2 5 5 58830.6 1856.57 10
-2 5 5 59556.9 1481.28 9
-2 5 4 1955.12 292.13 12
-2 5 4 2206.05 330.014 7
2 -5 -4 1906.01 293.223 1
2 -5 -4 2170.09 343.168 6
-2 5 4 2162.67 275.278 10
-2 5 4 2411.95 115.535 9
-2 5 3 4394.95 420.703 7
2 -5 -3 4013.6 412.504 1
-2 5 3 3990.99 397.668 12
2 -5 -3 3759.21 403.266 6
-2 5 3 4238.3 381.573 10
2 -5 -2 21650.4 996.064 1
2 -5 -2 20594.7 971.758 6
-2 5 2 23678.4 993.26 10
-2 5 2 20659.2 927.197 12
-2 5 2 22288.9 1001.14 7
-2 5 1 197.982 108.974 12
2 -5 -1 83.7504 46.8157 3
2 -5 -1 164.971 114.326 6
2 -5 -1 142.54 110.989 1
-2 5 1 157.037 123.797 7
-2 5 1 128.212 128.089 10
2 -5 0 1604.23 229.79 6
-2 5 0 1504.19 203.759 12
-2 5 0 1352.96 246.013 10
2 -5 0 1665.49 113.063 2
-2 5 0 1553.23 261.126 7
-2 5 -1 26806.1 921.561 12
2 -5 1 25618.7 1051.01 5
-2 5 -1 26960.2 1097.7 10
2 -5 1 28253.7 944.822 12
-2 5 -1 26483.6 1056.29 4
2 -5 1 26277.3 810.803 2
2 -5 1 26558.9 763.825 9
2 -5 1 26301.2 1003.56 6
2 -5 2 77190.3 2239.29 6
-2 5 -2 83449.6 2125.2 12
2 -5 2 77759.9 2357.77 5
-2 5 -2 75835.8 2397.42 10
-2 5 -2 77578.2 2363.44 4
2 -5 2 79192.8 2139.18 2
2 -5 2 74533.6 2333.9 14
2 -5 2 84731.9 2078.81 8
-2 5 -2 89134.6 2172.27 2
2 -5 3 21953.7 816.518 6
2 -5 3 21529.8 941.099 5
-2 5 -3 21785.2 971.071 10
-2 5 -3 21511.2 936.051 4
2 -5 3 21853.8 815.963 2
-2 5 -3 22294.1 677.941 12
2 -5 3 21846.8 626.782 8
2 -5 3 21222.1 931.318 14
-2 5 -4 40151.9 1006.72 12
2 -5 4 38219.1 1411.3 5
-2 5 -4 40113.6 1304.23 13
-2 5 -4 40093.2 1448.08 10
2 -5 4 41259.1 1228.92 6
-2 5 -4 40155.3 1417.15 4
2 -5 4 39959.6 1323.08 2
2 -5 4 38429.3 1407.81 14
2 -5 5 6026.78 328.126 6
-2 5 -5 5602.5 394.664 13
2 -5 5 5231.63 439.424 5
-2 5 -5 5828.64 455.538 10
-2 5 -5 5104.82 439.855 4
2 -5 5 5712.75 421.401 2
2 -5 5 6032.66 463.072 14
2 -5 6 1859.04 165.442 6
-2 5 -6 1954.76 236.569 13
2 -5 6 1899.83 281.998 14
2 -5 6 1429.42 253.563 5
-2 5 -6 1897.57 267.936 10
2 -5 6 1581.65 251.366 2
-2 5 -6 1604.65 252.822 4
2 -5 7 1093.04 238.967 2
-2 5 -7 998.905 197.021 13
2 -5 7 852.251 209.825 14
-2 5 -7 995.478 202.782 10
2 -5 7 994.224 111.425 6
-2 5 -7 1121.5 230.519 4
2 -5 8 7516.03 587.896 14
-2 5 -8 7433.17 514.389 13
-2 5 -8 8406.47 553.263 10
-2 5 -8 7298.37 581.888 4
2 -5 8 8082.28 600.869 2
-2 5 -9 269.016 56.298 8
-2 5 -9 304.84 132.798 13
-2 5 -9 131.911 140.5 4
2 -5 9 430.986 197.249 14
2 -5 9 1.46614 131.161 2
-2 5 -9 286.866 143.485 10
-2 5 -10 2767.22 343.205 13
-2 5 -10 3373.37 343.263 10
2 -5 10 3924.3 465.874 14
2 -5 10 2857.89 395.851 2
-2 5 -10 3539.61 438.653 4
2 -5 11 1273.34 288.578 2
-2 5 -11 1675.62 295.364 13
-2 5 -11 1529.18 235.499 10
-2 5 -11 698.317 238.425 4
2 -5 11 1978.81 363.998 14
-2 5 -12 370.314 206.453 13
2 -5 12 199.887 162.764 2
2 -5 12 231.618 186.866 14
-2 5 -12 172.895 175.635 4
2 -5 13 -61.1836 141.454 2
-2 5 -13 -71.9104 180.871 13
2 -5 13 104.991 204.159 14
-2 5 -13 5.36582 156.866 4
2 -5 14 1119.85 296.447 2
-2 5 -14 575.494 243.678 13
2 -5 14 852.777 308.084 14
-2 5 -14 762.129 284.147 4
-2 5 -15 1429.9 340.124 13
2 -5 15 1939.61 400.716 14
2 -5 15 1753.05 390.61 2
-2 5 -15 1619.17 384.612 4
-2 5 -16 155.931 204.908 13
-2 5 -17 1256.39 368.528 13
-2 4 12 1070.97 305.717 12
-2 4 12 563.113 246.141 7
2 -4 -12 597.625 299.645 1
-2 4 11 1715.43 367.102 7
-2 4 11 2084.86 415.573 12
2 -4 -11 1463.43 377.779 1
2 -4 -10 3009.54 488.35 1
-2 4 10 2265.96 409.241 7
-2 4 10 2527.54 424.64 12
-2 4 9 3953.33 492.746 12
-2 4 9 3754.63 492.754 7
2 -4 -9 3186.21 463.886 1
-2 4 8 24897.1 931.655 10
-2 4 8 21516.3 1179.68 12
-2 4 8 21284.9 1182.65 7
2 -4 -8 21771.4 1197.01 1
-2 4 7 38015.5 1264.6 10
-2 4 7 33039.2 1485.92 12
-2 4 7 33598.2 1498.7 7
2 -4 -7 34834.9 1529.55 1
-2 4 6 1908.67 323.732 12
-2 4 6 2001.66 246.894 10
2 -4 -6 2459.59 350.519 1
-2 4 6 2244.76 192.197 9
-2 4 5 4640.97 442.359 12
-2 4 5 5486.78 402.23 10
2 -4 -5 5072.7 482.063 1
-2 4 5 4772.82 463.628 7
-2 4 5 5157.92 258.153 9
-2 4 4 48389.2 1695.97 7
-2 4 4 46316.6 1678.9 12
2 -4 -4 45222.9 1687.55 1
-2 4 4 50272.9 1597.24 10
-2 4 4 49793.4 1230.8 9
-2 4 3 7975.13 545.148 7
2 -4 -3 7173.17 516.797 1
2 -4 -3 6441.82 499.325 6
-2 4 3 7314.66 487.199 10
-2 4 3 8128.01 532.021 12
-2 4 2 12948.4 676.327 7
2 -4 -2 13144.8 692.151 1
2 -4 -2 13840.9 699.849 6
-2 4 2 13318.6 666.184 10
2 -4 -2 12398.8 389.171 3
-2 4 2 12352.1 645.467 12
-2 4 1 93714.7 2660.54 7
2 -4 -1 93458 2650.19 6
2 -4 -1 96757 2704.99 1
-2 4 1 98589 2700.06 10
-2 4 1 95450.9 2611.61 12
-2 4 0 6559.52 432.725 7
2 -4 0 6697.92 419.04 6
-2 4 0 6368.33 447.765 10
-2 4 0 6102.59 372.029 12
-2 4 0 6299.27 431.209 4
2 -4 0 6114.02 246.782 2
2 -4 0 7173.88 378.442 8
-2 4 0 6680.31 254.83 2
-2 4 -1 4404.21 284.163 12
2 -4 1 4642.95 325.131 6
2 -4 1 4120.98 340.6 5
-2 4 -1 4233.98 362.328 10
-2 4 -1 4528.45 370.795 4
2 -4 1 4359.8 243.17 2
2 -4 1 4822.91 274.113 8
-2 4 -1 4725.15 250.897 2
2 -4 1 4911.39 310.151 13
2 -4 2 9275.01 436.667 13
2 -4 2 8768.83 503.18 5
-2 4 -2 8990.23 385.582 12
-2 4 -2 8521.48 528.794 10
-2 4 -2 8402.16 515.559 4
2 -4 2 8564.6 410.467 2
-2 4 -2 9353.1 423.837 2
2 -4 2 9115.91 351.309 8
2 -4 2 9360.78 537.306 14
2 -4 2 8924.35 434.164 6
2 -4 3 9146.05 437.247 13
2 -4 3 9084.72 405.7 6
2 -4 3 8933.63 533.189 14
-2 4 -3 8495.41 524.426 10
-2 4 -3 7994.58 504.845 4
2 -4 3 8475.59 443.306 2
-2 4 -3 9448.89 470.192 2
-2 4 -3 8869.55 335.908 12
2 -4 3 7948.29 498.606 5
2 -4 3 8855.31 288.058 8
-2 4 -4 23502 844.561 13
2 -4 4 26537.9 871.621 13
2 -4 4 24076.1 747.203 6
-2 4 -4 23122 967.046 10
2 -4 4 23287 966.74 5
-2 4 -4 22268.3 950.048 4
2 -4 4 22670.4 900.494 2
-2 4 -4 24884.5 649.151 12
2 -4 4 23595.7 974.161 14
-2 4 -5 959.634 159.98 13
2 -4 5 930.653 96.648 6
2 -4 5 908.623 195.324 14
2 -4 5 909.257 206.828 5
-2 4 -5 924.807 179.902 10
2 -4 5 1144.28 195.539 2
-2 4 -5 788.94 192.755 4
2 -4 6 6992.67 511.576 14
2 -4 6 7815.53 282.176 6
-2 4 -6 7437.85 487.597 10
-2 4 -6 7526.56 533.496 4
2 -4 6 7136.88 502.158 2
-2 4 -6 7191.48 438.791 13
2 -4 7 3762.64 389.24 14
-2 4 -7 3424.82 316.593 13
-2 4 -7 3889.43 182.311 12
-2 4 -7 3868.47 341.966 10
2 -4 7 3688.05 165.394 6
2 -4 7 3289.27 366.271 2
-2 4 -7 3885.03 385.694 4
-2 4 -7 3866.57 191.039 8
2 -4 8 74.7939 145.44 14
2 -4 8 164.414 124.717 2
2 -4 8 55.8981 31.269 6
-2 4 -8 203.098 126.287 10
-2 4 -8 67.8474 39.3927 12
-2 4 -8 67.2337 134.063 4
-2 4 -8 125.814 118.392 13
-2 4 -9 7504.17 542.476 13
-2 4 -9 8564.1 388.084 12
-2 4 -9 8535.73 527.748 10
2 -4 9 7206.97 597.208 14
2 -4 9 7281.98 599.163 2
-2 4 -9 7258.6 592.323 4
-2 4 -10 21490.2 1022.23 13
2 -4 10 22060.2 1139.94 14
-2 4 -10 22687.3 908.865 10
2 -4 10 20349.8 1104.63 2
-2 4 -10 19810.9 1072.26 4
-2 4 -11 15374.9 879.509 13
2 -4 11 15210.1 958.178 14
2 -4 11 14041.3 927.255 2
-2 4 -11 13953.6 910.561 4
-2 4 -12 1585.84 318.336 13
2 -4 12 1172.51 293.902 2
2 -4 12 2002.19 379.337 14
-2 4 -12 1651.54 319.036 4
2 -4 13 11918.2 913.646 14
-2 4 -13 12842.3 869.143 13
-2 4 -13 10651.9 857.592 4
2 -4 13 11332.9 891.822 2
2 -4 14 872.701 269.194 14
-2 4 -14 1132.28 308.431 13
2 -4 14 840.969 277.68 2
-2 4 -14 495.869 221.813 4
2 -4 15 3618.28 545.916 2
-2 4 -15 3437.11 513.368 13
2 -4 15 3670.09 574.035 14
-2 4 -15 3757.28 562.378 4
-2 4 -16 317.297 236.987 13
-2 4 -17 854.85 360.247 13
-2 3 13 142.801 170.831 12
2 -3 -13 429.322 286.442 1
-2 3 13 -2.55401 257.838 7
2 -3 -12 577.117 254.836 1
-2 3 12 505.708 336.081 7
-2 3 12 343.741 206.366 12
-2 3 11 5633 640.307 7
2 -3 -11 5551.29 641.101 1
-2 3 11 5888.21 636.963 12
-2 3 10 10024.9 813.098 7
-2 3 10 11255.3 847.866 12
2 -3 -10 11118 855.184 1
-2 3 9 1128.04 182.54 2
-2 3 9 465.736 199.333 7
2 -3 -9 799.744 279.019 1
-2 3 9 1033.82 270.688 12
-2 3 8 29546.4 1387.71 7
-2 3 8 28748.9 1387.44 12
-2 3 8 33711.9 1091.91 10
-2 3 8 32920.4 1093.69 2
2 -3 -8 31793 1436.31 1
-2 3 7 76.0542 157.28 7
-2 3 7 264.46 84.8804 2
2 -3 -7 218.957 145.299 1
-2 3 7 92.7252 38.4445 3
-2 3 7 79.8088 80.0549 10
-2 3 7 391.766 170.636 12
-2 3 6 1289.11 105.688 3
-2 3 6 1315.15 267.313 12
-2 3 6 1128.96 242.055 7
-2 3 6 1401.37 187.021 10
-2 3 6 1708.14 155.971 2
2 -3 -6 1069.85 272.476 1
-2 3 5 409.574 71.3965 2
-2 3 5 327.505 161.026 7
-2 3 5 534.92 132.778 10
-2 3 5 251.154 150.202 12
2 -3 -5 517.061 186.671 1
-2 3 4 3722.57 360.586 7
-2 3 4 3807.96 366.466 12
2 -3 -4 4440.35 391.109 1
2 -3 -4 3548.85 162.642 3
-2 3 4 3649.64 305.014 10
-2 3 4 3761.54 194.113 9
-2 3 4 3526.36 161.538 2
2 -3 -3 1765.99 112.781 3
-2 3 3 1590.13 222.3 7
-2 3 3 1799.61 235.411 12
-2 3 3 1814.5 222.486 10
-2 3 3 1658.42 92.7948 9
2 -3 -3 1520.82 230.059 1
2 -3 -2 54564.7 1369.72 3
2 -3 -2 52541.6 1679.39 1
-2 3 2 52672.4 1621.08 10
-2 3 2 52006.9 1629.8 7
-2 3 2 52341.3 1634.16 12
-2 3 1 38887.2 1233.89 12
2 -3 -1 37071.4 1282.38 1
-2 3 1 37893.4 1229.67 7
-2 3 1 37256.6 1261.35 10
2 -3 -1 39550.8 1204.18 8
-2 3 0 195086 4565.27 6
-2 3 0 179494 4517.11 12
-2 3 0 177652 4629.72 10
-2 3 0 185289 4566.12 7
-2 3 0 179896 4628.56 4
2 -3 0 181773 4280.5 9
-2 3 0 188755 4340.92 2
2 -3 0 191541 4493.47 8
2 -3 1 203.295 73.4642 13
-2 3 -1 291.818 75.656 2
-2 3 -1 27.4785 69.5899 12
2 -3 1 163.165 95.3092 7
-2 3 -1 138.524 74.7988 6
2 -3 1 78.3347 84.7696 6
2 -3 1 -9.17514 103.504 5
-2 3 -1 88.0626 118.014 10
-2 3 -1 93.8261 119.301 4
2 -3 1 135.435 66.3448 8
2 -3 1 81.321 63.6941 2
2 -3 2 2861.62 239.851 7
2 -3 2 2775.37 189.812 13
2 -3 2 2784.54 195.468 6
-2 3 -2 2952.4 197.192 6
2 -3 2 2919.59 261.169 5
-2 3 -2 2481.31 258.835 10
-2 3 -2 3083.8 291.145 4
2 -3 2 2583.27 217.42 2
-2 3 -2 2906.41 224.947 2
2 -3 2 2551.84 265.211 14
-2 3 -2 3041.89 172.106 8
2 -3 2 2475 159.091 8
2 -3 3 9005.88 348.145 6
2 -3 3 8714.4 453.8 2
-2 3 -3 9124.72 391.896 13
2 -3 3 9529.46 501.022 5
-2 3 -3 8880.97 505.733 10
2 -3 3 9950.49 402.726 13
-2 3 -3 10348.1 540.644 4
-2 3 -3 9176.57 464.105 2
-2 3 -3 9489.78 319.69 8
2 -3 3 9351.66 320.084 8
2 -3 3 9100.81 516.813 14
-2 3 -4 1863.25 135.455 12
-2 3 -4 2236.09 249.737 10
-2 3 -4 2173.87 188.069 13
2 -3 4 2272.86 266.581 5
2 -3 4 2246.8 251.614 2
2 -3 4 1814.18 244.559 14
-2 3 -4 1955.4 257.762 4
-2 3 -4 2068.3 121.534 8
-2 3 -5 27672.2 925.709 13
-2 3 -5 28548.6 803.181 12
-2 3 -5 28121.8 1024.31 10
2 -3 5 26350 1043.79 2
-2 3 -5 26824.1 1066.92 4
2 -3 5 26921.4 1072.69 14
-2 3 -5 28840.9 784.903 8
2 -3 6 236.956 116.121 2
-2 3 -6 160.051 105.635 13
-2 3 -6 163.079 94.5435 10
2 -3 6 167.117 149.227 14
-2 3 -6 168.329 53.9473 12
-2 3 -6 79.7951 152.058 4
-2 3 -6 333.41 70.129 8
2 -3 7 90.9 116.43 2
-2 3 -7 7.00519 43.6644 12
-2 3 -7 23.6378 91.7126 10
2 -3 7 -185.977 125.195 14
-2 3 -7 32.2841 130.357 4
-2 3 -7 17.1073 96.7118 13
2 -3 8 21882 1044.77 14
-2 3 -8 23219.9 890.418 10
-2 3 -8 23234.4 794.135 12
2 -3 8 20109.1 1013.93 2
-2 3 -8 20633 1010.28 4
2 -3 9 593.012 223.082 14
2 -3 9 750.361 229.327 2
-2 3 -9 596.715 141.835 10
-2 3 -9 394.429 162.948 4
2 -3 10 12285.4 597.494 12
-2 3 -10 12963.5 599.943 10
2 -3 10 10813.1 766.149 2
-2 3 -10 12200.5 809.445 4
2 -3 10 11863.2 799.853 14
2 -3 11 20200.7 1128.16 14
2 -3 11 20596.9 877.09 12
2 -3 11 20609.6 1137.07 2
-2 3 -11 19215.3 1095.29 4
2 -3 12 25275.2 1323.25 14
2 -3 12 24815.9 1318.6 2
-2 3 -12 23011.4 1266.29 4
2 -3 13 4567.83 561.832 2
2 -3 13 4338.96 556.855 14
-2 3 -13 3532.31 506.831 4
2 -3 14 1807.63 366.548 2
2 -3 14 1733.3 381.256 14
-2 3 -14 938.573 302.428 4
2 -3 15 -94.29 250.149 14
-2 3 -15 505.416 285.418 4
-2 2 14 822.727 323.295 7
-2 2 14 781.756 281.907 12
2 -2 -14 422.642 283.367 1
-2 2 13 221.369 194.436 7
-2 2 13 64.9014 168.362 12
2 -2 -13 239.884 269.769 1
2 -2 -12 14.7771 210.077 1
-2 2 12 358.114 220.687 7
-2 2 12 80.1371 138.569 12
-2 2 11 3207.85 461.894 12
-2 2 11 2591.18 436.919 7
2 -2 -11 3946.72 527.601 1
-2 2 11 3450.06 371.602 2
-2 2 10 52747.9 2094.69 12
-2 2 10 49722.4 2049.24 7
2 -2 -10 55407.4 2140.58 1
-2 2 9 11184.3 471.622 10
-2 2 9 10664.2 587.13 2
-2 2 9 9669.28 734.637 7
-2 2 9 9497.33 740.709 12
2 -2 -9 10110.1 759.256 1
-2 2 8 -69.144 84.5056 2
-2 2 8 226.917 187.468 7
2 -2 -8 -42.5613 115.542 1
-2 2 8 -17.7186 63.5 3
2 -2 -8 52.9024 67.7137 11
-2 2 8 -27.7695 59.3646 10
-2 2 8 153.937 141.856 12
-2 2 7 15508.4 578.897 3
-2 2 7 13254.2 797.798 7
-2 2 7 12436.2 781.426 12
-2 2 7 14348.1 606.139 10
-2 2 7 14746.3 624.898 2
2 -2 -7 13755.1 813.362 1
-2 2 6 677.411 211.891 7
-2 2 6 262.76 142.582 12
-2 2 6 538.657 97.5714 3
-2 2 6 538.388 125.291 10
2 -2 -6 339.84 172.043 1
-2 2 6 469.883 102.271 2
-2 2 5 1414.9 133.448 3
-2 2 5 1002.59 222.783 7
2 -2 -5 1383.44 132.817 3
-2 2 5 1435.64 240.333 12
-2 2 5 1076.33 161.845 10
-2 2 5 1436.23 144.405 2
2 -2 -5 1429.92 239.68 1
-2 2 4 33740.5 1204.87 7
-2 2 4 34732.8 977.409 3
2 -2 -4 32379.6 1223.4 1
-2 2 4 33496.3 1242.96 12
-2 2 4 32472.4 1107.53 10
-2 2 4 34896.6 982.552 9
-2 2 4 35228.5 964.08 2
2 -2 -4 34007 964.901 3
-2 2 3 36664.7 1242.05 7
-2 2 3 38062.4 1210.46 10
2 -2 -3 36860.1 1051.5 3
-2 2 3 39456.9 1022.6 9
2 -2 -3 38116.6 1291.27 1
-2 2 3 38525.8 1012.65 2
-2 2 3 37539.9 1291.01 12
2 -2 -2 4810.64 315.505 7
2 -2 -2 4048 229.195 3
-2 2 2 3660.45 304.33 12
2 -2 -2 4117.83 324.562 1
-2 2 2 3898.35 287.928 7
-2 2 2 4119.14 309.477 10
-2 2 2 4134.96 182.572 9
2 -2 -1 5023.98 299.729 7
-2 2 1 5007.57 306.939 7
2 -2 -1 4988.68 269.19 3
-2 2 1 4292.48 321.158 10
-2 2 1 4956.16 318.285 6
2 -2 -1 4991.56 204.472 9
-2 2 1 4992.89 203.863 9
-2 2 1 4360.61 315.769 12
2 -2 -1 5153.85 316.042 8
-2 2 0 43931.8 1258.68 7
2 -2 0 43615.1 1273.11 5
-2 2 0 42730 1363.89 10
2 -2 0 47314.2 1272.11 7
-2 2 0 42191.5 1337.45 4
-2 2 0 44610.7 1196.55 2
2 -2 0 43677.9 1159.83 9
-2 2 0 47227 1292.21 6
-2 2 0 43040.8 1252.04 8
2 -2 0 45559.1 1268.84 8
2 -2 1 42604.8 1188.17 7
-2 2 -1 42740.9 1233.75 5
-2 2 -1 43540.5 1173.79 6
-2 2 -1 39999.6 1297.14 10
2 -2 1 39696.8 1221.75 5
-2 2 -1 40326.9 1279.66 4
2 -2 1 44966.8 1306.82 4
-2 2 -1 42283.6 1194.56 2
-2 2 -1 41275.6 1163.37 8
2 -2 1 41167 1163.47 8
2 -2 1 41172.7 1154.13 9
2 -2 1 42856.2 1070.07 13
-2 2 -2 178.328 49.0883 13
-2 2 -2 187.214 55.6624 6
2 -2 2 98.4154 119.27 14
-2 2 -2 179.584 95.5976 5
-2 2 -2 215.869 84.7689 2
-2 2 -2 79.1329 102.912 10
2 -2 2 177.926 94.5503 5
2 -2 2 193.866 92.0297 2
-2 2 -2 60.0008 63.4863 8
-2 2 -2 100.646 107.544 4
2 -2 2 78.3184 49.481 8
2 -2 3 2356.68 244.688 14
-2 2 -3 1884.29 221.5 10
2 -2 3 2236.09 231.946 5
2 -2 3 2500.39 237.203 2
-2 2 -3 2381.6 243.35 4
-2 2 -3 2327.35 154.383 13
-2 2 -3 2498.64 167.517 8
-2 2 -4 5208.28 282.586 13
-2 2 -4 5587.56 285.632 12
2 -2 4 5118.56 370.26 2
-2 2 -4 5034.18 348.969 10
-2 2 -4 5429.83 382.989 4
-2 2 -4 5728.8 277.086 8
2 -2 4 4934.03 373.638 14
-2 2 -5 17400.5 610.053 12
-2 2 -5 17264.9 692.839 10
2 -2 5 16442.4 755.654 14
2 -2 5 15711.1 745.743 2
-2 2 -5 16294.9 748.088 4
-2 2 -5 15913.4 591.179 8
-2 2 -6 41489 1211.56 12
2 -2 6 40213.9 1412.43 14
-2 2 -6 41272.5 1275.62 10
2 -2 6 36937.3 1389.98 2
-2 2 -6 37332.4 1377.44 4
-2 2 -7 53699.9 1573.72 10
2 -2 7 51440.5 1765.5 14
2 -2 7 50648.2 1772.16 2
-2 2 -7 48542 1726.7 4
-2 2 -7 55166.8 1561.01 12
2 -2 8 15537.8 844.771 14
-2 2 -8 16673.4 675.325 10
2 -2 8 15751.5 681.885 12
2 -2 8 14746.2 835.995 2
-2 2 -8 14906.3 827.508 4
2 -2 9 57216.2 1764.21 12
-2 2 -9 60842.3 1690.21 10
2 -2 9 55502.7 1997.31 14
2 -2 9 54457.6 1995.64 2
-2 2 -9 54875.8 1981.19 4
2 -2 10 20768.7 1111.04 14
2 -2 10 22554.6 948.583 12
-2 2 -10 24164.9 825.398 10
2 -2 10 20034.3 1101.46 2
-2 2 -10 20706.6 1104.62 4
2 -2 11 1345.77 289.758 14
2 -2 11 1427.98 227.546 12
2 -2 11 1257.9 306.697 2
-2 2 -11 1061.39 277.464 4
2 -2 12 6241.81 627.599 14
2 -2 12 5935.48 508.233 12
2 -2 12 7506.52 683.062 2
-2 2 -12 6051.51 618.918 4
2 -2 13 172.064 196.049 14
2 -2 13 154.013 155.092 2
-2 2 -13 25.3724 172.749 4
2 -2 14 428.289 254.317 14
2 -2 14 -69.1021 170.417 2
-2 2 -14 265.512 237.493 4
2 -2 15 2344.08 446.9 2
2 -2 15 2487.64 464.123 14
-2 2 -15 2390.58 476.989 4
-2 1 15 1014.84 349.232 12
-2 1 14 13375.4 1088.89 7
-2 1 14 11701 965.432 12
2 -1 -14 14928.4 1124.36 1
-2 1 13 5312.26 510.136 2
-2 1 13 5226.15 633.611 7
2 -1 -13 4726.54 603.106 1
-2 1 12 7709.96 712.782 12
-2 1 12 9350.31 655.085 2
2 -1 -12 8328.16 758.195 1
-2 1 11 724.761 257.249 12
2 -1 -11 550.139 226.349 1
-2 1 11 367.845 169.286 2
-2 1 10 23307.8 1010.49 2
2 -1 -10 20788.6 1147.2 1
-2 1 10 21459.2 1149.17 12
-2 1 9 5240.78 513.274 12
-2 1 9 6620.5 330.998 10
-2 1 9 5768.3 438.951 2
2 -1 -9 5121.36 524.682 1
-2 1 8 18782.2 991.403 12
-2 1 8 20010.1 723.429 10
-2 1 8 21361.6 869.019 2
2 -1 -8 20992.9 1027.35 1
-2 1 7 28337.8 921.142 10
-2 1 7 26794.3 1173.31 12
-2 1 7 26965.7 988.35 2
2 -1 -7 26977.3 1165.51 1
-2 1 6 -110.216 107.908 12
-2 1 6 41.7636 65.5907 2
2 -1 -6 -23.1432 70.8006 3
-2 1 6 123.222 77.8461 10
-2 1 6 -47.3003 57.9742 3
2 -1 -6 -84.5551 142.88 1
2 -1 -5 10468.7 600.848 1
2 -1 -5 10075 462.782 3
-2 1 5 11256.9 482.422 3
-2 1 5 9843.38 590.13 12
-2 1 5 11669.7 498.62 9
-2 1 5 10627.2 479.512 2
2 -1 -4 130163 3516.38 1
-2 1 4 131776 3464.99 7
-2 1 4 142759 3346.67 3
-2 1 4 131564 3550.07 12
2 -1 -4 128608 3310.8 3
-2 1 4 140538 3322.69 9
-2 1 4 131218 3311.55 2
-2 1 3 4046 252.823 3
2 -1 -3 3681.66 304.131 1
2 -1 -3 3515.37 235.365 3
-2 1 3 3445.19 282.676 7
-2 1 3 3937.62 323.42 12
-2 1 3 3725.96 223.255 9
-2 1 2 31434.8 971.244 7
2 -1 -2 30840 956.246 3
2 -1 -2 29857.2 1038.89 1
2 -1 -2 32496.2 1046.41 4
2 -1 -2 30845 895.632 9
-2 1 2 34180.3 980.274 3
-2 1 2 32824.6 913.455 9
-2 1 2 30196.5 1033.91 8
-2 1 1 20425.1 654.066 7
2 -1 -1 19792.2 696.399 3
2 -1 -1 22279.9 757.577 4
2 -1 -1 18939.7 634.569 9
-2 1 1 20431.8 644.959 9
-2 1 1 20318.7 728.026 8
2 -1 -1 22553.6 749.823 8
2 -1 0 116748 2787.41 7
-2 1 0 111317 2919.99 4
2 -1 0 119798 2941.72 4
2 -1 0 112507 2839.49 9
-2 1 0 119968 2853.02 9
-2 1 0 115837 2787.46 7
-2 1 0 114213 2896.55 8
2 -1 0 113242 2821.32 5
2 -1 0 119956 2909.36 8
2 -1 1 6223.33 254.564 7
2 -1 1 6881.49 359.361 4
-2 1 -1 6964.92 320.266 5
2 -1 1 6492.37 313.801 5
-2 1 -1 6398.33 344.473 2
-2 1 -1 6252.55 348.24 4
2 -1 1 6347.33 325.82 9
-2 1 -1 6318.37 323.665 8
2 -1 1 6508.47 324.961 8
2 -1 1 6312.19 353.473 14
-2 1 -2 169562 3993.74 13
-2 1 -2 177452 4211.92 5
2 -1 2 168290 4258.03 14
-2 1 -2 184616 4296.01 2
-2 1 -2 167104 4248.24 4
2 -1 2 184115 4276.22 4
2 -1 2 170907 4239.85 9
-2 1 -2 176175 4273.51 14
-2 1 -2 170520 4168.26 8
2 -1 2 178330 4185.96 8
-2 1 -3 26081.2 918.716 4
-2 1 -3 28931.5 925.765 5
2 -1 3 25374 942.91 2
2 -1 3 26005.3 925.734 14
-2 1 -3 26482.2 844.141 8
2 -1 4 3348.52 295.726 14
-2 1 -4 3653.22 265.325 12
2 -1 4 3161.78 305.874 2
-2 1 -4 3669.86 303.289 4
-2 1 -4 3631.4 253.202 8
2 -1 5 8034.71 499.865 14
-2 1 -5 8663.91 438.194 12
2 -1 5 7381.71 489.649 2
-2 1 -5 7962.09 482.803 4
2 -1 6 907.738 199.814 2
2 -1 6 1317.82 232.759 14
-2 1 -6 1198.92 204.546 4
2 -1 7 2674.85 266.452 12
-2 1 -7 3027.08 248.127 10
2 -1 7 2172.23 291.465 2
-2 1 -7 2773.89 320.931 4
2 -1 7 2802.62 332.611 14
2 -1 8 3279.94 361.097 14
2 -1 8 3313.27 315.645 12
2 -1 8 2973.06 360.056 2
-2 1 -8 3597.3 266.016 10
-2 1 -8 3124.56 365.352 4
2 -1 9 17352.5 837.592 12
2 -1 9 17846.8 955.083 14
-2 1 -9 18767.1 688.937 10
2 -1 9 16709.2 940.853 2
-2 1 -9 17366.4 949.244 4
2 -1 10 7438.29 624.908 14
2 -1 10 6795.29 515.863 12
2 -1 10 7406.07 624.53 2
-2 1 -10 6210.26 584.03 4
2 -1 11 15604.1 840.815 12
2 -1 11 14036.5 926.546 2
-2 1 -11 13038.1 894.737 4
2 -1 11 15568.1 969.221 14
2 -1 12 145.621 165.558 14
2 -1 12 558.803 241.3 2
2 -1 12 321.839 174.56 12
-2 1 -12 -83.1634 140.018 4
2 -1 13 632.651 271.122 14
2 -1 13 932.57 226.728 12
-2 1 -13 1454 383.223 4
2 -1 13 909.587 286.255 2
2 -1 14 106.548 209.45 14
2 -1 14 145.955 172.805 2
-2 1 -14 -24.7572 221.278 4
2 -1 15 4455.44 604.219 2
-2 1 -15 5271.93 676.621 4
-2 0 16 -17.6617 194.124 12
-2 0 15 2940.09 495.856 12
2 0 -15 5626.12 707.065 1
-2 0 14 1097.77 287.179 2
-2 0 14 454.219 220.679 12
2 0 -14 828.807 283.917 1
-2 0 13 290.152 182.291 2
-2 0 13 178.385 144.768 12
2 0 -13 402.659 223.158 1
-2 0 12 282.234 169.05 2
-2 0 12 241.296 194.96 12
2 0 -12 124.193 215.519 1
-2 0 11 7328.55 642.744 12
-2 0 11 7566.57 576.078 2
2 0 -11 7290.4 656.675 1
2 0 -10 1375.73 324.931 1
2 0 -10 1160.32 133.489 11
-2 0 10 1358.81 238.135 2
-2 0 10 1052.59 246.087 12
-2 0 9 5653.96 517.471 12
-2 0 9 6716.41 342.247 10
2 0 -9 6354.77 346.905 11
-2 0 9 6014.23 462.366 2
2 0 -9 5497.77 510.036 1
-2 0 8 524.441 211.082 12
2 0 -8 453.037 197.015 1
-2 0 8 543.804 145.054 2
2 0 -7 734.14 149.071 3
2 0 -7 495.699 167.061 1
-2 0 7 681.17 180.767 12
-2 0 7 775.483 158.645 2
2 0 -6 8275.07 461.593 3
-2 0 6 8730.65 561.092 12
-2 0 6 8795.58 482.196 2
2 0 -6 8138.95 527.242 1
2 0 -5 29409.9 1005.92 3
-2 0 5 30949.4 1028.11 3
-2 0 5 29463.4 1135.1 12
2 0 -5 31405.2 1109.49 1
-2 0 5 30957.2 1029.84 2
-2 0 4 303.999 96.7577 3
-2 0 4 473.946 110.622 9
2 0 -4 260.712 111.529 1
-2 0 4 390.501 166.287 8
2 0 -4 320.55 108.506 3
-2 0 3 17460.5 656.366 3
2 0 -3 16178.1 635.004 3
2 0 -3 15625.9 635.512 1
-2 0 3 16844.2 654.063 1
2 0 -3 16533.9 612.538 9
-2 0 3 16905 622.92 9
-2 0 3 16012.9 686.256 8
2 0 -2 115877 3051.58 3
-2 0 2 126112 3079.1 3
2 0 -2 119302 3035.36 1
2 0 -2 123571 3043.1 4
-2 0 2 126516 3031.75 9
2 0 -2 117984 3007.79 9
-2 0 2 114766 3093.69 8
2 0 -2 125566 3120.97 8
2 0 -1 37870.8 992.437 13
-2 0 1 37220.2 982.531 7
2 0 -1 37576.8 1145.49 3
-2 0 1 37884.7 1156.93 3
2 0 -1 37256.4 951.406 5
2 0 -1 39118 1101.87 4
2 0 -1 36705.7 1103.21 9
-2 0 1 38635.4 1113.78 9
-2 0 1 35438.3 1148.11 8
2 0 -1 40162.3 1170.51 8
2 0 0 154707 3579.64 13
2 0 0 151273 3832.51 3
-2 0 0 152194 3628.29 5
-2 0 0 152599 3744.18 4
2 0 0 159045 3751.65 4
2 0 0 151139 3787.05 9
-2 0 0 160725 3806.98 9
-2 0 0 150314 3810.22 8
2 0 0 163285 3832.37 8
-2 0 -1 135548 3131.62 13
-2 0 -1 136559 3245.51 5
-2 0 -1 128508 3298.97 4
2 0 1 138173 3314.79 4
2 0 1 127827 3366.26 9
-2 0 -1 142458 3393.28 9
-2 0 -1 131652 3349.6 8
2 0 1 139189 3373.68 8
2 0 1 132865 3314.35 14
-2 0 -2 9352.99 428.86 4
2 0 2 9705.27 478.683 9
2 0 2 9809.11 439.352 4
-2 0 -2 9787.48 456.898 8
2 0 2 9529.65 438.097 14
-2 0 -2 10012.2 446.266 14
-2 0 -3 92.7254 73.3246 12
-2 0 -3 -81.1201 104.385 8
2 0 3 109.906 90.5044 14
2 0 3 79.5978 121.299 9
-2 0 -3 -0.1155 70.7874 14
-2 0 -3 -35.1665 83.9651 4
2 0 3 31.2558 74.326 4
-2 0 -4 42417 1132.93 6
-2 0 -4 40768.6 1304.92 4
2 0 4 40849.6 1364.76 9
2 0 4 41316.3 1313.33 14
-2 0 -4 41671.5 1301.29 8
-2 0 -5 17863.4 584.579 6
2 0 5 17254.9 756.723 14
2 0 5 15158.7 773.331 2
-2 0 -5 16535.6 741.701 4
2 0 6 5935.59 447.102 14
-2 0 -6 6237.13 317.088 6
2 0 6 6081.92 415.549 12
2 0 6 5634.5 457.605 2
-2 0 -6 5564.48 428.066 4
-2 0 -7 788.236 124.39 6
2 0 7 323.766 114.84 12
2 0 7 611.395 181.952 14
-2 0 -7 822.302 205.314 4
2 0 7 621.912 177.776 2
2 0 8 1327.56 223.91 12
2 0 8 1318.84 264.347 2
2 0 8 1203.32 253.251 14
2 0 8 1501.37 178.271 11
-2 0 -8 1170.68 233.656 4
2 0 9 -8.71879 56.8907 11
2 0 9 -40.4624 149.691 2
-2 0 -9 48.9036 64.6205 10
2 0 9 -174.508 181.526 14
2 0 9 -31.4989 117.183 12
-2 0 -9 113.959 159.443 4
2 0 10 1751.17 324.883 14
2 0 10 1826.94 290.059 12
-2 0 -10 1959.32 334.107 4
2 0 10 2123.77 354.031 2
2 0 11 14630.5 952.952 14
2 0 11 15755.8 899.213 12
2 0 11 13526.4 920.551 2
-2 0 -11 13720.3 922.351 4
2 0 12 315.895 238.822 14
2 0 12 362.119 180.498 12
-2 0 -12 451.683 240.765 4
2 0 12 348.304 207.782 2
2 0 13 266.485 182.723 12
2 0 13 48.9044 155.84 2
-2 0 -13 -183.246 204.776 4
2 0 14 224.599 167.883 12
2 0 14 52.375 204.561 2
-2 0 -14 321.415 245.992 4
2 0 15 4959.72 622.731 2
-2 0 -15 5670.72 700.566 4
-2 -1 16 1157.55 330.967 2
-2 -1 16 682.987 267.701 12
-2 -1 15 223.945 164.254 2
-2 -1 15 475.594 202.954 12
2 1 -15 557.943 240.718 1
-2 -1 14 884.414 240.677 2
-2 -1 14 949.803 282.697 12
2 1 -14 903.904 336.39 1
-2 -1 13 179.276 159.041 2
2 1 -13 691.279 258.02 1
-2 -1 13 380.289 173.807 12
-2 -1 12 307.712 170.021 2
-2 -1 12 435.57 202.381 12
2 1 -12 305.433 189.77 1
-2 -1 11 70.2833 113.56 2
-2 -1 11 -30.1487 157.29 12
-2 -1 10 584.73 212.093 12
-2 -1 10 784.787 204.393 2
2 1 -10 393.849 87.3774 11
2 1 -10 493.461 212.669 1
-2 -1 9 1470.09 252.151 2
2 1 -9 1691.5 189.237 11
-2 -1 9 2037.21 308.142 12
2 1 -9 2352.89 334.722 1
-2 -1 8 4166.01 409.376 12
2 1 -8 5025.09 330.524 11
2 1 -8 4223.79 380.305 3
2 1 -8 3907.91 377.033 1
-2 -1 8 4125.59 384.139 2
2 1 -7 18192.3 807.872 3
-2 -1 7 17957.3 869.296 12
2 1 -7 18988.4 727.063 11
2 1 -7 17808.4 829.507 1
-2 -1 7 17746 812.854 2
-2 -1 6 89417.1 2616.11 12
2 1 -6 94196.7 2468.28 11
2 1 -6 90779.2 2540.19 3
-2 -1 6 88999.6 2619.63 8
2 1 -6 92402 2557.06 1
-2 -1 6 92356.3 2556.59 2
2 1 -5 63041.7 1862.91 3
-2 -1 5 61779.5 1920.49 8
2 1 -5 66333.2 1857.87 1
-2 -1 5 64597 1882.37 2
-2 -1 4 18789.3 696.22 1
2 1 -4 18768.1 702.086 1
-2 -1 4 18202.5 774.67 8
2 1 -4 18140.6 740.873 3
2 1 -3 763.715 155.433 3
-2 -1 3 407.096 100.479 1
2 1 -3 755.21 151.029 9
-2 -1 3 684.748 136.551 9
2 1 -3 779.678 131.927 13
2 1 -3 658.652 114.127 1
-2 -1 3 858.083 189.767 8
2 1 -2 22761.7 830.271 3
2 1 -2 23243.3 712.545 1
2 1 -2 21891.8 726.083 13
2 1 -2 24166.7 726.347 4
2 1 -2 22099.8 804.128 9
-2 -1 2 23591.9 818.763 9
-2 -1 2 21034.5 821.789 8
2 1 -1 81294.3 2121.72 13
-2 -1 1 88863 2312.38 3
-2 -1 1 88826.4 2137.99 13
2 1 -1 87416.3 2121.37 4
2 1 -1 80763.8 2255.19 9
-2 -1 1 90899.1 2289.91 9
2 1 -1 83348.9 2287.9 3
-2 -1 1 80800 2275.4 8
-2 -1 0 29581.2 827.142 13
2 1 0 27487.4 976.654 3
2 1 0 28552.1 830.857 14
-2 -1 0 28325.3 822.65 4
2 1 0 28267.4 968.008 9
2 1 0 29683.4 829.177 4
-2 -1 0 31702.9 993.017 9
-2 -1 0 27443.9 962.387 8
2 1 0 30552.9 989.245 8
2 1 1 6726.08 314.491 14
2 1 1 7907.25 431.903 3
-2 -1 -1 6572.21 311.759 4
2 1 1 7068.6 415.157 9
2 1 1 7993.17 330.691 4
-2 -1 -1 7435.46 413.166 8
-2 -1 -1 7559.96 329.424 14
2 1 2 27886.3 857.005 4
2 1 2 27086.2 747.486 7
2 1 2 27167.3 885.614 1
2 1 2 26676.4 850.971 14
2 1 2 26813.1 973.174 9
-2 -1 -2 26547.6 846.494 4
-2 -1 -2 26768.3 952.346 8
-2 -1 -2 27935.7 863.456 14
2 1 3 217.532 112.493 14
2 1 3 439.702 100.876 7
2 1 3 62.8995 82.8122 1
-2 -1 -3 65.3342 106.874 8
2 1 3 81.7209 123.222 9
-2 -1 -3 163.856 82.7705 14
-2 -1 -3 112.279 89.7612 4
2 1 4 40645.4 1271.58 14
-2 -1 -4 40914.7 1196.47 6
2 1 4 37851.9 1347.97 9
-2 -1 -4 38860.8 1257.81 4
2 1 5 6887.06 444.151 14
-2 -1 -5 6830.78 377.02 6
2 1 5 7357.58 411.766 11
2 1 5 6341.34 465.002 9
-2 -1 -5 6498.92 431.312 4
2 1 6 607.623 170.083 14
-2 -1 -6 575.508 118.591 6
2 1 6 460.793 128.2 12
2 1 6 503.079 114.71 11
2 1 6 734.897 200.241 9
-2 -1 -6 350.01 137.432 4
2 1 7 15032.3 811.273 12
2 1 7 15281.5 810.961 14
2 1 7 16155.1 867.26 9
-2 -1 -7 16132 822.387 4
-2 -1 -7 16870.9 705.775 6
2 1 7 17201.4 676.195 11
2 1 8 7211.72 556.948 14
2 1 8 5844.06 502.731 12
-2 -1 -8 5996.14 409.915 6
2 1 8 7013.41 386.368 11
2 1 8 6570.78 559.034 2
2 1 8 5709.71 519.141 9
-2 -1 -8 6969.42 551.33 4
2 1 9 -19.6991 191.598 14
2 1 9 484.626 186.601 12
2 1 9 227 175.499 2
-2 -1 -9 224.555 142.653 4
2 1 10 7569.29 644.895 14
2 1 10 7408.12 615.275 12
2 1 10 7404.29 639.559 2
2 1 10 8119.76 673.469 9
-2 -1 -10 7715.71 648.634 4
2 1 11 1245.85 265.785 12
2 1 11 1900.66 365.324 9
2 1 11 1467.98 320.932 2
-2 -1 -11 1342.69 303.292 4
2 1 12 4740.18 552.766 7
2 1 12 4325.46 514.119 12
2 1 12 3994.24 518.266 9
-2 -1 -12 4132.28 523.803 4
2 1 13 1158.07 330.785 7
2 1 13 887.644 264.352 12
2 1 13 922.321 289.411 9
-2 -1 -13 635.338 249.893 4
2 1 14 167.799 187.873 12
2 1 14 135.388 224.269 7
2 1 14 488.577 335.295 9
-2 -1 -14 -33.8102 186.511 4
2 1 15 396.82 221.414 12
2 1 15 284.066 274.195 7
-2 -2 17 277.015 221.731 2
-2 -2 16 1963.23 388.18 12
-2 -2 16 2549.5 433.735 2
2 2 -16 2370.65 457.58 1
-2 -2 15 438.887 244.809 12
2 2 -15 -68.0885 212.931 1
-2 -2 15 360.866 217.181 2
2 2 -14 6654.45 685.399 1
-2 -2 14 6041.13 607.242 2
-2 -2 14 5281.46 579.252 12
-2 -2 13 5190.03 546.591 12
2 2 -13 4557.51 539.742 1
-2 -2 13 4997.38 542.511 2
-2 -2 12 6685.03 602.347 12
2 2 -12 7821.54 672.061 1
-2 -2 12 6588.37 600.752 2
-2 -2 11 4940.19 508.058 12
2 2 -11 4779.45 498.755 1
-2 -2 11 5030.41 499.239 2
-2 -2 10 422.745 168.682 2
2 2 -10 468.557 123.672 11
-2 -2 10 473.842 173.881 12
2 2 -10 387.369 206.483 1
-2 -2 9 3285.18 378.252 12
2 2 -9 2446.45 326.195 3
2 2 -9 3400.61 287.462 11
-2 -2 9 3369.63 379.716 2
2 2 -9 3214.45 360.068 1
2 2 -8 78.1788 119.315 3
-2 -2 8 17.7427 114.2 12
2 2 -8 -12.1703 75.236 11
-2 -2 8 10.1601 120.085 2
2 2 -8 -141.926 141.367 1
2 2 -7 3962.01 311.446 11
2 2 -7 3093.84 329.117 3
2 2 -7 3527.33 325.689 1
-2 -2 7 3402.31 356.163 8
-2 -2 7 3258.56 338.255 2
2 2 -6 7513.58 498.69 13
2 2 -6 8332.95 474.533 11
2 2 -6 8251.67 462.422 1
-2 -2 6 7305.02 497.394 8
2 2 -6 8012.9 508.314 3
-2 -2 6 8059.03 519.2 2
-2 -2 5 36854 1126.53 1
2 2 -5 34185.9 1206.34 13
2 2 -5 33887.3 1218.1 3
2 2 -5 35836.4 1198.81 11
-2 -2 5 34225.2 1229.59 8
2 2 -5 35843.8 1117.62 1
2 2 -4 51713.3 1598.54 13
2 2 -4 51662.8 1656.37 3
-2 -2 4 55835.6 1496.82 1
2 2 -4 55376.1 1659.3 11
2 2 -4 57094.2 1403.23 5
2 2 -4 51152.8 1631.46 9
-2 -2 4 50503.1 1647.21 8
2 2 -4 54445.8 1488.46 1
2 2 -4 55922.9 1526.65 14
2 2 -3 47257.6 1514.55 3
2 2 -3 47548.5 1432.36 13
2 2 -3 49284.4 1520.95 11
2 2 -3 49276.5 1202.79 5
2 2 -3 48079.4 1500.4 9
-2 -2 3 48534.3 1514.65 8
2 2 -3 51059.1 1306.34 1
-2 -2 2 2644.06 222.022 13
2 2 -2 2693.11 147.094 1
2 2 -2 2962.54 288.533 11
2 2 -2 2670.48 226.988 13
2 2 -2 2630.84 152.683 4
2 2 -2 2376.06 248.06 9
2 2 -2 2943.27 286.987 3
-2 -2 2 2635.29 265.746 8
2 2 -1 3600.76 305.514 3
2 2 -1 4348.29 342.657 11
-2 -2 1 4090.48 258.022 13
2 2 -1 3884.33 260.404 13
2 2 -1 3561.8 292.048 9
2 2 -1 3973.38 170.09 4
2 2 -1 3887.82 169.281 14
-2 -2 1 3757.14 309.829 8
2 2 0 85244.7 2050.64 14
-2 -2 0 86220.6 2085.17 7
-2 -2 0 88489.7 2226.86 13
2 2 0 81538.6 2338.21 3
2 2 0 89358.3 2094.57 1
-2 -2 0 83549.3 2048.74 4
2 2 0 79282.2 2326.56 9
2 2 0 86036.5 2053.39 4
2 2 0 84984.6 2361.69 11
-2 -2 0 83206.6 2340.31 8
2 2 1 439.093 138.285 3
-2 -2 -1 366.212 146.495 8
-2 -2 -1 425.884 76.0721 14
2 2 1 400.913 75.792 14
2 2 1 420.465 165.384 11
-2 -2 -1 426.208 77.1276 7
2 2 1 451.468 74.1088 7
2 2 1 227.023 129.17 9
-2 -2 -1 385.339 79.0178 4
2 2 1 436.957 94.4631 1
2 2 2 4729.85 255.716 7
2 2 2 4774.98 356.168 11
2 2 2 4880.79 274.736 14
-2 -2 -2 4844.78 272.91 14
2 2 2 4083.76 354.74 9
2 2 2 4919.07 302.967 1
-2 -2 -2 4594.79 264.356 4
2 2 2 4458.58 351.635 3
-2 -2 -2 4683.8 361.025 8
2 2 3 591.257 102.245 7
2 2 3 645.562 114.199 14
2 2 3 718.427 178.321 11
2 2 3 615.222 161.081 3
2 2 3 380.116 138.38 9
-2 -2 -3 737.156 194.57 8
-2 -2 -3 662.393 124.555 14
2 2 3 735.64 148.747 1
-2 -2 -3 687.367 129.265 4
2 2 4 21288.3 815.624 14
2 2 4 21483.3 782.754 7
-2 -2 -4 20862.5 818.64 6
2 2 4 21096.6 840.375 11
2 2 4 21210.8 923.924 9
-2 -2 -4 20633.6 803.467 4
2 2 5 1159.81 197.893 14
2 2 5 1299.3 192.036 7
2 2 5 906.771 212.631 12
-2 -2 -5 1090.26 176.579 6
2 2 5 1095.67 163.558 11
2 2 5 1138.26 228.11 9
-2 -2 -5 1207 193.401 4
2 2 6 5534.35 433.185 14
2 2 6 5845.37 416.667 7
2 2 6 4981.68 451.256 12
-2 -2 -6 5484.39 395.876 6
2 2 6 6137.42 397.712 11
2 2 6 5825.04 482.015 9
-2 -2 -6 5658.96 432.616 4
2 2 7 9083.89 586.168 7
2 2 7 9003.84 642.451 12
2 2 7 10208 515.083 11
-2 -2 -7 8463.09 610.779 1
2 2 7 9347.14 649.35 9
-2 -2 -7 8898.11 599.001 4
-2 -2 -7 10587.6 585.403 6
2 2 7 9325.89 609.222 14
2 2 8 -20.8137 138.939 7
2 2 8 -104.876 134.573 12
-2 -2 -8 178.425 131.586 6
2 2 8 132.899 93.7292 11
-2 -2 -8 -48.4234 118.964 1
2 2 8 -32.8479 153.577 9
-2 -2 -8 19.9304 132.263 4
2 2 9 6860.59 563.299 7
2 2 9 5823.22 559.508 12
-2 -2 -9 6517.51 499.75 6
2 2 9 6356 573.95 9
-2 -2 -9 6349.74 562.947 4
2 2 10 1542.83 301.664 12
-2 -2 -10 2218.28 369.777 4
2 2 10 2284.7 356.791 7
2 2 10 1805.86 340.507 9
2 2 11 7713.9 683.927 7
2 2 11 8783.01 744.075 12
2 2 11 8597.07 745.102 9
-2 -2 -11 9616.92 764.431 4
2 2 12 -163.085 177.775 12
2 2 12 46.3206 163.2 9
2 2 12 397.054 241.539 7
-2 -2 -12 178.39 198.277 4
2 2 13 524.186 261.215 12
2 2 13 923.76 292.787 7
2 2 13 508.476 288.679 9
-2 -2 -13 799.464 318.256 4
2 2 14 751.852 340.477 7
2 2 14 182.433 205.066 12
2 2 14 630.075 275.981 9
-2 -2 -14 230.57 231.558 4
-2 -3 17 101.941 203.442 2
2 3 -16 10107.2 903.029 1
-2 -3 16 10321.7 899.236 2
2 3 -15 219.456 229.967 13
-2 -3 15 -225.813 210.838 2
-2 -3 15 -112.576 169.991 12
2 3 -15 -119.679 164.523 1
-2 -3 14 2851.16 417.231 12
-2 -3 14 2045.38 390.111 2
2 3 -14 2648.64 424.979 1
-2 -3 13 -148.775 165.233 2
-2 -3 13 150.534 138.613 12
2 3 -13 -163.078 195.818 1
-2 -3 12 343.936 192.947 12
2 3 -12 152.159 160.689 13
-2 -3 12 105.399 132.449 2
2 3 -12 37.6609 143.344 1
2 3 -11 3228.4 436.514 13
-2 -3 11 3945.56 455.114 2
2 3 -11 4226.84 331.008 11
2 3 -11 4415.69 465.918 1
-2 -3 11 3279.87 402.112 12
-2 -3 10 456.92 198.979 2
2 3 -10 483.358 210.786 13
-2 -3 10 696.701 196.627 12
2 3 -10 377.23 103.253 11
2 3 -10 848.248 204.318 1
2 3 -9 1397.67 262.135 13
2 3 -9 985.007 223.977 3
-2 -3 9 851.409 223.291 12
-2 -3 9 1490.69 274.006 2
2 3 -9 1133.03 196.602 11
2 3 -9 1459.02 234.578 1
2 3 -8 2114.4 314.255 13
2 3 -8 2547.93 325.049 3
-2 -3 8 2489.49 337.161 2
2 3 -8 2691.61 275.322 11
2 3 -8 2890.11 301.156 1
-2 -3 8 2835.52 323.259 8
2 3 -7 2023.86 285.081 13
2 3 -7 2117 286.197 3
2 3 -7 2192.64 265.681 11
-2 -3 7 2162.13 304.59 2
2 3 -7 2674.59 261.747 1
-2 -3 7 2503.37 302.303 8
2 3 -6 603.294 169.337 13
2 3 -6 531.135 168.855 3
-2 -3 6 616 127.04 1
2 3 -6 938.304 179.238 11
2 3 -6 486.69 98.0051 5
-2 -3 6 336.256 143.447 2
2 3 -6 596.808 122.255 1
-2 -3 6 619.66 190.138 8
2 3 -5 67.6013 62.1921 14
2 3 -5 -28.8264 118.04 13
-2 -3 5 181.241 73.4732 1
2 3 -5 8.81313 129.768 3
2 3 -5 105.103 106.795 11
2 3 -5 125.468 65.4379 5
2 3 -5 35.7946 59.3828 1
-2 -3 5 254.367 128.114 8
2 3 -4 4019.59 233.808 14
2 3 -4 3867.4 354.621 3
2 3 -4 3893.08 320.013 13
-2 -3 4 3650 207.172 1
2 3 -4 3331.47 321.519 11
2 3 -4 3879.89 208.48 5
2 3 -4 3020.36 314.825 9
2 3 -4 4013.86 217.926 1
-2 -3 4 3579.63 324.937 8
2 3 -3 49378.1 1621.03 3
2 3 -3 51380.1 1643.54 11
2 3 -3 50550.5 1550.62 13
2 3 -3 53335.4 1316.22 14
-2 -3 3 51891.7 1320.44 5
2 3 -3 47920.7 1595.87 9
2 3 -3 51594.9 1262.96 1
-2 -3 3 49143.4 1596.26 8
-2 -3 2 144474 3394.98 5
2 3 -2 142921 3634.78 13
2 3 -2 145281 3738.53 3
2 3 -2 139695 3749.46 11
2 3 -2 138384 3718.72 9
-2 -3 2 143571 3714.41 8
2 3 -1 8330.2 495.943 3
-2 -3 1 9070.31 392.86 7
2 3 -1 8600.32 520.954 11
2 3 -1 8147.61 494.173 9
-2 -3 1 8363.31 500.014 8
2 3 0 16868.5 742.667 3
2 3 0 15190.3 740.229 11
-2 -3 0 16891.6 593.093 7
2 3 0 15711.2 735.837 9
2 3 0 16742.9 500.831 1
-2 -3 0 16297.6 744.465 8
2 3 1 3162.14 233.036 7
2 3 1 3298.53 302.084 3
2 3 1 3414.19 320.494 11
2 3 1 2953.29 309.037 9
-2 -3 -1 3392.53 182.814 4
-2 -3 -1 3375.19 185.387 14
2 3 1 3361.14 211.866 1
-2 -3 -1 3542.23 236.298 7
-2 -3 -1 3294.06 326.194 8
2 3 2 25422.7 895.922 7
-2 -3 -2 29567.4 923.224 7
2 3 2 27190 1031.99 3
2 3 2 27638.4 1055.25 11
-2 -3 -2 28721.6 858.232 14
2 3 2 26447.5 1060.23 9
-2 -3 -2 26036.5 842.269 4
2 3 2 28739.9 916.919 1
-2 -3 -2 26320.1 1068.01 8
-2 -3 -3 -95.2509 122.323 8
-2 -3 -3 -38.6511 61.3086 14
2 3 3 -85.497 82.8213 7
-2 -3 -3 85.8654 72.9993 4
2 3 3 75.259 107.255 11
2 3 3 121.967 108.428 3
2 3 3 74.8497 146.206 9
2 3 4 91732.2 2572.24 3
2 3 4 87060 2453.65 7
-2 -3 -4 92064 2571.01 6
-2 -3 -4 85611.1 2486.96 1
2 3 4 91100.1 2652.75 9
-2 -3 -4 90524.2 2446.62 4
2 3 4 90043.1 2535.48 11
2 3 5 210.71 97.7347 7
2 3 5 340.145 165.305 12
-2 -3 -5 224.554 138.27 6
-2 -3 -5 298.01 123.2 1
2 3 5 176.604 116.91 3
2 3 5 331.768 129.036 11
2 3 5 424.502 160.851 9
2 3 6 11683.2 752.269 12
2 3 6 12571.6 689.343 3
2 3 6 12993.6 645.598 11
2 3 6 11271.3 653.04 7
-2 -3 -6 12668.9 689.365 6
-2 -3 -6 10942.9 675.869 1
2 3 6 11364.4 723.889 9
2 3 7 1712.48 288.205 7
2 3 7 2130.38 337.089 12
-2 -3 -7 1881.18 282.809 6
2 3 7 2224.66 246.858 11
-2 -3 -7 1594.2 280.53 1
2 3 7 1548.9 299.156 9
2 3 8 10081.4 685.613 7
2 3 8 9792.9 738.626 12
-2 -3 -8 11133.1 686.031 6
-2 -3 -8 10319.6 719.216 1
2 3 8 9770.69 716.798 9
2 3 9 7988.21 627.903 7
-2 -3 -9 7636.78 584.397 6
2 3 9 7249.55 655.905 12
-2 -3 -9 7545.3 642.112 1
2 3 9 8039.01 664.466 9
-2 -3 -9 8037.35 639.527 4
2 3 10 719.441 245.128 12
2 3 10 448.239 175.175 7
-2 -3 -10 209.509 165.746 1
-2 -3 -10 93.5038 153.802 4
2 3 10 418.723 243.119 9
-2 -3 -10 802.554 216.89 6
2 3 11 252.1 203.961 7
2 3 11 324.28 214.062 12
2 3 11 633.909 256.05 9
-2 -3 -11 389.05 223.23 4
2 3 12 10248.3 850.271 7
2 3 12 11722.1 945.427 12
2 3 12 10855 885.132 9
-2 -3 -12 11684.3 917.386 4
2 3 13 9293.69 864.239 12
2 3 13 10453 887.349 7
2 3 13 9530.21 865.34 9
-2 -3 -13 9347.38 855.145 4
2 3 14 9742.1 892.597 7
-2 -4 16 2075.85 418.676 2
2 4 -16 2421.97 462.916 4
2 4 -15 1025.92 374.372 13
2 4 -15 1965.22 401.365 4
-2 -4 15 1922.95 396.215 2
-2 -4 14 81.8787 124.942 12
2 4 -14 439.016 247.713 13
-2 -4 14 344.287 218.811 2
2 4 -14 455.928 228.948 1
2 4 -13 2087.51 413.367 13
-2 -4 13 3760.15 505.306 2
2 4 -13 3095.52 430.048 1
-2 -4 13 2833.09 381.043 12
2 4 -12 13863.2 940.414 13
-2 -4 12 12195.8 797.51 12
2 4 -12 13505.6 841.91 1
-2 -4 12 12933.2 902.565 2
2 4 -11 2300.05 272.176 11
2 4 -11 1748.16 339.08 13
-2 -4 11 1829.46 304.567 12
-2 -4 11 2177.48 368.458 2
2 4 -11 1925.01 299.545 1
2 4 -10 28265.2 1353.65 13
-2 -4 10 32651.7 1339.01 12
2 4 -10 34181 1235.17 11
2 4 -10 32172.5 1422.2 3
2 4 -10 32978.2 1289.58 1
-2 -4 10 29653.7 1395.69 2
2 4 -9 4343.85 386.052 11
2 4 -9 4410.27 465.066 3
2 4 -9 4695.23 388.214 1
-2 -4 9 3835.84 429.96 2
2 4 -9 3342.41 405.807 13
-2 -4 9 4145.09 409.473 8
2 4 -8 12509.8 768.242 3
2 4 -8 12008 666.938 11
2 4 -8 12139 738.865 13
2 4 -8 11854.1 606.417 1
-2 -4 8 11389.9 684.381 8
-2 -4 8 13062.1 790.039 2
2 4 -7 10407.8 660.488 13
2 4 -7 11003.9 636.678 11
2 4 -7 11295.6 703.572 3
2 4 -7 11134.5 535.958 1
-2 -4 7 10765.7 633.89 8
-2 -4 7 11330.9 704.733 2
-2 -4 6 3192.26 236.896 1
2 4 -6 2899.35 316.775 11
2 4 -6 3062.54 334.934 13
2 4 -6 2519.67 320.727 3
2 4 -6 3355.6 250.224 5
-2 -4 6 2548.4 292.795 8
2 4 -5 106.532 48.7251 14
2 4 -5 162.233 143.594 13
-2 -4 5 228.053 64.5686 1
2 4 -5 307.969 163.857 3
2 4 -5 118.373 128.529 11
2 4 -5 343.115 88.3639 5
-2 -4 5 220.467 139.943 8
2 4 -5 98.4692 140.916 9
2 4 -5 154.834 66.2636 4
2 4 -4 3148.83 182.067 14
-2 -4 4 2108.49 263.167 8
2 4 -4 2559.58 284.485 13
-2 -4 4 2463.4 132.718 1
2 4 -4 2386.75 298.722 3
2 4 -4 2982.45 330.646 11
-2 -4 4 2815.66 207.829 5
2 4 -4 2615.78 301.388 9
2 4 -4 2747.79 170.061 4
2 4 -3 11611.4 662.971 3
2 4 -3 13376.9 709.765 11
-2 -4 3 13944.6 514.57 5
2 4 -3 12942 687.704 9
-2 -4 3 14034 685.641 8
2 4 -3 12681.7 656.842 13
-2 -4 2 43738.9 1281.65 7
2 4 -2 39548.5 1429.82 11
-2 -4 2 39962.9 1161.17 5
2 4 -2 40814.4 1411.43 9
2 4 -2 39020.7 1389.77 3
-2 -4 2 38041.6 1364.44 8
-2 -4 1 1371.52 230.495 8
-2 -4 1 1918.66 197.812 7
2 4 -1 1754.42 260.942 11
2 4 -1 1412.81 232.466 3
2 4 -1 1507 245.127 9
2 4 0 61712 1930.61 3
2 4 0 64228.6 1590.11 1
2 4 0 60692.7 1981.09 11
2 4 0 60412.7 1962.3 9
-2 -4 0 60861.9 1958.35 8
-2 -4 -1 14881.8 484.487 14
2 4 1 14915.1 539.848 1
2 4 1 14541.2 744.597 9
2 4 1 14102.8 738.464 11
2 4 1 14760 720.403 3
2 4 1 14835.6 628.274 7
-2 -4 -1 14593.3 481.591 4
-2 -4 -1 14819.3 759.018 8
2 4 2 61724.9 1851.1 7
2 4 2 64716.3 1980.07 3
2 4 2 61732.7 1999.56 11
2 4 2 67537.5 1808.25 1
2 4 2 60889.6 2011.24 9
-2 -4 -2 63762.6 1714.51 4
-2 -4 -2 68505 1733.3 14
-2 -4 -2 63662.4 1788.87 1
-2 -4 -2 60944.9 2034.21 8
2 4 3 10302.9 605.118 3
2 4 3 12060.7 662.511 11
-2 -4 -3 11963.4 533.906 14
2 4 3 10785 575.798 7
-2 -4 -3 11449.4 564.357 1
2 4 3 11723 684.799 9
-2 -4 -3 10762.1 679.804 8
2 4 4 371.437 147.491 7
-2 -4 -4 704.382 183.217 6
2 4 4 494.73 195.697 11
2 4 4 657.635 164.639 3
-2 -4 -4 383.365 139.759 1
2 4 4 274.83 134.819 9
2 4 5 21231.8 944.932 7
2 4 5 20532.7 1060.26 12
-2 -4 -5 21288.8 997.763 6
2 4 5 22038 949.084 11
-2 -4 -5 20873.7 943.015 1
2 4 5 21498.5 957.648 3
2 4 5 20923.8 1030.51 9
2 4 6 76370.3 2363.62 7
2 4 6 70627.9 2504.99 12
-2 -4 -6 79685.1 2437.83 6
2 4 6 79853 2312.99 11
2 4 6 74385.8 2329.19 3
-2 -4 -6 75858 2390.95 1
2 4 6 74815.7 2470.66 9
-2 -4 -7 2979.83 378.578 6
2 4 7 3326.56 380.297 7
2 4 7 2971.11 410.526 12
2 4 7 3506.89 342.316 11
2 4 7 4270.72 413.17 3
-2 -4 -7 3547.99 423.099 1
2 4 7 3347.14 423.66 9
2 4 8 5935.05 605.342 12
2 4 8 6562.91 531.468 3
-2 -4 -8 7615.91 604.51 6
-2 -4 -8 6542.11 588.946 1
2 4 8 6726.96 610.19 9
2 4 8 6654.83 573.442 7
2 4 9 90.1419 179.119 12
2 4 9 37.1924 160.383 7
-2 -4 -9 128.41 146.282 6
-2 -4 -9 257.96 193.89 1
2 4 9 281.368 141.741 3
2 4 9 118.337 164.544 9
2 4 10 -173.932 200.146 7
2 4 10 -216.76 214.9 12
-2 -4 -10 -61.0829 156.663 1
-2 -4 -10 330.228 204.664 4
2 4 10 181.341 170.561 9
2 4 11 1511.01 344.817 7
2 4 11 1398.15 347.762 12
-2 -4 -11 1429.43 316.391 4
-2 -4 -11 1279.3 291.026 6
-2 -4 -11 1439 338.205 1
2 4 11 1434.01 341.366 9
2 4 12 -106.692 237.741 7
2 4 12 -182.425 193.735 12
-2 -4 -12 545.752 256.848 4
2 4 12 221.697 229.456 9
2 4 13 240.647 202.004 7
-2 -4 -13 25.4571 200.11 4
-2 -5 16 475.768 251.884 2
2 5 -16 792.289 310.02 4
2 5 -15 25.5411 208.772 13
-2 -5 15 42.2589 163.638 2
2 5 -15 258.364 192.809 4
2 5 -14 995.585 330.879 13
-2 -5 14 511.081 217.426 2
2 5 -14 1028.99 275.553 4
-2 -5 13 4389.37 474.558 12
-2 -5 13 3860.28 527.368 2
2 5 -13 4049.81 488.266 4
2 5 -13 3245.49 496.135 13
2 5 -12 2743.73 328.731 11
2 5 -12 2052.48 366.358 13
-2 -5 12 2597.69 363.258 12
-2 -5 12 1916.81 379.287 2
2 5 -12 3014.18 391.611 4
-2 -5 11 37533.4 1515.44 12
2 5 -11 41188.2 1470.21 11
2 5 -11 36063.2 1628.52 13
2 5 -11 38061.8 1515.41 4
-2 -5 11 36921.6 1667.41 2
2 5 -10 56725.9 2166.8 3
2 5 -10 55965.9 2113.52 13
-2 -5 10 57651.8 1990.92 12
2 5 -10 63042.6 1993.89 11
2 5 -10 61398.6 1995.64 4
-2 -5 10 59634.1 2032.15 8
-2 -5 10 56963.7 2163.77 2
2 5 -9 7680.23 638.517 3
2 5 -9 7479.17 511.666 4
2 5 -9 7048.45 534.277 11
-2 -5 9 7009.32 547.746 8
-2 -5 9 6086.97 573.327 2
2 5 -9 6400.59 564.67 13
2 5 -8 22611.4 1119.01 3
2 5 -8 22759 1094.28 13
2 5 -8 21998.9 1010.82 11
2 5 -8 23239.1 921.776 4
-2 -5 8 21000.5 998.38 8
-2 -5 8 21518.7 1101.4 2
2 5 -7 976.528 207.978 11
2 5 -7 1039.29 243.186 13
2 5 -7 1453.48 274.788 3
-2 -5 7 1256.07 253.831 2
-2 -5 7 1490.62 175.872 1
2 5 -7 1672.41 205.606 4
-2 -5 7 1506.37 255.542 8
-2 -5 6 18137.2 625.954 1
2 5 -6 15981.9 856.545 13
2 5 -6 16944.8 870.004 11
2 5 -6 16960.2 898.504 3
2 5 -6 17771.3 670.53 4
-2 -5 6 15983.3 820.494 8
2 5 -6 19240.5 692.253 14
2 5 -5 22996.9 1065.3 3
-2 -5 5 24391.3 690.474 1
2 5 -5 22431.8 1019.76 13
2 5 -5 24118.2 1076.81 11
-2 -5 5 24714 862.016 5
2 5 -5 25215.2 771.149 14
2 5 -5 22506 1047.96 9
2 5 -5 24191.9 758.056 4
-2 -5 5 23532.7 1014.59 8
2 5 -4 4500.6 199.649 14
2 5 -4 4310.07 412.405 3
2 5 -4 4579.94 414.96 13
2 5 -4 4745.34 438.068 11
-2 -5 4 4680.51 306.212 5
2 5 -4 4089.74 397.284 9
2 5 -4 4603.01 199.692 4
-2 -5 4 5267.4 423.436 8
2 5 -3 4197.27 421.448 11
2 5 -3 4777.86 406.049 13
-2 -5 3 4140.07 286.099 5
2 5 -3 3923 384.605 3
2 5 -3 4079.24 393.642 9
-2 -5 3 3733.28 365.192 8
2 5 -2 6074.83 469.622 3
2 5 -2 6869.51 530.417 11
2 5 -2 6313.61 486.753 9
-2 -5 2 6410.24 471.615 8
-2 -5 1 -155.628 136.381 8
2 5 -1 35.8987 111.885 3
2 5 -1 24.1887 122.853 11
2 5 0 5646.3 443.111 3
2 5 0 6009.43 484.347 11
2 5 0 5539.75 463.466 9
-2 -5 0 5276.13 455.546 8
-2 -5 -1 9.54785 125.934 8
-2 -5 -1 117.788 47.6511 14
2 5 1 211.587 73.31 1
-2 -5 -1 -23.3892 58.5621 1
2 5 1 26.788 106.217 3
2 5 1 -82.9525 139.053 9
2 5 1 -54.8065 125.487 11
2 5 2 10505 505.063 1
2 5 2 9189.39 623.599 11
2 5 2 9319.41 560.995 7
-2 -5 -2 10327.7 448.601 14
-2 -5 -2 10308.6 500.586 1
2 5 2 9612.43 637.974 9
2 5 2 10648.7 619.462 3
-2 -5 -2 8946.45 635.709 8
-2 -5 -3 50.974 152.915 8
2 5 3 158.331 133.092 7
-2 -5 -3 152.458 160.796 6
2 5 3 -76.5279 125.644 11
2 5 3 39.9569 123.373 3
-2 -5 -3 531.794 129.812 1
2 5 3 -17.5223 141.051 9
2 5 4 72616.4 2278.16 7
2 5 4 77994.5 2308.89 3
-2 -5 -4 71648.7 2390.14 6
2 5 4 74512.4 2333.62 11
-2 -5 -4 73851.4 2221.39 1
2 5 4 74568.6 2412.47 9
2 5 5 389.131 151.625 7
-2 -5 -5 674.58 214.561 6
2 5 5 392.208 150.93 3
-2 -5 -5 707.128 191.348 1
2 5 5 723.722 204.806 11
2 5 5 507.253 198.6 9
2 5 6 39530.4 1759.74 12
2 5 6 44492.8 1590.46 3
-2 -5 -6 43068.8 1701.49 6
2 5 6 44210.7 1597.7 11
2 5 6 42783.2 1645.17 7
-2 -5 -6 47138 1672.81 1
2 5 6 42106.7 1703.49 9
2 5 7 6713.39 656.676 12
2 5 7 8482.04 595.636 3
-2 -5 -7 7468.77 630.881 6
2 5 7 8667.05 587.194 11
2 5 7 7834.52 626.711 7
-2 -5 -7 8559.7 656.414 1
2 5 7 7590.21 653.208 9
2 5 8 23025.1 1201.61 7
2 5 8 23571.2 1323.54 12
2 5 8 26467.1 1153.07 3
-2 -5 -8 23471.4 1220.43 6
-2 -5 -8 24814.4 1243.78 1
2 5 8 24425.4 1274.14 9
2 5 9 1006.9 289.22 7
2 5 9 592.672 265.545 12
-2 -5 -9 1205.9 309.557 6
-2 -5 -9 950.509 268.104 1
2 5 9 1167.55 284.843 9
2 5 10 210.963 174.346 7
2 5 10 295.509 203.092 12
-2 -5 -10 418.727 195.968 6
-2 -5 -10 46.6146 192.013 1
2 5 10 232.332 211.556 9
2 5 11 745.86 291.584 12
-2 -5 -11 218.267 190.637 6
-2 -5 -11 -136.356 222.524 1
2 5 11 261.358 226.691 7
2 5 11 352.588 206.868 9
2 5 12 17299 1198.25 9
2 6 -17 1468.86 354.427 4
2 6 -16 6694.26 715.933 4
-2 -6 15 2121.1 437.366 2
2 6 -15 2732.05 477.58 13
2 6 -15 2933.22 452.96 4
2 6 -14 436.84 190.64 13
-2 -6 14 766.828 300.913 2
2 6 -14 583.302 231.592 4
2 6 -13 4016.63 524.507 13
-2 -6 13 4181.42 549.991 2
2 6 -13 4976.36 524.174 4
2 6 -12 96.6485 205.84 13
-2 -6 12 55.6421 151.161 12
-2 -6 12 -7.97341 164.612 2
2 6 -12 38.5756 114.716 11
2 6 -12 86.6469 151.905 4
2 6 -11 596.476 246.221 13
-2 -6 11 194.487 128.384 12
-2 -6 11 302.885 193.956 2
2 6 -11 134.152 122.345 11
-2 -6 11 178.434 165.384 8
2 6 -11 93.6601 118.585 4
2 6 -10 246.712 188.824 13
-2 -6 10 292.83 218.409 2
2 6 -10 527.903 253.052 3
2 6 -10 766.59 224.11 11
-2 -6 10 438.257 165.177 8
2 6 -10 272.406 118.881 4
2 6 -9 83444.5 2602.14 11
2 6 -9 76651.6 2641.33 13
2 6 -9 81342 2746 3
2 6 -9 85258.6 2412.21 4
-2 -6 9 81084.2 2539 8
-2 -6 9 74424.5 2678.95 2
2 6 -8 6728.62 610.124 3
2 6 -8 6709.49 549.977 11
2 6 -8 6716.49 588.203 13
2 6 -8 7001.72 445.809 4
-2 -6 8 7200.69 540.833 8
-2 -6 8 8107.03 659.678 2
2 6 -7 52620.1 1944.41 13
2 6 -7 57313.1 1978.73 11
2 6 -7 55612.6 2029.5 3
2 6 -7 58367.7 1650 4
-2 -6 7 55241.1 1876.22 8
-2 -6 7 52274.5 2003.36 2
2 6 -6 3574.62 416.137 3
2 6 -6 3854.56 419.651 11
-2 -6 6 3350.14 303.589 5
2 6 -6 3995.8 258.69 4
2 6 -6 3017.34 374.853 13
-2 -6 6 3682.67 375.653 8
2 6 -6 4016.58 263.217 14
2 6 -5 50070.2 1801.38 13
2 6 -5 50800.9 1837.55 11
-2 -6 5 52403.9 1575.18 5
2 6 -5 48911.3 1806.05 3
2 6 -5 48642.3 1807.55 9
2 6 -5 51840.1 1349.65 4
-2 -6 5 49770.8 1732.67 8
-2 -6 4 122.678 112.677 8
2 6 -4 118.026 120.665 13
2 6 -4 82.7166 140.006 3
2 6 -4 79.0207 161.833 11
-2 -6 4 326.237 122.482 5
2 6 -4 117.041 142.845 9
2 6 -3 13194.1 754.789 3
2 6 -3 11603.3 747.341 11
-2 -6 3 12472.2 599.886 5
2 6 -3 11677.8 724.413 9
-2 -6 3 11951.2 703.86 8
-2 -6 2 33.5674 147.432 8
2 6 -2 25.0383 135.395 3
2 6 -2 -127.925 162.741 11
2 6 -2 265.539 152.287 9
2 6 -1 4123.35 395.295 3
2 6 -1 4310.3 443.082 11
2 6 -1 4424.92 435.857 9
-2 -6 1 4338.92 418.005 8
2 6 0 9643.87 621.772 3
2 6 0 9047.02 655.086 11
-2 -6 0 10999.9 416.239 1
-2 -6 0 9676.79 316.393 4
2 6 0 9665.59 655.455 9
-2 -6 0 9653.37 318.328 4
-2 -6 0 9633.07 662.227 8
-2 -6 0 9397.44 311.928 14
-2 -6 -1 386.415 174.24 8
2 6 1 333.279 136.069 3
2 6 1 249.515 131.883 11
-2 -6 -1 356.614 111.317 1
2 6 1 201.987 73.3031 1
2 6 1 241.747 145.775 9
2 6 2 99461.1 2973.17 7
2 6 2 111320 3041.95 3
2 6 2 98313 3096.39 11
-2 -6 -2 108553 2814.65 1
2 6 2 103452 3108.76 9
-2 -6 -2 101360 3162.81 8
2 6 3 9606.86 613.346 3
-2 -6 -3 8600.7 666.154 6
2 6 3 8728.55 607.905 7
2 6 3 9275.31 669.425 11
-2 -6 -3 10381.6 571.44 1
2 6 3 9166.56 667.38 9
-2 -6 -3 8762.48 682.324 8
2 6 4 9034.65 634.684 7
-2 -6 -4 8205.99 665.886 6
2 6 4 9406.84 664.455 11
-2 -6 -4 10838.4 622.53 1
2 6 4 8649.16 666.299 9
2 6 4 9620.82 626.676 3
2 6 5 91.9776 118.225 7
-2 -6 -5 9.26375 153.597 6
2 6 5 55.3785 128.186 11
2 6 5 68.4801 119.346 3
-2 -6 -5 103.948 132.142 1
2 6 5 157.251 181.309 9
2 6 6 101.214 163.996 7
-2 -6 -6 102.059 166.407 6
2 6 6 5.00949 122.096 11
2 6 6 364.033 130.653 3
-2 -6 -6 73.0062 148.848 1
2 6 6 61.4069 182.428 9
2 6 7 19181.7 1213.18 12
-2 -6 -7 22033.4 1203.76 6
2 6 7 20720.9 1128.15 7
-2 -6 -7 22116.9 1141.87 1
2 6 7 21899.3 1190.57 9
2 6 8 50276.9 1997.81 7
2 6 8 47030.2 2111.79 12
-2 -6 -8 47845.3 2004.82 6
-2 -6 -8 49245.3 1962.6 1
2 6 8 48937.1 1998.3 9
2 6 9 504.725 266.927 7
-2 -6 -9 538.425 243.847 6
2 6 9 498.45 239.281 12
-2 -6 -9 494.55 243.975 1
2 6 9 993.676 311.126 9
2 6 10 1309.6 337.997 7
2 6 10 1291.66 357.963 12
-2 -6 -10 1730.5 375.698 6
-2 -6 -10 1803.85 365.158 1
2 6 10 1960.45 391.244 9
-2 -6 -11 1148.72 303.558 6
2 6 11 339.153 230.656 9
2 7 -16 1923.15 361.254 4
-2 -7 15 1388.95 370.781 2
2 7 -15 1749.13 406.279 13
2 7 -15 1519.51 323.2 4
2 7 -14 1056.53 343.434 13
-2 -7 14 1200.39 354.274 2
2 7 -14 2182.14 366.081 4
2 7 -13 -152.294 164.696 13
2 7 -13 224.034 146.692 4
-2 -7 13 -42.5233 198.448 2
2 7 -12 5838.92 642.423 13
2 7 -12 7619.77 626.293 11
2 7 -12 6872.49 579.491 4
-2 -7 12 6777.36 699.708 2
2 7 -11 6130.88 638.758 13
2 7 -11 6887.2 601.27 11
2 7 -11 7603.66 569.578 4
-2 -7 11 6805.58 572.257 8
-2 -7 11 5162.46 614.463 2
-2 -7 10 3777.83 501.562 2
2 7 -10 4333.39 470.136 11
2 7 -10 3545.16 465.5 13
2 7 -10 3399.4 485.608 3
2 7 -10 4108.21 383.919 4
-2 -7 10 3702.16 410.21 8
2 7 -9 1699.77 340.295 13
2 7 -9 3121.72 443.815 3
-2 -7 9 2245.32 382.51 2
2 7 -9 2398.06 286.205 4
2 7 -9 2731.56 383.956 11
-2 -7 9 2878.07 357.308 8
2 7 -8 50842.4 2029.28 3
2 7 -8 53200.1 1977.71 11
2 7 -8 54656.8 1629.81 4
2 7 -8 51915.7 1998.34 13
-2 -7 8 52189.9 1848.25 8
-2 -7 8 50510.7 2021.48 2
2 7 -7 979.357 241.009 13
2 7 -7 1189.13 267.941 3
-2 -7 7 1648.43 272.365 8
2 7 -7 1435.94 280.492 11
-2 -7 7 1250.06 266.403 2
-2 -7 7 1531.95 233.557 5
2 7 -7 1600.44 180.363 4
2 7 -6 10141.1 742.089 3
2 7 -6 10428.3 742.844 13
2 7 -6 10450.2 750.192 11
-2 -7 6 11404.7 617.977 5
2 7 -6 11607.4 464.059 4
-2 -7 6 10414 683.891 8
2 7 -5 36051.2 1549.47 13
2 7 -5 38796.5 1618.28 11
2 7 -5 41351.9 1066.41 4
2 7 -5 37349 1567.59 9
2 7 -5 37349.5 1572.99 3
-2 -7 5 37847.1 1490.82 8
-2 -7 5 41172.7 1387.92 5
2 7 -4 24204.5 1138.49 3
2 7 -4 22768.3 1162.39 11
-2 -7 4 23385.8 963.965 5
2 7 -4 23011.5 1123.91 9
-2 -7 4 23138.1 1074.92 8
2 7 -3 1069.6 247.847 3
-2 -7 3 1670.68 266.99 8
2 7 -3 1268.21 255.167 11
-2 -7 3 1183.99 204.231 5
2 7 -3 1622.45 290.664 9
-2 -7 2 405.181 193.393 8
2 7 -2 454.703 167.374 3
2 7 -2 595.667 217.127 11
2 7 -2 659.374 204.754 9
2 7 -1 349.162 163.627 3
2 7 -1 236.205 180.224 11
-2 -7 1 460.804 200.514 8
2 7 -1 631.753 200.389 9
2 7 0 1278.64 256.87 3
2 7 0 746.671 200.329 11
2 7 0 966.788 258.243 9
-2 -7 0 1513.87 280.99 8
-2 -7 -1 4023.02 452.688 8
2 7 1 4579.19 432.972 3
2 7 1 4027.47 458.222 11
2 7 1 4360.55 463.306 9
-2 -7 -2 36228.2 1596.79 6
2 7 2 37381.6 1582.27 11
2 7 2 40015.8 1486.61 3
2 7 2 38386.9 1566.23 9
-2 -7 -2 37123.7 1609.15 8
2 7 3 531.343 198.524 7
-2 -7 -3 302.219 206.524 6
2 7 3 288.926 134.59 3
2 7 3 366.534 180.265 9
2 7 3 934.513 257.95 11
-2 -7 -3 485.641 232.553 8
-2 -7 -4 206.739 208.97 6
2 7 4 270.438 173.266 7
2 7 4 212.345 147.976 3
2 7 4 83.3157 162.371 11
2 7 4 -80.8709 185.455 9
-2 -7 -4 155.25 186.345 8
-2 -7 -5 2014.77 383.346 6
2 7 5 2131.71 335.561 7
2 7 5 2302.52 308.582 3
2 7 5 2105.53 343.348 11
2 7 5 2426.82 387.132 9
2 7 6 1236.63 274.45 7
-2 -7 -6 839.536 260.958 6
2 7 6 1072.34 263.795 11
2 7 6 913.075 252.526 9
2 7 7 5006.26 563.68 7
2 7 7 5940.97 620.601 9
2 7 8 307.938 226.416 7
-2 -7 -8 111.575 209.931 6
2 7 8 57.2546 201.146 9
-2 -7 -9 13556.2 1018.45 6
2 7 9 13145.5 986.929 9
-2 -7 -10 155.887 256.908 6
2 7 10 -47.1797 220.725 9
2 8 -14 864.489 301.898 13
-2 -8 14 810.191 310.064 2
2 8 -13 -115.424 278.91 13
-2 -8 13 -307.71 238.874 2
2 8 -13 228.913 180.877 11
2 8 -12 1459.26 328.387 11
2 8 -12 1023.02 303.076 13
-2 -8 12 1551.4 398.98 2
2 8 -11 2938.71 462.227 13
2 8 -11 2440.59 384.059 11
-2 -8 11 1931.03 384.827 2
-2 -8 11 2427.19 367.054 8
2 8 -10 11901.2 927.551 3
2 8 -10 11345.9 887.766 13
2 8 -10 13300.5 897.246 11
-2 -8 10 12480.9 793.744 8
-2 -8 10 11326.3 901.077 2
2 8 -9 11674.5 828.443 11
2 8 -9 10004.5 797.14 13
2 8 -9 10628 853.476 3
-2 -8 9 9975.6 703.037 8
-2 -8 9 9395.98 802.409 2
2 8 -8 678.325 277.351 13
2 8 -8 1358.93 324.664 3
2 8 -8 567.303 234.856 11
-2 -8 8 1023.79 290.801 2
-2 -8 8 1398.3 267.845 8
2 8 -7 34123 1545.97 3
2 8 -7 29587.2 1449.26 11
-2 -8 7 31954.8 1263.44 5
2 8 -7 31368.7 1467.07 13
-2 -8 7 33316.8 1368.38 8
-2 -8 7 29878 1483.3 2
2 8 -6 7913.22 677.271 3
2 8 -6 7553.84 659.199 13
2 8 -6 8441 714.991 11
-2 -8 6 8039.47 547.502 5
-2 -8 6 8295.94 616.542 8
2 8 -5 6192.76 611.374 11
2 8 -5 6194.13 579.403 3
-2 -8 5 6250.43 477.482 5
2 8 -5 5307.67 541.712 9
-2 -8 5 5554.07 512.648 8
-2 -8 4 1642.56 288.974 8
2 8 -4 1424.91 304.012 3
2 8 -4 1108.03 257.495 11
-2 -8 4 1514.65 233.04 5
2 8 -4 1541.26 298.194 9
-2 -8 3 1684.74 288.995 8
2 8 -3 1806.3 319.685 3
2 8 -3 1439.83 321.68 11
-2 -8 3 1596.91 260.492 5
2 8 -3 1687.37 324.051 9
-2 -8 2 1607.01 291.938 8
2 8 -2 1988.57 313.236 3
2 8 -2 1466.24 321.16 11
-2 -8 2 1767.25 272.711 5
2 8 -2 1966.75 322.67 9
2 8 -1 15941.3 912.164 3
2 8 -1 17233.7 1035.59 11
2 8 -1 16502.7 960.637 9
-2 -8 1 16434.6 960.81 8
2 8 0 15711 875.768 3
2 8 0 15803.2 996.051 11
2 8 0 14202 899.077 9
-2 -8 0 15841.3 961.206 8
2 8 1 10355 697.895 3
-2 -8 -1 8958.3 750.456 6
2 8 1 10406.7 800.305 11
2 8 1 10184.7 741.463 9
-2 -8 -1 9029.69 737.056 8
2 8 2 10542.6 696.626 3
-2 -8 -2 9793.77 799.05 6
2 8 2 9566.2 774.014 11
2 8 2 10815.4 770.79 9
-2 -8 -2 9080.02 760.306 8
2 8 3 176.359 173.238 7
-2 -8 -3 -226.242 227.095 8
-2 -8 -3 -0.40314 147.306 6
2 8 3 104.599 126.221 3
2 8 3 84.2418 160.718 11
2 8 3 -184.805 196.195 9
-2 -8 -4 -216.585 248.689 8
2 8 4 96.8675 149.561 7
-2 -8 -4 222.37 188.596 6
2 8 4 -84.8755 159.36 11
2 8 4 -222.629 154.932 9
2 8 5 16.5999 174.032 11
2 8 5 -29.3828 153.449 7
-2 -8 -5 98.6713 180.008 6
2 8 5 -33.8407 185.239 9
-2 -8 -5 193.847 181.564 8
2 8 6 7821.38 715.318 7
-2 -8 -6 8736.19 814.024 6
2 8 6 9613.23 787.759 9
-2 -8 -6 9241.28 864.778 8
2 8 7 1322.61 343.254 7
-2 -8 -7 1451.31 381.003 6
2 8 7 900.699 269.578 9
-2 -8 -8 -340.877 257.519 6
2 8 8 -278.833 260.568 9
2 9 -13 359.161 287.795 13
2 9 -13 803.188 266.426 11
2 9 -12 16338.6 1152.87 13
2 9 -12 17411.4 1103.41 11
-2 -9 12 16603.6 1198.53 2
2 9 -11 2292.39 433.994 13
-2 -9 11 3283.4 519.59 2
2 9 -11 3633.76 489.432 11
2 9 -10 10335.4 842.972 11
2 9 -10 9744.43 844.218 13
2 9 -10 12593.2 974.716 3
-2 -9 10 10128.3 877.98 2
2 9 -9 468.123 242.818 13
2 9 -9 713.671 248.586 3
-2 -9 9 286.531 230.867 2
-2 -9 9 919.137 254.689 8
2 9 -8 3593.03 492.723 13
2 9 -8 3070.75 459.769 3
2 9 -8 2928.26 456.642 11
-2 -9 8 2694.71 427.602 2
-2 -9 8 2798.05 355.634 5
-2 -9 8 3734.94 426.905 8
2 9 -7 5225.99 591.074 3
2 9 -7 5133.61 591.278 11
-2 -9 7 5771.23 509.025 5
2 9 -7 5582.49 616.888 13
-2 -9 7 6056.5 545.919 8
-2 -9 7 5564.67 611.752 2
2 9 -6 7026.84 654.784 3
2 9 -6 5484.91 620.229 11
-2 -9 6 6638.73 529.236 5
-2 -9 6 6749.42 593.153 8
2 9 -5 14210.6 942.192 3
2 9 -5 13907.1 981.22 11
-2 -9 5 14312.6 813.923 5
2 9 -5 13410.9 915.376 9
-2 -9 5 15303.9 906.837 8
-2 -9 4 865.406 229.24 8
2 9 -4 1116.1 285.119 3
2 9 -4 979.94 299.005 11
-2 -9 4 949.071 226.998 5
2 9 -4 914.998 251.783 9
2 9 -3 9899.03 820.307 11
2 9 -3 9274.86 722.553 3
-2 -9 3 9276.78 660.572 5
2 9 -3 9404.01 746.064 9
-2 -9 3 9855.28 728.594 8
2 9 -2 15139 901.135 3
2 9 -2 12719.4 939.65 11
-2 -9 2 13236 814.259 5
2 9 -2 12656.6 865.598 9
-2 -9 2 12471.2 864.73 8
2 9 -1 3446.5 428.217 3
-2 -9 1 3156.81 439.212 8
2 9 -1 4597.72 513.472 9
2 9 0 21615.2 1248.93 11
2 9 0 21024.7 1094.75 3
2 9 0 22230.1 1186.36 9
-2 -9 0 20644.5 1184.96 8
-2 -9 -1 9546.65 833.59 6
2 9 1 9573.56 821.423 11
2 9 1 11376.4 823.181 9
2 9 1 11150 743.104 3
-2 -9 -1 10113 816.208 8
-2 -9 -2 2473.82 452.411 6
2 9 2 2453.99 431.834 11
-2 -9 -2 2275.77 416.391 8
2 9 2 2479.25 392.052 9
-2 -9 -3 425.311 250.97 8
2 9 3 647.763 258.938 11
2 9 3 926.338 262.036 9
-2 -9 -3 384.829 228.191 6
2 9 4 668.016 250.034 7
-2 -9 -4 861.864 328.702 6
2 9 4 700.508 272.798 11
-2 -9 -4 480.103 271.806 8
2 9 4 192.44 189.312 9
2 9 5 2196.98 381.318 7
-2 -9 -5 2791.94 480.677 6
2 9 5 2466.82 421.853 9
-2 -9 -5 1864.44 395.593 8
-2 -9 -6 1369.72 357.839 6
2 9 6 1417.03 322.737 9
2 10 -13 1741.99 396.836 11
2 10 -12 3887.36 587.861 13
-2 -10 12 4382.5 636.083 2
2 10 -12 4341.83 562.853 11
-2 -10 11 571.356 257.681 2
2 10 -11 387.159 259.788 11
2 10 -10 32980.1 1668.19 11
2 10 -10 29922 1632.09 13
-2 -10 10 30796.1 1677.16 2
2 10 -9 418.966 226.125 13
2 10 -9 1046.52 338.775 3
2 10 -9 1007.51 305.705 11
-2 -10 9 1215.86 352.706 2
2 10 -8 1062.35 294.842 3
2 10 -8 409.65 228.405 11
-2 -10 8 728.432 243.097 2
2 10 -7 2702.74 468.882 3
2 10 -7 1463.46 334.307 11
-2 -10 7 2936.54 400.494 8
-2 -10 7 1854.59 383.535 2
-2 -10 6 7.01371 137.241 8
2 10 -6 49.6124 190.96 3
2 10 -6 307.396 242.035 11
-2 -10 6 306.013 167.961 2
2 10 -5 1311.05 306.512 3
2 10 -5 1671.89 387.755 11
-2 -10 5 1215.27 280.141 5
-2 -10 5 1644.31 310.244 8
2 10 -5 1533.86 340.276 9
2 10 -4 1.90026 155.348 3
2 10 -4 423.581 280.301 11
-2 -10 4 451.861 199.15 8
-2 -10 4 557.805 224.864 5
2 10 -4 360.643 207.71 9
-2 -10 3 1167.89 284.967 8
2 10 -3 1426.26 324.843 3
2 10 -3 1202.63 360.049 11
-2 -10 3 803.645 224.713 5
2 10 -3 1421.08 304.693 9
-2 -10 2 647.117 226.774 8
2 10 -2 511.287 206.448 3
2 10 -2 501.351 218.184 11
-2 -10 2 808.679 254.403 5
2 10 -2 494.562 214.574 9
2 10 -1 6275.53 584.167 3
2 10 -1 6337.82 692.586 11
2 10 -1 5791.63 602.882 9
-2 -10 1 4724.85 568.537 8
-2 -10 0 21779.1 1343.04 6
2 10 0 22868.3 1370.05 11
2 10 0 22223.4 1235.54 9
2 10 0 23165.4 1185.34 3
-2 -10 0 19683.6 1223.28 8
-2 -10 -1 1171.15 365.755 6
2 10 1 767.95 307.373 11
2 10 1 1518.81 332.287 9
-2 -10 -1 1508.82 332.975 8
-2 -10 -2 2289.07 438.166 8
-2 -10 -2 2300.75 450.104 6
2 10 2 2065.3 412.845 11
2 10 2 2505.18 431.228 9
-2 -10 -3 2834.48 503.324 6
-2 -10 -3 2774.55 485.123 8
2 10 3 3396.52 538.686 11
2 10 3 2904.32 458.828 9
2 10 4 1026.23 285.782 11
2 11 -13 725.75 298.467 11
2 11 -12 2376.45 448.658 11
2 11 -11 1352.38 390.974 11
2 11 -10 8628.18 844.97 11
2 11 -10 7902.64 817.09 13
-2 -11 10 9004.17 881.984 2
2 11 -9 6661.26 747.154 11
-2 -11 9 6388.85 735.849 2
2 11 -9 8577.99 858.849 3
2 11 -8 1327.29 344.841 3
2 11 -8 1381.27 381.267 11
-2 -11 8 974.426 286.151 2
2 11 -7 -106.854 183.033 3
2 11 -7 242.986 253.679 11
-2 -11 7 -28.1896 170.876 2
2 11 -6 -72.6568 171.981 3
2 11 -6 95.1363 238.995 11
-2 -11 6 345.559 190.6 2
-2 -11 5 202.891 173.613 8
2 11 -5 603.684 245.805 3
2 11 -5 95.6576 239.641 11
2 11 -4 2455.51 405.824 3
-2 -11 4 2814.02 446.442 8
2 11 -4 3012.43 507.543 11
2 11 -4 3715.23 526.831 9
2 11 -3 19621.8 1176.28 3
2 11 -3 18401.3 1282.09 11
2 11 -3 18377.5 1173.99 9
-2 -11 3 19267.6 1166.14 8
2 11 -2 6789.04 660.208 3
2 11 -2 6571.52 730.86 11
2 11 -2 7051.84 694.333 9
-2 -11 2 6647.7 681.587 8
-2 -11 1 36.3262 213.697 8
-2 -11 1 29.7968 191.55 6
2 11 -1 -349.305 270.288 11
2 11 -1 123.287 212.785 9
-2 -11 0 813.521 336.728 6
-2 -11 0 757.865 294.252 8
2 11 0 548.463 246.993 11
2 11 0 762.969 208.459 9
-2 -11 -1 1239.85 330.865 8
2 11 1 1586.61 407.265 11
2 11 1 1483.08 359.324 9
2 11 2 637.511 288.245 11
2 11 3 383.522 238.281 11
2 12 -8 77.6612 226.168 3
-2 -12 8 -284.783 241.216 2
2 12 -7 2073.26 465.065 3
-2 -12 7 1445.12 350.303 2
2 12 -6 4228.44 587.191 3
-2 -12 6 3754.55 569.434 2
2 12 -5 4356.37 585.404 3
-2 -12 5 3525.42 526.248 2
2 12 -4 99.4688 213.823 3
2 12 -3 25514.5 1443.55 9
-2 -12 3 23936.5 1390.53 8
2 12 -2 -108.335 156.301 9
-2 -12 2 258.712 233.029 8
-2 -12 1 5543.2 680.953 8
3 -13 3 7780.72 796.504 6
3 -13 3 7139.19 755.428 14
3 -13 4 869.918 286.853 14
3 -13 5 195.366 189.299 14
3 -13 6 558.254 267.881 14
3 -13 7 544.223 273.662 14
-3 13 -7 155.358 225.052 4
-3 13 -8 12800.5 1036.64 4
3 -13 8 13928.4 1074.07 14
3 -12 -1 -168.494 192.651 1
3 -12 0 263.571 257.762 6
3 -12 0 299.82 236.764 14
3 -12 0 312.88 244.123 1
3 -12 1 395.611 257.853 14
3 -12 1 67.4744 177.769 6
-3 12 -1 588.769 256.029 10
3 -12 1 832.852 305.164 1
3 -12 2 5890.85 670.272 1
3 -12 2 6106.81 687.944 6
-3 12 -2 6506.9 756.816 10
3 -12 2 6456.99 698.054 14
3 -12 3 1401.04 332.995 6
3 -12 3 1513.93 398.392 5
-3 12 -3 1337.18 407.128 10
3 -12 3 1502.55 368.402 14
3 -12 3 1114.46 332.328 1
3 -12 4 603.822 254.922 6
3 -12 4 -222.097 211.007 1
3 -12 4 372.538 277.059 5
-3 12 -4 79.9158 233.724 10
3 -12 4 317.497 227.373 14
3 -12 5 -25.0936 229.798 5
-3 12 -5 140.479 292.426 10
3 -12 5 385.698 261.241 1
3 -12 5 -2.73271 171.808 14
3 -12 6 533.733 253.791 14
3 -12 6 1777.61 411.586 5
-3 12 -6 1468.29 422.805 10
-3 12 -6 1155.55 300.402 4
3 -12 7 314.088 215.274 5
-3 12 -7 434.442 288.812 10
-3 12 -7 566.388 289.697 4
-3 12 -8 2253.82 439.187 4
3 -12 8 1507.55 384.086 14
-3 12 -9 13211.1 1037.73 4
3 -12 9 12899.2 1019.99 14
3 -12 10 27.6289 177.361 14
-3 12 -10 -27.2007 230.794 4
-3 11 4 7758.59 798.003 12
-3 11 4 7185.21 776.999 10
3 -11 -3 1570.25 401.355 1
-3 11 3 1725.67 371.279 12
-3 11 3 1581.45 402.968 10
3 -11 -2 10949.4 937.111 1
-3 11 2 12362 922.004 12
3 -11 -2 11831 1002.74 6
-3 11 2 10327.1 929.634 10
3 -11 -1 1008.64 324.664 6
3 -11 -1 1005.02 316.719 1
3 -11 -1 609.305 262.838 5
-3 11 1 576.75 266.47 10
3 -11 0 328.97 195.781 6
3 -11 0 357.886 220.599 5
-3 11 0 589.429 295.427 10
3 -11 0 332.582 209.467 1
3 -11 1 2393.44 430.361 14
3 -11 1 2085.55 401.998 6
3 -11 1 2588.35 430.467 1
3 -11 1 1504.17 381.77 5
-3 11 -1 1559.54 392.6 10
3 -11 2 435.552 222.798 14
3 -11 2 628.633 268.535 6
3 -11 2 -9.40568 212.105 5
-3 11 -2 664.465 257.944 10
3 -11 2 586.332 222.398 1
3 -11 3 1890.24 396.327 14
3 -11 3 1769.72 330.302 6
3 -11 3 2516.8 467.549 5
-3 11 -3 2427.67 462.975 10
3 -11 3 2342.38 423.193 1
3 -11 4 1517.04 321.696 6
3 -11 4 1133.22 391.034 5
-3 11 -4 1613 408.124 10
3 -11 4 258.795 187.38 14
3 -11 4 1244.72 321.147 1
3 -11 5 4985.43 535.514 6
3 -11 5 4457.51 584.159 5
3 -11 5 4293.82 544.891 14
-3 11 -5 5749.37 625.737 4
-3 11 -5 4920.03 632.349 10
3 -11 6 1967.1 372.027 14
3 -11 6 1974.24 413.564 5
-3 11 -6 2826.01 507.563 10
-3 11 -6 2466.52 413.337 4
3 -11 7 17308.7 1198.09 5
-3 11 -7 19413.9 1283.82 10
-3 11 -7 20109.7 1213.84 4
3 -11 7 17701.9 1146.42 14
3 -11 8 32315.6 1708.66 5
-3 11 -8 33161.6 1744.43 10
-3 11 -8 33404.8 1662.97 4
3 -11 8 32233.1 1634.87 14
3 -11 9 192.537 230.602 14
3 -11 9 703.659 285.466 5
-3 11 -9 125.076 207.033 10
-3 11 -9 436.775 251.73 4
3 -11 10 1492.38 379.668 14
3 -11 10 1956.8 468.946 5
-3 11 -10 1904.22 417.843 10
-3 11 -10 1915.12 398.634 4
3 -11 11 -134.677 225.344 14
3 -11 11 -142.236 189.103 2
-3 11 -11 244.618 222.391 10
-3 11 -11 532.289 251.732 4
3 -11 12 850.938 312.648 2
-3 11 -12 162.631 173.995 10
-3 11 -12 294.517 246.554 4
3 -11 13 4750.54 633.235 2
3 -10 -5 23790.8 1479.48 1
-3 10 5 25578.7 1484.23 12
-3 10 5 25464.3 1442.89 10
-3 10 4 2708.06 452.2 12
-3 10 4 2945.21 515.438 7
3 -10 -4 2271.17 482.716 6
-3 10 4 1820.97 413.126 10
3 -10 -4 2000.44 415.691 1
-3 10 3 388.299 222.524 12
-3 10 3 -9.10317 196.266 7
3 -10 -3 385.951 248.544 6
-3 10 3 -30.2195 207.218 10
3 -10 -3 -79.9511 172.937 1
-3 10 2 1533.55 390.395 7
-3 10 2 1082.22 262.231 12
3 -10 -2 2144.36 414.735 1
3 -10 -2 1633.89 358.599 6
-3 10 2 1521.07 367.044 10
-3 10 1 152.401 144.308 12
3 -10 -1 -29.7146 157.746 6
3 -10 -1 176.849 167.975 5
-3 10 1 143.753 229.549 10
3 -10 -1 -12.0012 160.242 1
-3 10 0 538.049 211.983 12
3 -10 0 108.139 160.959 6
3 -10 0 -163.466 185.51 5
-3 10 0 44.3705 207.967 10
3 -10 0 -217.881 200.267 1
3 -10 1 1171.94 273.952 6
3 -10 1 1210.77 284.559 14
3 -10 1 970.247 295.748 5
-3 10 -1 2003.5 413.763 10
3 -10 1 1156.43 291.083 1
3 -10 2 9577.32 757.241 6
3 -10 2 8284.29 738.339 1
3 -10 2 9588.43 781.103 14
3 -10 2 9074.61 803.026 5
-3 10 -2 10645.8 878.483 10
3 -10 3 2678.11 404.6 6
3 -10 3 2653.28 424.204 14
3 -10 3 2387.96 420.72 5
-3 10 -3 2055.51 406.236 10
3 -10 3 2467.94 408.348 1
3 -10 4 7300.36 626.035 6
3 -10 4 5660.93 630.208 5
-3 10 -4 5179.41 619.074 10
-3 10 -4 6406.78 627.193 4
3 -10 4 6273.13 635.335 14
3 -10 5 3245.21 407.965 6
3 -10 5 2929.2 487.15 5
-3 10 -5 3483.11 505.34 10
-3 10 -5 3719.71 489.402 4
3 -10 5 3302.5 452.934 14
3 -10 6 24423.9 1328.42 14
3 -10 6 23590.2 1351.11 5
-3 10 -6 25480.7 1418.74 10
-3 10 -6 26248.6 1370.34 4
3 -10 7 14042.2 1016.41 5
-3 10 -7 14246.2 1036.43 10
3 -10 7 14197.8 980.101 14
-3 10 -7 15288.6 1018.34 4
3 -10 8 1183.69 326.724 14
3 -10 8 1141.05 286.267 2
3 -10 8 1300.13 379.955 5
-3 10 -8 1014.25 319.821 10
-3 10 -8 812.059 259.696 4
3 -10 9 10974.5 925.601 5
-3 10 -9 11506.4 928.342 10
-3 10 -9 12622.7 941.572 4
3 -10 9 10387.1 808.167 2
3 -10 9 10740.6 877.902 14
3 -10 10 8699.76 843.654 5
-3 10 -10 10275.4 870.754 10
-3 10 -10 10200.7 869.997 4
3 -10 10 10696.1 837.645 2
3 -10 10 10525 874.532 14
-3 10 -11 203.799 175.741 13
3 -10 11 -359.432 286.074 14
-3 10 -11 116.811 202.899 10
3 -10 11 -114.985 221.293 2
-3 10 -11 69.4251 173.803 4
3 -10 12 2730.91 476.05 14
3 -10 12 3117.09 497.763 2
-3 10 -12 2640.46 476.071 10
-3 10 -12 2821.14 495.605 4
3 -10 13 4544.2 624.673 2
-3 10 -13 4816.1 662.3 4
-3 9 7 392.611 233.277 12
-3 9 6 867.097 318.485 7
-3 9 6 697.279 255.003 12
3 -9 -6 930.005 357.369 1
-3 9 5 1765.42 404.618 7
-3 9 5 2222.14 420.026 12
-3 9 5 1980.09 385.922 10
3 -9 -5 1974.47 417.541 1
-3 9 4 11132.6 930.561 7
-3 9 4 11089.9 875.631 12
3 -9 -4 10780.1 900.193 1
3 -9 -4 11443.3 953.369 6
-3 9 4 12069.8 895.843 10
-3 9 3 25841.2 1448.23 7
3 -9 -3 26503.8 1433.03 1
-3 9 3 25720.8 1356.87 12
3 -9 -3 26483.9 1456.8 6
-3 9 3 27474.7 1423.01 10
-3 9 2 7550.88 731.918 7
3 -9 -2 7147.17 686.163 1
-3 9 2 7030.8 627.093 12
3 -9 -2 8337.58 755.911 6
-3 9 2 6311.74 632.568 10
-3 9 1 6430.94 664.331 7
3 -9 -1 6721.68 663.252 1
3 -9 -1 8699.96 733.405 6
-3 9 1 7445.16 616.45 12
-3 9 1 7514.53 703.365 10
-3 9 0 595.55 192.637 12
3 -9 0 395.944 212.535 6
3 -9 0 67.3301 168.454 1
3 -9 0 519.181 261.772 5
-3 9 0 456.347 242.093 10
-3 9 -1 2035.5 287.727 12
3 -9 1 1675.12 337.765 1
3 -9 1 1672 313.832 6
3 -9 1 1290.64 338.439 5
-3 9 -1 1959.41 367.673 10
3 -9 2 535.411 214.623 14
-3 9 -2 927.239 184.745 12
3 -9 2 889.172 247.275 6
3 -9 2 470.965 248.827 5
-3 9 -2 813.012 271.94 10
3 -9 2 982.155 267.237 1
3 -9 3 8564.21 727.644 5
-3 9 -3 8208.44 736.362 10
-3 9 -3 8965.89 712.202 4
3 -9 3 8920.96 661.786 6
3 -9 3 7981.47 687.714 14
3 -9 4 253.444 166.016 6
3 -9 4 531.539 213.916 14
3 -9 4 500.727 282.034 5
-3 9 -4 269.697 202.301 10
-3 9 -4 212.688 174.438 4
3 -9 5 2.78371 129.141 6
3 -9 5 -60.2504 215.745 5
-3 9 -5 -124.978 188.555 10
-3 9 -5 426.631 208.133 4
3 -9 5 171.636 234.43 14
3 -9 6 175.212 147.247 2
3 -9 6 384.216 156.373 6
3 -9 6 605.294 270.155 5
-3 9 -6 250.46 179.097 10
3 -9 6 -53.7012 190.26 14
-3 9 -6 95.6367 161.4 4
3 -9 7 2542.52 399.923 14
3 -9 7 1856.63 306.169 2
3 -9 7 2537.08 417.817 5
-3 9 -7 2018.53 376.97 10
-3 9 -7 2001.14 363.018 4
3 -9 8 4616.51 545.88 14
-3 9 -8 6053.58 630.184 10
3 -9 8 4997.19 598.368 5
-3 9 -8 5136.82 590.623 4
3 -9 8 6049.43 562.016 2
3 -9 9 38.4974 126.697 2
-3 9 -9 93.0262 155.602 13
3 -9 9 -11.4632 218.415 5
-3 9 -9 -18.4812 147.494 10
3 -9 9 27.7902 218.837 14
-3 9 -9 -106.639 198.548 4
3 -9 10 133.834 221.124 14
3 -9 10 244.625 201.32 2
-3 9 -10 279.505 196.186 13
-3 9 -10 286.548 196.37 10
-3 9 -10 446.094 245.468 4
3 -9 11 30.3747 167.898 2
-3 9 -11 132.202 157.722 13
3 -9 11 106.833 202.315 14
-3 9 -11 341.822 204.524 10
-3 9 -11 542.007 279.026 4
3 -9 12 2635.4 452.249 2
-3 9 -12 2444.29 406.326 10
-3 9 -12 2152.44 389.138 13
3 -9 12 2204.64 431.045 14
-3 9 -12 2679.43 458.974 4
3 -9 13 830.045 301.466 14
3 -9 13 845.871 327.043 2
-3 9 -13 642.779 276.286 4
3 -9 14 147.164 210.397 2
-3 8 8 -0.52802 183.939 12
3 -8 -8 298.821 282.738 1
-3 8 7 284.241 256.4 7
-3 8 7 367.244 190.394 12
3 -8 -7 992.195 313.849 1
-3 8 6 410.754 184.416 7
-3 8 6 516.676 231.405 12
-3 8 6 594.633 212.431 10
3 -8 -6 923.724 327.798 1
-3 8 5 238.851 170.685 7
-3 8 5 -81.0583 176.753 12
-3 8 5 157.648 155.999 10
3 -8 -5 197.36 175.735 1
-3 8 4 11144.5 832.012 12
-3 8 4 11706.5 831.864 10
-3 8 4 10148.3 855.915 7
3 -8 -4 11548.6 897.313 1
-3 8 3 277.83 182.484 7
-3 8 3 533.338 213.861 12
3 -8 -3 509.475 260.142 6
3 -8 -3 625.035 246.333 1
-3 8 3 1018.16 280.623 10
-3 8 2 102.016 166.912 7
-3 8 2 188.255 156.711 12
3 -8 -2 -78.489 159.45 6
-3 8 2 152.831 167.873 10
3 -8 -2 237.536 211.493 1
3 -8 -1 527.321 229.797 1
-3 8 1 555.461 182.807 12
3 -8 -1 133.821 176.705 6
-3 8 1 65.7336 169.657 7
-3 8 1 386.176 225.893 10
3 -8 0 3678.87 461.528 1
-3 8 0 3480.09 372.643 12
3 -8 0 3810.88 446.307 6
3 -8 0 3351.51 450.569 5
-3 8 0 3752.63 460.743 10
-3 8 -1 3597.72 361.441 12
3 -8 1 3802.78 435.451 6
3 -8 1 3848.45 463.159 1
3 -8 1 2959.89 409.694 5
-3 8 -1 3075.35 435.583 10
-3 8 -2 39386.8 1319.06 12
3 -8 2 37068 1469.79 6
3 -8 2 33268.9 1513.34 5
-3 8 -2 35106.8 1587.26 10
-3 8 -2 34840.1 1536.94 4
3 -8 2 34625.5 1524.39 14
-3 8 -3 83121.7 2238.65 12
3 -8 3 77226.4 2628.19 5
-3 8 -3 74108.9 2652.62 10
-3 8 -3 74408.6 2585.72 4
3 -8 3 78332.9 2460.84 6
3 -8 3 79219.6 2634.63 14
3 -8 4 7157.26 527.056 6
-3 8 -4 6834.18 635.265 10
-3 8 -4 6769.71 616.287 4
3 -8 4 6547.51 462.916 2
3 -8 4 6377.16 603.172 5
3 -8 4 6995.21 612.484 14
3 -8 5 165.858 115.204 2
3 -8 5 611.192 183.021 6
3 -8 5 51.2851 164.765 5
-3 8 -5 551.465 243.994 10
-3 8 -5 292.803 184.069 4
3 -8 5 204.418 204.321 14
3 -8 6 8853.22 542.846 6
3 -8 6 8167.87 685.68 5
-3 8 -6 8189.87 700.414 10
-3 8 -6 9211.98 719.059 4
3 -8 6 9123.43 620.137 2
3 -8 6 8473.97 691.631 14
3 -8 7 580.135 237.427 14
3 -8 7 208.591 126.57 2
3 -8 7 579.946 248.717 5
-3 8 -7 454.727 208.877 10
-3 8 -7 150.252 142.245 4
3 -8 8 26.8146 153.187 14
3 -8 8 512.38 198.156 2
-3 8 -8 169.647 153.455 13
3 -8 8 446.267 256.319 5
-3 8 -8 373.414 210.39 10
-3 8 -8 619.926 215.662 4
3 -8 9 12178.4 894.487 14
-3 8 -9 13590.6 910.765 10
-3 8 -9 13469.4 826.705 13
-3 8 -9 12544.4 896.373 4
3 -8 9 14031 900.729 2
3 -8 10 -126.865 182.298 14
3 -8 10 -197.739 177.493 2
-3 8 -10 -186.862 188.974 13
-3 8 -10 17.3482 139.888 10
-3 8 -10 284.926 183.815 4
3 -8 11 5804.6 642.266 14
-3 8 -11 6905.93 601.928 13
-3 8 -11 6251.26 603.647 10
-3 8 -11 6377.43 664.593 4
3 -8 11 5817.25 619.345 2
3 -8 12 3158.79 499.152 14
3 -8 12 2917.39 461.28 2
-3 8 -12 3637.94 462.079 13
-3 8 -12 3538.32 471.619 10
-3 8 -12 4590.34 581.153 4
3 -8 13 789.274 282.458 2
3 -8 13 303.351 225.842 14
-3 8 -13 743.713 292.421 4
3 -8 14 411.084 232.107 2
3 -8 14 288.18 250.637 14
-3 8 -14 434.103 221.174 4
-3 7 9 3609.93 567.604 7
-3 7 9 3748.48 567.579 12
3 -7 -9 3481.81 563.394 1
-3 7 8 665.691 279.702 7
-3 7 8 353.204 244.412 12
3 -7 -8 1022.14 340.929 1
-3 7 7 8756.32 805.37 7
-3 7 7 9740.1 835.286 12
3 -7 -7 8017.92 786.297 1
-3 7 6 2417.45 417.685 7
-3 7 6 2728.23 443.727 12
-3 7 6 3520.37 430.879 10
3 -7 -6 2592.17 453.183 1
-3 7 5 6082.75 646.455 7
-3 7 5 6590.43 637.493 12
-3 7 5 8183.97 653.044 10
3 -7 -5 6899.08 669.25 1
-3 7 4 9676.71 783.965 7
3 -7 -4 10563.4 820.669 1
-3 7 4 11639.6 803.755 12
-3 7 4 9741.45 719.946 10
-3 7 3 2299.39 342.198 12
-3 7 3 1651.52 325.458 7
3 -7 -3 2215.69 370.79 1
-3 7 3 2011.71 336.901 10
-3 7 2 392.417 208.457 7
-3 7 2 504.304 175.202 12
3 -7 -2 1014.24 270.395 6
-3 7 2 671.923 232.048 10
3 -7 -2 719.679 243.134 1
-3 7 1 14357.1 888.782 7
3 -7 -1 14010.9 852.748 6
3 -7 -1 14376.9 902.411 1
-3 7 1 14686.1 900.58 10
-3 7 1 15512.6 824.111 12
-3 7 0 3666.42 442.018 7
3 -7 0 3590.59 404.387 6
3 -7 0 3584.1 433.772 5
-3 7 0 3660.08 438.915 10
3 -7 0 3647.65 434.7 1
-3 7 0 3375.25 345.556 12
-3 7 -1 4653.35 379.931 12
3 -7 1 4356.99 431.229 6
3 -7 1 4481.96 470.118 5
-3 7 -1 4069.38 471.536 10
3 -7 2 218.837 87.0076 2
3 -7 2 -148.672 228.253 14
-3 7 -2 175.002 84.3862 12
3 -7 2 84.1127 161.223 6
3 -7 2 97.3562 173.868 5
-3 7 -2 78.547 172.062 10
-3 7 -2 286.645 144.179 4
3 -7 3 1131.35 173.769 2
-3 7 -3 1534.64 180.635 12
3 -7 3 1465.5 240.539 6
3 -7 3 1393.91 273.906 5
-3 7 -3 1153.49 264.01 10
-3 7 -3 1458.9 286.996 4
3 -7 3 488.561 189.247 14
-3 7 -4 37115.2 1065.05 12
3 -7 4 35529.2 1268.28 6
3 -7 4 33070.3 1452.81 5
-3 7 -4 32247.7 1474.32 10
-3 7 -4 33731.5 1455.91 4
3 -7 4 34116.4 1248.46 2
3 -7 4 34188.3 1462.64 14
-3 7 -5 96743.4 2330.48 12
3 -7 5 102287 2702.2 6
3 -7 5 95406.9 3012.6 5
-3 7 -5 92019.9 3030.72 10
-3 7 -5 97983.9 3038.37 4
3 -7 5 95954.1 2803.26 2
3 -7 5 95254 3020.64 14
3 -7 6 8604.34 476.504 6
3 -7 6 7710.98 635.81 5
-3 7 -6 8933.21 688.246 10
-3 7 -6 7819.02 647.2 4
3 -7 6 8254.22 583.794 2
3 -7 6 7964.1 647.815 14
3 -7 7 4026.53 481.421 14
-3 7 -7 4419.67 411.581 13
-3 7 -7 3758.19 447.372 10
3 -7 7 3226.55 433.822 5
-3 7 -7 4466.36 493.587 4
3 -7 7 5158.63 475.452 2
-3 7 -8 1287.68 233.048 13
3 -7 8 1308.28 261.384 2
3 -7 8 1263.68 299.156 5
-3 7 -8 1351.74 279.71 10
3 -7 8 978.561 265.923 14
-3 7 -8 1520.68 321.605 4
-3 7 -9 2875.71 353.05 13
3 -7 9 2183.59 356.461 2
-3 7 -9 2361.92 359.542 10
3 -7 9 2283.55 383.839 14
-3 7 -9 2879.63 434.754 4
3 -7 10 78.6088 159.199 2
-3 7 -10 -44.4119 118.023 13
3 -7 10 -233.045 211.718 14
-3 7 -10 -59.4137 141.653 10
-3 7 -10 -90.8648 186.567 4
-3 7 -11 15164.7 897.188 13
-3 7 -11 16096.5 953.187 10
3 -7 11 16034.9 1057.94 14
-3 7 -11 14091 1005.22 4
3 -7 11 15422.9 1026.28 2
-3 7 -12 206.795 198.838 13
3 -7 12 45.1516 156.005 2
3 -7 12 -206.869 197.089 14
-3 7 -12 225.039 193.442 4
3 -7 13 -246.785 253.324 2
3 -7 13 320.376 250.641 14
-3 7 -13 57.7921 176.696 13
-3 7 -13 118.74 213.476 4
3 -7 14 405.27 289.193 14
3 -7 14 433.332 237.653 2
-3 7 -14 407.235 270.991 4
-3 6 10 15937.2 1190.9 7
-3 6 10 18400.3 1262.25 12
3 -6 -10 17299.9 1240.63 1
-3 6 9 989.314 333.629 7
-3 6 9 842.633 296.843 12
3 -6 -9 1024.72 335.177 1
-3 6 8 35424.6 1701.85 7
-3 6 8 31900.1 1630.72 12
3 -6 -8 32265.3 1663.41 1
3 -6 -7 17892.5 1148.04 1
-3 6 7 16926.4 1109.53 7
-3 6 7 17930.1 1125.15 12
-3 6 7 20355.2 1008.76 10
-3 6 6 599.566 260.626 7
-3 6 6 756.388 259.091 12
-3 6 6 960.783 223.236 10
3 -6 -6 555.708 217.58 1
3 -6 -5 13833 937.04 1
-3 6 5 13333.5 898.218 7
-3 6 5 14102.7 907.533 12
-3 6 5 14346 842.305 10
-3 6 4 8757.05 691.11 7
-3 6 4 8039.23 645.118 12
-3 6 4 8882.57 655.554 10
3 -6 -4 8216.47 685.896 1
-3 6 3 11076.8 778.226 7
3 -6 -3 11785.1 804.526 1
-3 6 3 13225.7 793.953 12
-3 6 3 11430.8 748.364 10
-3 6 2 2177.92 334.831 7
-3 6 2 2854.42 343.852 12
3 -6 -2 2612.86 366.649 1
-3 6 2 3024.48 382.897 10
-3 6 1 1091.34 224.021 7
-3 6 1 1576.11 246.155 12
3 -6 -1 988.176 218.667 6
3 -6 -1 1077.99 267.442 1
-3 6 1 1081.03 249.838 10
-3 6 0 7444.25 563.473 7
-3 6 0 6943.44 478.527 12
3 -6 0 7278.11 537.675 6
3 -6 0 6928.32 551.313 5
3 -6 0 6629.55 559.823 1
-3 6 0 6829.41 569.216 10
-3 6 -1 3466.98 311.137 12
3 -6 1 3606.35 364.627 6
3 -6 1 3490.89 382.504 5
3 -6 1 3395.59 226.362 2
-3 6 -1 3791.86 418.409 10
3 -6 1 3585.72 178.982 9
3 -6 1 3416.95 174.462 9
-3 6 -1 3622.02 404.471 4
-3 6 -1 4188.14 244.959 2
-3 6 -2 320.859 100.091 12
3 -6 2 -26.9918 147.137 14
3 -6 2 354.794 143.954 6
-3 6 -2 247.802 76.7269 2
3 -6 2 261.676 176.246 5
3 -6 2 148.685 79.2354 2
-3 6 -2 169.13 140.325 10
-3 6 -2 264.277 146.904 4
3 -6 2 152.051 73.3319 8
3 -6 3 281.505 100.12 2
3 -6 3 174.198 126.925 14
3 -6 3 329.277 144.995 6
3 -6 3 289.125 72.0642 8
-3 6 -3 419.892 105.319 12
3 -6 3 124.848 134.539 5
-3 6 -3 250.857 164.419 10
-3 6 -3 197.948 137.005 4
-3 6 -4 45919.2 1216.32 12
3 -6 4 44228.9 1369.82 6
3 -6 4 39639 1594 14
3 -6 4 41912.8 1591.1 5
-3 6 -4 41325.5 1636.93 10
-3 6 -4 42187.1 1615.2 4
3 -6 4 41567.4 1421.35 2
3 -6 4 40955.5 1071.21 8
-3 6 -5 26983.5 737.094 12
3 -6 5 26803.8 923.608 6
3 -6 5 26002.7 1186.62 5
-3 6 -5 24477 1189.95 10
-3 6 -5 26305.6 1208.1 4
3 -6 5 26714.9 1085.21 2
3 -6 5 26139.3 1211.93 14
-3 6 -6 20672.4 881.756 13
3 -6 6 22015 733.581 6
3 -6 6 20428 1047.24 5
-3 6 -6 18356.6 1007.94 10
-3 6 -6 20940.9 1065.9 4
3 -6 6 18736 937.085 2
3 -6 6 19440 1042.61 14
3 -6 7 285.507 184.84 14
3 -6 7 666.377 218.881 2
-3 6 -7 155.509 96.8921 13
3 -6 7 343.362 246.96 5
-3 6 -7 493.792 205.45 10
-3 6 -7 247.108 175.943 4
-3 6 -8 36158.5 1331.13 13
3 -6 8 35676.3 1536.44 14
-3 6 -8 36216.9 1491.46 10
-3 6 -8 34068.5 1511.93 4
3 -6 8 33880.2 1461.76 2
3 -6 9 22925.3 1207.22 14
-3 6 -9 22735.4 1018.41 13
-3 6 -9 22474.8 1102.71 10
3 -6 9 21996.7 1155.94 2
-3 6 -9 21631.3 1172.56 4
3 -6 10 6892.82 652.006 14
-3 6 -10 7027.59 552.098 13
-3 6 -10 7207.81 591.983 10
3 -6 10 7015.61 640.329 2
-3 6 -10 7311.04 674.133 4
3 -6 11 4967.81 572.672 14
-3 6 -11 5389.73 504.322 13
-3 6 -11 6456.83 541.3 10
3 -6 11 5132.79 574.049 2
-3 6 -11 4441.42 539.279 4
3 -6 12 4223.96 568.742 14
-3 6 -12 5661.33 542.756 13
3 -6 12 5249.26 613.796 2
-3 6 -12 5188.67 603.209 4
3 -6 13 1634.93 387.917 14
-3 6 -13 1121.38 273.931 13
3 -6 13 1198.19 310.742 2
-3 6 -13 918.424 299.759 4
3 -6 14 230.091 227.006 2
3 -6 14 -18.6487 244.079 14
-3 6 -14 -23.627 212.211 4
-3 5 11 -570.098 310.629 7
3 -5 -11 99.6091 273.618 1
-3 5 11 126.059 219.386 12
-3 5 10 368.262 182.225 7
-3 5 10 1285.49 356.223 12
3 -5 -10 1172.06 363.193 1
-3 5 9 8817.98 816.313 7
-3 5 9 9736.7 847.464 12
3 -5 -9 11081.8 905.829 1
-3 5 8 27871 1464.91 7
-3 5 8 31314.5 1534.42 12
3 -5 -8 29639.9 1520.57 1
-3 5 7 443.178 227.057 7
-3 5 7 1079.96 298.449 12
-3 5 7 827.792 193.999 10
3 -5 -7 553.645 260.119 1
-3 5 6 -27.7198 162.603 12
-3 5 6 177.271 233.785 7
-3 5 6 174.347 138.186 10
3 -5 -6 -47.6165 173.611 1
-3 5 5 7362.96 623.162 7
3 -5 -5 7249.32 632.23 1
-3 5 5 7211.29 608.485 12
-3 5 5 8457.01 591.401 10
-3 5 4 -123.583 173.141 7
-3 5 4 8.43264 147.031 12
3 -5 -4 -67.6899 159.855 1
-3 5 4 254.694 162.087 10
-3 5 3 9779.5 665.883 7
-3 5 3 9683.47 647.68 10
-3 5 3 8822.58 621.273 12
3 -5 -3 9532.94 681.462 1
3 -5 -3 9818.4 346.748 3
-3 5 2 -10.5884 157.023 7
-3 5 2 286.611 149.571 12
3 -5 -2 69.1039 54.6494 3
3 -5 -2 -66.2213 141.452 1
-3 5 2 227.806 154.692 10
-3 5 1 1815.85 265.176 7
3 -5 -1 1248.61 261.817 1
-3 5 1 1168.96 211.566 12
-3 5 1 1476.48 277.091 10
-3 5 0 22594.9 1005.23 7
-3 5 0 23149.2 944.458 12
-3 5 0 23042.9 1080.91 10
3 -5 0 22274.9 999.709 5
-3 5 0 24149.6 705.146 2
-3 5 -1 256.54 105.913 12
-3 5 -1 189.225 63.8659 2
3 -5 1 286.188 165.304 5
-3 5 -1 119.713 132.63 10
-3 5 -1 271.531 151.642 4
3 -5 1 297.957 64.3364 9
-3 5 -2 5445.28 349.275 12
3 -5 2 4948.34 419.914 5
-3 5 -2 4789.13 458.435 10
3 -5 2 4949.87 326.617 2
-3 5 -2 4576.3 432.394 4
-3 5 -2 5123.61 335.502 2
3 -5 2 4879.15 295.384 8
3 -5 2 4556.61 433.505 14
3 -5 3 200.277 99.9234 2
3 -5 3 -12.1655 169.795 14
3 -5 3 110.542 56.7338 8
-3 5 -3 87.7247 51.2334 12
3 -5 3 166.292 144.508 5
-3 5 -3 52.6772 132.127 10
-3 5 -3 16.9099 126.297 4
3 -5 4 11.3594 99.7917 2
3 -5 4 60.8754 34.5365 8
3 -5 4 -15.542 161.912 14
-3 5 -4 105.797 59.9614 12
3 -5 4 58.3667 134.294 5
-3 5 -4 107.36 163.248 10
-3 5 -4 45.0729 112.132 4
3 -5 5 2097.47 322.611 14
-3 5 -5 2524.52 246.988 13
3 -5 5 2174.51 303.067 5
-3 5 -5 2527.86 166.788 12
-3 5 -5 2767.64 350.334 10
-3 5 -5 1926.86 300.006 4
3 -5 5 2299.79 281.825 2
-3 5 -6 5057.16 361.948 13
-3 5 -6 4881.61 211.927 12
-3 5 -6 5425.1 226.604 12
3 -5 6 4933.26 470.411 5
-3 5 -6 4935.4 462.986 10
3 -5 6 5431.95 456.64 2
-3 5 -6 5283.96 484.274 4
3 -5 6 4901.4 474.481 14
3 -5 7 11596.3 767.201 14
-3 5 -7 12076.7 362.949 12
-3 5 -7 13610.9 778.399 10
3 -5 7 12451.6 751.015 2
-3 5 -7 12874.7 800.052 4
-3 5 -7 12715.8 635.006 13
-3 5 -8 20952.3 904.675 13
-3 5 -8 22292.2 1034.71 10
3 -5 8 21559.4 1101.15 14
3 -5 8 20231.5 1054.61 2
-3 5 -8 18512 1041.41 4
-3 5 -9 13484.7 725.094 13
-3 5 -9 13172.2 787.775 10
3 -5 9 12686.2 853.462 14
3 -5 9 13233.7 857.236 2
-3 5 -9 13887.6 893.405 4
3 -5 10 8934.79 739.002 14
-3 5 -10 7257.05 553.011 13
-3 5 -10 9690.13 638.876 10
3 -5 10 7743.04 680.367 2
-3 5 -10 7525.99 670.004 4
3 -5 11 210.461 194.248 14
-3 5 -11 115.683 123.568 13
3 -5 11 54.1232 160.758 2
-3 5 -11 229.872 132.065 10
-3 5 -11 115.834 173.731 4
3 -5 12 -125.687 207.462 14
-3 5 -12 -145.771 136.831 13
3 -5 12 -37.6302 208.777 2
-3 5 -12 184.605 170.114 4
3 -5 13 4389.76 578.215 14
-3 5 -13 4817.96 511.855 13
3 -5 13 5279.54 625.088 2
-3 5 -13 4909.17 606.081 4
3 -5 14 896.511 324.32 2
3 -5 14 510.634 274.165 14
-3 5 -14 67.3087 184.107 13
-3 5 -14 725.579 290.507 4
3 -5 15 -173.405 266.742 2
3 -5 15 -42.4059 221.894 14
-3 5 -15 74.6373 230.56 4
-3 4 12 6129.68 743.102 7
-3 4 12 6919.48 761.735 12
3 -4 -12 6386.87 729.619 1
-3 4 11 203.75 206.85 7
3 -4 -11 1220.86 378.79 1
-3 4 11 925.115 276.335 12
-3 4 10 25949.8 1450.38 7
-3 4 10 24834 1413.61 12
3 -4 -10 26303.7 1458.56 1
-3 4 9 13452.9 987.778 12
3 -4 -9 15128.8 1035.58 1
-3 4 9 15247.4 1021.03 7
-3 4 8 4250.57 521.936 7
-3 4 8 4203.25 516.874 12
-3 4 8 4254.34 390.126 10
3 -4 -8 4405.2 531.497 1
-3 4 7 2958.28 425.096 7
-3 4 7 3759.54 464.897 12
-3 4 7 3678.15 371.591 10
3 -4 -7 4213.54 503.673 1
3 -4 -6 36026.6 1541.99 1
-3 4 6 31902.4 1458.21 12
-3 4 6 35510.4 1487.55 7
-3 4 6 36484.2 1359.2 10
-3 4 5 8885.52 646.707 7
3 -4 -5 9235.33 683.213 1
-3 4 5 9666.46 687.675 12
-3 4 5 10047.3 627.752 10
-3 4 5 9637.89 296.697 9
-3 4 5 9268.88 294.631 9
3 -4 -4 1576.01 130.892 3
-3 4 4 1526.59 288.327 7
-3 4 4 1396.16 260.069 12
3 -4 -4 1176.27 243.332 1
-3 4 4 1282.53 251.803 10
-3 4 3 22852.9 1001.19 7
3 -4 -3 22442.1 710.806 3
-3 4 3 20553.6 989.99 12
3 -4 -3 20636.6 1018.15 1
-3 4 3 21045.6 975.134 10
3 -4 -2 13905.9 786.603 1
3 -4 -2 15188.1 574.716 3
-3 4 2 15043.6 771.87 12
-3 4 2 15691.3 797.823 10
-3 4 2 14505 745.347 7
-3 4 1 74058.3 2242.59 7
-3 4 1 73223.7 2240.61 12
3 -4 -1 77409.3 2068.45 3
3 -4 -1 74085.2 2343.48 1
-3 4 1 74100.6 2327.67 10
-3 4 1 78349.9 1888.87 2
-3 4 0 50327.2 1607.64 7
3 -4 0 48618.8 1614.99 5
-3 4 0 48720.6 1707.81 10
-3 4 0 49961.6 1590.65 12
-3 4 0 47539 1685.32 4
3 -4 0 51286.7 1295.32 9
-3 4 0 51735.1 1378.25 2
-3 4 -1 234.702 71.3229 2
-3 4 -1 -7.3202 69.3558 12
3 -4 1 -59.7733 55.1351 13
3 -4 1 49.1678 110.455 5
-3 4 -1 -28.2666 132.011 10
-3 4 -1 -174.518 152.691 4
3 -4 1 50.4322 58.1592 9
3 -4 1 137.788 84.7402 8
3 -4 2 222.79 72.9223 8
3 -4 2 310.903 77.3782 13
-3 4 -2 192.995 83.9395 12
-3 4 -2 254.336 85.6621 6
3 -4 2 133.246 126.34 14
3 -4 2 63.5134 120.973 5
-3 4 -2 133.339 152.553 10
-3 4 -2 517.447 172 4
3 -4 2 287.757 84.0304 9
3 -4 2 279.484 101.566 2
3 -4 3 48669.2 1316.71 13
-3 4 -3 47110.5 1332.05 6
3 -4 3 44325.4 1527.79 5
-3 4 -3 42611.8 1586.11 10
3 -4 3 43980.1 1446.8 2
-3 4 -3 43255 1576.7 4
-3 4 -3 47850.3 1285.88 8
3 -4 3 45946.4 1279.6 8
3 -4 3 43931.4 1589.89 14
3 -4 4 862.524 104.942 8
3 -4 4 860.725 177.426 2
3 -4 4 1113.41 241.185 5
-3 4 -4 592.368 190.606 10
3 -4 4 730.167 211.233 14
-3 4 -4 1076.24 112.294 8
-3 4 -4 883.891 192.79 4
3 -4 5 925.817 189.941 2
3 -4 5 745.208 218.385 14
-3 4 -5 1105.95 152.682 13
-3 4 -5 1165.79 219.831 10
3 -4 5 964.979 232.194 5
-3 4 -5 1205.58 114.501 8
-3 4 -5 1118.41 230.202 4
3 -4 6 31305.6 1299.37 14
-3 4 -6 30642.5 1047.06 13
-3 4 -6 32337.3 947.715 12
-3 4 -6 31097.4 1249.44 10
3 -4 6 30371.8 1251.83 2
-3 4 -6 29551.7 1281.85 4
-3 4 -6 31915.9 897.446 8
3 -4 7 28967.9 1294.69 14
-3 4 -7 30768.3 1092.49 13
-3 4 -7 32300.2 953.208 12
-3 4 -7 30890.2 1249.57 10
3 -4 7 29671.6 1280.9 2
-3 4 -7 31136.1 1326.48 4
-3 4 -7 30934.1 910.9 8
3 -4 8 6526.66 579.614 14
-3 4 -8 7163.27 465.649 13
-3 4 -8 6297.45 492.23 10
3 -4 8 6468.98 559.183 2
-3 4 -8 6183.18 555.104 4
-3 4 -8 7057.04 343.788 8
3 -4 9 2794.49 414.488 14
-3 4 -9 3098.79 327.635 13
3 -4 9 3325.86 414.54 2
-3 4 -9 3527.46 370.582 10
-3 4 -9 3691.02 455.782 4
-3 4 -9 3850.04 267.34 8
3 -4 10 3350.52 440.666 2
3 -4 10 3530.46 458.971 14
-3 4 -10 3143.4 359.87 13
-3 4 -10 3943.99 392.256 10
-3 4 -10 2863.8 413.783 4
3 -4 11 703.46 287.527 2
3 -4 11 1050.98 292.397 14
-3 4 -11 540.388 188.155 13
-3 4 -12 11245.6 767.743 13
3 -4 12 10803.4 878.611 2
-3 4 -12 11260.8 877.673 4
3 -4 12 11704.6 901.207 14
3 -4 13 5629.81 638.951 14
-3 4 -13 5526.79 559.107 13
3 -4 13 4632.15 597.332 2
-3 4 -13 5207.66 617.653 4
-3 4 -14 7396.48 684.672 13
3 -4 14 9253.46 860.846 14
3 -4 14 8660.27 836.885 2
-3 4 -14 7894.91 795.45 4
3 -4 15 468.003 271.988 2
3 -4 15 355.297 288.042 14
-3 4 -15 229.609 200.562 4
-3 3 13 11291.7 996.461 7
-3 3 13 11633.4 999.917 12
3 -3 -13 11928.3 1036.47 1
3 -3 -12 5075.17 651.866 1
-3 3 12 3940.94 586.589 7
-3 3 12 3780.64 560.677 12
3 -3 -11 915.856 282.086 1
-3 3 11 384.017 223.641 7
-3 3 11 585.682 257.544 12
-3 3 10 3191.68 471.804 7
-3 3 10 3255.26 464.534 12
-3 3 9 2494.67 404.53 7
-3 3 9 2944.79 445.211 12
3 -3 -9 3030.01 448.126 1
-3 3 8 20501.6 1120 7
-3 3 8 19581.1 1127.99 12
-3 3 8 22380.4 934.468 10
3 -3 -8 19503.8 1124.7 1
-3 3 7 8611.26 661.059 7
-3 3 7 8487.53 678.101 12
-3 3 7 8545.35 551.905 10
3 -3 -7 7273.67 634.463 1
-3 3 7 9094.02 419.4 2
3 -3 -6 40819.7 1171.6 3
-3 3 6 36410.4 1567.48 12
-3 3 6 37923.8 1527.89 7
-3 3 6 39249.4 1412.34 10
-3 3 6 41990.5 1190.32 9
-3 3 6 40560.6 1142.57 2
3 -3 -6 35164.4 1534.05 1
3 -3 -5 8518.19 398.101 3
-3 3 5 8644.97 602.854 7
3 -3 -5 8794.77 639.238 1
-3 3 5 8961.96 559.045 10
-3 3 5 9899.72 393.368 9
-3 3 5 9233.26 367.585 2
-3 3 5 8450.08 629.217 12
-3 3 4 256.272 142.421 7
-3 3 4 175.77 119.005 12
-3 3 4 335.892 62.6738 2
3 -3 -4 379.732 84.4011 3
-3 3 4 223.414 114.23 10
-3 3 4 392.738 64.7664 9
3 -3 -3 783.964 189.031 1
-3 3 3 677.962 170.55 7
-3 3 3 474.576 151.626 12
3 -3 -3 612.804 115.537 3
-3 3 3 781.926 177.015 10
-3 3 3 665.438 75.9186 9
-3 3 3 817.706 92.4305 2
-3 3 2 20174.8 837.631 7
3 -3 -2 19481.2 727.925 3
-3 3 2 19357.7 890.316 12
3 -3 -2 20101.4 923.708 1
-3 3 2 19515.2 891.973 10
-3 3 2 20594 633.284 2
-3 3 1 6052.07 396.185 7
3 -3 -1 6157.04 363.618 3
-3 3 1 5321.19 404.346 12
-3 3 1 5518.35 432.351 10
-3 3 1 5595.68 286.286 2
3 -3 -1 5920.87 264.962 9
-3 3 0 945.097 154.326 7
3 -3 0 659.645 146.143 5
-3 3 0 750.039 188.939 10
-3 3 0 1104.78 203.954 4
3 -3 0 916.452 114.447 9
-3 3 0 790.71 154.57 8
-3 3 0 1144.49 143.737 2
3 -3 1 120176 2836.3 13
3 -3 1 113358 3082.49 5
-3 3 -1 109462 3206.41 10
-3 3 -1 109999 3177.94 4
-3 3 -1 119013 3015.16 2
3 -3 1 112351 2933.58 9
-3 3 -1 116923 3006.1 8
3 -3 1 119465 3016.32 8
-3 3 -1 125157 3041.95 6
3 -3 2 3747.41 283.356 7
3 -3 2 3644.18 350.782 14
-3 3 -2 4037.32 261.234 6
3 -3 2 3153.78 298.364 5
-3 3 -2 3905.05 372.906 10
-3 3 -2 3245.1 332.803 4
3 -3 2 3586.16 184.069 13
3 -3 2 3444.24 265.347 9
-3 3 -2 3353.42 248.626 8
3 -3 2 3309.64 245.469 8
-3 3 -3 53698.2 1381.03 6
3 -3 3 49552.2 1671.26 14
3 -3 3 50150.2 1602.88 5
-3 3 -3 49125.5 1675.55 10
3 -3 3 49476.3 1584.78 2
-3 3 -3 48423.2 1654.36 4
3 -3 3 49581.5 1535.57 9
-3 3 -3 51298.1 1427.5 8
3 -3 3 51049.7 1428.15 8
-3 3 -4 4773.33 251.195 13
-3 3 -4 4928.23 207.249 6
-3 3 -4 4755.34 408.474 10
3 -3 4 4648.05 385.338 5
3 -3 4 4855.07 390.312 2
-3 3 -4 4820.67 415.495 4
3 -3 4 4879.79 415.293 14
-3 3 -4 4816.54 281.228 8
-3 3 -5 133.35 65.788 8
3 -3 5 8.57231 132.342 14
-3 3 -5 6.46144 56.5869 13
-3 3 -5 5.89176 50.2183 12
-3 3 -5 79.4901 116.123 10
-3 3 -5 -16.6401 107.944 4
3 -3 5 159.049 127.038 2
3 -3 6 29232.5 1221.65 14
-3 3 -6 28574.7 963.049 13
-3 3 -6 29860.5 976.75 12
-3 3 -6 27035.4 1129.12 10
3 -3 6 29335.9 1211.86 2
-3 3 -6 28853.7 1216.65 4
-3 3 -6 29920.5 940.703 8
3 -3 7 1498.76 275.419 2
3 -3 7 1240.87 269.671 14
-3 3 -7 1444.86 194.578 13
-3 3 -7 1539.69 178.516 12
-3 3 -7 1413.13 223.529 10
-3 3 -7 1431.43 269.329 4
-3 3 -7 1170.63 160.657 8
-3 3 -8 8869.1 524.973 13
-3 3 -8 8315.39 551.175 10
3 -3 8 8041.93 630.738 14
3 -3 8 8987.03 657.129 2
-3 3 -8 8093.27 626.905 4
-3 3 -8 8927.44 469.104 8
3 -3 9 493.844 226.99 2
-3 3 -9 655.211 130.647 8
3 -3 9 779.468 224.81 14
-3 3 -9 726.902 182.972 13
-3 3 -9 571.661 146.059 10
-3 3 -9 870.503 230.07 4
-3 3 -10 8445.89 544.462 10
3 -3 10 7333.99 656.362 2
-3 3 -10 6676.56 624.852 4
3 -3 10 8015.08 687.095 14
-3 3 -10 8135.09 505.855 8
3 -3 11 18484.8 1117.86 14
3 -3 11 18764.9 1138.02 2
-3 3 -11 18852.4 1113.71 4
-3 3 -11 21005.1 916.2 8
3 -3 12 114.877 176.67 2
3 -3 12 425.034 259.554 14
-3 3 -12 288.424 232.318 4
3 -3 13 1923.9 397.968 14
-3 3 -13 2204.54 411.226 4
3 -3 13 2832.41 470.686 2
3 -3 14 262.195 250.719 14
-3 3 -14 290.463 186.382 4
3 -3 15 2460.42 493.174 14
-3 3 -15 2889.13 535.241 4
3 -2 -13 769.969 311.528 1
-3 2 13 926.512 342.358 7
-3 2 13 795.865 283.241 12
3 -2 -12 1521.96 377.532 1
-3 2 12 1469.48 374.203 7
-3 2 12 1556.25 380.681 12
3 -2 -11 770.364 294.035 1
-3 2 11 784.208 249 7
-3 2 11 1093.89 313.6 12
-3 2 10 5862.6 609.194 7
-3 2 10 6559 647.905 12
3 -2 -10 6972.3 660.606 1
-3 2 9 487.555 128.93 2
-3 2 9 699.663 272.228 7
-3 2 9 896.471 263.092 12
3 -2 -9 382.486 212.294 1
-3 2 9 717.531 165.39 10
-3 2 8 258.118 112.824 2
-3 2 8 -4.20248 163.527 7
-3 2 8 246.941 166.213 12
3 -2 -8 177.958 155.987 1
-3 2 8 159.594 121.685 10
3 -2 -7 2393.22 234.375 3
-3 2 7 1756.16 301.489 7
-3 2 7 1963.93 319.789 12
-3 2 7 1721.5 226.038 10
3 -2 -7 1778.09 314.169 1
-3 2 7 1745.41 201.594 2
-3 2 6 14089.9 797.897 7
3 -2 -6 13845.4 828.734 1
-3 2 6 16803.2 659.652 3
-3 2 6 13070.4 838.382 12
-3 2 6 15671.3 747.453 10
-3 2 6 15849.3 642.043 9
-3 2 6 16585.4 645.211 2
3 -2 -6 14858.7 634.88 3
3 -2 -5 36196.2 1163.1 3
-3 2 5 36184.1 1361.64 7
-3 2 5 38879.6 1186.55 3
-3 2 5 33635.2 1428.15 12
3 -2 -5 37007.5 1422.94 1
-3 2 5 34728.3 1296.03 10
-3 2 5 38399.5 1144 9
-3 2 5 38210.5 1138.58 2
-3 2 4 7190.39 472.101 7
3 -2 -4 6305.89 496.186 1
-3 2 4 6613.99 518.068 12
-3 2 4 6781.69 473.061 10
3 -2 -4 7171.24 397.899 3
-3 2 4 7610.78 361.695 9
-3 2 4 7200.58 360.785 2
-3 2 3 3081.08 283.23 7
3 -2 -3 3731.61 279.475 3
-3 2 3 3238.14 341.894 12
3 -2 -3 3352.27 338.222 1
-3 2 3 3802.63 232.45 9
-3 2 2 8035.24 437.427 7
3 -2 -2 8002.36 430.476 3
3 -2 -2 7187.49 487.659 1
3 -2 -2 7483.1 349.525 9
-3 2 2 7713.46 355.993 9
-3 2 2 7198.36 475.051 8
-3 2 1 15338.1 627.924 7
3 -2 -1 17169.5 655.347 7
3 -2 -1 15079 662.894 3
3 -2 -1 16279.2 642.436 5
3 -2 -1 15853.6 586.002 9
-3 2 1 17067.3 598.659 9
-3 2 1 15989.8 705.801 8
-3 2 0 5300.13 306.071 7
3 -2 0 5179.45 305.281 7
3 -2 0 5274.35 329.092 5
-3 2 0 5110.26 390.171 4
-3 2 0 5369.17 330.399 2
3 -2 0 4705.45 292.61 9
-3 2 0 4855.28 343.006 8
3 -2 1 34712.2 996.336 7
3 -2 1 32160.6 1057.98 5
-3 2 -1 30806.4 1142.64 4
3 -2 1 32595.7 1048.69 9
-3 2 -1 31748.3 1062.72 8
3 -2 1 32423.7 1154.2 14
3 -2 2 7161.47 340.89 7
3 -2 2 6708.77 406.266 5
-3 2 -2 6734.76 444.561 4
3 -2 2 6208.38 390.265 9
-3 2 -2 6713.33 380.759 8
3 -2 2 6701.55 379.94 8
3 -2 2 6457.91 449.372 14
3 -2 3 19632.2 667.149 7
-3 2 -3 17737.5 502.416 13
-3 2 -3 19526.9 598.669 6
-3 2 -3 17845.3 811.928 4
3 -2 3 17878.3 763.504 9
-3 2 -3 19396.5 716.865 8
3 -2 3 19311.7 711.663 8
3 -2 3 19470.7 836.519 14
-3 2 -4 3490.27 192.852 13
-3 2 -4 3379.92 152.337 6
3 -2 4 3135.14 327.494 2
-3 2 -4 3590.04 344.568 4
3 -2 4 3543.87 323.626 9
-3 2 -4 3896.71 283.508 8
3 -2 4 3650.26 344.725 14
3 -2 5 1050.37 216.924 14
-3 2 -5 1403.38 148.441 13
-3 2 -5 1227.19 171.686 8
-3 2 -5 1154.22 214.507 10
-3 2 -5 1339.84 230.309 4
3 -2 5 1782.64 269.488 2
-3 2 -6 28742.5 1113.68 10
3 -2 6 27361 1178.51 2
-3 2 -6 26008.3 1139.87 4
3 -2 6 29038.9 1180.53 14
-3 2 -6 29239.8 1004.73 8
-3 2 -7 18090.6 820.546 10
3 -2 7 16610.6 885.421 14
3 -2 7 15370 883.216 2
-3 2 -7 15729.4 865.283 4
-3 2 -7 18500.2 756.215 8
3 -2 8 6682.67 565.328 14
-3 2 -8 7392.45 492.015 10
3 -2 8 6604.91 569.213 2
-3 2 -8 7526.93 588.007 4
-3 2 -8 7312.03 467.853 8
3 -2 9 323.93 201.266 14
-3 2 -9 90.4212 111.792 10
3 -2 9 -4.56445 129.959 2
-3 2 -9 19.9613 86.3564 8
-3 2 -9 46.4483 127.148 4
3 -2 10 1035.7 288.702 14
-3 2 -10 1456.23 230.949 10
3 -2 10 1107.23 280.546 2
-3 2 -10 836 255.803 4
3 -2 11 17480.2 1103.79 2
-3 2 -11 18101.8 1084.38 4
3 -2 11 20508.9 1157.08 14
3 -2 12 141.817 197.106 14
-3 2 -12 -168.683 218.897 4
3 -2 12 14.597 194.616 2
3 -2 13 7688.93 751.926 14
3 -2 13 6518.51 713.381 2
-3 2 -13 7531.69 735.894 4
3 -2 14 300.122 231.766 14
-3 2 -14 656.886 262.436 4
3 -2 14 644.735 288.93 2
3 -2 15 559.016 328.459 14
-3 1 14 829.658 333.718 7
-3 1 14 992.357 329.367 12
3 -1 -14 876.959 313.426 1
-3 1 13 1534.59 396.305 7
-3 1 13 314.184 179.688 12
3 -1 -13 1126.39 340.502 1
3 -1 -12 1651.09 400.605 1
-3 1 12 1566.01 381.438 7
-3 1 12 1167.19 327.217 12
3 -1 -11 304.273 203.467 1
-3 1 11 -18.6637 109.826 2
-3 1 11 543.653 316.026 7
-3 1 11 274.186 195.859 12
3 -1 -10 3691.25 477.781 1
-3 1 10 3454.84 459.91 7
-3 1 10 3895.73 503.403 12
-3 1 10 4503.55 403.728 2
-3 1 9 184.13 203.077 7
-3 1 9 118.259 83.0997 2
-3 1 9 326.149 183.978 12
3 -1 -9 -265.95 204.653 1
-3 1 9 89.7231 102.432 10
3 -1 -8 23.5337 109.32 3
-3 1 8 -114.116 148.712 12
-3 1 8 34.0403 89.5421 2
-3 1 8 292.887 203.214 7
3 -1 -8 -68.9548 135.21 1
-3 1 8 181.369 117.288 10
3 -1 -7 883.924 153.265 3
-3 1 7 1044.27 216.889 12
-3 1 7 1066 173.22 2
3 -1 -7 916.551 228.246 1
-3 1 7 1472.65 272.849 7
-3 1 6 1431.52 255.222 7
-3 1 6 1863.79 306.804 12
3 -1 -6 1297.2 186.315 3
-3 1 6 1366.1 196.164 2
3 -1 -6 1150.12 228.35 1
3 -1 -5 28.1702 116.696 1
-3 1 5 198.667 145.559 7
-3 1 5 -89.1612 127.007 12
3 -1 -5 111.018 99.6422 3
-3 1 5 172.377 84.0833 2
3 -1 -4 10733.2 544.969 3
-3 1 4 10891.7 566.943 7
3 -1 -4 11592.4 632.417 1
-3 1 4 11342.9 513.924 9
-3 1 4 10939 636.642 8
3 -1 -3 1695.57 244.022 1
-3 1 3 1797.14 206.406 7
3 -1 -3 1733.71 208.123 3
-3 1 3 1801.5 183.1 9
3 -1 -3 1632.65 181.543 9
-3 1 3 1468.68 233.294 8
3 -1 -2 -36.1096 97.6868 1
-3 1 2 -56.4035 92.6943 7
3 -1 -2 -65.4581 113.431 3
3 -1 -2 -3.02722 67.7662 9
-3 1 2 1.08031 66.879 9
-3 1 2 6.85301 113.696 8
-3 1 1 3088.92 210.331 7
3 -1 -1 3636.07 307.19 3
3 -1 -1 3330.22 218.959 5
3 -1 -1 3439.95 261.08 9
-3 1 1 3216.7 251.573 9
-3 1 1 3521.43 311.983 8
-3 1 0 3391.56 189.738 7
3 -1 0 3059.07 299.035 3
3 -1 0 3179.27 220.428 5
-3 1 0 3120.14 274.497 4
3 -1 0 3124 263.464 9
-3 1 0 3273.68 258.432 9
-3 1 0 2966.5 277.09 8
3 -1 1 301461 6842.48 7
3 -1 1 289940 7140.32 14
-3 1 -1 303581 7002.85 5
3 -1 1 297902 7001.37 5
-3 1 -1 282305 7130.13 4
3 -1 1 291208 7114.57 9
-3 1 -1 291293 7111.85 8
3 -1 2 23447 661.65 7
-3 1 -2 23550.8 820.469 5
-3 1 -2 22112.3 875.093 4
3 -1 2 22082.3 879.046 9
3 -1 2 22404.4 886.172 14
-3 1 -2 22467.7 843.546 8
3 -1 3 1967.12 236.33 14
3 -1 3 1645.23 219.721 9
-3 1 -3 2220.58 247.141 4
-3 1 -3 2356.82 232.036 8
-3 1 -4 1125.94 181.646 8
3 -1 4 1393.98 221.964 14
3 -1 4 947.112 191.164 9
-3 1 -4 1481.74 217.671 4
-3 1 -5 1810.02 217.961 8
-3 1 -5 1688.75 113.806 6
3 -1 5 1667.17 251.459 14
3 -1 5 1539.14 241.745 9
-3 1 -5 1406.46 231.753 4
3 -1 6 6356.69 490.965 14
-3 1 -6 6377.73 239.313 6
3 -1 6 6314.04 513.685 2
-3 1 -6 6055.32 471.44 4
3 -1 6 5989.57 495.246 9
-3 1 -6 6531.13 440.888 8
3 -1 7 3831.56 402.335 14
3 -1 7 3748.82 416.783 2
-3 1 -7 3220.45 360.499 4
-3 1 -7 3399.88 332.147 8
-3 1 -8 10285.2 582.557 10
3 -1 8 9117.99 691.738 2
-3 1 -8 9804.02 673.785 4
3 -1 8 9232.86 663.994 14
-3 1 -8 10455.5 611.922 8
3 -1 9 1307.25 279.398 14
-3 1 -9 1630.32 229.3 10
-3 1 -9 1421.21 281.961 4
3 -1 9 1415.07 306.841 2
3 -1 10 1429.15 304.81 14
-3 1 -10 1247.98 254.133 4
3 -1 10 1366.63 325.176 2
3 -1 11 519.944 251.806 14
-3 1 -11 384.107 243.425 4
3 -1 11 457.125 213.411 2
3 -1 12 3977.92 536.521 14
-3 1 -12 4266.79 538.043 4
3 -1 12 3790.89 514.225 2
3 -1 13 44.8453 223.903 14
-3 1 -13 -341.723 240.498 4
3 -1 13 66.3104 213.557 2
3 -1 14 5436.8 675.082 14
-3 1 -14 6474.41 704.443 4
3 -1 14 5766.58 693.368 2
-3 0 15 718.666 315.482 12
3 0 -15 1157.21 347.276 1
-3 0 14 -75.947 168.15 12
3 0 -14 379.684 247.066 1
-3 0 13 11624.5 787.43 2
3 0 -13 10824 908.466 1
-3 0 12 459.614 178.691 2
-3 0 12 452.102 236.702 12
3 0 -12 106.478 183.342 1
3 0 -11 3823.56 495.459 1
-3 0 11 3086.01 369.046 2
-3 0 11 3783.11 485.777 12
-3 0 10 253.143 141.178 2
-3 0 10 259.24 171.804 12
3 0 -10 69.913 103.101 11
-3 0 10 48.6585 83.4504 10
3 0 -10 137.746 153.208 1
-3 0 9 5583.43 552.585 12
3 0 -9 7112.31 519.574 3
-3 0 9 6781.55 510.199 2
3 0 -9 7678.85 611.281 1
3 0 -8 203.725 108.306 3
-3 0 8 139.125 138.477 12
3 0 -8 137.985 121.989 1
-3 0 8 -57.9917 97.8509 2
3 0 -7 -120.608 124.959 3
-3 0 7 -12.0972 109.778 12
-3 0 7 98.5548 91.8912 2
3 0 -7 58.8745 130.755 1
3 0 -6 4479.38 396.363 1
3 0 -6 4029.12 339.312 3
-3 0 6 3404.06 386.231 12
-3 0 6 3522.56 320.821 2
3 0 -5 2021.69 257.817 3
3 0 -5 1836.37 236.816 1
-3 0 5 2535.3 312.113 8
3 0 -4 160.505 109.894 1
3 0 -4 94.3837 113.732 3
3 0 -4 119.246 84.034 9
-3 0 4 65.2491 132.046 8
3 0 -3 400.732 134.224 3
3 0 -3 547.578 152.153 1
3 0 -3 293.623 108.422 9
-3 0 3 221.244 117.144 8
3 0 -2 4002.95 239.45 13
3 0 -2 3822.98 323.724 3
3 0 -2 3415.46 285.93 1
3 0 -2 3726.14 182.756 5
3 0 -2 3514.49 293.834 9
-3 0 2 3841.12 236.56 7
-3 0 2 4083.86 348.516 8
-3 0 1 40930.6 1067.6 7
3 0 -1 40210.2 1077.41 13
3 0 -1 39636.3 1344.6 3
3 0 -1 42079.6 1062.45 5
3 0 -1 38798.7 1280.48 9
-3 0 1 37625.3 1324.52 8
3 0 0 21945.6 896.895 3
-3 0 0 21919.3 798.786 4
3 0 0 23131.2 810.187 4
3 0 0 21368.4 845.129 9
-3 0 0 21794.8 659.602 5
-3 0 0 20781 855.953 8
3 0 0 21036.6 783.255 14
-3 0 -1 45259.8 1121.63 13
3 0 1 45403.2 1506.23 3
-3 0 -1 49022.1 1292.38 5
-3 0 -1 44334.9 1378.78 4
3 0 1 45833.3 1463.67 9
-3 0 -1 45204.7 1457.29 8
3 0 1 47409 1397.87 14
-3 0 -2 36222.8 931.876 13
-3 0 -2 36704.1 1106.29 5
-3 0 -2 34661.6 1152.17 4
3 0 2 34352.6 1237.34 9
-3 0 -2 34617.6 1207.96 8
3 0 2 35191.8 1160.86 14
3 0 3 32498.2 1106.06 14
-3 0 -3 31671.9 1105.97 4
3 0 3 31035.4 1183.05 9
-3 0 -3 32001.6 1139.29 8
-3 0 -4 -63.0244 103.144 8
3 0 4 -169.52 153.266 9
-3 0 -4 -172.556 109.391 4
-3 0 -5 41733.8 1176.02 6
3 0 5 40622.4 1408.56 14
-3 0 -5 38382.6 1384.49 4
3 0 5 39355 1480.6 9
-3 0 -5 41474.7 1407.77 8
3 0 6 7907.63 547.015 14
-3 0 -6 8736.14 391.909 6
-3 0 -6 8150.6 546.699 4
3 0 6 8016.74 587.904 9
-3 0 -6 8220.16 542.837 8
-3 0 -7 103.252 120.09 8
3 0 7 124.146 149.313 14
-3 0 -7 -22.1181 51.9429 6
3 0 7 187.395 155.66 9
-3 0 -7 -72.9664 140.347 4
-3 0 -8 3005.22 357.965 8
3 0 8 2920.61 371.206 14
-3 0 -8 3742.15 260.939 6
-3 0 -8 3948.11 419.722 4
3 0 8 3455.05 421.703 9
3 0 9 78.7688 193.09 14
3 0 9 221.456 127.957 11
3 0 9 103.348 179.707 9
-3 0 -9 346.515 194.13 4
3 0 10 29093.7 1362.93 14
3 0 10 27227.3 1367.49 9
-3 0 -10 25745.9 1294 4
3 0 11 1989.66 377.375 14
3 0 11 2492.69 418.522 9
-3 0 -11 2019.66 375.597 4
3 0 12 3519.97 483.675 14
3 0 12 3101.45 476.179 9
-3 0 -12 3240.69 471.545 4
3 0 13 975.501 331.54 14
3 0 13 1345.83 358.936 9
-3 0 -13 1193.09 346.263 4
3 0 14 146.117 178.891 9
-3 0 -14 307.342 238.948 4
-3 -1 15 634.574 229.32 12
3 1 -15 892.362 313.098 1
-3 -1 14 1123.86 280.423 2
-3 -1 14 896.272 294.301 12
3 1 -14 1636.8 375.346 1
-3 -1 13 358.271 165.331 2
-3 -1 13 576.909 226.632 12
3 1 -13 387.138 213.383 1
-3 -1 12 7659.25 710.671 12
3 1 -12 8022.1 720.767 1
-3 -1 12 9214.74 694.558 2
-3 -1 11 37941.5 1706.54 12
3 1 -11 41886.8 1723.22 1
-3 -1 11 39454.8 1594.92 2
3 1 -10 972.768 255.98 1
3 1 -10 893.105 225.661 3
-3 -1 10 695.112 209.692 12
-3 -1 10 920.955 225.511 2
3 1 -10 742.062 183.453 11
3 1 -9 4881.08 442.694 3
-3 -1 9 5147.33 516.791 12
3 1 -9 5341.8 422.052 11
3 1 -9 4799.91 471.979 1
-3 -1 9 4911.09 462.926 2
3 1 -8 392.169 166.788 1
3 1 -8 664.33 179.533 3
-3 -1 8 360.028 178.939 12
3 1 -8 851.853 186.972 11
-3 -1 8 956.422 210.583 2
3 1 -7 1905 263.163 3
-3 -1 7 1865.41 293.51 12
3 1 -7 2434.9 295.207 1
-3 -1 7 1538.51 239.673 2
-3 -1 7 1834.86 297.628 8
3 1 -6 7588.26 509.649 3
-3 -1 6 6948.35 538.656 8
3 1 -6 8231.47 509.552 1
3 1 -5 4417.97 344.914 1
3 1 -5 3978.49 338.401 13
3 1 -5 4396.58 379.04 3
3 1 -5 4382.02 366.282 9
-3 -1 5 4380.56 407.95 8
3 1 -4 9431.9 486.94 1
3 1 -4 9614.7 562.862 3
3 1 -4 9174.57 492.045 13
3 1 -4 8629.54 510.987 9
-3 -1 4 8330.4 563.582 8
3 1 -3 1321.96 161.344 13
3 1 -3 1518.16 227.655 3
3 1 -3 1233.6 198.922 9
3 1 -3 1289.14 168.372 1
3 1 -3 1422.85 176.007 4
-3 -1 3 1323.94 223.531 8
3 1 -2 15051.1 576.768 13
3 1 -2 14984.9 733.701 3
3 1 -2 16448.9 623.67 1
3 1 -2 16436.5 630.034 4
3 1 -2 14413.9 694.528 9
-3 -1 2 15300.3 739.766 8
3 1 -1 42429.5 1188.33 13
3 1 -1 42222.3 1439.05 3
3 1 -1 43290.3 1258.21 4
3 1 -1 42485.6 1404.52 9
-3 -1 1 42344.2 1063.27 7
-3 -1 1 43949.3 1440.29 8
-3 -1 0 6533 298.12 13
3 1 0 6125.57 445.837 3
3 1 0 6683.98 349.388 14
-3 -1 0 6297.34 257.882 5
-3 -1 0 6373.55 344.85 4
3 1 0 5956.8 431.443 9
3 1 0 6296.5 340.369 4
-3 -1 0 6169.95 438.455 8
-3 -1 -1 1050.81 196.34 8
3 1 1 1347.04 157.59 14
-3 -1 -1 1706.4 143.711 13
-3 -1 -1 1672.53 150.886 5
3 1 1 1726.67 268.795 3
3 1 1 1718.21 178.763 4
3 1 1 1249.34 212.384 9
-3 -1 -1 1490.77 167.982 4
3 1 2 21238.5 793.025 14
-3 -1 -2 23501.9 730.233 13
3 1 2 21341 946.42 3
-3 -1 -2 22669.7 809.98 14
-3 -1 -2 21826.8 799.299 4
3 1 2 20331.4 921.523 9
3 1 2 23091.3 813.936 4
-3 -1 -2 21178.2 911.141 8
3 1 3 70860.9 1760.98 7
3 1 3 72556.8 2012.24 14
-3 -1 -3 70208.5 1996.14 4
3 1 3 68787.6 2175.63 9
-3 -1 -3 71234.1 2142.16 8
3 1 4 56.9401 104.225 14
3 1 4 -24.662 59.2237 7
-3 -1 -4 -53.5805 114.751 8
3 1 4 -2.93146 152 9
-3 -1 -4 -157.362 109.991 4
3 1 5 11831.6 637.052 14
3 1 5 11947.1 520.388 7
-3 -1 -5 11712.6 548.594 6
3 1 5 11232.2 705.138 9
-3 -1 -5 12087.4 636.401 4
-3 -1 -5 11770.6 677.683 8
-3 -1 -6 2559.48 322.306 8
3 1 6 2489.45 306.417 14
3 1 6 2796.13 268.648 7
-3 -1 -6 2810.86 255.401 6
3 1 6 2208.88 293.283 11
3 1 6 2538.8 348.923 9
-3 -1 -6 2431.78 296.78 4
3 1 7 26243.5 1132.75 14
3 1 7 25930.1 1009.89 7
-3 -1 -7 25600.7 939.819 6
3 1 7 26442.5 1053.83 11
3 1 7 25080.8 1207.55 9
-3 -1 -7 24778.4 1113.71 4
-3 -1 -7 26192 1164.91 8
3 1 8 12264.8 768.491 14
3 1 8 11644.9 680.569 7
-3 -1 -8 13852.6 634.177 6
3 1 8 13022.6 675.917 11
3 1 8 11501.5 801.075 9
-3 -1 -8 11785.4 745.959 4
3 1 9 7785.64 641.639 14
3 1 9 7647.78 577.406 7
-3 -1 -9 8367.59 496.506 6
3 1 9 7589.89 670.87 9
-3 -1 -9 7564.15 614.844 4
3 1 10 -240.354 186.722 14
3 1 10 -45.4079 150.971 7
3 1 10 -51.2766 171.494 9
-3 -1 -10 98.3018 166.281 4
3 1 11 736.259 266.369 14
3 1 11 942.2 259.888 7
3 1 11 217.173 203.632 9
-3 -1 -11 393.245 203.53 4
3 1 12 7838.52 743.874 14
3 1 12 7973.88 769.321 9
-3 -1 -12 7713.33 735.464 4
3 1 13 -59.8948 216.729 9
-3 -1 -13 75.1211 179.588 4
-3 -1 -14 350.825 227.226 4
-3 -2 16 111.343 222.715 12
3 2 -16 -323.2 275.239 1
-3 -2 15 -120.668 173.573 2
-3 -2 15 216.137 185.929 12
3 2 -15 91.0006 228.182 1
-3 -2 14 610.901 193.899 2
-3 -2 14 681.425 259.09 12
3 2 -14 1083.44 333.948 1
-3 -2 13 117.95 132.95 2
-3 -2 13 114.997 136.16 12
3 2 -13 27.4926 190.626 1
-3 -2 12 4804.96 545.155 12
3 2 -12 4315.86 515.446 1
-3 -2 12 5168.46 540.645 2
-3 -2 11 12367.5 865.033 12
3 2 -11 13317.6 854.142 1
3 2 -11 12956.3 682.76 11
-3 -2 11 13507.9 861.274 2
-3 -2 10 17346.1 1027.14 12
3 2 -10 17971 855.423 11
3 2 -10 18746.9 999.056 3
3 2 -10 18698.7 985.784 1
-3 -2 10 19268.8 1016.58 2
3 2 -9 8024.33 622.502 13
-3 -2 9 8250.62 665.202 12
3 2 -9 8770.65 565.331 11
3 2 -9 8777.48 641.249 3
3 2 -9 8361.18 600.059 1
-3 -2 9 9808.04 668.793 2
3 2 -8 983.266 209.23 1
3 2 -8 791.263 213.089 13
3 2 -8 768.479 207.346 3
3 2 -8 1231.62 221.673 11
-3 -2 8 573.672 186.361 2
-3 -2 8 633.628 213.87 8
3 2 -7 -114.919 120.467 13
3 2 -7 -33.5447 99.3986 1
3 2 -7 71.6858 123.89 3
3 2 -7 36.8916 106.776 11
-3 -2 7 101.058 125.11 2
-3 -2 7 -16.753 146.311 8
3 2 -6 604.494 179.541 13
3 2 -6 244.342 106.501 1
3 2 -6 338.843 147.713 3
3 2 -6 650.177 192.722 11
3 2 -6 291.19 78.1027 5
-3 -2 6 345.43 164.885 8
3 2 -5 16632.2 837.082 3
3 2 -5 16557.8 762.988 13
3 2 -5 17669.2 850.454 11
3 2 -5 17870.5 536.171 5
3 2 -5 17259.2 821.142 9
-3 -2 5 15815.2 842.296 8
3 2 -5 17654.1 709.351 1
3 2 -4 9163.99 586.361 3
3 2 -4 10042.5 463.262 1
3 2 -4 9619.11 516.753 13
3 2 -4 9203.18 593.331 11
3 2 -4 9560.74 575.716 9
-3 -2 4 9939.76 608.414 8
3 2 -3 5281.16 433.363 3
3 2 -3 5289.94 348.757 13
3 2 -3 6076.47 317.421 1
3 2 -3 6225.27 330.814 4
3 2 -3 4761.99 403.174 9
-3 -2 3 5560.81 447.839 8
-3 -2 2 20574.6 734.776 13
3 2 -2 19105.4 861.883 3
3 2 -2 18397.4 630.027 1
3 2 -2 18497.4 629.19 4
3 2 -2 16910.1 815.469 9
3 2 -2 18199.7 702.844 13
-3 -2 2 16281.4 816.971 8
-3 -2 1 10201.2 342.008 7
-3 -2 1 10528.6 469.214 13
3 2 -1 9576.89 593.14 3
3 2 -1 8355.35 550.568 9
3 2 -1 9641.68 393 4
-3 -2 1 9253.56 571.47 8
3 2 -1 9658.04 397.517 14
-3 -2 0 76847.8 2005.3 13
3 2 0 71397.1 2228.65 3
-3 -2 0 72732.8 1907.58 4
3 2 0 68611.3 2196.22 9
3 2 0 77567.5 1916.67 4
-3 -2 0 70990.6 2213.1 8
3 2 0 75647 1915.9 14
-3 -2 -1 6671.94 366.43 13
3 2 1 4960.93 429.028 3
3 2 1 6802.93 500.625 11
3 2 1 6740.72 361.468 1
-3 -2 -1 6124.88 323.172 4
3 2 1 6113.94 470.868 9
3 2 1 6993.75 336.586 4
3 2 1 6600.93 330.21 14
-3 -2 -1 5710.96 443.45 8
3 2 2 10298.9 465.766 14
3 2 2 10117.6 619.732 3
3 2 2 10316.2 624.185 11
3 2 2 10254.4 502.461 1
-3 -2 -2 9608.15 454.887 4
3 2 2 9239.62 597.823 9
-3 -2 -2 9737.26 602.603 8
-3 -2 -2 10846.7 478.331 14
3 2 3 2518.99 232.791 14
-3 -2 -3 2081.13 296.023 8
3 2 3 2518.83 183.153 7
3 2 3 2541.89 312.743 11
3 2 3 2426.53 309.187 3
-3 -2 -3 2174.11 221.57 4
3 2 3 2275.78 303.252 9
-3 -2 -4 -139.644 114.261 8
3 2 4 110.025 94.6614 14
3 2 4 32.6204 75.0623 7
3 2 4 31.8218 140.113 11
3 2 4 -19.1247 116.548 3
3 2 4 -40.7382 153.327 9
-3 -2 -4 -68.9066 87.231 4
3 2 5 34047.6 1128.86 7
3 2 5 35467 1248.95 14
3 2 5 33161.7 1351.9 3
-3 -2 -5 34717 1208.29 6
3 2 5 35509.5 1311.64 11
3 2 5 32530.6 1381.01 9
-3 -2 -5 33496.6 1222.38 4
-3 -2 -5 33467.3 1358.47 8
3 2 6 13059.3 704.777 14
-3 -2 -6 12451.3 641.323 6
3 2 6 12352.5 687.9 11
3 2 6 11662.7 620.188 7
3 2 6 10994.8 756.169 9
-3 -2 -6 13048.7 705.421 4
-3 -2 -6 13064.7 781.371 8
-3 -2 -7 -79.6545 143.611 8
3 2 7 206.044 166.472 14
3 2 7 182.061 100.785 7
-3 -2 -7 181.319 122.266 6
3 2 7 -38.4754 104.875 11
3 2 7 226.659 188.451 9
-3 -2 -7 70.8087 121.212 4
3 2 8 6553.14 559.394 14
3 2 8 7696.2 556.956 7
-3 -2 -8 7760.44 516.536 6
3 2 8 7791.98 523.079 11
3 2 8 6589.15 615.505 9
-3 -2 -8 7890.9 597.07 4
3 2 9 14961.4 903.263 14
3 2 9 14898.4 832.281 7
-3 -2 -9 15481.5 783.628 6
3 2 9 13581.9 939.189 9
-3 -2 -9 14815.4 895.351 4
3 2 10 -70.4909 133.447 7
3 2 10 123.823 240.114 9
-3 -2 -10 178.015 186.143 4
3 2 11 769.42 267.209 9
-3 -2 -11 1598.84 348.874 4
3 2 12 7468.34 763.333 9
-3 -2 -12 6773.3 686.034 4
3 2 13 110.872 183.541 9
-3 -2 -13 426.735 225.194 4
-3 -3 16 8587.23 828.382 12
3 3 -16 8556.86 828.417 1
-3 -3 16 7101.19 747.525 2
3 3 -15 197.892 277.704 13
-3 -3 15 210.473 179.202 2
-3 -3 15 362.831 226.508 12
3 3 -15 686.033 244.454 1
3 3 -14 224.825 260.87 13
-3 -3 14 309.398 191.091 2
-3 -3 14 -5.1569 156.978 12
3 3 -14 368 209.106 1
3 3 -13 14803.5 1035.78 13
-3 -3 13 13810.7 970.896 12
3 3 -13 15990.3 1015.47 1
-3 -3 13 14367 984.011 2
3 3 -12 9788.45 820.393 13
-3 -3 12 11460.7 862.033 12
3 3 -12 13234.2 867.325 1
-3 -3 12 11755.4 852.286 2
3 3 -11 171.709 153.674 13
3 3 -11 332.513 199.062 3
-3 -3 11 357.977 199.206 12
-3 -3 11 19.9727 138.221 2
3 3 -11 413.805 156.712 11
3 3 -11 294.298 201.305 1
3 3 -10 600.759 218.926 13
3 3 -10 804.885 247.328 3
-3 -3 10 582.198 200.646 12
3 3 -10 683.43 175.483 11
-3 -3 10 499.522 190.442 2
3 3 -10 639.429 196.018 1
3 3 -9 1031.41 249.562 13
3 3 -9 1138.84 267.996 3
3 3 -9 667.299 194.214 11
-3 -3 9 858.144 234.949 2
3 3 -9 1057.84 228.013 1
-3 -3 9 1066.85 261.003 8
3 3 -8 468.67 197.953 13
3 3 -8 272.648 131.342 3
3 3 -8 267.565 147.16 11
-3 -3 8 637.166 208.538 2
3 3 -8 534.467 163.598 1
-3 -3 8 348.06 139.297 8
3 3 -7 2735.97 330.054 13
3 3 -7 2778.89 351.22 3
3 3 -7 2659.81 337.264 11
3 3 -7 3330.75 238.108 5
3 3 -7 2981.91 282.651 1
-3 -3 7 3291.22 387.476 8
3 3 -6 10687.3 689.403 3
3 3 -6 10595.8 637.205 13
3 3 -6 12692.6 723.349 11
3 3 -6 12025.2 445.277 5
3 3 -6 12828.7 566.198 1
-3 -3 6 10508.4 684.426 8
3 3 -5 24130.2 845.403 14
3 3 -5 22833.3 1048.01 3
3 3 -5 23775.6 981.741 13
3 3 -5 22322.6 1036.04 11
3 3 -5 21521.6 1008.24 9
3 3 -5 24959.8 812.287 1
-3 -3 5 23033.2 1045.55 8
3 3 -4 31009 925.257 14
3 3 -4 28060.6 1184.12 3
3 3 -4 27080.4 1054.93 13
3 3 -4 28309.2 1189.27 11
3 3 -4 30033 912.715 4
3 3 -4 25705.5 1127.56 9
3 3 -4 30057.7 874.903 1
-3 -3 4 24861.3 1128.93 8
3 3 -3 3011.94 294.192 13
3 3 -3 3438.05 365.402 3
3 3 -3 3216.13 370.547 11
3 3 -3 3211.73 195.41 4
3 3 -3 3619.38 361.684 9
-3 -3 3 3100.59 352.202 8
3 3 -3 3402.77 185.698 1
-3 -3 2 7.65895 115.829 8
3 3 -2 17.8295 29.2887 14
3 3 -2 -32.9154 87.7132 13
3 3 -2 -0.13292 29.731 1
3 3 -2 251.102 172.271 11
3 3 -2 87.1776 131.56 3
3 3 -2 17.5722 32.3376 4
3 3 -1 86122.9 2078.87 14
3 3 -1 83420.5 2559.81 3
3 3 -1 83621.4 2589.94 11
-3 -3 1 90676.7 2196.28 7
3 3 -1 88940.2 2124.84 1
3 3 -1 86839.9 2572.5 9
3 3 -1 85535.9 2079.58 4
-3 -3 1 80625.8 2540.69 8
3 3 0 45584 1164.26 14
-3 -3 0 46558.7 1223.89 7
3 3 0 40546.9 1547.63 3
3 3 0 43072.8 1588.01 11
-3 -3 0 43228.9 1160.42 4
3 3 0 43657.5 1574.4 9
3 3 0 48283.2 1244.79 1
-3 -3 0 41335.4 1544.81 8
3 3 1 3020.2 190.549 14
-3 -3 -1 2373.63 312.339 8
-3 -3 -1 3132.44 203.488 7
3 3 1 2760.93 341.243 11
3 3 1 2419.08 305.229 3
-3 -3 -1 2750.66 185.456 4
3 3 1 3077.32 226.367 1
3 3 1 2550.02 322.105 9
-3 -3 -2 404.247 183.101 8
-3 -3 -2 395.9 97.1704 14
3 3 2 282.61 78.0353 14
3 3 2 419.668 184.935 11
3 3 2 494.662 176.24 3
3 3 2 319.938 153.353 9
-3 -3 -2 393.101 97.5724 4
3 3 2 521.659 130.714 1
3 3 3 32384.9 1054.92 14
3 3 3 32172.6 1018.54 7
3 3 3 29777.1 1263.25 3
3 3 3 30730.5 1263.58 11
3 3 3 29405.8 1290.46 9
-3 -3 -3 32444.7 1053.94 4
-3 -3 -3 31348 1305.89 8
-3 -3 -3 33529.4 1070.62 14
3 3 4 2136.82 239.247 14
-3 -3 -4 2175.95 339.411 8
3 3 4 2342.3 242.361 7
3 3 4 2635.68 321.802 11
3 3 4 2105.34 298.535 3
-3 -3 -4 2717.16 265.817 4
3 3 4 2099.01 322.57 9
3 3 5 19679.6 850.258 14
3 3 5 19716.1 805.418 7
3 3 5 18522 963.477 3
-3 -3 -5 18389.1 881.77 6
3 3 5 18633.2 919.537 11
3 3 5 18993.3 1011.19 9
-3 -3 -5 18950.8 831.999 4
-3 -3 -5 17630.8 975.771 8
-3 -3 -6 3095.33 394.682 8
3 3 6 3021.39 321.786 14
3 3 6 3126.63 325.689 7
-3 -3 -6 3441.98 359.207 6
3 3 6 3166.25 354.671 11
3 3 6 2812.62 372.491 3
-3 -3 -6 3478.83 350.371 4
3 3 6 3735.36 446.646 9
3 3 7 4448.67 417.817 7
3 3 7 5516.37 513.97 3
-3 -3 -7 6431.74 497.702 6
3 3 7 5830.32 483.404 11
3 3 7 5379.03 553.391 9
-3 -3 -7 6257.33 506.688 4
-3 -3 -7 4777.04 514.503 8
3 3 8 217.078 131.275 7
-3 -3 -8 -49.6677 104.65 6
3 3 8 196.096 145.504 3
3 3 8 190.686 155.909 9
-3 -3 -8 381.687 179.751 4
3 3 9 644.071 192.516 7
-3 -3 -9 835.022 209.817 6
3 3 9 818.933 236.522 3
3 3 9 880.632 274.993 9
-3 -3 -9 859.381 240.141 4
3 3 10 142.029 182.768 3
3 3 10 312.541 232.27 9
-3 -3 -10 135.484 190.954 4
3 3 11 2220.43 379.773 3
3 3 11 2061.17 413.38 9
-3 -3 -11 1651.38 349.342 4
3 3 12 3312.59 525.072 9
-3 -3 -12 3511.46 515.987 4
-3 -4 16 861.844 288.6 2
3 4 -16 57.6958 217.848 1
3 4 -15 1499.7 384.748 13
-3 -4 15 2155.06 421.688 2
-3 -4 15 2009.85 385.167 12
3 4 -15 2157.56 406.254 1
3 4 -14 2468.78 447.81 13
-3 -4 14 2148.21 410.843 2
-3 -4 14 3227.57 470.32 12
3 4 -14 3324.28 458.563 1
3 4 -13 85.0039 200.777 13
-3 -4 13 31.9487 160.638 12
-3 -4 13 230.553 196.793 2
3 4 -13 392.783 221.892 1
3 4 -12 750.184 245.086 13
-3 -4 12 1579.16 318.514 12
-3 -4 12 804.753 233.584 2
3 4 -12 1427.91 273.519 1
3 4 -11 658.903 257.18 13
3 4 -11 921.332 269.252 3
-3 -4 11 653.875 235.023 12
-3 -4 11 395.848 167.918 2
3 4 -11 677.062 192.373 11
3 4 -11 573.475 204.244 1
3 4 -10 2814.89 403.548 3
3 4 -10 2919.99 350.589 11
-3 -4 10 3385 447.538 2
3 4 -10 3341.22 356.311 1
3 4 -10 3080.8 420.396 13
-3 -4 10 2905.36 404.544 8
3 4 -9 234.313 178.087 13
3 4 -9 841.02 238.706 3
3 4 -9 708.999 193.161 11
-3 -4 9 656.568 228.939 2
3 4 -9 668.332 173.589 1
-3 -4 9 1026.2 247.393 8
3 4 -8 6268.13 545.617 13
3 4 -8 7408.69 568.271 11
3 4 -8 7428.9 460.891 1
3 4 -8 6169.67 557.908 3
-3 -4 8 6362.68 554.375 8
-3 -4 8 6552.53 580.283 2
3 4 -7 40151.1 1655.51 3
3 4 -7 42043.5 1606.86 13
3 4 -7 41755.7 1621.43 11
3 4 -7 47375 1306.51 5
3 4 -7 47397.7 1403.78 1
-3 -4 7 42105.9 1650 8
3 4 -6 5114.45 486.507 3
3 4 -6 4837.6 444.465 13
3 4 -6 5181.4 478.61 11
3 4 -6 6363.15 368.234 14
3 4 -6 4788.94 461.98 9
3 4 -6 6306.69 331.869 1
-3 -4 6 4609.69 455.493 8
3 4 -5 11.2337 44.532 14
3 4 -5 129.355 112.941 13
3 4 -5 -27.7535 116.096 3
3 4 -5 -121.687 154.624 11
3 4 -5 7.43828 46.7666 1
3 4 -5 73.0323 143.578 9
-3 -4 5 230.974 139.593 8
3 4 -4 3764.41 200.904 14
3 4 -4 3888.93 359.047 13
3 4 -4 3142.59 384.837 3
3 4 -4 3352.71 389.069 11
3 4 -4 3706.17 198.791 4
3 4 -4 3439.25 378.026 9
-3 -4 4 4046.35 401.679 8
3 4 -3 6164.34 446.356 13
3 4 -3 5542.13 485.061 3
3 4 -3 5709.4 509.545 11
-3 -4 3 5822.16 242.61 5
3 4 -3 6104.53 506.839 9
-3 -4 3 5584.69 479.487 8
-3 -4 2 12867 555.297 7
3 4 -2 12281.8 735.037 3
3 4 -2 12191.9 751.317 11
-3 -4 2 12970.3 451.009 5
3 4 -2 12635.6 743.106 9
-3 -4 2 12239.8 731.147 8
-3 -4 1 18122.5 671.649 7
3 4 -1 16652.8 872.265 3
3 4 -1 17593.4 929.098 11
3 4 -1 17476.7 897.068 9
-3 -4 1 17009.4 882.243 8
-3 -4 0 1101.85 235.292 8
-3 -4 0 1058.26 136.476 7
3 4 0 1039.47 248.975 11
3 4 0 1740.72 261.602 3
3 4 0 1423.58 256.86 9
3 4 0 1531.94 118.347 1
-3 -4 -1 2284.46 328.17 8
-3 -4 -1 2909.25 236.175 7
3 4 1 2765.27 350.272 11
3 4 1 2631.29 344.332 3
-3 -4 -1 2711.75 158.412 4
3 4 1 2109.17 312.105 9
3 4 1 3080.06 215.249 1
3 4 2 4073.71 418.143 3
3 4 2 4072.94 425.389 11
3 4 2 4171.88 435.376 9
-3 -4 -2 4131.88 250.027 4
3 4 2 4590.54 305.492 1
-3 -4 -2 4156.59 437.812 8
3 4 3 96718.3 2590.13 7
3 4 3 94487.3 2870.18 3
3 4 3 91636.6 2869.84 11
3 4 3 92250 2914.47 9
-3 -4 -3 99401.7 2518.71 4
-3 -4 -3 90320.6 2914.95 8
3 4 4 4535.14 369.394 7
3 4 4 5014.3 473.212 3
3 4 4 5356.65 485.368 11
3 4 4 4839.97 494.966 9
-3 -4 -4 4919.41 355.15 4
-3 -4 -4 5339.74 528.803 8
3 4 5 7941.71 516.919 7
3 4 5 7416.33 598.086 3
-3 -4 -5 7805.14 582.693 6
3 4 5 6717.26 550.049 11
3 4 5 7171.69 623.089 9
-3 -4 -5 8257.71 504.536 4
-3 -4 -5 6109.55 595.445 8
-3 -4 -6 -19.1257 166.971 8
3 4 6 206.232 137.29 7
-3 -4 -6 50.7519 118.531 6
3 4 6 -207.641 158.569 11
3 4 6 -25.2415 118.92 3
3 4 6 -169.382 199.066 9
-3 -4 -6 32.5784 128.752 4
-3 -4 -7 -59.4006 161.11 8
3 4 7 131.897 134.507 7
-3 -4 -7 -114.816 143.353 6
3 4 7 -31.4901 122.946 11
3 4 7 130.136 156.08 3
3 4 7 95.3804 222.465 9
-3 -4 -7 313.21 188.288 4
-3 -4 -8 1725.31 347.002 8
-3 -4 -8 2388.65 347.036 6
3 4 8 1622.82 313.792 3
3 4 8 1485.14 336.236 9
-3 -4 -8 2042.77 335.959 4
3 4 9 9645 743.505 3
-3 -4 -9 9817.59 718.039 6
3 4 9 8479.43 788.722 9
-3 -4 -9 10245.7 745.705 4
3 4 10 412.983 205.509 3
3 4 10 -236.477 197.655 9
3 4 11 507.075 245.649 9
3 5 -16 2476.81 438.806 4
3 5 -15 70.9035 206.375 13
3 5 -15 416.083 192.752 4
3 5 -14 2102.1 439.187 13
-3 -5 14 2779.06 440.558 12
-3 -5 14 3200.47 512.967 2
3 5 -14 2782.32 426.155 4
3 5 -13 3944.3 556.33 13
3 5 -13 3617.97 452.887 4
-3 -5 13 3211.36 471.898 12
-3 -5 13 3930.02 530.228 2
3 5 -12 40.1807 181.665 13
3 5 -12 49.0987 154.337 3
-3 -5 12 198.652 194.913 12
-3 -5 12 -82.3232 152.108 2
3 5 -12 181.714 148.904 11
3 5 -11 1003.97 257.385 13
3 5 -11 1415.93 325.745 3
-3 -5 11 1768.92 322.326 12
-3 -5 11 1321.78 306.02 2
3 5 -11 1924.74 312.687 11
-3 -5 11 893.311 269.714 8
3 5 -10 705.173 260.817 13
3 5 -10 578.11 247.764 3
3 5 -10 698.426 206.899 11
-3 -5 10 356.011 177.366 2
-3 -5 10 231.725 155.336 8
3 5 -9 1174.36 306.43 13
3 5 -9 1136.41 276.307 3
3 5 -9 1542.67 288.487 11
-3 -5 9 1226.91 300.462 2
-3 -5 9 1163.13 264.12 8
3 5 -8 15720.9 917.806 13
3 5 -8 16954.4 942.034 11
3 5 -8 15649.1 967.773 3
3 5 -8 17172.7 754.92 4
-3 -5 8 16543.5 943.571 8
-3 -5 8 17007.7 1005.56 2
3 5 -7 46251.4 1851.61 3
3 5 -7 48083.6 1828.59 11
3 5 -7 50269.5 1818.14 13
3 5 -7 53117.2 1516.31 4
-3 -5 7 47374 1810.64 8
3 5 -6 1356.24 250.497 13
3 5 -6 1089.02 264.821 3
3 5 -6 1728 300.27 11
3 5 -6 836.005 231.883 9
3 5 -6 1543.16 160.987 4
-3 -5 6 1028.79 237.228 8
3 5 -5 12826.6 821.206 3
3 5 -5 13925.8 782.705 13
3 5 -5 13061.2 829.694 11
3 5 -5 14571.5 471.581 4
3 5 -5 12207.7 793.974 9
3 5 -5 14603.5 470.46 4
-3 -5 5 12936.3 792.122 8
3 5 -5 14636.9 475.05 14
-3 -5 4 1045.85 237.335 8
3 5 -4 1085.27 232.105 13
3 5 -4 1266.51 258.66 3
3 5 -4 1389.73 279.634 11
-3 -5 4 1331.65 138.435 5
3 5 -4 1269.23 279.293 9
3 5 -3 7751.01 598.716 3
3 5 -3 7702.88 621.011 11
-3 -5 3 8423.05 380.362 5
3 5 -3 8022.4 613.627 9
-3 -5 3 8217.71 609.684 8
3 5 -2 7715.75 587.294 3
3 5 -2 6869.99 581.115 11
-3 -5 2 7903.17 384.848 5
3 5 -2 8141.87 614.99 9
-3 -5 2 6510.82 555.954 8
-3 -5 1 588.62 184.766 8
3 5 -1 579.516 207.546 11
3 5 -1 730.835 216.755 3
3 5 -1 631.304 210.696 9
-3 -5 0 84.2119 165.633 8
3 5 0 -93.7501 149.199 11
3 5 0 19.6044 135.173 3
3 5 0 31.6687 22.5303 1
3 5 0 -16.1737 154.387 9
-3 -5 -1 233.311 186.445 8
3 5 1 418.255 160.742 11
3 5 1 667.834 218.548 3
3 5 1 216.892 156.763 9
-3 -5 -2 3604.98 438.362 8
3 5 2 2876.06 377.835 11
3 5 2 3250.68 389.469 3
3 5 2 3327.42 408.979 9
3 5 3 76745 2197.76 7
3 5 3 71873.2 2393.68 3
3 5 3 74090.9 2443.08 11
3 5 3 71868.8 2477.3 9
-3 -5 -3 70249.6 2478.04 8
-3 -5 -4 108.662 195.975 8
3 5 4 -3.63413 96.6571 7
-3 -5 -4 127.045 126.186 6
3 5 4 58.3845 160.551 11
3 5 4 61.4877 133.085 3
3 5 4 67.2955 184.234 9
-3 -5 -5 -127.887 146.375 8
3 5 5 152.796 154.414 7
-3 -5 -5 86.0797 164.016 6
3 5 5 -76.1996 138.706 11
3 5 5 -130.979 172.156 3
3 5 5 129.568 204.785 9
3 5 6 887.649 220.888 7
-3 -5 -6 506.895 207.192 6
3 5 6 917.039 243.197 11
3 5 6 693.06 204.697 3
-3 -5 -6 680.235 293.672 8
3 5 6 402.339 212.241 9
3 5 7 10148.1 745.724 3
-3 -5 -7 9542.72 721.98 6
3 5 7 11091.1 846.168 9
-3 -5 -7 9722.84 822.124 8
-3 -5 -8 707.093 303.345 8
-3 -5 -8 507.428 202.261 6
3 5 8 398.994 171.157 3
3 5 8 676.421 304.259 9
-3 -5 -9 392.009 233.942 8
-3 -5 -9 441.866 218.013 6
3 5 9 319.472 239.683 9
-3 -5 -10 2087.15 445.214 8
3 5 10 1645.08 373.353 9
-3 -6 15 10909.2 980.215 2
3 6 -14 2001.25 384.965 13
-3 -6 14 1541.77 381.063 2
3 6 -13 1599.56 361.689 13
-3 -6 13 1729.76 357.016 12
-3 -6 13 1387.23 369.009 2
3 6 -12 66.8797 234.637 13
3 6 -12 -94.2628 188.651 3
-3 -6 12 -50.5002 167.475 12
-3 -6 12 56.7485 153.359 2
3 6 -12 99.8301 143.679 11
-3 -6 12 65.7498 186.954 8
3 6 -12 379.238 191.964 4
3 6 -11 -17.2716 195.27 13
3 6 -11 103 225.095 3
3 6 -11 -96.0099 153.374 11
-3 -6 11 322.172 214.42 2
-3 -6 11 51.3481 161.531 8
3 6 -11 242.817 126.699 4
3 6 -10 28515.9 1457.3 3
3 6 -10 26193.1 1362.08 13
3 6 -10 27763.8 1314.94 11
3 6 -10 29051.9 1162.62 4
-3 -6 10 28042.9 1350.03 8
-3 -6 10 29728.7 1489.53 2
3 6 -9 3839.1 477.624 13
3 6 -9 3591.59 481.559 3
3 6 -9 4527.25 496.872 11
-3 -6 9 3548.35 483.322 2
3 6 -9 3851.68 342.397 4
-3 -6 9 5162.39 524.231 8
3 6 -8 4347.35 510.176 3
3 6 -8 5862.27 555.245 13
3 6 -8 5090.36 520.767 11
3 6 -8 6213.65 390.069 4
-3 -6 8 5863.49 547.054 8
-3 -6 8 5744.82 595.872 2
3 6 -7 4473.5 510.802 3
3 6 -7 4114.02 459.703 13
3 6 -7 4283.39 482.109 11
-3 -6 7 3871.97 438.228 8
3 6 -6 8993.55 706.4 3
3 6 -6 10099.9 708.958 13
3 6 -6 10699.5 758.316 11
3 6 -6 10100.8 750.914 9
-3 -6 6 9511.3 690.255 8
3 6 -5 13487.8 821.148 13
3 6 -5 13494.3 878.541 11
-3 -6 5 15267.4 601.353 5
3 6 -5 13967.2 874.761 9
3 6 -5 13738.6 878.726 3
-3 -6 5 13545.5 839.296 8
3 6 -4 5696.75 547.155 3
3 6 -4 5929.55 561.586 11
-3 -6 4 6094.47 350.415 5
3 6 -4 5164.88 524.109 9
-3 -6 4 5887.08 539.208 8
3 6 -3 1648.2 299.9 3
3 6 -3 2590.88 386.267 11
-3 -6 3 2106.72 214.764 5
3 6 -3 2114.2 339.572 9
-3 -6 3 1922.4 331.711 8
-3 -6 2 24.2725 145.225 8
3 6 -2 26.2122 160.723 3
3 6 -2 56.5742 209.353 11
-3 -6 2 13.2562 85.0218 5
3 6 -2 44.3559 163.465 9
-3 -6 1 173.819 158.242 8
3 6 -1 168.04 133.387 3
3 6 -1 295.569 215.925 11
3 6 -1 383.337 205.227 9
3 6 0 11255.3 744.481 3
3 6 0 9649.77 740.573 11
3 6 0 10722.2 755.201 9
-3 -6 0 10168.5 736.324 8
3 6 1 78905 2525.46 3
3 6 1 76431.3 2580.3 11
3 6 1 76312.1 2576.9 9
-3 -6 -1 73590 2572.8 8
-3 -6 -2 1337.09 315.064 8
3 6 2 1116.8 259.186 11
3 6 2 1150.96 250.818 3
3 6 2 1927.29 353.215 9
-3 -6 -3 1166.39 295.865 8
3 6 3 1223.33 278.51 11
3 6 3 1126.69 266.113 3
3 6 3 1162.14 280.457 9
3 6 4 290.953 173.626 7
-3 -6 -4 -138.56 200.224 6
3 6 4 18.6041 163.007 11
3 6 4 59.8573 131.747 3
3 6 4 -136.661 187.733 9
-3 -6 -4 -25.7109 178.191 8
-3 -6 -5 3005.28 449.952 8
-3 -6 -5 3746.64 466.474 6
3 6 5 3607.7 448.368 11
3 6 5 3328.92 423.168 3
3 6 5 3519.66 487.375 9
-3 -6 -6 5168.39 618.868 8
-3 -6 -6 6241.75 615.955 6
3 6 6 6114.67 576.878 11
3 6 6 5213.75 534.472 3
3 6 6 5968.84 632.56 9
3 6 7 61258.2 2209.53 3
-3 -6 -7 59886.8 2287.89 6
3 6 7 59132.7 2351.87 9
-3 -6 -7 56907 2400.91 8
-3 -6 -8 536.143 218.553 6
-3 -6 -8 893.654 323.193 8
3 6 8 237.808 171.729 9
-3 -6 -9 5740.82 627.923 6
3 6 9 6430.55 715.687 9
3 6 10 203.065 280.742 9
3 7 -14 2628.23 471.619 13
-3 -7 14 4075.3 599.189 2
3 7 -13 5056.28 627.116 13
-3 -7 13 4735.38 620.568 2
3 7 -12 2562.29 447.072 13
3 7 -12 1476.11 361.305 3
-3 -7 12 2461.61 450.926 2
3 7 -12 3300.99 443.446 11
-3 -7 12 2306.14 384.82 8
3 7 -11 26103.3 1408.86 13
3 7 -11 25934.4 1332.32 11
-3 -7 11 26746.1 1345.25 8
-3 -7 11 25054.4 1445.49 2
3 7 -11 27529.7 1512.68 3
3 7 -10 463.659 254.29 13
3 7 -10 461.476 246.55 3
3 7 -10 769.133 259.445 11
-3 -7 10 188.594 209.429 2
-3 -7 10 715.283 229.06 8
3 7 -9 49142.3 2097.34 3
3 7 -9 51971.9 2053.48 13
3 7 -9 51367.1 2020.38 11
-3 -7 9 51778.8 1983.67 8
-3 -7 9 51240.7 2131.25 2
3 7 -8 1991.97 369.205 13
3 7 -8 2509.21 439.644 3
3 7 -8 2167.84 397.662 11
-3 -7 8 2467.63 415.296 2
-3 -7 8 2327.96 371.3 8
3 7 -7 2573.34 397.475 13
3 7 -7 2482.24 408.088 3
-3 -7 7 3258.02 427.01 8
3 7 -7 2289.08 378.675 11
3 7 -6 23421.2 1239.13 3
3 7 -6 24809.1 1220.12 13
3 7 -6 22970.5 1236.5 11
3 7 -6 23268.3 1241.22 9
-3 -7 6 23998.7 1194.77 8
3 7 -5 13961.9 913.081 3
3 7 -5 13824.6 924.038 11
3 7 -5 12530.8 872.573 9
-3 -7 5 14132.1 876.254 8
3 7 -4 4515.8 509.191 3
3 7 -4 3745.24 482.713 11
3 7 -4 3427.61 456.036 9
-3 -7 4 4880.18 503.554 8
3 7 -3 5697.83 548.933 3
3 7 -3 5341.4 567.617 11
3 7 -3 4633.83 518.204 9
-3 -7 3 5385.76 545.927 8
3 7 -2 2241.67 362.897 3
-3 -7 2 2977.91 294.089 5
-3 -7 2 2663.65 391.667 8
3 7 -2 3181.43 453.473 11
3 7 -2 1845.48 347.307 9
-3 -7 1 46.1314 155.23 8
3 7 -1 -49.8382 149.95 3
3 7 -1 21.5346 169.243 11
3 7 -1 -130.008 180.55 9
-3 -7 0 3630.21 477.289 8
3 7 0 4674.75 499.157 3
3 7 0 4142.82 497.034 11
3 7 0 4745.85 523.939 9
3 7 1 15797.6 931.645 3
3 7 1 14030.6 942.828 11
3 7 1 14961 954.227 9
-3 -7 -1 15247.7 982.927 8
3 7 2 7999.99 650.816 3
3 7 2 7860.54 683.484 11
3 7 2 8372.8 714.369 9
-3 -7 -2 7708.72 710.791 8
3 7 3 12056.1 818.97 3
-3 -7 -3 10529.9 829.224 6
3 7 3 11095.4 833.376 11
3 7 3 12961.3 903.893 9
-3 -7 -3 10621 849.759 8
-3 -7 -4 679.945 259.836 8
-3 -7 -4 636.976 261.243 6
3 7 4 387.012 164.453 3
3 7 4 210.309 172.641 11
3 7 4 295.392 183.138 9
-3 -7 -5 -59.6207 166.635 8
-3 -7 -5 -158.1 210.176 6
3 7 5 279.685 194.37 11
3 7 5 -44.0319 150.57 3
3 7 5 95.2736 175.636 9
-3 -7 -6 3237.82 532.71 8
-3 -7 -6 4235.75 535.712 6
3 7 6 3757.99 505.386 9
-3 -7 -7 297.124 260.736 8
-3 -7 -7 -171.828 251.042 6
3 7 7 322.939 226.436 9
-3 -7 -8 7512.88 751.384 6
3 7 8 6536.37 728.336 9
3 8 -13 -11.1539 211.811 13
-3 -8 13 322.4 288.528 2
3 8 -13 210.225 173.149 11
3 8 -12 462.611 240.407 13
3 8 -12 -41.5755 249.788 3
-3 -8 12 -177.726 187.266 2
3 8 -12 377.897 231.041 11
-3 -8 12 -69.2889 171.813 8
3 8 -11 797.003 300.897 13
3 8 -11 252.203 242.734 3
3 8 -11 384.895 234.096 11
-3 -8 11 260.273 241.546 2
-3 -8 11 391.746 220.891 8
3 8 -10 230.753 255.292 13
3 8 -10 94.9211 171.802 3
3 8 -10 243.899 212.318 11
-3 -8 10 34.2489 170.615 2
-3 -8 10 -1.09523 159.672 8
3 8 -9 38556.5 1824.94 3
3 8 -9 39731.4 1783.36 13
3 8 -9 37464.3 1740.57 11
-3 -8 9 38587.7 1670.9 8
-3 -8 9 38634.8 1833.79 2
3 8 -8 13084.3 976.534 3
3 8 -8 12573.3 914.353 13
3 8 -8 12827.3 939.843 11
-3 -8 8 13314.7 884.215 8
-3 -8 8 11513.8 931.847 2
3 8 -7 23394.4 1277.24 13
3 8 -7 25509.3 1360.79 11
-3 -8 7 23782.9 1235.03 8
3 8 -7 24760.7 1346.83 3
3 8 -6 6094.36 619.592 3
3 8 -6 5873.95 616.211 11
3 8 -6 5851.74 610.384 9
-3 -8 6 5510.36 557.507 8
-3 -8 5 -14.3904 148.079 8
3 8 -5 -75.9467 177.954 3
3 8 -5 25.1689 155.03 11
3 8 -5 66.3548 187.016 9
3 8 -4 22837.2 1237.38 3
3 8 -4 23110.8 1289.94 11
3 8 -4 22027.3 1227.05 9
-3 -8 4 25050.7 1259.62 8
3 8 -3 16361.5 1065.94 11
3 8 -3 16985.7 1042.62 9
3 8 -3 16396.9 1007.79 3
-3 -8 3 16717.8 1020.71 8
3 8 -2 5428.88 556.892 3
3 8 -2 5335.42 591.202 11
3 8 -2 4755.8 549.135 9
-3 -8 2 4351.95 524.457 8
-3 -8 1 725.669 259.204 8
3 8 -1 431.987 206.442 3
3 8 -1 471.536 198.009 11
3 8 -1 378.08 234.977 9
-3 -8 0 193.52 229.793 8
3 8 0 31.7541 163.288 3
3 8 0 46.1741 189.753 11
3 8 0 -115.322 174.007 9
-3 -8 -1 2765.7 444.713 8
3 8 1 2287.79 360.7 3
3 8 1 2215.8 418.152 11
3 8 1 2527.53 420.078 9
3 8 2 7206.87 652.15 3
-3 -8 -2 7477.72 718.183 6
3 8 2 6970.46 684.241 11
3 8 2 7432.98 706.811 9
-3 -8 -2 7610.28 736.728 8
-3 -8 -3 1251.25 308.859 6
3 8 3 1403.35 285.606 3
3 8 3 1333.3 306.59 11
3 8 3 1389.95 326.692 9
-3 -8 -3 575.091 287.804 8
-3 -8 -4 1399.24 367.691 8
-3 -8 -4 647.096 251.647 6
3 8 4 1056.23 295.032 11
3 8 4 904.264 300.567 9
-3 -8 -5 4961.38 613.658 6
3 8 5 4734.68 579.367 11
-3 -8 -5 4050.68 585.303 8
3 8 5 3975.45 545.04 9
-3 -8 -6 4820.99 620.999 6
3 8 6 4938.37 626.237 9
-3 -8 -7 -85.6096 191.853 6
3 8 7 141.989 211.608 9
-3 -8 -8 9895.24 915.488 6
3 9 -13 584.104 260.214 11
3 9 -12 1333.42 357.403 13
3 9 -12 1604.58 393.109 3
-3 -9 12 1289.17 383.508 2
3 9 -12 1556.09 374.338 11
3 9 -11 4088.84 575.021 13
3 9 -11 4306.64 612.974 3
3 9 -11 3306.95 495.468 11
-3 -9 11 4099.16 590.334 2
3 9 -10 4299.63 578.226 13
3 9 -10 3865.14 590.968 3
3 9 -10 5174.04 634.617 11
-3 -9 10 3808.95 575.182 2
-3 -9 10 3968.11 505.123 8
3 9 -9 5058.87 610.186 13
3 9 -9 4803.51 630.131 3
3 9 -9 5608.55 657.644 11
-3 -9 9 5797.12 604.079 8
-3 -9 9 5364.57 653.313 2
3 9 -8 354.386 208.665 13
3 9 -8 680.981 287.237 3
3 9 -8 832.286 296.182 11
-3 -9 8 398.88 243.8 2
-3 -9 8 600.874 243.158 8
3 9 -7 4496.84 583.07 3
3 9 -7 4558.08 579.141 11
-3 -9 7 5234.76 567.994 8
3 9 -6 6263.55 675.041 11
3 9 -6 6780.58 688.132 9
3 9 -6 6136.46 654.556 3
-3 -9 6 6520.04 638.719 8
-3 -9 5 1559.71 331.582 8
3 9 -5 1359.81 305.577 3
3 9 -5 1942.23 447.193 11
3 9 -5 1986.46 391.492 9
3 9 -4 42150.5 1935.7 11
3 9 -4 44024.8 1889.76 9
3 9 -4 40733.3 1830.39 3
-3 -9 4 42570.8 1827.92 8
-3 -9 3 3058.65 457.432 8
3 9 -3 2878.54 445.783 3
3 9 -3 3634.19 540.373 11
3 9 -3 3193.22 482.455 9
3 9 -2 11685 926.758 11
3 9 -2 12193.5 915.944 9
3 9 -2 12505.2 889.208 3
-3 -9 2 9285.45 807.825 8
-3 -9 1 509.72 264.143 8
3 9 -1 759.741 226.106 3
3 9 -1 982.756 330.608 11
3 9 -1 711.103 262.257 9
3 9 0 10015.7 792.108 3
3 9 0 10144.4 878.911 11
3 9 0 9995.53 841.452 9
-3 -9 0 9214.49 821.066 8
-3 -9 -1 1517.53 372.573 8
-3 -9 -1 1914.04 399.25 6
3 9 1 1655.19 325.385 3
3 9 1 1438.5 353.686 11
3 9 1 1706.71 370.849 9
-3 -9 -2 270.337 188.939 8
-3 -9 -2 167.065 178.922 6
3 9 2 825.117 265.205 3
3 9 2 774.146 256.756 11
3 9 2 695.792 264.14 9
-3 -9 -3 329.218 231.634 8
-3 -9 -3 -21.1435 171.206 6
3 9 3 204.886 213.053 11
3 9 3 429.195 236.457 9
-3 -9 -4 1898.38 402.898 6
3 9 4 2231.78 427.173 11
3 9 4 2224.51 428.68 9
-3 -9 -5 1550.12 422.886 6
3 9 5 1113.22 335.598 9
3 9 6 4922.73 640.078 9
3 10 -13 45.1177 215.084 11
3 10 -12 6481 738.15 11
3 10 -11 13645.8 1073.78 11
3 10 -10 404.389 214.901 13
3 10 -10 222.975 266.747 3
3 10 -10 161.878 242.584 11
-3 -10 10 150.537 164.199 2
3 10 -9 -130.638 186.918 3
3 10 -9 -300.775 228.236 11
-3 -10 9 48.6247 195.611 2
-3 -10 9 140.871 198.299 8
3 10 -8 582.873 254.743 3
-3 -10 8 905.012 266.729 8
3 10 -8 948.245 308.354 11
-3 -10 8 608.704 268.671 2
3 10 -7 1018.06 346.244 3
3 10 -7 789.736 288.693 11
-3 -10 7 774.785 247.722 8
-3 -10 6 2008.96 372.718 8
3 10 -6 2484.53 441.332 3
3 10 -6 2746.9 492.638 11
3 10 -6 2357.96 453.086 9
3 10 -5 17909.4 1171.01 3
3 10 -5 15847.6 1165.61 11
3 10 -5 17919.2 1173.89 9
-3 -10 5 16449.8 1084.33 8
3 10 -4 6903.09 697.882 3
3 10 -4 7750.8 806.955 11
3 10 -4 7014.58 724.971 9
-3 -10 4 7118.55 712.031 8
-3 -10 3 -107.406 225.16 8
3 10 -3 310.422 219.632 3
3 10 -3 457.164 285.72 11
3 10 -3 -161.186 237.245 9
3 10 -2 12426.2 927.937 3
3 10 -2 11617.2 987.418 11
3 10 -2 11303.6 922.07 9
-3 -10 2 11646.7 927.581 8
-3 -10 1 4725.52 592.962 8
3 10 -1 5237.45 599.981 3
3 10 -1 3955.69 584.031 11
3 10 -1 5537.79 634.802 9
3 10 0 6992.51 679.067 3
3 10 0 5513.01 695.48 11
3 10 0 5631.96 650.75 9
-3 -10 0 6259.79 708.61 8
-3 -10 -1 5301.45 676.202 6
3 10 1 4528.73 629.663 11
3 10 1 4272.61 582.741 9
-3 -10 -1 4112.92 592.608 8
3 10 2 6319.88 743.67 11
3 10 2 7342.43 761.149 9
3 10 3 -77.8219 223.579 11
3 10 3 -43.9948 186.55 9
3 10 4 683.939 326.4 9
3 11 -8 1116.4 330.844 3
3 11 -7 1312.82 363.552 3
-3 -11 7 1862.84 415.082 2
-3 -11 7 1615.59 368.328 8
3 11 -6 6075.68 710.942 3
-3 -11 6 7428.08 738.857 8
-3 -11 5 675.758 243.896 8
3 11 -5 1299.4 356.426 3
3 11 -5 797.057 284.731 9
-3 -11 4 3582.66 533.727 8
3 11 -4 4732.23 594.134 3
3 11 -4 3995.24 558.253 9
-3 -11 3 599.838 279.735 8
3 11 -3 586.291 236.086 3
3 11 -3 879.988 307.666 9
3 11 -2 15345.5 1074.2 3
3 11 -2 14440.6 1078.78 9
-3 -11 2 14590.1 1096.9 8
3 11 -1 187.479 189.752 9
-3 -11 1 255.191 227.341 8
3 11 0 1893.01 398.432 9
3 11 1 1063.62 351.424 9
3 12 -5 3113.52 501.079 3
3 12 -4 50.899 192.613 3
4 -12 1 1120.03 353.143 6
4 -12 3 2030.79 451.257 1
4 -12 4 4253.39 606.339 14
4 -12 4 4928.34 657.76 1
4 -12 5 704.473 301.679 14
-4 12 -6 250.278 185.125 4
-4 11 3 13909.2 1108.48 10
-4 11 2 261.097 250.101 10
4 -11 -1 209.457 220.992 1
-4 11 1 521.396 281.68 10
4 -11 0 -156.351 191.203 14
4 -11 0 -332.654 241.026 5
-4 11 0 -76.378 270.665 10
4 -11 0 35.503 245.686 1
4 -11 1 1962.7 418.859 14
4 -11 1 2907.72 508.237 1
4 -11 1 2370.02 432.265 6
4 -11 1 2441.67 467.189 5
-4 11 -1 2095.17 439.594 10
4 -11 2 212.728 221.107 14
4 -11 2 585.081 207.943 6
4 -11 2 246.168 258.227 5
-4 11 -2 316.584 206.49 10
4 -11 2 393.452 270.819 1
4 -11 3 19266.9 1277.56 1
4 -11 3 20688.5 1319.39 5
-4 11 -3 19365.8 1318.55 10
4 -11 3 20383.2 1295.27 14
4 -11 4 4853.72 636.039 14
4 -11 4 6073.96 704.09 5
-4 11 -4 4962.24 676.539 10
4 -11 5 146.585 230.193 14
4 -11 5 208.561 248.047 5
-4 11 -5 322.042 252.815 10
-4 11 -5 -172.38 244.443 4
4 -11 6 363.008 228.265 14
4 -11 6 449.945 280.974 5
-4 11 -6 888.101 330.775 10
-4 11 -6 560.449 234.389 4
4 -11 7 4004.57 561.342 14
4 -11 7 4869.16 641.015 5
-4 11 -7 2927.31 538.282 10
-4 11 -7 4745.32 629.31 4
4 -11 8 469.249 289.91 14
4 -11 8 708.01 261.922 5
-4 11 -8 114.93 249.835 10
-4 11 -8 147.115 174.132 4
4 -11 9 2102.5 440.129 14
-4 11 -9 2428.63 481.879 10
-4 11 -9 2568.72 474.122 4
-4 11 -10 43.5535 220.274 10
-4 10 5 917.926 309.196 12
-4 10 5 639.253 283.369 10
-4 10 4 -204.613 226.863 12
-4 10 4 -171.308 269.19 10
-4 10 3 432.178 275.587 7
-4 10 3 274.209 219.093 12
4 -10 -3 53.8452 209.327 1
-4 10 3 329.653 171.334 10
-4 10 2 1179.78 267.791 12
4 -10 -2 1505.71 386.23 5
4 -10 -2 1081.7 304.784 1
-4 10 2 1894.47 389.747 10
4 -10 -1 278.749 231.359 5
-4 10 1 130.414 151.062 10
4 -10 -1 664.814 252.361 1
4 -10 0 527.482 312.204 1
4 -10 0 678.339 272.742 5
-4 10 0 327.622 183.418 10
4 -10 1 6764.95 661.273 6
4 -10 1 6537.24 714.527 1
4 -10 1 6573.62 685.671 5
-4 10 -1 7344.55 759.079 10
4 -10 1 6660.6 713.038 14
4 -10 2 87.3442 220.378 14
4 -10 2 -190.153 210.412 1
4 -10 2 -127.587 177.751 6
4 -10 2 107.258 158.983 5
-4 10 -2 245.07 214.513 10
4 -10 3 -203.818 170.983 6
4 -10 3 -79.8912 214.037 5
-4 10 -3 489.825 281.706 10
4 -10 3 64.8892 206.685 14
4 -10 4 821.191 282.408 14
4 -10 4 961.199 322.709 5
-4 10 -4 849.815 303.741 10
-4 10 -4 911.272 281.662 4
4 -10 5 -158.254 189.826 14
4 -10 5 294.487 251.535 5
-4 10 -5 61.5781 202.572 10
-4 10 -5 113.449 216.008 4
4 -10 6 723.542 257.001 5
-4 10 -6 953.103 257.43 10
-4 10 -6 1135.13 349.973 4
4 -10 6 1870.91 391.912 14
4 -10 7 1139.45 340.551 14
4 -10 7 884.427 316.777 5
-4 10 -7 587.102 299.815 10
-4 10 -7 1018.05 323.662 4
4 -10 8 -136.687 181.194 14
4 -10 8 -105.493 249.51 5
-4 10 -8 -16.585 214.177 10
-4 10 -8 421.545 244.465 4
4 -10 9 1359.14 328.48 14
4 -10 9 2095.51 421.331 5
-4 10 -9 1713.89 409.421 10
-4 10 -9 1550.96 387.616 4
4 -10 10 297.904 255.575 14
-4 10 -10 172.254 198.738 10
-4 10 -10 -46.7831 201.898 4
-4 10 -11 4943.79 643.881 10
4 -10 11 4077.22 549.877 2
-4 10 -11 5528.48 686.505 4
-4 10 -12 14170.8 1080 10
4 -10 12 11942.4 988.344 2
-4 9 6 424.011 211.754 12
4 -9 -5 -119.995 171.09 1
-4 9 5 -393.501 288.428 7
-4 9 5 245.061 233.537 12
-4 9 5 287.537 236.148 10
-4 9 4 14548 1091.25 7
4 -9 -4 13608.2 1070.72 1
-4 9 4 13341.9 991.58 12
-4 9 4 14253.4 1034.51 10
-4 9 3 8517.47 807.655 7
4 -9 -3 7458.64 775.003 1
-4 9 3 7785.72 711.638 12
-4 9 3 7562.68 725.99 10
-4 9 2 77.6944 183.695 7
-4 9 2 -241.202 117.944 12
4 -9 -2 -98.1091 213.689 5
-4 9 2 160.181 212.765 10
4 -9 -2 412.064 201.898 1
4 -9 -1 773.096 307.324 1
-4 9 1 325.028 182.754 12
4 -9 -1 990.147 282.281 5
-4 9 1 652.049 243.413 10
-4 9 0 12318.3 784.082 12
4 -9 0 11897.9 927.889 1
4 -9 0 10839.7 870.511 5
-4 9 0 11240.2 909.064 10
4 -9 1 2151.2 395.572 14
4 -9 1 1858.28 362.716 5
-4 9 -1 1340.97 330.463 10
4 -9 1 2153.85 379.595 1
4 -9 2 3494.63 499.519 14
4 -9 2 2732.55 428.904 5
-4 9 -2 3560.47 510.831 10
4 -9 3 -100.893 176.948 14
4 -9 3 101.356 129.541 6
4 -9 3 453.649 263.876 5
-4 9 -3 264.906 240.691 10
-4 9 -3 184.749 210.926 4
4 -9 4 194.409 248.454 5
-4 9 -4 110.814 213.038 10
-4 9 -4 264.08 200.551 4
4 -9 4 -50.5752 199.154 14
4 -9 5 1123.65 301.455 14
4 -9 5 980.337 290.896 5
-4 9 -5 1706.62 347.399 10
-4 9 -5 1396.85 330.098 4
4 -9 6 -149.112 218.779 14
4 -9 6 404.415 233.174 5
-4 9 -6 -154.626 158.781 10
-4 9 -6 360.857 220.465 4
4 -9 7 457.9 202.408 14
4 -9 7 794.224 327.144 5
-4 9 -7 358.645 209.962 10
-4 9 -7 396.07 222.744 4
4 -9 8 3510.74 440.465 2
4 -9 8 3057.24 490.293 14
4 -9 8 3529.08 517.94 5
-4 9 -8 2596.42 442.751 10
-4 9 -8 2104.77 398.316 4
4 -9 9 3301.27 451.86 2
4 -9 9 3508.5 519.006 14
4 -9 9 3906.06 563.516 5
-4 9 -9 3162.04 512.572 10
-4 9 -9 2957.78 485.524 4
4 -9 10 98.9828 149.384 2
4 -9 10 706.608 321.198 14
-4 9 -10 195.143 167.971 10
-4 9 -10 140.588 181.877 4
4 -9 11 138.74 211.402 2
4 -9 11 260.179 232.669 14
-4 9 -11 347.66 182.244 10
-4 9 -11 389.292 290.918 4
4 -9 12 320.453 228.114 2
-4 9 -12 852.3 292.443 10
-4 9 -12 463.573 292.963 4
4 -9 13 952.875 288.289 2
-4 8 7 1952.97 443.57 7
-4 8 7 1028.65 316.19 12
-4 8 6 283.286 211.07 7
-4 8 6 533.529 228.749 12
-4 8 6 24.7636 182.083 10
4 -8 -6 519.778 251.13 1
4 -8 -5 433.06 240.168 1
-4 8 5 398.478 190.584 7
-4 8 5 866.026 276.513 12
-4 8 5 516.74 237.88 10
-4 8 4 1579.54 375.528 7
-4 8 4 2293.09 392.773 12
4 -8 -4 2198.79 428.099 1
-4 8 4 2517.76 413.807 10
-4 8 3 178.248 215.799 7
-4 8 3 63.8653 118.19 12
-4 8 3 -79.1259 154.87 10
4 -8 -3 -59.9414 154.36 1
-4 8 2 1611.66 361.012 7
-4 8 2 993.315 257.747 12
-4 8 2 1679.19 354.086 10
4 -8 -2 1455.88 331.907 1
-4 8 1 2441.45 410.156 7
-4 8 1 2423.37 351.466 12
4 -8 -1 1905.94 378.871 1
4 -8 -1 2348 387.609 5
-4 8 1 1980 368.401 10
-4 8 0 30.5216 120.05 12
4 -8 0 -24.1805 186.262 1
4 -8 0 201.093 187.538 5
-4 8 0 189.258 204.573 10
4 -8 1 849.637 235.798 14
-4 8 -1 1275.47 227.518 12
4 -8 1 902.84 260.612 1
4 -8 1 588.484 247.027 5
-4 8 -1 1134.28 291.481 10
-4 8 -2 6510.18 468.796 12
4 -8 2 5359.24 587.848 14
4 -8 2 5576.67 574.729 5
-4 8 -2 5679.92 617.295 10
-4 8 -2 5625.49 588.349 4
4 -8 3 356.95 213.313 14
4 -8 3 244.221 205.164 5
-4 8 -3 456.149 232.669 10
-4 8 -3 450.653 222.589 4
4 -8 4 10079.3 793.388 5
-4 8 -4 12370.6 914.032 10
-4 8 -4 12013.8 872.282 4
4 -8 4 10504.3 820.454 14
4 -8 5 1504.87 342.559 14
4 -8 5 1202.34 293.985 5
-4 8 -5 755.095 273.785 10
-4 8 -5 1253.85 300.204 4
4 -8 6 1764.8 354.043 5
4 -8 6 2493.74 334.514 2
-4 8 -6 1879.61 361.251 10
-4 8 -6 1594.34 336.208 4
4 -8 6 1967.72 378.226 14
4 -8 7 19805.6 1174.75 5
-4 8 -7 18289.6 1150.67 10
-4 8 -7 20242 1193.09 4
4 -8 7 19467.8 1033.03 2
4 -8 7 18397.1 1152.43 14
4 -8 8 1796.5 313.523 2
4 -8 8 1234.11 327.801 5
-4 8 -8 823.52 282.314 10
-4 8 -8 1297.11 311.676 4
4 -8 9 1083.58 292.719 2
4 -8 9 680.109 279.375 14
-4 8 -9 470.725 232.426 10
-4 8 -9 1135.3 315.542 4
4 -8 10 6117.39 680.419 14
-4 8 -10 6562.03 651.523 10
4 -8 10 5528.09 594.133 2
-4 8 -10 6101.75 680.657 4
4 -8 11 2726.41 467.006 14
-4 8 -11 2820.32 455.807 10
-4 8 -11 2289.02 444.817 4
4 -8 11 3033.82 476.911 2
4 -8 12 1485.73 344.861 2
4 -8 12 2484.33 453.49 14
-4 8 -12 2500.69 418.549 10
-4 8 -12 2070.73 448.089 4
4 -8 13 1079.47 338.283 2
-4 7 8 918.692 318.21 7
-4 7 8 1030.24 312.483 12
4 -7 -8 1045.11 334.225 1
-4 7 7 -111.29 252.732 7
-4 7 7 270.532 224.086 12
4 -7 -7 -32.0203 209.388 1
-4 7 6 341.503 217.729 7
-4 7 6 531.244 232.397 12
-4 7 6 397.408 187.122 10
4 -7 -6 675.564 293.171 1
-4 7 5 567.176 231.666 7
4 -7 -5 669.028 281.923 1
-4 7 5 464.921 204.514 12
-4 7 5 1131.37 276.088 10
-4 7 4 -81.0158 165.166 7
-4 7 4 -2.59451 153.703 12
4 -7 -4 128.432 188.202 1
-4 7 4 -171.477 187.439 10
-4 7 3 845.589 260.377 7
-4 7 3 817.498 234.46 12
-4 7 3 874.241 243.43 10
4 -7 -3 1123.18 305.342 1
-4 7 2 17390.6 1049.05 7
-4 7 2 20224.8 1056.36 12
4 -7 -2 18250.4 1116 1
-4 7 2 18517.8 1106.48 10
-4 7 1 1949.35 330.434 7
-4 7 1 1772.78 283.507 12
4 -7 -1 1901.71 339.442 5
-4 7 1 2238.43 381.721 10
4 -7 -1 1940.71 378.805 1
-4 7 0 9930.47 643.339 12
4 -7 0 9310.75 696.949 5
4 -7 0 7474.77 682.065 1
-4 7 0 7679.97 691.807 10
-4 7 -1 4426.3 402.857 12
4 -7 1 3338.24 425.644 5
-4 7 -1 4206.8 500.154 10
4 -7 2 366.447 180.453 14
-4 7 -2 320.467 121.497 12
4 -7 2 446.62 233.74 5
-4 7 -2 381.018 235.7 10
-4 7 -2 234.899 156.154 4
-4 7 -3 8693.77 495.427 12
4 -7 3 7442.51 635.228 5
-4 7 -3 7890.08 686.959 10
-4 7 -3 6220.76 613.66 4
4 -7 3 6673.79 620.762 14
4 -7 4 7565.76 642.804 5
-4 7 -4 7923.36 709.682 10
4 -7 4 7024.99 503.383 2
-4 7 -4 7779.46 671.817 4
4 -7 4 7911.24 679.315 14
4 -7 5 1938.02 375.408 14
4 -7 5 2156.85 366.982 5
-4 7 -5 1922.59 351.819 10
-4 7 -5 1760.05 343.609 4
4 -7 5 2153.03 298.521 2
4 -7 6 9609.14 743.087 5
-4 7 -6 10236 790.117 10
4 -7 6 10727.6 696.09 2
-4 7 -6 9589.97 768.978 4
4 -7 6 9715.37 771.12 14
4 -7 7 114.609 112.295 2
4 -7 7 -27.0879 178.865 14
4 -7 7 -106.22 175.178 5
-4 7 -7 107.755 154.537 10
-4 7 -7 233.465 233.539 4
4 -7 8 340.933 203.011 2
4 -7 8 3.9224 176.048 14
-4 7 -8 -139.973 228.76 10
-4 7 -8 -18.0303 157.482 4
4 -7 9 5898.56 647.291 14
-4 7 -9 6281.87 616.639 10
4 -7 9 6492.58 625.262 2
-4 7 -9 5654.73 608.403 4
4 -7 10 6264.6 659.408 14
-4 7 -10 4867.19 559.866 10
4 -7 10 5779.39 611.286 2
-4 7 -10 4737.68 582.683 4
4 -7 11 -15.8975 177.662 2
4 -7 11 30.5839 186.175 14
-4 7 -11 -127.085 198.996 10
-4 7 -11 -56.8221 217.45 4
4 -7 12 922.228 355.01 14
4 -7 12 773.409 278.861 2
-4 7 -12 211.913 221.155 4
4 -7 13 1015.5 320.685 2
4 -7 13 1014.24 327.969 14
-4 7 -13 1744.58 420.862 4
-4 6 9 13068.6 1034.63 7
-4 6 9 11904.1 1011.28 12
4 -6 -9 12524.9 1050.96 1
-4 6 8 5869.96 667.622 7
-4 6 8 5745.65 675.928 12
4 -6 -8 6458.42 729.476 1
-4 6 7 1404.69 333.479 7
-4 6 7 1089.21 286.583 12
-4 6 7 1136.54 288.368 10
4 -6 -7 1533.04 342.589 1
4 -6 -6 -205.733 244.151 1
-4 6 6 76.8695 175.785 7
-4 6 6 149.06 212.345 12
-4 6 6 177.898 168.988 10
-4 6 5 5180.21 564.413 7
-4 6 5 5540.91 585.449 12
4 -6 -5 4730.27 562.635 1
-4 6 5 6191.03 584.773 10
-4 6 4 -123.843 161.41 7
-4 6 4 477.065 229.322 12
4 -6 -4 -6.53194 161.849 1
-4 6 4 133.464 176.424 10
-4 6 3 325.771 153.446 7
-4 6 3 383.26 163.904 12
-4 6 3 285.215 194.993 10
4 -6 -3 810.18 284.459 1
-4 6 2 1109.02 247.142 7
-4 6 2 1303.19 259.337 12
4 -6 -2 1357.04 302.419 1
-4 6 2 1745.73 329.873 10
-4 6 1 1894.69 322.493 7
-4 6 1 1781.33 287.76 12
4 -6 -1 2035.1 348.46 1
4 -6 -1 1878.73 312.4 5
4 -6 -1 2055.93 228.666 3
-4 6 1 2351.73 385.371 10
-4 6 0 42415.5 1610.15 7
-4 6 0 43889.3 1559.63 12
4 -6 0 41949.4 1620.08 5
-4 6 0 39165.5 1693.16 10
-4 6 -1 11915.2 663.448 12
4 -6 1 9991.61 687.172 5
-4 6 -1 11230.3 791.523 10
-4 6 -1 10841.1 773.393 4
4 -6 2 687.06 218.898 14
-4 6 -2 1061.2 181.254 12
4 -6 2 1370.05 256.317 5
-4 6 -2 949.235 248.883 10
-4 6 -2 1120.6 256.687 4
4 -6 3 4437.75 494.536 14
-4 6 -3 4974.13 367.653 12
4 -6 3 5228.27 504.941 5
-4 6 -3 4904.28 526.622 10
-4 6 -3 5452.26 538.651 4
4 -6 3 5024.13 345.04 9
-4 6 -4 28642.8 982.211 12
4 -6 4 26519.6 1231.35 5
-4 6 -4 27488.5 1321.48 10
4 -6 4 27850.3 1125.02 2
-4 6 -4 25538.4 1270.09 4
4 -6 4 27034.1 1033.38 9
4 -6 4 24662.2 1261.75 14
4 -6 5 35306.8 1531.09 5
-4 6 -5 38765.8 1644.9 10
4 -6 5 38357.4 1457.68 2
-4 6 -5 35295 1582.93 4
4 -6 5 35507.6 1582.82 14
4 -6 6 13104.4 851.656 5
-4 6 -6 13250.4 878.913 10
4 -6 6 14102.6 815.74 2
-4 6 -6 12092.1 849.575 4
4 -6 6 12450.5 866.733 14
-4 6 -7 8906.35 713.251 10
4 -6 7 8096.3 636.41 2
-4 6 -7 8992.06 730.389 4
4 -6 7 8310.83 709.138 14
4 -6 8 17672.4 1065.87 14
-4 6 -8 16570.8 1004.71 10
4 -6 8 16991.7 987.194 2
-4 6 -8 15916.2 1019.04 4
4 -6 9 1373.89 342.425 14
-4 6 -9 597.531 195.989 10
-4 6 -9 927.264 253.492 4
4 -6 9 833.972 239.609 2
4 -6 10 350.854 225.653 2
4 -6 10 588.7 254.989 14
-4 6 -10 416.179 202.695 10
-4 6 -10 224.241 201.911 4
4 -6 11 -2.14086 157.331 2
4 -6 11 196.673 222.089 14
-4 6 -11 316.002 217.975 10
-4 6 -11 -268.548 172.502 4
4 -6 12 413.528 236.688 2
4 -6 12 106.041 208.965 14
-4 6 -12 126.836 166.986 4
4 -6 13 4608.54 620.892 14
4 -6 13 3562.88 543.355 2
-4 6 -13 4830.53 650.174 4
-4 5 10 695.246 300.836 7
-4 5 10 984.533 328.335 12
4 -5 -10 1084.42 357.975 1
-4 5 9 5489.59 640.201 7
-4 5 9 5299.36 638.384 12
4 -5 -9 5998.91 702.553 1
-4 5 8 1520.76 352.272 7
-4 5 8 1797.9 388.313 12
4 -5 -8 1321.54 332.983 1
-4 5 7 18271.6 1120.59 7
-4 5 7 18064.6 1142 12
-4 5 7 19148.9 1024.86 10
4 -5 -7 17844.3 1150.97 1
4 -5 -6 78.6794 216.509 1
-4 5 6 388.765 208.652 7
-4 5 6 454.301 191.348 12
-4 5 6 354.894 190.481 10
-4 5 5 -209.961 211.762 7
-4 5 5 521.322 228.403 12
4 -5 -5 -55.67 204.293 1
-4 5 5 332.386 138.242 10
-4 5 4 597.047 205.102 7
-4 5 4 327.054 202.374 12
-4 5 4 -9.45267 171.174 10
4 -5 -4 384.469 224.287 1
4 -5 -3 225.639 139.679 1
-4 5 3 339.884 179.376 7
-4 5 3 280.197 173.393 12
-4 5 3 87.5833 153.769 10
-4 5 2 7861.16 586.432 7
4 -5 -2 7874.28 445.351 3
-4 5 2 7492.97 575.72 12
4 -5 -2 7857.76 649.356 1
-4 5 2 7405.31 617.952 10
-4 5 1 13905.9 783.393 7
4 -5 -1 13634.4 658.067 3
-4 5 1 14800.8 808.479 12
4 -5 -1 14000.1 781.159 5
4 -5 -1 14622.9 893.962 1
-4 5 1 14458.4 886.77 10
-4 5 0 41.8798 119.596 7
-4 5 0 52.1663 57.6041 2
-4 5 0 107.586 130.557 12
4 -5 0 -53.0458 150.021 5
-4 5 0 107.102 159.313 10
4 -5 1 13281.3 563.936 13
-4 5 -1 13084 697.722 12
4 -5 1 12238.9 721.465 5
-4 5 -1 12112 799.687 10
-4 5 -1 12220.8 782.259 4
4 -5 1 12904.9 514.763 9
4 -5 1 11791 776.127 14
4 -5 2 47922.8 1337.99 13
-4 5 -2 46985.6 1523.22 12
4 -5 2 44462 1626.26 5
-4 5 -2 39980.1 1693.31 10
-4 5 -2 41774.2 1686.51 4
4 -5 2 45806.7 1374.58 9
4 -5 2 43636.8 1715.96 14
4 -5 3 1266.41 146.198 13
-4 5 -3 1787.98 225.433 12
4 -5 3 1064.03 256.028 14
4 -5 3 1411.32 228.571 5
-4 5 -3 1384.78 291.526 10
-4 5 -3 1171.18 271.6 4
4 -5 3 1112.39 174.821 9
4 -5 4 5145.24 479.39 5
-4 5 -4 4739.5 498.75 10
-4 5 -4 4502.22 477.137 4
4 -5 4 5438.33 405.551 9
4 -5 4 5011.57 500.834 14
4 -5 5 8505.01 629.974 5
-4 5 -5 7471.75 628.634 10
4 -5 5 7203.58 547.33 2
-4 5 -5 8397.8 657.79 4
-4 5 -5 8802.1 387.018 8
4 -5 5 7747.49 638.273 14
-4 5 -6 20856.2 1099.84 10
4 -5 6 22430 1078.09 2
-4 5 -6 21159 1113.56 4
4 -5 6 22588.9 1147.53 14
4 -5 7 27013.4 1320.1 14
-4 5 -7 27876.1 1294.75 10
4 -5 7 27419.3 1259.22 2
-4 5 -7 25216.9 1276.76 4
4 -5 8 8984.94 737.362 14
-4 5 -8 9752.43 716.446 10
4 -5 8 9512.58 730.543 2
-4 5 -8 8207.59 707.422 4
4 -5 9 15630.1 1004.73 14
-4 5 -9 15262.4 917.676 10
4 -5 9 15696.5 984.212 2
-4 5 -9 14277 973.027 4
4 -5 10 629.634 273.847 14
4 -5 10 3.14677 191.643 2
-4 5 -10 783.8 238.293 10
-4 5 -10 330.654 215.951 4
4 -5 11 10966 885.852 14
-4 5 -11 11173 763.691 10
4 -5 11 10025.5 842.531 2
-4 5 -11 9422.35 824.171 4
4 -5 12 1650.35 382.077 14
-4 5 -12 1380.37 369.649 4
4 -5 12 1854.65 414.497 2
4 -5 13 884.011 328.918 14
-4 5 -13 1344.17 344.732 4
4 -5 13 401.748 281.304 2
-4 4 11 4723.72 632.454 7
-4 4 11 3231.97 538.976 12
4 -4 -11 5215.4 679.089 1
-4 4 10 532.255 220.457 7
-4 4 10 650.341 286.665 12
-4 4 9 352.487 239.782 7
-4 4 9 -80.6726 183.403 12
4 -4 -9 401.238 234.483 1
-4 4 8 2244.82 405.202 7
-4 4 8 1578.43 344.418 12
-4 4 8 2786.53 366.684 10
4 -4 -8 2331.22 431.121 1
4 -4 -7 32035.8 1565.37 1
-4 4 7 33852.1 1538 7
-4 4 7 33232 1586.44 12
-4 4 7 35943.8 1452.68 10
4 -4 -6 7880.32 698.921 1
-4 4 6 8099.84 661.375 7
-4 4 6 6951.42 661.653 12
-4 4 6 8607.74 629.182 10
-4 4 5 2249.84 364.108 7
-4 4 5 1887.04 320.807 12
4 -4 -5 2626.31 389.147 1
-4 4 5 2516.92 353.395 10
-4 4 4 6934.26 553.269 7
4 -4 -4 7341.2 408.474 3
4 -4 -4 5414.07 538.896 1
-4 4 4 6017.55 565.915 12
-4 4 4 6705.2 548.223 10
-4 4 3 500.071 177.41 7
-4 4 3 492.355 193.1 12
4 -4 -3 386.223 192.545 1
4 -4 -3 495.273 130.156 3
-4 4 3 618.208 203.899 10
-4 4 2 2147.15 292.037 7
4 -4 -2 2540.82 262.22 3
4 -4 -2 2055.5 330.243 1
-4 4 2 2264.44 317.747 12
4 -4 -2 2103.88 279.4 5
-4 4 2 2131.49 320.702 10
-4 4 2 2772.53 197.866 2
-4 4 1 25065.8 1056.31 7
4 -4 -1 25835.3 1003.93 3
-4 4 1 25200.4 1115.93 12
4 -4 -1 26671.9 1073.47 5
4 -4 -1 24808.2 1182.4 1
-4 4 1 24328.4 1168.43 10
4 -4 -1 26619.2 797.69 9
-4 4 1 28082.3 886.433 2
-4 4 0 9682.35 575.311 7
4 -4 0 10694.7 460.935 13
-4 4 0 9960.28 618.767 12
4 -4 0 10349.2 605.626 5
-4 4 0 9958.35 695.321 10
-4 4 0 9828.62 670.093 4
4 -4 0 10661.9 457.565 9
-4 4 0 10744.7 508.563 2
4 -4 1 -43.209 149.578 14
4 -4 1 59.5618 53.4002 13
4 -4 1 -28.9574 115.661 5
-4 4 -1 119.632 173.691 10
-4 4 -1 -66.1695 120.572 4
4 -4 1 -17.036 80.5327 9
-4 4 -1 55.8782 83.1395 8
4 -4 2 43778 1160.39 13
4 -4 2 43611.4 1517.7 5
-4 4 -2 40250.4 1628.01 10
-4 4 -2 42453.4 1620.82 4
4 -4 2 44915.8 1391.68 9
-4 4 -2 45178.1 1404.05 8
4 -4 2 41354 1606.43 14
4 -4 3 2915.86 377.49 14
-4 4 -3 3682.26 271.27 6
-4 4 -3 2702.23 372.638 10
4 -4 3 3115.66 336.449 5
-4 4 -3 4024.54 428.243 4
4 -4 3 3350.53 315.59 9
-4 4 -3 3323.69 275.727 8
-4 4 -4 9045.51 396.885 6
-4 4 -4 7493.32 608.93 10
4 -4 4 9061.06 603.954 5
-4 4 -4 7645.15 610.288 4
4 -4 4 8555.52 537.296 9
-4 4 -4 9001.83 454.753 8
4 -4 4 7700.83 607.903 14
4 -4 5 3374.36 408.415 14
-4 4 -5 3446.74 397.916 10
4 -4 5 3339.28 368.973 2
-4 4 -5 4276.92 443.071 4
4 -4 5 3542.25 358.673 9
-4 4 -5 3527.12 270.899 8
4 -4 6 15517.6 925.333 14
-4 4 -6 17082 623.413 13
-4 4 -6 15396.2 895.281 10
4 -4 6 15251.5 882.863 2
-4 4 -6 15348.4 907.827 4
-4 4 -6 17841.1 670.293 8
4 -4 7 1138.51 289.333 14
-4 4 -7 1151.59 258.542 10
-4 4 -7 1575.47 315.121 4
4 -4 7 1157.35 280.553 2
-4 4 -7 1240.73 158.338 8
4 -4 8 1848.75 344.237 14
-4 4 -8 2712.27 354.393 10
-4 4 -8 2515.22 402.345 4
4 -4 8 2227.32 366.011 2
4 -4 9 30612.6 1491.4 14
-4 4 -9 34213.7 1427 10
4 -4 9 31327 1498.21 2
-4 4 -9 31821.7 1506.64 4
4 -4 10 23008.8 1274.57 14
-4 4 -10 24657.5 1164.26 10
4 -4 10 22538 1273.06 2
-4 4 -10 20752.8 1218.59 4
4 -4 11 3372.84 495.745 14
-4 4 -11 3028.77 456.38 4
4 -4 11 3533.7 499.322 2
4 -4 12 6955.12 723.426 14
4 -4 12 7592.64 754.245 2
-4 4 -12 7792.23 757.467 4
4 -4 13 514.079 318.868 14
-4 4 -13 446.293 246.218 4
4 -4 13 931.842 306.26 2
4 -4 14 449.826 220.15 14
-4 4 -14 461.205 271.665 4
4 -3 -12 57.0487 205.445 1
-4 3 12 319.625 241.63 7
-4 3 12 444.913 303.34 12
-4 3 11 1320.2 345.012 7
4 -3 -11 1665 405.862 1
-4 3 11 1401.97 362.858 12
-4 3 10 590.519 245.496 7
-4 3 10 955.218 307.733 12
4 -3 -10 934.759 304.818 1
-4 3 9 9895.62 809.852 7
-4 3 9 10042.9 841.134 12
4 -3 -9 10454.1 850.481 1
4 -3 -8 10574.8 837.277 1
-4 3 8 10591.2 792.066 7
-4 3 8 11606.3 877.895 12
-4 3 8 11168.9 709.692 10
4 -3 -7 39483.7 1707.65 1
-4 3 7 40002.8 1655.06 7
-4 3 7 38393.5 1724.25 12
-4 3 7 41017.5 1560 10
4 -3 -6 3624.32 452.647 1
-4 3 6 3502.34 416.735 7
-4 3 6 3615.19 465.888 12
-4 3 6 3766.39 407.969 10
4 -3 -5 20359.5 831.087 3
-4 3 5 20510.7 1006.47 7
4 -3 -5 20506.5 1083.55 1
-4 3 5 19315.2 1076.68 12
-4 3 5 19822.2 1009.19 10
-4 3 5 22908.8 760.263 2
-4 3 4 1948.48 288.1 7
-4 3 4 2037.76 337.903 12
4 -3 -4 1871.16 221.985 3
-4 3 4 2650.47 344.223 10
4 -3 -4 2264.49 359.327 1
-4 3 3 14996.2 761.25 7
4 -3 -3 15031.3 696.722 3
-4 3 3 14926.3 851.539 12
4 -3 -3 14490.5 840.481 1
-4 3 3 14609.6 838.324 10
-4 3 3 15213.3 559.438 9
-4 3 2 10446.5 579.249 7
4 -3 -2 9646.39 553.597 3
-4 3 2 9511.56 645.951 12
4 -3 -2 9413.52 646.6 1
4 -3 -2 10478.2 566.618 5
-4 3 2 9733.68 667.44 10
-4 3 2 10350.5 489.077 2
4 -3 -2 10114 445.49 9
-4 3 1 46.0617 80.6918 7
4 -3 -1 -20.7124 97.2286 5
4 -3 -1 145.239 102.831 3
-4 3 1 180.193 146.175 10
4 -3 -1 71.7047 81.2649 9
-4 3 1 57.4481 103.841 8
-4 3 0 12049.8 590.521 7
4 -3 0 13340.5 440.86 13
4 -3 0 11959 657.482 3
4 -3 0 13025.4 637.949 5
-4 3 0 11870.9 751.216 10
-4 3 0 11912.4 712.117 4
4 -3 0 12680.6 565.881 9
-4 3 0 11554.6 642.733 8
4 -3 1 4605.7 366.869 5
-4 3 -1 5098.27 484.988 10
-4 3 -1 4621.66 433.383 4
4 -3 1 4517.53 331.356 9
-4 3 -1 4312.14 354.958 8
4 -3 1 4411.99 423.433 14
-4 3 -2 25422.7 1142.62 10
4 -3 2 23647.6 969.453 5
-4 3 -2 23651.2 1070.88 4
4 -3 2 25127.3 952.589 9
-4 3 -2 24146.3 936.119 8
4 -3 2 22778.2 1055.92 14
4 -3 3 1072.02 233.593 14
-4 3 -3 1467.57 162.365 6
-4 3 -3 909.795 226.09 10
4 -3 3 1065.94 204.023 5
4 -3 3 1208.12 200.905 9
-4 3 -3 1168.43 230.7 4
-4 3 -3 1065.62 169.443 8
-4 3 -4 4745.87 249.285 6
-4 3 -4 3553.49 399.215 10
-4 3 -4 4439.1 431.296 4
4 -3 4 4237.52 389.241 9
-4 3 -4 4346.98 329.138 8
4 -3 4 4319.19 433.175 14
4 -3 5 1606.2 286.545 14
-4 3 -5 1841.94 128.101 13
-4 3 -5 1800.32 305.376 10
4 -3 5 1497.35 248.975 9
-4 3 -5 1408.56 274.6 4
-4 3 -5 1814.5 212.194 8
4 -3 6 7599.94 601.164 14
-4 3 -6 7508.56 351.543 13
-4 3 -6 6977.3 568.291 10
-4 3 -6 7116.54 590.46 4
4 -3 6 7795.16 584.481 9
-4 3 -6 7762.04 455.076 8
-4 3 -7 4057.76 440.948 10
4 -3 7 3712.25 443.723 14
-4 3 -7 4191.22 466.711 4
4 -3 7 3999.81 440.818 9
-4 3 -7 4140.96 326.671 8
4 -3 7 3547.93 429.523 2
4 -3 8 20530.9 1107.17 14
-4 3 -8 20073.7 1012.87 10
4 -3 8 19396 1110.78 2
-4 3 -8 20716.1 1109.82 4
4 -3 8 20401.7 1092.37 9
-4 3 -8 22574.8 888.877 8
-4 3 -9 30941.1 1309.22 10
4 -3 9 29608.9 1428.6 14
4 -3 9 27585.2 1417.68 2
-4 3 -9 27904 1389.44 4
-4 3 -9 32572.6 1166.92 8
4 -3 10 301.57 219.484 14
-4 3 -10 0.81677 122.398 10
-4 3 -10 198.802 204.447 4
4 -3 10 60.8742 144.227 2
4 -3 11 28189.4 1456.11 14
4 -3 11 26510.3 1451.76 2
-4 3 -11 25406.6 1384.76 4
4 -3 12 6328.53 704.657 14
4 -3 12 5986.69 688.216 2
-4 3 -12 8232.62 769.744 4
4 -3 13 -99.3936 181.764 14
-4 3 -13 245.09 233.205 4
4 -3 13 -46.6488 226.776 2
4 -3 14 37.427 244.953 14
-4 3 -14 -16.5844 183.442 4
4 -2 -13 779.504 288.39 1
-4 2 13 672.851 270.505 7
4 -2 -12 1992.93 411.904 1
-4 2 12 1864.04 415.546 7
-4 2 12 2363.16 455.532 12
-4 2 11 -125.966 193.583 7
4 -2 -11 -234.336 241.265 1
-4 2 11 -55.8077 142.322 12
-4 2 10 5236.9 574.596 7
-4 2 10 4995.67 605.944 12
4 -2 -10 4467.74 558.456 1
-4 2 9 252.822 229.394 7
-4 2 9 295.47 192.993 12
4 -2 -9 192.274 166.087 1
-4 2 9 236.006 131.816 10
-4 2 8 1905.19 329.007 7
-4 2 8 2531.39 427.564 12
-4 2 8 2507.52 335.656 10
4 -2 -8 2453.16 384.11 1
4 -2 -7 7024.13 627.806 1
4 -2 -7 7509.62 479.812 3
-4 2 7 7506.73 603.637 7
-4 2 7 6183.89 614.088 12
-4 2 7 6145.3 525.266 10
-4 2 7 7340.52 448.694 2
4 -2 -6 11639.5 612.512 3
4 -2 -6 10485.4 733.165 1
-4 2 6 10694.5 684.294 7
-4 2 6 9798.59 751.848 12
-4 2 6 10343.9 682.381 10
-4 2 6 11547 565.746 2
4 -2 -5 68501.2 2036.46 3
-4 2 5 69526 2171.71 7
4 -2 -5 66048.1 2251.14 1
-4 2 5 64177.6 2294.15 12
-4 2 5 66039.3 2197.99 10
-4 2 5 69714.3 1962.35 2
-4 2 4 1140.05 213.153 7
-4 2 4 1271.73 270.869 12
4 -2 -4 1638.46 236.735 3
4 -2 -4 1863.05 286.09 1
-4 2 3 9592.37 546.806 7
4 -2 -3 10061.8 570.203 3
4 -2 -3 9363.79 629.407 1
4 -2 -3 9646.73 482.619 9
-4 2 3 9458.33 628.876 8
-4 2 2 21973.7 851.221 7
4 -2 -2 22609.9 938.63 3
4 -2 -2 21134 988.183 1
4 -2 -2 22821.3 837.731 5
4 -2 -2 21702.6 816.906 9
-4 2 2 19613.6 946.621 8
-4 2 1 3324.85 268.97 7
4 -2 -1 3696.03 346.635 3
4 -2 -1 4042.85 301.099 5
4 -2 -1 4143.78 314.163 9
-4 2 1 4571.63 390.845 8
4 -2 0 172.023 103.096 5
4 -2 0 239.914 137.646 3
-4 2 0 211.491 150.001 4
4 -2 0 352.182 105.836 9
-4 2 0 384.48 143.644 8
4 -2 1 9153.03 409.392 7
4 -2 1 9307.82 588.869 3
4 -2 1 9939.9 507.357 5
-4 2 -1 8924.55 580.435 4
4 -2 1 9120.33 522.785 9
-4 2 -1 9182.67 546.622 8
4 -2 1 8732.24 573.14 14
4 -2 2 10687.2 435.638 7
4 -2 2 10401.5 638.478 14
-4 2 -2 10833.1 645.178 4
4 -2 2 11031.9 601.518 9
-4 2 -2 10412.8 573.932 8
4 -2 3 2864.81 209.777 7
4 -2 3 3367.68 339.265 9
-4 2 -3 2487.47 320.277 4
-4 2 -3 2764.65 280.404 8
4 -2 3 3166.52 352.111 14
-4 2 -4 418.513 132.234 8
4 -2 4 372.005 177.908 14
4 -2 4 448.544 96.3876 7
4 -2 4 705.268 201.634 9
-4 2 -4 685.729 197.485 4
4 -2 5 8914.31 619.431 14
-4 2 -5 9613.49 336.439 13
-4 2 -5 8392.4 304.369 6
-4 2 -5 8973.44 618.437 4
4 -2 5 8345.35 596.641 9
-4 2 -5 8816.23 523.126 8
4 -2 6 56639.1 1977.77 14
-4 2 -6 57290.9 1553.7 13
-4 2 -6 55194.6 1967.21 4
4 -2 6 55992.2 1976 9
-4 2 -6 58127.1 1798.1 8
-4 2 -7 15495.3 873.555 10
4 -2 7 16350.8 929.51 14
-4 2 -7 15981.4 920.709 4
4 -2 7 16281.7 931.569 9
-4 2 -7 18407.9 820.594 8
4 -2 8 26427.4 1273.87 14
-4 2 -8 27744.3 1205.1 10
-4 2 -8 26155.1 1270.72 4
4 -2 8 24970.3 1264.31 9
-4 2 -8 27556.6 1106.72 8
4 -2 9 7795.53 677.213 14
-4 2 -9 8348.31 604.298 10
-4 2 -9 9765.64 741.139 4
4 -2 9 7982.67 696.601 9
-4 2 -9 8772.98 584.268 8
4 -2 10 4947.14 564.89 14
4 -2 10 4716.09 554.847 9
-4 2 -10 4776.41 541.029 4
-4 2 -10 4997.96 454.581 8
4 -2 11 20713.4 1203.99 14
-4 2 -11 18169.4 1137.59 4
4 -2 11 17655.7 1152.29 9
4 -2 12 9259.57 817.388 14
-4 2 -12 9362.55 823.586 4
4 -2 12 9567.76 859.083 9
4 -2 13 221.405 217.34 14
4 -2 13 -259.516 256.837 9
-4 2 -13 190.545 193.797 4
4 -2 14 1560.2 386.142 14
-4 2 -14 1048.21 323.831 4
4 -1 -13 3386.87 555.819 1
-4 1 13 4171.05 590.516 7
-4 1 13 2724.85 483.911 12
4 -1 -12 2863.06 485.471 1
-4 1 12 1890.56 393.064 7
-4 1 12 1858.52 403.402 12
4 -1 -11 214.964 248.251 1
-4 1 11 108.215 252.607 7
-4 1 11 75.7286 184.253 12
-4 1 10 8327.09 715.844 7
-4 1 10 8152.71 768.648 12
4 -1 -10 8963.64 748.267 1
-4 1 9 1566.99 325.455 7
-4 1 9 960.081 310.787 12
-4 1 9 1537.59 243.606 2
4 -1 -9 978.168 270.747 1
-4 1 9 1296.77 249.285 10
-4 1 8 2860.85 391.046 7
4 -1 -8 3042.44 331.682 3
-4 1 8 3029.76 434.578 12
-4 1 8 3771.47 365.515 2
4 -1 -8 3609.06 445.853 1
-4 1 7 277.099 181.26 7
-4 1 7 328.164 183.858 12
4 -1 -7 540.791 165.152 3
-4 1 7 411.472 157.453 2
4 -1 -7 626.234 215.2 1
4 -1 -6 8710.13 626.542 1
4 -1 -6 8811.66 562.44 3
-4 1 6 8252.54 576.087 7
-4 1 6 8178.55 666.823 12
-4 1 6 9182.11 543.845 2
4 -1 -5 23182.5 990.229 3
-4 1 5 24553 1001.8 7
4 -1 -5 23767.4 1074.33 1
-4 1 5 21839.2 1092.44 8
-4 1 4 25072.8 968.247 7
4 -1 -4 24148.7 1014.38 3
4 -1 -4 24749.9 1076.87 1
4 -1 -4 24142.6 937.093 9
-4 1 4 24873.1 1128.87 8
-4 1 3 2260.83 230.333 7
4 -1 -3 2223.59 199.014 5
4 -1 -3 1867.65 273.531 1
4 -1 -3 2214.84 285.949 3
4 -1 -3 2209.62 241.869 9
-4 1 3 2252.94 312.368 8
-4 1 2 35437.3 1099.84 7
4 -1 -2 35802.3 1032.84 13
4 -1 -2 33020.5 1287.6 3
4 -1 -2 34290.1 1290.85 1
4 -1 -2 35629.8 1059.9 5
4 -1 -2 33507.1 1192.42 9
-4 1 2 34464.2 1332.64 8
-4 1 1 39389.3 1118 7
4 -1 -1 38198.7 1005.35 13
4 -1 -1 39824.5 1415.62 3
4 -1 -1 38167.8 1136.15 5
4 -1 -1 38084 1302.59 9
-4 1 1 36918.9 1385.83 8
4 -1 0 33544.4 1292.72 3
4 -1 0 34616.2 1242.32 14
-4 1 0 33374.4 1235.82 4
4 -1 0 33262.9 1205.56 9
-4 1 0 34054.6 1262.02 8
4 -1 1 68.24 118.31 14
-4 1 -1 -15.5867 68.1447 5
4 -1 1 130.677 134.584 3
4 -1 1 -8.95135 120.108 9
-4 1 -1 56.7367 111.472 4
-4 1 -1 18.7936 120.127 8
4 -1 2 656.284 166.056 14
4 -1 2 691.37 162.106 9
-4 1 -2 400.171 137.964 4
-4 1 -2 613.922 183.047 8
-4 1 -3 -75.2832 111.987 8
4 -1 3 93.4874 32.2129 7
4 -1 3 53.7625 116.166 14
4 -1 3 9.94888 127.468 9
-4 1 -3 73.3781 105.654 4
4 -1 4 9056.67 582.52 14
4 -1 4 8744.44 347.672 7
-4 1 -4 8014.9 270.689 13
-4 1 -4 7975.23 548.394 4
4 -1 4 8819.83 598.87 9
-4 1 -4 8987.91 549.555 8
4 -1 5 2996.36 356.088 14
-4 1 -5 3878.27 401.102 4
4 -1 5 3524.45 394.253 9
-4 1 -5 3610.67 357.762 8
4 -1 6 20282.2 996.142 14
-4 1 -6 21089.4 619.545 6
-4 1 -6 18878.8 966.137 4
4 -1 6 18465.6 1003.86 9
-4 1 -6 18660.9 903.611 8
4 -1 7 5014.47 487.161 14
-4 1 -7 4560.94 466.225 4
4 -1 7 4438.1 496.369 9
-4 1 -7 5241.18 443.288 8
4 -1 8 11132.6 773.808 14
-4 1 -8 11409.4 768.456 4
4 -1 8 11232.9 811.432 9
-4 1 -8 11517.7 703.58 8
4 -1 9 7162.85 637.028 14
-4 1 -9 9180.06 629.862 10
-4 1 -9 7871.81 667.133 4
4 -1 9 8892.22 737.049 9
-4 1 -9 9461.46 649.167 8
-4 1 -10 1347.11 267.234 8
4 -1 10 1079.64 282.669 14
4 -1 10 1343.02 314.007 9
-4 1 -10 626.321 255.693 4
4 -1 11 6026.44 627.795 14
-4 1 -11 5332.76 593.3 4
4 -1 11 5861.6 657.683 9
-4 1 -11 5021.23 515.418 8
4 -1 12 769.47 274.972 14
4 -1 12 1573.56 385.532 9
-4 1 -12 1150.44 308.154 4
4 -1 13 226.466 198.311 14
4 -1 13 562.581 294.492 9
-4 1 -13 245.123 221.357 4
4 -1 14 344.442 262.67 14
-4 1 -14 594.979 258.667 4
-4 0 14 1444.21 445.86 7
-4 0 14 905.786 320.717 12
4 0 -14 680.997 276.647 1
-4 0 13 2381.7 496.126 7
-4 0 13 1241.3 324.722 12
4 0 -13 2325.37 447.726 1
4 0 -12 290.728 220.255 1
-4 0 12 588.986 307.803 7
-4 0 12 457.426 242.874 12
4 0 -11 232.049 167.291 1
-4 0 11 279.224 159.976 2
-4 0 11 457.849 225.428 12
4 0 -10 6567.55 561.189 3
-4 0 10 7201.73 701.672 12
4 0 -10 7321.06 551.659 11
-4 0 10 7906.81 598.937 2
4 0 -10 6781.9 633.328 1
4 0 -9 1366.8 264.561 3
-4 0 9 992.858 254.703 12
4 0 -9 936.086 259.792 1
-4 0 9 1314.39 245.852 2
4 0 -8 120.412 115.44 3
-4 0 8 230.591 177.41 12
-4 0 8 183.151 114.791 2
4 0 -8 -61.4293 142.752 1
-4 0 7 1320.17 301.165 12
4 0 -7 1127.65 224.664 3
-4 0 7 1218.9 218.626 2
4 0 -7 1102.07 229.61 1
-4 0 6 307.032 184.331 7
4 0 -6 52.4235 151.037 3
4 0 -6 32.7136 132.328 1
-4 0 6 -206.224 158.804 8
4 0 -5 18392.7 904.487 3
4 0 -5 20747.8 934.105 1
-4 0 5 20593.8 862.827 7
4 0 -5 19844.2 878.398 9
-4 0 5 18672.5 996.154 8
4 0 -4 58410.2 1898.72 3
-4 0 4 58260 1716.61 7
4 0 -4 58518 1721.47 13
4 0 -4 58418.1 1850.67 1
4 0 -4 58784.6 1519.45 5
4 0 -4 53417.3 1777.98 9
-4 0 4 53594.6 1948.33 8
-4 0 3 11094.1 497.67 7
4 0 -3 11350.3 500.631 13
4 0 -3 10124.3 629.47 3
4 0 -3 9181.02 568.122 1
4 0 -3 10730.2 380.505 5
4 0 -3 10479.8 590.941 9
-4 0 3 8773.71 621.222 8
-4 0 2 4691.58 263.891 7
4 0 -2 4854.37 273.193 13
4 0 -2 5500.65 450.175 3
4 0 -2 4510.8 371.752 1
4 0 -2 5221.12 409.342 9
-4 0 2 4542.87 422.536 8
-4 0 1 8374.94 301.335 7
4 0 -1 7986.72 318.338 13
4 0 -1 7622.16 553.243 3
4 0 -1 7437.1 506.548 9
-4 0 1 7641.04 545.061 8
4 0 0 16343.6 842.003 3
-4 0 0 15869.1 729.855 4
4 0 0 16954.2 805.423 9
-4 0 0 16615.4 823.617 8
4 0 0 17228.8 755.55 14
-4 0 -1 3070.53 229.221 5
4 0 1 2770.21 346.108 3
-4 0 -1 2897.65 287.549 4
4 0 1 3102.51 332.917 9
-4 0 -1 3065 336.886 8
4 0 1 3108.22 297.136 14
4 0 2 10290.9 670.37 3
-4 0 -2 9906.71 566.167 4
4 0 2 9634.6 626.903 9
-4 0 -2 9674.48 604.871 8
4 0 2 10585.4 578.227 14
4 0 3 2513.81 291.953 14
-4 0 -3 2584.16 147.687 13
4 0 3 2277.03 328.21 3
4 0 3 2634.02 339.066 9
-4 0 -3 1974.82 258.309 4
-4 0 -3 3015.34 332.939 8
4 0 4 24318.7 993.323 14
-4 0 -4 23032.8 968.661 4
4 0 4 24521 1102.09 9
-4 0 -4 24615 1032.64 8
-4 0 -5 443.718 171.45 8
4 0 5 56.0171 154.928 14
4 0 5 133.729 79.0647 7
4 0 5 286.573 143.449 9
-4 0 -5 263.363 141.893 4
4 0 6 10285.1 678.311 14
-4 0 -6 10981.9 481.401 6
-4 0 -6 10030.5 652.656 4
4 0 6 9605.24 716.187 9
-4 0 -6 10878.2 683.615 8
4 0 7 38224.2 1513.21 14
-4 0 -7 37073.3 1488.03 4
4 0 7 36544.8 1591.59 9
-4 0 -7 39066.1 1510.59 8
-4 0 -8 839.718 253.171 8
4 0 8 623.003 219.051 14
4 0 8 1544.09 344.459 9
-4 0 -8 914.429 240.476 4
-4 0 -9 -89.9074 125.737 8
4 0 9 255.625 210.509 14
4 0 9 288.008 200.821 9
-4 0 -9 -74.7713 157.112 4
-4 0 -10 8.85891 164.717 8
4 0 10 526.508 230.547 14
4 0 10 73.1338 197.456 9
-4 0 -10 520.444 224.451 4
-4 0 -11 992.835 265.504 8
4 0 11 1730.39 367.308 14
4 0 11 1141.31 325.281 9
-4 0 -11 1689.38 337.596 4
-4 0 -12 4211.05 512.508 8
4 0 12 4666.37 587.297 14
4 0 12 3912.83 567.607 9
-4 0 -12 3361.52 505.49 4
4 0 13 4343.52 595.495 14
-4 0 -13 4605.34 604.543 4
4 1 -15 531.782 281.654 1
-4 -1 14 5249.97 671.465 12
4 1 -14 5848.72 687.185 1
-4 -1 13 141.387 185.83 12
4 1 -13 -287.116 247.238 1
-4 -1 12 9595.55 846.672 12
4 1 -12 10248 825.761 1
-4 -1 12 10608.7 784.057 2
4 1 -11 140.945 181.082 1
4 1 -11 226.717 186.443 3
-4 -1 11 30.3971 171.949 12
-4 -1 11 227.598 171.504 2
4 1 -10 9143.88 682.118 3
-4 -1 10 8229.24 740.78 12
4 1 -10 9570.5 657.777 11
4 1 -10 8600.92 688.66 1
-4 -1 10 8707.3 662.571 2
4 1 -9 177.782 134.539 1
4 1 -9 91.6609 159.847 3
-4 -1 9 308.357 163.065 12
4 1 -9 199.194 168.348 11
-4 -1 9 542.777 178.756 2
4 1 -8 416.036 183.671 13
4 1 -8 316.631 184.202 3
-4 -1 8 544.815 223.1 12
4 1 -8 625.106 208.955 1
-4 -1 8 413.727 151.042 2
-4 -1 8 184.613 191.946 8
4 1 -7 1122.3 226.365 13
4 1 -7 1329.28 258.416 3
4 1 -7 1794.03 282.628 1
-4 -1 7 1426.21 319.802 8
4 1 -6 28438.2 1234.86 3
4 1 -6 29462.5 1170.77 13
4 1 -6 31569.4 1204.06 1
-4 -1 6 29700.8 1329.52 8
4 1 -5 3557.69 331.851 1
4 1 -5 3384.74 316.039 13
4 1 -5 3223.49 369.333 3
4 1 -5 2963.05 341.191 9
-4 -1 5 3183.63 395.504 8
4 1 -4 530.69 128.008 13
4 1 -4 457.503 124.717 1
4 1 -4 528.818 157.125 3
4 1 -4 431.75 179.345 9
-4 -1 4 419.5 180.066 8
4 1 -3 47736.8 1430.14 13
-4 -1 3 49386.9 1364.34 7
4 1 -3 45831.3 1675.41 3
4 1 -3 48543.1 1516.59 1
4 1 -3 45794.4 1614.81 9
-4 -1 3 45811.9 1696.29 8
4 1 -2 628.983 101.796 13
-4 -1 2 812.53 92.2902 7
4 1 -2 595.46 171.19 3
4 1 -2 640.567 177.423 9
4 1 -2 788.704 149.637 1
-4 -1 2 883.029 226.027 8
4 1 -1 7034.38 542.065 3
4 1 -1 7742.88 545.122 9
-4 -1 1 7533.77 560.556 8
4 1 -1 8199.13 455.732 14
-4 -1 0 436.568 163.397 8
-4 -1 0 519.213 72.3011 5
4 1 0 737.673 210.976 3
4 1 0 523.224 168.846 9
-4 -1 0 565.514 136.062 4
4 1 0 571.929 130.299 14
-4 -1 -1 6293.5 290.801 13
4 1 1 4757.11 458.058 3
-4 -1 -1 6396.35 323.445 5
-4 -1 -1 5304.3 372.298 4
4 1 1 5950.33 487.61 9
-4 -1 -1 5959.44 489.407 8
4 1 1 5365.4 369.909 14
4 1 2 47623.6 1503.99 14
-4 -1 -2 49990.7 1316.6 13
4 1 2 44846.3 1719.65 3
-4 -1 -2 47470.6 1422.66 5
-4 -1 -2 48667.3 1516.15 4
4 1 2 43690.5 1675.38 9
-4 -1 -2 46349.4 1671.92 8
4 1 3 11268.3 598.727 14
-4 -1 -3 11866 482.981 13
4 1 3 10203 714.285 3
-4 -1 -3 11066.4 594.796 4
4 1 3 10778.4 709.078 9
-4 -1 -3 10891.3 687.822 8
4 1 4 10706.6 610.135 14
4 1 4 10083 716.054 3
-4 -1 -4 11021.9 615.123 4
4 1 4 11102.5 741.623 9
-4 -1 -4 10784.8 688.01 8
4 1 5 18092.1 860.151 14
4 1 5 16965 973.141 3
-4 -1 -5 16571.9 831.027 4
4 1 5 17127.4 978.382 9
-4 -1 -5 18380.8 944.6 8
4 1 6 9154.79 627.456 14
-4 -1 -6 11130.9 555.986 6
-4 -1 -6 10373.6 658.676 4
4 1 6 9903.78 748.16 9
-4 -1 -6 10956.9 727.439 8
4 1 7 4706.84 459.546 14
4 1 7 5383.99 492.996 11
-4 -1 -7 4175.34 438.131 4
4 1 7 4658.85 521.143 9
-4 -1 -7 5043.57 505.207 8
-4 -1 -8 325.911 181.143 8
4 1 8 -89.2501 136.043 14
4 1 8 239.716 175.578 11
4 1 8 -17.0629 170.392 9
-4 -1 -8 36.6653 118.034 4
-4 -1 -9 818.492 246.109 8
4 1 9 1300.72 293.682 14
4 1 9 791.758 274.683 9
-4 -1 -9 490.684 192.405 4
4 1 10 344.399 195.478 14
-4 -1 -10 110.814 174.842 8
4 1 10 156.899 216.098 9
-4 -1 -10 288.198 189.669 4
-4 -1 -11 3349.26 473.626 8
4 1 11 3450.55 491.406 14
4 1 11 2870.93 494.385 9
-4 -1 -11 3828.52 515.161 4
-4 -1 -12 158.651 209.583 8
4 1 12 195.242 252.709 14
4 1 12 140.421 262.132 9
-4 -1 -12 201.627 159.746 4
-4 -1 -13 360.524 210.328 8
-4 -1 -13 -76.7833 240.252 4
4 2 -15 4236.94 602.163 1
4 2 -14 280.396 239.743 13
-4 -2 14 818.006 284.087 2
-4 -2 14 623.38 270.53 12
4 2 -14 884.957 307.413 1
4 2 -13 401.942 232.208 13
-4 -2 13 75.5441 248.858 12
-4 -2 13 1.99105 136.723 2
4 2 -13 344.397 257.368 1
4 2 -12 2987.87 459.193 13
4 2 -12 2977.64 424.605 3
-4 -2 12 3131.59 487.779 12
-4 -2 12 3624.43 475.393 2
4 2 -12 4074.14 501.423 1
4 2 -11 9322.15 752.919 3
4 2 -11 9609.86 772.839 13
-4 -2 11 8433.04 768.312 12
4 2 -11 10180.7 690.72 11
4 2 -11 9643.46 738.759 1
-4 -2 11 10511.3 780.909 2
4 2 -10 18033.7 1036.74 3
4 2 -10 18303 1054.63 13
-4 -2 10 17530.2 1101.62 12
4 2 -10 19045.1 993.026 11
4 2 -10 18759.1 1014.4 1
-4 -2 10 19386.1 1066.98 2
4 2 -9 -97.4327 149.314 1
4 2 -9 258.978 195.197 13
4 2 -9 -151.544 156.817 3
-4 -2 9 188.471 206.448 12
4 2 -9 -32.7614 137.648 11
-4 -2 9 60.2464 151.076 2
-4 -2 9 94.5162 203.975 8
4 2 -8 892.015 234.833 13
4 2 -8 809.826 208.33 1
4 2 -8 1015.17 266.34 3
4 2 -8 1036.04 255.541 11
-4 -2 8 839.114 209.115 2
-4 -2 8 920.99 250.102 8
4 2 -7 2239.48 306.665 13
4 2 -7 1925.02 307.693 3
4 2 -7 1761.87 247.396 1
4 2 -7 2053.88 319.943 11
-4 -2 7 2013.65 333.523 8
4 2 -6 52177.7 1919.56 3
4 2 -6 55648.1 1808.49 13
4 2 -6 54279.4 1950.92 11
4 2 -6 52233.8 1871.39 9
-4 -2 6 53931.5 1993.32 8
4 2 -6 56831 1746.58 1
4 2 -5 1864.83 258.779 13
4 2 -5 2360.93 254.382 1
4 2 -5 1659.34 294.94 3
4 2 -5 2400.01 371.109 11
4 2 -5 2016.17 301.676 9
-4 -2 5 2069.55 351.309 8
4 2 -4 5189.26 353.61 1
4 2 -4 5084.53 475.43 3
4 2 -4 4555.83 357.224 13
4 2 -4 4341 426.058 9
-4 -2 4 4352.72 451.977 8
4 2 -3 14897.5 658.142 13
4 2 -3 14005.6 814.418 3
4 2 -3 14518.2 621.807 1
4 2 -3 13674.1 777.628 9
-4 -2 3 13631.3 819.587 8
4 2 -2 21564.9 798.92 13
4 2 -2 18574.5 979.421 3
4 2 -2 21182.5 775.259 1
4 2 -2 19198.5 966.7 9
4 2 -2 21492.6 777.56 4
-4 -2 2 18030.3 966.226 8
4 2 -2 21807.7 778.232 14
-4 -2 1 601.445 118.316 13
4 2 -1 411.808 134.789 3
4 2 -1 388.898 97.5179 14
4 2 -1 357.928 157.859 9
4 2 -1 657.716 118.407 4
-4 -2 0 9207.6 441.465 13
4 2 0 8027.56 611.494 3
-4 -2 0 8238.09 322.924 5
-4 -2 0 8754.59 436.497 4
4 2 0 8443.76 614.318 9
4 2 0 8624.22 429.496 4
-4 -2 0 8296.87 594.723 8
4 2 0 8113.17 424.992 14
4 2 1 21756.4 806.452 14
-4 -2 -1 22560.5 797.535 13
4 2 1 19348.8 1025.18 3
-4 -2 -1 23226.7 757.018 5
-4 -2 -1 21372.8 808.299 4
4 2 1 19933.7 1020.8 9
4 2 1 23795.9 830.197 4
-4 -2 -1 21917.5 1057.01 8
4 2 2 7306.36 419.076 14
4 2 2 6662.73 560.76 3
-4 -2 -2 6560.06 402.507 4
4 2 2 5609.56 521.285 9
-4 -2 -2 6523.62 551.247 8
-4 -2 -3 2209.39 325.131 8
4 2 3 2132.91 235.514 14
4 2 3 2027.94 332.63 11
4 2 3 2350.62 346.789 3
4 2 3 1805.89 312.576 9
-4 -2 -3 1871.28 230.606 4
4 2 4 108415 2884.15 14
4 2 4 101197 3168 3
4 2 4 98989.7 3090.78 11
-4 -2 -4 103604 2859.88 4
4 2 4 98582.9 3154.59 9
-4 -2 -4 104403 3141.76 8
4 2 5 24950.4 1037.54 14
4 2 5 24171.6 1212.62 3
4 2 5 24272.5 1152.65 11
-4 -2 -5 24342.4 1024.01 4
4 2 5 23316.4 1221.18 9
-4 -2 -5 25549.6 1212.12 8
-4 -2 -6 2736.75 395.01 8
4 2 6 1851.63 293.575 14
-4 -2 -6 2909.52 309.559 6
4 2 6 2571.22 360.739 11
4 2 6 2168.36 349.257 3
4 2 6 2548.9 415.384 9
-4 -2 -6 2269.8 306.491 4
-4 -2 -7 2583.03 385.781 8
4 2 7 2579.62 339.214 14
-4 -2 -7 2221 285.051 6
4 2 7 2391.49 345.14 11
4 2 7 1911.49 371.313 3
4 2 7 2630.25 428.282 9
-4 -2 -7 2348.08 325.173 4
4 2 8 4565.62 476.075 14
4 2 8 4097.89 437.224 11
4 2 8 4032.74 495.184 3
-4 -2 -8 4148.89 449.993 4
4 2 8 3552.8 497.892 9
-4 -2 -8 4506.74 529.325 8
-4 -2 -9 116.464 194.833 8
4 2 9 -44.9593 138.164 14
4 2 9 89.7757 162.012 3
4 2 9 -159.383 152.512 9
-4 -2 -9 -41.092 138.485 4
-4 -2 -10 1738.46 359.401 8
4 2 10 1691.73 343.964 14
4 2 10 1584.04 368.42 9
-4 -2 -10 1655.71 329.274 4
-4 -2 -11 -122.75 220.881 8
4 2 11 -20.6575 170.393 9
-4 -2 -11 342.044 200.547 4
-4 -2 -12 1140.41 322.885 8
4 2 13 1276.23 373.616 3
-4 -3 15 960.622 329.711 2
-4 -3 15 1334.39 382.262 12
4 3 -14 2681.03 507.368 13
-4 -3 14 1295.41 375.418 12
-4 -3 14 2046.38 400.942 2
4 3 -14 2346.35 412.73 1
4 3 -13 308.158 248.733 13
-4 -3 13 469.639 232.802 12
-4 -3 13 53.2295 183.642 2
4 3 -13 485.396 196.75 1
4 3 -12 1099.43 305.195 13
4 3 -12 565.19 231.029 3
-4 -3 12 1189.51 324.919 12
-4 -3 12 561.147 213.154 2
4 3 -12 89.4654 177.793 1
4 3 -11 2426.21 387.757 13
4 3 -11 2543.71 403.79 3
-4 -3 11 1979.42 395.371 12
4 3 -11 2348.66 346.692 11
-4 -3 11 2835.06 419.295 2
4 3 -11 2311.44 356.621 1
4 3 -10 2010.58 336.028 13
4 3 -10 2267.22 384.205 3
-4 -3 10 1552.02 334.228 12
4 3 -10 2251.97 344.531 11
-4 -3 10 2521.55 398.101 2
4 3 -10 1886.94 305.018 1
-4 -3 10 1731.25 370.136 8
4 3 -9 3153.86 402.825 13
4 3 -9 3505.89 457.278 3
4 3 -9 4147.12 449.41 11
-4 -3 9 2954.28 407.739 2
4 3 -9 3601.73 381.853 1
-4 -3 9 3230.59 445.874 8
4 3 -8 450.019 158.496 1
4 3 -8 369.554 161.543 13
4 3 -8 575.248 199.252 3
4 3 -8 425.089 203.222 11
-4 -3 8 416.918 213.006 2
-4 -3 8 281.102 193.25 8
4 3 -7 3738.71 439.571 3
4 3 -7 3491.86 391.057 13
4 3 -7 4222.66 474.695 11
4 3 -7 3869.46 336.912 1
-4 -3 7 3328.25 440.391 8
4 3 -6 41220 1701.35 3
4 3 -6 43576.5 1578.87 13
4 3 -6 45876.1 1759.45 11
4 3 -6 45297.3 1713.93 9
4 3 -6 48293.2 1443.05 1
-4 -3 6 42014.1 1731.8 8
4 3 -5 622.325 173.172 13
4 3 -5 311.323 175.385 3
4 3 -5 597.742 133.571 1
4 3 -5 458.826 221.431 11
4 3 -5 719.581 234.083 9
-4 -3 5 533.018 198.412 8
4 3 -4 2424.1 286.162 13
4 3 -4 2866.85 225.474 1
4 3 -4 3151.07 418.401 11
4 3 -4 2536.55 361.283 3
4 3 -4 2531.33 221.707 4
4 3 -4 2624.75 353.62 9
-4 -3 4 2674.16 384.809 8
4 3 -3 197.256 75.7412 1
4 3 -3 88.1267 80.8787 13
4 3 -3 215.266 178.836 11
4 3 -3 220.208 158.743 3
4 3 -3 200.426 75.8312 14
4 3 -3 146.185 145.57 9
4 3 -3 22.0175 51.3458 4
-4 -3 3 190.346 149.348 8
-4 -3 2 15665.2 531.851 7
4 3 -2 13581.5 841.589 3
4 3 -2 16206 574.873 1
4 3 -2 14540.3 888.488 11
4 3 -2 14704.9 855.865 9
4 3 -2 16534.4 565.849 4
-4 -3 2 13887.6 842.326 8
4 3 -2 15805.6 563.148 14
4 3 -1 31016.4 881.511 14
-4 -3 1 27743.8 767.746 7
4 3 -1 28352.9 1284.75 3
4 3 -1 27038.7 1282.93 11
4 3 -1 28260.4 1261.21 9
4 3 -1 30837.8 879.764 4
-4 -3 1 27929.6 1261.44 8
4 3 0 4847.88 265.838 14
4 3 0 4182.07 463.39 3
4 3 0 3947.88 449.42 11
4 3 0 5158.55 305.042 1
4 3 0 4069.42 441.03 9
-4 -3 0 4239.83 456.605 8
4 3 1 7323.69 364.073 14
4 3 1 6817.32 588.168 3
4 3 1 6542.69 587.432 11
-4 -3 -1 7625.45 372.129 4
4 3 1 8092.49 431.309 1
4 3 1 7071.19 588.883 9
-4 -3 -1 5925.63 544.201 8
4 3 2 25844 879.051 14
4 3 2 26293.9 1225.36 3
4 3 2 24554.3 1193.9 11
-4 -3 -2 25315.1 873.773 4
4 3 2 22446.4 1162.45 9
-4 -3 -2 23429.7 1168.03 8
4 3 3 2924.62 265.33 14
-4 -3 -3 2649.13 388.478 8
4 3 3 2676.78 379.465 11
4 3 3 2374.44 351.498 3
-4 -3 -3 2752.14 253.319 4
4 3 3 2798.32 384.475 9
4 3 4 6176.43 419.375 14
4 3 4 5189.67 530.638 3
4 3 4 5697.19 534.081 11
-4 -3 -4 5466.73 402.107 4
4 3 4 4715.27 519.46 9
-4 -3 -4 5970.97 566.142 8
-4 -3 -5 525.889 205.993 8
4 3 5 804.63 183.548 14
4 3 5 681.998 213.259 11
4 3 5 485.093 199.555 3
4 3 5 356.431 185.607 9
-4 -3 -5 486.023 132.446 4
4 3 6 9350.09 609.833 14
4 3 6 8284.2 707.568 3
-4 -3 -6 9116.14 618.442 6
4 3 6 10016 720.605 11
4 3 6 9569.15 772.42 9
-4 -3 -6 9888.77 618.207 4
-4 -3 -6 9643.11 758.809 8
4 3 7 9261.76 651.546 14
4 3 7 9844.7 766.366 3
-4 -3 -7 9267.63 627.237 6
4 3 7 9447.77 696.774 11
4 3 7 9150.12 777.69 9
-4 -3 -7 9125.21 761.659 8
4 3 8 12722.9 905.276 3
4 3 8 12092 939.914 9
-4 -3 -8 13077.3 944.666 8
-4 -3 -9 -213.543 232.079 8
4 3 9 -52.2892 177.938 3
4 3 9 150.913 258.998 9
-4 -3 -10 286.804 250.189 8
4 3 10 218.854 190.135 3
4 3 10 512.465 288.911 9
-4 -3 -11 1117.15 348.658 8
4 3 11 1880.46 372.618 3
-4 -4 15 406.746 251.421 2
-4 -4 15 832.953 305.234 12
4 4 -14 1424.14 374.447 13
-4 -4 14 1114.23 312.975 12
-4 -4 14 1182.71 348.263 2
4 4 -13 1466.95 370.487 13
4 4 -13 2406.71 441.839 3
-4 -4 13 1922.31 412.386 12
-4 -4 13 2156.82 419.722 2
4 4 -12 677.193 238.093 13
4 4 -12 229.929 193.294 3
-4 -4 12 182.188 160.355 12
-4 -4 12 512.123 274.728 2
4 4 -11 129.134 168.244 13
4 4 -11 263.067 175.767 3
-4 -4 11 408.537 236.779 12
4 4 -11 -215.285 169.868 11
-4 -4 11 50.746 139.775 2
-4 -4 11 171.355 172.741 8
4 4 -10 5.91671 181.653 13
4 4 -10 70.638 173.335 3
4 4 -10 55.2076 168.952 11
-4 -4 10 543.68 227.878 2
-4 -4 10 114.516 185.076 8
4 4 -9 1487.62 301.829 13
4 4 -9 1290.1 284.014 3
4 4 -9 1918.86 340.303 11
-4 -4 9 1963.82 368.417 2
-4 -4 9 1855.65 354.467 8
4 4 -8 62203.7 2317.93 3
4 4 -8 61380.5 2196.88 13
4 4 -8 63228.3 2287.33 11
-4 -4 8 61488.1 2319.85 8
4 4 -7 404.95 180.146 13
4 4 -7 31.4631 151.664 3
4 4 -7 113.473 228.534 11
4 4 -7 232.182 106.368 1
-4 -4 7 281.542 265.037 8
4 4 -6 4988.67 522.012 3
4 4 -6 5208.18 470.759 13
4 4 -6 4849.5 516.354 11
4 4 -6 5323.92 539.349 9
4 4 -6 5810.32 328.9 1
-4 -4 6 4378.75 490.261 8
4 4 -5 3295.56 363.478 13
4 4 -5 3144.23 424.092 3
4 4 -5 3246.35 420.264 11
4 4 -5 3731.1 221.887 1
4 4 -5 3359.6 421.928 9
-4 -4 5 3262.12 424.412 8
4 4 -4 75.027 53.0277 14
-4 -4 4 22.2506 165.667 8
4 4 -4 139.609 115.558 13
4 4 -4 253.694 163.578 3
4 4 -4 -76.7365 171.289 11
4 4 -4 142.349 158.576 9
-4 -4 3 394.071 207.519 8
4 4 -3 220.876 191.477 11
4 4 -3 301.353 204.317 3
4 4 -3 237.111 189.65 9
4 4 -2 9095.12 686.338 3
4 4 -2 9753.36 731.226 11
4 4 -2 8949.86 689.526 9
-4 -4 2 9923.88 717.712 8
-4 -4 1 123.654 144.506 8
4 4 -1 381.32 228.211 11
4 4 -1 263.368 186.917 3
4 4 -1 130.562 41.6515 1
4 4 -1 341.593 209.004 9
4 4 0 24853.3 1226.78 3
4 4 0 26089 1267.2 11
4 4 0 25391.6 1240.12 9
-4 -4 0 25936 1240.66 8
4 4 1 27499.3 1299.91 3
4 4 1 27972.8 1320.59 11
4 4 1 27590.1 1316.42 9
-4 -4 -1 26612.9 1289.58 8
4 4 2 17322.6 994.334 3
4 4 2 16761.5 992.756 11
4 4 2 17002.4 998.266 9
-4 -4 -2 16179.8 974.9 8
4 4 3 9231.85 714.42 3
4 4 3 8477.17 686.381 11
4 4 3 9035.31 730.36 9
-4 -4 -3 8875.69 712.836 8
-4 -4 -4 3558.11 471.55 8
4 4 4 4209.88 486.698 11
4 4 4 3498.07 447.095 3
4 4 4 3229.22 456.048 9
4 4 5 9288.96 748.511 3
-4 -4 -5 10093.7 692.244 6
4 4 5 10097.9 742.084 11
4 4 5 9090.96 774.746 9
-4 -4 -5 7863.62 710.394 8
-4 -4 -6 1992.89 385.247 8
-4 -4 -6 1974.48 308.003 6
4 4 6 2476.11 371.881 11
4 4 6 1338.34 301.779 3
4 4 6 2985.43 444.445 9
-4 -4 -7 3333.73 509.024 8
-4 -4 -7 2572.88 362.557 6
4 4 7 3315.62 424.789 11
4 4 7 3386.92 465.137 3
4 4 7 3076.8 476.533 9
-4 -4 -8 1167.87 296.886 8
4 4 8 1169.41 312.651 3
4 4 8 835.009 296.793 9
-4 -4 -9 251.179 222.969 8
4 4 9 194.588 217.124 3
4 4 9 867.818 323.977 9
-4 -4 -10 1418.77 355.448 8
4 4 10 1183.88 311.049 3
-4 -5 15 -35.5895 185.911 12
4 5 -14 203.991 196.212 13
-4 -5 14 -44.9799 165.154 12
-4 -5 14 299.518 206.707 2
4 5 -13 2187.26 417.134 13
4 5 -13 2048.56 436.578 3
-4 -5 13 3372.22 504.9 12
-4 -5 13 2058.89 420.781 2
4 5 -12 3415.12 494.048 13
4 5 -12 2574.58 474.403 3
-4 -5 12 2492.17 445.806 12
4 5 -12 2354.19 375.065 11
-4 -5 12 2137.64 420.452 2
-4 -5 12 1838.28 373.66 8
4 5 -11 1306.56 290.873 13
4 5 -11 1846.38 397.386 3
4 5 -11 1173.53 273.085 11
-4 -5 11 1652.73 366.486 2
-4 -5 11 1773.22 365.914 8
4 5 -10 257.502 224.11 13
4 5 -10 323.181 239.276 3
4 5 -10 166.954 178.319 11
-4 -5 10 66.1641 162.116 2
-4 -5 10 -51.1755 176.944 8
4 5 -9 16059.1 1052.24 3
4 5 -9 15926.1 974.549 13
4 5 -9 15226.9 977.807 11
-4 -5 9 16994.8 1053.2 8
-4 -5 9 15908.8 1047.64 2
4 5 -8 18837.9 1135.54 3
4 5 -8 20732.6 1083.74 13
4 5 -8 21311.5 1165.02 11
-4 -5 8 19626.1 1135.98 8
4 5 -7 1265.6 269.024 13
4 5 -7 1387.39 330.601 3
4 5 -7 1781.28 351.406 11
4 5 -7 1709.66 339.992 9
-4 -5 7 1462.7 330.373 8
4 5 -6 6531.46 617.929 3
4 5 -6 6946.23 567.238 13
4 5 -6 6691.71 633.02 11
4 5 -6 5671.13 563.914 9
-4 -5 6 5971.52 597.359 8
4 5 -5 1207.14 258.711 13
4 5 -5 1952.42 360.487 3
4 5 -5 1586.73 325.632 11
4 5 -5 1328.15 292.441 9
-4 -5 5 1309.76 305.903 8
4 5 -4 701.634 180.273 13
4 5 -4 1.01385 156.551 3
4 5 -4 768.837 261.404 11
4 5 -4 532.462 223.751 9
-4 -5 4 735.641 237.779 8
-4 -5 3 2570.41 392.216 8
4 5 -3 2450.87 367.602 3
4 5 -3 2456.18 396.236 11
4 5 -3 1977.19 354.286 9
4 5 -2 18767.4 1063.14 3
4 5 -2 20733.9 1140.58 11
4 5 -2 18635.9 1069.09 9
-4 -5 2 19195.4 1072.19 8
-4 -5 1 1283.98 300.288 8
4 5 -1 1280.77 307.311 11
4 5 -1 1601.48 329.069 3
4 5 -1 1316.2 299.492 9
4 5 0 11348.3 795.909 3
4 5 0 11111.9 811.599 11
4 5 0 9042.84 733.316 9
-4 -5 0 10436.1 776.63 8
4 5 1 10834.2 780.841 3
4 5 1 10575.9 798.219 11
4 5 1 9632.9 771.108 9
-4 -5 -1 10657.8 798.844 8
-4 -5 -2 3554.14 472.738 8
4 5 2 3449.69 460.879 11
4 5 2 3464.51 459.099 3
4 5 2 3944.79 498.025 9
4 5 3 4472.71 512.438 3
4 5 3 4275.38 513.616 11
4 5 3 4007.24 516.108 9
-4 -5 -3 5435.86 578.071 8
4 5 4 6497.43 628.386 3
4 5 4 6656.13 636.628 11
4 5 4 7791.25 714.054 9
-4 -5 -4 7034.54 676.244 8
-4 -5 -5 970.62 271.958 8
-4 -5 -5 781.646 230.95 6
4 5 5 1462.61 314.602 11
4 5 5 1497.19 313.674 3
4 5 5 1661.63 371.446 9
-4 -5 -6 1147.66 260.894 6
-4 -5 -6 896.909 297.148 8
4 5 6 956.666 248.769 11
4 5 6 1308.98 282.88 3
4 5 6 1275.56 321.725 9
-4 -5 -7 -39.469 195.373 8
-4 -5 -7 595.755 245.68 6
4 5 7 58.0653 205.011 3
4 5 7 251.174 192.147 9
-4 -5 -8 1031.13 330.716 8
4 5 8 677.319 241.518 3
4 5 8 762.88 307.32 9
4 6 -14 515.981 297.076 13
-4 -6 14 457.9 281.299 12
4 6 -13 342.174 259.365 13
4 6 -13 156.344 188.781 3
-4 -6 13 191.873 180.57 12
-4 -6 13 657.113 257.276 2
4 6 -12 10672.9 929.686 3
4 6 -12 9104.92 809.343 13
4 6 -12 8689.4 744.635 11
-4 -6 12 8257.31 788.366 8
-4 -6 12 8105.89 816.555 2
4 6 -11 2532.05 408.175 13
4 6 -11 2380.64 444.564 3
4 6 -11 2322.32 406.955 11
-4 -6 11 2888.16 483.245 2
-4 -6 11 2424.23 424.071 8
4 6 -10 1289.6 324.781 13
4 6 -10 1157.28 311.798 3
4 6 -10 1945.96 374.368 11
-4 -6 10 1210.01 349.708 2
-4 -6 10 1159.01 310.891 8
4 6 -9 52.1337 165.11 13
4 6 -9 -95.9421 189.786 3
4 6 -9 128.06 183.944 11
-4 -6 9 424.852 236.71 2
-4 -6 9 111.826 170.107 8
4 6 -8 10498.1 855.357 3
4 6 -8 12711.1 857.034 13
4 6 -8 12469.4 894.326 11
-4 -6 8 11292.4 857.157 8
4 6 -7 943.363 249.209 13
4 6 -7 684.753 258.621 3
4 6 -7 857.661 277.132 11
4 6 -7 308.544 228.307 9
-4 -6 7 711.357 266.313 8
4 6 -6 3912.33 439.356 13
4 6 -6 3853.8 493.388 3
4 6 -6 4276.31 517.844 11
4 6 -6 3384.66 450.097 9
-4 -6 6 3431.82 464.251 8
4 6 -5 1557.5 283.272 13
4 6 -5 1214.42 286.478 3
4 6 -5 1336.66 348.355 11
4 6 -5 1459.9 325.79 9
-4 -6 5 1155.83 274.584 8
-4 -6 4 1731.77 337.392 8
4 6 -4 1344.57 324.261 3
4 6 -4 1354.33 314.862 11
4 6 -4 1523.75 326.376 9
4 6 -3 5510.45 575.695 3
4 6 -3 6102.15 627.324 11
4 6 -3 5927.45 595.66 9
-4 -6 3 5732.58 587.169 8
-4 -6 2 1768.96 346.773 8
4 6 -2 1797.32 349.033 3
4 6 -2 1664.05 365.894 11
4 6 -2 1259.82 306.713 9
4 6 -1 4874.57 536.805 3
4 6 -1 4943.47 573.06 11
4 6 -1 5383.97 583.443 9
-4 -6 1 4675.22 545.724 8
-4 -6 0 49.4647 161.801 8
4 6 0 46.386 182.349 11
4 6 0 -114.252 178.72 3
4 6 0 -84.7824 182.203 9
-4 -6 -1 59.7673 196.669 8
4 6 1 337.823 180.91 11
4 6 1 453.764 208.283 3
4 6 1 555.989 237.505 9
4 6 2 11707.1 844.177 3
4 6 2 10699.1 836.197 11
4 6 2 10360.6 838.562 9
-4 -6 -2 10128.3 831.011 8
-4 -6 -3 4562.15 553.715 8
4 6 3 4247.41 532.015 11
4 6 3 4610.61 537.98 3
4 6 3 4666.14 573.464 9
-4 -6 -4 -202.601 200.822 8
-4 -6 -4 -162.825 163.07 6
4 6 4 125.655 157.023 11
4 6 4 93.8972 185.936 3
4 6 4 -71.4573 165.407 9
-4 -6 -5 -57.7489 223.04 8
-4 -6 -5 -57.5397 195.092 6
4 6 5 285.371 189.985 11
4 6 5 -150.311 198.53 3
4 6 5 -168.036 200.05 9
-4 -6 -6 3051.05 519.268 8
-4 -6 -6 2040.46 375.452 6
4 6 6 2415 410.167 11
4 6 6 2819.89 440.781 3
4 6 6 2424 441.259 9
-4 -6 -7 720.973 335.093 8
-4 -6 -7 1536.89 345.325 6
4 6 7 1210.37 288.448 3
4 6 7 439.652 266.449 9
4 7 -13 939.408 346.263 13
-4 -7 13 813.058 329.577 8
4 7 -12 1375.92 367.666 13
4 7 -12 1104.44 350.718 3
4 7 -12 1667.39 368.618 11
-4 -7 12 1502.16 389.912 2
-4 -7 12 705.245 234.174 8
4 7 -11 468.482 262.533 13
4 7 -11 1324.48 363.421 3
4 7 -11 1050.79 313.722 11
-4 -7 11 868.758 302.095 2
-4 -7 11 959.864 277.972 8
4 7 -10 700.227 268.944 13
4 7 -10 331.259 265.559 3
4 7 -10 532.776 240.804 11
-4 -7 10 161.608 156.335 2
-4 -7 10 628.964 267.591 8
4 7 -9 2348.89 400.541 13
4 7 -9 2279.45 412.584 3
4 7 -9 2387.82 407.225 11
-4 -7 9 1900.8 393.086 2
-4 -7 9 2363.74 424.47 8
4 7 -8 5156 573.037 13
4 7 -8 4676.58 592.361 3
4 7 -8 4438.34 557.473 11
-4 -7 8 4867.14 559.076 8
4 7 -7 1850.33 357.19 13
4 7 -7 1427.64 349.355 3
4 7 -7 1552.49 361.237 11
4 7 -7 1877.94 415.896 9
-4 -7 7 1329.34 315.628 8
4 7 -6 -268.385 238.225 13
4 7 -6 -20.6942 161.259 3
4 7 -6 -20.6072 175.953 11
4 7 -6 146.3 145.498 9
-4 -7 6 -166.076 198.332 8
4 7 -5 3406.73 469.034 3
4 7 -5 3395.55 487.427 11
4 7 -5 2599.27 431.334 9
-4 -7 5 3803.6 495.325 8
4 7 -4 1960.36 370.278 3
4 7 -4 2175.06 416.541 11
-4 -7 4 1793.19 364.625 8
4 7 -4 2778.57 425.083 9
-4 -7 3 656.646 239.754 8
4 7 -3 608.07 246.283 3
4 7 -3 261.06 188.69 11
4 7 -3 63.6296 166.427 9
-4 -7 2 853.494 282.526 8
4 7 -2 1075.18 295.59 3
4 7 -2 1158.88 348.266 11
4 7 -2 667.428 260.73 9
-4 -7 1 3458.86 486.109 8
4 7 -1 3618.14 486.409 3
4 7 -1 2872.06 468.249 11
4 7 -1 2512.22 431.72 9
-4 -7 0 113.062 193.966 8
4 7 0 84.4406 210.732 3
4 7 0 60.9761 188.655 11
4 7 0 42.4701 161.237 9
-4 -7 -1 4612.19 571.99 8
4 7 1 5222.11 576.746 3
4 7 1 6088.79 648.141 11
4 7 1 6458.1 664.206 9
-4 -7 -2 1784.33 386.636 8
4 7 2 2135.07 371.327 3
4 7 2 1754.6 373.169 11
4 7 2 2088.02 404.665 9
-4 -7 -3 2079.92 405.395 8
4 7 3 1673.72 346.263 11
4 7 3 1866.11 370.234 3
4 7 3 2466.57 441.389 9
-4 -7 -4 233.066 234.628 8
-4 -7 -4 57.57 185.18 6
4 7 4 -224.154 245.172 11
4 7 4 29.5048 136.414 3
4 7 4 186.419 220.703 9
-4 -7 -5 1079.47 323.618 6
-4 -7 -5 933.727 298.264 8
4 7 5 1082.75 293.498 11
4 7 5 1231.25 321.515 3
4 7 5 1291.15 353.705 9
-4 -7 -6 2025.83 390.435 6
4 7 6 2105 416.216 9
-4 -8 13 23.0344 174.937 8
4 8 -12 2538.95 475.719 11
-4 -8 12 2863.06 494.378 8
4 8 -12 2148.52 435.686 13
4 8 -11 641.512 255.174 13
4 8 -11 325.598 295.634 3
4 8 -11 527.762 211.005 11
-4 -8 11 1444.21 392.637 2
-4 -8 11 759.15 297.43 8
4 8 -10 22827.2 1440.41 3
4 8 -10 22040 1341.15 13
4 8 -10 22868.8 1374.76 11
-4 -8 10 24186.1 1377.9 8
-4 -8 10 22642.9 1428.49 2
4 8 -9 1322.98 333.671 13
4 8 -9 1087.65 340.427 3
4 8 -9 1537.87 394.549 11
-4 -8 9 1046.14 318.991 2
-4 -8 9 1397.02 359.285 8
4 8 -8 243.44 240.027 13
4 8 -8 64.1013 195.126 3
4 8 -8 -61.3254 182.383 11
-4 -8 8 -62.9559 165.185 8
4 8 -7 243.701 200.033 3
4 8 -7 360.483 255.113 11
4 8 -7 147.675 223.883 9
-4 -8 7 89.7533 174.22 8
4 8 -6 560.135 256.088 3
4 8 -6 1070.66 306.512 11
4 8 -6 461.277 256.967 9
-4 -8 6 447.017 241.05 8
4 8 -5 954.282 292.346 3
4 8 -5 1378 380.495 11
4 8 -5 876.047 281.894 9
-4 -8 5 1203.64 305.95 8
4 8 -4 18753.1 1185.12 3
4 8 -4 19666.3 1252.38 11
4 8 -4 17513.5 1154.24 9
-4 -8 4 18708 1161.21 8
-4 -8 3 1324.11 335.206 8
4 8 -3 1275.2 331.654 3
4 8 -3 1530.22 376.6 11
4 8 -3 1144.3 348.69 9
-4 -8 2 2886.41 455.864 8
4 8 -2 2061.4 383.513 3
4 8 -2 2425.48 455.145 11
4 8 -2 2243.47 430.34 9
-4 -8 1 2776.55 449.424 8
4 8 -1 2104.17 386.427 3
4 8 -1 1763.12 390.841 11
-4 -8 0 70.8366 166.43 8
4 8 0 482.878 219.912 3
4 8 0 -203.735 210.963 11
4 8 0 280.388 189.688 9
-4 -8 -1 297.996 250.337 8
4 8 1 384.794 205.682 3
4 8 1 580.208 283.204 11
4 8 1 357.367 224.159 9
4 8 2 14912.7 1037.08 3
4 8 2 13956.5 1049.61 11
4 8 2 15877.9 1117 9
-4 -8 -2 12687.3 1018.95 8
-4 -8 -3 2319.07 465.974 8
-4 -8 -3 2410.46 456.049 6
4 8 3 1737.3 367.529 3
4 8 3 1918.26 403.68 11
4 8 3 1933.21 421.586 9
-4 -8 -4 691.252 299.592 6
4 8 4 221.374 142.938 3
4 8 4 367.681 236.995 11
4 8 4 611.291 251.049 9
-4 -8 -5 496.89 233.847 6
-4 -8 -6 13.766 191.344 6
4 9 -13 606.856 266.437 11
4 9 -12 2770.6 484.342 11
4 9 -11 661.911 334.625 13
4 9 -11 456.676 311.305 11
-4 -9 11 523.015 255.236 8
4 9 -10 242.537 213.764 13
4 9 -10 314.196 192.312 11
-4 -9 10 19.1592 195.422 8
4 9 -9 1765.56 386.421 13
4 9 -9 2504 478.065 3
4 9 -9 1883.88 436.308 11
-4 -9 9 2114.68 453.182 2
-4 -9 9 1827.17 382.445 8
4 9 -8 300.923 283.706 3
4 9 -8 -211.459 250.828 11
-4 -9 8 60.2643 201.823 8
4 9 -7 -61.1231 192.556 3
4 9 -7 211.878 225.049 11
4 9 -7 293.543 218.38 9
-4 -9 7 -14.8247 188.499 8
4 9 -6 885.756 322.153 3
4 9 -6 1331.25 364.265 11
4 9 -6 1104 326.141 9
-4 -9 6 874.68 257.462 8
4 9 -5 6321.52 721.864 3
4 9 -5 7150.86 774.598 11
4 9 -5 6503.6 728.449 9
-4 -9 5 6412.62 698.407 8
-4 -9 4 435.815 262.357 8
4 9 -4 831.941 294.559 3
4 9 -4 357.907 209.342 11
4 9 -4 398.837 228.698 9
-4 -9 3 -2.78741 183.119 8
4 9 -3 393.23 231.618 3
4 9 -3 506.628 243.022 11
4 9 -3 365.745 222.447 9
-4 -9 2 995.986 331.232 8
4 9 -2 1573.24 352.986 3
4 9 -2 1416.28 386.642 11
4 9 -2 2018.9 432.151 9
-4 -9 1 1595.12 383.819 8
4 9 -1 568.85 217.141 3
4 9 -1 711.452 298.327 11
4 9 -1 1082.64 325.184 9
-4 -9 0 3548.02 537.927 8
4 9 0 3700.62 518.334 3
4 9 0 3423.17 545.037 11
4 9 0 3244.76 525.162 9
-4 -9 -1 1671.46 402.345 8
4 9 1 753.139 254.998 3
4 9 1 1116.16 354.62 11
4 9 1 1275.29 339.783 9
-4 -9 -2 4504.57 612.011 6
4 9 2 4485.91 568.186 3
4 9 2 4285.76 613.485 11
4 9 2 4112.22 619.13 9
-4 -9 -3 270.936 185.03 6
4 9 3 310.51 283.387 11
-4 -10 10 3290.44 525.841 8
-4 -10 9 276.956 217.518 8
-4 -10 8 2417.04 463.148 8
-4 -10 7 28.9927 192.93 8
4 10 -6 13536.2 1078.46 3
-4 -10 6 13621.5 1049.96 8
-4 -10 5 2988.61 489.547 8
4 10 -5 4479.84 614.71 3
4 10 -5 2885.86 496.415 9
-4 -10 4 2612.47 474.445 8
4 10 -4 2285.97 452.792 3
4 10 -4 2656.39 504.056 9
4 10 -3 15547.4 1129.26 3
4 10 -3 15793.8 1172.95 9
-4 -10 3 14074.2 1104.52 8
-4 -10 2 4997.02 666.584 8
4 10 -2 4839.75 623.38 3
4 10 -1 479.48 237.642 3
4 10 0 3696.04 536.387 3
-5 10 3 748.202 335.984 10
5 -10 -2 -78.212 249.101 5
-5 10 2 77.6888 182.545 10
5 -10 -1 6150.58 723.332 5
-5 10 1 6604.08 745.276 10
5 -10 0 1141.2 337.698 14
5 -10 0 1276.03 377.428 1
5 -10 0 1341.34 342.385 5
-5 10 0 1174.03 351.191 10
5 -10 1 4156.83 595.896 14
5 -10 1 4849.18 629.335 5
-5 10 -1 4331.16 609.557 10
5 -10 1 4764.97 647.402 1
5 -10 2 -192.648 255.225 14
5 -10 2 384.772 284.332 1
5 -10 2 517.182 241.27 5
-5 10 -2 141.768 183.357 10
5 -10 3 5066.41 656.589 14
5 -10 3 4541.83 603.373 5
-5 10 -3 4785.53 645.379 10
5 -10 4 4518.72 615.727 14
5 -10 4 4376.67 601.656 5
-5 10 -4 3503.96 563.875 10
-5 10 -4 4020.1 574.521 4
5 -10 5 2058.46 425.844 14
5 -10 5 1288.85 333.679 5
-5 10 -5 2275.51 479.519 10
-5 10 -5 1687.65 403.682 4
5 -10 6 56.9857 205.575 14
5 -10 6 -170.082 204.203 5
-5 10 -6 -69.1439 193.585 10
-5 10 -6 418.548 245.781 4
5 -10 7 3491.03 551.158 14
5 -10 7 3504.7 554.066 5
-5 10 -7 2615.17 527.394 10
-5 10 -7 3530.25 556.922 4
5 -10 8 1764.39 428.15 5
-5 10 -8 1296.63 393.439 10
-5 9 5 1102.37 310.045 12
-5 9 5 386.905 234.468 10
-5 9 4 2830.7 508.871 7
-5 9 4 3013.52 486.374 12
5 -9 -4 2459.46 464.352 5
-5 9 4 3376.25 528.319 10
-5 9 3 2974.92 510.539 7
-5 9 3 2262.72 402.764 12
5 -9 -3 1292.17 359.374 5
-5 9 3 2244.85 432.015 10
-5 9 2 8695.18 746.219 12
5 -9 -2 8850.93 861.373 1
5 -9 -2 9566.59 859.467 5
-5 9 2 9795.88 896.766 10
5 -9 -1 230.071 266.595 1
5 -9 -1 85.6251 172.541 5
-5 9 1 -19.4129 185.23 10
5 -9 0 255.688 243.85 14
5 -9 0 151.776 221.172 5
-5 9 0 -227.58 239.319 10
5 -9 0 -371.752 309.156 1
5 -9 1 1832.16 415.873 14
5 -9 1 1168.98 339.606 5
-5 9 -1 1035.97 322.209 10
5 -9 1 1969.87 417.457 1
5 -9 2 391.809 214.841 14
5 -9 2 613.945 273.483 5
-5 9 -2 375.165 233.421 10
5 -9 2 854.011 267.859 1
5 -9 3 125.044 203.52 14
5 -9 3 -118.542 210.5 5
-5 9 -3 119.421 172.271 4
5 -9 4 4940.96 625.019 14
5 -9 4 3591.08 524.969 5
-5 9 -4 4277.58 603.336 10
-5 9 -4 3899.3 564.966 4
5 -9 5 12101.1 936.233 5
-5 9 -5 13240.4 1035.96 10
-5 9 -5 11054.6 937.894 4
5 -9 5 10683.8 930.65 14
5 -9 6 3908.24 565.381 14
5 -9 6 3543.02 517.906 5
-5 9 -6 3528.55 535.875 10
-5 9 -6 4722.37 617.539 4
5 -9 7 1046.99 325.414 14
5 -9 7 1335.54 371.312 5
-5 9 -7 710.673 271.609 10
-5 9 -7 547.205 236.119 4
5 -9 8 3103.9 520.076 14
5 -9 8 2483.34 484.187 5
-5 9 -8 2466.34 456.816 10
-5 9 -8 2678.2 466.975 4
-5 9 -9 356.253 215.873 10
-5 9 -9 880.628 296.899 4
-5 9 -10 610.792 206.541 10
-5 9 -11 529.306 305.884 10
5 -9 11 131.097 214.314 2
5 -9 12 1634.27 413.202 2
-5 8 6 -173.081 191.922 7
-5 8 6 -110.116 158.394 10
-5 8 5 1806.42 386.315 7
-5 8 5 1401.25 327.792 12
-5 8 5 1521.07 365.973 10
-5 8 4 3418.09 498.873 7
-5 8 4 2899.8 473.777 12
5 -8 -4 4159.04 599.649 1
-5 8 4 3251.06 509.987 10
-5 8 3 445.274 235.235 7
-5 8 3 440.214 220.496 12
5 -8 -3 548.536 221.655 5
-5 8 3 294.117 233.315 10
5 -8 -3 40.9753 226.276 1
5 -8 -2 124.031 208.846 1
-5 8 2 412.078 248.077 7
-5 8 2 159.037 142.612 12
5 -8 -2 313.933 240.189 5
-5 8 2 104.201 214.601 10
-5 8 1 8368.11 685.665 12
5 -8 -1 8274.27 795.89 1
5 -8 -1 7427.88 692.383 5
-5 8 1 10132.6 870.185 10
-5 8 0 1323.5 263.09 12
5 -8 0 1064.56 330.695 1
5 -8 0 596.975 207.781 5
-5 8 0 1481.16 361.797 10
5 -8 1 11800.1 879.216 5
5 -8 1 12486.1 964.135 1
-5 8 -1 11111.6 925.634 10
5 -8 1 11757.3 924.503 14
5 -8 2 7917.56 713.509 5
-5 8 -2 9258.8 837.626 10
5 -8 2 7741.32 749.961 14
5 -8 3 2625.62 443.994 14
5 -8 3 2500.09 414.882 5
-5 8 -3 2393.78 457.558 10
-5 8 -3 1949.64 390.598 4
5 -8 4 1590.77 367.359 14
5 -8 4 1777.78 351.373 5
-5 8 -4 1546.38 370.91 10
-5 8 -4 1306.05 331.391 4
5 -8 5 3972.73 553.071 14
5 -8 5 3374.6 493.415 5
-5 8 -5 4145.97 565.536 10
-5 8 -5 3436.5 489.932 4
5 -8 6 4977.84 602.649 14
5 -8 6 4548.72 567.305 5
-5 8 -6 5003.68 632.754 10
-5 8 -6 4388.08 582.293 4
5 -8 7 1489.22 305.687 14
5 -8 7 2312.67 416.374 5
-5 8 -7 2361.59 441.903 10
-5 8 -7 1749.69 402.27 4
5 -8 8 2237.63 467.205 14
-5 8 -8 2098.1 441.127 10
-5 8 -8 2056.15 439.777 4
5 -8 8 2089.34 372.298 2
5 -8 9 1338.31 375.19 14
-5 8 -9 959.647 300.514 10
-5 8 -9 849.353 303.99 4
5 -8 9 1074.94 294.331 2
-5 8 -10 353.479 240.01 10
-5 8 -10 -78.0756 208.21 4
5 -8 10 25.5941 145.56 2
-5 8 -11 1933.39 416.397 10
5 -8 11 1787.28 372.997 2
5 -8 12 7799.59 805.296 2
-5 7 7 4735.6 626.398 7
-5 7 7 3579.58 547.292 12
5 -7 -6 1988.68 442.643 1
-5 7 6 2981.64 498.453 7
-5 7 6 2327.63 442.689 12
-5 7 6 2519.39 413.668 10
-5 7 5 567.617 250.961 7
5 -7 -5 597.046 295.188 1
-5 7 5 669.279 242.184 12
-5 7 5 567.125 239.126 10
-5 7 4 6815.89 675.723 7
5 -7 -4 7434.4 767.921 1
-5 7 4 6817.24 677.256 12
-5 7 4 6530.9 682.879 10
-5 7 3 341.792 195.9 7
-5 7 3 483.44 210.128 12
5 -7 -3 360.692 238.991 5
-5 7 3 83.5601 172.199 10
5 -7 -3 31.1672 191.532 1
-5 7 2 1457.79 316.695 7
-5 7 2 1360.99 305.958 12
5 -7 -2 1528.75 351.566 1
5 -7 -2 1005.86 268.791 5
-5 7 2 942.851 298.003 10
-5 7 1 175.838 123.513 12
5 -7 -1 353.612 193.214 5
-5 7 1 11.9083 172.401 10
5 -7 -1 297.805 186.171 1
-5 7 0 3467.94 408.049 12
5 -7 0 3161.3 437.87 5
5 -7 0 3350.88 489.818 1
-5 7 0 3277.33 489.049 10
5 -7 1 3301.59 479.374 14
-5 7 -1 4341.22 432.496 12
5 -7 1 4207.92 492.807 5
-5 7 -1 3777.67 523.869 10
5 -7 2 4191.81 537.761 14
-5 7 -2 4107.62 406.413 12
5 -7 2 4766.09 531.215 5
-5 7 -2 3748.19 510.432 10
-5 7 -2 3673.35 503.329 4
5 -7 3 8359.21 710.536 5
-5 7 -3 9662.08 824.433 10
-5 7 -3 8886.94 765.75 4
5 -7 3 9039.19 784.961 14
5 -7 4 2521.41 420.896 14
5 -7 4 2611.89 395.126 5
-5 7 -4 2543.1 436.651 10
-5 7 -4 2669.32 446.752 4
5 -7 5 1026.62 316.858 14
5 -7 5 883.157 284.528 5
-5 7 -5 1377.14 348.351 10
-5 7 -5 1580.9 357.822 4
5 -7 6 5741.55 598.818 5
-5 7 -6 6204.99 666.25 10
-5 7 -6 6082.27 636.469 4
5 -7 6 4883.79 600.242 14
5 -7 7 2336.48 435.489 14
-5 7 -7 2223.33 418.137 10
-5 7 -7 1930.42 380.284 4
5 -7 7 2645.18 385.894 2
5 -7 8 1704.54 396.272 14
-5 7 -8 2051.2 410.833 10
-5 7 -8 1513.1 401.017 4
5 -7 8 1159.85 260.56 9
5 -7 8 1507.62 309.458 2
5 -7 9 1908.52 404.156 14
-5 7 -9 1316.41 351.073 10
-5 7 -9 1266.33 349.254 4
5 -7 9 1442.84 308.499 2
5 -7 10 880.268 294.765 14
-5 7 -10 424.185 239.592 10
-5 7 -10 929.286 353.181 4
5 -7 10 1129.12 337.657 2
5 -7 11 9474.77 904.883 14
-5 7 -11 10732.6 897.025 10
5 -7 11 10661.1 919.79 2
-5 7 -11 9466.09 889.445 4
5 -7 12 6395.51 727.676 2
-5 6 9 1110.91 323.399 7
-5 6 8 281.473 198.108 7
-5 6 8 184.521 209.3 12
5 -6 -7 13213.3 1052.83 1
-5 6 7 12160.2 960.659 7
-5 6 7 13275.7 1036.22 12
-5 6 7 13380.2 952.117 10
5 -6 -6 1148.06 352.979 1
-5 6 6 1095.94 252.742 7
-5 6 6 1375.49 347.346 12
-5 6 6 1301.37 319.772 10
-5 6 5 762.829 264.906 7
-5 6 5 425.888 183.677 12
5 -6 -5 91.4522 161.125 1
-5 6 5 374.194 247.294 10
-5 6 4 755.801 240.897 7
-5 6 4 436.946 187.286 12
-5 6 4 1019.47 304.355 10
5 -6 -4 300.432 187.362 1
-5 6 3 8721.03 709.718 7
-5 6 3 8920.7 737.96 12
5 -6 -3 9222.69 805.425 1
5 -6 -3 10089.2 735.95 5
-5 6 3 9959.25 805.537 10
-5 6 2 5659.97 543.2 7
-5 6 2 5981.84 566.711 12
5 -6 -2 4894.04 570.232 1
5 -6 -2 5148.8 522.193 5
-5 6 2 5005.81 580.698 10
-5 6 1 296.66 147.025 7
-5 6 1 52.5202 130.895 12
5 -6 -1 127.445 178.831 1
5 -6 -1 234.857 170.943 5
-5 6 1 283.069 194.159 10
5 -6 0 18690.3 895.165 3
-5 6 0 18756.4 993.235 12
5 -6 0 17508.2 990.608 5
5 -6 0 17238.6 1087.13 1
-5 6 0 17608.3 1119.82 10
5 -6 1 186.956 188.827 14
-5 6 -1 449.407 139.283 12
5 -6 1 188.133 156.202 5
-5 6 -1 135.205 159.769 10
5 -6 2 3946.07 503.285 14
-5 6 -2 4361.28 413.911 12
5 -6 2 4873.71 498.846 5
-5 6 -2 4418.23 547.228 10
-5 6 -2 3797 486.754 4
5 -6 3 689.466 249.054 14
-5 6 -3 723.348 179.46 12
5 -6 3 615.08 209.748 5
-5 6 -3 1102.1 307.907 10
-5 6 -3 411.043 205.063 4
5 -6 4 8332.05 671.505 5
-5 6 -4 8793.63 757.511 10
-5 6 -4 7094.94 678.574 4
5 -6 4 8135.42 725.733 14
5 -6 5 2130.8 404.354 14
-5 6 -5 970.594 297.719 10
5 -6 5 1813.49 357.608 5
-5 6 -5 1213.04 299.255 4
5 -6 5 1642.8 257.077 9
5 -6 6 4665.08 545.138 14
-5 6 -6 5569.76 620.213 10
-5 6 -6 5376.46 595.966 4
5 -6 6 5370.32 483.037 9
5 -6 7 481.324 251.426 14
-5 6 -7 71.9237 164.361 10
5 -6 7 48.1041 152.065 9
-5 6 -7 47.6788 174.587 4
5 -6 8 3215.22 490.591 14
-5 6 -8 3035.93 466.499 10
5 -6 8 2741.69 398.897 9
-5 6 -8 3181.1 494.928 4
5 -6 8 2554.38 399.75 2
5 -6 9 -243.57 241.685 14
-5 6 -9 124.974 215.853 10
5 -6 9 295.056 212.506 9
-5 6 -9 123.319 179.492 4
5 -6 9 66.4506 163.228 2
5 -6 10 5350.78 659.282 14
-5 6 -10 5353.35 602.159 10
-5 6 -10 4775.53 628.44 4
5 -6 10 5018.25 607.048 2
5 -6 11 6379.69 723.145 14
-5 6 -11 6189.67 647.145 10
5 -6 11 5753.12 680.689 2
-5 6 -11 6130.95 711.524 4
5 -6 12 6742.2 764.429 14
5 -6 12 6423.32 735.178 2
-5 6 -12 6560.24 753.323 4
-5 5 10 8586.38 854.002 7
-5 5 9 10453.6 906.734 7
-5 5 9 8752.21 860.816 12
5 -5 -9 8796.29 886.881 1
-5 5 8 4734.1 585.418 7
-5 5 8 4500.35 606.477 12
5 -5 -8 5345.6 650.769 1
-5 5 7 206.094 174.008 7
-5 5 7 -230.998 181.701 12
-5 5 7 68.2846 140.171 10
5 -5 -7 212.294 203.473 1
5 -5 -6 2961.08 487.511 1
-5 5 6 2931.5 433.321 7
-5 5 6 3064.82 474.889 12
-5 5 6 2633.09 414.763 10
-5 5 5 586.29 209.489 7
-5 5 5 737.064 247.473 12
5 -5 -5 186.03 158.131 1
-5 5 5 489.468 207.398 10
-5 5 4 1529.75 311.996 7
-5 5 4 1641.46 325.688 12
-5 5 4 1298.94 309.428 10
5 -5 -4 1562.78 342.268 1
-5 5 3 290.848 138.815 7
5 -5 -3 -199.648 204.826 1
-5 5 3 19.5693 157.358 12
5 -5 -3 133.492 148.126 5
-5 5 3 414.024 177.737 10
-5 5 2 925.888 223.259 7
-5 5 2 922.482 259.471 12
5 -5 -2 987.367 237.532 5
-5 5 2 1422.78 329.576 10
5 -5 -2 913.545 258.517 1
-5 5 1 25830.1 1140.41 7
5 -5 -1 25559.7 1079.82 3
-5 5 1 25720.3 1216.04 12
5 -5 -1 25628.9 1312.13 1
5 -5 -1 25745.6 1152.05 5
-5 5 1 21931.9 1247.03 10
5 -5 0 5032.66 453.933 3
-5 5 0 4605.98 466.657 12
5 -5 0 4242.24 447.018 5
-5 5 0 4103.2 507.611 10
-5 5 -1 7385.83 567.706 12
5 -5 1 7151.97 557.598 5
5 -5 1 7635.23 662.348 14
-5 5 -1 7142.19 665.56 10
-5 5 -1 7997.55 667.208 4
5 -5 2 1005.61 255.512 14
-5 5 -2 1413.12 246.169 12
5 -5 2 1730.6 297.721 5
-5 5 -2 1301.19 307.257 10
-5 5 -2 1244.97 296.36 4
5 -5 3 21258.5 1036.18 5
-5 5 -3 18015.1 1103.94 10
-5 5 -3 19597.5 1107.43 4
5 -5 3 20248.1 889.102 9
5 -5 3 20232.4 1122.85 14
5 -5 4 4908.3 489.486 5
-5 5 -4 4466.61 536.044 10
-5 5 -4 4728.69 530.466 4
5 -5 4 5000.11 427.492 9
-5 5 -4 5250.73 377.394 8
5 -5 4 4979.43 546.256 14
5 -5 5 4747.8 538.569 14
-5 5 -5 4083.38 511.692 10
-5 5 -5 5482.88 569.778 4
5 -5 5 4656.78 437.884 9
5 -5 6 2457.47 410.273 14
-5 5 -6 2907.16 437.086 10
5 -5 6 3314.4 397.22 9
-5 5 -6 3022.44 444.581 4
5 -5 7 13854.7 968.746 14
-5 5 -7 14947.4 980.165 10
-5 5 -7 14571.7 990.231 4
5 -5 7 16283.7 934.115 9
5 -5 8 3095.45 475.61 14
-5 5 -8 3529.46 471.799 10
5 -5 8 3262.17 438.25 9
-5 5 -8 3599.78 502.581 4
5 -5 9 -3.85964 186.585 14
-5 5 -9 317.631 199.364 10
5 -5 9 263.777 233.125 9
-5 5 -9 248.237 229.626 4
5 -5 10 31586.7 1639.42 14
-5 5 -10 34865.8 1601.06 10
5 -5 10 30554.9 1614.67 2
-5 5 -10 31371.7 1634.24 4
5 -5 10 33900 1617.47 9
5 -5 11 -437.104 338.733 14
5 -5 11 185.976 186.961 9
-5 5 -11 674.742 280.521 4
5 -5 11 56.0386 177.107 2
5 -5 12 782.258 327.667 14
5 -5 12 743.317 316 9
-5 5 -12 156.33 206.272 4
5 -5 12 419.367 243.413 2
-5 4 11 -117.006 297.713 7
-5 4 10 44.8704 199.126 7
5 -4 -10 -257.407 227.949 1
-5 4 9 4893.96 599.796 7
-5 4 9 3463.13 540.899 12
5 -4 -9 4640.3 618.318 1
-5 4 8 136.067 166.068 7
-5 4 8 26.3321 188.812 12
-5 4 8 -21.4319 143.025 10
-5 4 7 2408.14 398.005 7
-5 4 7 2363.32 433.709 12
-5 4 7 2382.38 373.55 10
5 -4 -7 2629.23 440.256 1
5 -4 -6 158.767 181.463 1
-5 4 6 777.149 235.183 7
-5 4 6 362.684 219.085 12
-5 4 6 274.405 171.557 10
-5 4 5 164.531 180.126 7
-5 4 5 144.778 193.127 12
5 -4 -5 28.6068 159.736 1
-5 4 5 467.452 231.583 10
-5 4 4 1.38875 127.604 7
-5 4 4 239.594 157.297 12
-5 4 4 434.201 206.952 10
5 -4 -4 387.721 230.041 1
-5 4 3 29603.5 1233.74 7
5 -4 -3 28270.1 1129.04 3
-5 4 3 27224.6 1331.57 12
5 -4 -3 27333.9 1356.39 1
5 -4 -3 27311 1161.64 5
-5 4 3 25595.1 1315.66 10
5 -4 -2 397.133 219.606 1
-5 4 2 134.272 125.92 7
-5 4 2 443.445 208.987 12
5 -4 -2 299.792 154.141 3
5 -4 -2 244.075 121.996 5
-5 4 2 401.599 237.157 10
-5 4 1 597.159 165.956 7
5 -4 -1 656.045 229.514 1
-5 4 1 1173.08 264.113 12
5 -4 -1 1249.36 239.983 3
5 -4 -1 615.469 178.923 5
-5 4 1 658.016 247.517 10
5 -4 0 5531.76 477.668 3
5 -4 0 5786.94 472.94 5
-5 4 0 5984.68 588.586 10
-5 4 0 5963.82 482.697 8
5 -4 1 36.8651 152.227 14
5 -4 1 71.9241 138.246 5
-5 4 -1 167.634 200.145 10
5 -4 1 67.4681 132.618 3
-5 4 -1 116.477 158.78 4
5 -4 1 132.479 108.686 9
-5 4 -1 4.63651 96.4324 8
5 -4 2 2.83531 156.449 14
-5 4 -2 566.112 232.738 10
5 -4 2 245.652 143.313 5
-5 4 -2 543.783 183.959 4
5 -4 2 297.207 144.932 9
-5 4 -2 380.695 149.146 8
-5 4 -3 8954.41 727.596 10
5 -4 3 8939.46 613.398 5
-5 4 -3 9080.45 704.04 4
5 -4 3 9597.68 593.288 9
-5 4 -3 9251.77 558.983 8
5 -4 3 8374.77 681.587 14
5 -4 4 810.799 275.009 14
-5 4 -4 597.895 244.703 10
5 -4 4 746.298 218.504 9
-5 4 -4 999.189 257.505 4
-5 4 -4 806.233 174.947 8
5 -4 5 1112.35 264.899 14
-5 4 -5 1741.08 322.179 10
5 -4 5 1698.25 284.311 9
-5 4 -5 1967.4 349.83 4
-5 4 -5 1510.93 207.05 8
5 -4 6 2853.5 433.275 14
-5 4 -6 2722.55 407.523 10
5 -4 6 2697.13 367.494 9
-5 4 -6 3082.55 428.135 4
5 -4 7 1674.69 343.459 14
-5 4 -7 1454.03 311.58 10
5 -4 7 1521.57 299.669 9
-5 4 -7 1190.34 288.772 4
5 -4 8 -48.0628 202.699 14
-5 4 -8 -142.099 202.318 10
5 -4 8 231.567 141.155 9
-5 4 -8 339.406 235.541 4
5 -4 9 27257.9 1441.42 14
-5 4 -9 27436.2 1373.47 10
-5 4 -9 26898.6 1428.41 4
5 -4 9 27007.4 1390.57 9
5 -4 10 27.4007 198.406 14
-5 4 -10 124.557 159.322 10
5 -4 10 -17.6668 172.365 9
-5 4 -10 73.5969 175.984 4
5 -4 11 -64.3355 180.83 14
5 -4 11 -94.6052 195.508 9
-5 4 -11 -125.723 210.966 4
5 -4 12 3635.49 564.227 14
5 -4 12 3787.69 565.089 9
-5 4 -12 4629.95 637.53 4
-5 3 11 8035.16 813.72 7
5 -3 -11 9666.74 915.76 1
-5 3 10 58.0637 219.293 7
-5 3 10 90.1931 181.142 12
5 -3 -10 136.775 244.336 1
-5 3 9 4027.43 519.471 7
-5 3 9 4115.37 585.906 12
5 -3 -9 4856.58 615.161 1
-5 3 8 2113.45 381.646 7
-5 3 8 1180.4 333.572 12
-5 3 8 2618.04 393.689 10
5 -3 -8 1998.1 380.876 1
-5 3 7 1829.56 328.512 7
-5 3 7 2082.77 407.055 12
-5 3 7 2181.23 361.115 10
5 -3 -7 2273.12 418.129 1
-5 3 6 13325.2 848.685 7
5 -3 -6 12645.3 904.84 1
-5 3 6 13623.6 964.799 12
-5 3 6 14160.5 903.527 10
-5 3 5 6316.28 535.188 7
5 -3 -5 5986.62 601.113 1
-5 3 5 6869.28 659.614 12
-5 3 5 7746.19 658.056 10
-5 3 4 147.785 102.731 7
-5 3 4 472.289 237.774 12
5 -3 -4 229.395 148.674 3
5 -3 -4 185.27 128.536 5
-5 3 4 280.355 193.389 10
5 -3 -4 390.352 210.923 1
-5 3 3 22862.1 1004.25 7
5 -3 -3 23362.8 1039.98 3
-5 3 3 22822.6 1181.93 12
5 -3 -3 21624.5 1149.39 1
5 -3 -3 23137.3 963.433 5
-5 3 3 22240.5 1175.02 10
-5 3 2 2430.2 280.956 7
5 -3 -2 1912.74 331.738 1
5 -3 -2 2144.8 296.984 3
5 -3 -2 2571.4 292.086 5
-5 3 2 1993.25 355.627 10
5 -3 -2 2730.92 260.394 9
-5 3 2 1970.37 319.379 8
-5 3 1 22231.2 894.674 7
5 -3 -1 20883.6 1015.34 3
5 -3 -1 23085.9 938.418 5
-5 3 1 20653.2 1129.13 10
5 -3 -1 20740 867.114 9
-5 3 1 22981.8 1061.4 8
5 -3 0 6918.72 551.92 3
5 -3 0 7545.84 491.181 5
-5 3 0 6954.43 622.096 10
5 -3 0 7148.5 478.724 9
-5 3 0 6939.77 537.799 8
5 -3 0 6957.76 582.565 14
5 -3 1 2782.98 359.142 14
-5 3 -1 3184.56 417.297 10
5 -3 1 2502.65 338.015 3
5 -3 1 2822.59 304.611 5
5 -3 1 2816.89 305.054 9
-5 3 -1 2981.94 379.804 4
-5 3 -1 3073.76 347.65 8
5 -3 2 233.347 156.161 14
-5 3 -2 2.99367 131.577 10
5 -3 2 173.778 135.59 9
-5 3 -2 145.025 167.992 4
-5 3 -2 27.8894 112.58 8
5 -3 3 2135.23 334.667 14
-5 3 -3 1931.8 341.266 10
5 -3 3 2298.06 295.31 9
-5 3 -3 1957.62 323.893 4
-5 3 -3 2788.2 309.602 8
5 -3 4 1667.53 292.897 14
-5 3 -4 2197.84 374.782 10
5 -3 4 2496.07 329.122 9
-5 3 -4 1500.17 293.024 4
-5 3 -4 2299.26 279.012 8
-5 3 -5 4486.14 509.07 10
-5 3 -5 4332.83 481.632 4
5 -3 5 4330.77 451.908 9
-5 3 -5 4509.46 394.148 8
5 -3 5 4214.42 477.56 14
5 -3 6 8589.56 693.917 14
-5 3 -6 8498.22 705.466 10
-5 3 -6 9070.64 708.046 4
5 -3 6 8940.62 691.686 9
-5 3 -6 9505.62 582.89 8
5 -3 7 28009.3 1362.35 14
-5 3 -7 26732.6 1322.58 10
-5 3 -7 25976.6 1319.16 4
5 -3 7 25378.2 1288.76 9
-5 3 -7 29693.6 1148.86 8
5 -3 8 26330.7 1349.54 14
-5 3 -8 25036.4 1279.61 10
-5 3 -8 26021.8 1344.16 4
5 -3 8 26054.8 1326.42 9
5 -3 9 2829.06 432.462 14
-5 3 -9 2681.42 413.092 10
5 -3 9 2940.23 452.269 9
-5 3 -9 2967.27 441.05 4
5 -3 10 13910.9 1012.39 14
-5 3 -10 15893.4 974.513 10
-5 3 -10 15382.1 1050.95 4
5 -3 10 14331.8 1021.86 9
5 -3 11 10266.3 889.047 14
-5 3 -11 11385.1 921.499 4
5 -3 11 10728.5 916.942 9
5 -3 12 2000.62 422.519 14
5 -3 12 1274.6 356.954 9
-5 3 -12 872.913 323.707 4
-5 2 12 210.275 199.052 7
5 -2 -12 1109.44 362.185 1
-5 2 11 -68.989 192.487 7
-5 2 11 96.2077 225.681 12
-5 2 10 940.687 277.933 7
-5 2 10 750.389 277.234 12
5 -2 -10 1193.66 359.557 1
-5 2 9 278.487 205.707 7
-5 2 9 571.384 250.294 12
-5 2 9 556.78 200.868 10
5 -2 -9 291.066 213.371 1
-5 2 8 112.527 156.428 7
-5 2 8 -136.003 166.419 12
-5 2 8 28.8814 133.55 10
5 -2 -8 118.879 167.307 1
5 -2 -7 7703.43 684.999 1
-5 2 7 7424.66 627.017 7
-5 2 7 8485.11 762.446 12
-5 2 7 7325.64 633.71 10
5 -2 -6 43084.5 1578.8 3
-5 2 6 45056.3 1663.63 7
5 -2 -6 43409.1 1782.31 1
-5 2 6 41963.9 1844.09 12
-5 2 6 42674.2 1751.2 10
-5 2 5 136.685 140.572 7
-5 2 5 -108.319 184.626 12
5 -2 -5 271.628 163.986 3
5 -2 -5 175.205 202.32 1
-5 2 4 26279.5 1081.75 7
5 -2 -4 25307.6 1126.38 3
5 -2 -4 25499.2 1229.85 1
5 -2 -4 27267.4 1003.83 5
5 -2 -4 25978.8 1011.92 9
-5 2 4 26094.5 1262.14 8
-5 2 3 12635.2 654.898 7
5 -2 -3 12506 741.918 3
5 -2 -3 12125.9 796.271 1
5 -2 -3 13222.2 625.12 5
5 -2 -3 12586.5 650.945 9
-5 2 3 13570.3 837.515 8
-5 2 2 74.0766 78.1964 7
5 -2 -2 65.531 45.5263 13
5 -2 -2 65.6516 122.931 3
5 -2 -2 94.2766 76.5999 5
5 -2 -2 296.41 148.645 9
5 -2 -2 -19.5085 161.612 1
-5 2 2 325.949 208.672 8
-5 2 1 21052.9 766.293 7
5 -2 -1 19283.2 982.016 3
5 -2 -1 19508.9 791.057 5
5 -2 -1 19417 874.752 9
-5 2 1 19194 980.434 8
5 -2 0 16507.1 899.854 3
5 -2 0 15567.6 691.884 5
-5 2 0 15032.6 848.149 4
5 -2 0 16244.6 790.683 9
-5 2 0 14322.6 822.393 8
5 -2 0 14865.7 839.904 14
5 -2 1 8206.84 634.102 3
-5 2 -1 7536.53 576.156 4
5 -2 1 8012.3 550.502 9
-5 2 -1 7741.36 562.592 8
5 -2 1 8031.52 603.173 14
5 -2 2 70.9185 133.613 14
5 -2 2 28.7874 165.268 3
5 -2 2 -114.695 140.288 9
-5 2 -2 -86.618 121.549 4
-5 2 -2 71.4407 115.54 8
5 -2 3 335.779 182.64 14
5 -2 3 268.681 147.936 9
-5 2 -3 566.67 210.925 4
-5 2 -3 437.614 163.599 8
5 -2 4 1898.33 314.079 14
5 -2 4 2350.14 344.261 9
-5 2 -4 2349.52 337.573 4
-5 2 -4 3050.89 349.563 8
5 -2 5 15785.3 923.524 14
-5 2 -5 16599.6 946.49 4
5 -2 5 16449.5 945.73 9
-5 2 -5 18253.7 884.277 8
5 -2 6 3154.48 413.653 14
5 -2 6 3322.88 418.984 9
-5 2 -6 3493.69 421.806 4
-5 2 -6 3586.63 366.717 8
-5 2 -7 1535.39 256.967 8
5 -2 7 1085.15 265.4 14
-5 2 -7 1149.21 284.291 10
5 -2 7 1431.13 315.521 9
-5 2 -7 886.281 252.045 4
-5 2 -8 1876.82 304.055 8
5 -2 8 2282.49 376.942 14
-5 2 -8 1825.02 334.202 10
5 -2 8 1412.42 309.584 9
-5 2 -8 1983.43 345.785 4
5 -2 9 4831.48 573.649 14
-5 2 -9 5338.89 550.609 10
-5 2 -9 6068.92 622.134 4
5 -2 9 4764.59 574.24 9
5 -2 10 34861.6 1642.57 14
-5 2 -10 31566.7 1579.7 4
5 -2 10 30080.2 1585.48 9
5 -2 11 12550.7 966.637 14
-5 2 -11 11321.5 920.518 4
5 -2 11 10603 925.216 9
5 -2 12 4548.26 610.801 14
5 -2 12 4954.88 641.484 9
-5 2 -12 4649.62 613.46 4
5 -2 13 161.134 214.829 14
5 -1 -13 4819.23 651.351 1
-5 1 13 4393.2 609.786 7
5 -1 -12 1984.39 433.508 1
-5 1 12 2694.53 474.488 7
-5 1 11 448.618 265.489 7
5 -1 -11 1102.94 333.675 1
-5 1 11 539.354 228.498 12
-5 1 10 2982.76 438.143 7
-5 1 10 2534.46 458.936 12
5 -1 -10 2970.91 470.18 1
-5 1 9 119.537 156.152 7
-5 1 9 128.963 186.083 12
5 -1 -9 18.7162 184.486 1
-5 1 9 524.12 210.161 10
-5 1 8 1075.42 260.271 7
5 -1 -8 1219.43 273.401 1
-5 1 7 3219.07 385.966 7
-5 1 7 2186.32 395.167 12
5 -1 -7 2540.04 342.957 3
-5 1 7 2164.57 298.933 2
5 -1 -7 2810.22 387.426 1
5 -1 -6 3445.02 397.244 3
5 -1 -6 4415.01 466.756 1
-5 1 6 3412.88 375.197 7
-5 1 6 3928.41 499.031 12
5 -1 -5 17692.7 930.722 3
-5 1 5 18582.8 864.949 7
5 -1 -5 18067.2 807.655 13
5 -1 -5 16931 949.67 1
-5 1 5 16316.4 1005.01 8
-5 1 4 42448.1 1397.3 7
5 -1 -4 39987.4 1553.85 3
5 -1 -4 39682 1308.6 13
5 -1 -4 38817.4 1553.94 1
5 -1 -4 41225.8 1222.11 5
5 -1 -4 38452.7 1416.2 9
-5 1 4 39367.5 1641.57 8
-5 1 3 14919.2 672.253 7
5 -1 -3 15916.9 622.704 13
5 -1 -3 15326 868.805 3
5 -1 -3 15015.7 852.86 1
5 -1 -3 16243.6 603.05 5
5 -1 -3 15511 780.132 9
-5 1 3 15036.2 904.407 8
-5 1 2 124813 3084.98 7
5 -1 -2 122188 2953.03 13
5 -1 -2 117380 3509.86 3
5 -1 -2 118613 3451.99 1
5 -1 -2 124434 3047.46 5
5 -1 -2 116378 3347.79 9
-5 1 2 112646 3505.91 8
5 -1 -1 293.368 165.674 14
5 -1 -1 3.88691 140.874 3
5 -1 -1 85.4411 138.108 9
-5 1 1 37.0281 138.166 8
5 -1 0 4662.26 482.939 3
-5 1 0 5588.39 473.564 4
5 -1 0 5313.06 461.749 9
-5 1 0 4890.6 471.207 8
5 -1 0 4906.12 440.821 14
5 -1 1 36.2015 120.859 14
5 -1 1 -27.0626 154.829 3
5 -1 1 1.47137 132.605 9
-5 1 -1 268.793 156.384 4
-5 1 -1 -107.576 140.403 8
5 -1 2 1947.98 291.553 14
5 -1 2 1404.09 281.504 3
5 -1 2 2005.13 313.893 9
-5 1 -2 1631.29 270.668 4
-5 1 -2 1856.22 297.401 8
5 -1 3 3298.5 419.201 3
5 -1 3 3259.95 387.591 9
-5 1 -3 2453.56 329.405 4
5 -1 3 3250.26 379.934 14
-5 1 -3 3163.61 367.746 8
5 -1 4 4072.76 426.202 14
5 -1 4 3812.14 470.263 3
-5 1 -4 4643.47 455.244 4
5 -1 4 4694.54 479.613 9
-5 1 -4 4628.3 454.726 8
5 -1 5 11613.4 753.772 14
-5 1 -5 11101.3 737.032 4
5 -1 5 12136 818.705 9
-5 1 -5 13850.8 789.736 8
5 -1 6 5459 525.151 14
-5 1 -6 5424.17 517.458 4
5 -1 6 5999.51 584.179 9
-5 1 -6 5672.57 502.815 8
5 -1 7 12467.3 849.015 14
-5 1 -7 13772.4 874.361 4
5 -1 7 12633.5 902.504 9
-5 1 -7 14521.4 849.149 8
-5 1 -8 393.223 185.755 8
5 -1 8 528.993 191.48 14
5 -1 8 533.616 217.448 9
-5 1 -8 852.551 269.752 4
-5 1 -9 682.306 235.119 8
5 -1 9 1064.43 303.95 14
-5 1 -9 684.497 234.853 10
5 -1 9 746.364 265.562 9
-5 1 -9 618.435 266.878 4
5 -1 10 3620.45 509.604 14
5 -1 10 4263.03 578.769 9
-5 1 -10 4334.98 534.014 4
5 -1 11 475.942 288.276 9
-5 1 -11 835.249 254.651 4
5 -1 12 13578.6 1051.22 14
-5 1 -12 14789.6 1084.38 4
5 -1 13 8650.23 853.062 14
5 0 -13 257.471 237.15 1
-5 0 13 407.738 278.638 7
5 0 -12 1645.52 394.502 1
-5 0 12 1765.81 389.276 7
-5 0 12 1479.11 370.369 12
5 0 -11 978.945 296.343 1
-5 0 11 1083.06 315.016 7
-5 0 11 952.421 328.889 12
-5 0 10 -58.7716 150.165 7
5 0 -10 53.9278 165.747 1
-5 0 10 -37.4711 188.985 12
-5 0 9 297.89 173.601 7
5 0 -9 270.706 169.456 3
-5 0 9 129.37 149.818 12
5 0 -9 323.52 202.545 1
-5 0 9 283.712 153.913 2
5 0 -8 802.638 217.539 13
-5 0 8 607.908 225.488 7
-5 0 8 741.858 238.595 12
5 0 -8 386.869 184.707 3
-5 0 8 918.466 223.167 2
5 0 -8 748.902 230.124 1
5 0 -7 1887.03 286.043 13
-5 0 7 2268.73 309.531 7
5 0 -7 2115.12 330.045 3
5 0 -7 2373.6 365.513 1
-5 0 7 2232.86 381.491 8
5 0 -6 -194.131 119.117 1
5 0 -6 196.268 147.575 13
-5 0 6 35.2008 120.396 7
5 0 -6 -16.7728 141.992 3
-5 0 6 -18.9938 168.081 8
5 0 -5 54875 1986.57 3
-5 0 5 55967.5 1769.09 7
5 0 -5 57301.6 1770.94 13
5 0 -5 56390.3 1940.25 1
5 0 -5 55034.7 1885.8 9
-5 0 5 53916.8 2081.52 8
-5 0 4 6116.24 398.909 7
5 0 -4 5853.17 386.326 13
5 0 -4 6333.59 552.947 3
5 0 -4 6913.85 530.357 1
5 0 -4 5984.75 486.294 9
-5 0 4 5232.17 538.085 8
-5 0 3 10534.5 477.874 7
5 0 -3 10511.9 481.613 13
5 0 -3 11282.6 743.781 3
5 0 -3 10361.5 652.129 1
5 0 -3 9663.25 638.093 9
-5 0 3 9866.32 725.656 8
5 0 -2 15.5544 49.717 13
-5 0 2 8.32097 31.8905 7
5 0 -2 -4.96338 149.115 3
5 0 -2 45.1953 122.511 9
5 0 -2 -87.6716 108.534 1
-5 0 2 -168.263 141.223 8
5 0 -1 60424 2164.72 3
5 0 -1 62216.3 2072.55 9
-5 0 1 64397.7 2180.02 8
5 0 -1 62707.1 2001.28 14
5 0 0 43200.1 1737.54 3
-5 0 0 46025.3 1577.37 4
5 0 0 43483.6 1656.72 9
-5 0 0 45585.1 1715.27 8
5 0 0 47011.3 1596.49 14
5 0 1 2939.17 401.775 3
-5 0 -1 3578.2 362.017 4
5 0 1 3225.54 388.19 9
5 0 1 3729.39 370.71 14
-5 0 -1 3645.28 418.941 8
-5 0 -2 20.9236 138.251 8
5 0 2 118.079 129.48 14
5 0 2 37.6753 190.108 3
5 0 2 14.8556 165.248 9
-5 0 -2 68.8229 98.6201 4
-5 0 -3 645.428 221.873 8
5 0 3 264.941 127.562 14
5 0 3 404.817 225.793 3
5 0 3 181.784 146.133 9
-5 0 -3 244.249 129.886 4
5 0 4 7202.88 545.276 14
5 0 4 7178.08 645.045 3
-5 0 -4 6777.15 536.355 4
5 0 4 7571.15 636.054 9
-5 0 -4 7044.35 584.281 8
5 0 5 13902.3 808.578 14
5 0 5 13823.1 934.574 3
-5 0 -5 13562.7 804.461 4
5 0 5 14211.5 919.269 9
-5 0 -5 15383 882.989 8
5 0 6 10803.6 736.978 14
-5 0 -6 10424.4 715.429 4
5 0 6 11146.2 844.216 9
-5 0 -6 11588.6 768.69 8
-5 0 -7 558.651 207.485 8
5 0 7 552.592 207.184 14
5 0 7 1034 279.221 9
-5 0 -7 587.9 215.883 4
5 0 8 4785.5 506.5 14
-5 0 -8 4542.28 499.02 4
5 0 8 4167.48 554.107 9
-5 0 -8 4768.04 513.957 8
5 0 9 3705.24 483.159 14
5 0 9 3946 533.767 9
-5 0 -9 3493.02 463.261 4
-5 0 -9 4259.34 507.011 8
-5 0 -10 2902.78 440.464 8
5 0 10 3485.31 491.058 14
5 0 10 3205.21 523.62 9
-5 0 -10 3636.27 496.83 4
5 0 11 3396.9 510.948 14
5 0 11 2662.99 480.257 9
-5 0 -11 2313.68 417.119 4
5 0 12 23855.3 1408.59 14
-5 0 -12 22775.9 1375.19 4
-5 -1 14 495.106 293.039 7
5 1 -14 171.437 254.469 1
5 1 -13 6382.56 718.114 13
-5 -1 13 6722.35 731.961 7
5 1 -13 5843.79 677.484 1
-5 -1 12 5757.76 639.68 7
5 1 -12 4924.36 594.797 13
-5 -1 12 4322.17 610.753 12
5 1 -12 4992.81 611.074 1
5 1 -11 13218.4 933.903 13
-5 -1 11 13960.3 964.238 7
-5 -1 11 11743.2 990.045 12
5 1 -11 12416.8 902.045 1
-5 -1 11 12787.4 883.978 2
5 1 -10 2664.7 405.353 13
5 1 -10 2675.09 411.179 1
-5 -1 10 3286.07 440.579 7
5 1 -10 2510.72 380.741 3
-5 -1 10 2069.21 429.766 12
5 1 -10 3250.35 442.084 11
-5 -1 10 2522.3 384.153 2
5 1 -9 320.653 210.654 13
5 1 -9 182.545 142.097 3
-5 -1 9 -42.4323 194.342 12
5 1 -9 195.911 174.301 1
5 1 -9 428.299 224.752 11
-5 -1 9 405.342 192.455 2
5 1 -8 180.838 121.865 13
-5 -1 8 465.472 200.728 7
5 1 -8 434.555 162.673 3
5 1 -8 385.516 182.713 1
-5 -1 8 270.035 157.81 2
-5 -1 8 106.132 209.566 8
5 1 -7 11204.4 789.603 3
5 1 -7 11507.3 706.274 13
-5 -1 7 11775.8 695.894 7
-5 -1 7 9999.88 818.087 8
5 1 -7 11777 741.164 1
5 1 -6 517.009 146.781 13
-5 -1 6 772.095 202.207 7
5 1 -6 211.071 162.939 9
5 1 -6 546.458 175.795 1
-5 -1 6 705.173 274.163 8
5 1 -5 7910.84 551.496 1
5 1 -5 7460.59 632.517 3
5 1 -5 6794.57 471.249 13
-5 -1 5 7581.99 462.503 7
5 1 -5 7129.09 569.505 9
-5 -1 5 7341.21 653.592 8
5 1 -4 50282.4 1566.09 13
5 1 -4 47811.6 1863.36 3
-5 -1 4 53304.5 1508.47 7
5 1 -4 50718.3 1697.9 1
5 1 -4 47950.5 1785.49 9
-5 -1 4 47766.5 1908.04 8
5 1 -3 -66.0795 104.983 1
5 1 -3 -0.38045 70.7708 13
5 1 -3 17.4815 142.675 3
5 1 -3 -33.7071 140.143 9
-5 -1 3 87.0006 157.322 8
5 1 -2 5414.4 534.246 3
5 1 -2 5083.51 404.7 1
5 1 -2 4912.05 471.891 9
5 1 -2 4914.18 399.555 14
-5 -1 2 3789.86 455.855 8
5 1 -1 5431.95 550.531 3
5 1 -1 6984.55 564.762 9
-5 -1 1 6066.74 564.607 8
5 1 -1 7020.71 475.315 14
5 1 0 8085.29 659.863 3
5 1 0 7419.67 616.032 9
-5 -1 0 8217.44 638.91 8
5 1 0 9052.55 540.564 14
-5 -1 -1 1071.33 263.167 8
5 1 1 333.708 120.596 14
5 1 1 716.236 248.193 3
5 1 1 877.288 266.855 9
-5 -1 -1 523.017 149.423 4
5 1 2 4169.13 375.985 14
5 1 2 3882.19 467.264 3
-5 -1 -2 4375.21 383.604 4
5 1 2 3978.23 462.006 9
-5 -1 -2 4612.15 478.537 8
-5 -1 -3 2203.77 344.407 8
5 1 3 2072.31 282.97 14
5 1 3 1792.63 346.38 3
5 1 3 2475.2 381.299 9
-5 -1 -3 2562.43 299.368 4
5 1 4 19451 908.69 14
5 1 4 15067.8 994.949 3
-5 -1 -4 17866.6 877.19 4
5 1 4 15699.1 992.541 9
-5 -1 -4 17836.5 1002.08 8
-5 -1 -5 342.182 212.408 8
5 1 5 17.2185 136.701 14
5 1 5 -95.6029 146.857 3
5 1 5 -171.295 211.632 9
-5 -1 -5 -51.4791 118.816 4
-5 -1 -6 289.721 176.372 8
5 1 6 269.982 176.046 14
5 1 6 -84.9866 195.834 3
5 1 6 372.241 200.586 9
-5 -1 -6 171.144 125.314 4
5 1 7 4111.53 465.699 14
-5 -1 -7 4697.74 511.977 8
5 1 7 4897.16 582.403 3
5 1 7 4746.5 539.831 11
-5 -1 -7 4570.81 478.446 4
5 1 7 4172.16 549.564 9
-5 -1 -8 349.221 235.822 8
5 1 8 -136.442 189.806 14
5 1 8 347.652 214.421 11
5 1 8 269.131 222.145 3
5 1 8 183.207 186.541 9
-5 -1 -8 -120.385 170.611 4
-5 -1 -9 45.254 170.341 8
5 1 9 16.627 160.183 14
5 1 9 -136.963 162.764 3
5 1 9 -10.1157 236.949 9
-5 -1 -10 727.895 249.534 8
5 1 10 1504.9 330.807 14
5 1 10 1368.69 354.417 3
5 1 10 335.226 214.309 9
-5 -1 -11 1434.56 363.492 8
5 1 11 2112.67 409.324 14
5 1 11 1679.27 396.456 3
5 2 -14 46.49 244.238 13
5 2 -13 3158.26 511.022 13
5 2 -12 77.7005 175.386 13
-5 -2 12 76.3806 175.951 12
-5 -2 12 -238.006 193.295 2
5 2 -11 1060.79 293.243 13
5 2 -11 1431.34 342.315 3
-5 -2 11 1004.95 336.027 12
-5 -2 11 498.017 184.911 2
5 2 -10 1706.84 314.075 1
5 2 -10 1568.23 317.074 13
5 2 -10 1908.81 366.281 3
-5 -2 10 1264.63 325.028 12
5 2 -10 1994.53 351.047 11
-5 -2 10 1341.13 312.183 2
5 2 -9 4773.5 539.737 3
5 2 -9 4159.94 471.294 13
5 2 -9 4447.83 530.238 11
-5 -2 9 4137.79 490.909 2
5 2 -9 5293.03 498.952 1
-5 -2 9 4172.86 574.266 8
5 2 -8 1342.07 249.609 13
5 2 -8 1116.44 233.6 1
5 2 -8 1248.47 301.304 3
5 2 -8 1637.61 335.758 11
-5 -2 8 2226.35 405.638 8
5 2 -7 31269.1 1463.12 3
5 2 -7 31554.7 1314.41 13
5 2 -7 30833 1468.2 11
-5 -2 7 31127.9 1522.45 8
5 2 -7 33141.2 1298.7 1
5 2 -6 1046.57 223.313 13
5 2 -6 865.91 266.009 3
5 2 -6 1245.71 330.719 11
5 2 -6 827.584 181.67 1
5 2 -6 1250.75 285.314 9
-5 -2 6 923.816 287.242 8
5 2 -5 -66.195 134.615 13
5 2 -5 223.235 224.361 11
5 2 -5 145.142 193.628 3
5 2 -5 267.893 172.601 9
5 2 -5 65.5319 84.4483 1
-5 -2 5 46.5317 173.65 8
5 2 -4 431.493 129.283 13
5 2 -4 509.879 124.642 1
5 2 -4 257.406 183.069 3
5 2 -4 187.311 166.178 9
-5 -2 4 571.676 235.446 8
5 2 -3 6750.91 418.837 13
5 2 -3 5558.46 565.225 3
5 2 -3 6094.67 423.692 1
5 2 -3 5714.14 543.439 9
-5 -2 3 5836.89 566.719 8
5 2 -3 6277.15 424.913 14
5 2 -2 31788.7 1492.62 3
5 2 -2 36033.7 1235.72 1
5 2 -2 33780.1 1471.78 9
-5 -2 2 34998.6 1530.76 8
5 2 -2 37140.9 1229.3 14
5 2 -1 3171.62 439.566 3
5 2 -1 2425.98 377.996 9
5 2 -1 2892.58 269.916 14
-5 -2 1 2910.05 402.165 8
5 2 0 11375.7 830.16 3
5 2 0 13312 860.939 9
-5 -2 0 12439.5 841.83 8
5 2 0 14153 644.181 14
5 2 1 6052.73 412.864 14
5 2 1 7152.73 640.232 3
5 2 1 7153.04 628.992 9
-5 -2 -1 7104.1 617.46 8
5 2 2 27241.6 1007.57 14
5 2 2 22392.9 1231.14 3
5 2 2 24241.3 1274.91 11
5 2 2 23750.9 1242.38 9
-5 -2 -2 23407.7 1215.67 8
5 2 3 16704.3 785.389 14
5 2 3 16428.8 1026.14 3
5 2 3 18448.4 1064.44 11
5 2 3 14968.8 975.83 9
-5 -2 -3 15892.9 971.204 8
-5 -2 -4 279.814 236.36 8
5 2 4 760.728 187.669 14
5 2 4 787.757 284.539 11
5 2 4 502.9 252.657 3
5 2 4 720.283 248.778 9
5 2 5 4681.7 425.69 14
-5 -2 -5 4489.86 513.145 8
5 2 5 4093.73 501.13 11
5 2 5 3629.05 493.879 3
5 2 5 4100.38 528.282 9
5 2 6 8757.54 619.838 14
5 2 6 7092.98 701.709 3
5 2 6 7716.57 681.596 11
5 2 6 8326.2 767.461 9
-5 -2 -6 8116.84 709.77 8
-5 -2 -7 1282.21 327.16 8
5 2 7 1155.93 301.759 11
5 2 7 872.367 274.439 3
5 2 7 1115.64 317.873 9
-5 -2 -8 2184.24 394.508 8
5 2 8 2331.31 410.569 3
5 2 8 2071.21 448.003 9
-5 -2 -9 1558.56 365.246 8
5 2 9 1422.87 389.971 3
5 2 9 718.044 308.062 9
5 2 10 9880.12 907.747 3
-5 -2 -10 10838 916.873 8
-5 -2 -11 -135.403 215.477 8
5 3 -14 6131.18 718.746 13
5 3 -13 -33.5096 176.856 13
5 3 -13 -50.4998 181.416 3
-5 -3 13 -12.5751 185.674 12
-5 -3 13 -85.5292 179.827 2
5 3 -12 421.706 241.542 13
5 3 -12 159.236 212.036 3
-5 -3 12 571.949 296.778 12
-5 -3 12 344.171 138.357 2
5 3 -11 9952 847.15 3
5 3 -11 9860.38 802.168 13
-5 -3 11 10173.3 900.1 12
5 3 -11 9468.52 769.326 11
-5 -3 11 10333.3 858.421 2
5 3 -10 112.885 154.641 13
5 3 -10 362.53 219.731 3
5 3 -10 668.901 252.704 11
-5 -3 10 265.212 169.85 2
-5 -3 10 288.652 212.203 8
5 3 -9 1592.55 319.482 13
5 3 -9 1877.22 366.335 3
5 3 -9 2192.94 395.058 11
-5 -3 9 2362.58 392.65 2
-5 -3 9 1562.29 358.485 8
5 3 -8 141.519 140.315 13
5 3 -8 192.283 216.317 3
5 3 -8 285.277 227.18 11
-5 -3 8 109.804 237.2 8
5 3 -7 15056.5 984.82 3
5 3 -7 15513.6 857.449 13
5 3 -7 16322.7 1033.63 11
5 3 -7 14171.9 931.279 9
-5 -3 7 13859.4 987.484 8
5 3 -6 1551.21 252.437 13
5 3 -6 2106.29 381.924 3
5 3 -6 2698.07 421.174 11
5 3 -6 1534.02 306.953 9
-5 -3 6 1691.04 347.138 8
5 3 -5 407.187 147.403 13
5 3 -5 167.551 175.364 3
5 3 -5 359.857 232.892 11
5 3 -5 137.213 147.539 9
-5 -3 5 118.769 188.731 8
5 3 -4 5839.53 447.179 13
5 3 -4 5539.54 577.361 3
5 3 -4 6211.35 624.602 11
5 3 -4 5799.72 577.607 9
-5 -3 4 5820.53 592.94 8
5 3 -3 5567.67 575.101 3
5 3 -3 5789.13 605.188 11
5 3 -3 5731.97 572.451 9
-5 -3 3 5298.49 558.892 8
5 3 -2 3621.95 491.014 11
5 3 -2 3640.75 464.663 3
5 3 -2 4309.11 503.532 9
-5 -3 2 3255.08 459.76 8
5 3 -1 10543.4 803.732 3
5 3 -1 11031.1 836.364 11
5 3 -1 9748.49 750.274 9
-5 -3 1 10665.1 791.722 8
-5 -3 0 810.131 262.319 8
5 3 0 890.75 305.692 11
5 3 0 756.378 258.761 3
5 3 0 654.841 269.885 9
5 3 1 10192.3 808.273 3
5 3 1 10356.5 805.922 11
5 3 1 10243.7 787.301 9
-5 -3 -1 10681.6 798.052 8
-5 -3 -2 3924.01 494.119 8
5 3 2 4210.6 530.376 11
5 3 2 3398.68 476.558 3
5 3 2 4057.62 514.423 9
-5 -3 -3 967.392 282.17 8
5 3 3 1184.81 283.711 11
5 3 3 753.942 237.218 3
5 3 3 525.986 169.518 9
-5 -3 -4 142.132 172.167 8
5 3 4 147.058 179.265 11
5 3 4 -112.229 189.593 3
5 3 4 262.361 208.679 9
-5 -3 -5 381.602 202.117 8
5 3 5 428.559 207.496 11
5 3 5 869.09 288.883 3
5 3 5 351.13 233.918 9
-5 -3 -6 1407.91 354.1 8
5 3 6 821.963 257.247 11
5 3 6 847.438 291.005 3
5 3 6 1030.19 309.135 9
5 3 7 10223.5 871.784 3
5 3 7 10492.3 819.638 11
5 3 7 9901.29 890.354 9
-5 -3 -7 10359.6 862.943 8
-5 -3 -8 306.105 222.01 8
5 3 8 469.807 239.896 3
5 3 8 591.858 269.754 9
-5 -3 -9 2935.33 496.082 8
5 3 9 2915.56 497.61 3
5 3 10 3498.65 544.458 3
5 4 -14 838.071 283.86 3
-5 -4 14 820.065 304.827 2
5 4 -13 3487.04 526.342 13
5 4 -13 3632.08 567.1 3
-5 -4 13 3492.73 561.999 12
-5 -4 13 3988.5 576.232 2
5 4 -12 604.179 243.188 13
5 4 -12 215.468 236.272 3
-5 -4 12 254.923 233.752 12
-5 -4 12 370.975 240.891 2
5 4 -11 528.087 232.183 13
5 4 -11 627.346 246.666 3
5 4 -11 572.159 252.589 11
-5 -4 11 545.103 257.788 2
-5 -4 11 509.029 288.076 8
5 4 -10 2386.72 383.456 13
5 4 -10 2107.09 413.787 3
5 4 -10 2708.37 423.053 11
-5 -4 10 2035.55 395.329 2
-5 -4 10 2963.38 478.379 8
5 4 -9 9461.36 813.551 3
5 4 -9 10067.2 753.678 13
5 4 -9 8951.58 777.466 11
-5 -4 9 9311.53 825.574 8
-5 -4 9 8386.69 771.946 2
5 4 -8 17.7798 146.892 13
5 4 -8 -114.158 187.923 3
5 4 -8 171.387 154.199 11
-5 -4 8 190.791 229.308 8
5 4 -7 9021.01 772.499 3
5 4 -7 10257 710.325 13
5 4 -7 10180.1 826.673 11
5 4 -7 7873.45 720.109 9
-5 -4 7 10289.3 831.197 8
5 4 -6 592.966 173.613 13
5 4 -6 674.362 226.779 3
5 4 -6 1247.9 324.162 11
5 4 -6 478.266 192.279 9
-5 -4 6 415.583 221.573 8
5 4 -5 1075.87 239.189 13
5 4 -5 983.33 267.467 3
5 4 -5 1365.18 346.345 11
5 4 -5 1154.91 278.853 9
-5 -4 5 1009.96 291.508 8
5 4 -4 130.107 213.468 3
5 4 -4 34.4456 177.601 11
5 4 -4 109.712 162.071 9
-5 -4 4 410.263 242.364 8
5 4 -3 13589.1 944.522 3
5 4 -3 15558.9 1020.95 11
5 4 -3 13842.2 929.982 9
-5 -4 3 13375.6 934.989 8
-5 -4 2 2748.3 423.967 8
5 4 -2 2341.2 415.881 11
5 4 -2 2211.8 395.304 3
5 4 -2 2510.91 416.594 9
-5 -4 1 343.491 200.613 8
5 4 -1 655.927 259.237 11
5 4 -1 531.203 220.309 3
5 4 -1 347.389 199.436 9
-5 -4 0 -140.379 153.429 8
5 4 0 -87.7392 176.975 11
5 4 0 109.807 136.663 3
5 4 0 12.1787 171.192 9
5 4 1 9362.04 789.007 3
5 4 1 8620.36 766.252 11
5 4 1 10361.3 827.532 9
-5 -4 -1 9963.08 799.328 8
-5 -4 -2 816.38 265.181 8
5 4 2 1173.57 326.495 11
5 4 2 1696.3 362.863 3
5 4 2 1206.05 304.414 9
-5 -4 -3 1074.04 297.34 8
5 4 3 987.064 310.977 11
5 4 3 1519.91 351.442 3
5 4 3 852.719 320.045 9
-5 -4 -4 1381.85 337.201 8
5 4 4 1535.07 328.597 11
5 4 4 1877.44 383.607 3
5 4 4 1853.73 383.756 9
-5 -4 -5 610.787 244.404 8
-5 -4 -5 -16.2672 136.551 6
5 4 5 263.709 238.181 11
5 4 5 635.146 288.743 3
5 4 5 592.342 293.782 9
-5 -4 -6 3168.62 506.793 8
5 4 6 3410.42 490.791 11
5 4 6 3229.62 498.049 3
5 4 6 3043.3 519.326 9
-5 -4 -7 1935.44 419.456 8
5 4 7 1092.38 300.741 3
5 4 7 1748.47 422.032 9
5 4 8 6657.68 720.425 3
-5 -4 -8 6634.86 758.72 8
5 4 9 1461.45 396.919 3
5 5 -13 5651.32 691.189 13
-5 -5 13 5057.79 667.738 12
-5 -5 13 6362.71 748.359 2
5 5 -12 588.175 251.419 13
5 5 -12 585.265 239.206 3
-5 -5 12 355.947 264.108 12
-5 -5 12 662.93 272.428 2
-5 -5 12 650.48 319.98 8
5 5 -11 3983.03 527.989 13
5 5 -11 3981.18 566.602 3
5 5 -11 3327.71 484.38 11
-5 -5 11 3492.91 532.54 2
-5 -5 11 3226.46 526.871 8
5 5 -10 -123.501 197.761 13
5 5 -10 19.0603 172.079 3
5 5 -10 -3.47594 164.146 11
-5 -5 10 -195.099 238.149 2
-5 -5 10 343.43 199.695 8
5 5 -9 318.4 205.621 13
5 5 -9 -269 235.462 3
5 5 -9 227.352 206.26 11
-5 -5 9 -265.798 242.253 8
5 5 -8 3667.85 473.396 13
5 5 -8 3247.58 486.126 3
5 5 -8 3480.99 488.62 11
-5 -5 8 3132.8 491.386 8
5 5 -7 2937.9 403.982 13
5 5 -7 2861.47 458.972 3
5 5 -7 3301.56 494.15 11
5 5 -7 3235.6 484.019 9
-5 -5 7 3552.53 493.36 8
5 5 -6 4353.22 463.598 13
5 5 -6 4084.26 543.567 3
5 5 -6 4448.45 553.947 11
5 5 -6 3782.7 514.823 9
-5 -5 6 4016.49 523.147 8
5 5 -5 7237.55 696.761 3
5 5 -5 7579.17 720.719 11
5 5 -5 6525.75 664.199 9
-5 -5 5 7386.91 698.215 8
5 5 -4 3387.91 485.649 3
5 5 -4 2382.52 421.342 11
5 5 -4 1878.92 374.777 9
-5 -5 4 3098.64 468.527 8
5 5 -3 4422.17 551.26 3
5 5 -3 4645.81 582.059 11
5 5 -3 4692.99 548.27 9
-5 -5 3 4420.29 551.048 8
-5 -5 2 20.9761 210.682 8
5 5 -2 -364.321 237.866 11
5 5 -2 -181.834 184.883 3
5 5 -2 98.7213 228.928 9
5 5 -1 7939.48 732.412 3
5 5 -1 8035.84 755.243 11
5 5 -1 7148.35 695.388 9
-5 -5 1 7660.79 712.601 8
-5 -5 0 2235.62 399.785 8
5 5 0 2341.55 421.004 11
5 5 0 3394.62 470.066 3
5 5 0 2126.4 405.882 9
-5 -5 -1 2526.75 443.397 8
5 5 1 3566.55 523.912 11
5 5 1 3378.73 489.527 3
5 5 1 2981.8 468.425 9
-5 -5 -2 3113.83 493.106 8
5 5 2 3772.88 551.265 11
5 5 2 4118.87 531.656 3
5 5 2 3999.48 552.198 9
5 5 3 11351.6 897.711 3
5 5 3 11286.3 910.818 11
5 5 3 9137.21 851.176 9
-5 -5 -3 11980.7 931.61 8
-5 -5 -4 237.034 239.014 8
5 5 4 170.528 245.667 11
5 5 4 3.57776 163.187 3
5 5 4 378.483 225.066 9
-5 -5 -5 1350.77 390.662 8
5 5 5 1088.35 337.529 11
5 5 5 1605.8 385.981 3
5 5 5 1571.83 383.362 9
-5 -5 -6 396.309 296.735 8
5 5 6 -285.273 194.61 11
5 5 6 -16.0545 176.208 3
5 5 6 -38.5862 186.436 9
5 5 7 2116.77 415.086 3
5 5 8 9408.49 874.954 3
5 6 -12 95.9109 175.921 13
5 6 -12 504.945 254.884 11
5 6 -11 1195.91 304.334 13
5 6 -11 1160.91 350.228 3
5 6 -11 1098.58 347.026 11
-5 -6 11 996.263 299.095 2
-5 -6 11 666.494 240.137 8
5 6 -10 470.614 221.417 13
5 6 -10 191.487 238.309 3
5 6 -10 257.484 183.073 11
-5 -6 10 382.053 248.389 2
-5 -6 10 -236.737 320.239 8
5 6 -9 231.492 163.465 13
5 6 -9 413.345 276.04 3
5 6 -9 -174.8 251.26 11
-5 -6 9 489.536 262.206 8
5 6 -8 2251.38 391.955 13
5 6 -8 2632.43 482.082 3
5 6 -8 2490.93 463.113 11
-5 -6 8 1886.05 401.743 8
5 6 -7 9237.64 840.287 3
5 6 -7 9060.19 728.229 13
5 6 -7 8980.66 825.846 11
5 6 -7 8404.15 798.593 9
-5 -6 7 9372.46 839.727 8
5 6 -6 1894.1 395.78 3
5 6 -6 1557.03 359.135 11
5 6 -6 1361.46 365.464 9
-5 -6 6 1823.19 366.523 8
5 6 -5 165.539 194.182 3
5 6 -5 -322.099 312.755 11
5 6 -5 137.411 185.376 9
-5 -6 5 -50.8765 197.37 8
5 6 -4 11976.1 930.165 3
5 6 -4 12541.2 973.903 11
5 6 -4 11303.8 906.546 9
-5 -6 4 12878.5 960.042 8
-5 -6 3 1556.47 355.255 8
5 6 -3 2513.9 431.725 3
5 6 -3 2572.56 459.045 11
5 6 -3 2336.54 428.194 9
-5 -6 2 3012.85 468.883 8
5 6 -2 3260.13 490.742 3
5 6 -2 4037.1 568.116 11
5 6 -2 4125.19 560.814 9
-5 -6 1 2322.39 424.726 8
5 6 -1 2014.36 389.875 3
5 6 -1 2235.14 434.313 11
5 6 -1 1523.63 345.837 9
-5 -6 0 501.461 286.454 8
5 6 0 245.999 228.7 11
5 6 0 -148.849 200.553 3
5 6 0 -359.632 249.642 9
5 6 1 6428.19 686.297 3
5 6 1 5941.4 679.344 11
5 6 1 6780.47 720.58 9
-5 -6 -1 5927.73 675.126 8
-5 -6 -2 5156.85 630.896 8
5 6 2 5748.55 668.328 3
5 6 2 4842.5 615.408 11
5 6 2 5245.02 661.096 9
5 6 3 6914.56 722.987 3
5 6 3 4680.9 598.744 11
5 6 3 7379.29 770.418 9
-5 -6 -3 6186.82 713.675 8
-5 -6 -4 -35.2366 174.049 8
-5 -6 -4 378.437 242.025 6
5 6 4 291.943 216.639 11
5 6 4 355 237.883 3
5 6 4 351.745 237.838 9
5 6 5 467.703 237.668 11
5 6 5 978.59 332.61 3
5 6 6 5901.55 678.22 3
5 6 7 1254.13 299.882 3
5 7 -12 -310.2 217.512 13
5 7 -12 -91.7712 212.182 11
5 7 -11 9804.7 876.67 13
5 7 -11 8545.3 838.454 11
-5 -7 11 10370.2 936.771 8
5 7 -10 7003.18 729.451 13
5 7 -10 6160.64 714.38 11
-5 -7 10 7641.19 793.309 8
-5 -7 10 7102.95 795.114 2
5 7 -9 6620.64 673.325 13
5 7 -9 5194.5 663.265 3
5 7 -9 6726.79 743.331 11
-5 -7 9 5103.65 647.785 8
5 7 -8 4673.39 566.137 13
5 7 -8 5349.51 671.632 3
5 7 -8 5655.22 685.694 11
-5 -7 8 5092.07 638.212 8
5 7 -7 109.418 221.714 3
5 7 -7 -284.276 235.205 9
-5 -7 7 37.576 220.259 8
5 7 -6 703.348 318.799 3
5 7 -6 145.499 178.775 11
5 7 -6 210.727 181.481 9
-5 -7 6 556.185 276.38 8
5 7 -5 523.247 264.782 3
5 7 -5 259.586 234.645 11
5 7 -5 993.109 320.549 9
-5 -7 5 921.907 330.281 8
5 7 -4 8484.37 829.883 11
5 7 -4 9210.79 850.617 9
-5 -7 4 10133.1 892.185 8
-5 -7 3 975.471 319.08 8
5 7 -3 1172.77 361.128 3
5 7 -3 923.161 336.73 11
5 7 -3 862.069 285.028 9
5 7 -2 8418.76 802.861 3
5 7 -2 6522.84 738.888 11
5 7 -2 7953.2 788.664 9
-5 -7 2 7058.12 741.501 8
-5 -7 1 298.998 219.611 8
5 7 -1 177.389 161.24 3
5 7 -1 529.95 270.725 11
5 7 -1 949.124 355.57 9
-5 -7 0 522.203 260.171 8
5 7 0 213.666 202.821 3
5 7 0 639.022 309.487 11
5 7 0 1069.06 317.423 9
-5 -7 -1 1990.84 426.74 8
5 7 1 1120.95 317.109 3
5 7 1 1940.18 435.879 11
5 7 1 1912.8 434.641 9
-5 -7 -2 2371.16 462.33 8
5 7 2 2174.61 429.733 3
5 7 2 2445.45 492.114 11
5 7 2 3599.48 565.84 9
5 7 3 472.849 260.67 11
5 7 3 725.355 297.515 3
-5 -7 -4 504.483 261.702 6
5 7 4 512.967 242.906 11
5 7 4 410.7 217.104 3
5 7 5 2981.49 500.14 11
5 7 5 2805.81 482.075 3
5 8 -11 2099.5 447.797 13
5 8 -10 1428.43 365.199 13
5 8 -10 1831.81 439.919 11
5 8 -9 17757.5 1171.85 13
5 8 -9 16506.3 1224.48 11
-5 -8 9 16312.7 1201.35 8
5 8 -8 3747.58 594.78 11
-5 -8 8 4211.99 587.425 8
5 8 -7 330.852 247.616 3
5 8 -7 -280.542 216.633 11
5 8 -7 -225.98 244.733 9
-5 -8 7 -136.779 225.345 8
5 8 -6 417.511 208.545 3
5 8 -6 38.1447 198.847 11
5 8 -6 328.094 245.438 9
-5 -8 6 228.949 245.738 8
5 8 -5 993.425 308.599 3
5 8 -5 554.448 306.939 11
5 8 -5 874.555 314.485 9
-5 -8 5 962.777 310.857 8
5 8 -4 1203.72 315.019 3
5 8 -4 1877.04 462.088 11
5 8 -4 1731.25 409.639 9
-5 -8 4 830.159 287.3 8
-5 -8 3 6061.3 706.249 8
5 8 -3 6016.77 696.186 3
5 8 -3 7201.3 791.66 11
5 8 -3 7645.89 789.476 9
5 8 -2 7559.23 796.085 3
5 8 -2 6686.33 769.033 11
5 8 -2 6761.51 758.265 9
-5 -8 2 8295.65 830.051 8
-5 -8 1 277.222 225.24 8
5 8 -1 320.386 214.877 3
5 8 -1 22.6729 257.026 11
5 8 -1 447.922 271.827 9
5 8 0 2618.05 462.531 3
5 8 0 2414.43 466.032 11
5 8 1 11028.5 960.188 3
5 8 2 579.244 273.617 3
-5 -8 -3 1397.01 355.244 6
5 8 3 1391.11 352.939 3
6 -10 2 581.642 224.113 5
6 -10 3 381.406 286.964 5
6 -9 -3 7247.47 770.952 5
6 -9 -2 14155.4 1067.88 5
6 -9 -1 2764.83 479.109 5
6 -9 0 116.002 196.976 5
6 -9 1 3072.86 513.269 5
6 -9 2 2819.04 474.445 5
6 -9 3 16741.3 1149.89 5
6 -9 4 5732.16 677.697 5
6 -9 5 203.038 275.087 5
6 -9 6 56.6492 208.738 5
-6 8 5 2817.46 483.967 7
6 -8 -5 1657.51 369.229 5
-6 8 5 2912.56 513.091 10
-6 8 4 232.149 228.963 7
-6 8 4 622.411 266.939 12
6 -8 -4 826.163 311.48 5
-6 8 3 268.854 237.977 7
-6 8 3 183.016 214.779 12
6 -8 -3 615.638 277.692 5
-6 8 3 319.97 250.66 10
-6 8 2 1151.95 328.053 12
6 -8 -2 1189.19 317.576 5
-6 8 2 1082.77 340.629 10
6 -8 -1 2111.85 443.792 14
6 -8 -1 2862.02 514.458 1
6 -8 -1 2858.88 455.817 5
-6 8 1 2352.15 494.144 10
6 -8 0 9773.08 924.581 1
6 -8 0 10895.6 883.883 5
-6 8 0 9685.24 912.641 10
6 -8 0 10235.2 923.951 14
6 -8 1 4642.06 585.229 5
-6 8 -1 5371.37 672.866 10
6 -8 1 6184.79 720.106 1
6 -8 2 1861.71 430.568 14
6 -8 2 1873.34 373.245 5
-6 8 -2 2570.76 509.911 10
6 -8 3 3479.14 539.226 14
6 -8 3 2010.8 375.543 5
-6 8 -3 3098.97 535.951 10
-6 8 -3 2709.24 470.463 4
6 -8 4 -183.74 263.539 14
6 -8 4 -152.192 183.425 5
-6 8 -4 -103.624 261.227 10
-6 8 -4 239.733 199.519 4
6 -8 5 3694.45 570.482 14
6 -8 5 2743.61 463.888 5
-6 8 -5 3378.42 547.845 10
-6 8 -5 2742.44 505.442 4
6 -8 6 15455.9 1094.62 5
-6 8 -6 16723.6 1215.27 10
-6 8 -6 13537.2 1093.12 4
6 -8 6 15280 1153.44 14
-6 8 -7 32.4993 179.125 10
-6 8 -7 -84.1814 231.46 4
-6 8 -8 1264.64 350.092 10
-6 8 -9 -164.578 231.359 10
-6 7 6 5856.06 697.644 7
-6 7 6 5297.74 666.586 10
-6 7 5 92.3234 188.864 7
-6 7 5 96.8875 174.286 12
-6 7 4 -55.9879 175.631 7
-6 7 4 -87.4767 179.988 12
6 -7 -4 -66.0936 177.549 5
6 -7 -4 218.062 233.383 1
-6 7 4 253.931 266.227 10
-6 7 3 1172.04 315.574 7
-6 7 3 947.644 297.527 12
6 -7 -3 1817.18 352.09 5
-6 7 3 1013.27 284.948 10
6 -7 -3 762.217 293.534 1
-6 7 2 5632.28 612.291 12
6 -7 -2 6499.07 752.033 1
6 -7 -2 5918.42 604.034 5
-6 7 2 7280.11 780.24 10
-6 7 1 -37.2938 146.847 12
6 -7 -1 143.721 228.456 5
-6 7 1 467.948 279.81 10
6 -7 -1 648.239 309.523 1
6 -7 0 -25.4475 213.212 14
6 -7 0 74.7983 215.344 1
-6 7 0 361.599 188.165 12
6 -7 0 -140.528 211.752 5
-6 7 0 -124.412 195.28 10
6 -7 1 19102.3 1122.8 5
-6 7 -1 19177 1280.1 10
6 -7 1 18951.5 1242.34 14
6 -7 2 -0.47033 212.031 14
6 -7 2 46.602 169.697 5
-6 7 -2 -18.9797 164.64 10
6 -7 3 700.237 286.351 14
6 -7 3 660.245 209.11 5
-6 7 -3 778.5 286.942 10
-6 7 -3 464.957 251.523 4
6 -7 4 -339.703 232.729 14
6 -7 4 637.394 263.148 5
-6 7 -4 203.24 240.579 10
-6 7 -4 335.539 220.895 4
6 -7 5 6225.42 640.22 5
-6 7 -5 6132.49 717.978 10
-6 7 -5 6461.26 714.418 4
6 -7 5 6625.53 728.511 14
-6 7 -6 8129.12 814.743 10
-6 7 -6 7559.64 780.08 4
6 -7 6 6755.34 739.645 14
6 -7 7 -114.622 246.718 14
-6 7 -7 405.045 288.594 10
-6 7 -7 -41.4264 190.645 4
6 -7 8 492.216 265.636 14
-6 7 -8 -49.7198 234.157 10
-6 7 -8 153.966 183.077 4
-6 7 -9 57.2358 187.763 10
-6 7 -10 16024.2 1180.06 10
-6 6 8 5029.54 651.56 7
-6 6 7 13627.8 1030.62 7
-6 6 7 13154.1 1029.48 10
-6 6 6 2396.02 461.974 12
-6 6 6 2908.29 489.915 10
-6 6 5 1744.03 354.269 7
-6 6 5 335.045 251.679 12
6 -6 -5 1393.09 370.387 1
-6 6 5 1459.87 374.504 10
-6 6 4 -152.037 161.957 7
-6 6 4 47.4236 183.291 12
-6 6 4 508.087 283.838 10
6 -6 -4 -53.6453 194.489 1
6 -6 -3 1585.17 379.66 1
-6 6 3 2129.94 358.935 7
-6 6 3 1568.25 332.465 12
6 -6 -3 2369 372.886 5
-6 6 3 1826.52 409.582 10
-6 6 2 10807 857.613 12
6 -6 -2 12168.6 968.396 1
6 -6 -2 11989 820.383 5
-6 6 2 12725.1 1002.68 10
6 -6 -1 2778.28 470.129 1
-6 6 1 2838.41 423.372 12
6 -6 -1 2769.72 404.159 5
-6 6 1 3256.81 517.79 10
-6 6 0 12019.1 834.195 12
6 -6 0 10253.2 884.423 1
6 -6 0 11386.6 791.236 5
-6 6 0 11049.2 924.343 10
6 -6 0 9415.39 838.129 14
-6 6 -1 17730.4 1014.66 12
6 -6 1 17228.8 1000.92 5
-6 6 -1 17160.5 1185.82 10
6 -6 1 16414.5 1104.4 14
6 -6 2 143.511 199.163 14
6 -6 2 -79.2039 150.235 5
6 -6 2 150.674 195.346 3
-6 6 -2 195.383 240.651 10
-6 6 -2 -67.676 170.363 4
6 -6 3 -13.6407 177.459 14
-6 6 -3 -146.183 231.397 10
6 -6 3 -61.1359 156.879 5
-6 6 -3 239.055 180.78 4
6 -6 4 358.7 249.786 14
-6 6 -4 332.013 174.713 10
6 -6 4 669.979 224.946 5
-6 6 -4 551.971 229.317 4
6 -6 5 1864.37 379.094 14
-6 6 -5 2132.77 419.222 10
-6 6 -5 1660.52 346.569 4
6 -6 6 -108.408 232.61 14
-6 6 -6 -158.489 180.711 10
-6 6 -6 167.073 225.117 4
6 -6 7 5566.01 658.793 14
-6 6 -7 6225.01 695.172 10
-6 6 -7 6883.22 721.378 4
6 -6 8 4121.14 585.21 14
-6 6 -8 4145.29 584.015 10
-6 6 -8 3854.89 578.291 4
6 -6 9 16805.7 1201.1 14
-6 6 -9 19145.8 1269.28 10
-6 6 -9 17852.1 1242.02 4
-6 6 -10 2861.58 486.344 10
6 -6 10 2585.82 435.869 9
6 -6 11 731.659 281.444 9
-6 5 9 -249.568 211.108 7
-6 5 8 -214.657 235.027 7
-6 5 7 1389.97 329.827 7
-6 5 7 695.198 259.799 12
-6 5 7 1156.82 318.07 10
6 -5 -7 684.853 318.033 1
-6 5 6 2530.37 407.691 7
6 -5 -6 2151.07 451.677 1
-6 5 6 1988.3 401.186 12
-6 5 6 1934.9 389.313 10
-6 5 5 2329.48 383.167 7
-6 5 5 1964.27 386.172 12
6 -5 -5 2306.41 448.492 1
-6 5 5 2058.13 412.088 10
-6 5 4 1796.32 343.188 7
-6 5 4 1764.43 370.246 12
-6 5 4 2382.69 434.753 10
6 -5 -4 2705.51 445.823 1
6 -5 -3 1393.69 351.398 1
-6 5 3 2458.13 419.258 12
-6 5 3 2136.6 403.448 10
-6 5 2 11045.7 854.178 12
6 -5 -2 12270.6 950.66 1
6 -5 -2 12347 779.041 5
-6 5 2 11934.3 958.479 10
-6 5 1 5005.24 551.944 12
6 -5 -1 4547.55 467.99 5
-6 5 1 4598.51 595.215 10
6 -5 -1 4903.99 586.527 1
6 -5 0 4980.46 502.784 3
-6 5 0 5902.2 574.785 12
6 -5 0 5659.63 515.056 5
-6 5 0 4276.09 574.602 10
6 -5 0 5095.96 584.476 14
6 -5 1 1613.68 357.268 14
-6 5 -1 1399.51 289.864 12
6 -5 1 1096.47 252.769 3
6 -5 1 1191.4 263.452 5
-6 5 -1 1317.89 339.237 10
6 -5 2 14020 906.622 3
-6 5 -2 14009.6 866.831 12
6 -5 2 14177.6 860.692 5
-6 5 -2 13943.3 1012.99 10
-6 5 -2 12782.6 939.063 4
6 -5 2 13496.8 965.297 14
6 -5 3 4393.02 553.185 14
-6 5 -3 3633.12 517.749 10
6 -5 3 4161.05 457.389 5
-6 5 -3 4069.39 531.045 4
6 -5 4 1126.98 346.063 14
-6 5 -4 898.831 314.62 10
-6 5 -4 209.974 168.235 4
6 -5 5 3686.45 514.465 14
-6 5 -5 3514.94 509.125 10
-6 5 -5 3854.76 516.563 4
6 -5 6 5.62519 238.081 14
-6 5 -6 -22.1221 218.562 10
6 -5 6 235.156 175.89 9
-6 5 -6 307.456 255.646 4
6 -5 7 1027.61 324.316 14
-6 5 -7 961.57 303.352 10
6 -5 7 1126.96 274.597 9
-6 5 -7 982.063 292.172 4
6 -5 8 226.195 171.105 14
-6 5 -8 -13.3401 189.132 10
6 -5 8 189.432 182.842 9
-6 5 -8 328.377 183.442 4
6 -5 9 3580.94 544.706 14
-6 5 -9 2748.21 481.529 10
6 -5 9 3002.21 465.578 9
-6 5 -9 3195.17 506.089 4
6 -5 10 2276.31 454.789 14
-6 5 -10 1936.99 404.225 10
6 -5 10 2199.64 424.145 9
-6 5 -10 2186.52 435.758 4
6 -5 11 4198.28 584.288 9
-6 4 10 1963.91 441.917 7
-6 4 9 1223.04 358.679 7
-6 4 8 1599.84 387.139 7
-6 4 8 1449.93 377.282 12
-6 4 8 1464.72 359.89 10
6 -4 -8 1281.74 377.36 1
6 -4 -7 -347.552 257.222 1
-6 4 7 -11.9585 170.247 7
-6 4 7 216.972 240.842 12
-6 4 7 100.506 166.226 10
6 -4 -6 -89.2066 231.952 1
-6 4 6 -150.271 211.444 12
-6 4 6 -12.0297 198.427 10
-6 4 5 4494.43 582.153 12
6 -4 -5 4109.26 543.74 1
-6 4 5 3953.49 535.297 10
6 -4 -4 11377.4 907.552 1
-6 4 4 12998.2 971.696 12
-6 4 4 14345 1011.28 10
6 -4 -3 224.608 220.845 1
-6 4 3 273.258 235.141 12
-6 4 3 505.906 274.016 10
6 -4 -2 6103.64 547.338 3
-6 4 2 5037.51 566.922 12
-6 4 2 4973.75 603.013 10
6 -4 -2 4361.18 540.798 1
6 -4 -1 25800.5 1225.81 3
-6 4 1 25154.4 1297.47 12
6 -4 -1 23386.9 1294.7 1
-6 4 1 23307.6 1346.49 10
6 -4 -1 24283.7 1291.6 14
6 -4 0 4669.34 538.617 14
6 -4 0 5655.27 542.334 3
6 -4 0 4713.14 434.842 5
-6 4 0 4462.42 566.267 10
-6 4 0 4664.58 494.885 8
6 -4 1 25.1027 154.247 14
6 -4 1 35.9998 168.503 3
-6 4 -1 83.2967 155.908 10
6 -4 1 24.0702 127.903 5
-6 4 -1 20.9693 132.686 8
6 -4 2 2702.08 436.012 14
-6 4 -2 2559.36 420.696 10
6 -4 2 2232.33 379.561 3
-6 4 -2 2531.04 415.019 4
-6 4 -2 2909.31 363.239 8
6 -4 3 935.544 286.069 14
-6 4 -3 820.148 300.638 10
6 -4 3 868.708 256.453 3
-6 4 -3 514.215 238.621 4
-6 4 -3 852.992 209.926 8
-6 4 -4 8249.78 766.566 10
-6 4 -4 7448.09 686.875 4
6 -4 4 8552.89 655.14 9
6 -4 4 8233.57 730.775 14
6 -4 5 -47.3708 144.451 14
-6 4 -5 79.735 222.388 10
6 -4 5 336.067 246.39 9
-6 4 -5 -207.44 211.731 4
6 -4 6 1232.47 326.82 14
-6 4 -6 1101.13 316.013 10
6 -4 6 1007.43 267.259 9
-6 4 -6 948.016 296.536 4
6 -4 7 9345.36 807.585 14
-6 4 -7 8580.85 775.435 10
-6 4 -7 8159.9 760.777 4
6 -4 7 8716.56 736.833 9
6 -4 8 65.0545 195.889 14
-6 4 -8 299.728 216.608 10
6 -4 8 6.95696 175.572 9
-6 4 -8 208.208 245.632 4
6 -4 9 3488.04 532.815 14
-6 4 -9 2939.71 477.28 10
6 -4 9 1997.51 378.731 9
-6 4 -9 2339.01 437.534 4
6 -4 10 5004.59 642.604 14
-6 4 -10 4322.64 580.3 10
6 -4 10 4900.79 610.988 9
-6 4 -10 4864.38 624.208 4
6 -4 11 -107.939 204.986 14
6 -3 -9 3433.9 549.149 1
-6 3 8 1032.48 327.869 12
-6 3 8 1284.7 332.14 10
6 -3 -8 688.664 292.182 1
6 -3 -7 159.58 177.4 1
-6 3 7 179.347 263.382 12
-6 3 7 246.828 207.235 10
6 -3 -6 2483.16 431.815 1
-6 3 6 2309.75 433.662 12
-6 3 6 2381.17 403.818 10
6 -3 -5 4083.91 533.013 1
-6 3 5 3230.43 476.917 10
-6 3 4 2648.33 436.724 12
-6 3 4 2647.56 435.162 10
6 -3 -4 2853.79 421.398 1
6 -3 -3 4578.87 483.782 3
-6 3 3 4574.87 554.275 12
6 -3 -3 3895.87 503.176 1
-6 3 3 3791.04 530.619 10
6 -3 -2 12765.1 831.31 3
6 -3 -2 11958.7 859.838 1
-6 3 2 11402.9 905.761 10
-6 3 2 12571.6 847.199 8
6 -3 -1 9076.96 697.342 3
6 -3 -1 8014.46 698.888 1
-6 3 1 8337.7 760.992 10
-6 3 1 8558.57 670.461 8
6 -3 -1 7622.02 673.135 14
6 -3 0 2182.47 354.016 14
6 -3 0 2182.8 351.944 3
-6 3 0 1492.98 337.106 10
-6 3 0 2064.91 328.143 8
6 -3 1 1454.84 310.908 14
6 -3 1 1330.2 299.488 3
-6 3 -1 1490.42 343.35 10
-6 3 -1 1469.64 295.493 4
6 -3 1 1583.24 270.521 9
-6 3 -1 1192.53 253.869 8
6 -3 2 331.298 161.686 14
-6 3 -2 128.285 164.084 10
6 -3 2 -33.4236 146.404 3
-6 3 -2 0.6952 169.978 4
6 -3 2 472.592 196.04 9
-6 3 -2 299.421 172.03 8
6 -3 3 152.916 183.196 14
-6 3 -3 296.538 214.503 10
6 -3 3 -13.6586 166.223 3
6 -3 3 305.634 181.439 9
-6 3 -3 140.459 189.128 4
-6 3 -3 39.4055 116.425 8
6 -3 4 19284.4 1166.99 3
-6 3 -4 18587.3 1172.19 10
-6 3 -4 19590.3 1130.79 4
6 -3 4 21156.8 1102.63 9
-6 3 -4 20752.6 1021.41 8
6 -3 4 19760.1 1126.31 14
6 -3 5 11420.6 845.986 14
-6 3 -5 10835.8 876.555 10
-6 3 -5 11089.5 838.51 4
6 -3 5 11830.6 831.515 9
-6 3 -5 11642.2 732.647 8
6 -3 6 1961.97 374.528 14
-6 3 -6 1085.82 323.6 10
6 -3 6 1481.93 323.789 9
-6 3 -6 1626.59 342.934 4
6 -3 7 401.395 218.195 14
-6 3 -7 529.207 266.511 10
6 -3 7 304.422 226.987 9
-6 3 -7 328.688 221.72 4
6 -3 8 4478.03 574.356 14
-6 3 -8 3466.76 491.376 10
6 -3 8 5391.02 619.769 9
-6 3 -8 4818.74 587.054 4
6 -3 9 498.846 250.233 14
-6 3 -9 820.289 294.193 10
6 -3 9 433.234 225.928 9
-6 3 -9 277.181 162.239 4
6 -3 10 27.0593 241.268 14
6 -3 10 514.75 260.72 9
-6 3 -10 162.735 263.765 4
6 -3 11 3337.24 538.982 14
-6 3 -11 3444.74 541.854 4
6 -2 -10 328.592 306.705 1
-6 2 9 1341.32 387.02 12
6 -2 -9 847.665 326.503 1
-6 2 8 4533.3 638.78 12
-6 2 8 5520.09 613.637 10
6 -2 -8 4591.1 578.652 1
-6 2 7 119.119 149.534 12
-6 2 7 186.688 169.781 10
6 -2 -7 102.744 176.418 1
6 -2 -6 1147.1 316.812 1
-6 2 6 572.761 259.106 12
-6 2 6 1140.33 301.913 10
-6 2 5 493.395 269.456 12
6 -2 -5 404.8 185.824 3
6 -2 -5 472.632 204.072 1
6 -2 -4 315.294 177.039 3
6 -2 -4 81.0197 182.857 1
-6 2 4 168.58 176.924 8
6 -2 -3 9860.42 740.226 3
6 -2 -3 10377.3 770.355 1
-6 2 3 9655.21 767.98 8
6 -2 -2 2798.11 384.896 1
6 -2 -2 2431.76 372.743 3
-6 2 2 1660.99 324.52 8
6 -2 -1 266.7 179.775 14
6 -2 -1 354.681 193.587 1
6 -2 -1 602.117 215.986 3
6 -2 -1 125.939 127.278 9
-6 2 1 191.652 174.39 8
6 -2 0 2561.82 385.533 14
6 -2 0 3225.11 438.639 3
6 -2 0 2959.66 363.026 9
-6 2 0 3497.97 430.438 8
6 -2 1 -323.265 195.159 14
6 -2 1 27.9365 162.178 3
-6 2 -1 37.2669 156.646 4
6 -2 1 -17.7002 122.007 9
-6 2 -1 21.6742 138.353 8
6 -2 2 -17.655 152.363 14
6 -2 2 -59.3615 149.606 3
6 -2 2 466.194 170.235 9
-6 2 -2 98.8566 150.959 4
-6 2 -2 298.317 177.116 8
6 -2 3 3192.32 432.267 14
6 -2 3 2871.85 435.112 3
6 -2 3 3280.55 400.775 9
-6 2 -3 3079.5 417.553 4
-6 2 -3 3290.6 420.481 8
6 -2 4 -320.243 224.629 14
6 -2 4 159.956 196.823 9
-6 2 -4 -262.804 186.069 4
-6 2 -4 -17.671 125.891 8
6 -2 5 7275.48 668.058 14
6 -2 5 7295.71 724.657 3
-6 2 -5 8347.41 697.132 4
6 -2 5 7534.41 675.859 9
-6 2 -5 8113.16 632.04 8
6 -2 6 9828.33 781.443 14
-6 2 -6 11653.3 839.861 4
6 -2 6 9939.58 811.349 9
-6 2 -6 11182 751.651 8
6 -2 7 3805.38 497.302 14
-6 2 -7 3744.04 522.756 10
6 -2 7 4388.06 548.302 9
-6 2 -7 4675.24 542.702 4
6 -2 8 6698.76 669.325 14
-6 2 -8 6184.09 654.95 10
-6 2 -8 7815.66 722.192 4
6 -2 8 6507.25 704.844 9
6 -2 9 -194.092 160.371 14
-6 2 -9 -10.6415 153.847 10
6 -2 9 33.3295 192.817 9
-6 2 -9 291.991 188.855 4
6 -2 10 1482.2 348.264 14
6 -2 10 812.252 332.69 9
-6 2 -10 1769.45 376.519 4
6 -2 11 1977.58 437.05 14
-6 2 -11 2336.94 450.917 4
6 -1 -11 6802.8 755.888 1
6 -1 -10 11630.8 942.817 1
-6 1 9 64.1837 162.717 12
6 -1 -9 40.4021 194.786 1
-6 1 8 921.604 338.806 12
6 -1 -8 488.907 248.423 1
-6 1 7 1027.28 319.966 12
6 -1 -7 914.633 269.919 1
6 -1 -6 27.2074 176.457 1
-6 1 6 822.063 297.877 12
6 -1 -6 875.506 240.654 3
-6 1 6 918.684 313.624 8
6 -1 -5 26099.2 1293.26 3
6 -1 -5 26732.9 1306.34 1
-6 1 5 25746.9 1390.98 8
6 -1 -4 8159.16 690.035 3
6 -1 -4 9564.21 730.489 1
-6 1 4 8582.49 745.76 8
6 -1 -3 9521.61 754.112 3
6 -1 -3 10018.5 720.341 1
6 -1 -3 10176.2 682.96 9
-6 1 3 9098.05 758.628 8
6 -1 -2 515.881 199.111 14
6 -1 -2 39.3341 131.41 1
6 -1 -2 136.888 143.61 3
6 -1 -2 327.367 203.803 9
-6 1 2 271.133 192.047 8
6 -1 -1 3503.81 411.776 14
6 -1 -1 3934.11 437.095 1
6 -1 -1 4152.44 510.661 3
6 -1 -1 3810.05 426.145 9
-6 1 1 3337.48 422.034 8
6 -1 0 233.712 147.33 14
6 -1 0 168.562 201.223 3
6 -1 0 71.0897 169.157 9
-6 1 0 192.107 146.531 8
6 -1 1 930.115 231.722 14
6 -1 1 753.708 249.748 3
-6 1 -1 611.321 216.173 4
6 -1 1 1191.57 269.449 9
-6 1 -1 692.44 235.811 8
6 -1 2 608.997 181.705 14
6 -1 2 572.626 238.58 3
6 -1 2 366.063 215.395 9
-6 1 -2 845.177 246.42 4
-6 1 -2 682.243 225.504 8
6 -1 3 7627.71 722.296 3
-6 1 -3 10113.9 714.526 4
6 -1 3 9882.27 752.449 9
-6 1 -3 10022 736.279 8
6 -1 3 9514.97 700.418 14
6 -1 4 269.631 148.991 14
6 -1 4 -396.622 243.505 3
6 -1 4 43.1541 167.948 9
-6 1 -4 218.788 166.06 4
-6 1 -4 108.722 191.918 8
-6 1 -5 412.699 189.231 8
6 -1 5 849.196 255.708 14
6 -1 5 786.667 258.03 3
6 -1 5 74.0586 162.254 9
-6 1 -5 451.237 209.921 4
6 -1 6 7199.6 646.419 14
6 -1 6 6615.8 700.48 3
-6 1 -6 7523.22 645.606 4
6 -1 6 6470.35 661.777 9
-6 1 -6 7558.65 645.841 8
-6 1 -7 243.542 173.878 8
6 -1 7 18.8927 169.538 14
6 -1 7 -198.591 223.929 3
6 -1 7 -132.767 239.874 9
-6 1 -7 294.11 209.419 4
6 -1 8 -6.35922 198.859 14
6 -1 8 565.716 297.11 9
-6 1 -8 70.1389 163.092 4
6 -1 9 4380.43 558.129 14
6 -1 9 3347.29 531.395 9
-6 1 -9 4630.05 560.227 4
6 -1 10 255.13 248.189 14
6 -1 11 2796.35 490.831 14
6 0 -11 586.518 269.286 1
-6 0 10 713.43 297.731 12
6 0 -10 801.822 301.484 1
-6 0 9 11403.3 1005.23 12
6 0 -9 13520.2 946.031 1
-6 0 8 1116.18 332.225 12
6 0 -8 1067.37 286.363 3
6 0 -8 760.934 234.181 1
6 0 -7 24978.5 1261.96 1
6 0 -7 24152.9 1269.1 3
-6 0 7 23444.5 1374.51 8
6 0 -6 29661.7 1351.06 1
6 0 -6 28291.7 1386.01 3
6 0 -5 2596.59 382.695 1
6 0 -5 1489.75 304.321 3
6 0 -5 2136.08 339.024 9
-6 0 5 1903.9 377.294 8
6 0 -4 208.297 152.185 3
6 0 -4 198.368 162.28 1
6 0 -4 84.827 151.054 9
-6 0 4 201.023 175.725 8
6 0 -3 11889.8 860.628 3
6 0 -3 13018.7 791.397 1
6 0 -3 12036.8 797.256 9
-6 0 3 12911.8 915.726 8
6 0 -2 3070.04 383.837 14
6 0 -2 2999.83 371.908 1
6 0 -2 2984.3 425.099 3
6 0 -2 2104.61 341.747 9
-6 0 2 2277.02 391.528 8
6 0 -1 23636.9 1272.02 3
6 0 -1 24214 1132.63 1
6 0 -1 23991.9 1189.92 9
-6 0 1 22937.8 1237.82 8
6 0 -1 23887.2 1116.91 14
6 0 0 3175.46 368.191 14
6 0 0 2586.63 422.336 3
6 0 0 3267.02 425.64 9
-6 0 0 3257.34 440.477 8
6 0 1 7498.55 705.818 3
-6 0 -1 8377.95 608.284 4
6 0 1 7075.77 636.806 9
-6 0 -1 9011.36 719.501 8
6 0 1 8035.09 594.766 14
6 0 2 7246.29 701.674 3
-6 0 -2 8289.03 620.197 4
6 0 2 8938.41 738.778 9
-6 0 -2 8647.66 701.568 8
6 0 2 9138.7 645.709 14
6 0 3 4774.71 465.998 14
6 0 3 4510.67 552.877 3
-6 0 -3 4548.78 469.655 4
6 0 3 4997.34 552.439 9
-6 0 -3 5532 562.738 8
-6 0 -4 197.042 151.045 8
6 0 4 153.284 136.583 14
6 0 4 612.681 276.739 3
6 0 4 299.603 206.398 9
-6 0 -4 463.111 201.117 4
-6 0 -5 512.929 218.706 8
6 0 5 203.564 197.607 14
6 0 5 470.321 250.394 3
6 0 5 152.892 176.224 9
6 0 6 2803.84 393.933 14
6 0 6 3144.06 505.799 3
6 0 6 2638.35 435.161 9
-6 0 -7 1227.61 317.493 8
6 0 7 1384.42 315.817 14
6 0 7 1386.42 362.671 3
6 0 7 1046.42 331.373 9
-6 0 -8 301.354 188.471 8
6 0 8 710.472 289.048 9
-6 -1 10 7595.81 826.06 12
6 1 -10 8393.77 768.786 11
-6 -1 9 936.613 324.639 12
6 1 -9 1814.83 361.521 3
6 1 -9 1469.1 347.788 11
6 1 -8 97.118 168.397 3
6 1 -8 751.795 301.793 11
-6 -1 8 392.994 288.635 8
6 1 -7 470.047 218.918 3
-6 -1 7 293.721 240.478 8
6 1 -6 8583.03 735.051 3
6 1 -6 7912.63 661.877 9
-6 -1 6 8376.79 789.487 8
6 1 -5 6048.13 619.872 3
6 1 -5 6129.29 579.935 9
-6 -1 5 5640.44 621.447 8
6 1 -4 351.12 210.728 3
6 1 -4 438.221 160.442 1
6 1 -4 804.394 258.945 9
-6 -1 4 280.91 193.045 8
6 1 -3 3456 373.863 1
6 1 -3 3602.09 492.275 3
6 1 -3 3464.52 451.167 9
-6 -1 3 3676.73 487.582 8
6 1 -3 4451.62 418.848 14
6 1 -2 6421.09 644.46 3
6 1 -2 6890.15 531.564 1
6 1 -2 6698.54 616.866 9
-6 -1 2 6156.37 631.351 8
6 1 -2 6902.56 525.481 14
6 1 -1 19550.4 1187.51 3
6 1 -1 21343.7 1000.59 1
6 1 -1 19788 1122.97 9
-6 -1 1 20547.9 1177.83 8
6 1 -1 21754.6 987.163 14
6 1 0 2644.88 448.433 3
6 1 0 2905.36 428.927 9
-6 -1 0 3198.68 455.559 8
6 1 1 975.695 311.335 3
6 1 1 460.817 210.755 9
-6 -1 -1 694.146 276.688 8
6 1 2 573.108 288.718 3
6 1 2 560.335 265.729 9
-6 -1 -2 209.112 182.738 8
-6 -1 -3 193.935 148.104 8
6 1 3 -80.1165 166.804 3
6 1 3 1.20668 181.933 9
6 1 4 3602.57 528.655 3
6 1 4 4281.2 555.612 9
-6 -1 -4 4948.56 554.51 8
-6 -1 -5 67.224 183.77 8
6 1 5 358.742 236.862 3
6 1 5 -150.111 240.493 9
-6 -1 -6 4583.48 555.802 8
6 1 6 4243.12 557.573 11
6 1 6 4403.02 595.271 3
6 1 6 3592.46 526.201 9
-6 -1 -7 3.36514 148.315 8
6 1 7 124.297 207.775 11
6 1 7 291.257 256.56 3
6 1 7 53.1761 220.426 9
-6 -1 -8 737.863 248.339 8
6 1 8 417.497 256.04 3
6 1 8 783.699 285.304 9
-6 -1 -9 3798.95 533.895 8
6 2 -10 9106.83 812.632 3
-6 -2 10 8529.14 888.085 12
6 2 -10 9708.49 846.941 11
-6 -2 10 9935.59 827.575 2
6 2 -9 178.959 231.01 3
6 2 -9 221.51 253.741 11
-6 -2 9 198.136 176.638 2
-6 -2 9 -57.1571 239.435 8
6 2 -8 742.741 297.489 3
6 2 -8 1140.48 337.901 11
-6 -2 8 380.117 225.214 8
6 2 -7 679.819 267.878 3
6 2 -7 142.007 195.956 11
-6 -2 7 236.185 267.635 8
6 2 -6 1129.07 322.887 3
6 2 -6 1542.19 377.733 11
6 2 -6 1482.38 311.714 9
-6 -2 6 1494.74 348.252 8
6 2 -5 692.498 262.844 11
6 2 -5 605.676 204.04 9
-6 -2 5 637.029 249.848 8
6 2 -4 31.0199 233.347 11
6 2 -4 -270.744 196.757 3
6 2 -4 149.577 160.252 9
-6 -2 4 57.731 143.356 8
6 2 -3 2905.9 463.974 3
6 2 -3 3229.74 463.855 9
-6 -2 3 2448.78 420.914 8
6 2 -2 7375.07 708.249 3
6 2 -2 6557.6 640.828 9
-6 -2 2 5887.65 629.615 8
6 2 -1 7092.27 696.848 3
6 2 -1 7932.36 704.734 9
-6 -2 1 7564.65 705.4 8
6 2 0 19341.6 1189.3 3
6 2 0 18290.9 1185.98 11
6 2 0 16637.8 1079.45 9
-6 -2 0 18457.9 1130 8
6 2 1 48159.3 2055.36 3
6 2 1 45711.4 2025.02 11
6 2 1 44214.7 1942.74 9
-6 -2 -1 47199.8 1987.92 8
-6 -2 -2 -104.242 191.388 8
6 2 2 19.3262 196.612 11
6 2 2 244.181 223.336 3
6 2 2 28.2556 183.03 9
-6 -2 -3 497.486 239.135 8
6 2 3 75.0344 217.054 11
6 2 3 170.257 239.105 3
6 2 3 400.402 267.715 9
-6 -2 -4 4512.14 564.774 8
6 2 4 5157.44 628.763 11
6 2 4 4611.63 602.055 3
6 2 4 5327.83 635.848 9
-6 -2 -5 178.573 203.44 8
6 2 5 273.034 234.61 11
6 2 5 161.975 182.284 3
6 2 5 -40.4128 187.989 9
-6 -2 -6 1993.36 395.405 8
6 2 6 1343.27 350.705 11
6 2 6 1346.71 358.493 3
6 2 6 1594.23 377.316 9
-6 -2 -7 -78.5892 186.566 8
6 2 7 464.119 275.892 11
6 2 7 344.702 179.931 3
6 2 7 -45.3167 215.543 9
-6 -2 -8 528.053 226.058 8
-6 -2 -9 9478.67 877.272 8
6 3 -11 4115.94 575.148 3
6 3 -11 4373.01 613.704 11
-6 -3 11 4131.96 569.362 2
6 3 -10 983.03 273.937 3
6 3 -10 1458.45 375.809 11
-6 -3 10 1064.44 311.257 2
6 3 -9 1710.51 392.464 3
6 3 -9 1154.66 340.913 11
-6 -3 9 1663.18 361.038 2
-6 -3 9 2187.75 441.542 8
6 3 -8 264.677 234.746 3
6 3 -8 143.005 205.75 11
-6 -3 8 -140.896 245.939 8
6 3 -7 4950.73 609.183 3
6 3 -7 4417.93 602.644 11
6 3 -7 5753.71 617.016 9
-6 -3 7 5182.23 623.695 8
6 3 -6 448.173 235.559 3
6 3 -6 421.477 289.382 11
6 3 -6 274.005 183.858 9
-6 -3 6 671.724 289.321 8
6 3 -5 3047.3 477.356 3
6 3 -5 2618.19 466.813 11
6 3 -5 2340.37 401.739 9
-6 -3 5 2556.67 453.217 8
6 3 -4 6001.32 677.628 11
6 3 -4 5105.42 607.381 3
6 3 -4 4983.03 569.369 9
-6 -3 4 4739.2 598.935 8
6 3 -3 10016.7 852.022 3
6 3 -3 10996.9 927.908 11
6 3 -3 10647.3 847.294 9
-6 -3 3 10559.2 874.229 8
6 3 -2 277.099 250.528 11
6 3 -2 -318.927 214.022 3
6 3 -2 -156.907 212.873 9
-6 -3 2 508.309 263.458 8
6 3 -1 -134.756 185.472 11
6 3 -1 31.6812 201.626 3
6 3 -1 -84.4092 189.636 9
-6 -3 1 89.4588 184.803 8
6 3 0 5890.87 664.29 3
6 3 0 4695.68 601.82 11
6 3 0 5604.08 632.429 9
-6 -3 0 6376.46 669.213 8
6 3 1 23331.8 1379.46 3
6 3 1 24501.3 1410.11 11
6 3 1 23249.6 1356.48 9
-6 -3 -1 24252.5 1368.04 8
-6 -3 -2 1893.42 402.26 8
6 3 2 2238.14 445.213 11
6 3 2 1799.01 417.665 3
6 3 2 2766.63 466.299 9
-6 -3 -3 4577.12 580.077 8
6 3 3 4078.27 581.159 11
6 3 3 3973.06 558.387 3
6 3 3 4080.38 572.858 9
6 3 4 20494.2 1310.24 3
6 3 4 20327.5 1293.61 11
6 3 4 19904.5 1296.53 9
-6 -3 -4 19756.1 1254.61 8
-6 -3 -5 1110.74 291.93 8
6 3 5 1568.42 394.91 11
6 3 5 467.304 262.691 3
6 3 5 1032.91 333.198 9
-6 -3 -6 3843.03 558.349 8
6 3 6 3818.34 554.222 11
6 3 6 4343.8 610.932 3
-6 -3 -7 555.194 267.365 8
6 4 -11 549.864 252.435 11
-6 -4 11 769.848 287.388 2
6 4 -10 10079.5 914.789 3
6 4 -10 9180.23 872.593 11
-6 -4 10 10019.9 910.748 2
6 4 -9 1034.14 364.369 3
6 4 -9 712.338 289.048 11
-6 -4 9 385.248 287.104 8
6 4 -8 2475.87 458.374 3
6 4 -8 1372.95 363.512 11
-6 -4 8 2061.18 449.463 8
6 4 -7 1067.5 315.702 3
6 4 -7 1192.14 356.61 11
6 4 -7 1297.57 350.311 9
-6 -4 7 1688.61 417.198 8
6 4 -6 3173.44 504.48 3
6 4 -6 2943.82 504.266 11
6 4 -6 3203.2 492.273 9
-6 -4 6 2485.04 459.121 8
6 4 -5 2653.83 467.8 3
6 4 -5 2866.01 502.215 11
6 4 -5 2678.6 452.097 9
-6 -4 5 3225.52 507.245 8
6 4 -4 700.897 300.589 11
6 4 -4 1296.61 326.164 9
-6 -4 4 650.125 257.368 8
6 4 -3 1228.81 369.555 11
6 4 -3 1025.63 306.102 3
6 4 -3 817.488 286.354 9
-6 -4 3 1407.34 360.233 8
6 4 -2 1656.66 405.147 11
6 4 -2 1308.87 331.297 3
6 4 -2 1833.1 388.064 9
-6 -4 2 1215.18 321.039 8
6 4 -1 8314.65 796.096 3
6 4 -1 8486.11 826.854 11
6 4 -1 7818.1 755.691 9
-6 -4 1 7700.23 764.204 8
-6 -4 0 489.983 231.046 8
6 4 0 664.91 275.737 11
6 4 0 885.938 297.015 3
6 4 0 512.999 249.277 9
-6 -4 -1 39.9843 203.618 8
6 4 1 -86.7127 193.651 11
6 4 1 270.319 283.728 3
6 4 1 408.818 220.4 9
-6 -4 -2 4715.63 608.581 8
6 4 2 5149.59 643.48 3
6 4 2 5863.01 686.87 11
6 4 2 5677.6 678.925 9
6 4 3 16241.1 1168.66 3
6 4 3 13482 1073.23 11
6 4 3 15610 1148.56 9
-6 -4 -3 14904.2 1110.46 8
-6 -4 -4 2455.14 458.677 8
6 4 4 3275.91 520.766 11
6 4 4 2496.94 491.744 3
6 4 4 2185.07 459.655 9
-6 -4 -5 -155.043 194.606 8
6 4 5 215.29 202.933 11
6 4 5 474.924 239.826 3
6 4 6 3480.93 550.98 11
6 5 -11 3348.67 542.784 11
6 5 -10 1330.24 363.935 11
-6 -5 10 1775.23 408.78 2
6 5 -9 967.028 297.054 3
6 5 -9 1336.97 396.585 11
6 5 -8 1383.7 372.403 3
6 5 -8 987.586 317.32 11
-6 -5 8 667.038 310.162 8
6 5 -7 189.625 251.836 3
6 5 -7 340.292 235.339 11
6 5 -7 86.9637 199.49 9
-6 -5 7 -221.969 245.288 8
6 5 -6 97.2856 182.297 3
6 5 -6 481.928 279.589 11
6 5 -6 -157.871 194.427 9
-6 -5 6 585.448 273.517 8
6 5 -5 -39.8518 186.893 3
6 5 -5 -189.374 233.769 11
6 5 -5 -8.42615 202.47 9
-6 -5 5 -0.49619 205.885 8
6 5 -4 274.136 191.072 3
6 5 -4 104.04 196.307 11
6 5 -4 13.1072 176.012 9
-6 -5 4 -92.5415 266.604 8
6 5 -3 5690.74 684.579 3
6 5 -3 4753.89 633.415 11
6 5 -3 4297.5 573.107 9
-6 -5 3 4839.94 623.667 8
6 5 -2 1817.54 436.539 11
6 5 -2 1719.7 391.23 3
6 5 -2 2532.43 483.515 9
-6 -5 2 1682.41 402.092 8
-6 -5 1 2639.44 476.627 8
6 5 -1 1615.04 433.687 11
6 5 -1 2764.45 490.072 3
6 5 -1 2603.54 462.769 9
-6 -5 0 1597.36 376.288 8
6 5 0 2207.44 456.948 11
6 5 0 1862.24 399.31 3
6 5 0 2053.49 427.474 9
-6 -5 -1 677.823 279.418 8
6 5 1 767.645 347.911 11
6 5 1 1728.4 408.848 3
6 5 1 1037.85 342.07 9
6 5 2 31336 1708.68 3
6 5 2 31511.4 1718.79 11
6 5 2 32157.7 1739.52 9
-6 -5 -2 30415 1686.01 8
-6 -5 -3 1957.66 429.791 8
6 5 3 1985.81 439.795 11
6 5 3 2869.61 516.84 3
6 5 4 420.301 285.612 11
6 5 5 319.178 290.632 11
6 6 -8 12939.7 1092.13 11
6 6 -7 761.427 374.754 11
6 6 -7 731.925 310.58 9
6 6 -6 1284.08 351.483 3
6 6 -6 1623.91 406.538 11
6 6 -6 1392.96 395.978 9
-6 -6 6 1232.12 381.144 8
6 6 -5 400.383 289.394 3
6 6 -5 111.577 274.197 11
6 6 -5 -97.9811 254.239 9
-6 -6 5 245.014 214.318 8
6 6 -4 1999.76 457.965 3
6 6 -4 2971.67 524.061 11
6 6 -4 2101.24 443.479 9
-6 -6 4 1969.01 416.417 8
6 6 -3 805.729 321.951 3
6 6 -3 116.929 206.974 11
6 6 -3 458.708 268.477 9
-6 -6 3 40.0756 169.173 8
6 6 -2 6840.88 775.88 3
6 6 -2 5190.21 701.838 11
6 6 -2 5731.28 704.883 9
-6 -6 2 6943.54 757.86 8
-6 -6 1 2848.94 522.902 8
6 6 -1 2010.79 442.514 3
6 6 -1 2225.83 493.629 11
6 6 -1 1551.48 390.768 9
6 6 0 28.7341 238.838 11
6 6 0 411.467 274.307 3
-7 7 3 338.56 193.704 12
-7 6 4 484.251 214.862 12
-7 6 3 -121.279 190.805 12
-7 6 2 964.877 306.498 12
7 -6 -1 3721.04 559.998 14
-7 6 1 4583.91 595.702 12
7 -6 -1 4244.4 622.514 1
7 -6 0 7312.16 780.311 1
-7 6 0 8346.1 869.544 10
7 -6 0 6203.4 721.779 14
7 -6 1 4955.31 648.168 14
7 -6 1 5007.61 660.812 1
-7 6 -1 4851.22 657.434 10
7 -6 2 2573.77 491.829 14
-7 6 -2 2722.75 522.804 10
7 -6 3 466.172 246.614 14
7 -6 3 656.853 304.27 3
-7 6 -3 652.045 312.662 4
7 -6 4 268.484 212.047 3
-7 6 -4 -72.2893 235.314 4
7 -6 5 8171.25 805.423 3
-7 6 -5 7792.86 807.463 4
7 -6 5 7380.82 780.396 14
-7 5 6 5503.77 715.628 10
-7 5 5 4517.58 633.075 10
-7 5 4 49.5654 168.713 12
-7 5 4 8.06772 231.618 10
-7 5 3 233.569 199.784 12
-7 5 3 -50.2535 210.266 10
7 -5 -3 10.3012 199.199 1
7 -5 -2 555.857 250.882 14
-7 5 2 1000.77 320.604 12
7 -5 -2 849.413 320.966 1
-7 5 2 797.107 289.374 10
7 -5 -1 1000.19 328.49 14
7 -5 -1 437.834 202.215 1
-7 5 1 572.714 226.631 12
-7 5 1 759.496 337.511 10
7 -5 0 -22.8689 175.921 14
-7 5 0 201.459 145.832 12
-7 5 0 318.711 196.708 10
7 -5 0 151.017 222.882 1
7 -5 1 560.798 281.711 14
-7 5 -1 122.435 148.428 12
7 -5 1 -58.1962 145.598 3
-7 5 -1 604.794 337.214 10
7 -5 2 -179.823 272.605 14
7 -5 2 48.2286 182.25 3
-7 5 -2 308.227 230.546 10
7 -5 3 535 300.15 14
7 -5 3 173.063 235.367 3
-7 5 -3 -19.753 220.824 10
-7 5 -3 -33.6679 206.006 4
7 -5 4 10550.6 900.056 3
-7 5 -4 10435.9 964.815 10
-7 5 -4 10809.9 925.617 4
7 -5 4 10197 901.398 14
7 -5 5 564.756 255.096 14
-7 5 -5 943.242 338.368 10
7 -5 5 1072.54 328.094 3
-7 5 -5 710.101 255.546 4
-7 5 -6 361.574 225.446 10
-7 5 -6 79.0829 210.547 4
7 -5 7 -70.6833 198.775 14
-7 5 -7 26.109 180.355 4
-7 4 7 141.194 208.377 10
7 -4 -6 12104.4 1019.95 1
-7 4 6 11408.8 995.759 10
-7 4 5 134.313 203.458 12
7 -4 -5 372.211 243.314 1
-7 4 5 82.0467 259.71 10
7 -4 -4 6473.04 737.104 1
-7 4 4 7488.29 791.741 12
-7 4 4 7503.27 803.178 10
7 -4 -3 338.454 249.67 1
-7 4 3 79.4466 181.719 12
-7 4 3 180.383 239.308 10
7 -4 -2 3507.63 518.657 14
-7 4 2 4499.42 573.979 12
-7 4 2 3468.21 561.992 10
7 -4 -2 4881.96 612.791 1
7 -4 -1 539.091 246.732 14
-7 4 1 240.415 166.908 12
7 -4 -1 75.0819 189.323 1
-7 4 1 61.3186 192.745 10
7 -4 0 69.6003 208.225 14
7 -4 0 -92.6601 200.305 1
7 -4 0 332.628 152.317 3
-7 4 0 69.2679 209.244 10
-7 4 0 -25.2095 168.97 8
7 -4 1 1664.98 361.784 14
7 -4 1 1833.45 374.09 3
-7 4 -1 1361.95 363.682 10
7 -4 2 254.622 236.771 14
7 -4 2 -208.168 205.539 3
7 -4 3 712.256 285.003 14
7 -4 3 523.506 217.003 3
-7 4 -3 657.701 320.499 10
-7 4 -3 729.808 295.766 4
7 -4 4 788.665 269.767 14
-7 4 -4 611.695 292.301 10
7 -4 4 363.175 237.114 3
-7 4 -4 824.127 301.383 4
7 -4 5 -7.34937 175.146 14
-7 4 -5 -49.7639 179.284 10
7 -4 5 342.39 275.904 3
-7 4 -5 -27.0227 155.903 4
7 -4 6 682.87 305.287 14
-7 4 -6 1411.25 396.338 10
7 -4 6 1228.01 355.304 3
-7 4 -6 1259.7 345.379 4
7 -4 7 -272.898 264.415 14
-7 4 -7 236.957 270.189 10
-7 4 -7 15.8583 183.958 4
7 -4 8 474.196 282.625 14
7 -4 8 322.326 220.762 9
-7 4 -8 101.605 203.475 4
-7 3 8 1323.98 332.086 10
-7 3 7 274.46 157.085 10
7 -3 -7 36.5282 178.082 1
7 -3 -6 2664.39 482.292 1
-7 3 6 1811.61 397.038 10
-7 3 5 338.079 262.345 12
7 -3 -5 142.587 200.281 1
-7 3 5 -91.224 218.956 10
-7 3 4 3165.1 516.313 12
-7 3 4 2245.71 441.006 10
7 -3 -4 3236.31 501.196 1
7 -3 -3 -17.1513 169.508 1
-7 3 3 47.079 191.636 12
-7 3 3 162.557 203.735 10
7 -3 -2 1842.25 360.058 14
7 -3 -2 2443.69 407.753 3
-7 3 2 1764.11 436.379 10
7 -3 -2 2516.24 441.238 1
-7 3 2 2877 451.755 8
7 -3 -1 -95.5594 158.65 14
7 -3 -1 392.509 194.808 3
-7 3 1 81.1423 215.383 10
7 -3 -1 188.396 160.806 1
-7 3 1 -185.355 177.281 8
7 -3 0 172.206 215.359 14
7 -3 0 462.488 195.969 3
-7 3 0 101.973 191.36 10
-7 3 0 47.2662 167.997 8
7 -3 0 -94.488 211.33 1
7 -3 1 -326.589 241.17 14
7 -3 1 -26.3654 178.226 3
-7 3 -1 379.069 277.111 10
-7 3 -1 21.6702 177.282 8
7 -3 2 394.462 218.587 14
7 -3 2 410.605 216.161 3
-7 3 -2 765.893 338.272 10
-7 3 -2 32.2805 168.414 4
-7 3 -2 624.814 215.764 8
7 -3 3 7957.45 782.208 3
-7 3 -3 8766.07 853.786 10
-7 3 -3 8929.49 778.256 4
7 -3 3 9044.09 783.392 14
7 -3 4 1000.95 296.534 14
7 -3 4 976.489 322.985 3
-7 3 -4 920.395 319.695 10
-7 3 -4 506.286 240.242 4
7 -3 5 8135.68 766.227 14
7 -3 5 8965.54 865.986 3
-7 3 -5 7800.46 811.165 10
-7 3 -5 7127.49 714.904 4
7 -3 5 8173.14 738.922 9
7 -3 6 -134.457 207.681 14
-7 3 -6 496.42 272.331 10
7 -3 6 280.872 238.638 3
7 -3 6 288.424 226.328 9
-7 3 -6 621.428 277.835 4
7 -3 7 -140.715 188.707 14
-7 3 -7 -108.128 220.549 10
7 -3 7 -43.7181 176.697 9
-7 3 -7 -43.3648 200.299 4
7 -3 8 -82.0404 219.55 14
-7 3 -8 347.442 275.53 10
7 -3 8 -31.7158 191.658 9
-7 3 -8 345.329 212.326 4
7 -3 9 3798.74 558.652 14
-7 2 8 5995.11 699.835 10
7 -2 -8 5014.14 647.78 1
-7 2 7 -239.784 242.842 10
7 -2 -7 -271.735 252.453 1
7 -2 -6 3892.09 528.588 1
-7 2 6 4471.51 633.886 12
-7 2 6 3175.85 527.742 10
-7 2 5 -93.4752 230.998 12
7 -2 -5 357.704 230.846 1
-7 2 5 122.084 256.862 10
7 -2 -4 3744.67 498.871 3
7 -2 -4 3077.9 472.939 1
-7 2 4 3337.24 513.945 8
7 -2 -3 1660.04 349.436 14
7 -2 -3 2492.98 419.901 1
7 -2 -3 2036.18 376.773 3
-7 2 3 1593.41 352.86 8
7 -2 -2 1335.69 302.927 14
7 -2 -2 1092.53 301.313 3
7 -2 -2 1262 310.519 1
-7 2 2 1005.01 304.99 8
7 -2 -1 1876.44 357.82 14
7 -2 -1 1595.12 331.105 3
7 -2 -1 1878.96 370.579 1
-7 2 1 2032.36 391.741 8
7 -2 0 9646.48 825.018 3
-7 2 0 9422.71 787.912 8
7 -2 0 10053.6 795.454 14
7 -2 1 1475.81 314.026 14
7 -2 1 1560.3 370.13 3
-7 2 -1 1760.05 349.848 8
7 -2 2 2976.89 434.787 14
7 -2 2 2432.48 445.836 3
-7 2 -2 3343.07 461.607 4
-7 2 -2 2566.29 415.283 8
7 -2 3 1943.48 355.077 14
7 -2 3 1274.67 326.21 3
7 -2 3 1655.18 362.664 9
-7 2 -3 2042.78 371.62 4
-7 2 -3 1214.33 305.707 8
7 -2 4 572.364 241.365 14
7 -2 4 1085.72 334.447 3
7 -2 4 1379.16 348.043 9
-7 2 -4 637.769 231.918 4
7 -2 5 5323.9 600.908 14
7 -2 5 5870.82 697.118 3
7 -2 5 5722.11 644.385 9
7 -2 6 271.18 245.068 14
-7 2 -6 -15.9967 199.993 10
7 -2 6 -16.2464 184.67 9
7 -2 7 2585.99 439.152 14
-7 2 -7 3244.62 537.631 10
7 -2 7 3031.84 513.961 9
7 -2 8 6133.58 692.228 14
-7 2 -8 7743.89 811.327 10
-7 1 9 -210.845 199.121 10
-7 1 8 1205.47 358.713 10
-7 1 6 1342.58 392.572 12
-7 1 6 907.269 339.334 8
7 -1 -5 11020.7 873.896 3
7 -1 -5 9959.81 817.074 1
-7 1 5 9341.14 866.624 8
7 -1 -4 10320.6 851.2 3
7 -1 -4 10690.9 827.849 1
-7 1 4 9385.9 852.041 8
7 -1 -3 31.1878 145.943 14
7 -1 -3 253.42 227.505 3
-7 1 3 -6.29809 176.065 8
7 -1 -3 219.513 174.124 1
7 -1 -2 1549.75 306.155 14
7 -1 -2 793.749 288.503 3
7 -1 -2 1328.53 309.352 1
-7 1 2 860.948 264.548 8
7 -1 -1 453.538 217.59 14
7 -1 -1 437.266 200.37 3
7 -1 -1 36.9687 142.249 1
-7 1 1 702.708 255.089 8
7 -1 0 1944.7 334.244 14
7 -1 0 2127.08 408.601 3
7 -1 0 2416.09 404.16 9
-7 1 0 1527.45 334.027 8
7 -1 1 2801.21 408.688 14
7 -1 1 3309.7 502.059 3
7 -1 1 2969.91 439.606 9
-7 1 -1 2700.4 439.839 8
7 -1 2 5533.97 656.208 3
7 -1 2 6622.71 657.906 9
-7 1 -2 6979.34 685.328 8
7 -1 2 7185.54 637.446 14
7 -1 3 793.941 323.862 3
7 -1 3 1194.56 305.585 9
-7 1 -3 1346.63 325.62 8
7 -1 4 -256.228 231.272 3
-7 1 -4 -101.392 146.094 8
7 -1 5 -123.511 227.599 3
7 -1 5 159.843 193.072 9
-7 1 -5 106.173 152.305 8
7 -1 6 3660.29 546.806 9
-7 1 -8 1118.78 336.328 10
7 0 -9 3582.7 566.495 11
7 0 -6 221.193 211.276 3
-7 0 6 332.375 232.209 8
7 0 -5 10792.3 896.112 3
-7 0 5 11198.7 956.498 8
7 0 -4 1161.51 333.148 3
-7 0 4 1942.24 422.047 8
7 0 -3 1596.87 372.181 3
-7 0 3 2384.98 448.416 8
7 0 -2 3578.55 518.905 3
7 0 -2 3797.16 493.754 9
-7 0 2 2753.06 455.879 8
7 0 -1 302.907 244.465 3
7 0 -1 93.6011 152.253 9
-7 0 1 622.375 292.074 8
7 0 0 7014.74 740.977 3
7 0 0 7796.4 723.952 9
-7 0 0 9344.48 811.683 8
7 0 1 394.595 287.35 3
7 0 1 494.722 238.065 9
-7 0 -1 -87.9653 246.552 8
7 0 2 -5.44287 192.528 3
7 0 2 71.7169 183.836 9
-7 0 -2 6.81608 174.885 8
7 0 3 716.267 322.947 3
7 0 3 114.886 181.249 9
-7 0 -3 611.382 245.432 8
7 0 4 2635.04 468.458 3
7 0 4 2440.95 444.067 9
-7 0 -4 2980.05 473.912 8
7 0 5 19029.2 1279.37 9
-7 0 -5 19055.2 1190.33 8
-7 0 -6 1891.74 391.06 8
7 0 6 1497.03 419.531 9
7 1 -9 585.846 272.268 11
7 1 -8 1018.22 311.778 3
7 1 -8 160.528 207.601 11
7 1 -7 304.79 234.234 3
7 1 -7 14.24 195.587 11
7 1 -6 19045.1 1245.33 3
-7 -1 6 19153.2 1298.26 8
7 1 -5 1338.23 347.354 3
-7 -1 5 548.924 270.115 8
7 1 -4 1133.33 293.386 3
7 1 -4 1840.25 355.306 9
-7 -1 4 1646.55 398.44 8
7 1 -3 145.107 213.259 3
7 1 -3 2.80346 205.671 9
-7 -1 3 282.82 214.032 8
7 1 -2 348.284 222.591 3
7 1 -2 238.156 169.16 9
-7 -1 2 214.279 194.759 8
7 1 -1 228.893 221.432 3
7 1 -1 -94.5391 201.641 9
-7 -1 1 -140.655 223.118 8
7 1 0 932.931 316.282 3
7 1 0 590.778 243.939 9
-7 -1 0 58.5239 195.216 8
7 1 1 -148.627 216.605 3
-7 -1 -1 -112.789 191.946 8
7 1 2 374.673 256.421 3
7 1 2 420.938 252.383 9
-7 -1 -2 230.761 187.731 8
7 1 3 2611.92 480.155 3
7 1 3 1879.1 401.985 9
-7 -1 -3 1743.45 396.395 8
7 1 4 2948.29 537.912 11
7 1 4 2373.5 470.221 9
-7 -1 -4 3563.85 535.031 8
7 1 5 15209.6 1173.48 11
-7 -1 -5 17407.7 1171.79 8
-7 -1 -6 2994.02 481.943 8
7 1 6 3910.56 602.855 11
-7 -1 -7 10997.8 943.534 8
7 2 -9 125.738 209.576 3
7 2 -8 -73.0551 171.799 3
7 2 -8 82.5967 202.581 11
7 2 -7 1843.64 404.911 3
7 2 -7 2751.3 533.546 11
7 2 -6 2518.57 465.124 3
7 2 -6 3341.14 561.256 11
7 2 -6 2178.67 397.64 9
7 2 -5 6620.02 737.344 3
7 2 -5 6722.34 775.724 11
7 2 -5 6211.99 655.97 9
-7 -2 5 6656.02 777.136 8
7 2 -4 2613.03 528.806 11
7 2 -4 2886.98 468.159 3
7 2 -4 2307.92 421.763 9
-7 -2 4 1663.33 382.79 8
7 2 -3 299.161 288.415 11
7 2 -3 -187.749 199.657 3
7 2 -3 628.328 266.235 9
-7 -2 3 249.138 259.055 8
7 2 -2 1540.73 467.585 11
7 2 -2 1212.06 346.43 3
7 2 -2 1029.16 332.61 9
-7 -2 2 441.357 237.015 8
7 2 -1 625.569 327.823 11
7 2 -1 525.615 278.349 3
7 2 -1 -58.6413 180.385 9
-7 -2 1 -125.128 176.849 8
7 2 0 6542.48 743.538 3
7 2 0 6628.59 781.413 11
7 2 0 4622.93 616.23 9
-7 -2 0 5632.11 654.386 8
7 2 1 657.976 308.124 11
7 2 1 836.608 327.643 3
7 2 1 585.597 268.996 9
-7 -2 -1 1129.01 350.378 8
7 2 2 4027.69 625.659 11
7 2 2 5028.64 660.182 3
7 2 2 5043.99 648.72 9
-7 -2 -2 5113.16 643.86 8
7 2 3 1918.42 428.096 11
7 2 3 1595.98 403.651 9
-7 -2 -3 2359.39 447.115 8
-7 -2 -4 934.84 266.394 8
7 2 4 648.83 325.07 11
-7 -2 -5 124.825 235.245 8
-7 -3 9 441.849 261.204 2
7 3 -7 4035.19 564.986 9
7 3 -6 461.452 274.652 3
7 3 -6 387.374 229.758 9
7 3 -5 81.3056 165.029 3
7 3 -5 178.683 203.188 11
7 3 -5 9.38638 171.124 9
7 3 -4 1938.12 486.59 11
7 3 -4 2824.66 514.295 3
7 3 -4 2595.02 485.072 9
-7 -3 4 2231.42 420.688 8
7 3 -3 677.224 294.313 11
7 3 -3 743.652 306.839 3
7 3 -3 298.597 227.389 9
-7 -3 3 514.586 320.413 8
7 3 -2 549.114 281.344 11
7 3 -2 546.098 299.888 3
7 3 -2 123.597 205.097 9
-7 -3 2 -131.036 193.496 8
7 3 -1 9413.76 892.569 3
7 3 -1 9513.26 934.743 11
7 3 -1 7961.07 810.105 9
-7 -3 1 6398.65 745.276 8
7 3 0 8773.68 857.687 9
-7 -3 0 9542.97 895.324 8
7 3 1 461.581 306.789 9
-7 -3 -1 392.996 275.879 8
-7 -3 -2 3702.16 567.421 8
7 4 -6 151.014 239.466 9
7 4 -5 81.8921 201.328 9
7 4 -4 497.749 244.156 9
7 4 -3 124.388 203.066 9
7 4 -2 740.922 281.935 9
-8 4 1 6153.56 731.181 12
8 -4 0 1029.89 315.42 14
-8 4 0 1546.17 381.473 12
8 -4 1 2624.73 464.358 14
8 -4 2 3638.53 561.098 14
8 -4 3 925.659 306.459 14
8 -3 -3 -175.183 183.076 14
8 -3 -3 142.063 193.76 1
8 -3 -2 157.357 203.174 14
8 -3 -2 69.0233 199.606 1
-8 3 2 25.3877 218.863 8
8 -3 -1 3202.27 507.015 14
8 -3 -1 3655.74 540.37 1
8 -3 0 525.196 221.562 14
8 -3 0 1014.34 316.809 3
8 -3 0 896.447 304.402 1
8 -3 1 1016.37 327.476 14
8 -3 1 398.395 272.324 1
8 -2 -2 -92.6448 176.438 3
-8 2 2 64.0704 189.588 8
8 -2 -1 7409.27 794.107 3
-8 2 1 8461.08 826.755 8
-8 2 0 3281.95 511.129 8
-8 1 1 5643.36 676.146 8
-8 1 0 319.229 294.776 8
-8 1 -1 5634.77 664.823 8
-8 1 -2 1343.77 334.274 8
