#------------------------------------------------------------------------------
#$Date: 2020-02-29 01:44:34 +0200 (Sat, 29 Feb 2020) $
#$Revision: 248541 $
#$URL: file:///home/coder/svn-repositories/cod/cif/4/13/42/4134274.cif $
#------------------------------------------------------------------------------
#
# This file is available in the Crystallography Open Database (COD),
# http://www.crystallography.net/
#
# All data on this site have been placed in the public domain by the
# contributors.
#
data_4134274
loop_
_publ_author_name
'Zhang, Han-Yue'
'Song, Xian-Jiang'
'Chen, Xiao-Gang'
'Zhang, Zhi-Xu'
'You, Yu-Meng'
'Tang, Yuan-Yuan'
'Xiong, Ren-Gen'
_publ_section_title
;
 Observation of vortex domains in a two-dimensional lead iodide perovskite
 ferroelectric.
;
_journal_name_full               'Journal of the American Chemical Society'
_journal_paper_doi               10.1021/jacs.0c00371
_journal_year                    2020
_chemical_formula_moiety         'C5 H9 F N, I3 Pb'
_chemical_formula_sum            'C5 H9 F I3 N Pb'
_chemical_formula_weight         690.03
_space_group_crystal_system      orthorhombic
_space_group_IT_number           63
_space_group_name_Hall           '-C 2c 2'
_space_group_name_H-M_alt        'C m c m'
_atom_sites_solution_hydrogens   difmap
_audit_creation_method           SHELXL-2014/7
_cell_angle_alpha                90
_cell_angle_beta                 90
_cell_angle_gamma                90
_cell_formula_units_Z            4
_cell_length_a                   8.6540(4)
_cell_length_b                   18.8523(11)
_cell_length_c                   8.0744(4)
_cell_measurement_reflns_used    1999
_cell_measurement_temperature    308(2)
_cell_measurement_theta_max      30.6390
_cell_measurement_theta_min      2.5910
_cell_volume                     1317.32(12)
_computing_structure_refinement  'SHELXL-2014/7 (Sheldrick, 2014)'
_diffrn_ambient_temperature      308(2)
_diffrn_measured_fraction_theta_full 0.999
_diffrn_measured_fraction_theta_max 0.999
_diffrn_measurement_device_type  'XtaLAB Synergy R, DW system, HyPix'
_diffrn_radiation_type           MoK\a
_diffrn_radiation_wavelength     0.71073
_diffrn_reflns_av_R_equivalents  0.1673
_diffrn_reflns_av_unetI/netI     0.0783
_diffrn_reflns_Laue_measured_fraction_full 0.999
_diffrn_reflns_Laue_measured_fraction_max 0.999
_diffrn_reflns_limit_h_max       10
_diffrn_reflns_limit_h_min       -9
_diffrn_reflns_limit_k_max       21
_diffrn_reflns_limit_k_min       -22
_diffrn_reflns_limit_l_max       9
_diffrn_reflns_limit_l_min       -9
_diffrn_reflns_number            2646
_diffrn_reflns_point_group_measured_fraction_full 0.999
_diffrn_reflns_point_group_measured_fraction_max 0.999
_diffrn_reflns_theta_full        24.983
_diffrn_reflns_theta_max         24.983
_diffrn_reflns_theta_min         2.590
_diffrn_source                   'Rotating-anode X-ray tube'
_exptl_absorpt_coefficient_mu    19.805
_exptl_absorpt_correction_T_max  0.013
_exptl_absorpt_correction_T_min  0.004
_exptl_absorpt_correction_type   multi-scan
_exptl_absorpt_process_details
;
CrysAlisPro 1.171.40.14e (Rigaku Oxford Diffraction, 2018)
Empirical absorption correction using spherical harmonics,
 implemented in SCALE3 ABSPACK scaling algorithm.
;
_exptl_crystal_colour            yellow
_exptl_crystal_density_diffrn    3.479
_exptl_crystal_description       block
_exptl_crystal_F_000             1184
_exptl_crystal_size_max          0.3
_exptl_crystal_size_mid          0.26
_exptl_crystal_size_min          0.22
_refine_diff_density_max         2.681
_refine_diff_density_min         -3.196
_refine_diff_density_rms         0.569
_refine_ls_extinction_method     none
_refine_ls_goodness_of_fit_ref   1.109
_refine_ls_hydrogen_treatment    constr
_refine_ls_matrix_type           full
_refine_ls_number_parameters     48
_refine_ls_number_reflns         672
_refine_ls_number_restraints     65
_refine_ls_restrained_S_all      1.061
_refine_ls_R_factor_all          0.0949
_refine_ls_R_factor_gt           0.0910
_refine_ls_shift/su_max          0.001
_refine_ls_shift/su_mean         0.000
_refine_ls_structure_factor_coef Fsqd
_refine_ls_weighting_details
'w=1/[\s^2^(Fo^2^)+(0.2000P)^2^] where P=(Fo^2^+2Fc^2^)/3'
_refine_ls_weighting_scheme      calc
_refine_ls_wR_factor_gt          0.2657
_refine_ls_wR_factor_ref         0.2688
_reflns_Friedel_coverage         0.000
_reflns_number_gt                596
_reflns_number_total             672
_reflns_threshold_expression     'I > 2\s(I)'
_cod_data_source_file            ja0c00371_si_004.cif
_cod_data_source_block           CMCM
_cod_database_code               4134274
_shelx_shelxl_version_number     2014/7
_shelx_space_group_comment
;
The symmetry employed for this shelxl refinement is uniquely defined
by the following loop, which should always be used as a source of
symmetry information in preference to the above space-group names.
They are only intended as comments.
;
_shelx_res_file
;

    CMCM.res created by SHELXL-2014/7

TITL CMCM in Cmcm
CELL 0.71073   8.6540  18.8523   8.0744  90.000  90.000  90.000
ZERR   4.00   0.0004   0.0011   0.0004   0.000   0.000   0.000
LATT 7
SYMM -X, -Y, 0.5+Z
SYMM -X, Y, 0.5-Z
SYMM X, -Y, -Z
SFAC C  H  N  F  I  Pb
UNIT 20 36 4 4 12 4
OMIT   0.00  50.00
L.S. 500
ACTA
BOND
FMAP 2
PLAN 5
exyz C1 N1
EADP C1 N1
SIMU 0.02
SIMU 0.005 F1 F1'
DELU 0.005 F1 F1'
ISOR F1 F1'
DFIX 1.53 0.02 C3 F1
DFIX 1.53 0.02 C3 F1'
DFIX 1.36 0.02 C1 C2 N1 C2
WGHT    0.200000
FVAR       0.15882
PB1   6    0.000000    1.000000    0.000000    10.25000    0.05151    0.05880 =
         0.04337   -0.00003    0.00000    0.00000
I1    5    0.256865    1.061523    0.250000    10.50000    0.05851    0.07493 =
         0.07590    0.00000    0.00000   -0.01781
I2    5    0.000000    0.865390    0.250000    10.25000    0.07914    0.04834 =
         0.05508    0.00000    0.00000    0.00000
C1    1    0.500000    0.247473    0.839319    10.25000    0.26701    0.06946 =
         0.11284   -0.01382    0.00000    0.00000
C2    1    0.500000    0.184842    0.922726    10.50000    0.26143    0.07680 =
         0.11379   -0.01458    0.00000    0.00000
AFIX   3
H2A   2    0.588820    0.185832    0.993926    10.50000   -1.20000
H2B   2    0.411180    0.185832    0.993926    10.50000   -1.20000
AFIX   0
C3    1    0.500000    0.118110    0.842742    10.50000    0.25092    0.06433 =
         0.11416   -0.01429    0.00000    0.00000
AFIX   3
H3A   2    0.610930    0.118110    0.842742    10.75000   -1.20000
AFIX   0
F1    4    0.500000    0.069520    0.994843    10.25000    0.25401    0.08037 =
         0.11811   -0.01797    0.00000    0.00000
F1'   4    0.461256    0.141869    1.019106   -10.25000    0.25404    0.07975 =
         0.11773   -0.01745   -0.00002   -0.00015
N1    3    0.500000    0.247473    0.839319    10.25000    0.26701    0.06946 =
         0.11284   -0.01382    0.00000    0.00000
AFIX   3
H1A   2    0.579523    0.273288    0.873646    10.25000   -1.20000
H1B   2    0.412351    0.273278    0.873646    10.25000   -1.20000
AFIX   0
HKLF 4

REM  CMCM in Cmcm
REM R1 =  0.0910 for     596 Fo > 4sig(Fo)  and  0.0949 for all     672 data
REM     48 parameters refined using     65 restraints

END

WGHT      0.2000      0.0000

REM Highest difference peak  2.681,  deepest hole -3.196,  1-sigma level  0.569
Q1    1   0.1640  1.0004  0.2500  10.50000  0.05    2.68
Q2    1   0.0000  0.9664  0.1247  10.50000  0.05    2.64
Q3    1  -0.0318  0.9312  0.2500  10.50000  0.05    2.46
Q4    1   0.0437  1.0630  0.2500  10.50000  0.05    2.45
Q5    1  -0.0978  1.0000  0.0000  10.50000  0.05    2.40
;
_shelx_res_checksum              30757
_shelx_hkl_file
;
   0   0   1    0.37    1.05
   0   0   2 2017.53   39.98
   0   0   3    2.29    2.91
   0   0  -4 7794.68  139.39
   0   0   4 7150.73  125.13
   0   0  -5    8.31    6.11
   0   0  -6   86.49   13.09
   0   0  -7   17.73   11.15
   0   0  -8 1417.08   67.05
   0   0  -9   -2.48   12.19
   0   0 -10   17.06   19.93
   0   2   1    7.06    0.83
   0  -2  -1    3.91    1.39
   0  -2  -2   77.22    6.85
   0   2   2   85.99    6.71
   0   2  -3  223.28   13.94
   0   2   3  169.16   10.73
   0   2   4 4071.22   81.76
   0   2  -4 4458.22   90.55
   0   2  -5   23.42    7.49
   0   2   5   14.30    4.72
   0   2  -6  161.10   17.25
   0  -2  -6  126.03   17.27
   0   2  -7    3.34    9.23
   0  -2  -7   -1.33    8.97
   0   2  -8  750.48   47.51
   0  -2  -8  538.40   41.64
   0   2  -9   -0.81   13.89
   0  -2  -9   -0.91   12.42
   0  -2 -10   67.49   23.08
   0   2 -10  114.78   28.77
   0  -4   0  352.28    8.85
   0   4   0  294.10    8.76
   0  -4  -1 3469.42   67.16
   0  -4  -1 4041.54   60.21
   0  -4  -2 4052.51   86.00
   0   4   2 4480.42   73.60
   0  -4  -3 1514.18   43.73
   0   4   3 1412.49   27.39
   0  -4  -4  162.60   14.92
   0   4   4  203.37   12.75
   0   4   5 1046.81   34.57
   0   4  -5 1343.39   45.11
   0   4   6 1103.32   34.53
   0   4  -6 1794.52   58.11
   0  -4  -7  207.32   25.08
   0   4  -7  380.97   28.58
   0   4  -8  114.36   21.33
   0  -4  -8   58.65   16.46
   0  -4  -9   48.77   18.15
   0   4  -9  101.84   22.01
   0  -4 -10  182.23   30.97
   0   4 -10  371.04   42.69
   0   6   0  152.60    6.89
   0  -6   0  144.96    6.15
   0   6   1 3565.90   56.97
   0  -6  -1 2783.70   58.95
   0   6   2 3538.15   62.11
   0  -6  -2 3342.84   51.62
   0   6   3 2406.23   45.42
   0  -6  -3 1747.02   56.91
   0   6   4  227.79    8.72
   0  -6  -4  223.44   18.79
   0   6   5  490.52   14.05
   0  -6  -5  599.42   34.64
   0   6   6  448.55   13.96
   0  -6  -6  519.99   35.75
   0   6  -7  457.16   29.51
   0   6   7  133.55    6.75
   0   6  -8  241.92   27.73
   0   6   8   51.54    4.27
   0  -6  -9   54.38   18.25
   0   6   9   32.81    3.61
   0   6 -10  298.44   39.77
   0   6 -11   20.69   23.60
   0  -8   0  359.99   11.14
   0   8   0  295.89   12.28
   0   8   1   60.38    5.73
   0   8   1   53.87    5.31
   0  -8  -1   37.01    5.76
   0  -8   1   83.36    5.86
   0  -8  -1   66.46    2.17
   0  -8  -2 1791.49   30.70
   0   8   2 2061.18   40.79
   0  -8  -3   36.25    7.96
   0   8   3   51.56    6.80
   0   8   4  152.33   11.55
   0   8   4  132.23    8.49
   0  -8  -4  121.77   15.18
   0   8   5   20.72    3.31
   0  -8  -5   23.94    8.84
   0  -8  -6  426.15   34.51
   0   8   6  390.92   12.79
   0   8   7    8.93    2.43
   0  -8  -7    9.18   10.33
   0  -8  -8   72.66   18.42
   0   8   8   47.49    4.01
   0   8  -9    8.72   17.29
   0   8 -10  153.48   30.90
   0   8 -11    5.67   25.60
   0 -10   0   66.93    5.25
   0  10   0   40.75    4.84
   0 -10   1 1445.40   31.19
   0  10   1 1156.78   33.61
   0 -10  -1 1318.04   22.65
   0  10   1 1635.81   33.96
   0  10   2 3855.66   64.51
   0 -10   2 3581.30   58.78
   0 -10  -3  780.11   16.62
   0 -10  -3  484.09   27.51
   0  10   4    8.02    1.74
   0 -10  -4    6.90    6.08
   0  10  -4   18.15    6.45
   0  10   4    5.84    4.54
   0 -10  -5  192.09   21.59
   0  10   5  319.58   16.90
   0 -10  -6  452.69   36.30
   0  10   6  803.04   30.60
   0 -10  -7   63.37   15.42
   0  10   7   61.43    5.06
   0  10   8    4.47    2.04
   0 -10  -8   10.24   10.81
   0  10  -9  108.99   24.61
   0 -10  -9   16.05   14.29
   0  10 -10  277.47   33.31
   0  12   0  155.79    8.61
   0  12   0   59.05    5.92
   0 -12   1  280.17   13.14
   0  12   1  298.36   13.19
   0  12   2 1534.55   36.55
   0 -12   2 1502.48   34.51
   0 -12  -2  589.65   31.17
   0 -12  -2  981.99   23.84
   0  12  -2 1611.85   24.96
   0  12   2  937.65   32.27
   0 -12  -3   64.06   10.71
   0 -12  -3   95.39    4.68
   0 -12  -4   27.47    8.55
   0  12   4   82.23    9.62
   0 -12  -5   18.44   10.41
   0  12   5   32.60    3.01
   0  12   6  348.53   19.05
   0 -12  -6  198.24   25.74
   0  12  -7   21.40   11.90
   0 -12  -7    4.51    9.63
   0  12  -8   97.64   19.69
   0 -12  -8   15.10   11.75
   0  12  -9    5.51   17.13
   0  14   0 1895.20   40.26
   0  14   1   33.84    6.11
   0 -14  -1   21.85    1.76
   0  14   1   20.90    5.18
   0  14  -1   37.13    4.63
   0 -14   1   32.18    5.77
   0 -14  -2    3.26    2.36
   0  14   2    5.16    5.21
   0 -14   2    6.81    4.16
   0  14  -2   10.65    2.33
   0  14   2   14.12    5.52
   0 -14   3   27.23    6.87
   0 -14  -3    8.15    6.06
   0  14   3   28.07    7.17
   0 -14  -3   14.02    2.31
   0  14   3   14.77    5.59
   0  14   4 1099.07   34.82
   0  14  -4 1271.33   23.06
   0  14  -5    9.22    5.65
   0  14   5    8.46    6.46
   0 -14  -5    0.71    8.29
   0  14   6    6.39    2.08
   0  14  -6    5.85    7.08
   0 -14  -6    0.77    7.78
   0  14  -7    5.32   10.53
   0 -14  -7   -0.90    9.76
   0 -14  -8   69.51   20.81
   0  14  -8  419.12   26.30
   0  16   0 2011.97   45.02
   0 -16  -1   58.96    2.58
   0  16  -1  137.48    8.77
   0  16   1  115.29   10.52
   0  16   1   55.44    9.26
   0 -16   1   69.95    6.99
   0 -16  -2   19.64    3.33
   0  16   2   17.83    6.36
   0  16   2   46.91    8.41
   0 -16   2   43.35    8.13
   0  16   3   80.43   10.26
   0 -16  -3   46.29    3.76
   0  16   3   46.20    9.18
   0 -16   3   83.03    9.16
   0 -16   4  857.55   29.63
   0  16   4  664.06   24.85
   0 -16  -5    5.04    7.53
   0  16   5   42.13    9.36
   0 -16  -6   -0.82    9.13
   0 -16  -7   10.31   11.34
   0  18   0  241.67   14.52
   0 -18   1    3.89    4.64
   0  18  -1    7.57    5.45
   0 -18  -1    2.30    1.08
   0  18   1   -1.53    5.57
   0  18   1    1.46    6.25
   0 -18   2  112.80   10.97
   0  18   2  122.62   12.02
   0 -18  -3    3.12    2.16
   0 -18   3    4.24    5.99
   0  18   3    2.21    6.35
   0  18   4  116.62   13.19
   0 -18   4   97.45   10.72
   0 -18   5    4.24    8.62
   0 -18   6   79.22   11.73
   0 -20   0   44.58    3.50
   0  20   0   85.04   10.72
   0  20   1  238.28   17.00
   0 -20  -1   81.27    7.30
   0 -20   2   74.58    8.92
   0 -20  -2   50.47    5.27
   0  20   3  117.92   12.69
   0 -20   3  111.62   11.97
   0 -20  -4   16.96    2.63
   0 -20   4   31.29    8.45
   0  20   4   33.15    8.77
   0 -20   5   73.86   11.87
   0 -22   0   36.75    3.01
   0 -22  -1   15.07    4.68
   0 -22  -2   11.39    3.49
   0 -22   3   17.71    8.29
   0 -22  -3   10.06    2.77
  -1  -1   0 3376.59   51.71
   1   1   0 3417.00   51.65
  -1  -1   0 3397.94   52.93
   1   1   0 3441.19   52.47
   1  -1   1   66.79    3.94
   1   1   1   73.15    4.87
   1  -1   2  662.48   17.28
   1   1   2  731.18   19.76
  -1   1  -2  708.33   19.32
   1   1   3  488.15   16.83
   1  -1   3  484.64   16.05
   1   1   4 2137.64   48.96
  -1  -1  -4 2129.28   59.76
  -1   1  -4 2296.78   57.46
   1  -1   4 2253.17   50.03
  -1  -1  -5  190.00   18.06
  -1   1  -5  208.26   17.86
   1   1   5  188.76   12.55
   1  -1   5  177.20   11.66
  -1  -1  -6  292.76   25.64
   1   1  -6  322.50   25.65
   1   1   6  270.47   16.06
   1  -1   6  224.07   14.25
  -1   1  -6  313.80   25.21
   1  -1  -6  288.89   24.62
   1   1   7   55.95    7.93
   1   1  -7   68.08   14.67
  -1  -1  -7   75.78   16.63
   1  -1  -7   69.28   15.12
  -1   1  -7   92.82   17.53
  -1  -1  -8  470.30   38.49
  -1   1  -8  608.20   42.87
   1  -1  -8  413.14   32.91
   1   1  -8  535.64   38.21
  -1   1  -9   21.06   14.91
   1  -1  -9   24.61   15.58
   1   1  -9   35.99   17.20
  -1  -1  -9   27.26   14.96
   1  -1 -10   71.34   21.72
  -1  -1 -10   73.26   23.55
   1   1 -10   93.33   24.25
  -1   1 -10   89.05   26.32
   1  -3   0  747.38   12.99
   1   3   0  517.38   11.68
   1   3   1  577.15   13.32
   1   3   1  472.49    9.71
   1   3   2 3966.83   62.60
   1   3   2 3839.62   69.99
   1  -3  -2 3771.48   75.55
   1  -3   2 3700.90   63.80
   1  -3   3  148.25    8.66
   1   3   3  132.15    8.92
  -1   3  -3  163.71   10.09
   1  -3  -3  154.86   14.52
   1  -3  -4  213.68   18.35
   1   3   4  185.28   11.23
  -1   3  -4  260.99   16.05
   1  -3   4  240.16   12.89
   1  -3   5   76.78    7.85
  -1   3  -5  100.40   12.46
   1   3   5   80.64    8.88
  -1  -3  -6 1034.75   51.56
   1   3   6  950.68   32.42
  -1  -3  -7   19.06   10.45
   1  -3  -7   23.92    9.74
   1   3  -7   47.53   13.60
   1   3   7   31.03    7.08
  -1   3  -7   55.72   14.77
  -1  -3  -8   75.87   17.60
   1   3  -8  129.73   21.46
   1  -3  -8   74.75   16.95
  -1   3  -8  140.74   22.74
   1   3  -9   19.98   14.38
  -1  -3  -9    8.38   12.55
   1  -3  -9   16.67   13.05
  -1   3  -9   11.51   16.13
  -1  -3 -10  170.13   28.96
   1   3 -10  268.42   34.22
   1  -3 -10  192.10   30.13
   1  -5   0  807.57   16.67
   1  -5   0  717.36   14.98
   1   5   1  571.56   12.11
  -1  -5  -1  495.89   10.13
  -1  -5  -1  536.88   13.37
   1  -5  -1  473.84   17.39
   1   5   2 2050.03   40.44
   1  -5  -2 2218.87   32.87
   1  -5  -2 1825.57   50.13
  -1  -5  -2 1686.61   49.65
  -1  -5  -2 2156.19   37.08
  -1  -5  -3  267.49   18.23
   1   5   3  266.90    9.95
   1  -5  -4  361.05   23.17
  -1  -5  -4  347.51   22.56
  -1   5   4  326.71    8.73
   1   5   4  376.01   12.36
   1  -5  -5   87.18   13.32
   1   5   5  102.32    9.67
   1   5  -5  217.15   19.82
  -1   5  -5  193.46   15.63
   1  -5  -6  487.42   33.36
   1   5   6  730.50   27.98
  -1   5  -6 1471.41   49.99
   1   5  -6 1447.39   54.72
  -1   5  -7  103.16   18.16
   1   5   7   41.78    7.80
   1   5  -7   87.69   16.78
   1   5  -8  241.50   27.24
  -1   5  -8  283.48   29.07
  -1  -5  -9    8.78   13.29
  -1   5  -9   41.17   18.35
   1  -5  -9   28.28   14.41
   1   5  -9   35.11   16.08
   1   5 -10  240.69   34.46
  -1   5 -10  253.58   33.20
  -1   5 -11    6.37   24.23
   1  -7   0 2386.58   42.43
   1  -7   0 2578.78   41.72
  -1  -7  -1    1.48    0.74
   1   7   1    1.64    1.57
  -1  -7  -1    0.27    1.79
  -1   7   1    1.82    2.68
   1   7   1    0.14    2.56
   1  -7   1    0.50    1.62
   1  -7  -1    0.26    1.78
   1   7   2  204.12    7.11
   1   7   2  264.26   13.11
  -1   7   2  276.37   13.88
  -1  -7  -2  156.11   12.50
   1  -7  -2  160.98   12.30
   1  -7  -2  227.30    5.93
  -1  -7  -2  246.62    7.84
  -1   7   3   16.71    4.86
  -1   7  -3   25.24    3.74
   1  -7  -3   11.50    5.18
   1   7   3   17.01    3.90
  -1  -7  -3   15.05    5.67
   1  -7  -4 1180.79   48.42
  -1  -7  -4 1240.00   50.71
   1  -7  -5   22.14    7.73
  -1   7   5   30.08    2.97
   1   7  -5   84.72   12.79
  -1  -7  -5   46.87   11.22
  -1   7  -5   90.46   10.42
   1   7   5   40.08    4.50
  -1  -7  -6   48.56   13.13
  -1   7  -6  190.08   18.04
   1   7  -6  196.83   21.89
  -1   7   6   54.51    3.71
   1  -7  -6   41.02   12.10
   1   7   6   49.17    4.87
   1   7   6   73.17    8.80
   1  -7  -7    5.97    9.66
   1   7   7    6.20    2.43
  -1   7   7    3.15    1.42
   1   7  -7   18.11   11.72
   1   7   7    9.37    5.34
  -1   7  -7   27.14   12.08
  -1   7  -8  780.85   42.12
   1   7  -8  736.98   43.96
   1   7   9    0.45    2.12
   1   7  -9   -0.67   15.02
  -1   7  -9   -0.72   16.37
  -1  -7  -9   -0.95   12.85
   1   7 -10   81.03   25.90
  -1   7 -10   43.02   21.72
   1   7 -11    2.97   24.58
  -1   7 -11   18.55   27.10
   1   9   0  888.90   25.24
   1  -9   0  841.02   23.88
  -1  -9  -1  252.77    6.66
   1  -9  -1  195.29   12.19
   1   9   1  346.72   14.63
  -1  -9  -1  272.80   11.73
   1   9   1  172.51    9.39
  -1   9   1  410.53   16.19
   1  -9   1  283.59   11.12
   1  -9  -2  550.64   13.17
  -1  -9  -2  618.66   15.79
   1  -9  -2  410.05   21.53
  -1   9   2  785.70   25.00
   1   9   2  723.18   22.99
   1   9   3  254.28   13.68
   1   9   3  248.07    8.39
  -1   9   3  290.34   15.62
  -1  -9  -3  229.09    7.86
   1  -9  -3  239.93    6.06
  -1   9  -3  391.79    9.26
   1  -9  -3  170.67   15.98
  -1  -9  -3  139.32   14.79
   1   9   4  749.63   26.11
   1  -9  -4  501.70   31.77
   1   9   4  770.76   25.00
  -1  -9  -4  497.91   33.13
  -1   9   4  804.65   27.25
   1  -9  -5  104.48   16.28
  -1   9  -5  370.16   18.85
   1   9   5  138.41    9.38
   1   9   5  163.10   12.71
  -1  -9  -5  104.98   15.69
   1   9  -5  385.96   25.09
   1   9   6   97.79    7.00
  -1  -9  -6   88.09   15.84
   1  -9  -6   91.78   16.74
  -1   9  -6  417.84   23.52
   1   9  -6  442.41   30.81
  -1   9  -7  122.05   16.17
   1   9  -7  133.46   19.98
  -1  -9  -7   29.59   12.33
   1  -9  -7   27.27   11.80
   1   9   7   27.32    4.03
   1   9   8   77.93    5.96
   1  -9  -8   67.41   17.26
  -1  -9  -8   70.34   18.15
  -1   9  -8  400.71   30.71
   1   9  -8  392.83   33.52
   1  -9  -9    2.09   11.98
  -1   9  -9   26.28   17.16
   1   9  -9   43.81   19.46
  -1   9 -10  110.79   29.21
   1   9 -10  117.74   29.16
   1  11   0   57.98    5.54
   1 -11   0  100.25    6.24
  -1  11   1   10.63    4.68
   1  11   1    4.49    3.93
   1  11   1    3.38    2.63
   1 -11   1    5.84    3.27
   1 -11  -1    2.19    2.81
  -1 -11  -1    9.25    3.45
  -1 -11  -1    1.91    1.09
   1 -11  -2 1095.31   23.02
   1  11   2 1457.22   34.39
   1 -11  -2  849.54   35.75
   1 -11   2 1698.72   34.48
  -1 -11  -2 1126.98   24.97
  -1  11   2 1941.00   41.27
   1  11   2  849.48   27.27
  -1  11   3    5.52    4.66
  -1 -11  -3    2.98    1.89
   1  11   3    1.08    4.02
   1 -11  -3    1.44    4.29
   1 -11  -3    2.37    1.10
   1  11   4   60.35    4.59
  -1 -11  -4   34.71    9.50
   1  11   4   71.03    8.11
   1 -11  -4   44.31   10.11
  -1  11   4   77.78    8.60
  -1  11  -5   -2.58    4.55
   1  11   5   -0.22    4.84
  -1 -11  -5    0.69    8.13
   1 -11  -5    5.10    6.76
   1  11   5    5.66    2.45
   1  11  -5    1.10    8.44
   1  11   6  502.84   22.34
  -1 -11  -6  296.06   31.90
  -1  11  -6 1146.35   34.58
   1 -11  -6  240.86   25.64
   1  11  -6 1454.96   51.65
   1  11   6  285.03   13.73
   1  11   7    0.48    2.58
   1 -11  -7   -0.82    9.21
  -1 -11  -7   -0.97   10.83
  -1  11  -7    2.81    9.08
   1  11  -7    2.43   11.79
   1  11  -8   76.74   17.77
   1  11   8   16.32    3.55
  -1  11  -8   90.40   16.40
  -1 -11  -8   26.15   16.33
   1 -11  -8   12.75   12.00
   1  11  -9    3.51   18.67
  -1  11  -9   -7.81   18.35
   1  13   0  789.27   24.92
   1  13  -1  412.05   16.64
  -1 -13  -1  223.47    6.68
   1  13   1  133.03   10.07
   1 -13  -1  119.42   10.92
   1 -13   1  265.46   12.14
   1  13   1  339.32   15.63
  -1 -13  -1  196.76   10.86
  -1  13   1  408.09   17.23
   1 -13  -2  266.01    9.47
  -1  13   2  495.43   20.17
   1  13   2  225.94   13.80
   1 -13  -2  136.50   13.28
   1  13   2  351.96   15.44
   1 -13   2  388.30   15.76
  -1 -13  -2  285.01   10.95
   1  13   3  101.31    9.64
  -1  13   3  188.25   12.98
   1 -13  -3   64.58   10.83
  -1 -13  -3   99.16    5.38
   1  13   3  154.87   11.36
   1 -13  -3  114.92    4.83
   1 -13   3  161.22    9.97
   1  13   4  293.45   16.33
   1 -13  -4  128.37   16.77
  -1 -13  -5   38.54   11.53
   1 -13  -5   25.91   10.62
   1  13   5   47.80    4.56
  -1 -13  -6   53.05   14.09
  -1  13   6   60.57    3.20
   1 -13  -6   69.48   15.78
   1  13   6   79.55    5.51
  -1  13  -7   58.19   10.38
   1  13  -7   67.00   15.70
   1 -13  -7    8.98    9.64
  -1 -13  -7    5.92    9.05
  -1 -13  -8   17.21   12.92
   1  13  -8  155.88   21.21
  -1  13  -8  134.17   15.88
   1 -13  -8   28.06   13.49
   1  13  -9   22.55   19.05
   1  15   0 1017.75   29.11
  -1 -15  -1    4.28    1.44
   1  15   1    2.96    4.86
   1  15   1    8.21    4.39
   1  15  -1    6.44    4.51
   1 -15   1    6.03    3.96
  -1 -15  -1    5.69    3.57
   1  15   2   30.72    6.44
   1 -15  -2   21.59    3.18
   1 -15   2   29.09    5.76
   1  15  -2   53.40    7.16
   1 -15  -2   14.78    6.01
  -1  15   2   44.50    7.93
   1  15   2   13.18    5.24
  -1 -15  -2   23.10    3.68
   1 -15  -3    1.58    1.60
   1  15   3    0.97    4.92
  -1 -15  -3    1.27    1.90
   1 -15  -3    2.27    5.21
   1  15   3    4.59    5.64
   1 -15   3    2.70    5.22
   1  15   4  298.28   18.29
   1 -15   4  468.72   18.85
   1 -15  -4  285.99    7.43
   1 -15  -4  188.68   20.91
   1  15   4  469.96   21.41
  -1 -15  -4  299.29    9.28
   1  15   5   -0.27    6.32
   1  15  -5   10.22   11.25
   1 -15  -5   -1.37    7.98
   1  15  -6   47.15   12.73
   1 -15  -6    7.24    9.73
   1  15  -7    0.31    9.98
   1 -15  -7   -1.81    9.54
   1 -15  -8   40.15   16.65
  -1 -17   0   59.34    4.28
   1  17   0   82.51    7.74
  -1 -17  -1   36.86    2.69
   1 -17   1   47.60    6.46
   1  17   1   54.39    7.92
   1  17  -1   70.88    7.86
  -1 -17  -1   31.30    5.44
   1  17   1   27.14    6.31
   1 -17  -2  141.24    7.50
   1  17   2  240.66   14.52
   1 -17   2  220.12   13.06
  -1 -17  -2  152.28    8.60
   1  17   2  130.45   13.07
   1  17   3   38.18   10.45
   1 -17  -3   34.45    3.17
   1  17  -3   73.00    6.77
  -1 -17  -3   38.32    4.12
   1 -17  -3   17.31    7.92
   1  17   3   60.65    9.40
   1 -17   3   48.24    7.34
   1 -17  -4   49.83    3.18
  -1 -17  -4   50.28    4.04
   1 -17   4  103.32   12.18
   1 -17  -4   39.50   12.45
   1  17   4   84.15   11.00
   1 -17  -5   12.88   10.86
   1 -17   5   31.04    8.15
   1 -17  -6   30.18   13.40
   1  17  -6  145.52   11.94
   1 -17  -7   15.69   11.82
  -1 -19   0    6.99    2.56
   1  19   0   11.69    5.87
   1  19  -1    7.47    5.51
   1  19   1    7.78    6.04
  -1 -19  -1    4.50    1.65
  -1 -19  -1    4.21    4.02
   1 -19  -2  157.01    8.06
   1 -19   2  264.09   14.97
   1  19  -2  303.45   12.04
   1  19   2  317.65   18.02
  -1 -19  -2  163.00    8.95
   1 -19  -3    3.80    2.12
  -1 -19  -3    2.60    2.51
   1  19  -3    9.10    3.72
   1 -19   3    2.68    7.20
   1  19   3    7.94    7.20
   1 -19   4    4.97    7.65
   1  19   4    4.40    7.08
  -1 -19  -4    4.16    2.41
   1 -19  -4    2.51    1.61
   1 -19   5    5.17    8.65
  -1 -19   5    1.21    9.49
   1 -19  -5   -0.71    8.43
   1 -19  -6   26.75   12.42
  -1 -21   0   62.07    4.47
   1 -21   0   64.23    3.35
   1  21  -1   35.98    8.37
   1  21   1   33.41    9.26
  -1 -21  -1   13.47    4.33
   1  21   2   31.13    9.99
   1 -21  -2   10.99    3.09
   1  21  -2   35.35    8.24
  -1 -21  -2   10.69    3.46
   1 -21   2   23.46    7.18
  -1 -21   3   24.65    9.19
   1 -21  -3    8.54    2.55
  -1 -21  -3    9.43    3.14
   1 -21   3    9.31    7.25
   1  21   3   10.26    8.32
   1 -21   4   57.39   11.96
  -1 -21   4   64.38   13.17
  -1 -21  -4   29.70    3.60
  -1 -23   0   52.21    3.74
  -1 -23   1    4.72    3.36
   1 -23  -2    1.28    2.86
  -2   0   0  940.71   17.73
  -2   0   1    0.57    1.47
   2   0  -1   -0.05    1.21
   2   0   2 3760.58   70.21
   2   0   3    0.57    2.35
   2   0   4  161.04   10.43
  -2   0  -4  216.95   17.04
   2   0   5   -1.01    2.78
   2   0  -5    0.79    4.85
  -2   0  -6  881.56   42.25
   2   0   6  933.67   32.42
   2   0  -6  920.95   45.94
   2   0   7   -0.21    4.00
   2   0  -7    3.09    9.34
  -2   0  -7    4.13    8.70
   2   0   8  127.08   11.39
  -2   0  -8  182.88   25.40
   2   0  -8  153.70   21.56
   2   0  -9    5.32   11.75
  -2   0  -9   -3.92   15.36
   2   0 -10  101.22   21.73
  -2   0 -10  140.53   29.61
   2  -2   0   35.93    1.67
   2   2   0   59.39    3.43
  -2   2   0   48.43    2.04
  -2  -2   0   64.22    4.53
   2   2   0   35.82    1.63
   2   2   1 5077.53   79.00
   2   2   1 5326.35   81.23
  -2  -2   1 5447.77   90.50
   2  -2  -1 5177.09   76.13
  -2   2   1 4947.58   80.07
   2  -2   2 4738.32   88.73
  -2   2   2 5267.65   78.58
   2   2   3 1881.00   43.51
   2  -2   3 1777.27   39.34
   2  -2   4   55.21    5.86
  -2   2  -4   84.11   10.40
   2   2   4   43.95    5.54
  -2  -2  -4   71.15   10.94
   2  -2  -4   41.65    8.85
   2   2  -5  820.71   36.21
   2  -2   5  851.15   27.44
   2   2   5  779.75   26.41
  -2  -2  -5  893.26   41.67
  -2  -2  -6 1170.35   52.29
   2   2  -6 1496.94   57.10
  -2   2  -6 1615.28   55.10
   2   2   6 1166.89   35.86
   2  -2   6 1207.28   36.17
  -2   2  -7  450.98   31.84
   2  -2   7  318.81   18.39
   2   2  -7  414.14   32.09
  -2  -2  -7  306.20   28.76
   2  -2  -7  264.06   24.99
   2   2   7  303.27   17.57
  -2   2  -8   90.31   18.98
  -2  -2  -8   69.12   18.95
   2   2  -8   62.94   16.41
   2  -2  -8   54.57   14.37
   2   2   8   69.95    9.86
   2   2  -9  101.54   20.63
   2  -2  -9   62.10   15.69
  -2   2  -9  132.98   26.74
  -2  -2  -9  100.68   23.86
   2  -2 -10  140.98   25.93
  -2  -2 -10  221.77   34.07
   2   2 -10  199.82   26.57
   2   4   0  104.85    4.66
  -2   4   0  157.81    6.05
  -2  -4   0  167.43    5.23
  -2  -4   0  167.34    8.84
   2  -4   0  101.38    3.96
   2   4   1 2034.01   34.72
  -2   4   1 1872.00   32.15
   2   4   2 3795.62   66.75
   2   4   2 3384.27   55.39
   2   4   3 1156.41   24.20
   2  -4   3  793.56   21.28
   2   4   3 1098.89   30.65
   2  -4  -3  640.40   30.18
   2   4   4  139.64   10.10
   2  -4  -4  119.03   14.10
   2  -4  -5  251.75   22.75
   2   4   5  284.73   15.22
   2  -4   5  340.65   16.51
   2   4  -5  323.31   20.61
   2  -4   6  982.18   32.57
  -2  -4  -6  854.57   48.05
   2   4   6  871.68   31.16
   2   4   7   88.15    9.79
  -2   4  -7  187.16   21.23
  -2  -4  -7   90.42   18.10
   2   4  -7  168.04   22.56
  -2  -4  -8   48.92   17.80
   2   4  -8   75.88   16.94
   2  -4  -9   14.13   11.40
   2   4  -9   31.78   15.38
  -2  -4  -9   24.84   16.94
  -2   4  -9   38.38   21.00
   2   4 -10  183.79   26.24
  -2  -4 -10  133.62   27.92
  -2   6   0 4179.31   66.02
  -2  -6   0 4659.95   64.52
   2   6   0 3171.05   62.88
   2  -6   0 3319.77   60.45
  -2  -6   0 4711.85   63.79
   2   6   1   71.29    4.54
  -2  -6  -1   74.26    3.83
  -2   6   1   65.34    5.05
   2   6   1   47.90    3.82
   2   6   1   85.45    7.87
   2  -6  -1   57.21    2.17
   2  -6   1   68.79    4.07
  -2  -6   1   92.44    4.95
   2  -6  -1   26.70    4.27
   2   6   2   24.48    4.15
   2   6   2   25.97    2.79
  -2  -6  -2   44.61    3.86
  -2   6   2   35.34    2.31
   2  -6  -2   12.22    4.27
   2  -6   2   17.42    2.26
   2  -6  -3   28.32    6.93
   2  -6   3   41.03    4.28
   2   6   4 2011.43   46.39
   2   6   4 1994.91   40.48
   2  -6   4 2118.50   42.22
   2   6   5    9.16    4.16
   2  -6  -5    4.11    5.98
   2  -6   5   13.98    4.27
   2   6   5   12.29    3.11
   2  -6  -6   11.24    7.49
  -2   6  -6   34.85   10.40
  -2   6   6    8.93    1.20
   2   6  -6   37.40   11.95
   2   6   6   12.49    3.49
   2   6   6   16.65    5.73
   2   6   7   -0.88    2.50
   2   6   7    3.01    5.35
   2   6  -7    2.71   11.67
  -2   6   7    0.29    0.80
   2  -6  -7    3.14    7.59
  -2   6  -7    1.04   10.54
   2   6   8  260.87   11.73
  -2  -6  -8  348.33   37.12
   2   6  -9   -3.47   14.22
   2   6   9   -0.24    2.52
  -2  -6  -9   -1.01   13.13
  -2   6  -9    3.47   15.11
   2   6 -10   24.92   16.96
  -2   6 -10   39.65   21.67
   2  -8   0 5197.69   79.85
  -2  -8   0 7345.23   84.92
  -2  -8   0 6653.94   83.34
   2   8   0 3136.35   77.20
   2  -8   0 6046.78   89.07
  -2   8   0 4383.86   80.79
   2  -8   1   82.83    5.22
  -2  -8   1  113.76    6.49
   2  -8  -1   90.11    2.55
  -2   8   1   81.05    6.58
   2   8   1   56.52    5.13
   2  -8  -1   70.10    7.83
  -2  -8  -1   89.96    4.29
  -2  -8  -1   93.41    6.68
   2   8   2  636.39   23.90
   2   8   2  617.34   22.71
  -2  -8  -2  497.44   14.63
   2   8   2  549.45   15.13
   2   8   3   65.14    4.53
  -2   8   3   52.94    3.17
   2   8   3   67.51    8.17
   2   8   3   72.60    7.52
   2  -8  -4 1683.58   59.28
   2   8   4 2615.55   49.37
   2   8   5   22.83    4.48
   2  -8  -5   22.55    7.79
  -2  -8  -5   23.74    9.56
   2  -8  -6    5.15    7.48
   2   8  -6   26.52   11.98
  -2  -8  -6   11.62    8.48
   2   8   6    9.01    3.33
   2   8   6   15.80    5.80
  -2   8  -6   22.08    7.84
   2   8   7    7.92    3.22
   2  -8  -7    2.91    6.78
  -2   8  -7   20.06   10.53
  -2   8  -8 1144.80   46.01
   2  -8  -8  288.19   30.22
   2   8  -8 1106.28   54.50
   2  -8  -9   -0.89   10.84
   2   8  -9    6.15   15.04
  -2  -8  -9   -0.94   11.46
   2   8   9   -0.11    2.62
   2   8 -10    9.00   18.57
  -2 -10   0 1085.52   32.14
   2 -10   0 1023.33   25.15
  -2 -10   1   22.63    4.00
   2 -10  -1    9.87    3.48
  -2  10   1   14.95    3.97
   2 -10   1   17.55    3.16
   2  10   1   13.37    3.26
  -2 -10  -1   15.82    2.03
   2 -10  -1   17.72    0.99
  -2 -10  -1   16.78    3.89
  -2  10   2  195.79   12.03
   2  10   2  269.89   14.99
  -2 -10   2  252.73   11.03
   2  10   2  146.50    9.23
   2 -10  -2  104.42   10.70
   2 -10   2  202.84    9.36
  -2 -10  -2  199.06    9.11
   2  10   3   14.60    5.52
   2 -10  -3    7.54    4.67
   2  10   3   10.83    2.75
  -2 -10  -3   10.63    2.68
   2 -10  -3   13.21    1.03
   2  10   4  746.95   26.20
   2  10   4  688.99   23.49
  -2  10   4  488.25   11.19
   2  10   4  643.38   16.75
   2 -10  -4  381.97   26.71
   2 -10  -5    7.06    6.29
   2  10   5    9.97    5.11
   2  10   5    9.70    3.08
   2  10   5    9.92    4.48
   2 -10  -6   32.52   10.02
   2  10   6   74.98    7.25
   2 -10  -7   -2.27    7.68
   2  10  -7   -0.63   13.96
  -2 -10  -7   -0.82    9.24
   2  10   7   -0.26    2.78
   2 -10  -8   51.95   15.28
   2  10   8   56.22    5.59
  -2 -10  -8   74.94   18.82
   2  10  -9    0.67   17.03
   2  10 -10   82.52   24.00
  -2 -12   0  115.86   10.33
   2 -12   0   82.25    6.41
   2 -12   1  835.38   21.74
  -2  12   1  687.20   24.78
   2  12   1  528.78   20.92
  -2 -12   1 1144.40   26.02
   2  12   1 1268.40   33.62
   2 -12  -1  522.99   23.18
  -2 -12  -1  779.11   16.51
  -2 -12  -1  785.37   23.62
   2 -12   2  710.38   20.17
  -2 -12   2  955.31   23.72
   2 -12  -2  486.62   26.29
  -2  12   2  757.36   27.60
   2  12   2  548.98   22.11
   2  12   2 1082.77   32.15
  -2 -12  -2  724.07   20.32
  -2 -12   3  838.29   22.83
  -2 -12  -3  566.58   15.76
   2 -12  -3  378.06   25.69
   2 -12   3  667.46   19.77
   2 -12  -3  526.27   10.94
   2  12   3  812.89   28.03
   2  12   4   95.99    6.99
   2  12   4  104.25   10.44
   2  12   5  288.68   16.33
   2  12   5  234.87   10.75
   2  12   6  182.06   11.79
   2  12   6  222.22   10.36
   2  12   7   45.34    6.35
   2 -12  -7   34.57   13.13
   2 -12  -8   12.60   11.11
   2  12   8   15.48    4.03
   2  12  -9   74.63   22.95
  -2 -14   0  111.55   10.75
  -2 -14   0  150.70    7.64
   2  14   1  247.88   15.26
  -2  14   1  338.26   19.00
   2 -14  -1  218.62   15.06
   2  14   1  608.65   23.34
   2 -14   1  488.95   17.69
  -2 -14   1  647.47   21.64
  -2 -14  -1  385.72   10.58
  -2 -14  -1  363.43   15.89
   2 -14   2  313.96   13.55
   2 -14  -2  192.62   17.04
   2  14   2  238.64   15.61
   2  14   2  449.75   20.57
  -2 -14   2  433.95   16.59
  -2 -14  -2  312.71   13.12
  -2  14   2  311.72   19.08
  -2 -14  -3  219.11    9.40
   2 -14  -3  139.93   16.03
   2  14   3  270.88   15.03
  -2  14   3  252.48   17.02
   2  14   3  161.85   12.15
   2 -14  -3  179.48    5.61
  -2 -14   3  434.20   20.04
   2 -14   3  362.51   17.12
   2  14   4  167.42   12.87
   2 -14  -4   69.71   12.69
   2  14   5   76.65    6.25
   2 -14  -5   58.85   13.37
   2  14   6   65.62    6.33
   2 -14  -6   85.60   17.30
   2  14  -7  126.03   23.44
   2 -14  -7   15.74   11.45
   2 -14  -8   10.92   12.01
   2  14  -8  128.10   24.36
  -2 -16   0   60.20    5.17
   2  16   0   79.38    9.42
   2 -16   1   23.85    4.94
   2  16   1   33.94    7.60
  -2 -16   1   33.35    6.51
   2  16   1   12.86    5.06
  -2 -16  -1   20.97    2.67
  -2  16   1   19.05    6.32
   2  16  -1   43.58    9.06
  -2 -16  -1   22.34    5.05
   2  16   2  231.32   16.17
  -2  16   2  286.36   19.55
   2 -16   2  372.55   16.25
   2 -16  -2  155.17   15.28
  -2 -16   2  479.12   19.63
   2  16   2  478.97   21.77
  -2 -16  -2  292.27   12.93
   2  16   3   28.47    7.41
   2 -16   3   37.06    7.64
  -2 -16   3   44.50    8.92
  -2 -16  -3   21.40    3.66
  -2  16   3   26.25    8.61
   2  16   3   12.12    6.26
   2 -16  -3   20.37    2.22
   2 -16  -3   10.00    6.10
   2 -16  -4   13.84    8.75
  -2 -16  -4   23.17    3.36
   2  16   4   28.13    7.51
  -2 -16   4   56.35   10.71
   2 -16   4   47.89    9.29
   2 -16  -5    5.20    7.66
   2 -16   5   22.67    6.79
  -2 -16   5   20.45    7.62
   2 -16  -6   51.48   14.73
   2  16  -6  401.56   30.91
   2 -16  -7    8.21   10.29
   2  16  -7   24.35   16.40
   2  18   0   23.75    7.31
  -2 -18   0   15.22    3.26
  -2 -18   0    9.21    5.02
   2  18   1  124.81   12.45
   2  18  -1  144.49   12.33
  -2 -18  -1   60.87    7.26
  -2 -18  -1   75.55    4.65
   2  18   2  504.88   21.41
  -2 -18   2  717.54   26.54
   2  18  -2  711.50   24.96
   2 -18   2  489.08   20.07
  -2 -18  -2  366.05   15.44
   2 -18   3   81.20   11.16
  -2 -18   3  101.81   13.59
   2 -18  -3   24.25    9.43
   2  18   3   58.14    9.14
  -2 -18  -3   31.73    4.00
   2 -18  -3   30.54    2.69
   2 -18  -4   -1.72    8.29
  -2 -18  -4    3.25    2.35
   2 -18  -4    4.38    1.27
   2  18   4    3.93    5.89
   2 -18   4    2.64    6.77
  -2 -18   4    2.70    8.01
  -2 -18   5   54.83   12.56
   2  18  -5   70.90   16.58
   2 -18   5   46.54   10.72
  -2 -18   6  250.55   18.21
   2 -18   6  176.56   14.98
   2 -18  -7    0.83    9.67
   2  20   0   25.16    7.99
  -2 -20   0   21.82    3.66
   2  20  -1    4.92    7.03
   2  20   1    5.49    6.00
  -2 -20  -1    2.01    2.04
  -2 -20  -1    0.83    4.28
  -2 -20   1    1.43    3.22
   2 -20   2   98.52    9.77
   2  20  -2  149.16   12.81
  -2 -20   2  125.51   12.30
   2  20   2  102.34   11.19
  -2 -20  -2   71.12    7.04
   2 -20  -2   56.78    4.77
   2  20  -3    0.33    6.35
  -2 -20  -3    0.97    2.58
  -2 -20   3    2.90    8.24
   2 -20   3    4.84    6.83
   2  20   3    4.83    6.44
   2 -20  -3    4.24    1.72
  -2 -20  -4   12.07    3.07
  -2 -20   4   24.55   10.04
   2 -20  -4    7.73    7.59
   2 -20   4   25.12    8.39
   2 -20   5   -2.02    8.94
  -2 -20   5   -1.29   10.35
   2 -20  -5   -0.77    9.55
   2 -20  -6   17.00   13.93
  -2 -22   0  105.15    6.03
   2  22   0  159.82   12.99
  -2 -22   1    3.74    3.82
   2  22   1   10.14    7.87
   2 -22  -2    0.52    2.58
   2  22   2    2.51    7.06
   2 -22   3    2.80    6.17
  -2 -22   3    5.68    7.17
  -2 -24   1   12.04    4.45
  -2 -24   2    0.12    4.24
  -3  -1   0 3206.71   55.17
  -3  -1   0 3115.38   56.51
   3   1  -1  214.58    8.28
  -3   1   1  154.18    7.60
  -3  -1   1  148.35    7.95
   3   1   1  161.73    6.42
  -3  -1   1  159.77    8.54
   3  -1  -1  212.32    6.61
  -3   1   2  276.25    9.69
  -3  -1   2  342.32   14.69
   3  -1   3  119.91    9.21
   3   1   3  136.62   10.26
   3   1   4 1441.80   39.10
   3  -1   4 1491.21   38.52
   3   1   5   60.87    6.95
   3  -1   5   75.28    7.98
   3   1   6  112.98   10.36
   3  -1   6  110.78    9.92
   3   1  -6  108.81   15.08
   3   1   7   29.64    6.49
   3   1  -7   25.38   10.65
   3  -1   7   38.12    8.05
   3  -1  -7   37.94   12.12
   3  -1  -8  280.78   27.58
   3   1  -8  300.86   28.22
   3   1   8  290.38   17.85
   3  -1   8  259.85   16.22
   3   1  -9    3.92   11.02
   3  -1  -9    8.11   10.13
   3   1 -10   42.00   16.16
   3  -3   0  723.83   14.48
  -3  -3   0  681.35   19.24
  -3   3   1   38.76    3.18
   3   3   1   44.85    3.71
   3  -3  -1   50.47    2.65
   3   3   1   46.60    4.30
  -3  -3   1   44.10    5.66
   3  -3  -2 2409.37   35.86
   3   3   2 2317.14   40.10
   3   3   2 2419.24   42.97
   3   3   3   57.22    4.90
  -3   3   3   39.71    2.36
   3  -3   3   40.41    5.38
   3   3   3   48.60    6.69
   3  -3   4  224.94   12.95
  -3   3   4  210.60    6.80
   3   3   5   17.95    4.68
   3  -3   5   18.50    4.55
   3  -3  -5   13.84    6.58
   3   3   6  520.70   21.91
   3   3  -6  475.81   26.99
   3   3   7    9.55    5.68
   3  -3   7   12.05    5.43
   3   3  -7   12.52    8.67
   3  -3  -8   50.47   13.42
   3  -3   8   66.44    9.42
   3  -3  -9    5.35    9.61
   3   3  -9   -1.27   11.63
   3   3 -10  125.33   23.51
   3  -5   0  723.42   14.51
  -3  -5   0  742.24   23.37
  -3  -5   1  454.99   20.11
   3   5   1  334.00   10.95
   3  -5   1  429.69   11.51
   3  -5  -1  491.35   10.68
   3   5   1  606.46   15.52
  -3  -5  -1  504.03   13.13
  -3  -5   1  690.85   14.45
   3   5   1  726.31   20.64
  -3   5   1  509.94   14.10
   3   5   2 1538.82   29.46
   3  -5  -2 1504.92   23.13
   3   5   3  452.58   20.56
   3   5   3  408.12   14.83
   3   5   4  322.43   12.99
   3   5   4  359.67   17.79
   3   5   5  126.82    8.74
   3   5   5  106.37    9.92
   3  -5   5  120.08    9.62
   3   5   6  378.85   18.69
   3   5   6  391.56   15.40
   3   5   7   34.51    7.51
   3   5  -7   47.38   12.55
   3   5   7   45.53    5.74
   3  -5  -7   18.45    8.92
   3  -5   7   41.38    7.89
  -3   5   8   26.47    1.70
  -3   5   8   30.90    1.52
   3   5  -9   18.48   14.15
   3   5   9   12.70    3.79
   3   5  10   45.46    6.02
   3   5 -10  114.96   22.71
  -3  -7   0 1861.36   36.70
  -3  -7   1   87.99   10.22
   3   7   1  141.52   11.11
   3  -7   1   81.82    5.14
  -3  -7   1  144.14    7.40
  -3  -7  -1  102.44    5.52
  -3   7   1   90.25    6.40
   3  -7  -1   92.00    3.63
   3   7   1   55.52    4.49
   3   7   2  291.64   11.40
  -3  -7  -2  272.89   11.51
   3   7   2  309.92   15.53
   3   7   3   52.05    4.54
   3  -7  -3   21.73    6.58
  -3   7   3   34.72    3.55
   3  -7   3   39.34    4.55
   3   7   3   59.64    6.70
   3   7   4 1104.13   33.21
   3   7   4  945.03   25.65
   3   7   5   58.60    6.40
   3   7   5   40.05    6.89
   3  -7   5   50.60    6.59
   3   7   6   64.75    6.53
   3   7   6   68.35    8.54
   3  -7   6   79.64    8.38
   3  -7  -7    8.75    7.55
   3   7   7    8.59    3.58
   3   7  -7   13.38   10.84
   3   7   8  137.46    9.20
   3  -7  -8  121.02   19.01
   3  -7  -9   -1.33    7.54
   3   7  -9    6.50   15.68
   3   7   9    1.20    3.00
   3   7 -10   29.62   18.40
  -3  -9   0  614.42   17.70
  -3  -9   1  118.60   11.96
   3  -9  -1  147.73    4.27
   3  -9   1  136.00    7.24
  -3   9   1  118.99    8.04
   3   9   1   70.46    5.56
  -3  -9  -1  159.31   10.38
   3  -9  -1   73.04    8.57
  -3  -9  -1  149.87    6.57
   3  -9   2  409.61   11.77
   3   9   2  915.46   31.45
   3   9   2  405.82   15.38
   3   9   2  705.83   18.94
   3   9   2 1072.39   34.24
  -3  -9  -2  688.39   19.02
  -3   9   2  665.46   21.15
  -3  -9   2  924.77   20.84
   3  -9   2  605.28   16.22
   3  -9  -2  281.46   18.91
   3   9   3  118.25   10.50
   3   9   3  131.48   12.11
   3   9   3  118.19    7.45
   3   9   4  388.18   13.24
  -3   9   4  241.78    9.32
   3  -9  -4  170.82   17.81
   3   9   4  393.26   18.04
   3  -9   4  279.75   11.50
   3   9   5   77.59    6.59
   3   9   5   54.86    6.85
   3   9   6  143.49   11.94
   3   9   6  151.72   10.79
   3  -9  -7   12.62    8.51
   3   9   7   22.26    4.81
   3  -9  -8   27.14   10.62
   3   9   8   62.42    6.64
   3   9   9    2.99    3.43
   3   9  -9    6.55   16.61
   3   9 -10   46.86   20.92
  -3 -11   0   14.18    4.91
  -3 -11   0   21.56    3.71
   3 -11   0   14.07    3.74
   3 -11   1    6.99    2.77
  -3 -11   1    8.80    4.06
   3 -11   1    2.73    1.57
   3 -11  -1    3.49    3.68
   3 -11  -1    4.18    0.96
  -3 -11  -1    4.34    3.28
  -3  11   1    1.89    3.60
   3  11   1    2.57    2.69
  -3 -11  -1    6.45    2.04
   3 -11   2 1132.97   26.79
  -3 -11   2 1776.43   34.02
   3  11   2 1528.85   39.73
  -3  11   2 1252.17   34.92
  -3 -11  -2 1036.94   26.09
   3  11   2  761.34   25.93
   3 -11  -2  593.58   30.65
   3  11   3   15.67    7.06
  -3 -11  -3    6.08    2.64
   3  11   3   10.05    3.44
   3 -11  -3    7.21    0.73
   3 -11  -3    8.59    5.23
   3  11   4   28.42    7.10
   3  11   4   27.35    4.94
   3 -11  -4   11.71    6.35
   3  11   4   26.47    7.31
   3  11   5    1.06    4.08
   3 -11  -5   -0.97    5.35
  -3  11   5    0.73    1.35
   3  11   5    2.23    4.08
   3  11   5    6.44    3.16
   3  11   6  387.16   14.94
   3  11   6  300.68   15.58
   3 -11  -7    2.34    6.23
   3  11   7    1.43    3.75
   3  11  -7   -1.15   13.47
   3  11   7    1.23    3.82
   3 -11  -8    4.63    8.49
   3  11   8    7.57    3.91
   3  11  -9    8.80   17.84
   3  11 -10  122.43   28.03
  -3 -13   0  161.80   12.74
   3 -13   0  148.39    9.54
   3  13   1  113.13   13.19
   3 -13  -1   24.06    5.09
  -3 -13  -1   51.89    4.20
   3 -13   1   55.79    5.67
  -3 -13   1   89.76    7.98
  -3 -13  -1   55.47    6.58
   3 -13  -1   52.51    2.07
   3  13   1   29.37    5.71
  -3  13   1   61.82    8.94
   3 -13   2  256.89   11.44
  -3 -13   2  403.15   15.41
   3  13   2  427.84   20.84
   3  13   2  230.51   14.91
  -3 -13  -2  294.00   13.24
   3 -13  -2  159.03   14.55
  -3  13   2  368.17   21.14
   3 -13  -3   19.68    7.12
  -3 -13  -3   41.57    4.96
   3  13   3   57.36    8.98
  -3  13   3   37.15    7.87
   3  13   3   23.94    5.57
  -3 -13   3   86.94   10.05
   3 -13  -3   33.57    1.96
   3 -13   3   59.72    7.58
   3  13   4  131.08    9.48
   3  13   4  172.77   14.38
   3 -13  -5   12.86    7.26
   3  13   5   30.20    7.82
   3  13   5   29.50    5.15
   3 -13  -6   41.82   12.28
   3  13   6   94.50    8.21
   3 -13  -7    2.34    7.95
   3  13  -7   16.92   16.08
   3  13   7    6.86    4.52
   3 -13  -8   10.81   10.77
   3  13   8   17.57    5.10
   3  13  -9    1.27   18.39
   3 -15   0  268.61   14.17
  -3 -15   0  339.16   18.56
   3  15   1   30.15    8.36
   3 -15  -1    9.57    4.97
   3 -15   1   21.92    4.68
  -3 -15   1   34.73    6.52
  -3 -15  -1   20.89    2.98
   3  15   1   10.25    4.10
  -3 -15  -1   15.13    4.61
  -3 -15   1   10.52    5.84
  -3  15   1   17.85    6.44
  -3  15   2   21.85    7.88
   3  15   2   13.15    5.61
   3  15   2   29.38    8.74
   3 -15  -2    9.34    6.03
  -3 -15  -2   14.97    3.96
   3 -15   2   21.25    5.44
  -3 -15   2   31.23    7.47
   3  15   3    6.06    4.99
   3  15   3   14.16    6.93
   3 -15  -3    2.19    5.16
  -3  15   3   12.58    7.59
  -3 -15  -3    8.11    3.37
   3 -15   3    7.30    4.91
  -3 -15   3   20.74    7.37
   3 -15  -3    7.78    1.40
   3  15   4  307.84   16.91
   3 -15  -4  120.98   17.11
  -3 -15   4  596.33   25.59
   3 -15   4  418.89   19.78
  -3  15   4  311.88   19.71
   3  15   4  180.11   13.76
   3 -15  -5    2.47    6.89
   3 -15  -6    1.41    7.89
   3 -15  -7   -0.79    8.35
   3  15  -7    7.47   16.14
   3  15  -8  203.50   29.96
   3  17   0  148.93   13.69
  -3 -17   0  112.89    7.38
  -3 -17  -1   48.26    6.70
  -3 -17   1   66.28    6.88
  -3 -17  -1   63.36    4.88
   3  17  -1   96.11   11.36
   3  17   1   89.58   11.79
  -3 -17   1   36.10    8.32
   3 -17  -1   26.31    7.34
  -3  17   2   82.64   12.81
   3  17   2   48.61    8.75
   3 -17  -2   44.47    9.14
   3  17   2  134.18   13.57
   3 -17   2  100.64    9.22
  -3 -17   2  160.69   12.66
  -3 -17  -2   75.27    6.95
   3 -17  -3   19.06    9.10
   3 -17   3   52.19    7.92
  -3 -17   3   84.59   11.08
  -3 -17  -3   39.83    4.95
   3  17   3   64.73   10.86
   3 -17  -3   35.05    2.58
   3 -17   4   91.20    9.90
  -3 -17   4  119.99   12.95
   3 -17   5   41.80    9.91
  -3 -17   5   45.06   12.21
   3  17  -6   73.57   16.05
  -3 -17   6   68.75   12.15
   3 -17   6   54.49    9.68
   3 -17  -7    0.91   10.02
   3  19   0   38.42    9.58
  -3 -19   0   24.88    4.24
   3  19  -1    0.74    7.50
   3  19   1    1.82    7.65
  -3 -19  -1    4.52    2.58
  -3 -19   1    3.62    3.97
   3 -19   2  110.80    9.87
  -3 -19   2  180.14   14.05
   3  19  -2  174.16   14.97
   3  19   2  159.58   15.24
  -3 -19  -2   82.30    7.44
   3 -19  -2   37.39    9.64
   3 -19  -3    2.30    6.39
   3 -19   3    8.39    6.02
  -3 -19   3    4.18    8.43
   3  19   3   -0.68    6.17
   3 -19  -3    1.26    1.49
  -3 -19  -3    2.14    3.19
   3 -19  -4    0.64    7.84
  -3 -19  -4   11.48    3.25
   3 -19   4   10.55    6.80
  -3 -19   4   24.58    9.37
   3 -19  -5   -0.70    8.30
   3 -19   5    2.87    6.93
  -3 -19   5   -0.85    9.49
   3 -19  -6   11.60    9.96
   3  21   0  108.86   13.45
  -3 -21   0   73.29    5.80
   3  21  -1   28.88   10.88
   3  21   1   35.28   10.55
  -3 -21   1   21.32    4.81
   3  21  -2    8.33    8.07
   3  21   2   10.43    7.50
  -3 -21   2    7.41    4.86
  -3 -21   3   27.60    9.04
   3 -21   3   18.63    6.56
   3 -21   4   46.19    9.09
   3 -21  -4   25.52   11.47
   3 -21  -5    2.49   10.74
   3 -21  -6   -3.58   11.83
  -3 -23   0   42.82    4.69
  -3 -23   1    2.68    3.96
  -3 -23   2    2.87    4.97
  -4   0   0 8618.30  137.57
   4   0   0 9064.29  134.58
  -4   0   1    2.03    2.07
   4   0  -1    0.67    1.58
  -4   0   2  417.94   14.32
  -4   0   2  323.49   15.48
  -4   0   3    1.66    2.38
   4   0   3   -0.22    3.53
   4   0   4 2950.81   62.87
  -4   0   4 2571.00   53.66
   4   0   5    1.63    4.22
  -4   0   5    0.96    2.46
   4   0   6   21.75    5.81
   4   0  -7   -0.46    5.99
   4   0   7    2.85    4.30
   4   0  -8  455.12   31.93
   4   0  -9    2.61    9.72
   4  -2   0 3465.22   53.83
  -4  -2   0 3134.04   56.30
   4   2   0 3161.61   54.61
   4  -2   0 3390.88   52.95
   4   2   1   63.65    4.76
  -4   2   1   52.07    4.50
  -4  -2   1   55.78    5.53
  -4  -2   1   52.25    5.49
   4  -2  -1   67.00    3.85
   4  -2  -2   91.90    4.57
  -4   2   2   64.20    6.32
   4   2   2   99.89    6.96
   4   2   2   85.24    5.56
  -4  -2   2   77.50    7.97
  -4   2   3   42.84    3.70
   4  -2   3   42.65    6.32
   4   2   3   40.66    6.66
  -4  -2   3   46.28    6.82
  -4  -2   4  999.15   32.28
   4   2   4 1300.47   37.51
  -4   2   4 1095.75   23.70
   4  -2   4 1311.34   36.02
   4  -2   5    8.39    4.49
  -4   2   5    6.50    2.05
   4   2   6   52.98    7.41
   4  -2   6   53.58    7.35
   4  -2   7   -0.25    4.89
   4   2  -7    0.46    6.83
  -4   2   7    2.58    1.74
   4   2   7   -0.94    4.80
   4  -2  -8  209.22   23.61
   4  -2   8  218.62   15.70
   4   2  -8  238.39   23.74
   4  -2  -9   -0.61    9.14
   4   2  -9    5.67   10.77
   4  -4   0  190.51    6.69
  -4  -4   0  163.54   10.28
  -4  -4   1 2436.23   31.26
   4  -4   1 1265.67   25.49
   4   4   1 1729.51   31.72
   4  -4  -1 1609.22   25.67
  -4   4   1 1346.91   28.94
  -4  -4   1 1355.23   33.82
  -4   4   1 1638.72   28.82
   4   4   1  940.30   24.43
  -4  -4   1 1505.69   39.81
   4   4   1 1975.35   36.97
  -4  -4  -1 1397.45   32.42
  -4   4   2 1528.29   36.85
   4   4   2 1898.42   36.04
   4   4   2 2148.54   40.95
   4  -4  -2 1870.78   30.22
  -4  -4   2 1754.81   48.89
  -4  -4   3  729.40   30.94
   4   4   3  965.00   21.99
   4   4   3 1024.42   34.00
   4  -4   3  728.89   25.68
   4   4   3 1043.00   25.77
  -4   4   3  502.17   20.00
   4   4   4  152.82   12.86
   4  -4   4  129.45   10.90
   4   4   4  172.01   10.67
   4   4   5  411.15   16.32
   4   4   5  368.43   19.89
   4   4   6  490.52   17.82
  -4   4   6  255.52    5.74
   4   4   6  405.16   18.80
   4  -4   6  466.64   19.72
   4  -4  -6  259.39   20.77
   4   4   7   86.63    7.68
  -4   4   7   37.48    1.64
   4   4   7   93.34   10.20
   4  -4   7  122.69   11.95
   4  -4  -7   51.22   11.47
   4   4  -7   98.72   13.63
   4  -4   8   30.68    7.04
   4   4   8   41.61    5.96
   4   4  -8   38.42   11.44
   4   4   9   20.82    5.11
   4   4  -9   32.58   15.01
   4   4  10   59.02    7.07
   4  -6   0  132.35    5.23
  -4  -6   0  140.95    8.31
  -4  -6   0  126.77   10.02
   4   6   1 1931.93   39.29
  -4  -6  -1 1331.89   27.00
   4   6   1 1414.00   28.28
  -4   6   1 1662.30   31.88
   4  -6  -1 1235.93   21.90
   4  -6   1  818.10   20.72
   4   6   1  844.85   23.25
  -4  -6   1 1597.31   25.69
  -4  -6   1 1225.51   37.27
  -4  -6   2 1416.96   46.51
   4  -6  -2 1644.26   26.88
   4   6   2 2012.90   36.94
  -4   6   2 1522.86   33.12
   4   6   2 1986.29   41.23
   4   6   3 1187.06   39.20
   4   6   3  926.63   22.01
  -4   6   3  582.34   20.25
   4   6   3  943.08   26.11
   4  -6   3  678.49   24.37
   4   6   4  133.69    8.18
   4   6   4  144.51    9.64
   4   6   4  128.35   12.34
   4   6   5  340.07   15.49
   4   6   5  383.07   20.80
   4   6   6  343.92   15.75
   4  -6   6  367.56   18.02
   4   6   7   94.45    8.41
   4  -6   7   98.98   10.23
   4   6  -7   83.01   12.25
   4   6  -8   50.82   12.70
   4   6   8   43.08    6.29
   4  -6  -8   23.97   10.00
   4  -6   8   47.86    8.18
   4  -6  -9   17.23   10.57
   4   6  -9   39.00   16.61
   4   6   9   27.13    5.27
   4   6  10   33.32    5.72
   4  -8   0  104.54    4.69
  -4  -8   0   91.23    9.44
   4  -8  -1   23.97    2.28
  -4  -8  -1   27.66    3.71
  -4   8   1   26.62    4.86
   4   8   1   12.12    2.85
   4  -8   1   18.69    3.01
  -4  -8   1   38.07    4.75
  -4  -8   1   35.57    7.53
   4   8   2 1547.33   38.67
  -4   8   2 1371.96   32.05
  -4  -8   2  927.15   39.11
   4   8   2  668.29   22.25
   4   8   2 1355.67   29.71
  -4  -8  -2 1211.63   29.47
  -4  -8   2 1787.34   30.62
   4  -8   2 1007.19   23.47
   4  -8   3   14.49    3.45
  -4   8   3   17.42    2.78
   4   8   3   25.19    5.95
   4   8   3   29.13    4.59
   4  -8  -3    5.90    3.49
   4   8   4   94.47    7.11
  -4   8   4   55.39    5.49
   4  -8   4   57.38    5.58
   4   8   4   98.38    9.25
   4  -8  -4   32.76    7.70
   4   8   5   12.92    6.32
  -4   8   5    5.42    3.14
   4   8   5   13.04    4.56
   4  -8   5   13.59    4.40
   4  -8  -5    5.75    5.60
   4   8   5   15.87    4.34
   4   8   6  289.71   14.92
   4   8   6  286.56   16.48
   4  -8   6  262.29   14.22
   4  -8   7    8.08    4.54
   4  -8  -7    0.55    6.60
   4   8   7    6.53    4.18
   4  -8  -8   18.24    9.27
   4   8   8   41.01    6.15
   4   8  -9    2.93   16.02
   4   8   9    0.63    3.54
   4 -10   0   10.36    1.77
  -4 -10   0   14.77    3.46
  -4  10   1  526.94   18.85
  -4 -10  -1  589.64   16.44
   4 -10  -1  548.03   11.23
  -4 -10   1  534.36   19.03
   4 -10   1  519.34   15.43
  -4 -10  -1  553.86   21.04
   4 -10   2 1263.93   27.92
  -4 -10   2 2283.04   37.01
  -4 -10   2 1084.87   44.19
  -4 -10  -2 1495.98   33.66
   4  10   2 2043.92   48.53
  -4  10   2 1857.92   41.83
   4 -10  -2  561.53   31.51
   4  10   2  988.44   29.54
   4  10   3  497.59   23.71
   4  10   3  503.44   23.39
   4 -10   3  240.64    9.74
   4  10   3  484.05   17.37
   4 -10  -3  125.07   13.56
  -4  10   4    3.09    1.57
   4 -10  -4   -0.44    5.20
   4 -10   4    4.35    2.88
   4  10   4    5.88    5.30
   4  10   4    8.19    3.82
  -4  10   5   90.47    6.42
   4  10   5  183.86   10.56
   4 -10  -5   58.71   11.71
   4 -10   5  129.12    9.27
   4  10   5  144.90   11.89
  -4  10   6  200.66   11.04
   4 -10  -6  142.44   17.45
   4  10   6  340.02   16.71
   4  10   6  454.12   17.14
   4 -10  -7   31.65   10.16
   4  10   7   45.62    6.60
   4 -10  -8    0.66    7.94
   4  10   8    7.87    4.14
   4  10  -8   17.54   13.16
   4  10  -9   39.33   20.15
   4  10   9    9.11    4.26
  -4 -12   0   74.93    6.39
   4 -12   0   68.13    3.55
  -4 -12  -1  113.49    6.79
   4 -12  -1  110.14    3.96
  -4 -12   1  112.06    8.74
  -4 -12  -1   95.98    8.91
   4 -12  -1   54.68    8.09
   4 -12   1   65.14    5.91
   4 -12   1   90.89    6.09
  -4 -12   1  162.80    9.41
   4  12   1   60.42    6.74
  -4  12   1  112.28   10.94
  -4 -12   2  303.51   22.33
  -4 -12   2  773.51   21.51
  -4  12   2  537.94   22.86
   4  12   2  321.11   16.02
   4  12   2  887.86   34.91
  -4 -12  -2  492.48   18.28
   4 -12   2  430.30   14.87
   4 -12  -2  248.88   19.79
   4 -12  -3   50.94    1.77
   4 -12  -3   20.63    7.15
  -4 -12  -3   67.57    6.31
   4  12   3   89.67   11.47
  -4  12   3   74.31    9.38
   4  12   3   43.68    5.91
   4 -12   3   88.90    8.28
   4  12   4   67.47   10.58
   4  12   4   77.24    7.57
   4  12   4   85.88   11.88
   4 -12  -5    8.48    6.93
   4  12   5   31.06    5.89
   4  12   5   28.27    7.74
   4  12   6  161.35   12.73
  -4  12   6   88.96    4.69
   4  12   6  174.28   11.18
   4 -12  -6   55.22   12.31
   4 -12  -7   -1.28    6.94
   4  12   7    7.40    4.27
   4  12   7    2.42    4.36
   4 -12  -8    1.84    6.96
   4  12   8   12.80    5.20
   4  12  -9   -0.74   19.40
  -4 -14   0  847.84   22.23
   4 -14   0  662.22   13.06
   4 -14   0  365.70   17.53
  -4 -14   0  513.87   24.18
   4 -14   1    6.27    2.20
   4 -14   1   15.43    3.63
  -4 -14   1   28.50    5.90
   4 -14  -1    7.19    4.12
  -4 -14  -1   16.96    3.55
  -4 -14  -1   20.45    5.50
  -4 -14   1   22.90    5.25
   4  14   1    7.68    3.37
   4  14   1   25.17    8.08
  -4  14   1    7.73    5.03
   4  14   2    5.39    6.61
   4 -14  -2    4.11    4.30
  -4 -14  -2    5.03    3.78
  -4 -14   2    2.30    5.06
   4 -14   2    2.45    3.35
  -4 -14   2    8.46    5.49
  -4  14   2    2.64    7.11
   4  14   2    1.72    3.90
   4  14   3   10.23    4.75
   4 -14  -3   10.18    1.26
   4  14   3   18.24    8.62
  -4 -14  -3   13.27    4.04
   4 -14  -3    6.87    5.25
   4 -14   3   14.40    5.14
  -4 -14   3   24.34    7.89
  -4  14   3   20.05    8.20
   4  14   4  570.55   27.31
   4 -14  -4  151.24   17.95
   4 -14   4  647.74   24.21
  -4  14   4  530.89   25.25
   4  14   4  285.32   17.26
   4 -14  -5    0.54    5.90
   4  14   5    1.16    4.04
   4 -14  -6    1.62    5.78
   4  14   6    0.18    4.13
   4 -14  -7    4.02    7.70
   4  14  -8  178.87   25.59
   4 -16   0  559.59   11.11
  -4 -16   0  709.69   20.01
   4 -16   0  269.87   14.23
  -4 -16   0  426.49   21.57
   4 -16  -1   20.67    6.30
  -4 -16  -1   33.25    4.61
  -4 -16   1   38.46    6.25
  -4 -16   1   21.07    6.59
  -4 -16  -1   26.05    6.28
   4  16   2   17.24    8.47
   4 -16  -2    2.61    5.18
  -4 -16  -2   10.85    3.99
  -4  16   2   11.02    8.90
   4  16   2    4.16    5.14
   4 -16   2   10.64    5.12
  -4 -16   2   13.50    7.79
   4 -16  -3   16.59    1.67
   4  16   3   34.86    9.92
   4 -16  -3   12.03    7.01
  -4  16   3   26.00    8.86
   4  16   3   13.78    5.43
  -4 -16   3   43.25   10.28
   4 -16   3   27.62    6.12
  -4 -16  -3   23.19    4.96
   4 -16   4  314.61   15.24
  -4 -16   4  503.38   21.43
   4 -16  -5    1.90    7.18
  -4 -16   5   30.48   12.00
   4 -16   5   20.63    8.29
   4 -16  -6   -2.77    8.38
  -4 -16   6    5.80    8.80
   4 -16   6    0.22    6.17
   4 -16  -7   -1.54    8.93
   4  16  -7    5.48   12.77
  -4 -18   0   90.61    7.14
   4 -18   0   65.63    3.04
   4 -18  -1    1.06    4.19
   4  18   1   -2.24    9.26
  -4 -18  -1    4.29    2.98
  -4 -18   1    6.33    4.61
   4 -18   2   45.41    6.86
  -4 -18   2   78.55   10.68
  -4 -18   2   55.30    7.95
   4  18   2   73.55   13.27
   4 -18  -3    0.98    6.54
   4 -18   3    0.90    4.97
  -4 -18   3   10.96    8.84
   4 -18  -3    3.40    1.31
   4 -18  -4   14.26    8.93
   4 -18   4   45.15    7.66
   4 -18  -5    8.85    8.35
   4 -18   5    0.41    5.66
  -4 -18   5    3.07    9.33
   4 -18  -6    7.61   10.17
   4 -18   6   36.71   10.95
   4 -20   0   20.23    1.77
  -4 -20   0   25.92    4.61
  -4 -20   1   83.16    8.28
   4  20  -1  120.79   16.19
   4  20   1   93.94   15.29
  -4 -20   2   52.68    7.99
   4  20  -2   68.21   13.43
   4 -20  -3   18.50    9.39
   4 -20   3   51.01    7.94
   4 -20  -4    7.27    7.62
   4 -20   4   19.69    7.24
   4 -20  -5    9.20    9.53
   4 -20  -6    5.91    9.55
   4  22   0   30.53   11.89
  -4 -22   0   21.38    4.52
  -4 -22   1   10.23    4.77
  -4 -22   2   15.74    6.43
  -4 -22   3   12.54    7.14
  -4 -24   1    0.74    4.41
  -4 -24   2   27.76    7.18
  -4 -24   3   -0.22    7.11
  -5  -1   0  945.26   25.21
   5  -1   0  935.20   21.92
   5  -1   0  992.18   22.06
  -5   1   1  101.43    7.26
   5  -1   1  141.67    7.48
  -5  -1   1  102.79    7.90
  -5  -1   1  106.25    7.61
   5  -1  -1  128.15    6.22
   5   1  -1  141.87    7.46
   5  -1  -2  578.16   14.14
  -5   1   2  403.43   18.36
   5   1   2  579.77   15.95
  -5  -1   2  373.82   18.44
  -5  -1   2  458.83   17.79
  -5   1   3   88.80    6.41
  -5  -1   3  101.32    8.21
   5   1   4  477.54   23.90
   5  -1   4  441.34   21.89
  -5   1   4  332.34   12.23
  -5  -1   4  352.73   15.53
   5   1   5   47.83    9.01
   5  -1   5   44.44    8.24
  -5   1   5   31.27    3.58
  -5  -1   5   22.79    4.33
  -5  -1   6   66.19    6.17
   5   1   6  156.90   14.01
   5  -1   6  127.50   11.67
  -5   1   6   67.19    4.99
   5   1   7   14.03    6.17
   5  -1   7    9.04    5.39
   5   1  -7    7.47    5.13
  -5   1   7    4.41    1.80
  -5  -1   7    5.22    2.50
   5  -1  -8   79.73   13.71
   5   1  -8   88.23   13.68
   5   1  -9    7.08    9.90
   5  -1  -9    2.42    9.27
  -5  -3   0  143.22    8.53
  -5  -3   0  130.11    9.45
   5  -3   0  166.69    7.39
   5  -3   0  173.89    7.21
   5   3   0  193.12    9.98
   5   3  -1  248.99   11.04
  -5   3   1  251.27    7.30
   5   3   1   86.50    3.88
   5  -3   1  177.01    7.38
  -5  -3   1  173.00   10.61
   5   3   1  216.30    9.65
  -5  -3   1  250.36    6.39
  -5   3   1  169.82    9.11
  -5  -3   1  157.31   11.09
   5  -3   1  109.83    4.23
   5  -3  -1  187.38    6.51
  -5  -3   2 1007.98   35.10
   5   3   2 1640.64   31.68
  -5   3   2 1061.92   31.44
   5   3   2 1693.17   34.55
  -5  -3   2 1268.63   37.61
   5  -3  -2 1589.03   26.57
   5   3   3  121.42    7.99
  -5   3   3   61.76    7.38
   5   3   3  115.17    8.39
  -5  -3   3   74.01    8.17
   5   3   4  105.18    8.89
   5   3   4  107.08   11.82
   5  -3   4   66.20    8.63
  -5  -3   4   56.60    7.89
   5   3   5   46.91    6.48
  -5  -3   5   20.08    4.81
   5   3   5   40.68    9.10
   5  -3   5   45.04    7.70
  -5  -3   6  155.18   11.03
   5   3   6  419.92   17.01
  -5   3   6  181.32    6.11
   5   3   6  408.20   21.64
   5  -3   6  314.63   16.13
   5  -3  -6  152.28   13.55
   5  -3   7   11.79    5.56
   5   3   7   11.67    4.06
  -5   3   7    4.17    1.09
  -5  -3   7    1.68    2.45
   5  -3   8   39.46    8.80
   5   3  -8   26.49   10.41
   5   3   8   33.83    6.02
   5   3   9    0.19    4.63
   5   3  -9   -2.20    9.71
   5  -5   0  347.55   10.48
  -5  -5   0  282.49   15.31
  -5   5   1   21.35    2.87
   5   5   1    9.15    1.54
   5  -5   1   47.26    4.02
  -5  -5   1   22.29    5.52
   5   5   1   28.18    4.31
   5  -5  -1   25.53    2.53
   5  -5   1   20.90    2.36
  -5  -5   1   40.87    3.88
   5   5   2  968.40   23.49
  -5  -5   2  504.55   23.39
   5   5   2 1128.94   29.64
   5  -5  -2  829.30   15.80
  -5  -5   2  668.95   28.46
  -5   5   2  626.96   20.68
   5   5   3   19.28    3.79
  -5   5   3    9.18    3.16
  -5  -5   3   15.40    6.05
  -5  -5   4  110.92   11.66
  -5   5   4  102.91    9.57
   5   5   4  239.32   11.59
   5   5   4  194.89   15.50
   5  -5   4  138.93   11.89
   5   5   4  238.12   13.18
   5   5   5   12.50    6.66
   5  -5   5    9.16    4.68
   5   5   5   12.91    4.79
  -5  -5   5    2.74    3.61
   5   5   6  255.76   13.94
   5   5   6  262.03   18.08
   5  -5   6  217.87   14.22
   5  -5   7    3.79    5.37
   5   5   7    7.62    4.41
   5  -5  -7    0.48    5.80
   5  -5  -8   26.94   11.00
   5   5  -8   44.06   11.02
   5  -5   8   50.17    9.18
   5   5   8   48.22    7.02
   5   5  -9   -1.68   10.08
   5   5   9    3.14    4.29
  -5  -7   0 1196.57   29.47
   5  -7   0 1283.37   24.12
  -5  -7   1   10.70    3.08
  -5  -7  -1   11.55    4.46
  -5  -7   1    5.80    4.87
  -5  -7  -1    6.54    2.61
   5  -7   1    4.14    1.82
   5   7   1    1.58    1.76
  -5   7   1    7.00    3.57
   5  -7  -1    4.68    1.72
   5   7   1   11.03    5.36
   5  -7   1    5.01    1.94
   5   7   2   75.77    6.89
   5  -7  -2   86.41    3.52
  -5   7   2   82.28    7.15
   5   7   2   33.57    3.67
  -5  -7   2   65.79    9.95
  -5  -7   2  131.69    8.57
   5   7   2   96.49    9.69
   5  -7   2   65.97    5.22
   5   7   3    2.14    4.03
  -5   7   3    0.58    1.82
   5   7   3    3.54    3.18
  -5  -7   3   -0.34    4.63
   5  -7   3    0.40    3.53
   5   7   3   -0.29    5.25
  -5  -7   4  364.72   23.79
   5   7   4  803.20   21.73
  -5   7   4  360.60   16.71
   5   7   4  820.53   33.19
   5  -7   4  532.42   22.42
   5   7   4  771.44   25.60
   5   7   5    0.65    6.59
   5  -7   5   -0.33    3.46
   5  -7  -5    0.35    3.63
   5   7   5    1.00    3.82
  -5   7   5   -0.19    2.96
   5   7   5    2.03    4.12
   5   7   6   45.22    6.58
   5  -7   6   28.40    5.96
   5   7   6   39.57    6.56
   5   7   7    2.21    3.92
   5  -7  -7    1.15    6.53
   5  -7   7    0.95    4.74
   5   7   8   99.63    9.20
   5   7  -8  122.68   16.01
   5   7   9    0.87    3.98
   5   7  -9   -1.11   11.63
  -5  -9   0  558.59   24.71
   5  -9   0  608.79   13.94
  -5  -9  -1  118.84    7.78
  -5  -9   1  110.28    9.34
   5  -9  -1   99.68    4.53
  -5  -9   1   99.32   11.43
   5   9   1   63.73    5.84
  -5   9   1  147.57   10.11
   5  -9   1   75.60    4.89
   5   9   2  167.71   14.31
   5  -9   2  108.68    7.12
  -5  -9   2  221.86   11.78
   5  -9  -2  106.57    3.87
  -5  -9   2   79.03    9.14
  -5   9   2  145.26   11.23
  -5  -9  -2  124.34    9.48
   5   9   2   56.54    5.59
   5   9   2  129.19    9.20
  -5  -9   2   78.06   11.91
   5  -9  -3   77.24    2.37
  -5  -9   3   49.14    9.85
   5   9   3  108.38    8.61
   5  -9   3   76.06    8.37
   5   9   3  120.44   11.75
  -5  -9   4  182.68   16.83
   5   9   4  474.56   17.39
  -5   9   4  222.17   10.27
   5  -9   4  277.45   13.90
   5   9   4  420.05   20.29
   5  -9  -4  120.88   13.77
  -5   9   5   27.10    4.54
   5   9   5   64.55    7.14
   5  -9  -5   15.73    6.53
   5   9   5   67.46   11.13
   5  -9   5   35.44    5.59
   5   9   5   47.18    7.54
   5   9   6   66.85    7.53
   5  -9  -6   26.95   10.03
  -5   9   6   27.31    4.80
   5   9   6   56.48    8.26
   5  -9   6   49.58    7.73
   5  -9  -7    3.92    6.69
   5   9   7   17.35    6.16
  -5   9   7    8.56    3.56
   5  -9  -8   29.65   10.32
   5   9   8   56.55    7.96
   5   9  -8   67.60   13.69
   5   9  -9   -1.65   11.66
   5   9   9    1.40    4.72
   5 -11   0  136.53    5.62
  -5 -11   0  149.46    9.57
   5  11   1   -0.69    2.10
  -5  11   1    0.59    3.95
  -5 -11   1    0.12    3.52
  -5 -11  -1    0.83    2.56
  -5 -11   1    1.85    3.99
  -5 -11   1    2.95    3.59
   5 -11  -1    2.03    1.39
   5 -11   1    1.49    2.13
  -5  11   2  286.33   14.25
   5 -11   2  357.70   14.29
  -5 -11   2  300.73   17.20
  -5 -11  -2  332.81   16.27
   5  11   2  128.52    8.20
   5 -11  -2   92.79   10.25
  -5 -11   2  205.90   17.98
   5  11   3    3.09    7.16
  -5  11   3    2.04    5.87
   5 -11   3    2.07    2.96
   5  11   3   -1.81    3.22
   5 -11  -3    0.68    3.81
   5 -11  -3    0.53    0.49
   5  11   3    1.60    3.95
  -5 -11   3    0.20    6.19
   5 -11   3   -1.74    3.82
  -5 -11   3   -1.29    5.75
   5  11   3    0.93    5.98
   5  11   4   91.39   11.49
   5 -11  -4   26.60    8.03
   5  11   4   97.22    9.16
   5  11   4  103.89   13.76
  -5 -11   4   31.28    8.76
   5 -11   4   48.06    5.04
   5 -11  -5    3.03    5.95
   5 -11   5   -0.72    3.19
   5  11   5    0.88    4.33
   5  11   5    1.08    5.12
   5  11   6  143.18   10.79
  -5  11   6   60.21    5.20
   5 -11  -6   58.73   12.43
   5  11   6  125.48   12.10
   5 -11  -7    0.56    6.74
   5  11   7    0.68    5.06
   5  11  -8   16.01   11.17
   5  11   8   16.38    5.98
   5  11  -9    1.17   14.29
   5  11   9    1.28    4.39
  -5 -13   0  248.43   12.22
   5 -13   0  205.96    6.50
  -5 -13  -1  121.55    7.97
  -5 -13   1  132.37   10.21
  -5 -13  -1   92.46    9.55
   5 -13  -1   43.98    7.11
  -5 -13   1   70.99   10.62
   5 -13   1   48.23    6.15
  -5 -13   2   62.87   11.03
  -5  13   2   83.97    9.68
   5  13   2   40.19    5.34
   5 -13  -2   30.29    7.54
   5 -13   2   57.45    4.90
  -5 -13  -2   87.60    8.25
   5  13   2  160.66   16.56
   5 -13   2   95.94    7.45
  -5 -13   2  204.55   13.45
  -5 -13   2  117.60   11.34
   5 -13   2   40.98    4.32
   5 -13   3   84.41    8.15
  -5 -13   3  153.46   12.50
   5  13   3   45.78    7.11
   5 -13  -3   23.98    8.12
   5 -13  -3   56.15    1.78
   5  13   3   97.26   13.93
  -5 -13   3   38.21    9.60
  -5  13   3   96.08   13.07
   5 -13  -4   40.64   10.21
  -5  13   4  176.78   15.07
   5 -13   4  180.03   12.19
   5  13   4   66.22    7.69
   5 -13  -5   12.29    6.81
   5  13   5   34.26    6.77
   5  13   5   32.96    9.37
   5  13   6   45.15    9.16
   5  13   6   46.54    7.69
   5 -13  -7    1.80    7.27
   5  13   7   10.28    6.73
   5  13  -8   47.94   15.45
   5  13   8   20.63    6.58
   5  13  -9   13.71   17.36
   5 -15   0  207.78    6.54
  -5 -15   0  170.73   14.97
   5 -15   1    3.07    2.18
   5 -15  -1    3.88    3.87
  -5 -15  -1    7.58    4.95
  -5 -15   1    9.38    4.71
  -5 -15  -1    5.74    3.25
   5  15   1   13.90    9.42
   5  15   2   38.77   10.91
   5 -15  -2    7.38    4.90
   5  15   2    9.05    5.31
  -5  15   2   25.39   10.30
  -5 -15   2   26.55    6.50
  -5 -15  -2   24.87    5.70
   5 -15   2   25.63    4.73
  -5 -15   2   45.32    7.87
  -5  15   3    5.33    8.11
   5  15   3   -0.84    3.73
   5 -15  -3   -2.43    5.76
   5 -15   3    8.00    5.74
  -5 -15   3   14.07    9.32
   5 -15   4  150.38   11.09
  -5 -15   4  268.87   16.89
  -5  15   4  195.57   18.31
   5  15   4   72.97    9.54
   5 -15  -4   48.11   10.72
   5 -15  -5   -0.53    6.07
  -5 -15   5   11.78   10.40
   5 -15   5    7.86    6.81
   5 -15  -6    4.14    6.61
   5 -15   6   17.07    6.99
   5 -15  -7   -1.71    6.90
   5  15  -8   64.01   19.11
   5 -17   0   10.68    4.34
   5 -17   0   17.23    2.27
  -5 -17   0   20.27    4.43
   5 -17  -1    7.16    5.46
  -5 -17  -1    6.10    3.30
  -5 -17   1    6.74    5.31
   5  17   1    8.31   11.03
   5 -17  -2   37.56    7.98
   5 -17   2   96.12    8.00
  -5 -17   2  195.64   13.80
  -5 -17   2  145.60   12.18
   5  17   2   44.52    6.85
  -5  17   2   86.83   11.59
   5 -17  -3    1.90    4.88
   5 -17   3    8.58    5.60
  -5 -17   3    8.45    8.91
   5 -17  -3    3.76    1.19
   5 -17  -4    7.48    5.93
   5 -17   4   21.28    6.40
   5 -17  -5    2.14    6.84
   5 -17   5    1.87    6.26
  -5 -17   5    8.79   10.32
   5 -17  -6   16.76   10.89
   5 -17   6   53.83   11.31
  -5 -19   0    0.13    3.59
   5 -19   0    1.53    1.51
   5  19   0   -6.83   12.41
   5 -19   1    3.63    2.15
  -5 -19   1    2.50    4.84
  -5 -19   2  164.92   13.38
   5 -19  -2   60.03   11.61
   5 -19  -3    0.95    6.80
   5 -19   3    4.63    4.81
  -5 -19   3    1.40    7.35
  -5 -19   3    5.40    8.35
  -5 -19   4    0.55    9.88
   5 -19  -4   -2.85    7.76
   5 -19   4    2.14    5.66
   5 -19  -5   -0.66    8.15
   5 -19   5    2.63    6.81
  -5 -19   5    2.63   11.62
   5 -19  -6   11.29   10.32
  -5 -21   0   24.42    4.99
  -5 -21   1    3.46    5.00
  -5 -21   2   17.07    6.91
   5 -21   3    6.52    5.37
  -5 -21   3    0.52    7.50
  -5 -23   0   26.51    5.60
  -5 -23   1    7.42    4.92
  -5 -23   2    5.56    6.56
   6   0   0  114.98    6.79
   6   0   0  119.36    7.04
   6   0   1    0.76    2.58
  -6   0   1    0.80    2.18
   6   0  -1   -0.36    2.28
  -6   0   2  773.51   27.51
  -6   0   3    0.77    2.07
  -6   0   3   -0.26    3.40
  -6   0   4   49.28    8.43
  -6   0   4   30.73    4.28
   6   0   5   -0.30    5.40
  -6   0   5    1.00    1.84
  -6   0   6  112.33    6.90
   6   0   6  270.77   18.67
  -6   0   7   -0.78    1.71
   6   0  -8   23.31    9.18
   6  -2   0   14.65    3.07
  -6  -2   0    9.70    3.23
   6   2   0   15.16    3.54
   6  -2   0   21.29    3.18
   6   2  -1  864.37   22.21
  -6   2   1  606.09   22.03
  -6  -2   1  587.66   22.69
   6  -2   1  814.15   20.37
   6   2   1  816.57   21.54
   6  -2   1  854.32   21.18
   6   2   1  855.80   22.81
   6  -2  -1  859.87   19.58
   6  -2  -2 1347.83   25.55
   6  -2   2 1467.41   29.28
  -6   2   2  871.11   29.94
   6   2   2 1548.46   31.32
  -6  -2   2  919.97   34.20
  -6  -2   2 1078.89   33.50
   6   2   3  511.19   16.19
  -6   2   3  281.65   17.29
  -6  -2   3  263.74   17.93
   6   2   3  559.75   18.98
  -6  -2   3  289.43   15.33
   6   2   4   33.63    5.20
  -6   2   4   15.86    5.17
   6   2   4   35.36    6.23
  -6  -2   4   20.76    4.45
   6   2   4   30.87    9.36
   6  -2   4   31.68    8.80
   6   2   5  202.22   16.45
   6  -2   5  199.60   15.97
   6   2   6  429.50   18.80
  -6   2   6  147.69    6.39
   6   2   6  363.24   21.64
   6  -2   6  352.86   20.40
  -6  -2   6  135.41    8.70
   6   2   7   82.20    8.93
   6  -2   7   61.97    9.56
   6   2  -8   13.85    7.59
   6   2   8   34.70    7.10
  -6  -4   0  143.74   10.22
   6  -4   0  151.95    7.34
   6  -4   0  157.20    7.21
   6  -4   1  385.81   12.06
  -6  -4   1  338.22   16.55
  -6  -4   1  317.59   17.72
   6  -4  -1  362.21   10.43
   6  -4   2  863.45   20.27
  -6   4   2  573.91   21.64
  -6  -4   2  505.33   23.71
   6   4   2  973.75   23.96
  -6  -4   2  564.72   24.20
  -6   4   2 1025.71   19.73
   6  -4   2  642.93   15.09
   6  -4  -2  772.06   15.75
   6   4   2  386.07   12.90
   6   4   3  296.27   12.40
  -6   4   3  146.64   11.07
  -6  -4   3  129.47   12.31
   6   4   3  311.88   14.63
  -6  -4   3  178.51   13.11
  -6   4   4   42.14    6.79
   6   4   4  106.96    8.21
   6   4   4  122.79   15.28
   6  -4   4   72.11   10.93
   6   4   4  104.68    9.52
  -6  -4   4   44.33    7.30
   6   4   5  120.76    9.51
  -6   4   5   42.07    7.48
   6   4   5  117.35   10.68
   6   4   5  105.32   12.79
   6  -4   5   88.98   11.55
  -6  -4   5   47.28    6.56
   6   4   6  289.22   15.77
   6  -4   6  228.18   16.39
   6  -4   7   23.53    6.85
  -6  -4   7    7.43    3.11
   6  -4  -7   16.83    7.06
   6   4   8   25.72    6.57
   6  -4  -8   13.93    8.01
   6   4  -8   20.06    7.49
   6  -6   0 1376.57   27.37
  -6  -6   0 1107.76   37.39
   6  -6   1   33.17    3.65
   6  -6  -1   36.32    3.28
  -6  -6   1   32.77    6.84
  -6  -6   2   20.34    4.37
  -6  -6   2    5.95    4.79
   6  -6   2   12.89    3.00
   6   6   2   13.84    4.91
  -6  -6   2   10.31    4.46
   6   6   2   18.60    4.55
  -6   6   2   16.18    4.92
   6  -6  -2   11.00    2.00
   6  -6   2    6.44    2.12
   6   6   2    3.69    1.74
   6   6   3   25.05    5.15
  -6  -6   3   11.94    5.07
  -6   6   3    9.41    3.07
  -6  -6   3   10.04    5.26
   6   6   4  848.30   23.21
  -6   6   4  395.99   19.15
   6   6   4  969.57   39.32
   6  -6   4  539.66   24.64
   6   6   4  854.48   26.91
  -6  -6   4  382.95   22.11
   6   6   5   13.30    7.78
   6  -6   5    6.58    5.04
   6   6   5    7.36    5.17
   6   6   5    7.27    4.27
  -6   6   5    4.05    3.45
  -6  -6   5    1.03    3.56
   6  -6   6    7.41    4.61
   6   6   6   16.24    5.32
   6  -6  -6    5.14    4.67
  -6   6   6    4.37    3.72
  -6  -6   6    1.09    3.17
   6  -6   7    1.62    4.67
   6   6   7    1.21    4.21
   6  -6  -7    0.78    4.53
  -6   6   7    0.47    3.43
  -6  -6   7   -1.29    2.78
   6  -6  -8   58.68   13.63
   6   6   8  108.93   10.13
  -6  -8   0 1570.55   38.63
  -6  -8   0 1438.57   44.79
  -6  -8  -1   10.40    4.62
  -6  -8   1    9.20    5.40
   6  -8   1   12.92    2.70
   6   8   1   17.27    6.42
   6   8   2   75.79    9.68
  -6   8   2   65.94    6.57
   6   8   2   16.59    2.65
   6  -8   2   45.81    4.54
   6   8   2   67.80    7.12
   6  -8  -2   47.40    2.78
  -6  -8   2   44.12    9.04
  -6   8   3   31.36    7.38
   6  -8  -3   10.03    1.47
   6  -8   3    9.71    2.86
  -6  -8   3   10.64    5.37
   6   8   3   15.48    4.72
   6   8   3   16.42    6.32
   6   8   3    6.59    2.73
  -6  -8   3   24.58    5.30
   6   8   4 1053.28   27.76
   6   8   4 1079.62   39.66
   6  -8   4  566.23   23.49
  -6   8   4  443.76   18.33
   6   8   4  994.88   30.51
  -6  -8   4  435.74   25.93
   6  -8   5    2.26    4.58
   6   8   5    7.93    5.68
   6  -8  -5   -0.32    3.57
   6   8   5    5.59    4.24
  -6   8   5    3.46    2.72
  -6  -8   5    2.67    4.04
   6  -8   6    2.31    4.09
   6  -8  -6    1.13    4.31
   6   8   6    5.13    5.67
  -6   8   6    5.46    3.63
  -6  -8   6    2.31    3.75
   6  -8  -7    2.81    6.12
   6   8   7    0.23    4.99
  -6   8   7    0.21    3.24
   6   8   8  130.69   11.57
  -6 -10   0  377.11   16.40
   6 -10   0  431.29   12.00
   6 -10   1   18.14    3.04
  -6 -10   1   25.17    5.57
  -6 -10   1   15.67    5.83
  -6  10   2   79.06    8.62
   6  10   2   24.78    3.89
   6  10   2   88.84   11.94
  -6 -10   2   53.78    8.77
   6 -10  -2   59.24    3.18
   6 -10   2   50.40    4.87
  -6 -10   2  127.81    9.57
  -6 -10   2   37.54    8.85
  -6  10   3   19.87    8.28
   6  10   3    3.21    3.17
  -6 -10   3    7.36    5.85
   6  10   3   10.13    4.63
   6  10   3   14.55    7.25
   6 -10   3   10.10    2.91
  -6 -10   3   24.19    5.58
   6 -10   3    6.37    4.39
   6 -10  -3    9.84    1.18
   6  10   4  295.91   15.21
   6 -10   4  169.18   11.95
   6 -10   4  224.40   10.34
   6 -10  -4   60.05    9.36
   6  10   4  295.63   18.65
  -6 -10   4  117.94   13.64
   6 -10   5    1.97    3.68
   6 -10  -5    1.08    4.15
  -6  10   5    4.18    2.50
   6  10   5    6.15    5.02
   6  10   5   10.17    6.29
   6 -10  -6   11.71    6.59
  -6  10   6   14.73    3.50
   6 -10  -7   -2.05    6.13
   6  10   7   -0.23    5.00
   6  10   8   31.05    7.24
  -6 -12   0   52.21    6.39
   6 -12   0   69.24    4.47
  -6 -12   0   45.63    8.15
  -6 -12  -1  219.73   11.59
  -6 -12   1  242.94   14.62
   6 -12   1  230.11    8.72
  -6 -12   2  218.64   16.01
  -6 -12  -2  219.12   14.00
   6 -12   2  193.62    9.32
  -6 -12   2  440.13   16.65
  -6 -12   2  132.20   14.46
   6 -12  -2   44.12    6.86
   6  12   2  114.72    9.03
  -6  12   2  341.71   19.41
   6 -12   3  132.38    8.24
  -6 -12   3  297.73   14.81
   6  12   3   76.94    8.23
  -6 -12   3  154.84   14.42
  -6  12   3  238.25   17.63
   6 -12   3  101.56    8.65
   6 -12  -3  110.87    2.97
   6 -12  -3   45.42    9.12
   6  12   4   51.31   11.13
   6 -12   4   15.79    3.83
   6  12   4   15.96    4.59
   6 -12  -4   12.90    5.92
   6  12   4   41.37    7.17
  -6  12   4   68.45   11.90
   6 -12   4   45.82    7.05
  -6 -12   4  106.13   13.11
   6  12   5   85.48   12.39
   6  12   5  104.27   10.97
   6  12   6   92.39   11.18
   6 -12  -6   30.55    9.79
   6 -12  -7    7.48    7.47
   6  12   7   21.92    7.95
  -6 -14   0   44.22    6.23
   6 -14   0   37.56    3.36
   6 -14   1   88.61    5.08
  -6 -14   1  116.39   10.59
   6 -14  -1   26.36    6.34
   6 -14   1   25.78    4.95
   6 -14   2  130.10    8.18
  -6 -14   2  149.51   13.24
   6  14   2   67.08    6.69
  -6  14   2  172.17   13.63
   6 -14  -2   41.28    8.68
   6 -14   2   33.82    4.44
  -6  14   3   96.17   13.56
   6  14   3   33.37    6.30
  -6 -14   3   67.55   10.11
   6 -14  -3   13.66    6.84
   6 -14   3   64.11    7.11
  -6 -14   3  136.34   12.55
   6 -14  -3   40.92    1.62
   6 -14   4   53.81    8.02
  -6 -14   4   88.70   13.04
   6 -14  -4    7.58    6.37
  -6  14   4   67.69   14.55
   6  14   4   19.58    6.09
   6 -14  -5    8.56    7.19
   6 -14   5   51.80    8.64
   6 -14  -6   21.05    8.80
   6  14   6   38.41   10.17
   6 -14   6   54.86    8.35
   6  14   7    9.24    7.06
   6 -16   0    4.02    3.62
  -6 -16   0   13.30    4.67
   6 -16   0   10.16    2.35
   6 -16   1    5.11    3.11
   6 -16  -1    3.31    4.78
   6 -16   1    8.83    2.45
  -6 -16   1   10.62    5.65
  -6 -16   2  155.00   13.18
   6 -16  -2   39.55    8.81
   6 -16  -3   -0.39    4.78
  -6 -16   3   15.08    7.81
  -6  16   3   11.99   11.76
   6  16   3    3.44    5.64
   6 -16  -3    4.75    0.75
   6 -16   3    8.60    4.54
  -6 -16   3   21.98   10.32
   6 -16  -4    1.39    5.39
   6 -16   4   10.86    6.33
   6 -16  -5    0.99    6.23
   6 -16   5    3.69    6.42
  -6 -16   5    9.69   11.82
   6 -16  -6   13.16    9.00
   6 -16   6   69.26   11.58
  -6 -18   0    4.72    4.36
   6 -18   0    0.77    1.88
   6 -18   1   19.78    2.90
  -6 -18   1   31.59    6.76
   6 -18  -2   38.74    8.68
  -6 -18   2  178.93   14.28
   6 -18   3   23.12    6.03
   6 -18  -3    7.65    6.32
  -6 -18   3   16.97    8.01
   6 -18  -4   -0.90    5.73
   6 -18   4   -0.20    6.10
  -6 -18   4   -0.89   11.30
  -6 -18   4   -0.69    7.86
   6 -18  -5    3.06    6.53
   6 -18   5    6.33    6.57
  -6 -20   0   13.15    5.68
  -6 -20   1    2.41    4.73
  -6 -20   2   35.41    8.42
  -6 -20   3    3.55    7.70
  -6 -20   4   19.81   10.58
  -6 -22   0   55.32    7.66
  -6 -22   1    4.79    5.38
  -6 -22   2    1.56    6.52
   7  -1   0  882.06   21.69
   7   1   0  899.27   23.03
   7  -1   1   13.84    3.60
   7   1   1   14.91    3.90
  -7   1   1    8.42    3.66
  -7  -1   1   12.92    4.46
   7  -1   1   14.61    3.87
   7   1  -1   13.21    3.60
   7  -1  -1   13.90    3.14
   7  -1  -2   50.24    4.78
  -7   1   2   50.58    6.83
   7  -1   2   56.49    5.70
   7  -1   2   63.64    6.74
   7   1   2   58.66    6.50
   7  -1   3   19.65    5.05
   7   1   3   15.25    3.90
  -7   1   3    4.60    3.76
  -7  -1   3    9.39    4.77
   7   1   4  541.05   18.69
  -7   1   4  213.75   16.52
  -7  -1   4  221.63   17.97
  -7  -1   4  227.01   12.26
   7   1   4  595.97   22.16
   7  -1   4  337.64   21.55
   7   1   4  384.79   23.47
   7   1   5    1.56    7.45
   7  -1   5    6.84    7.49
   7   1   5   12.76    5.40
  -7  -1   5    5.51    2.56
  -7   1   5    3.34    4.32
  -7  -1   5    6.32    4.87
  -7  -1   6   11.60    2.85
  -7   1   6   14.57    6.04
   7   1   7    4.32    5.42
   7  -3   0  235.25   10.15
   7  -3   0  229.19    9.58
   7  -3   1    1.28    2.97
   7  -3  -1    1.40    2.30
   7   3   1    0.58    3.41
  -7  -3   1    2.21    2.98
   7  -3   1    0.20    2.55
   7   3   1    1.50    3.17
   7   3  -1    1.33    3.66
  -7   3   2  473.08    9.01
   7  -3  -2  312.65    9.30
  -7   3   2  203.15   13.04
   7  -3   2  351.01   12.23
  -7  -3   2  200.22   14.72
   7   3   2  403.36   15.27
   7  -3   2  159.36    5.02
  -7  -3   2  211.35   13.61
  -7  -3   2  646.17   10.14
  -7  -3   3    0.99    3.20
   7  -3   3    3.87    3.31
  -7   3   3    0.68    2.76
   7   3   3    0.73    3.39
  -7  -3   3   -1.25    3.77
   7   3   4  157.02   10.16
  -7   3   4   64.08    8.96
  -7  -3   4   58.94    9.77
   7  -3   4   91.62   12.02
   7   3   4  127.35   14.77
   7   3   4  162.52   12.05
  -7  -3   4   67.66    7.52
   7  -3   5    1.23    6.11
   7   3   5   -0.66    4.88
  -7  -3   5    1.46    2.47
  -7   3   5    0.29    3.38
  -7  -3   5    1.90    4.36
  -7   3   6   48.63    8.41
  -7  -3   6   40.50    5.18
   7   3   7   -1.69    5.38
   7  -3  -7    1.14    3.60
   7  -5   0  178.11    8.57
   7  -5   0  194.32    8.82
  -7  -5   1  102.03    9.48
   7  -5   1  158.56    8.33
  -7  -5   1  108.73   10.89
   7  -5  -1  138.02    6.49
   7   5   1  191.93   12.81
   7  -5   2  311.62   11.51
  -7  -5   2  206.96   15.52
   7   5   2  398.07   16.21
  -7  -5   2  205.35   15.10
   7  -5   2  171.03    6.48
  -7  -5   2  604.38   13.11
   7  -5  -2  284.17    8.47
   7   5   2  116.65    5.91
  -7   5   2  561.53   14.74
  -7  -5   3   45.33    8.37
  -7   5   3  158.46    9.56
   7  -5   3   98.71    7.49
  -7   5   3   49.55    7.08
   7   5   3  106.38    8.81
  -7  -5   3   38.01    7.00
  -7  -5   3  165.86    8.30
   7  -5   3   58.63    4.14
   7   5   3  124.91   11.01
  -7   5   4   45.32    6.60
   7   5   4  140.09   10.23
  -7  -5   4   51.88    9.14
   7  -5   4   87.81   12.12
   7   5   4  142.41   16.80
  -7  -5   4   55.13    7.64
   7   5   4  131.36   11.71
   7  -5   5   30.91    8.26
  -7  -5   5   17.63    4.86
  -7   5   5   29.10    6.37
  -7   5   6   40.49    7.18
  -7  -5   6   39.14    6.16
   7   5   7   16.33    6.14
   7  -5  -7    4.29    5.10
  -7   5   7    4.99    4.32
  -7   5   8    7.83    4.63
   7  -7   0  307.02   10.94
  -7  -7   0  242.46   17.14
   7  -7   1   44.93    4.57
   7  -7  -1   41.99    3.60
   7  -7   2  125.07    7.37
  -7  -7   2   73.20    9.64
   7   7   2  140.72   10.06
  -7  -7   2   69.75    9.41
   7  -7   2   71.62    4.37
   7  -7  -2  113.11    5.08
  -7  -7   2  222.12    9.14
   7   7   2   52.05    4.46
  -7   7   2  214.52   11.47
   7   7   2  177.00   13.51
   7  -7   3   23.29    3.42
  -7  -7   3   68.93    7.30
  -7  -7   3   19.70    6.48
   7   7   3   39.66    6.50
  -7  -7   3   15.83    6.24
  -7   7   3   65.10    8.65
   7   7   3   13.34    2.98
   7   7   3   47.62    8.20
  -7   7   4  110.05    9.80
   7   7   4  233.88   13.45
  -7  -7   4   95.86   12.26
   7  -7   4  170.84   16.36
  -7  -7   4   88.81   11.12
   7   7   4  260.68   16.43
   7  -7   5    9.34    6.36
   7   7   5   22.00    7.15
  -7  -7   5    5.47    3.87
  -7   7   5    6.62    3.45
   7  -7  -6    9.64    5.05
  -7   7   6   18.26    5.30
   7   7   7    1.46    5.56
   7  -7  -7    3.02    5.23
  -7   7   7    0.72    3.74
  -7  -9   0   77.58    8.52
   7  -9   0   69.56    5.00
  -7  -9   0   64.22    9.84
  -7  -9   1    5.79    5.30
  -7  -9   1    9.43    4.46
   7  -9   1   11.46    3.03
   7  -9  -1   13.40    2.42
   7   9   2  337.54   20.46
  -7  -9   2  482.55   15.47
   7  -9   2  251.22   10.45
  -7  -9   2  156.35   15.28
   7  -9  -2  188.83    6.03
   7   9   2   67.37    5.28
  -7   9   2  344.23   14.92
   7  -9   2  146.28    7.28
   7  -9  -3    8.86    1.62
   7  -9   3   23.39    3.34
  -7  -9   3   29.78    6.00
  -7  -9   3    7.44    5.05
  -7   9   3   34.37    8.65
   7   9   3   18.04    4.16
   7   9   3   11.56    4.98
   7   9   3   17.15    7.90
   7   9   4   28.76    4.84
  -7  -9   4   30.51    8.32
   7  -9   4   46.26    8.74
  -7  -9   4  156.65   12.09
   7  -9   4   62.07    6.14
   7   9   4   87.96   11.44
  -7   9   4  133.46   13.29
   7  -9   5    3.79    5.11
  -7   9   5    4.81    3.21
   7  -9  -5    2.73    3.80
   7   9   5    7.17    6.22
  -7   9   6   28.30    5.01
   7  -9  -6   19.47    7.05
   7   9   7    1.05    5.89
  -7 -11   0    5.59    3.92
   7 -11   0    5.22    2.36
   7 -11   1    5.24    2.58
  -7 -11   1    6.48    4.36
  -7 -11   2  283.86   19.34
   7 -11  -2  271.81    7.70
  -7 -11   3    6.64    6.46
   7 -11  -3    1.29    1.01
   7 -11   3    3.43    3.39
   7  11   3    3.70    7.59
  -7 -11   3    4.50    6.58
   7 -11   3    1.23    4.90
  -7  11   3    5.65    8.29
   7  11   3    1.62    3.02
  -7  11   4   11.73    9.42
   7  11   4    2.73    3.91
   7 -11  -4   -0.30    3.42
   7  11   4    7.48    7.70
   7 -11   4    5.47    3.47
  -7 -11   4   11.60    6.60
  -7 -11   5    1.79    7.29
   7 -11   5    0.28    3.73
   7 -11  -5   -1.46    4.35
   7  11   5   -0.51    3.71
   7  11   5    2.22    7.09
  -7  11   5    2.98    9.46
   7 -11  -6   30.70    8.76
   7  11   6  119.66   13.50
  -7 -13   0   48.63    7.34
   7 -13   0   41.48    3.92
   7 -13   1    0.50    2.24
  -7 -13   1   -1.33    4.37
   7 -13   2  107.40    6.84
  -7 -13   2  107.87   12.00
   7 -13  -2   84.04    3.87
   7 -13  -3    0.36    4.26
   7 -13  -3    0.70    0.94
  -7 -13   3    1.07    6.13
  -7  13   3   -0.81    9.32
   7 -13   3    0.76    3.36
   7  13   3    0.65    3.58
  -7 -13   3    6.15    7.80
   7 -13   4   26.06    5.00
  -7 -13   4   66.47   10.24
  -7  13   4   71.81   13.51
   7 -13  -4    5.66    5.20
   7  13   4   11.23    5.20
  -7 -13   4   39.80    9.12
   7 -13  -5   -2.78    6.19
   7 -13   5   -1.29    5.37
  -7 -13   5    1.34   10.40
   7  13   5    0.36    7.71
   7  13   6   44.04   11.07
   7 -13   6   40.54    7.42
  -7 -15   0  123.36   10.82
   7 -15   0  105.03    5.52
   7 -15  -1    1.94    3.80
   7 -15   1    6.02    3.88
  -7 -15   1   12.73    5.43
   7 -15   1   12.51    3.06
   7 -15  -2    7.34    1.74
   7 -15  -2    4.99    5.12
   7 -15   2   11.22    3.61
  -7 -15   2   11.56    6.78
  -7 -15   3   23.42    9.04
   7 -15  -3   -0.42    5.18
   7  15   3    6.13    5.25
  -7  15   3   16.27   12.41
  -7 -15   3   11.25    7.17
   7 -15   3    7.27    3.84
  -7 -15   4   77.71   12.44
   7 -15   4   77.06    8.18
   7 -15   5    2.31    5.21
  -7 -15   5    6.80   10.43
   7 -15  -5    1.49    6.09
   7 -15   6    6.31    6.54
  -7 -15   6   15.02   12.24
  -7 -17   0   48.33    7.70
  -7 -17   1   22.23    6.77
   7 -17   1   13.35    3.16
   7 -17  -2    5.06    5.63
   7 -17   2   15.58    3.53
   7 -17  -3    7.45    6.19
  -7 -17   3   12.77    8.11
   7 -17  -4   11.88    7.53
   7 -17   4   38.44    7.99
   7 -17  -5    3.90    6.65
   7 -17   5    4.87    6.92
  -7 -17   5   19.35   13.84
  -7 -19   0   22.84    6.47
  -7 -19   1    3.45    5.66
  -7 -19   2   27.42    8.69
   7 -19   4   12.58    6.18
  -7 -19   4   35.29   12.28
   8   0   0 1124.28   27.17
   8   0   1   -1.01    3.28
   8   0   1    0.13    3.13
   8   0  -1    0.43    3.04
  -8   0   2   14.19    4.96
   8   0   2   28.05    5.01
   8   0   3    2.11    4.29
  -8   0   3    0.82    3.13
  -8   0   4  274.25   19.28
   8   0   5    2.85    5.25
  -8   0   5   -0.37    4.24
   8   0   6    2.80    5.47
  -8   0   6    8.35    5.51
  -8   0   7    0.74    4.35
   8  -2   0  541.98   16.84
   8   2   0  646.00   20.88
   8  -2   1   21.57    4.33
  -8  -2   1   18.46    5.15
   8  -2   1   21.48    4.11
   8   2  -1   16.98    4.79
   8   2   1   28.27    5.31
   8  -2  -1   23.25    3.73
   8  -2  -2   19.82    3.60
   8  -2   2   26.83    4.65
  -8   2   2   12.47    4.44
  -8  -2   2   12.14    4.66
   8  -2   2   25.31    4.87
   8   2   2   31.39    5.80
  -8   2   3    6.37    3.88
  -8  -2   3   10.97    4.99
   8   2   3    4.59    1.16
   8  -2   3    8.56    1.74
  -8   2   4  124.80   12.26
  -8  -2   4  143.42   15.13
  -8  -2   4  113.03    8.83
   8  -2   5    6.27    7.43
  -8  -2   5    2.18    2.58
   8   2   5    5.09    5.58
  -8   2   5    1.30    4.08
  -8  -2   5   -0.80    5.06
  -8   2   6    8.82    5.09
  -8  -2   6    8.50    5.87
  -8   2   7   -0.35    4.13
  -8  -2   7    0.38    4.47
  -8   2   8   15.47    5.93
   8  -4   0   54.83    5.29
   8  -4   0   63.16    5.16
  -8  -4   1  159.16   13.35
   8  -4   1  189.57    9.90
   8  -4   1  205.02    9.85
   8  -4  -1  194.46    8.64
   8   4   1  234.76   13.50
   8  -4   2  319.51   13.16
   8   4   2  321.36   15.00
   8  -4   2  331.54   13.61
   8   4   2  365.46   16.99
   8  -4   3   63.25    3.59
  -8  -4   3  255.35    8.57
  -8   4   3   60.26    8.01
  -8   4   3  291.49   11.40
   8   4   3   54.30    3.83
  -8  -4   3   66.34    9.92
  -8  -4   3   74.30    8.77
  -8  -4   4   21.28    5.03
  -8   4   4   16.84    5.03
  -8  -4   4   14.66    6.44
   8  -4   4   31.02    9.72
  -8  -4   5   20.64    4.66
  -8   4   5   26.38    6.37
  -8  -4   5   24.68    7.96
   8  -4   5   66.85   12.74
   8   4   5   80.54   10.07
  -8   4   6   46.70    8.20
  -8  -4   6   33.74    8.48
  -8   4   7    8.45    5.00
  -8   4   8    4.49    4.40
   8   6   0   33.47    6.76
   8  -6   0   23.58    3.77
   8  -6   0   27.08    3.81
   8   6   1  198.21   13.37
  -8  -6   1  104.80   10.38
   8  -6   1  155.42    8.76
   8  -6   1  154.72    8.52
   8  -6  -1  133.74    6.50
   8  -6   2  306.16   11.97
  -8  -6   2  181.65   14.67
  -8  -6   2  184.44   15.47
   8  -6  -2  259.06    8.51
  -8   6   3  206.17   11.67
   8   6   3   31.84    3.37
  -8  -6   3   52.23    9.18
   8  -6   3   72.78    4.93
  -8  -6   3  225.77   10.38
  -8  -6   3   48.78    8.16
   8   6   3  114.50   11.15
  -8  -6   4   14.43    4.98
   8   6   4   35.71    8.49
  -8   6   4    9.94    4.36
  -8  -6   4   17.83    6.94
   8   6   4    9.23    2.76
  -8  -6   4   59.48    7.39
   8  -6   4   17.29    3.12
  -8   6   4   65.15    9.60
   8  -6   4   13.29    7.34
   8  -6   5   32.84    9.26
  -8   6   5   25.72    5.74
  -8  -6   5   24.06    8.02
  -8   6   6   37.64    6.90
  -8  -6   6   37.37    9.42
  -8   6   7    6.78    4.57
   8  -8   0   17.53    3.54
  -8  -8   0   17.59    5.08
   8  -8   0   18.86    3.43
   8  -8  -1    3.39    1.92
   8  -8   1    5.91    3.27
   8  -8   2  255.64   10.61
   8  -8  -2  198.03    6.86
   8  -8   3    3.81    2.55
  -8  -8   3    4.40    4.80
   8   8   3    6.57    6.85
  -8  -8   3   17.05    6.28
  -8   8   3    4.05    5.98
   8   8   3    3.16    2.04
  -8  -8   4   36.00    7.04
   8   8   4   20.62    7.78
  -8  -8   4    7.55    5.61
  -8   8   4   48.03   10.09
   8  -8   4   11.39    3.00
   8  -8   4   11.39    7.96
  -8   8   5    3.77    3.42
   8   8   5   12.07    7.04
  -8  -8   5   -0.46    5.30
  -8   8   6   30.94    5.89
   8  -8  -6   22.39    6.78
  -8 -10   0    2.25    4.02
   8 -10   0    3.80    2.65
  -8 -10   1   75.45    9.21
   8 -10   1   81.36    6.00
   8 -10  -1   73.77    4.65
  -8 -10   2  189.43   15.87
   8 -10  -2  200.06    6.78
   8  10   3   84.67   13.05
   8 -10  -3   36.87    2.57
   8 -10   3   36.35    4.04
  -8 -10   3  132.19   10.14
  -8  10   3  116.59   12.30
   8 -10   4    1.20    2.71
  -8 -10   4    9.61    6.95
   8  10   4    3.13    6.69
   8 -10  -5    8.13    4.84
  -8 -10   5   17.20    8.00
   8  10   5   31.41    9.81
  -8  10   5   72.70   13.71
   8 -10   5   32.38    6.41
  -8 -10   5   94.58   14.10
  -8 -12   0   29.88    6.61
   8 -12   0   27.44    3.79
   8 -12   1   23.89    3.86
  -8 -12   1   23.04    6.18
   8 -12  -1   21.64    3.02
   8 -12   2   75.14    5.89
  -8 -12   2   75.15   10.59
   8 -12  -2   59.19    3.49
   8 -12  -3    9.31    1.57
   8 -12   3   14.65    3.53
  -8  12   3   24.80    8.14
  -8 -12   3   14.47    7.78
   8 -12  -4    5.97    4.71
  -8 -12   4   56.82   10.08
  -8 -12   4   17.47    8.44
   8  12   4   31.90   10.51
   8 -12   4   19.95    4.67
  -8  12   4   50.65   13.12
   8 -12  -5    0.35    4.03
  -8 -12   5   19.40   11.96
  -8 -12   6  100.97   17.01
  -8 -14   0  152.33   12.39
   8 -14   0  121.31    6.12
   8 -14  -1    4.36    2.01
  -8 -14   1    2.41    5.21
   8 -14   1    5.55    3.03
   8 -14  -2    1.51    1.40
   8 -14  -2    0.84    3.41
  -8 -14   2    1.18    5.69
   8 -14  -3    2.88    4.94
  -8 -14   3    2.92    7.08
   8 -14  -4   18.32    7.50
  -8 -14   4  298.02   20.28
   8 -14  -5   -0.50    6.39
  -8 -14   5    2.57   14.30
  -8 -16   0  123.03   11.18
  -8 -16   1    3.74    5.66
  -8 -16   2    5.38    6.80
   8 -16  -3   -0.45    6.36
  -8 -16   4  186.53   17.05
   8 -16  -4   13.65    7.69
   9  -1   0   76.90    6.46
   9   1   0   82.99    7.65
   9   1   1   22.08    4.96
   9  -1  -1   15.21    3.78
   9   1  -1   17.25    4.45
   9  -1   1   22.01    4.79
   9  -1   2  158.02   10.15
   9   1   2  169.17   11.24
   9  -1   3   10.17    5.14
   9   1   3    9.73    5.52
  -9   1   3    6.87    4.70
  -9  -1   3    0.31    3.43
  -9   1   4   15.25    5.47
  -9  -1   4   26.64    6.99
  -9   1   5    2.75    4.68
  -9  -1   5    3.86    4.72
  -9   1   6   11.58    6.07
  -9  -1   6   12.31    6.34
   9   3   0   24.63    5.49
   9  -3   0   25.95    4.47
   9  -3   1   25.20    4.71
   9  -3  -1   27.95    4.02
   9   3   1   33.69    6.22
   9  -3   2  249.94   12.61
   9   3   2  256.65   14.16
   9  -3   3   24.77    6.16
   9   3   3   28.90    7.07
  -9   3   3    5.56    4.07
  -9  -3   3    8.80    5.08
  -9  -3   4   46.90    4.97
   9  -3   4   31.21    7.12
  -9   3   4    7.13    4.43
  -9   3   4   54.31    6.35
  -9  -3   4   12.32    6.11
   9  -3   5   13.73    6.65
   9   3   5    9.08    6.44
  -9   3   5    3.55    3.79
  -9  -3   5    3.36    4.89
  -9   3   6   23.86    6.64
  -9  -3   6   25.70    7.99
  -9   3   7   -0.64    4.20
   9   5   0   90.19    9.25
   9  -5   0   62.02    5.59
   9  -5   1    2.97    3.20
  -9  -5   1    4.00    4.18
   9  -5  -1    3.05    2.63
   9   5   1    2.13    4.64
   9  -5  -2   85.25    5.28
  -9  -5   2   70.00    9.55
   9  -5   2  146.00   10.06
   9   5   2  157.37   12.96
   9  -5   3   -0.16    4.20
  -9  -5   3    1.03    3.95
  -9   5   4   14.87    5.28
  -9  -5   4   16.68    6.49
   9   5   5   -0.57    6.51
  -9   5   5   -0.87    4.05
  -9  -5   5    3.14    5.36
  -9   5   6   11.83    4.84
   9  -7   0  175.46    8.34
   9  -7   1    7.43    3.62
   9  -7  -1    5.40    2.57
  -9  -7   1    7.88    5.11
   9   7   1    6.01    6.53
   9  -7   2   15.56    4.45
  -9  -7   2   11.40    5.14
   9  -7  -2    8.58    2.37
  -9  -7   3    7.03    5.27
  -9  -7   4   51.55   10.34
   9   7   4  157.75   14.79
   9  -9   0  118.99    7.22
   9  -9   0  141.66    7.44
   9  -9   1   19.07    4.12
   9  -9  -1   12.04    2.67
   9  -9  -2    8.55    2.27
  -9  -9   3    4.10    5.45
   9   9   3   17.72    8.80
   9   9   4  119.04   14.20
  -9  -9   4   40.83    9.91
   9 -11   0   54.97    4.97
   9 -11  -1    0.06    1.87
  -9 -11   1    3.72    5.47
  -9 -11   2   17.68    6.58
   9 -11  -2   20.91    2.45
   9  11   3    1.87    8.57
   9 -13   0   42.40    4.38
  -9 -13   1   17.17    7.32
   9 -13  -1   14.91    2.74
   9 -13  -3    2.50    3.74
   9 -13  -4    8.25    5.75
   9 -15  -4    4.01    5.96
  10   0   0    8.98    4.28
  10   0   1   -0.97    3.68
  10   0  -1   -0.90    3.63
  10   0   2  181.05   12.52
  10   0   3    2.59    5.27
 -10   0   3    0.70    4.20
  10   0   4   15.62    6.35
 -10   0   4    2.86    4.37
 -10   0   5   -0.35    4.30
  10  -2   0    7.21    3.60
  10   2   0    9.72    4.51
  10  -2  -1   40.79    4.99
  10  -2   1   62.12    7.36
  10   2   1   63.84    7.89
  10  -2   2  169.37   11.14
  10   2   2  152.79   11.38
  10  -2   3   44.03    7.05
  10   2   3   46.74    8.56
  10  -2   4   12.26    6.60
 -10   2   4    1.37    4.33
 -10  -2   4    2.19    4.56
 -10   2   5    5.61    4.83
  10   4   0   30.49    6.51
  10  -4   0   35.16    5.06
  10   4   1   43.76    7.45
  10  -4   1   39.41    5.54
  10  -4  -1   32.35    4.59
  10  -4   2   82.43    7.63
  10   4   2   95.52   10.54
  10  -4   3   26.54    6.25
 -10  -4   3    8.34    5.61
  10   4   3   32.95    7.73
 -10   4   5    1.58    4.30
 -10   4   6   13.60    5.54
  10  -6   0  135.89    7.85
  10  -6   1    5.95    3.52
  10  -6  -1    2.00    2.63
  10   6   1    4.55    6.79
  10  -6   2    5.52    4.40
 -10  -6   2    2.87    4.74
  10   6   2    4.21    6.22
  10  -6  -2    3.64    2.65
  10  -6   3    6.71    5.85
  10  -8   0  164.07    8.36
  10  -8   1    0.98    3.39
  10  -8  -1    0.29    2.45
  10  -8   2    0.58    4.55
  10  -8  -2    1.92    2.11
  10  -8   3    5.68    5.05
  10 -10   0   39.11    4.33
  10 -10   1    6.55    3.74
  10 -10  -1    5.70    2.61
  10 -10   2   14.83    4.54
  10 -12   0    8.47    3.31
  10 -12   1   24.71    4.68
  10 -12  -1   18.77    2.99
  10 -12   2   34.34    5.46
  10 -14   1    7.91    3.94
  11  -1   0   86.66    7.95
  11   1   0   78.53    8.01
  11  -1   1   -0.46    4.65
  11   1   1   -0.68    4.84
  11  -1  -1    1.54    3.84
  11  -1   2    4.94    5.53
  11   3   0   38.92    7.09
  11  -3   0   36.66    5.46
  11  -3   1    2.06    4.23
  11   3   1   -0.38    5.37
  11  -3  -1    0.21    3.49
  11  -3   2   30.68    6.34
  11  -5   0   18.08    4.18
  11  -5   1   17.09    4.82
  11  -5  -1   12.61    3.66
  11  -5   2   32.25    6.29
  11  -7   0   14.98    4.13
  11  -7   1    6.34    4.16
  11  -7  -1    5.79    3.17
  11  -9   0    5.70    3.47
  11  -9   1   -0.41    3.41
  11  -9  -1    0.96    2.71
  11 -11   1    2.36    3.71
  12  -2  -1    2.62    4.00
  12  -4  -1    5.91    4.05
   0   0   0    0.00    0.00
;
_shelx_hkl_checksum              21011
loop_
_space_group_symop_operation_xyz
'x, y, z'
'-x, -y, z+1/2'
'-x, y, -z+1/2'
'x, -y, -z'
'x+1/2, y+1/2, z'
'-x+1/2, -y+1/2, z+1/2'
'-x+1/2, y+1/2, -z+1/2'
'x+1/2, -y+1/2, -z'
'-x, -y, -z'
'x, y, -z-1/2'
'x, -y, z-1/2'
'-x, y, z'
'-x+1/2, -y+1/2, -z'
'x+1/2, y+1/2, -z-1/2'
'x+1/2, -y+1/2, z-1/2'
'-x+1/2, y+1/2, z'
loop_
_atom_site_label
_atom_site_type_symbol
_atom_site_fract_x
_atom_site_fract_y
_atom_site_fract_z
_atom_site_U_iso_or_equiv
_atom_site_adp_type
_atom_site_occupancy
_atom_site_site_symmetry_order
_atom_site_calc_flag
_atom_site_refinement_flags_posn
_atom_site_refinement_flags_adp
_atom_site_refinement_flags_occupancy
_atom_site_disorder_assembly
_atom_site_disorder_group
Pb1 Pb 0.0000 1.0000 0.0000 0.0512(2) Uani 1 4 d S T P . .
I1 I 0.25686(12) 1.06152(5) 0.2500 0.0698(3) Uani 1 2 d S T P . .
I2 I 0.0000 0.86539(6) 0.2500 0.0609(4) Uani 1 4 d S T P . .
C1 C 0.5000 0.2475(5) 0.8393(19) 0.150(4) Uani 0.5 2 d DS TU P . .
C2 C 0.5000 0.1848(5) 0.9227(19) 0.151(3) Uani 1 2 d DS TU P . .
H2A H 0.5888 0.1858 0.9939 0.181 Uiso 0.5 1 d R U P . .
H2B H 0.4112 0.1858 0.9939 0.181 Uiso 0.5 1 d R U P . .
C3 C 0.5000 0.1181(7) 0.8427(12) 0.143(4) Uani 1 2 d DS TU P . .
H3A H 0.6109 0.1181 0.8427 0.172 Uiso 0.75 1 d R U P . .
F1 F 0.5000 0.0695(10) 0.9948(17) 0.1508(16) Uani 0.5 2 d DS TU P . .
F1' F 0.461(7) 0.142(2) 1.0191(18) 0.1505(16) Uani 0 1 d D U P . .
N1 N 0.5000 0.2475(5) 0.8393(19) 0.150(4) Uani 0.5 2 d DS TU P . .
H1A H 0.5795 0.2733 0.8736 0.180 Uiso 0.25 1 d R U P . .
H1B H 0.4124 0.2733 0.8736 0.180 Uiso 0.25 1 d R U P . .
loop_
_atom_site_aniso_label
_atom_site_aniso_U_11
_atom_site_aniso_U_22
_atom_site_aniso_U_33
_atom_site_aniso_U_23
_atom_site_aniso_U_13
_atom_site_aniso_U_12
Pb1 0.0515(4) 0.0588(4) 0.0434(5) 0.0000(3) 0.000 0.000
I1 0.0585(5) 0.0749(6) 0.0759(7) 0.000 0.000 -0.0178(4)
I2 0.0791(8) 0.0483(6) 0.0551(8) 0.000 0.000 0.000
C1 0.267(7) 0.069(5) 0.113(7) -0.014(6) 0.000 0.000
C2 0.261(6) 0.077(5) 0.114(6) -0.015(6) 0.000 0.000
C3 0.251(7) 0.064(5) 0.114(7) -0.014(6) 0.000 0.000
F1 0.254(3) 0.080(2) 0.118(3) -0.018(3) 0.000 0.000
F1' 0.254(3) 0.080(2) 0.118(3) -0.017(3) 0.000(3) 0.000(3)
N1 0.267(7) 0.069(5) 0.113(7) -0.014(6) 0.000 0.000
loop_
_atom_type_symbol
_atom_type_description
_atom_type_scat_dispersion_real
_atom_type_scat_dispersion_imag
_atom_type_scat_source
C C 0.0033 0.0016 'International Tables Vol C Tables 4.2.6.8 and 6.1.1.4'
H H 0.0000 0.0000 'International Tables Vol C Tables 4.2.6.8 and 6.1.1.4'
N N 0.0061 0.0033 'International Tables Vol C Tables 4.2.6.8 and 6.1.1.4'
F F 0.0171 0.0103 'International Tables Vol C Tables 4.2.6.8 and 6.1.1.4'
I I -0.4742 1.8119 'International Tables Vol C Tables 4.2.6.8 and 6.1.1.4'
Pb Pb -3.3944 10.1111 'International Tables Vol C Tables 4.2.6.8 and 6.1.1.4'
loop_
_geom_angle_atom_site_label_1
_geom_angle_atom_site_label_2
_geom_angle_atom_site_label_3
_geom_angle
_geom_angle_site_symmetry_1
_geom_angle_site_symmetry_3
_geom_angle_publ_flag
I1 Pb1 I1 87.35(3) 9_575 11_575 ?
I1 Pb1 I1 92.65(3) 9_575 3 ?
I1 Pb1 I1 180.0 11_575 3 ?
I1 Pb1 I1 180.0 9_575 . ?
I1 Pb1 I1 92.65(3) 11_575 . ?
I1 Pb1 I1 87.35(3) 3 . ?
I1 Pb1 I2 96.223(17) 9_575 . ?
I1 Pb1 I2 96.223(17) 11_575 . ?
I1 Pb1 I2 83.777(17) 3 . ?
I1 Pb1 I2 83.777(17) . . ?
I1 Pb1 I2 83.777(17) 9_575 9_575 ?
I1 Pb1 I2 83.777(17) 11_575 9_575 ?
I1 Pb1 I2 96.223(17) 3 9_575 ?
I1 Pb1 I2 96.223(17) . 9_575 ?
I2 Pb1 I2 180.0 . 9_575 ?
Pb1 I1 Pb1 77.67(2) . 2_575 ?
Pb1 I2 Pb1 77.00(2) 2_575 . ?
C2 C1 N1 119.7(9) . 10_557 ?
C2 C1 C1 119.7(9) . 10_557 ?
N1 C1 C1 0.0 10_557 10_557 ?
F1' C2 F1' 33(6) . 12_655 ?
F1' C2 C1 158(2) . . ?
F1' C2 C1 158(2) 12_655 . ?
F1' C2 C3 71.8(16) . . ?
F1' C2 C3 71.8(16) 12_655 . ?
C1 C2 C3 123.1(13) . . ?
C2 C3 C3 117.2(7) . 10_557 ?
C2 C3 F1' 46.7(19) . . ?
C3 C3 F1' 158.5(17) 10_557 . ?
C2 C3 F1' 46.7(19) . 12_655 ?
C3 C3 F1' 158.5(17) 10_557 12_655 ?
F1' C3 F1' 25(5) . 12_655 ?
C2 C3 F1 99.5(11) . . ?
C3 C3 F1 143.3(8) 10_557 . ?
F1' C3 F1 55.2(18) . . ?
F1' C3 F1 55.2(18) 12_655 . ?
F1' F1 F1' 27(5) 12_655 . ?
F1' F1 C3 62.3(10) 12_655 . ?
F1' F1 C3 62.3(10) . . ?
F1' F1' C2 73(3) 12_655 . ?
F1' F1' F1 76(3) 12_655 . ?
C2 F1' F1 120(2) . . ?
F1' F1' C3 77(2) 12_655 . ?
C2 F1' C3 61.4(12) . . ?
F1 F1' C3 62.5(13) . . ?
loop_
_geom_bond_atom_site_label_1
_geom_bond_atom_site_label_2
_geom_bond_distance
_geom_bond_site_symmetry_2
_geom_bond_publ_flag
Pb1 I1 3.2189(8) 9_575 ?
Pb1 I1 3.2189(8) 11_575 ?
Pb1 I1 3.2189(8) 3 ?
Pb1 I1 3.2189(8) . ?
Pb1 I2 3.2426(8) . ?
Pb1 I2 3.2426(8) 9_575 ?
I1 Pb1 3.2189(8) 2_575 ?
I2 Pb1 3.2426(8) 2_575 ?
C1 C2 1.359(11) . ?
C1 N1 1.44(3) 10_557 ?
C1 C1 1.44(3) 10_557 ?
C2 F1' 1.17(4) . ?
C2 F1' 1.17(4) 12_655 ?
C2 C3 1.414(18) . ?
C3 C3 1.50(2) 10_557 ?
C3 F1' 1.530(17) . ?
C3 F1' 1.530(17) 12_655 ?
C3 F1 1.532(15) . ?
F1 F1' 1.42(5) 12_655 ?
F1 F1' 1.42(5) . ?
F1' F1' 0.67(12) 12_655 ?
