#------------------------------------------------------------------------------
#$Date: 2020-02-27 01:45:13 +0200 (Thu, 27 Feb 2020) $
#$Revision: 248460 $
#$URL: file:///home/coder/svn-repositories/cod/cif/4/13/42/4134254.cif $
#------------------------------------------------------------------------------
#
# This file is available in the Crystallography Open Database (COD),
# http://www.crystallography.net/
#
# All data on this site have been placed in the public domain by the
# contributors.
#
data_4134254
loop_
_publ_author_name
'Zhang, Han-Yue'
'Song, Xian-Jiang'
'Cheng, Hao'
'Zeng, Yu-Ling'
'Zhang, Yi'
'Li, Peng-Fei'
'Liao, Wei-Qiang'
'Xiong, Ren-Gen'
_publ_section_title
;
 A Three-Dimensional Lead Halide Perovskite-Related Ferroelectric.
;
_journal_name_full               'Journal of the American Chemical Society'
_journal_paper_doi               10.1021/jacs.0c00375
_journal_year                    2020
_chemical_formula_moiety         '2(Cl3 Pb), C5 H16 N2'
_chemical_formula_sum            'C5 H16 Cl6 N2 Pb2'
_chemical_formula_weight         731.30
_space_group_crystal_system      orthorhombic
_space_group_IT_number           28
_space_group_name_Hall           'P 2 -2a'
_space_group_name_H-M_alt        'P m a 2'
_atom_sites_solution_hydrogens   difmap
_audit_creation_method           SHELXL-2014/7
_cell_angle_alpha                90
_cell_angle_beta                 90
_cell_angle_gamma                90
_cell_formula_units_Z            2
_cell_length_a                   14.9094(6)
_cell_length_b                   9.4872(4)
_cell_length_c                   5.8622(3)
_cell_measurement_reflns_used    4715
_cell_measurement_temperature    393(2)
_cell_measurement_theta_max      30.5890
_cell_measurement_theta_min      2.5300
_cell_volume                     829.20(6)
_computing_cell_refinement       'CrysAlisPro 1.171.39.46 (Rigaku OD, 2018)'
_computing_data_collection       'CrysAlisPro 1.171.39.46 (Rigaku OD, 2018)'
_computing_data_reduction        'CrysAlisPro 1.171.39.46 (Rigaku OD, 2018)'
_computing_molecular_graphics    'DIAMOND (Brandenburg & Putz, 2005)'
_computing_publication_material  'SHELXL-2014/7 (Sheldrick, 2014)'
_computing_structure_refinement  'SHELXL-2014/7 (Sheldrick, 2014)'
_computing_structure_solution    'SHELXL-2014/7 (Sheldrick, 2014)'
_diffrn_ambient_temperature      393(2)
_diffrn_measured_fraction_theta_full 0.998
_diffrn_measured_fraction_theta_max 0.998
_diffrn_measurement_device_type  'XtaLAB Synergy R, DW system, HyPix'
_diffrn_measurement_method       'four-circle diffractometer'
_diffrn_radiation_type           MoK\a
_diffrn_radiation_wavelength     0.71073
_diffrn_reflns_av_R_equivalents  0.0766
_diffrn_reflns_av_unetI/netI     0.0449
_diffrn_reflns_Laue_measured_fraction_full 0.998
_diffrn_reflns_Laue_measured_fraction_max 0.998
_diffrn_reflns_limit_h_max       17
_diffrn_reflns_limit_h_min       -17
_diffrn_reflns_limit_k_max       11
_diffrn_reflns_limit_k_min       -11
_diffrn_reflns_limit_l_max       6
_diffrn_reflns_limit_l_min       -6
_diffrn_reflns_number            5952
_diffrn_reflns_point_group_measured_fraction_full 0.998
_diffrn_reflns_point_group_measured_fraction_max 0.998
_diffrn_reflns_theta_full        24.996
_diffrn_reflns_theta_max         24.996
_diffrn_reflns_theta_min         2.545
_diffrn_source                   'Rotating-anode X-ray tube'
_exptl_absorpt_coefficient_mu    21.219
_exptl_absorpt_correction_T_max  0.020
_exptl_absorpt_correction_T_min  0.018
_exptl_absorpt_correction_type   multi-scan
_exptl_absorpt_process_details   'CrysAlisPro 1.171.39.46 (Rigaku OD, 2018)'
_exptl_crystal_colour            Colourless
_exptl_crystal_density_diffrn    2.929
_exptl_crystal_description       Block
_exptl_crystal_F_000             652
_exptl_crystal_size_max          0.200
_exptl_crystal_size_mid          0.200
_exptl_crystal_size_min          0.190
_refine_diff_density_max         0.983
_refine_diff_density_min         -1.129
_refine_diff_density_rms         0.236
_refine_ls_abs_structure_details
;
 Refined as an inversion twin.
;
_refine_ls_abs_structure_Flack   0.57(5)
_refine_ls_extinction_coef       0.0031(6)
_refine_ls_extinction_expression Fc^*^=kFc[1+0.001xFc^2^\l^3^/sin(2\q)]^-1/4^
_refine_ls_extinction_method     'SHELXL-2014/7 (Sheldrick 2014'
_refine_ls_goodness_of_fit_ref   1.004
_refine_ls_hydrogen_treatment    constr
_refine_ls_matrix_type           full
_refine_ls_number_parameters     86
_refine_ls_number_reflns         1478
_refine_ls_number_restraints     61
_refine_ls_restrained_S_all      0.999
_refine_ls_R_factor_all          0.0388
_refine_ls_R_factor_gt           0.0358
_refine_ls_shift/su_max          0.001
_refine_ls_shift/su_mean         0.000
_refine_ls_structure_factor_coef Fsqd
_refine_ls_weighting_details
'w=1/[\s^2^(Fo^2^)+(0.0645P)^2^] where P=(Fo^2^+2Fc^2^)/3'
_refine_ls_weighting_scheme      calc
_refine_ls_wR_factor_gt          0.0910
_refine_ls_wR_factor_ref         0.0925
_reflns_Friedel_coverage         0.808
_reflns_Friedel_fraction_full    0.999
_reflns_Friedel_fraction_max     0.999
_reflns_number_gt                1326
_reflns_number_total             1478
_reflns_threshold_expression     'I > 2\s(I)'
_cod_data_source_file            ja0c00375_si_003.cif
_cod_data_source_block           PMA2
_cod_database_code               4134254
_shelx_shelxl_version_number     2014/7
_shelx_space_group_comment
;
The symmetry employed for this shelxl refinement is uniquely defined
by the following loop, which should always be used as a source of
symmetry information in preference to the above space-group names.
They are only intended as comments.
;
_shelx_estimated_absorpt_t_min   0.101
_shelx_estimated_absorpt_t_max   0.107
_shelx_res_file
;

    PMA2.res created by SHELXL-2014/7


TITL Pma2 in Pma2
CELL 0.71073  14.9094   9.4872   5.8622  90.000  90.000  90.000
ZERR    2.00   0.0006   0.0004   0.0003   0.000   0.000   0.000
LATT -1
SYMM -X, -Y, Z
SYMM 0.5+X, -Y, Z
SYMM 0.5-X, Y, Z
SFAC C  H  N  Cl Pb
UNIT 10 32 4 12 4
OMIT 0   2  -5
OMIT 0   1   4
OMIT  0   0  -6
OMIT 5   1   6
OMIT   0.00  50.00
L.S. 25
ACTA
BOND
FMAP 2
PLAN 5
DFIX 1.50 0.02 N1 C1 C1 C2 C2 N2 N2 C3 N2 C4
DFIX 2.45 0.02 C3 C4
DELU 0.02 N2 C2 C3 C4
SIMU 0.02 N2 C2 C3 C4
ISOR 0.01 N2
ISOR 0.02 C1 C2 C3 C4
TWIN
TEMP 120
SIZE 0.19 0.20 0.20
WGHT    0.064500
EXTI    0.003082
BASF   0.56874
FVAR       0.10771
PB1   5    0.058826    0.711840    0.482976    11.00000    0.03518    0.03153 =
         0.04537    0.00348    0.00138    0.00083
CL1   4    0.000000    1.000000    0.490247    10.50000    0.09542    0.04524 =
         0.11117    0.00000    0.00000    0.02210
CL2   4    0.064307    0.704946    0.983705    11.00000    0.10047    0.07231 =
         0.05786    0.00230    0.02027    0.01041
CL3   4    0.113999    0.418902    0.488115    11.00000    0.04432    0.04612 =
         0.10492   -0.00157   -0.02142    0.00560
CL4   4    0.250000    0.753004    0.481911    10.50000    0.04521    0.06335 =
         0.13029    0.02071    0.00000    0.00000
N1    3    0.250000    0.522436   -0.069400    10.50000    0.09417    0.04029 =
         0.10738   -0.00476    0.00000    0.00000
AFIX   3
H1A   2    0.210280    0.587136   -0.020390    10.50000   -1.50000
H1B   2    0.303790    0.539016   -0.005120    10.50000   -1.50000
H1C   2    0.250000    0.527786   -0.222160    10.50000   -1.50000
AFIX   0
N2    3    0.250000    0.123033    0.007503    10.50000    0.05737    0.04596 =
         0.06225   -0.00535    0.00000    0.00000
C1    1    0.219480    0.381502    0.004851    10.50000    0.05046    0.03793 =
         0.06388   -0.00514    0.00369    0.00917
AFIX   3
H1D   2    0.161430    0.365762   -0.061309    10.50000   -1.20000
H1E   2    0.212930    0.377612    0.167631    10.50000   -1.20000
AFIX   0
C2    1    0.278685    0.264204   -0.080690    10.50000    0.06015    0.05290 =
         0.06436    0.00172    0.01153    0.00396
AFIX   3
H2A   2    0.281095    0.261634   -0.244290    10.50000   -1.20000
H2B   2    0.338055    0.283124   -0.025230    10.50000   -1.20000
AFIX   0
C3    1    0.250000    0.115819    0.261212    10.50000    0.14310    0.06285 =
         0.07892    0.01100    0.00000    0.00000
AFIX   3
H3A   2    0.303010    0.160914    0.318787    11.00000   -1.50000
H3C   2    0.250000    0.018165    0.304117    10.50000   -1.50000
AFIX   0
C4    1    0.174763    0.047043   -0.094061    11.00000    0.12587    0.17748 =
         0.14803   -0.02269   -0.03235   -0.07334
AFIX   3
H4A   2    0.173453   -0.052557   -0.065281    11.00000   -1.50000
H4B   2    0.123043    0.090453   -0.026371    11.00000   -1.50000
H4C   2    0.174373    0.063493   -0.255642    11.00000   -1.50000

AFIX   0
HKLF 4

REM  Pma2 in Pma2
REM R1 =  0.0358 for    1326 Fo > 4sig(Fo)  and  0.0388 for all    1478 data
REM     86 parameters refined using     61 restraints

END

WGHT      0.0610      0.0000

REM Highest difference peak  0.983,  deepest hole -1.129,  1-sigma level  0.236
Q1    1   0.0649  0.5341  0.3618  11.00000  0.05    0.98
Q2    1   0.0646  0.5366  0.6096  11.00000  0.05    0.92
Q3    1   0.1169  0.7147  0.4870  11.00000  0.05    0.89
Q4    1   0.0588  0.6324  0.5809  11.00000  0.05    0.89
Q5    1   0.0614  0.4372  0.6101  11.00000  0.05    0.88
;
_shelx_res_checksum              24643
_shelx_hkl_file
;
 -18   0   0   57.44    4.24
 -17   0   0   -0.32    1.46
 -16   0   0  104.70    5.64
 -15   0   0    0.14    1.29
 -14   0   0   13.80    1.78
 -14   0   0   12.54    1.62
 -14   0   0   13.20    1.93
 -13   0   0    0.06    0.94
 -13   0   0   -0.27    1.11
 -13   0   0   -0.57    1.19
 -12   0   0   11.54    1.63
 -12   0   0   12.90    1.64
 -12   0   0   10.36    1.62
 -11   0   0   -0.06    0.88
 -11   0   0   -0.15    0.94
 -10   0   0  221.46    9.21
 -10   0   0  311.37   10.10
  -9   0   0    0.05    0.65
  -9   0   0   -0.13    0.73
  -8   0   0  369.00   11.09
  -8   0   0  249.95   10.03
  -7   0   0    0.16    0.58
  -7   0   0   -0.20    0.69
  -6   0   0  621.91   15.86
  -6   0   0  377.25   14.41
  -5   0   0    0.08    0.48
  -5   0   0   -0.32    0.45
  -4   0   0   29.54    1.66
  -4   0   0   51.99    2.35
  -3   0   0    0.03    0.29
  -3   0   0    0.22    0.32
  -2   0   0  283.91   10.08
  -2   0   0  409.55   10.58
   2   0   0  284.22    9.01
   3   0   0    0.16    0.25
   4   0   0   33.29    1.66
   5   0   0   -0.17    0.44
   6   0   0  395.44   13.10
   7   0   0   -0.27    0.53
   8   0   0  282.04   10.02
   9   0   0   -0.08    0.73
  10   0   0  245.51    9.11
  11   0   0   -0.45    0.98
  12   0   0   10.65    1.51
  13   0   0   -0.06    1.05
  14   0   0   15.69    1.97
  15   0   0    0.13    1.21
  16   0   0  114.45    5.76
  17   0   0    0.63    1.46
 -18  -1   0    5.41    1.74
 -18   1   0    5.60    1.96
 -17   1   0    1.01    1.07
 -17   1   0    1.45    1.58
 -17  -1   0    1.75    1.49
 -16   1   0    5.25    1.39
 -16   1   0    4.14    1.75
 -16  -1   0    4.40    1.64
 -15   1   0   55.34    3.53
 -15  -1   0   46.58    3.44
 -14  -1   0    0.45    1.17
 -14  -1   0   -0.17    1.08
 -14   1   0   -0.07    1.04
 -14   1   0    0.41    1.09
 -13   1   0  171.28    7.10
 -13  -1   0  137.46    6.46
 -13  -1   0  149.35    6.73
 -13   1   0  178.74    7.03
 -12  -1   0    6.76    1.34
 -12   1   0   11.93    1.89
 -12  -1   0    7.27    1.31
 -12   1   0    9.10    1.51
 -11  -1   0  213.25    8.99
 -11  -1   0  227.71    9.12
 -10   1   0   11.73    1.85
 -10  -1   0    8.70    1.28
 -10  -1   0    9.41    1.28
 -10   1   0   11.45    1.50
  -9  -1   0   11.93    1.35
  -9  -1   0   11.69    1.29
  -8   1   0   18.46    1.61
  -8  -1   0   16.94    1.45
  -8  -1   0   18.14    1.42
  -7  -1   0  176.78    6.30
  -7   1   0  185.31    7.57
  -7   1   0  187.07    6.63
  -6  -1   0   81.32    3.23
  -6   1   0   81.72    3.43
  -6  -1   0   74.24    3.24
  -5  -1   0  820.29   26.14
  -5   1   0  816.72   26.25
  -5  -1   0  870.40   26.10
  -4   1   0   31.08    1.60
  -4  -1   0   36.29    1.56
  -3   1   0  677.85   21.67
  -3  -1   0  715.43   21.56
  -2  -1   0   29.62    1.15
  -2   1   0   30.57    1.33
  -2   1   0   29.14    1.07
  -1   1   0  115.48    3.57
  -1   1   0  106.67    3.42
   1   1   0  105.48    3.38
   1  -1   0  107.18    3.34
   2   1   0   28.73    1.13
   2  -1   0   33.20    1.39
   3   1   0  678.41   21.17
   3   1   0  699.13   21.28
   4   1   0   36.00    2.04
   4   1   0   34.41    1.62
   5   1   0  770.74   26.03
   5   1   0  831.13   25.36
   6   1   0   69.20    3.71
   6  -1   0   68.90    3.16
   7   1   0  124.29    6.15
   7  -1   0  143.09    5.69
   8  -1   0   15.63    1.42
   8   1   0   18.60    1.53
   8   1   0   14.48    1.77
   9  -1   0   15.43    1.50
   9   1   0   12.88    1.47
   9   1   0   14.79    1.49
  10  -1   0    9.06    1.36
  10   1   0   10.08    1.36
  11   1   0  244.99    9.22
  11  -1   0  240.41    9.23
  12   1   0   10.38    1.52
  13   1   0  165.38    7.07
  14   1   0    0.29    1.04
  15   1   0   54.80    3.55
  16   1   0    5.67    1.62
  17   1   0    1.75    1.40
  18   1   0    6.92    1.84
 -18  -2   0   19.27    2.52
 -18   2   0   19.49    2.84
 -17   2   0    0.21    1.24
 -17   2   0   -0.11    1.54
 -17  -2   0   -0.30    1.33
 -16  -2   0   44.72    3.36
 -16   2   0   45.84    4.00
 -15  -2   0    5.51    1.42
 -15   2   0    6.65    1.75
 -15   2   0    4.66    1.66
 -14   2   0   25.23    2.35
 -14   2   0   29.01    3.04
 -14  -2   0   21.92    2.19
 -13   2   0   48.90    3.87
 -13   2   0   44.40    3.01
 -12   2   0    7.75    1.57
 -12   2   0    9.97    2.05
 -12  -2   0    5.57    1.19
 -11  -2   0   72.31    3.85
 -11   2   0   89.03    4.27
 -10   2   0  286.76   11.57
 -10   2   0  293.86   10.05
  -9   2   0    2.77    0.91
  -9  -2   0    2.47    0.72
  -8   2   0  451.13   13.90
  -8  -2   0  421.76   13.56
  -7   2   0   75.86    3.30
  -7  -2   0   78.99    3.16
  -6   2   0  286.28   10.78
  -6   2   0  309.79   10.30
  -6  -2   0  318.87   10.19
  -5  -2   0  246.37    7.96
  -5   2   0  226.99    8.44
  -5   2   0  241.51    8.09
  -4  -2   0   19.49    1.04
  -4   2   0   19.14    0.91
  -4   2   0   19.75    1.30
  -3  -2   0   99.78    3.44
  -3   2   0  101.21    3.68
  -3   2   0   98.17    3.30
  -2   2   0  322.78   10.05
  -2   2   0  312.11    9.79
  -1  -2   0   30.39    1.21
  -1   2   0   31.31    1.23
  -1   2   0   29.28    1.10
  -1  -2   0   29.99    1.09
   0   2   0  553.33   18.00
   0   2   0  565.03   17.90
   0  -2   0  588.10   17.91
   1  -2   0   28.72    1.08
   1  -2   0   30.70    1.21
   2  -2   0  342.01   10.22
   2   2   0  307.51   10.01
   3  -2   0  111.02    3.79
   3   2   0   95.02    3.40
   4   2   0   19.20    1.00
   5   2   0  232.45    7.65
   5   2   0  223.00    7.47
   6   2   0  301.30   11.27
   6   2   0  303.80   10.04
   6   2   0  302.80    9.90
   7   2   0   78.19    3.19
   7   2   0   57.46    3.56
   8   2   0  310.94   13.60
   8   2   0  425.44   12.93
   9   2   0    2.00    0.84
   9   2   0    1.70    0.91
  10   2   0  256.04    8.63
  10   2   0  177.58    8.84
  11   2   0   76.27    3.74
  11   2   0   56.22    4.14
  12   2   0    6.84    1.40
  12   2   0    3.97    1.07
  13   2   0   34.13    2.66
  14   2   0   25.13    2.37
  15   2   0    4.26    1.38
  16   2   0   58.11    3.77
  17   2   0    0.94    1.32
  18   2   0   23.25    2.57
 -18   3   0   17.74    2.79
 -17   3   0    0.18    1.48
 -17  -3   0    0.07    1.32
 -17   3   0   -0.20    1.51
 -16  -3   0   19.24    2.23
 -16   3   0   20.13    2.72
 -15  -3   0   32.67    2.80
 -15   3   0   30.64    3.24
 -15   3   0   40.92    2.31
 -14   3   0   15.01    1.33
 -14   3   0   11.19    1.96
 -14  -3   0   13.36    1.76
 -13   3   0   47.33    3.86
 -13   3   0   83.88    5.70
 -13   3   0   64.76    2.97
 -13   3   0   68.51    3.82
 -13  -3   0   60.83    3.53
 -12   3   0    7.38    1.46
 -12   3   0    6.93    1.95
 -12   3   0    2.41    1.29
 -12   3   0    5.53    0.87
 -12  -3   0    5.31    1.18
 -11   3   0   76.93    3.18
 -11   3   0   83.78    3.98
 -11  -3   0   72.26    3.65
 -10   3   0   75.76    3.04
 -10   3   0   74.54    3.67
 -10  -3   0   74.24    3.51
  -9   3   0    0.98    0.82
  -9  -3   0    1.64    0.71
  -9   3   0    1.25    0.51
  -9   3   0    2.10    0.78
  -8   3   0  196.73    7.21
  -8   3   0  198.33    6.70
  -8   3   0  183.14    7.74
  -8  -3   0  207.08    7.15
  -7  -3   0   18.00    1.28
  -7   3   0   17.85    1.64
  -7   3   0   15.98    1.02
  -7   3   0   19.80    1.41
  -6   3   0   63.46    3.10
  -6  -3   0   62.70    2.65
  -6   3   0   58.98    2.36
  -5   3   0  373.01   11.71
  -5   3   0  364.11   12.32
  -4   3   0    6.10    0.49
  -4   3   0    6.77    0.78
  -3  -3   0  480.97   14.56
  -3   3   0  481.02   14.98
  -3   3   0  452.84   14.58
  -2  -3   0  366.32   11.23
  -2   3   0  344.34   11.27
  -2  -3   0  360.82   11.02
  -2   3   0  344.39   11.02
  -1   3   0  258.26    8.49
  -1  -3   0  276.01    8.50
  -1   3   0  274.60    8.71
  -1  -3   0  282.91    8.68
   0   3   0  492.37   15.87
   0   3   0  512.88   16.07
   0  -3   0  510.74   15.89
   1  -3   0  267.92    8.51
   1  -3   0  276.83    8.69
   2  -3   0  383.09   12.22
   3   3   0  446.01   14.54
   3  -3   0  498.15   14.90
   4   3   0    6.49    0.59
   4  -3   0    6.05    0.73
   5   3   0  347.78   11.79
   5  -3   0  426.77   12.62
   6   3   0   57.58    2.42
   7   3   0   17.12    1.15
   7   3   0   17.08    1.27
   7   3   0   16.85    1.93
   8   3   0  191.77    6.70
   8   3   0  160.82    7.87
   9   3   0    0.80    0.81
   9   3   0    1.40    0.77
  10   3   0   71.08    3.31
  10   3   0   44.39    3.60
  11   3   0   79.06    3.74
  11   3   0   52.63    4.09
  12   3   0    2.42    1.19
  12   3   0    4.60    1.32
  13   3   0   44.47    3.80
  13   3   0   63.03    3.52
  14   3   0   12.34    1.77
  14   3   0    7.67    1.51
  15   3   0   40.88    3.03
  16   3   0   24.60    2.51
  17   3   0    0.20    1.32
  18   3   0   18.60    2.39
 -17   4   0   -0.56    1.72
 -17  -4   0   -0.15    1.25
 -17   4   0   -0.10    1.51
 -16  -4   0   20.58    2.30
 -16   4   0   20.22    2.69
 -15   4   0   37.20    2.15
 -15   4   0   30.83    3.15
 -15  -4   0   30.34    2.67
 -14   4   0   10.09    2.34
 -14  -4   0    8.04    1.48
 -14   4   0    5.99    1.65
 -14   4   0    9.15    1.11
 -13   4   0   91.11    3.75
 -13  -4   0   83.27    4.37
 -12   4   0    0.05    0.89
 -12   4   0    0.08    1.10
 -12  -4   0   -0.05    0.93
 -12   4   0    0.26    0.59
 -11  -4   0   62.93    3.30
 -11   4   0   63.77    3.36
 -11   4   0   61.00    2.72
 -10   4   0   61.02    3.78
 -10   4   0   68.60    3.41
 -10  -4   0   68.34    3.37
 -10   4   0   65.88    2.84
  -9   4   0    9.49    0.89
  -9  -4   0    8.56    1.12
  -9   4   0    8.53    1.13
  -9   4   0    9.26    1.42
  -8   4   0   93.34    4.44
  -8   4   0   93.74    3.61
  -8   4   0  101.74    4.13
  -7   4   0   39.09    1.81
  -7   4   0   44.40    2.54
  -6   4   0   54.21    2.77
  -6   4   0   50.74    2.11
  -5   4   0  311.09    9.99
  -5   4   0  313.52   10.61
  -4  -4   0   33.63    1.43
  -4   4   0   34.40    1.48
  -4   4   0   34.78    1.82
  -3   4   0  515.80   17.01
  -3  -4   0  556.57   16.66
  -3  -4   0  552.24   16.93
  -3   4   0  516.12   16.65
  -2   4   0  146.58    4.87
  -2  -4   0  142.45    4.77
  -2  -4   0  137.00    4.50
  -1   4   0   90.50    3.25
  -1  -4   0   99.18    3.48
  -1  -4   0   95.67    3.26
  -1   4   0   99.55    3.52
   0   4   0  292.90    9.72
   0   4   0  309.75   10.00
   0  -4   0  307.67    9.75
   1  -4   0  102.37    3.56
   1  -4   0   93.53    3.31
   2  -4   0  138.19    4.87
   3  -4   0  559.08   16.75
   3   4   0  501.04   16.39
   4   4   0   31.79    1.58
   4  -4   0   39.56    2.00
   5  -4   0  347.33   10.75
   5   4   0  291.09   10.01
   6   4   0   47.67    2.20
   6  -4   0   60.01    2.93
   7   4   0   39.37    1.95
   8   4   0   88.06    3.57
   8   4   0   95.42    3.89
   9   4   0    8.45    1.77
   9   4   0    8.71    1.07
   9   4   0    8.73    1.01
  10   4   0   45.57    3.77
  10   4   0   65.83    3.18
  11   4   0   34.14    3.19
  11   4   0   59.10    3.09
  12   4   0    0.24    0.97
  12   4   0   -0.10    1.04
  13   4   0   82.34    4.12
  13   4   0   60.00    4.53
  14   4   0    5.42    1.54
  14   4   0    7.45    1.58
  15   4   0   20.65    2.79
  15   4   0   33.19    2.70
  16   4   0   22.76    2.40
  16   4   0   10.78    1.78
  17   4   0    0.83    1.40
 -16   5   0   28.11    3.04
 -16  -5   0   34.11    2.82
 -15   5   0    4.62    2.19
 -15  -5   0    3.54    1.37
 -15   5   0    4.31    1.62
 -14  -5   0   18.60    2.00
 -14   5   0   16.95    2.25
 -14   5   0   18.09    1.49
 -13  -5   0    9.16    1.48
 -13   5   0    8.74    1.07
 -13   5   0    8.67    1.65
 -12   5   0    4.42    1.17
 -12   5   0    4.08    1.31
 -12   5   0    4.29    0.83
 -11   5   0   27.64    2.46
 -11   5   0   31.02    1.77
 -11   5   0   31.51    2.20
 -10   5   0  170.68    5.99
 -10   5   0  153.33    7.00
 -10   5   0  173.56    6.65
  -9   5   0   -0.16    0.98
  -9   5   0    0.39    0.52
  -8   5   0  303.52    9.97
  -8   5   0  302.36   11.01
  -7   5   0    5.82    0.69
  -7   5   0    5.73    1.05
  -7  -5   0    6.52    0.70
  -6   5   0  141.73    5.10
  -6   5   0  152.34    5.84
  -6  -5   0  150.23    5.09
  -5  -5   0   93.26    3.32
  -5   5   0   88.16    3.31
  -5   5   0   90.78    3.81
  -4   5   0   10.45    1.03
  -4  -5   0   11.36    0.78
  -4   5   0   10.35    0.76
  -4  -5   0   11.13    0.98
  -3  -5   0   16.36    1.11
  -3   5   0   16.46    1.20
  -3  -5   0   14.10    0.86
  -3   5   0   13.02    0.85
  -2  -5   0  196.42    6.49
  -2  -5   0  211.17    6.80
  -2   5   0  202.26    6.85
  -2   5   0  189.73    6.48
  -1  -5   0   16.58    0.91
  -1   5   0   15.77    0.88
  -1   5   0   15.70    1.10
  -1  -5   0   17.27    1.10
   0  -5   0  387.85   11.86
   0  -5   0  412.91   12.20
   0   5   0  384.77   12.18
   1  -5   0   16.19    0.92
   1  -5   0   17.61    1.11
   2  -5   0  218.29    7.48
   3  -5   0   14.50    1.17
   4  -5   0   10.61    1.05
   4   5   0    9.66    0.85
   5   5   0   85.65    3.41
   5  -5   0   86.18    3.29
   6   5   0  135.34    5.09
   6  -5   0  159.61    5.90
   7  -5   0    6.98    1.15
   7   5   0    4.80    0.71
   8   5   0  295.92    9.97
   9   5   0    1.17    1.23
   9   5   0    0.30    0.65
   9   5   0    0.78    0.79
  10   5   0  167.01    6.20
  10   5   0  158.70    5.82
  11   5   0   32.14    2.17
  11   5   0   20.22    2.70
  12   5   0    3.98    1.12
  12   5   0    1.95    1.18
  13   5   0    8.11    1.42
  13   5   0    5.69    1.67
  14   5   0   18.51    2.05
  14   5   0   14.87    2.40
  15   5   0    2.25    1.34
  15   5   0    3.28    1.56
  16   5   0   32.73    2.82
  16   5   0   20.58    2.96
 -16   6   0    0.18    1.57
 -15   6   0   15.38    2.33
 -14   6   0   -0.80    1.48
 -13   6   0   76.91    3.30
 -13   6   0   60.40    4.23
 -12   6   0   -0.21    1.44
 -12   6   0    0.79    0.73
 -11   6   0   79.03    3.84
 -11   6   0   78.86    3.29
 -10  -6   0    1.26    0.67
 -10   6   0    1.60    0.66
 -10   6   0    0.23    1.05
  -9  -6   0   10.91    0.98
  -9   6   0    9.83    0.98
  -9   6   0   10.06    1.51
  -8  -6   0    0.20    0.50
  -8   6   0    0.23    0.49
  -8   6   0    1.74    0.90
  -7   6   0   76.28    3.13
  -7  -6   0   82.87    3.17
  -7   6   0   79.89    3.77
  -6  -6   0   17.49    1.11
  -6   6   0   16.72    1.56
  -6   6   0   15.84    1.08
  -5   6   0  299.94   10.58
  -5   6   0  291.53    9.99
  -5  -6   0  321.43   10.04
  -5  -6   0  324.21   10.48
  -4   6   0    5.70    0.66
  -4  -6   0    7.88    0.93
  -4   6   0    8.21    1.04
  -4  -6   0    6.28    0.68
  -3  -6   0  362.38   11.31
  -3  -6   0  347.57   10.95
  -3   6   0  321.04   10.90
  -3   6   0  340.17   11.40
  -2  -6   0    0.65    0.52
  -2   6   0    0.79    0.58
  -2   6   0    0.62    0.40
  -2  -6   0    0.86    0.39
  -1  -6   0   52.78    2.21
  -1   6   0   52.99    2.20
  -1   6   0   56.22    2.57
   0  -6   0   25.32    1.31
   0  -6   0   28.72    1.58
   0   6   0   27.22    1.60
   1  -6   0   53.83    2.24
   1  -6   0   58.93    2.54
   2  -6   0    1.03    0.58
   3  -6   0  383.61   12.76
   4  -6   0    7.01    0.94
   4   6   0    5.93    0.77
   5  -6   0  345.74   10.95
   5   6   0  289.33   10.18
   6   6   0   15.22    1.19
   6  -6   0   19.44    1.66
   7  -6   0   85.85    4.07
   7   6   0   74.15    3.22
   8   6   0    1.12    0.64
   9   6   0    9.31    1.07
  10   6   0    1.42    0.70
  10   6   0    1.92    0.92
  10   6   0    0.50    1.33
  11   6   0   70.26    3.45
  11   6   0   67.06    3.17
  12   6   0    0.57    0.97
  12   6   0   -0.25    1.24
  13   6   0   76.67    3.78
  13   6   0   43.78    4.06
  14   6   0    1.09    1.35
  14   6   0    0.91    1.16
  15   6   0   18.73    2.15
  15   6   0   13.56    2.63
  16   6   0    0.72    1.30
  16   6   0    0.93    1.49
 -17  -7   0   -0.11    0.93
 -16  -7   0   29.63    2.06
 -15  -7   0    0.07    0.89
 -15   7   0    0.08    1.50
 -14  -7   0    9.00    1.21
 -14   7   0    7.58    1.79
 -13   7   0    0.87    1.28
 -13  -7   0    1.21    0.84
 -12  -7   0    7.63    1.02
 -12   7   0    7.45    1.70
 -11  -7   0    0.33    0.66
 -11   7   0    0.43    0.62
 -11   7   0    0.44    1.10
 -10   7   0   56.90    2.70
 -10   7   0   54.46    3.47
  -9   7   0    0.72    0.60
  -9  -7   0    0.49    0.64
  -9   7   0    0.31    1.01
  -8   7   0  114.27    4.47
  -8  -7   0  126.39    4.54
  -8   7   0  116.24    5.26
  -7   7   0    1.18    0.87
  -7   7   0    0.57    0.55
  -7  -7   0    0.61    0.56
  -7  -7   0    0.25    0.82
  -6  -7   0   89.72    3.78
  -6   7   0   84.30    3.93
  -6   7   0   76.74    3.27
  -6  -7   0   87.36    3.35
  -5  -7   0    2.51    0.83
  -5   7   0    1.85    0.58
  -5   7   0    3.49    1.00
  -5  -7   0    2.61    0.62
  -4  -7   0    0.58    0.51
  -4   7   0    0.41    0.70
  -4  -7   0    0.53    0.65
  -4   7   0    0.13    0.48
  -3   7   0    5.79    0.99
  -3  -7   0    5.86    0.69
  -3   7   0    5.67    0.70
  -3  -7   0    6.89    0.96
  -2   7   0  203.79    7.23
  -2  -7   0  214.18    7.16
  -2  -7   0  197.21    6.75
  -2   7   0  190.37    6.69
  -1   7   0    2.56    0.82
  -1  -7   0    3.41    0.82
  -1   7   0    2.82    0.54
  -1  -7   0    2.65    0.57
   0  -7   0  428.52   13.99
   0   7   0  433.17   14.40
   0  -7   0  459.62   14.39
   1  -7   0    2.87    0.55
   1  -7   0    4.48    0.84
   2  -7   0  186.60    6.68
   2  -7   0  219.76    7.25
   3  -7   0    6.57    1.07
   4  -7   0    0.53    0.70
   4   7   0    0.55    0.56
   5   7   0    2.63    0.68
   5  -7   0    2.70    0.90
   6  -7   0   92.40    4.16
   6   7   0   77.50    3.40
   7  -7   0    0.10    0.96
   7   7   0    0.24    0.61
   8  -7   0  128.75    5.50
   8   7   0  103.05    4.33
   9   7   0    0.87    0.70
  10   7   0   53.56    2.99
  11   7   0    1.24    0.99
  11   7   0   -0.29    1.41
  12   7   0    6.02    1.26
  12   7   0    4.79    2.01
  13   7   0    1.17    1.13
  13   7   0    0.81    1.48
  14   7   0    7.64    1.53
  14   7   0    3.35    1.73
  15   7   0    1.52    1.25
  15   7   0   -0.13    1.72
 -16  -8   0    2.37    1.14
 -15  -8   0    8.39    1.37
 -14  -8   0    1.51    0.94
 -13  -8   0   48.89    2.53
 -13   8   0   37.52    3.15
 -12  -8   0    3.89    1.01
 -12   8   0    2.30    1.31
 -11   8   0   46.80    3.38
 -11  -8   0   58.34    2.77
 -10   8   0    6.36    1.46
 -10  -8   0    5.62    0.97
  -9   8   0    4.23    1.29
  -9  -8   0    5.46    0.90
  -8   8   0   17.98    1.37
  -8   8   0   19.12    1.87
  -8  -8   0   21.74    1.47
  -7   8   0   41.50    2.21
  -7   8   0   47.26    2.96
  -7  -8   0   49.17    2.32
  -7  -8   0   52.51    2.80
  -6   8   0    5.99    1.24
  -6  -8   0    7.26    1.20
  -6   8   0    6.17    0.85
  -6  -8   0    6.71    0.87
  -5  -8   0  140.50    5.12
  -5  -8   0  148.48    5.56
  -5   8   0  139.28    5.73
  -5   8   0  133.47    5.06
  -4  -8   0    8.43    1.12
  -4   8   0    6.34    1.13
  -4  -8   0    7.10    0.84
  -4   8   0    6.21    0.79
  -3  -8   0  128.24    4.76
  -3   8   0  134.99    5.32
  -3   8   0  120.50    4.67
  -2   8   0   27.51    1.91
  -2  -8   0   28.95    1.82
  -2  -8   0   24.97    1.48
  -1   8   0   15.02    1.41
  -1   8   0   12.09    1.00
  -1  -8   0   12.04    1.01
  -1  -8   0   15.93    1.38
   0  -8   0   16.93    1.45
   0  -8   0   16.89    1.20
   1  -8   0   13.60    1.32
   1  -8   0   13.06    1.06
   2  -8   0   26.02    1.79
   2  -8   0   22.06    1.39
   3  -8   0  149.15    5.93
   4   8   0    6.45    0.94
   4  -8   0    8.61    1.23
   5  -8   0  153.39    5.93
   5   8   0  128.10    5.14
   6  -8   0    6.77    1.31
   6   8   0    6.09    0.96
   7   8   0   41.11    2.26
   7  -8   0   47.98    2.97
  11   8   0   37.78    4.46
  11   8   0   47.85    2.90
  12   8   0    4.40    1.30
  13   8   0   42.99    2.89
 -14  -9   0    4.93    1.13
 -13  -9   0   14.47    1.48
 -12   9   0    1.57    1.33
 -12  -9   0    2.89    1.01
 -11  -9   0   12.86    1.40
 -11   9   0   12.80    1.86
 -10  -9   0   32.95    2.06
 -10   9   0   32.55    2.70
  -9   9   0    2.55    1.28
  -9  -9   0    1.36    0.82
  -8   9   0   71.83    4.01
  -8  -9   0   71.68    3.21
  -7  -9   0   22.30    1.57
  -7   9   0   22.34    2.10
  -6   9   0   34.06    2.50
  -6  -9   0   33.98    1.93
  -5  -9   0   40.68    2.13
  -5   9   0   40.41    2.66
  -4   9   0   -0.35    0.94
  -4  -9   0    0.03    0.64
  -3  -9   0   35.08    2.22
  -3   9   0   33.72    2.25
  -3  -9   0   29.99    1.77
  -3   9   0   30.22    1.73
  -2   9   0   43.20    2.15
  -2   9   0   47.75    2.72
  -2  -9   0   45.54    2.25
  -2  -9   0   50.90    2.65
  -1  -9   0    2.03    0.69
  -1   9   0    2.78    0.93
  -1   9   0    1.99    0.61
  -1  -9   0    2.22    0.90
   0  -9   0   94.54    4.02
   0  -9   0   85.38    3.57
   1  -9   0    1.54    0.93
   1  -9   0    2.92    0.73
   2  -9   0   49.33    2.76
   2  -9   0   45.16    2.27
   3  -9   0   34.57    2.34
   4   9   0    0.27    0.70
  11   9   0   10.82    1.60
  12   9   0    2.63    1.27
 -12 -10   0    1.78    1.03
 -11 -10   0    7.07    1.24
 -10 -10   0   13.20    1.42
 -10  10   0   10.22    1.91
  -9 -10   0    1.05    0.82
  -9  10   0    0.86    1.35
  -8  10   0   27.32    2.46
  -8 -10   0   29.14    1.89
  -7  10   0    4.32    1.35
  -7 -10   0    3.52    0.93
  -6 -10   0   13.26    1.28
  -6  10   0   11.17    1.66
  -5  10   0   33.92    2.57
  -5 -10   0   33.19    2.01
  -4 -10   0    0.73    0.77
  -4  10   0    0.74    1.17
  -3 -10   0   44.29    2.34
  -3  10   0   45.91    2.86
  -2 -10   0   40.45    2.19
  -2  10   0   41.11    2.69
  -1 -10   0   10.71    1.16
   0 -10   0   66.29    3.01
   1 -10   0   10.94    1.15
   2 -10   0   38.03    2.12
  -8 -11   0   10.91    1.41
  -7 -11   0    8.46    1.26
  -6  11   0    1.98    1.33
  -6 -11   0    2.52    0.96
  -5 -11   0   31.63    2.05
  -5  11   0   33.90    2.68
  -4 -11   0    1.64    0.88
  -4  11   0    1.77    1.25
  -3  11   0   49.91    3.13
  -3 -11   0   46.90    2.54
  -2 -11   0    9.96    1.22
  -1 -11   0    6.49    1.08
   0 -11   0   12.80    1.32
   1 -11   0    6.37    1.07
   2 -11   0   11.15    1.25
   5 -11   0   28.81    1.97
 -18   0   1   52.45    4.04
 -18   0  -1   48.31    3.79
 -17   0   1    1.16    1.50
 -17   0  -1   -0.08    1.40
 -16   0   1   99.78    5.34
 -16   0  -1   88.29    4.99
 -16   0  -1   84.52    5.29
 -15   0   1    0.31    1.34
 -15   0  -1    0.92    1.29
 -15   0  -1    0.09    1.46
 -14   0  -1    8.03    1.56
 -14   0  -1    8.23    1.57
 -14   0  -1    9.72    2.13
 -14   0   1    8.85    1.46
 -14   0   1   10.59    1.87
 -13   0  -1    0.39    1.10
 -13   0   1    0.34    0.97
 -13   0  -1    0.10    1.30
 -13   0  -1   -0.16    0.99
 -12   0  -1   15.94    1.74
 -12   0   1   13.77    1.67
 -12   0  -1   18.32    1.94
 -12   0  -1   21.13    2.54
 -11   0   1   -0.58    0.96
 -11   0  -1   -0.45    0.90
 -11   0  -1    0.15    1.09
 -11   0  -1    0.09    1.10
 -10   0  -1  159.42    7.32
 -10   0  -1  127.29    5.68
 -10   0   1  119.60    5.47
 -10   0  -1  146.52    5.60
  -9   0   1    0.34    0.74
  -9   0  -1    0.21    0.73
  -9   0  -1   -0.24    0.68
  -9   0  -1   -0.19    1.05
  -8   0   1  151.44    6.35
  -8   0  -1  151.95    6.48
  -7   0  -1   -0.18    0.52
  -7   0  -1   -0.24    0.58
  -7   0  -1    0.36    1.04
  -6   0  -1  182.47    5.90
  -6   0  -1  209.31    8.44
  -5   0  -1    0.24    0.74
  -5   0  -1    0.10    0.47
  -5   0  -1    0.08    0.32
  -4   0  -1    0.94    0.30
  -4   0  -1    0.41    0.68
  -4   0  -1    0.29    0.43
  -3   0  -1    0.01    0.32
  -3   0  -1    0.24    0.50
  -3   0  -1    0.06    0.20
  -2   0  -1  521.42   15.56
  -2   0  -1  488.21   15.73
  -2   0  -1  475.34   17.19
  -1   0   1    0.10    0.30
   0   0   1 1008.05   31.94
   1   0   1    0.48    0.47
   2   0   1  505.17   15.52
   2   0  -1  494.70   15.68
   3   0  -1    0.29    0.32
   4   0  -1    1.15    0.44
   5   0  -1    0.51    0.43
   6   0  -1  182.55    6.57
   7   0   1    0.03    0.50
   7   0  -1    0.16    0.56
   8   0  -1  201.53    6.40
   8   0   1  125.97    5.89
   9   0   1   -0.12    0.65
   9   0  -1    0.16    0.65
  10   0   1  115.46    5.63
  10   0  -1  165.17    5.98
  11   0  -1   -0.19    0.89
  11   0   1   -0.15    0.85
  12   0  -1   17.16    1.78
  12   0   1   13.59    1.70
  13   0   1   -0.46    1.12
  13   0  -1   -0.16    1.01
  14   0   1   10.23    1.70
  14   0  -1    9.65    1.61
  15   0   1    0.47    1.16
  15   0  -1    0.12    1.16
  16   0   1   80.79    4.87
  16   0  -1   95.88    4.90
 -18   1   1    4.53    1.92
 -18   1  -1    3.22    1.76
 -18   1  -1    4.46    1.85
 -18  -1  -1    4.28    1.60
 -18  -1   1    4.75    1.89
 -17  -1  -1    0.07    1.20
 -17   1   1    1.23    1.76
 -17  -1   1   -0.08    1.39
 -17   1  -1   -0.16    1.48
 -17   1  -1    0.20    1.55
 -16   1  -1    4.49    1.90
 -16  -1  -1    4.95    1.44
 -16  -1   1    4.87    1.68
 -16   1  -1    6.38    1.77
 -15   1  -1   49.78    3.40
 -15   1  -1   46.67    3.95
 -14  -1  -1    0.39    0.99
 -14   1   1    0.96    1.16
 -14   1  -1    0.65    1.21
 -14   1  -1    0.20    1.24
 -14   1  -1    0.30    1.37
 -14  -1   1    0.48    1.08
 -14   1   1    0.34    0.56
 -14  -1  -1    0.93    1.10
 -13   1   1  127.29    4.85
 -13   1  -1  139.79    5.95
 -13  -1  -1  112.32    5.28
 -13  -1  -1  126.98    6.41
 -13   1  -1  150.78    7.69
 -13   1   1  118.13    5.42
 -13   1  -1  137.67    6.00
 -13  -1  -1   95.23    5.17
 -13  -1   1  100.14    5.13
 -12   1  -1    6.07    1.51
 -12  -1   1    4.21    1.21
 -12   1   1    5.72    0.90
 -12  -1  -1    7.20    1.73
 -12   1   1    4.88    1.22
 -12  -1  -1    5.17    1.33
 -12  -1  -1    4.50    1.14
 -12   1  -1    7.42    2.19
 -11   1   1  187.83    6.51
 -11   1  -1  190.74    7.39
 -11  -1  -1  203.05    8.57
 -11  -1  -1  144.72    6.74
 -11  -1   1  152.59    6.72
 -11  -1  -1  170.57    6.78
 -11   1   1  173.73    6.93
 -10  -1  -1    8.93    1.13
 -10   1  -1    8.64    2.05
 -10  -1  -1    6.13    1.13
 -10   1  -1    7.09    1.33
 -10   1   1    7.69    1.28
 -10  -1  -1    7.69    1.69
 -10   1   1    8.11    1.07
 -10  -1   1    5.95    1.10
  -9   1  -1    2.34    1.42
  -9  -1  -1    1.47    1.05
  -9   1   1    0.87    0.75
  -9  -1  -1    3.96    0.80
  -9   1   1    2.98    0.77
  -9  -1   1    2.05    0.87
  -9   1  -1    1.51    1.00
  -9  -1  -1    1.52    0.81
  -8   1   1   10.99    1.23
  -8  -1  -1   10.48    1.19
  -8  -1  -1   15.08    2.01
  -8  -1  -1   12.02    1.08
  -8   1  -1   13.43    2.42
  -8   1  -1   12.40    1.44
  -8  -1   1    9.67    1.17
  -7  -1  -1  101.63    4.19
  -7  -1  -1  106.97    4.02
  -7   1  -1  118.30    6.90
  -7   1   1   93.29    4.20
  -7   1  -1  107.84    4.52
  -6   1  -1   20.50    2.47
  -6  -1  -1   24.55    1.49
  -6   1  -1   24.62    1.67
  -6  -1  -1   28.30    2.48
  -6  -1  -1   25.00    1.32
  -5  -1  -1  545.59   17.32
  -5   1  -1  539.75   17.59
  -5  -1  -1  556.29   17.16
  -5   1  -1  537.83   16.79
  -4   1  -1   54.55    1.85
  -4  -1  -1   57.89    2.13
  -4   1  -1   57.77    2.43
  -3  -1  -1  197.40    6.14
  -3   1  -1  199.79    6.38
  -3   1  -1  210.84    6.54
  -3   1  -1  185.73    5.89
  -3  -1  -1  189.09    5.86
  -2  -1  -1    7.17    0.29
  -2   1  -1    6.40    0.30
  -2   1  -1    7.46    0.52
  -1   1  -1  162.23    5.11
   0  -1  -1   74.36    2.37
   0   1  -1   70.64    2.35
   1   1   1  211.27    6.78
   1  -1  -1  162.34    5.31
   2   1   1    7.20    0.29
   2  -1   1    6.84    0.31
   3  -1   1  190.88    5.94
   3   1  -1  193.50    6.23
   4   1  -1   59.04    2.35
   5   1   1  528.92   16.31
   5   1   1  579.38   18.80
   5   1  -1  552.37   16.52
   6   1  -1   16.64    1.11
   6   1   1   20.26    2.23
   7   1   1  102.84    5.73
   7   1  -1  104.95    4.02
   7  -1  -1   99.91    4.05
   7   1  -1   82.10    3.66
   7   1   1   85.00    3.92
   8   1   1    9.67    1.26
   8  -1   1    8.16    1.06
   8   1   1   10.49    1.90
   8  -1  -1   10.25    1.20
   8   1  -1   11.34    1.20
   9   1  -1    1.27    0.84
   9  -1   1    1.91    0.75
   9  -1  -1    1.30    0.78
   9   1   1    0.56    0.89
   9   1   1    1.16    0.86
  10   1  -1    6.95    1.17
  10  -1  -1    7.45    1.25
  10   1   1    8.22    1.28
  10  -1   1    5.00    1.10
  11   1  -1  186.14    7.22
  11  -1  -1  195.64    7.41
  12   1   1    4.57    1.28
  12   1  -1    4.45    1.19
  13   1   1  113.59    5.71
  13   1  -1  133.73    5.69
  14   1  -1    1.19    1.08
  14   1   1   -0.83    1.12
  15   1  -1   40.53    2.93
  15   1   1   38.34    3.08
  16   1   1    3.95    1.53
  16   1  -1    5.03    1.49
  17   1  -1    1.49    1.31
  17   1   1    1.10    1.39
  18   1  -1    4.22    1.57
  18   1   1    5.23    1.78
 -18  -2  -1   17.40    2.30
 -18   2  -1   23.81    2.86
 -18   2   1   16.55    2.58
 -18   2  -1   17.04    2.88
 -18   2  -1   18.47    2.74
 -17   2  -1   -1.13    1.65
 -17   2   1   -0.89    1.47
 -17   2  -1    1.34    1.61
 -17   2  -1   -0.43    1.70
 -17  -2  -1    0.48    1.31
 -16   2  -1   48.35    2.35
 -16   2   1   37.77    3.66
 -16   2  -1   41.50    3.84
 -16   2   1   45.89    2.54
 -16  -2  -1   40.86    3.11
 -16   2  -1   52.90    4.58
 -15   2   1    2.12    0.84
 -15  -2  -1    2.83    1.18
 -15   2  -1    2.88    0.72
 -15   2  -1    3.08    1.97
 -15   2   1    2.03    1.49
 -15   2  -1    2.63    1.62
 -14   2  -1   11.63    1.05
 -14   2   1   12.96    1.47
 -14   2  -1   10.24    2.05
 -14   2  -1   15.99    2.07
 -14   2   1    9.17    1.94
 -14   2   1   12.48    1.70
 -14  -2  -1   11.99    1.58
 -14   2  -1   15.36    2.88
 -13   2  -1   41.63    4.34
 -13  -2  -1   28.04    2.24
 -13   2   1   36.55    2.60
 -13   2  -1   33.93    1.75
 -13   2   1   43.86    2.79
 -13   2  -1   26.73    2.83
 -13   2   1   28.47    2.91
 -13   2  -1   42.87    3.10
 -12   2  -1    5.87    2.10
 -12   2   1    4.68    1.25
 -12   2   1    5.85    1.25
 -12  -2  -1    4.59    1.03
 -12   2  -1    5.04    1.50
 -12   2  -1    3.51    0.64
 -11   2   1   39.25    2.56
 -11   2  -1   52.48    5.15
 -11   2  -1   37.41    1.80
 -11   2   1   57.16    3.51
 -11  -2  -1   34.70    2.28
 -11   2  -1   45.06    2.99
 -10  -2  -1  209.43    7.88
 -10   2   1  218.90    8.22
 -10   2  -1  250.51   11.83
 -10   2  -1  263.43    8.92
 -10   2  -1  210.99    7.23
  -9  -2  -1    3.72    0.76
  -9   2  -1    3.28    0.46
  -9   2  -1    1.65    0.96
  -9   2   1    4.24    0.95
  -9   2  -1    3.23    1.09
  -9   2  -1    4.55    1.64
  -8   2  -1  255.58    8.34
  -8   2  -1  251.44    9.74
  -8  -2  -1  270.38    8.95
  -8   2   1  242.18    9.06
  -7  -2  -1   68.26    2.79
  -7   2   1   59.78    2.87
  -7   2  -1   61.58    3.30
  -7   2  -1   71.97    3.22
  -7   2  -1   64.43    2.35
  -6   2  -1  172.53    6.36
  -6   2  -1  177.94    6.11
  -6  -2  -1  170.87    5.71
  -6   2  -1  164.05    5.28
  -5   2  -1  127.67    4.54
  -5   2  -1  112.40    3.79
  -5   2  -1  119.90    4.57
  -5  -2  -1  118.28    4.14
  -4  -2  -1   25.45    0.95
  -4   2  -1   24.36    0.98
  -4  -2   1   24.16    1.27
  -3  -2   1   33.93    1.44
  -3  -2  -1   33.07    1.17
  -3   2  -1   31.29    1.19
  -2  -2  -1   80.51    2.64
  -2   2  -1   78.06    2.66
  -2   2  -1   89.75    2.93
  -2  -2   1   86.60    2.85
  -1  -2  -1    0.73    0.22
  -1  -2  -1    0.78    0.15
  -1   2  -1    0.83    0.22
   0   2  -1  372.14   11.56
   0  -2  -1  370.53   11.53
   0  -2  -1  377.79   11.59
   1   2   1    1.23    0.17
   1  -2  -1    0.85    0.25
   1   2  -1    0.50    0.16
   2   2  -1   78.33    2.74
   2   2   1   79.55    2.64
   2  -2   1   80.95    2.67
   3  -2   1   33.31    1.25
   3   2  -1   33.11    1.40
   3  -2  -1   37.92    1.68
   3  -2   1   38.68    1.84
   4   2  -1   28.39    1.28
   4  -2   1   25.38    1.05
   5   2  -1  115.02    4.21
   5   2   1  124.33    5.88
   6   2   1  163.77    7.43
   6   2  -1  166.42    5.77
   6   2   1  158.80    5.88
   7   2   1   63.93    4.34
   7   2   1   60.78    2.87
   7   2  -1   63.98    2.76
   7   2   1   62.03    2.60
   8   2  -1  261.14    7.75
   8   2   1  235.18   10.05
   8   2   1  240.94    7.91
   9   2   1    2.63    0.96
   9   2   1    3.44    1.34
   9   2  -1    3.39    0.86
   9   2  -1    2.44    0.70
  10   2   1  157.98    8.63
  10   2  -1  213.52    7.11
  10   2  -1  140.47    6.61
  10   2   1  191.28    7.23
  11   2   1   29.95    3.36
  11   2  -1   36.51    2.33
  11   2   1   34.53    2.48
  12   2   1    5.48    1.37
  12   2  -1    3.28    1.09
  12   2   1    1.49    1.24
  13   2   1   31.72    2.66
  13   2  -1   32.07    2.43
  14   2  -1   13.49    1.75
  14   2   1   12.49    1.86
  15   2  -1    3.38    1.30
  15   2   1    2.22    1.34
  16   2  -1   48.08    3.29
  16   2   1   49.34    3.60
  17   2  -1   -0.18    1.22
  17   2   1    0.90    1.40
  18   2   1   19.10    2.41
  18   2  -1   16.96    2.11
 -18  -3  -1   12.38    2.10
 -18   3  -1   10.47    2.59
 -17   3   1    0.20    1.53
 -17  -3  -1    0.07    1.27
 -17   3  -1   -0.21    1.63
 -17   3  -1   -0.14    2.28
 -16   3  -1   21.36    1.50
 -16   3  -1   17.58    2.59
 -16   3   1   17.24    2.50
 -16  -3  -1   19.26    2.20
 -15   3  -1   35.74    1.93
 -15   3   1   27.87    3.01
 -15   3  -1   48.86    4.98
 -15   3   1   45.97    3.12
 -15  -3  -1   32.73    2.67
 -15   3  -1   34.59    3.31
 -14  -3  -1    6.84    1.42
 -14   3  -1    8.38    0.92
 -14   3   1    5.45    1.65
 -14   3  -1    6.37    1.69
 -14   3  -1   10.32    2.89
 -14   3   1    9.21    1.68
 -13   3  -1   52.81    2.40
 -13   3  -1   72.56    6.56
 -13   3   1   39.09    3.48
 -13   3   1   72.05    4.30
 -13   3  -1   48.90    3.70
 -13  -3  -1   49.23    3.09
 -13   3   1   57.04    3.24
 -13   3  -1   68.79    3.89
 -12   3  -1    2.92    1.40
 -12  -3  -1    2.88    0.94
 -12   3  -1    2.72    2.07
 -12   3  -1    1.33    1.21
 -12   3   1    3.77    1.14
 -12   3  -1    2.45    0.56
 -12   3   1    1.79    1.20
 -11   3  -1   43.05    1.96
 -11   3  -1   41.74    3.14
 -11   3   1   41.88    2.62
 -11   3  -1   43.67    4.69
 -11   3  -1   51.56    3.18
 -11  -3  -1   40.52    2.52
 -10   3  -1   57.64    2.41
 -10   3   1   61.48    3.13
 -10   3  -1   55.96    3.53
 -10  -3  -1   61.71    3.04
  -9   3  -1    0.23    0.36
  -9   3  -1    2.36    0.99
  -9  -3  -1    0.97    0.61
  -9   3   1    0.53    0.72
  -9   3  -1    0.30    0.87
  -8  -3  -1   86.00    3.48
  -8   3   1   73.39    3.41
  -8   3  -1   91.69    3.89
  -8  -3   1   79.46    3.56
  -8   3  -1   80.13    2.94
  -8   3  -1   83.84    4.03
  -7   3  -1   12.15    0.75
  -7  -3   1   11.74    1.11
  -7   3   1   10.85    1.03
  -7  -3  -1   13.02    1.03
  -7   3  -1   15.19    1.34
  -7   3  -1   13.89    1.40
  -6  -3   1   43.44    2.13
  -6   3  -1   43.32    1.70
  -6  -3  -1   43.68    1.64
  -6   3  -1   46.11    2.39
  -5   3  -1  254.43    8.27
  -5  -3   1  249.98    8.04
  -5   3  -1  229.44    7.55
  -5   3   1  235.37    7.91
  -5  -3  -1  238.63    7.51
  -4   3  -1   16.57    0.81
  -4   3   1   17.65    1.03
  -4  -3   1   18.59    1.08
  -4  -3  -1   18.60    0.80
  -4   3  -1   20.60    1.25
  -3  -3  -1  257.66    7.99
  -3   3   1  248.23    8.22
  -3   3  -1  267.57    8.38
  -3   3  -1  251.00    8.02
  -2  -3   1  163.96    5.33
  -2  -3  -1  155.86    5.03
  -2   3  -1  148.56    5.04
  -2   3  -1  163.79    5.28
  -2  -3  -1  165.80    5.24
  -1  -3  -1  110.47    3.68
  -1  -3   1  118.39    3.91
  -1   3  -1  116.61    3.84
  -1  -3  -1  116.19    3.81
  -1   3  -1  106.59    3.67
   0  -3  -1  274.27    8.56
   0  -3  -1  257.69    8.43
   0   3  -1  260.92    8.53
   1  -3  -1  113.11    3.85
   1  -3  -1  112.84    3.77
   1  -3   1  117.95    3.96
   1   3   1  110.48    3.70
   2   3   1  152.93    5.08
   2  -3   1  177.94    5.57
   2  -3   1  158.64    5.12
   2   3  -1  151.99    5.17
   2  -3  -1  170.67    5.40
   3  -3  -1  283.61    8.74
   3  -3   1  297.96    8.98
   3   3  -1  241.89    8.37
   3  -3   1  260.87    8.29
   4  -3   1   18.24    1.39
   4  -3  -1   19.97    1.26
   4   3  -1   17.91    1.02
   4  -3   1   19.58    0.90
   5   3  -1  223.20    7.73
   5  -3   1  239.95    7.57
   6   3   1   43.59    2.16
   6   3  -1   43.02    2.03
   6   3  -1   42.10    1.95
   7   3  -1   11.92    1.02
   7   3   1   14.32    2.07
   7   3   1   11.74    1.13
   8   3   1   78.55    3.55
   8   3  -1   80.02    3.37
   9   3  -1    1.12    0.72
   9   3   1    0.28    0.83
   9   3  -1    0.53    0.64
   9   3   1    0.34    1.26
  10   3   1   55.13    3.02
  10   3   1   52.37    4.41
  10   3  -1   56.74    2.80
  11   3  -1   30.28    2.43
  11   3   1   41.25    2.70
  11   3   1   28.06    3.27
  11   3  -1   38.79    2.44
  12   3  -1    1.62    1.03
  12   3   1    2.59    1.43
  12   3   1    2.36    1.19
  12   3  -1    1.69    0.85
  13   3  -1   47.64    2.89
  13   3   1   41.32    4.23
  13   3   1   50.64    3.20
  14   3   1    7.01    1.64
  14   3   1    4.11    1.62
  14   3  -1    7.54    1.50
  15   3   1   34.20    2.94
  15   3  -1   34.68    2.67
  16   3   1   22.46    2.53
  16   3  -1   21.20    2.22
  17   3  -1    0.55    1.22
  17   3   1   -0.54    1.43
 -18   4  -1    6.54    2.88
 -17   4   1    0.78    1.50
 -17   4  -1   -0.10    1.49
 -17  -4  -1    1.08    1.28
 -17   4  -1   -0.16    2.14
 -16   4  -1   18.56    1.41
 -16   4  -1   18.70    2.58
 -16   4  -1   25.67    4.20
 -16   4   1   22.86    2.52
 -16  -4  -1   18.84    2.12
 -16   4   1   15.30    2.42
 -15   4  -1   29.58    3.04
 -15  -4  -1   29.56    2.49
 -15   4  -1   46.58    5.64
 -15   4   1   39.36    3.54
 -15   4   1   22.59    2.78
 -15   4  -1   28.76    1.71
 -14   4   1    6.73    1.20
 -14  -4  -1    7.25    1.38
 -14   4   1    5.72    1.61
 -14   4   1    7.02    1.79
 -14   4  -1    5.68    0.83
 -14   4  -1    7.09    1.78
 -14   4  -1    7.21    2.91
 -13   4  -1   61.91    2.64
 -13   4   1   63.75    3.46
 -13  -4  -1   60.08    3.39
 -13  -4   1   50.59    3.36
 -13   4  -1   64.58    4.15
 -13   4  -1   79.80    4.17
 -13   4  -1   70.98    6.17
 -13   4   1   65.42    3.16
 -13   4   1   44.47    3.71
 -12   4   1    0.31    1.08
 -12   4  -1   -0.06    1.09
 -12   4  -1    0.06    0.44
 -12  -4  -1    1.67    0.95
 -12   4   1   -0.34    0.75
 -12   4   1   -0.09    0.88
 -12   4  -1    0.58    1.08
 -12  -4   1    0.51    0.93
 -11   4  -1   40.55    3.04
 -11   4   1   37.74    2.43
 -11   4  -1   49.46    3.02
 -11  -4   1   39.58    2.62
 -11   4   1   40.76    2.27
 -11   4  -1   38.87    1.86
 -11  -4  -1   40.76    2.46
 -10  -4  -1   60.89    3.05
 -10   4  -1   58.82    3.56
 -10  -4   1   63.69    3.30
 -10   4  -1   60.12    2.49
 -10   4   1   56.04    3.00
 -10   4   1   63.57    2.92
  -9   4   1    2.62    0.71
  -9   4  -1    2.63    0.51
  -9   4   1    2.76    0.77
  -9   4  -1    3.10    0.97
  -9  -4   1    2.95    0.85
  -9   4  -1    2.74    1.00
  -8   4  -1   59.07    3.14
  -8   4  -1   57.30    2.31
  -8  -4  -1   58.95    2.25
  -8   4   1   54.99    2.61
  -8   4   1   55.49    2.75
  -8  -4   1   63.64    2.97
  -8   4  -1   66.84    3.19
  -7  -4  -1   28.56    1.26
  -7  -4   1   31.24    1.81
  -7   4   1   27.19    1.55
  -7   4  -1   30.06    1.96
  -7   4  -1   25.20    1.26
  -6  -4  -1   32.94    1.37
  -6   4  -1   30.69    1.39
  -6   4  -1   36.83    2.06
  -6   4   1   30.75    1.62
  -6  -4   1   34.74    1.84
  -5  -4  -1  168.36    5.34
  -5   4   1  166.70    5.67
  -5   4  -1  154.51    5.35
  -5   4  -1  167.10    5.93
  -4   4  -1   33.01    1.41
  -4   4  -1   37.63    1.80
  -4  -4  -1   33.88    1.39
  -4   4   1   35.75    1.62
  -3   4  -1  246.00    8.20
  -3   4  -1  265.75    8.56
  -3  -4   1  275.81    8.64
  -3  -4  -1  255.21    8.19
  -3   4   1  258.44    8.39
  -3  -4  -1  269.60    8.50
  -2  -4  -1   76.39    2.75
  -2  -4   1   86.73    3.12
  -2   4  -1   85.40    3.08
  -2  -4   1   83.50    2.89
  -2  -4  -1   85.66    3.01
  -2   4  -1   71.73    2.74
  -1   4  -1   73.74    2.71
  -1   4  -1   80.48    2.93
  -1  -4  -1   76.14    2.74
  -1  -4  -1   80.93    2.91
   0   4  -1  203.07    6.86
   0  -4  -1  213.77    6.89
   0  -4  -1  198.78    6.70
   1  -4   1   85.86    3.10
   1  -4  -1   80.72    2.83
   1   4   1   75.30    2.77
   1  -4  -1   79.22    2.94
   2   4  -1   72.44    2.77
   2   4   1   74.06    2.69
   2  -4   1   78.59    2.75
   2  -4  -1   77.79    2.80
   2  -4  -1   82.22    3.01
   3   4  -1  249.06    8.37
   3   4   1  247.30    8.21
   3  -4   1  265.33    8.30
   3  -4  -1  270.93    8.66
   4   4  -1   31.49    1.52
   4  -4   1   33.21    1.44
   5  -4  -1  172.19    6.12
   5   4  -1  157.00    5.61
   5  -4   1  160.56    5.46
   6  -4   1   38.31    2.42
   6   4   1   37.05    3.36
   6  -4  -1   34.73    2.09
   6   4  -1   30.44    1.61
   7   4   1   30.79    3.18
   7   4  -1   25.35    1.44
   8   4  -1   54.35    2.65
   8   4   1   57.51    2.91
   8   4   1   59.79    4.64
   9   4   1    1.15    1.38
   9   4  -1    2.60    0.79
   9   4   1    2.38    0.83
  10   4   1   42.34    3.96
  10   4  -1   59.52    2.92
  10   4   1   64.73    3.25
  10   4  -1   40.52    3.16
  11   4  -1   40.17    2.41
  11   4   1   38.90    2.64
  11   4   1   24.18    3.26
  11   4  -1   22.75    2.25
  12   4  -1    0.07    0.81
  12   4  -1   -0.44    0.89
  12   4   1    0.33    1.06
  12   4   1    0.28    1.44
  13   4  -1   56.71    3.20
  13   4  -1   40.35    3.13
  13   4   1   63.40    3.62
  13   4   1   39.74    4.22
  14   4  -1    6.00    1.38
  14   4   1    8.08    1.71
  14   4   1    3.55    1.85
  14   4  -1    4.66    1.22
  15   4  -1   15.67    1.77
  15   4   1   19.13    3.14
  15   4  -1   28.01    2.38
  15   4   1   32.08    2.75
  16   4   1   20.02    2.43
  16   4  -1   18.76    2.12
  17   4   1    0.62    1.49
  17   4  -1    0.18    1.28
 -17   5  -1   -0.20    2.66
 -16  -5   1   20.35    2.37
 -16   5   1   22.84    2.72
 -16   5  -1   28.37    2.92
 -15   5  -1    3.64    0.80
 -15  -5   1    3.65    1.42
 -15   5  -1    3.20    1.53
 -15   5  -1    3.00    2.68
 -15   5   1    2.48    1.42
 -14   5  -1   14.62    2.08
 -14  -5   1   13.36    1.80
 -14   5   1   10.09    1.88
 -14   5  -1   14.90    1.19
 -13   5   1   10.99    1.26
 -13  -5   1   11.27    1.62
 -13   5  -1    9.90    0.97
 -13   5  -1   10.10    1.72
 -13  -5  -1    9.45    0.94
 -13   5   1    6.32    1.53
 -12   5   1    5.05    1.44
 -12   5  -1    6.69    1.45
 -12  -5   1    9.75    1.44
 -12   5   1    6.29    1.17
 -12   5  -1    9.14    1.57
 -12   5  -1    8.69    0.87
 -12   5   1    8.62    1.11
 -12  -5  -1    8.25    0.85
 -11  -5  -1   23.84    1.33
 -11  -5   1   22.46    1.95
 -11   5  -1   27.60    2.24
 -11   5  -1   23.58    1.37
 -11   5   1   18.48    2.14
 -11   5   1   22.20    1.77
 -11   5   1   24.01    1.68
 -11   5  -1   23.49    2.21
 -10   5  -1  116.08    5.31
 -10   5   1  102.25    4.59
 -10  -5  -1  113.90    4.05
 -10  -5   1  116.22    4.93
 -10   5  -1  107.40    4.07
 -10   5   1  113.59    4.52
  -9   5   1    0.05    0.65
  -9   5  -1    0.68    0.89
  -9  -5  -1    0.68    0.46
  -9   5   1    0.55    0.72
  -9  -5   1    0.69    0.79
  -9   5  -1    1.17    0.50
  -9   5  -1    0.15    0.97
  -8   5   1  221.31    7.93
  -8   5  -1  236.93    8.63
  -8  -5  -1  239.33    7.56
  -8   5  -1  223.36    7.57
  -7  -5  -1   12.62    0.83
  -7   5  -1   13.72    1.34
  -7   5   1   11.93    1.06
  -7   5  -1   12.53    0.86
  -6   5   1   62.45    2.71
  -6   5  -1   70.09    3.11
  -6   5  -1   62.02    2.49
  -6  -5  -1   68.84    2.50
  -5   5  -1   54.25    2.53
  -5   5  -1   50.45    2.08
  -5  -5  -1   54.55    2.08
  -5   5   1   52.65    2.28
  -4   5   1    4.97    0.59
  -4   5  -1    5.43    0.72
  -4   5  -1    4.67    0.51
  -4  -5   1    6.78    0.82
  -4  -5  -1    5.15    0.51
  -4  -5  -1    5.28    0.71
  -4  -5   1    5.22    0.59
  -3  -5   1   18.28    1.24
  -3  -5  -1   16.63    0.90
  -3   5  -1   14.73    0.89
  -3  -5  -1   17.27    1.13
  -3   5  -1   17.86    1.21
  -3  -5   1   17.23    1.02
  -2  -5  -1  135.36    4.69
  -2   5  -1  133.95    4.75
  -2  -5   1  141.67    4.86
  -2  -5  -1  126.57    4.43
  -2  -5   1  137.32    4.57
  -2   5  -1  123.81    4.42
  -1   5  -1    5.60    0.51
  -1   5  -1    5.53    0.66
  -1  -5  -1    6.02    0.53
  -1  -5  -1    6.64    0.70
  -1  -5   1    7.01    0.76
   0  -5  -1  144.27    4.97
   0   5  -1  150.69    5.20
   0  -5  -1  150.59    5.18
   0   5   1  141.05    4.98
   1  -5  -1    5.96    0.66
   1  -5   1    6.00    0.72
   1   5   1    6.03    0.54
   1  -5  -1    5.58    0.56
   2  -5   1  125.11    4.34
   2  -5  -1  124.83    4.38
   2   5   1  121.94    4.28
   2  -5  -1  128.00    4.60
   3  -5  -1   15.89    1.16
   3  -5  -1   14.95    0.96
   3  -5   1   16.25    0.94
   3   5  -1   16.85    1.01
   4  -5   1    7.32    0.98
   4   5   1    5.05    0.73
   4   5  -1    4.84    0.60
   4  -5  -1    8.05    0.90
   4  -5   1    5.15    0.55
   5  -5   1   55.22    2.20
   5  -5  -1   57.31    2.69
   5  -5   1   62.28    3.05
   6  -5  -1   68.11    3.23
   6   5  -1   61.31    2.70
   6  -5   1   65.39    2.60
   7  -5  -1   11.80    1.40
   7   5  -1   11.47    1.00
   8   5   1  222.19   10.75
   8   5  -1  205.50    7.20
   9   5   1    0.14    1.54
   9   5  -1    1.49    0.76
   9   5  -1    2.06    0.69
   9   5   1    0.24    0.77
  10   5   1   93.72    6.51
  10   5   1  105.42    4.60
  10   5  -1   99.41    4.26
  11   5  -1   15.01    2.05
  11   5   1   14.35    2.46
  11   5   1   23.32    2.03
  11   5  -1   22.54    1.78
  12   5   1    3.47    1.81
  12   5  -1    4.82    1.34
  12   5  -1    7.09    1.27
  12   5   1    8.05    1.51
  13   5   1   10.10    1.61
  13   5  -1    8.21    1.35
  13   5  -1    6.61    1.48
  14   5  -1   13.85    1.74
  14   5   1   13.20    1.96
  14   5   1    8.23    2.34
  14   5  -1    8.79    1.68
  15   5   1    2.41    1.49
  15   5  -1    1.60    1.30
  15   5   1    1.18    1.50
  15   5  -1    0.89    0.93
  16   5   1   17.20    3.21
  16   5  -1   23.84    2.33
  16   5   1   22.29    2.58
 -17   6  -1    1.69    3.49
 -16  -6  -1    1.75    0.78
 -16   6  -1    2.24    2.59
 -15   6  -1   15.51    2.28
 -15  -6  -1   18.26    1.34
 -14  -6  -1    1.45    0.72
 -14   6  -1    0.99    0.68
 -14   6  -1   -0.76    1.56
 -14   6   1    0.41    1.38
 -13  -6  -1   62.16    2.62
 -13   6  -1   59.54    2.64
 -13   6  -1   57.83    3.88
 -12   6  -1    1.10    0.62
 -12  -6  -1    0.57    0.61
 -12   6  -1    0.06    1.27
 -12   6   1    0.07    1.25
 -11   6  -1   53.86    3.45
 -11   6  -1   56.68    2.49
 -11   6   1   51.29    2.89
 -11   6  -1   65.51    3.51
 -11  -6  -1   62.50    2.50
 -11   6   1   56.65    2.79
 -10   6  -1    2.63    0.64
 -10   6   1    2.38    0.78
 -10   6   1    1.85    0.77
 -10  -6  -1    2.76    0.65
 -10   6  -1    3.11    1.07
 -10   6  -1    2.39    1.12
 -10   6   1    1.36    1.10
  -9   6   1    1.91    0.72
  -9  -6  -1    3.17    0.59
  -9   6  -1    3.55    1.12
  -9   6  -1    2.94    0.60
  -8   6  -1    0.04    0.80
  -8  -6  -1    1.28    0.50
  -8   6  -1    0.36    0.50
  -8   6   1    0.54    0.61
  -7   6  -1   53.42    2.32
  -7   6   1   55.34    2.55
  -7   6  -1   58.07    2.95
  -7  -6  -1   58.85    2.34
  -6  -6  -1   17.79    1.05
  -6   6   1   15.37    1.17
  -6  -6  -1   17.88    1.39
  -6   6  -1   16.79    1.43
  -6  -6   1   18.41    1.23
  -6   6  -1   16.73    1.06
  -5   6  -1  197.58    6.87
  -5  -6  -1  202.96    6.85
  -5  -6   1  213.33    7.09
  -5   6   1  200.11    7.08
  -5  -6  -1  217.94    7.31
  -5  -6   1  224.62    7.51
  -5   6  -1  208.22    7.40
  -4   6   1    4.31    0.63
  -4   6  -1    4.31    0.88
  -4   6  -1    3.75    0.54
  -4  -6  -1    4.01    0.54
  -4  -6   1    5.15    0.69
  -4  -6  -1    4.58    0.75
  -4  -6   1    3.80    0.83
  -3  -6   1  221.52    7.20
  -3  -6   1  216.26    6.88
  -3   6  -1  185.63    6.63
  -3   6  -1  201.76    7.07
  -3  -6  -1  192.68    6.66
  -3  -6  -1  210.02    6.99
  -2   6  -1    0.27    0.35
  -2  -6   1    1.70    0.60
  -2  -6   1    0.12    0.36
  -2  -6  -1    0.09    0.50
  -2  -6  -1    0.03    0.36
  -2   6  -1    0.09    0.49
  -1  -6  -1   29.24    1.44
  -1   6  -1   32.24    1.72
  -1   6  -1   28.92    1.40
  -1  -6  -1   32.94    1.71
   0   6  -1   24.74    1.47
   0   6   1   22.33    1.24
   0  -6  -1   22.94    1.24
   0  -6  -1   25.64    1.44
   1  -6  -1   28.95    1.44
   1  -6  -1   31.14    1.62
   1   6   1   27.83    1.39
   2   6   1    0.40    0.36
   2  -6  -1   -0.03    0.37
   2  -6   1    0.09    0.58
   2  -6  -1    0.12    0.50
   3  -6   1  199.91    6.64
   3  -6  -1  208.27    7.04
   3  -6  -1  186.19    6.64
   3   6  -1  186.63    6.66
   4   6  -1    4.24    0.65
   4  -6  -1    4.60    0.80
   4  -6   1    3.87    0.57
   4   6   1    4.57    0.74
   4  -6   1    4.38    0.92
   5   6  -1  191.88    7.06
   5  -6   1  206.61    7.02
   5   6   1  205.30    7.30
   6  -6  -1   17.58    1.50
   6   6  -1   14.82    1.10
   6  -6   1   19.67    1.79
   6   6   1   15.50    1.27
   6  -6   1   16.12    1.08
   7   6  -1   52.12    2.50
   7  -6  -1   57.31    3.10
   8   6  -1    0.88    0.58
   8   6   1    0.87    1.59
   9   6   1    3.15    1.96
   9   6  -1    2.87    0.72
  10   6  -1    1.62    0.70
  10   6   1    2.91    1.93
  10   6  -1    1.87    0.89
  10   6   1    3.53    1.12
  11   6  -1   51.41    2.75
  11   6  -1   36.82    3.50
  11   6   1   38.35    4.36
  11   6   1   56.22    3.10
  12   6  -1    0.04    0.87
  12   6   1    0.72    1.52
  12   6   1    0.60    1.07
  12   6  -1    0.19    1.17
  13   6  -1   34.24    3.27
  13   6   1   62.14    3.58
  13   6  -1   58.08    3.11
  13   6   1   38.99    4.44
  14   6  -1    1.00    1.07
  14   6   1    0.90    1.27
  14   6  -1    0.09    1.01
  14   6   1    0.49    1.71
  15   6   1   16.77    2.22
  15   6  -1   15.38    1.84
  15   6  -1   12.43    2.02
  16   6   1    1.66    1.58
 -17   7  -1   -1.27    2.96
 -16  -7  -1   26.51    1.79
 -15  -7  -1    0.80    0.77
 -14  -7  -1    5.92    0.95
 -14   7  -1    4.54    1.58
 -14   7   1    3.51    1.56
 -13   7   1    1.53    1.39
 -13  -7  -1    0.97    0.67
 -13   7  -1    0.34    1.30
 -12   7   1    5.56    1.65
 -12   7  -1    7.79    0.93
 -12   7  -1    7.20    1.65
 -12  -7  -1    8.21    0.99
 -11   7   1   -0.33    1.08
 -11   7  -1   -0.28    1.05
 -11  -7  -1    0.95    0.62
 -11   7  -1    0.19    0.60
 -10  -7   1   53.27    2.61
 -10   7  -1   46.86    2.27
 -10  -7  -1   53.05    2.32
 -10   7  -1   48.36    3.03
  -9   7   1    1.05    0.68
  -9  -7   1    0.92    0.72
  -9   7   1    1.49    0.99
  -9   7  -1    0.97    0.93
  -9  -7  -1    1.59    0.64
  -9   7  -1    1.19    0.62
  -8   7  -1   84.46    4.04
  -8  -7   1   89.60    3.59
  -8   7  -1   81.70    3.32
  -8  -7  -1   90.30    3.35
  -8   7   1   80.43    3.54
  -8   7   1   76.72    4.17
  -7   7   1    0.94    0.63
  -7  -7   1    0.77    0.86
  -7  -7  -1    1.31    0.54
  -7  -7   1    0.51    0.65
  -7  -7  -1    0.66    0.83
  -7   7  -1    1.00    0.83
  -7   7  -1    0.86    0.55
  -6  -7   1   47.66    2.31
  -6   7   1   45.72    2.27
  -6   7  -1   51.82    2.73
  -6  -7  -1   54.85    2.60
  -6  -7   1   51.55    2.74
  -6   7  -1   45.39    2.11
  -6  -7  -1   47.84    2.12
  -5   7  -1    0.45    0.80
  -5  -7  -1    0.64    0.49
  -5   7   1    1.10    0.55
  -5  -7   1    0.65    0.57
  -5  -7   1    1.20    0.86
  -5  -7  -1    0.84    0.71
  -5   7  -1    1.01    0.51
  -4   7  -1    0.43    0.45
  -4  -7  -1    0.37    0.45
  -4  -7   1    0.31    0.56
  -4   7   1    0.57    0.52
  -4  -7  -1    0.67    0.64
  -4  -7   1    0.79    0.77
  -4   7  -1    0.58    0.73
  -3   7  -1    9.03    0.81
  -3   7  -1   10.93    1.15
  -3  -7   1   10.35    0.93
  -3  -7  -1    9.26    1.03
  -3  -7   1   11.19    1.18
  -3  -7  -1   10.45    0.86
  -2  -7   1  165.74    5.69
  -2  -7  -1  141.18    5.06
  -2   7  -1  130.81    4.97
  -2  -7   1  152.15    5.21
  -2  -7  -1  153.44    5.42
  -2   7  -1  145.14    5.46
  -1  -7  -1    1.23    0.66
  -1  -7   1    0.85    0.72
  -1  -7   1    1.41    0.56
  -1  -7  -1    0.56    0.46
  -1   7  -1    0.99    0.68
   0   7   1  268.99    9.19
   0  -7  -1  272.84    9.21
   0   7  -1  277.67    9.53
   0  -7  -1  292.01    9.51
   1  -7  -1    0.55    0.57
   1  -7   1    0.74    0.68
   1  -7  -1    0.67    0.52
   1   7   1    0.62    0.46
   2  -7  -1  147.74    5.30
   2  -7  -1  135.90    4.95
   2   7   1  130.57    4.86
   3  -7  -1    9.00    0.86
   3  -7   1   11.25    1.35
   3   7  -1    9.35    0.89
   3  -7   1    9.83    0.87
   3  -7  -1   10.37    1.15
   4  -7   1    0.08    0.46
   4   7  -1    1.12    0.57
   4  -7   1    0.48    0.76
   4  -7  -1    0.38    0.66
   5  -7   1    0.54    0.51
   5   7  -1    1.03    0.58
   5  -7   1    1.27    0.97
   5  -7  -1    1.19    0.77
   5   7   1    0.68    0.67
   6  -7   1   54.22    3.12
   6   7  -1   42.42    2.17
   6   7   1   47.68    2.44
   6  -7   1   46.28    2.17
   6  -7  -1   50.80    2.74
   7  -7  -1    0.61    0.82
   7   7   1    0.49    0.70
   7  -7   1    0.57    1.01
   7   7  -1    0.68    0.62
   7  -7   1    1.13    0.60
   8  -7  -1   86.00    4.17
   8   7  -1   75.54    3.40
   8   7   1   79.13    3.57
   9   7   1    0.83    1.82
   9   7   1    1.56    0.75
   9   7  -1    0.83    0.67
  10   7   1   47.48    2.86
  10   7  -1   45.23    2.55
  10   7  -1   40.78    2.27
  10   7   1   42.78    4.88
  11   7   1    0.37    1.80
  11   7  -1    0.94    0.91
  11   7   1    1.25    1.13
  12   7   1    3.58    2.17
  12   7  -1    5.05    1.73
  12   7  -1    6.14    1.18
  12   7   1    6.88    1.46
  13   7  -1    0.22    1.36
  13   7  -1    1.61    1.05
  13   7   1    0.92    1.19
  14   7  -1    2.90    1.40
  14   7  -1    4.85    1.35
  14   7   1    6.24    1.63
  15   7   1   -0.21    1.45
 -15  -8  -1    8.85    1.14
 -14  -8  -1    0.57    0.78
 -14  -8   1    0.24    0.98
 -13  -8   1   41.65    2.45
 -13  -8  -1   41.13    2.14
 -13   8  -1   39.30    2.99
 -12   8   1    2.36    1.25
 -12   8  -1    2.73    1.27
 -12  -8   1    3.78    1.02
 -12  -8  -1    3.73    0.89
 -11  -8  -1   45.79    2.23
 -11   8  -1   40.25    2.92
 -11  -8   1   43.58    2.45
 -10   8   1    4.20    1.35
 -10   8  -1    5.01    1.28
 -10  -8   1    3.93    1.00
 -10  -8  -1    4.94    0.86
  -9   8  -1    3.15    1.12
  -9  -8  -1    2.94    0.75
  -9   8   1    3.51    1.24
  -9   8  -1    2.69    0.74
  -9  -8   1    2.92    0.88
  -8  -8   1   11.64    1.19
  -8   8  -1   10.54    1.43
  -8  -8  -1    8.18    0.90
  -8   8  -1    8.77    0.94
  -8   8   1    8.84    1.52
  -7  -8  -1   36.22    1.89
  -7   8   1   35.29    2.02
  -7   8   1   37.47    2.71
  -7  -8  -1   41.70    2.41
  -7  -8   1   42.65    2.56
  -7  -8   1   39.99    2.16
  -7   8  -1   36.20    1.90
  -7   8  -1   42.27    2.61
  -6   8  -1    6.38    0.82
  -6   8   1    7.01    0.91
  -6  -8   1    7.89    1.01
  -6  -8  -1    6.81    0.81
  -6   8  -1    8.14    1.27
  -6   8   1    5.46    1.35
  -6  -8  -1    7.20    1.09
  -6  -8   1    8.07    1.25
  -5   8   1  103.02    4.33
  -5   8  -1  109.14    4.21
  -5  -8   1  122.59    4.51
  -5  -8  -1  113.74    4.26
  -5  -8   1  128.33    4.95
  -5  -8  -1  120.03    4.69
  -5   8  -1  117.06    4.83
  -4  -8  -1    2.84    0.64
  -4   8   1    1.58    0.63
  -4  -8  -1    1.97    0.82
  -4   8  -1    2.30    0.94
  -4   8  -1    2.02    0.59
  -4  -8   1    1.54    0.66
  -4  -8   1    1.96    0.85
  -3  -8   1   79.35    3.25
  -3   8  -1   79.27    3.55
  -3  -8  -1   76.62    3.11
  -3  -8  -1   81.93    3.44
  -3  -8   1   88.63    3.72
  -3   8  -1   68.26    2.98
  -2   8  -1    4.42    0.95
  -2   8  -1    4.71    0.67
  -2  -8  -1    5.03    0.74
  -2  -8  -1    5.95    0.98
  -2  -8   1    5.30    1.06
  -2  -8   1    5.87    0.82
  -1  -8   1   13.45    1.08
  -1   8  -1   13.84    1.29
  -1  -8  -1   14.25    1.23
  -1  -8   1   12.57    1.32
  -1  -8  -1   12.56    1.01
  -1   8   1   12.63    1.03
   0  -8  -1   15.35    1.15
   0   8   1   17.71    1.17
   0  -8  -1   15.64    1.31
   1  -8  -1   13.10    1.21
   1  -8   1   15.62    1.45
   1  -8  -1   12.81    1.05
   1   8   1   11.82    0.95
   2   8   1    5.07    0.69
   2  -8  -1    5.23    0.75
   2  -8   1    5.03    1.05
   2  -8  -1    4.50    0.90
   3  -8  -1   71.81    3.09
   3  -8   1   75.47    3.12
   3  -8  -1   80.35    3.55
   3   8  -1   72.21    3.12
   4   8  -1    1.77    0.66
   4  -8   1    1.96    0.66
   4  -8   1    2.99    1.03
   4  -8  -1    2.72    0.81
   5  -8  -1  119.33    4.97
   5   8  -1  106.49    4.37
   5   8   1  113.35    4.66
   5  -8   1  115.31    4.41
   6   8  -1    5.62    0.86
   6   8   1    6.19    1.01
   6  -8   1    6.84    0.87
   6  -8   1    7.76    1.42
   6  -8  -1    7.27    1.22
   7   8  -1   31.22    1.86
   7   8   1   34.03    2.09
   7  -8   1   39.17    2.87
   7  -8   1   34.50    1.92
   7  -8  -1   35.75    2.43
   8   8  -1    7.75    1.01
  11   8   1   40.99    2.82
  11   8  -1   37.91    2.48
  12   8  -1    1.01    1.53
  12   8   1    4.36    1.40
  12   8  -1    3.70    1.16
  13   8   1   37.72    2.81
  13   8  -1   33.28    2.39
 -14  -9  -1    2.99    0.94
 -13  -9   1   11.12    1.48
 -13  -9  -1   10.59    1.20
 -12  -9   1    2.96    1.08
 -12  -9  -1    2.89    0.93
 -12   9  -1    2.42    1.33
 -11   9   1    6.88    1.63
 -11  -9  -1   10.61    1.19
 -11  -9   1   10.69    1.38
 -11   9  -1    8.91    1.64
 -10  -9  -1   27.40    1.77
 -10  -9   1   33.35    2.15
 -10   9   1   29.21    2.62
 -10   9  -1   32.32    2.59
  -9  -9  -1    0.66    0.74
  -9  -9   1    1.35    0.91
  -9   9  -1    0.71    1.17
  -9   9   1    0.20    1.22
  -8  -9   1   60.03    2.87
  -8   9   1   50.63    3.43
  -8   9  -1   55.58    3.32
  -8  -9  -1   53.51    2.58
  -7  -9   1   18.67    1.52
  -7  -9  -1   18.01    1.35
  -7   9  -1   17.45    1.82
  -7   9   1   15.34    1.91
  -6  -9  -1   24.10    1.52
  -6  -9   1   24.87    1.70
  -6   9  -1   24.38    1.99
  -6   9   1   22.47    2.15
  -5  -9   1   27.19    1.74
  -5  -9  -1   26.36    1.61
  -5   9   1   25.31    2.20
  -5   9  -1   26.48    2.00
  -4  -9   1    0.31    0.69
  -4   9   1    0.96    1.07
  -4   9  -1    0.39    0.92
  -4  -9  -1    0.89    0.63
  -3  -9   1   18.95    1.44
  -3  -9   1   24.03    1.90
  -3  -9  -1   19.57    1.36
  -3   9   1   20.39    1.93
  -3   9  -1   21.06    1.75
  -3   9  -1   17.94    1.26
  -2  -9   1   37.83    2.08
  -2  -9  -1   38.72    2.00
  -2  -9  -1   39.75    2.25
  -2   9   1   37.38    2.54
  -2   9  -1   40.97    2.41
  -2  -9   1   44.14    2.54
  -1  -9  -1    0.23    0.76
  -1   9   1    0.91    0.60
  -1  -9   1    0.65    0.70
  -1  -9  -1    0.73    0.58
  -1  -9   1    0.67    0.90
   0  -9  -1   59.29    2.73
   0  -9  -1   64.80    3.04
   0   9   1   58.74    2.67
   1  -9   1    0.13    1.01
   1  -9  -1    0.04    0.85
   1   9   1    0.85    0.56
   1  -9  -1    0.81    0.64
   2  -9  -1   41.86    2.41
   2  -9   1   46.30    2.76
   3  -9   1   19.14    1.39
   3   9  -1   18.27    1.38
   3  -9   1   22.30    1.99
   3  -9  -1   19.13    1.38
   4  -9   1   -0.08    0.64
   4   9  -1    0.32    0.67
   5   9  -1   24.45    1.64
   5  -9   1   26.50    1.65
   6  -9   1   23.95    1.62
   7  -9   1   16.38    1.37
  11   9  -1    8.91    1.42
  11   9   1    9.76    1.67
  12   9   1    2.15    1.35
 -13 -10  -1   10.13    1.35
 -12 -10  -1    1.01    0.89
 -11 -10  -1    5.55    1.11
 -10 -10   1   11.36    1.47
 -10 -10  -1   11.05    1.29
  -9 -10  -1    0.89    0.82
  -9  10  -1    0.44    1.26
  -9 -10   1    0.75    0.94
  -9  10   1    0.92    1.42
  -8 -10   1   22.95    1.83
  -8 -10  -1   23.35    1.63
  -8  10   1   21.16    2.27
  -8  10  -1   19.95    2.10
  -7 -10   1    6.65    1.13
  -7  10   1    5.20    1.53
  -7 -10  -1    5.75    0.96
  -7  10  -1    4.90    1.37
  -6 -10   1    7.98    1.14
  -6 -10  -1    7.33    1.03
  -6  10  -1    8.04    1.42
  -6  10   1    6.84    1.50
  -5 -10  -1   25.90    1.70
  -5  10  -1   24.35    2.09
  -5  10   1   26.92    2.37
  -5 -10   1   27.69    1.85
  -4 -10   1    0.31    0.82
  -4  10  -1    0.04    1.00
  -4 -10  -1    0.90    0.75
  -4  10   1    0.27    1.19
  -3 -10   1   44.55    2.34
  -3  10   1   41.11    2.84
  -3  10  -1   41.01    2.61
  -3 -10  -1   41.02    2.18
  -2 -10   1   33.94    2.00
  -2 -10  -1   30.67    1.87
  -2  10   1   32.05    2.50
  -2  10  -1   33.75    2.27
  -1 -10  -1    7.17    1.00
  -1 -10   1    8.44    1.09
   0 -10  -1   43.46    2.27
   1 -10  -1    7.09    0.98
   2 -10  -1   32.13    1.91
   3 -10  -1   38.33    2.16
   3 -10   1   41.82    2.25
   4 -10   1    0.30    0.75
   5 -10   1   25.33    1.73
   6 -10   1    7.52    1.10
   7 -10   1    6.11    1.08
  -9 -11  -1    1.32    0.96
  -8 -11  -1    7.82    1.19
  -7 -11  -1    8.83    1.22
  -6  11   1    3.81    1.53
  -6 -11   1    2.28    1.01
  -6 -11  -1    3.34    0.94
  -6  11  -1    2.56    1.27
  -5 -11  -1   25.21    1.80
  -5 -11   1   25.57    1.90
  -5  11  -1   26.91    2.24
  -5  11   1   24.63    2.44
  -4 -11  -1    1.70    0.85
  -4  11   1    1.77    1.35
  -4  11  -1    2.70    1.26
  -4 -11   1    1.57    0.98
  -3 -11   1   38.23    2.27
  -3 -11  -1   36.43    2.15
  -3  11   1   41.99    2.95
  -3  11  -1   37.07    2.60
  -2 -11  -1   10.68    1.24
  -2 -11   1   11.11    1.32
  -1 -11   1    5.67    1.05
  -1 -11  -1    5.78    1.04
   0 -11  -1   11.48    1.25
   1 -11  -1    5.89    1.00
   2 -11  -1    9.71    1.21
   3 -11   1   37.47    2.21
   3 -11  -1   33.28    2.09
   4 -11   1    2.14    0.95
   5 -11   1   25.73    1.84
   6 -11   1    1.98    0.94
 -18   0  -2   40.25    3.19
 -18   0  -2   39.89    4.06
 -17   0   2   -0.24    1.51
 -17   0  -2   -0.06    1.20
 -17   0  -2    1.03    1.84
 -16   0  -2   92.84    6.38
 -16   0   2   90.53    5.12
 -15   0  -2    0.14    1.74
 -15   0  -2    0.03    0.45
 -15   0  -2   -0.32    1.03
 -14   0   2   11.69    1.62
 -14   0  -2   13.14    1.62
 -14   0  -2   12.58    1.87
 -14   0  -2   13.21    0.90
 -13   0  -2   -0.55    1.90
 -13   0  -2   -0.05    0.89
 -13   0   2    0.49    0.96
 -13   0  -2    0.28    1.13
 -12   0  -2   12.76    2.70
 -12   0  -2   12.33    1.40
 -12   0  -2   10.27    1.57
 -12   0   2    9.72    1.35
 -11   0  -2   -0.13    1.57
 -11   0  -2   -0.07    0.75
 -11   0  -2    0.66    1.00
 -11   0   2    0.04    0.84
 -10   0  -2  203.20    9.88
 -10   0  -2  162.82    6.73
 -10   0  -2  189.52    6.47
 -10   0   2  151.67    6.41
  -9   0  -2   -0.14    1.52
  -9   0   2    0.10    0.65
  -9   0  -2   -0.11    0.20
  -9   0  -2    0.39    0.55
  -9   0  -2   -0.12    0.79
  -8   0  -2  259.89    8.25
  -8   0  -2  242.03    7.45
  -8   0   2  215.07    8.44
  -8   0  -2  252.39   11.78
  -8   0  -2  231.73    8.65
  -7   0  -2   -0.25    0.64
  -7   0   2    0.26    0.54
  -7   0  -2    0.17    0.10
  -7   0  -2   -0.07    0.37
  -7   0  -2    0.13    1.36
  -6   0   2  261.67    9.48
  -6   0  -2  291.81    9.15
  -6   0  -2  264.95   12.56
  -6   0  -2  295.15    9.62
  -5   0   2    0.06    0.42
  -5   0  -2    0.02    0.42
  -5   0  -2    0.16    0.25
  -5   0  -2    0.35    1.02
  -4   0   2    8.63    0.75
  -4   0  -2   10.38    0.77
  -4   0  -2    8.89    0.55
  -3   0   2    0.15    0.27
  -3   0  -2    0.26    0.28
  -3   0  -2   -0.19    0.79
  -2   0   2  385.43   12.70
  -2   0  -2  429.58   12.65
  -1   0   2    0.05    0.56
   0   0   2 1822.60   42.66
   0   0  -2  996.69   41.47
   1   0   2   -0.06    0.70
   1   0  -2    0.34    0.55
   2   0  -2  400.88   12.40
   2   0   2  417.28   12.25
   3   0  -2    0.06    0.31
   3   0  -2    0.24    0.36
   3   0   2    0.04    0.21
   3   0   2   -0.16    0.81
   3   0   2    0.04    0.20
   4   0  -2   10.46    0.83
   4   0   2    7.20    0.66
   4   0   2   11.68    1.83
   5   0   2    0.25    0.38
   5   0  -2   -0.11    0.43
   6   0  -2  338.61    9.59
   6   0   2  232.52    9.25
   7   0  -2    0.06    0.57
   7   0   2    0.12    0.50
   8   0  -2  298.67    8.75
   8   0   2  192.34    8.26
   9   0  -2   -0.04    0.74
   9   0   2    0.47    0.68
  10   0  -2  216.04    7.00
  10   0   2  140.31    6.58
  11   0   2    0.15    0.86
  11   0  -2   -0.82    0.95
  12   0  -2   12.24    1.55
  12   0   2    8.18    1.43
  13   0   2   -0.06    0.94
  13   0  -2   -0.15    0.99
  14   0  -2   13.94    1.71
  14   0   2    9.55    1.66
  15   0   2   -0.68    1.25
  15   0  -2   -0.17    1.18
 -19   1  -2   12.36    2.94
 -18  -1  -2    2.64    1.52
 -18   1  -2    4.36    1.71
 -18   1  -2    3.46    2.33
 -18   1   2    3.14    1.71
 -17   1  -2   -0.87    2.14
 -17  -1   2    1.70    1.67
 -17   1  -2    0.83    1.41
 -17  -1  -2   -0.06    1.29
 -16   1  -2    3.43    2.21
 -16  -1   2    3.85    1.52
 -16  -1  -2    4.31    1.35
 -16   1  -2    3.45    1.48
 -15   1  -2   37.52    1.72
 -15  -1  -2   34.83    2.59
 -15  -1   2   40.61    3.18
 -15   1  -2   42.95    3.01
 -15   1  -2   42.56    4.41
 -15  -1  -2   42.21    4.12
 -14   1  -2   -0.30    1.84
 -14   1  -2    0.33    1.12
 -14  -1  -2    1.02    0.95
 -14   1   2   -0.29    1.04
 -14  -1   2   -0.07    1.13
 -14   1  -2    0.13    0.40
 -14   1  -2   -0.34    1.47
 -14  -1  -2   -0.13    1.66
 -13  -1  -2  150.94    8.08
 -13   1  -2  135.12    5.57
 -13  -1   2  118.87    5.84
 -13   1  -2  141.38    6.17
 -13   1   2  110.73    5.25
 -13   1  -2  159.49    9.08
 -13   1  -2  121.72    4.23
 -13  -1  -2  114.53    5.14
 -12   1  -2    4.51    0.50
 -12   1  -2    6.08    1.58
 -12  -1  -2    5.04    1.04
 -12   1   2    6.21    1.23
 -12   1  -2    6.94    1.24
 -12  -1  -2    5.99    2.06
 -12  -1   2    4.50    1.36
 -12   1  -2    6.11    2.50
 -11   1  -2  177.89    5.80
 -11  -1   2  161.95    6.81
 -11  -1  -2  179.93    6.64
 -11   1  -2  203.45    7.03
 -11  -1  -2  171.17    7.00
 -11   1   2  169.06    6.88
 -11   1  -2  199.72    7.65
 -11   1  -2  232.87   11.67
 -11  -1   2  158.83    7.23
 -11  -1  -2  222.18   10.18
 -10   1  -2    8.63    1.47
 -10  -1  -2   10.53    2.31
 -10  -1  -2    7.47    0.96
 -10  -1  -2    8.45    1.24
 -10  -1   2    6.91    1.16
 -10   1  -2    8.81    1.12
 -10   1   2    7.38    1.14
 -10   1  -2    7.72    0.52
 -10   1  -2    7.72    2.42
  -9   1   2    9.31    1.17
  -9   1  -2    9.24    0.53
  -9  -1  -2   11.91    2.30
  -9  -1   2    9.42    1.16
  -9  -1  -2   10.93    1.21
  -9  -1  -2   10.40    1.01
  -9   1  -2   10.67    1.11
  -9   1  -2   12.03    1.55
  -9   1  -2   11.15    2.65
  -8  -1  -2   16.19    1.14
  -8   1  -2   14.52    0.64
  -8  -1   2   14.61    1.32
  -8   1   2   12.59    1.27
  -8   1  -2   16.85    1.23
  -8   1  -2   15.24    1.59
  -8  -1  -2   18.38    2.59
  -8  -1  -2   16.07    1.34
  -8   1  -2   13.97    2.71
  -7  -1  -2  119.08    3.70
  -7   1  -2  129.74    4.46
  -7   1  -2  115.87    3.76
  -7  -1  -2  129.48    6.96
  -7   1  -2  127.92    5.11
  -7  -1  -2  128.02    4.35
  -7   1  -2  104.93    7.33
  -7   1   2  115.84    4.71
  -6   1  -2   41.22    1.42
  -6  -1  -2   43.59    1.86
  -6   1  -2   34.84    4.13
  -6   1  -2   45.52    1.92
  -6  -1  -2   44.93    3.68
  -6   1   2   35.66    2.03
  -6   1  -2   41.99    2.38
  -5   1  -2  608.23   20.10
  -5  -1  -2  614.46   19.52
  -5  -1  -2  590.85   22.31
  -5   1  -2  639.66   19.54
  -5   1   2  549.26   19.80
  -4   1  -2   11.60    0.98
  -4   1  -2    8.44    1.76
  -4   1  -2   13.37    0.96
  -4   1   2   10.06    0.80
  -4   1  -2   12.47    0.65
  -4   1   2    7.38    0.91
  -4   1   2   14.77    1.02
  -4  -1  -2   11.71    1.78
  -3   1   2  414.90   14.53
  -3   1   2  425.20   14.81
  -3   1  -2  530.07   14.64
  -3   1   2  625.89   15.58
  -3   1  -2  474.07   14.28
  -3  -1  -2  441.79   16.82
  -3   1  -2  469.90   14.74
  -3   1  -2  259.98   16.09
  -2   1   2    9.71    0.65
  -2   1  -2   10.96    0.57
  -2   1  -2   11.93    0.72
  -2   1   2    8.85    0.56
  -1  -1  -2  116.56    3.73
  -1   1  -2  119.87    3.73
  -1  -1   2  114.03    3.84
  -1   1   2  117.52    3.81
  -1  -1   2  119.41    3.78
   0  -1  -2  101.88    3.26
   0  -1   2  103.40    3.32
   1  -1  -2  128.36    4.07
   1  -1   2  115.13    4.18
   2   1   2   10.79    0.47
   2   1  -2   10.83    0.60
   2   1   2    9.22    0.60
   3   1   2  478.40   14.64
   3   1   2  477.30   14.98
   3  -1   2  492.40   14.71
   3   1  -2  497.30   15.06
   4   1   2   12.61    0.77
   4   1  -2   12.86    0.87
   4  -1   2   11.43    0.48
   5   1   2  623.82   17.76
   5   1  -2  478.28   17.71
   5   1  -2  645.34   18.01
   5   1   2  522.88   18.01
   6   1   2   32.32    1.99
   6   1  -2   44.40    2.07
   7   1   2  147.88    8.10
   7   1  -2  133.59    4.78
   8   1   2   12.38    1.34
   8   1   2   13.69    2.40
   8   1  -2   16.32    1.37
   9   1  -2   12.06    1.28
   9   1   2    8.05    1.21
   9   1   2    7.65    1.88
  10   1   2    5.74    1.16
  10   1  -2   10.22    1.30
  11   1  -2  202.10    6.90
  11   1   2  136.58    6.71
  12   1  -2    5.74    1.22
  12   1   2    4.76    1.22
  13   1  -2  132.68    5.26
  13   1   2   91.86    5.21
  14   1  -2    0.05    0.98
  14   1   2   -0.20    1.13
  15   1  -2   37.99    2.67
  15   1   2   32.00    2.85
  16   1   2    2.50    1.55
  16   1  -2    3.49    1.32
  17   1  -2    1.42    1.32
  17   1   2    1.36    1.43
  18   1  -2    5.02    1.55
  18   1   2    3.86    1.77
 -19   2  -2    1.00    2.32
 -18   2   2   16.02    2.51
 -18   2  -2   18.03    2.87
 -18  -2  -2   20.45    2.38
 -18   2  -2   21.98    2.69
 -18   2  -2   21.79    3.57
 -17   2  -2    0.29    2.00
 -17  -2  -2   -0.06    1.23
 -17  -2   2    0.08    1.44
 -17   2  -2   -0.11    1.80
 -17   2   2   -0.09    1.49
 -17   2  -2    0.36    1.51
 -16  -2  -2   43.30    3.05
 -16   2  -2   55.13    3.58
 -16   2  -2   45.92    4.01
 -16   2  -2   53.31    5.40
 -16  -2   2   40.52    3.34
 -16   2   2   38.40    3.49
 -15  -2  -2    4.42    1.28
 -15  -2   2    3.79    1.52
 -15   2  -2    5.66    1.63
 -15   2   2    4.35    1.61
 -15   2  -2    4.35    0.62
 -15   2  -2    7.26    3.11
 -15   2  -2    3.76    1.76
 -14   2   2   13.21    2.14
 -14   2  -2   15.71    0.98
 -14  -2  -2   17.11    1.77
 -14  -2   2   15.79    2.04
 -14   2  -2   15.64    2.35
 -13   2   2   22.32    2.55
 -13   2  -2   27.29    1.32
 -13  -2  -2   27.23    2.08
 -13  -2   2   22.07    2.30
 -13   2   2   29.84    2.22
 -13   2  -2   43.51    3.20
 -13   2  -2   37.42    4.81
 -13   2  -2   34.42    2.58
 -13   2  -2   30.62    2.86
 -12   2   2    4.97    1.25
 -12   2  -2    5.82    1.65
 -12  -2  -2    5.44    1.08
 -12  -2   2    4.67    1.29
 -12   2   2    4.72    1.45
 -12   2   2    4.95    0.46
 -12   2  -2    6.22    2.77
 -12   2  -2    3.69    1.41
 -12   2  -2    4.45    0.50
 -11   2  -2   53.38    3.51
 -11   2   2   35.35    3.13
 -11   2  -2   49.14    1.95
 -11  -2   2   41.24    2.94
 -11   2  -2   54.07    5.65
 -11   2   2   65.01    2.39
 -11   2   2   50.20    2.89
 -11   2  -2   69.90    4.01
 -11  -2  -2   52.79    2.72
 -10   2   2  119.57    7.10
 -10   2  -2  179.55    5.74
 -10  -2   2  154.47    6.92
 -10  -2  -2  186.20    6.57
 -10   2  -2  212.79   12.16
 -10   2   2  180.76    6.79
 -10   2  -2  236.93    7.96
 -10   2  -2  193.94    7.66
  -9  -2  -2    2.15    0.27
  -9   2  -2    2.46    0.32
  -9  -2  -2    2.20    0.68
  -9  -2   2    2.30    0.88
  -9   2  -2    1.15    0.93
  -9   2   2    0.99    0.92
  -9   2  -2    2.53    2.16
  -9   2   2    2.15    0.80
  -9  -2  -2    3.12    1.57
  -9   2  -2    4.11    1.31
  -8   2   2  292.34   10.04
  -8  -2  -2  299.36    9.09
  -8   2  -2  293.18    9.16
  -8   2  -2  331.83   10.79
  -8  -2  -2  317.16    9.86
  -8  -2   2  266.34   10.19
  -8   2   2  180.53   10.26
  -8   2  -2  214.74   13.18
  -8  -2  -2  342.22   13.01
  -8   2  -2  383.07   11.16
  -7  -2  -2   50.65    2.16
  -7   2  -2   41.22    2.50
  -7   2  -2   47.69    1.68
  -7  -2  -2   50.27    1.62
  -7   2  -2   58.78    2.93
  -7   2   2   46.17    2.31
  -7   2   2   28.09    2.42
  -7   2  -2   33.90    4.01
  -7  -2   2   45.83    2.49
  -7  -2  -2   58.76    4.21
  -6  -2  -2  203.39    6.18
  -6   2   2  186.30    6.83
  -6   2  -2  197.41    6.24
  -6   2  -2  217.96    7.23
  -6  -2   2  206.92    7.13
  -6  -2  -2  228.16    9.49
  -6   2  -2  239.17    7.54
  -5   2  -2  166.84    5.36
  -5   2  -2  137.34    4.56
  -5   2   2  118.39    5.43
  -5  -2   2  151.80    5.28
  -5   2   2  129.01    4.97
  -5   2  -2  179.57    5.63
  -5  -2  -2  147.21    4.51
  -5  -2  -2  166.01    7.46
  -4   2  -2   12.64    0.85
  -4   2   2   11.18    0.78
  -4   2   2   10.80    0.98
  -4  -2   2   11.43    0.88
  -4  -2  -2   11.72    0.50
  -3   2   2   88.36    3.52
  -3  -2   2   92.47    3.35
  -3   2  -2   99.51    3.34
  -2   2  -2  228.90    7.27
  -2   2   2  219.75    7.44
  -2  -2   2  237.84    7.33
  -1  -2   2    7.47    0.52
  -1   2  -2    7.55    0.45
  -1  -2  -2    8.06    0.46
  -1   2   2    7.48    0.55
   0  -2   2  540.99   15.56
   0   2   2  522.36   15.56
   0   2   2  488.45   15.52
   0   2  -2  494.37   15.29
   0  -2  -2  463.77   15.38
   1  -2  -2    8.04    0.51
   1  -2   2    7.79    0.63
   1   2   2    7.54    0.48
   2  -2   2  242.08    7.82
   2   2   2  222.23    7.27
   2  -2  -2  245.41    7.56
   2  -2   2  231.82    7.31
   3   2   2   88.55    2.93
   3   2   2   93.42    3.27
   3  -2   2   92.58    3.00
   4   2   2   11.90    0.91
   4  -2   2   11.64    0.57
   4   2  -2   11.92    0.79
   4   2   2   11.25    0.79
   4   2   2   13.98    2.08
   5  -2   2  148.53    4.69
   5   2  -2  144.17    5.05
   5   2   2  139.27    5.26
   5   2   2  146.02    5.06
   6   2   2  213.46    7.15
   6   2   2  194.50    7.40
   6   2  -2  216.11    7.17
   7   2  -2   50.09    2.38
   7   2   2   46.37    2.58
   7   2   2   50.33    2.33
   8   2   2  336.78   13.23
   8   2  -2  313.17    8.99
   9   2  -2    2.54    0.88
   9   2   2    2.54    0.96
   9   2   2    2.17    1.49
  10   2   2  187.66   10.38
  10   2  -2  180.21    6.65
  11   2   2   48.00    3.20
  11   2  -2   52.72    2.88
  12   2  -2    6.30    1.25
  12   2   2    4.73    1.34
  12   2   2    4.85    1.81
  13   2   2   24.94    2.41
  13   2  -2   28.52    2.23
  14   2  -2   15.51    1.73
  14   2   2   15.47    2.07
  15   2  -2    4.77    1.33
  15   2   2    5.78    1.68
  16   2   2   40.49    3.37
  16   2  -2   42.93    2.87
  17   2   2    0.08    1.42
  17   2  -2   -0.17    1.13
  18   2  -2   16.95    1.99
  18   2   2   18.88    2.56
 -18   3  -2   17.48    3.71
 -18   3  -2   19.02    2.62
 -17  -3  -2    0.99    1.24
 -17  -3   2    0.08    1.37
 -17   3  -2    0.77    1.68
 -17   3  -2   -1.24    1.61
 -17   3   2    0.55    1.58
 -17   3  -2   -0.39    2.88
 -16  -3  -2   19.85    2.12
 -16   3   2   19.62    2.48
 -16  -3   2   16.08    2.22
 -16   3  -2   31.20    2.91
 -16   3  -2   19.82    2.63
 -16   3  -2   30.27    4.78
 -15  -3   2   20.48    2.30
 -15   3  -2   29.39    2.95
 -15   3   2   24.78    2.72
 -15   3  -2   29.51    1.45
 -15  -3  -2   28.24    2.32
 -14   3   2   10.51    1.92
 -14  -3  -2    9.13    1.45
 -14   3  -2   10.64    0.85
 -14   3   2   12.85    1.15
 -14   3  -2   10.12    1.90
 -14  -3   2    7.95    1.52
 -13  -3  -2   53.58    2.97
 -13   3   2   52.56    3.08
 -13   3  -2   50.84    3.57
 -13   3  -2   49.58    2.08
 -13   3   2   69.61    3.14
 -13   3  -2   69.31    6.92
 -13  -3   2   38.59    2.97
 -13   3  -2   82.57    4.53
 -13   3   2   37.10    3.31
 -12   3  -2    4.04    0.51
 -12  -3  -2    3.75    0.46
 -12  -3  -2    3.84    0.98
 -12   3  -2    3.60    1.26
 -12  -3   2    3.30    1.07
 -12   3   2    2.93    1.22
 -12   3   2    3.45    1.02
 -12   3  -2    8.07    1.80
 -12   3  -2    1.82    2.73
 -11   3   2   54.21    2.92
 -11   3  -2   77.64    4.08
 -11   3  -2   56.03    6.07
 -11   3  -2   59.90    3.55
 -11   3   2   31.05    3.06
 -11  -3  -2   54.81    1.98
 -11  -3   2   46.19    2.97
 -11  -3  -2   57.43    2.81
 -11   3  -2   52.77    2.06
 -10   3  -2   56.61    3.33
 -10   3  -2   54.67    2.06
 -10   3   2   31.38    2.98
 -10  -3  -2   56.37    2.71
 -10  -3   2   47.87    2.91
 -10   3   2   55.92    2.86
 -10   3  -2   44.95    5.22
 -10  -3  -2   57.14    2.00
 -10   3  -2   78.98    3.93
  -9   3  -2    1.97    0.37
  -9  -3  -2    1.69    0.31
  -9   3   2    1.64    0.71
  -9   3  -2    2.41    1.13
  -9  -3   2    3.00    0.85
  -9   3  -2    2.06    0.86
  -9   3   2    0.60    0.85
  -8  -3   2  136.85    5.37
  -8   3   2  121.68    5.01
  -8   3  -2  158.07    5.76
  -8   3   2   88.30    5.42
  -8   3  -2  181.25    6.16
  -8  -3  -2  139.42    4.38
  -8   3  -2  133.96    4.44
  -7  -3  -2   16.77    0.75
  -7   3   2   13.78    1.52
  -7   3  -2   17.87    1.43
  -7   3   2   14.91    1.16
  -7  -3   2   16.82    1.34
  -7   3  -2   17.14    0.82
  -6   3  -2   48.49    1.80
  -6   3  -2   56.09    2.49
  -6   3   2   40.02    2.54
  -6  -3  -2   49.97    1.75
  -6  -3   2   50.44    2.40
  -6   3   2   46.40    2.20
  -6   3  -2   63.97    2.87
  -5  -3  -2  250.86    7.89
  -5   3  -2  282.39    8.59
  -5   3   2  232.20    8.81
  -5  -3   2  269.81    8.54
  -5   3  -2  244.89    7.93
  -4   3   2    4.29    0.71
  -4   3  -2    5.15    0.61
  -4  -3   2    5.29    0.60
  -4  -3  -2    5.69    0.39
  -4   3  -2    5.35    0.40
  -3  -3  -2  323.66   10.24
  -3   3   2  305.87   10.71
  -3   3  -2  336.14   10.49
  -3  -3   2  350.40   10.56
  -2   3   2  219.93    7.33
  -2  -3  -2  218.17    7.13
  -2   3   2  224.11    7.43
  -2   3  -2  227.79    7.18
  -2  -3  -2  214.77    7.03
  -2  -3   2  234.63    7.34
  -1   3   2  128.26    4.38
  -1  -3   2  136.10    4.44
  -1   3   2  127.90    4.45
  -1  -3  -2  126.98    4.24
  -1   3  -2  123.52    4.23
   0   3  -2  354.65   11.30
   0  -3   2  400.50   11.69
   0   3   2  374.92   11.52
   0   3   2  372.33   11.66
   0   3  -2  357.30   11.45
   0  -3  -2  361.82   11.45
   1   3   2  127.83    4.19
   1  -3   2  137.50    4.51
   1  -3  -2  123.31    4.24
   1   3  -2  119.08    4.09
   1  -3   2  131.88    4.21
   2  -3   2  241.39    7.62
   2   3   2  209.50    7.02
   2  -3   2  230.56    7.09
   2   3  -2  216.37    7.09
   2  -3  -2  220.24    7.24
   3  -3   2  345.22   10.60
   3   3   2  327.40   10.53
   3   3  -2  321.85   10.70
   3  -3  -2  349.73   10.98
   4  -3   2    5.80    0.94
   4  -3  -2    4.61    0.67
   4  -3   2    4.94    0.41
   4   3   2    4.96    0.61
   5  -3   2  266.53    8.34
   5   3   2  256.30    8.73
   6   3   2   51.94    2.33
   6   3   2   51.74    2.56
   6   3  -2   51.41    2.28
   6  -3   2   52.32    1.97
   7   3  -2   16.50    1.18
   7   3   2   15.90    1.39
   7   3   2   17.40    1.25
   7   3   2   19.31    2.80
   8   3  -2  139.01    5.25
   8   3   2  136.65    5.63
   8   3   2  137.93    5.22
   9   3   2    1.55    0.89
   9   3  -2    1.54    0.72
   9   3   2    1.66    0.73
  10   3   2   56.60    5.04
  10   3  -2   54.95    2.65
  10   3   2   52.36    3.09
  11   3   2   50.98    4.96
  11   3  -2   52.30    2.74
  11   3   2   50.42    3.23
  12   3  -2    2.50    0.98
  12   3   2    4.68    1.36
  12   3  -2    2.69    0.50
  12   3   2    5.17    2.47
  13   3  -2   50.82    2.98
  13   3   2   53.32    3.54
  14   3  -2    9.36    1.43
  14   3   2   11.60    1.90
  15   3  -2   27.42    2.31
  15   3   2   27.17    2.77
  16   3   2   20.32    2.45
  16   3  -2   17.58    1.93
  17   3  -2    0.06    1.15
  17   3   2    0.83    1.62
 -18   4  -2    8.88    2.46
 -18   4  -2    5.01    3.33
 -17   4   2    0.55    1.49
 -17  -4   2    0.30    1.44
 -17   4  -2   -0.76    1.64
 -17   4  -2    0.23    2.69
 -16   4   2   16.46    2.45
 -16  -4   2   10.49    1.94
 -16   4  -2   20.59    2.62
 -16   4  -2   26.38    4.81
 -15   4  -2   26.34    1.40
 -15   4  -2   28.89    2.89
 -15   4   2   21.64    2.65
 -15  -4  -2   23.49    1.29
 -15  -4   2   19.27    2.25
 -14   4  -2    6.82    0.73
 -14  -4  -2    7.25    0.69
 -14  -4   2    6.05    1.46
 -14   4  -2    9.33    1.82
 -14   4   2    5.34    1.66
 -14   4   2    6.64    1.30
 -14   4  -2   10.11    3.99
 -13   4   2   46.56    3.79
 -13   4  -2   67.23    2.58
 -13   4  -2   69.90    4.17
 -13  -4   2   59.71    3.67
 -13  -4  -2   66.15    2.47
 -13   4  -2   82.90    7.78
 -12   4  -2    0.69    1.28
 -12   4   2    1.00    0.88
 -12   4  -2    0.66    0.44
 -12  -4  -2    0.27    0.36
 -12   4  -2    0.13    1.01
 -12  -4   2    0.69    0.96
 -12   4   2    0.83    1.04
 -12   4  -2    0.45    2.35
 -11  -4  -2   49.52    1.89
 -11  -4   2   45.97    2.88
 -11   4   2   45.31    2.57
 -11   4  -2   48.76    1.95
 -11   4  -2   50.22    3.12
 -10   4  -2   46.20    1.87
 -10   4  -2   48.29    2.90
 -10  -4  -2   48.35    1.80
 -10  -4   2   48.08    2.79
 -10   4   2   41.53    2.42
  -9   4  -2    8.27    1.38
  -9   4   2    6.13    0.91
  -9   4  -2    6.29    0.58
  -9   4  -2    6.87    1.12
  -9  -4   2    6.92    1.12
  -9  -4  -2    6.70    0.54
  -9   4   2    4.45    1.16
  -8   4   2   52.14    3.43
  -8   4  -2   68.86    2.54
  -8   4   2   62.17    2.97
  -8   4  -2   87.92    3.87
  -8  -4  -2   71.43    2.48
  -8  -4   2   71.79    3.35
  -8   4  -2   77.01    3.45
  -7   4   2   32.63    1.94
  -7   4  -2   31.65    1.38
  -7   4  -2   37.96    2.10
  -7  -4   2   35.58    2.01
  -7   4   2   28.97    2.23
  -7  -4  -2   32.35    1.32
  -6   4   2   33.70    1.94
  -6  -4  -2   37.63    1.45
  -6   4  -2   36.32    1.49
  -6   4  -2   39.47    2.03
  -6  -4   2   39.57    2.03
  -6   4   2   33.44    2.23
  -5   4   2  205.96    7.98
  -5   4  -2  238.92    7.73
  -5  -4   2  238.33    7.74
  -5   4  -2  217.72    7.18
  -5  -4  -2  226.57    7.16
  -4  -4  -2   17.20    0.85
  -4   4   2   16.80    1.30
  -4   4  -2   19.10    1.13
  -4   4  -2   17.93    0.88
  -3   4  -2  369.73   11.51
  -3  -4  -2  362.66   11.44
  -3  -4  -2  348.92   11.23
  -3  -4   2  382.59   11.73
  -3   4   2  353.69   11.81
  -3   4   2  344.56   11.57
  -2   4   2   90.47    3.33
  -2   4  -2   88.68    3.24
  -2   4   2   90.30    3.51
  -2  -4  -2   90.28    3.22
  -2  -4   2   95.79    3.45
  -2  -4  -2   85.84    3.08
  -1   4   2   73.41    2.95
  -1  -4  -2   73.48    2.70
  -1  -4   2   79.38    2.95
  -1   4  -2   72.21    2.71
  -1   4   2   71.07    2.74
  -1  -4  -2   71.29    2.62
   0  -4   2  241.57    7.60
   0   4   2  223.09    7.57
   0   4   2  222.09    7.30
   0  -4   2  234.73    7.33
   0  -4  -2  216.72    7.29
   0   4  -2  217.28    7.29
   1   4   2   70.22    2.59
   1  -4   2   77.10    2.67
   1   4  -2   66.81    2.51
   1  -4   2   77.95    3.01
   1  -4  -2   72.98    2.71
   2  -4   2   95.79    3.18
   2   4  -2   81.56    3.07
   2  -4  -2   91.96    3.33
   2  -4   2   99.44    3.73
   2   4   2   87.46    3.10
   3   4   2  354.27   11.27
   3  -4  -2  372.37   11.68
   3  -4   2  367.14   11.34
   3   4  -2  336.48   11.37
   4  -4  -2   18.81    1.25
   4   4   2   20.16    1.25
   4   4  -2   17.64    1.02
   4   4   2   18.12    0.88
   4  -4   2   19.20    1.58
   4  -4   2   19.15    0.97
   5  -4  -2  235.16    8.06
   5  -4   2  236.76    7.45
   5   4   2  232.79    7.86
   5  -4   2  253.17    8.89
   6  -4   2   38.78    1.65
   6   4   2   38.52    2.00
   7   4   2   36.59    2.14
   7   4   2   33.72    1.86
   7   4  -2   30.66    1.75
   8   4   2   67.95    3.33
   8   4   2   73.32    3.17
   8   4  -2   66.22    2.98
   8   4   2   70.41    5.36
   9   4   2    7.11    2.21
   9   4   2    6.26    1.19
   9   4   2    6.43    0.96
   9   4  -2    5.72    0.93
  10   4   2   49.47    2.58
  10   4  -2   45.41    2.51
  10   4   2   45.54    2.99
  10   4   2   54.26    5.16
  11   4  -2   46.12    2.50
  11   4   2   47.97    3.06
  11   4   2   45.12    4.92
  12   4  -2   -0.08    0.87
  12   4   2    0.06    1.17
  12   4   2   -0.53    1.71
  12   4  -2    0.32    0.62
  13   4   2   49.60    5.15
  13   4  -2   42.60    2.56
  13   4  -2   67.43    3.37
  13   4   2   66.28    4.04
  14   4  -2    5.63    1.28
  14   4   2    6.81    1.69
  14   4  -2    3.11    0.63
  14   4   2    3.23    2.34
  15   4  -2   23.48    2.16
  15   4   2   26.05    2.85
  16   4  -2   16.44    1.89
  16   4   2   14.58    2.31
  17   4  -2    0.49    1.21
  17   4   2   -0.60    1.70
 -18   5  -2   22.12    4.71
 -17   5  -2    2.02    3.13
 -16   5   2   22.06    2.61
 -16   5  -2   28.26    2.78
 -16  -5   2   23.23    2.53
 -15  -5  -2    2.34    0.60
 -15  -5   2    3.10    1.39
 -15   5  -2    4.61    3.77
 -15   5  -2    2.47    1.39
 -15   5   2    2.14    1.42
 -14  -5  -2   15.40    1.01
 -14  -5   2   12.86    1.82
 -14   5  -2   16.94    2.12
 -14   5  -2   13.43    1.04
 -14   5  -2   16.15    4.10
 -14   5   2    9.09    1.88
 -13   5  -2    6.90    0.78
 -13  -5   2    7.82    1.54
 -13   5  -2    9.24    1.65
 -13  -5  -2    9.32    0.78
 -13   5  -2    7.67    3.33
 -13   5   2    5.57    1.55
 -12   5  -2    4.05    0.61
 -12  -5   2    4.92    1.24
 -12  -5  -2    4.16    0.57
 -12   5  -2    6.08    1.41
 -12   5   2    2.31    1.23
 -11   5   2   22.40    1.78
 -11   5  -2   21.06    2.07
 -11   5   2   11.04    1.81
 -11  -5   2   21.07    1.93
 -11   5   2   16.69    1.51
 -11   5  -2   21.34    1.20
 -11   5  -2   30.83    2.52
 -11  -5  -2   22.23    1.14
 -10   5   2  121.68    4.92
 -10  -5  -2  128.17    4.12
 -10   5  -2  119.88    4.18
 -10   5  -2  125.13    5.37
 -10   5   2   74.39    5.09
 -10  -5   2  121.23    5.19
 -10   5   2  100.22    4.56
 -10   5  -2  157.94    5.97
  -9   5  -2    0.77    1.10
  -9   5  -2    0.76    0.46
  -9  -5   2    1.20    0.82
  -9   5   2    0.07    0.66
  -9   5   2    0.09    0.61
  -9  -5  -2    0.70    0.39
  -9   5  -2    1.05    0.94
  -9   5   2   -0.23    1.05
  -8   5   2  211.81    7.73
  -8   5  -2  224.90    7.11
  -8  -5   2  231.41    8.00
  -8  -5  -2  219.49    7.03
  -8   5  -2  230.62    7.97
  -7   5   2    4.35    1.11
  -7   5  -2    5.48    0.59
  -7   5  -2    5.86    0.97
  -7  -5  -2    5.91    0.55
  -7   5   2    6.54    0.91
  -6  -5  -2   98.59    3.45
  -6   5   2   90.42    4.30
  -6   5  -2  105.09    4.03
  -6   5  -2  101.14    3.51
  -5  -5  -2   57.62    2.16
  -5   5   2   52.57    2.81
  -5   5  -2   53.32    2.16
  -5   5  -2   59.27    2.57
  -5  -5  -2   60.03    2.50
  -5  -5   2   59.62    2.73
  -4  -5  -2    4.57    0.50
  -4   5   2    6.32    0.91
  -4   5  -2    4.64    0.50
  -4  -5   2    5.86    0.83
  -4   5  -2    5.74    0.72
  -3  -5  -2   13.24    0.82
  -3   5  -2   13.90    1.01
  -3  -5  -2   14.87    1.01
  -3  -5   2   16.45    1.21
  -3   5   2   14.97    1.04
  -3   5   2   14.41    1.25
  -2   5   2  163.87    5.62
  -2  -5  -2  161.80    5.54
  -2  -5   2  174.53    5.88
  -2   5  -2  158.98    5.58
  -2  -5  -2  157.69    5.39
  -2   5   2  162.35    5.92
  -1   5   2    9.50    0.76
  -1  -5   2    9.78    0.77
  -1  -5  -2    9.31    0.69
  -1  -5  -2   10.33    0.82
  -1  -5   2   10.44    0.99
  -1   5   2    9.07    0.95
  -1   5  -2    8.78    0.78
   0   5   2  264.09    8.88
   0  -5   2  306.06    9.00
   0  -5   2  307.48    9.35
   0  -5  -2  264.96    8.92
   0   5   2  274.85    9.31
   0   5  -2  264.25    8.94
   0  -5  -2  261.69    8.86
   1   5   2    9.84    0.73
   1  -5   2   10.83    1.06
   1  -5  -2    9.34    0.80
   1   5  -2    9.19    0.66
   1  -5   2   10.38    0.77
   2   5   2  159.86    5.42
   2  -5   2  169.16    5.50
   2   5  -2  149.70    5.41
   2  -5  -2  164.34    5.67
   3  -5  -2   14.07    1.04
   3  -5   2   15.00    0.90
   3   5  -2   13.38    0.87
   3   5   2   14.95    0.86
   3  -5   2   16.57    1.38
   4  -5   2    5.86    0.59
   4  -5  -2    5.39    0.77
   4  -5   2    6.53    1.10
   4   5   2    5.49    0.52
   4   5  -2    5.02    0.60
   5  -5   2   60.18    2.35
   5  -5  -2   59.79    2.77
   5   5   2   59.31    2.72
   5   5  -2   55.24    2.41
   6  -5   2  106.41    3.76
   6   5   2  103.81    4.14
   6   5  -2   93.41    3.79
   6  -5  -2  102.53    4.31
   7  -5   2    5.93    0.67
   7   5   2    7.70    2.43
   7   5   2    5.58    0.89
   7   5  -2    5.42    0.74
   8   5  -2  206.52    7.50
   8   5   2  217.96    8.07
   8   5   2  215.30    7.65
   9   5   2   -0.31    1.56
   9   5   2    0.57    0.76
   9   5  -2    0.06    0.68
   9   5   2    0.83    0.92
  10   5  -2  109.44    4.64
  10   5   2  121.76    5.32
  10   5   2  122.11    4.85
  10   5   2  119.06    7.93
  11   5   2   19.92    1.67
  11   5  -2   20.80    1.69
  11   5   2   23.38    2.21
  11   5   2   21.87    3.66
  12   5  -2    2.90    1.01
  12   5  -2    3.28    1.01
  12   5   2    4.06    1.41
  12   5   2    3.91    2.18
  13   5  -2    3.58    0.90
  13   5  -2    5.37    1.17
  13   5   2    6.34    1.63
  13   5   2    4.62    2.25
  14   5  -2    8.94    1.32
  14   5  -2   14.04    1.67
  14   5   2   14.51    2.15
  15   5  -2    1.57    1.17
  15   5   2    1.54    1.56
  16   5  -2   27.33    2.31
  16   5   2   23.22    2.79
 -17   6  -2    0.31    3.92
 -16   6  -2    0.89    3.18
 -15   6  -2   19.45    2.43
 -15  -6   2   13.69    1.95
 -15   6  -2   16.32    4.36
 -15   6   2   10.31    2.07
 -14  -6  -2    0.48    0.55
 -14   6  -2    0.33    0.60
 -14  -6   2    0.56    1.11
 -14   6  -2   -0.34    1.38
 -14   6   2   -0.57    1.40
 -13   6  -2   60.85    2.52
 -13  -6  -2   63.06    2.46
 -13  -6   2   54.98    3.46
 -13   6  -2   63.65    3.82
 -12  -6  -2    0.49    0.52
 -12   6  -2    0.21    0.53
 -12   6  -2   -0.28    1.13
 -12   6   2   -0.14    1.18
 -11  -6  -2   60.55    2.37
 -11   6  -2   61.26    2.46
 -11   6  -2   58.79    3.35
 -10   6  -2    0.47    0.98
 -10   6   2    0.95    1.08
 -10   6  -2    0.90    1.09
 -10   6   2    0.90    0.77
 -10  -6  -2    1.29    0.48
 -10   6  -2    1.23    0.55
 -10   6   2    1.16    0.71
  -9   6   2    4.36    1.24
  -9   6  -2    6.13    1.14
  -9   6  -2    7.52    0.76
  -9  -6  -2    6.70    0.67
  -9   6   2    5.49    0.99
  -8   6   2    0.61    0.90
  -8   6  -2   -0.14    0.74
  -8  -6  -2    0.32    0.42
  -8   6   2   -0.03    0.67
  -8   6  -2    0.27    0.48
  -7   6   2   46.26    2.97
  -7   6   2   54.37    2.64
  -7   6  -2   52.39    2.19
  -7  -6  -2   53.71    2.17
  -7   6  -2   60.99    2.83
  -6  -6  -2   10.71    0.79
  -6  -6   2   11.35    1.26
  -6   6   2    8.77    1.27
  -6   6  -2   10.23    1.09
  -6   6  -2   10.22    0.80
  -6  -6  -2   11.34    1.10
  -5  -6  -2  230.28    7.61
  -5   6  -2  212.44    7.58
  -5   6   2  234.63    8.64
  -5   6  -2  252.09    8.22
  -5  -6  -2  242.17    8.00
  -5  -6   2  258.07    8.41
  -4  -6  -2    3.61    0.72
  -4  -6  -2    4.11    0.54
  -4   6   2    5.44    1.02
  -4  -6   2    4.67    0.91
  -4   6  -2    3.97    0.75
  -3  -6  -2  233.75    7.93
  -3   6   2  243.24    8.21
  -3   6  -2  244.92    8.24
  -3   6   2  231.21    8.62
  -3  -6  -2  248.49    8.17
  -3  -6   2  267.49    8.58
  -2  -6   2    0.26    0.65
  -2   6   2    0.58    0.46
  -2  -6  -2    0.18    0.38
  -2   6   2   -0.13    0.68
  -2   6  -2   -0.04    0.51
  -2  -6  -2    0.02    0.51
  -1   6   2   44.86    1.99
  -1  -6   2   45.01    2.03
  -1  -6  -2   41.43    1.87
  -1  -6   2   49.77    2.39
  -1  -6  -2   43.99    2.03
  -1   6   2   44.69    2.38
  -1   6  -2   43.68    2.04
   0  -6  -2   15.47    1.01
   0   6   2   14.97    1.01
   0  -6   2   17.79    1.37
   0  -6  -2   15.46    1.09
   0  -6   2   17.80    1.11
   1  -6   2   47.31    2.00
   1   6   2   43.52    1.92
   1  -6   2   49.35    2.45
   1  -6  -2   44.78    2.06
   1   6  -2   40.21    1.82
   2  -6   2   -0.02    0.41
   2   6   2    0.24    0.43
   2   6  -2    0.29    0.39
   2  -6   2    0.56    0.72
   2  -6  -2   -0.09    0.52
   3  -6  -2  247.54    8.18
   3  -6   2  248.69    7.91
   3   6  -2  216.24    7.80
   3   6   2  228.80    7.78
   4  -6   2    3.68    0.60
   4   6  -2    3.75    0.58
   4  -6   2    5.07    1.13
   4  -6  -2    3.46    0.74
   5  -6   2  236.71    7.74
   5  -6  -2  230.31    8.20
   5   6   2  234.73    8.17
   5   6  -2  215.20    7.74
   6  -6  -2    9.70    1.15
   6   6   2   14.17    2.89
   6  -6   2   10.88    0.91
   6   6   2    9.77    1.12
   6   6  -2   10.38    0.95
   6  -6   2   10.84    1.65
   7  -6   2   57.84    2.43
   7   6   2   57.02    2.79
   7   6  -2   50.22    2.43
   7  -6  -2   54.99    2.95
   8   6   2    0.88    2.00
   8   6   2    0.42    0.70
   8   6  -2    0.55    0.59
   9   6   2    8.41    2.69
   9   6   2    7.29    1.30
   9   6  -2    6.91    0.97
   9   6   2    6.12    0.99
  10   6   2    2.48    2.12
  10   6   2    0.79    0.80
  10   6  -2    1.79    0.83
  10   6   2    1.79    1.13
  11   6  -2   51.57    2.78
  11   6   2   47.21    5.08
  12   6   2    0.38    1.20
  12   6  -2    0.39    0.84
  12   6  -2    0.92    1.03
  13   6  -2   55.11    3.02
  13   6   2   59.07    3.76
  14   6  -2   -0.05    0.78
  14   6   2    0.82    1.44
  14   6  -2    0.46    1.02
  15   6   2   13.55    2.26
  15   6  -2   13.03    1.69
 -16   7  -2   17.39    4.71
 -14   7  -2    6.99    1.68
 -14   7   2    4.10    1.55
 -14  -7  -2    6.87    0.84
 -13   7  -2    1.05    1.24
 -13   7   2    0.23    1.29
 -13  -7  -2    0.70    0.58
 -13   7  -2    1.24    0.72
 -12   7   2    3.28    1.36
 -12   7  -2    5.63    1.41
 -12  -7  -2    5.37    0.74
 -12   7  -2    5.28    0.80
 -11   7   2    0.07    1.03
 -11   7  -2   -0.05    0.99
 -11  -7  -2   -0.02    0.52
 -11   7  -2    0.06    0.60
 -10   7  -2   48.19    2.14
 -10   7  -2   45.24    2.79
 -10  -7  -2   47.61    2.07
  -9  -7  -2    0.64    0.55
  -9   7   2    0.41    0.98
  -9   7  -2    0.42    0.56
  -9   7  -2    0.88    0.92
  -8   7   2   88.74    3.94
  -8   7  -2   91.32    3.51
  -8  -7  -2   95.33    3.48
  -8   7  -2   96.89    4.19
  -8  -7  -2   99.84    4.07
  -8  -7   2   98.49    4.40
  -7   7  -2    0.63    0.51
  -7   7   2    1.46    0.96
  -7  -7  -2   -0.18    0.80
  -7  -7   2    0.12    0.92
  -7   7   2    0.76    0.68
  -7  -7  -2    0.48    0.47
  -7  -7   2    0.36    0.67
  -7   7  -2    0.93    0.76
  -6  -7  -2   62.42    2.50
  -6  -7   2   64.77    2.90
  -6   7   2   57.10    3.37
  -6   7  -2   61.20    3.03
  -6  -7  -2   65.42    2.91
  -6  -7   2   64.54    3.20
  -6   7  -2   56.12    2.44
  -5   7   2    1.64    0.97
  -5   7  -2    1.29    0.76
  -5  -7  -2    1.94    0.72
  -5  -7   2    1.85    0.94
  -5  -7  -2    2.43    0.54
  -5  -7   2    1.86    0.73
  -5   7  -2    1.46    0.50
  -4   7   2    0.67    0.58
  -4   7  -2    0.46    0.67
  -4  -7  -2    0.24    0.61
  -4  -7   2    0.03    0.78
  -4   7   2    0.45    0.80
  -4  -7  -2    0.32    0.45
  -3  -7  -2    5.75    0.69
  -3   7  -2    5.87    0.88
  -3   7   2    6.06    0.80
  -3   7   2    5.71    1.09
  -3  -7  -2    6.52    0.86
  -3  -7   2    7.50    1.13
  -2  -7  -2  145.22    5.26
  -2   7   2  145.00    5.38
  -2  -7  -2  159.46    5.54
  -2   7   2  150.56    5.99
  -2   7  -2  144.97    5.52
  -1   7   2    1.13    0.82
  -1  -7  -2    0.37    0.57
  -1   7  -2    1.23    0.66
  -1   7   2    2.66    0.62
  -1  -7   2    0.89    0.59
  -1  -7   2    0.82    0.78
  -1  -7  -2    0.69    0.46
   0  -7  -2  291.96   10.16
   0   7   2  305.22   10.22
   0  -7   2  329.93   10.34
   0  -7  -2  303.10   10.31
   1  -7   2    0.41    0.83
   1  -7  -2    0.58    0.60
   1  -7   2    1.73    0.61
   1   7   2    1.83    0.58
   1  -7  -2    1.47    0.57
   1   7  -2    0.87    0.49
   2  -7  -2  153.10    5.52
   2  -7   2  151.92    5.31
   2   7   2  140.93    5.16
   2   7  -2  138.87    5.17
   3  -7   2    6.55    0.78
   3  -7  -2    6.57    0.91
   3  -7   2    8.42    1.27
   3   7   2    5.74    0.69
   3   7  -2    5.71    0.71
   4   7  -2    0.17    0.45
   4  -7   2    0.19    0.50
   4  -7   2    1.36    0.97
   4  -7  -2    0.50    0.62
   5  -7   2    1.27    0.56
   5   7   2    1.80    0.79
   5   7  -2    1.11    0.55
   5  -7   2    2.93    1.15
   5  -7  -2    1.49    0.73
   6  -7  -2   59.12    2.99
   6   7   2   59.59    2.93
   6  -7   2   59.26    2.59
   6   7  -2   54.45    2.55
   7   7   2    1.24    1.99
   7  -7   2    0.72    0.59
   7   7   2    0.03    0.71
   7   7  -2    0.71    0.57
   7  -7   2    0.07    1.26
   7  -7  -2    0.32    0.81
   8  -7   2   93.44    3.64
   8   7   2   91.01    3.97
   8   7  -2   81.56    3.55
   9   7   2    0.41    2.47
   9   7  -2    0.51    0.68
  10   7  -2   42.63    2.44
  10   7   2   47.59    3.11
  11   7  -2   -0.04    0.79
  11   7   2    0.58    1.11
  12   7  -2    4.68    1.08
  12   7   2    5.06    1.46
  13   7  -2    0.41    1.17
  13   7  -2    2.35    1.05
  13   7   2    1.12    1.39
  14   7  -2    5.54    1.30
  14   7   2    6.00    1.77
 -13   8  -2   33.12    2.69
 -13  -8  -2   35.73    1.82
 -12   8   2    2.32    1.39
 -12   8  -2    3.46    1.32
 -12  -8  -2    2.91    0.75
 -12  -8   2    2.20    1.11
 -11  -8   2   42.39    2.54
 -11   8  -2   40.63    2.75
 -11  -8  -2   40.41    1.97
 -10   8   2    3.89    1.33
 -10  -8  -2    5.87    0.79
 -10   8  -2    5.62    1.30
 -10  -8   2    5.11    1.12
  -9  -8  -2    4.67    0.75
  -9   8  -2    3.74    0.75
  -9  -8   2    4.55    1.05
  -9   8  -2    4.31    1.14
  -9   8   2    4.40    1.30
  -8  -8  -2   14.59    1.13
  -8  -8   2   16.00    1.46
  -8   8  -2   14.13    1.12
  -8   8   2   14.37    1.87
  -8   8  -2   16.53    1.66
  -7  -8   2   36.63    2.12
  -7   8  -2   30.66    1.65
  -7  -8  -2   33.49    1.71
  -7   8  -2   34.10    2.24
  -6  -8  -2    6.12    0.81
  -6   8   2    5.07    1.29
  -6   8  -2    5.84    1.08
  -6   8  -2    6.05    0.75
  -6  -8   2    6.23    1.00
  -6  -8  -2    6.27    1.01
  -6  -8   2    6.95    1.29
  -5  -8   2  120.53    4.50
  -5  -8  -2  103.96    4.04
  -5   8   2   96.44    4.85
  -5   8  -2  110.01    4.51
  -5  -8  -2  108.86    4.39
  -5  -8   2  121.26    4.89
  -4  -8  -2    2.81    0.65
  -4  -8   2    2.79    1.04
  -4   8   2    3.79    0.79
  -4  -8  -2    3.17    0.84
  -4   8   2    3.30    1.04
  -4   8  -2    2.71    0.87
  -4  -8   2    2.64    0.77
  -3  -8  -2   98.29    3.83
  -3   8   2   93.38    3.94
  -3  -8  -2  110.31    4.23
  -3   8   2  100.75    4.65
  -3   8  -2   99.78    4.18
  -2  -8  -2   13.41    1.07
  -2   8   2   13.47    1.13
  -2  -8  -2   14.21    1.22
  -2  -8   2   15.85    1.53
  -2   8   2   14.76    1.59
  -2   8  -2   15.69    1.32
  -1  -8   2   12.15    1.10
  -1   8   2   11.26    1.02
  -1  -8  -2   11.98    1.12
  -1  -8  -2   10.41    0.95
  -1  -8   2   13.05    1.43
  -1   8   2   11.06    1.41
  -1   8  -2   11.01    1.15
   0  -8   2   17.51    1.26
   0   8   2   15.78    1.18
   0  -8  -2   15.49    1.27
   0  -8   2   19.98    1.67
   0  -8  -2   16.21    1.17
   1  -8   2   14.46    1.56
   1  -8   2   11.35    1.06
   1   8  -2    9.80    0.90
   1  -8  -2   12.13    1.17
   1   8   2   10.57    0.97
   1  -8  -2   12.21    1.04
   2  -8   2   14.22    1.15
   2   8   2   14.40    1.08
   2   8  -2   12.92    1.04
   2  -8  -2   14.74    1.32
   3  -8   2  105.09    3.92
   3   8   2   90.48    3.68
   3  -8  -2  102.34    4.14
   3   8  -2   91.28    3.73
   4  -8   2    3.42    0.75
   4   8  -2    2.54    0.65
   4  -8   2    3.77    1.24
   4  -8  -2    3.12    0.86
   5  -8   2  113.46    4.17
   5  -8  -2  105.26    4.52
   6   8  -2    5.75    0.85
   6  -8   2    7.00    1.55
   6  -8  -2    5.78    1.10
   6  -8   2    6.79    0.90
   7   8  -2   29.00    1.78
   7  -8   2   34.59    1.90
   8  -8   2   14.19    1.25
   8   8  -2   11.41    1.12
  10   8  -2    5.09    1.08
  10   8   2    4.25    1.38
  11   8   2   41.35    3.00
  11   8  -2   37.03    2.37
  12   8  -2    2.47    0.96
  12   8   2    3.26    1.39
  13   8  -2   31.18    2.27
  13   8   2   33.51    3.00
 -12  -9  -2    1.87    0.76
 -11   9   2    6.84    1.69
 -11  -9  -2   10.10    1.07
 -11  -9   2   10.44    1.48
 -11   9  -2   11.97    1.73
 -10  -9  -2   24.78    1.60
 -10  -9   2   26.33    2.04
 -10   9   2   20.30    2.41
 -10   9  -2   25.07    2.24
  -9   9   2   -0.20    1.38
  -9   9  -2    0.82    1.19
  -9  -9  -2    0.77    0.68
  -9  -9   2    1.60    0.98
  -8  -9  -2   49.87    2.38
  -8   9   2   44.81    3.27
  -8   9  -2   50.21    2.99
  -7  -9  -2   17.50    1.29
  -7  -9   2   18.51    1.63
  -7   9   2   14.67    1.94
  -7   9  -2   16.74    1.69
  -6  -9  -2   27.31    1.60
  -6  -9   2   28.93    1.92
  -6   9   2   25.25    2.31
  -6   9  -2   27.45    2.03
  -5  -9  -2   29.72    1.70
  -5  -9   2   33.89    2.07
  -5   9   2   28.30    2.38
  -5   9  -2   31.88    2.10
  -4   9  -2   -0.11    0.83
  -4  -9  -2    0.39    0.63
  -4  -9   2    0.16    0.72
  -4   9   2    0.11    1.03
  -3  -9  -2   22.08    1.46
  -3   9   2   25.24    2.17
  -3   9  -2   24.01    1.78
  -2  -9  -2   34.25    1.87
  -2  -9   2   38.02    2.49
  -2   9   2   36.00    2.59
  -2   9  -2   34.86    2.14
  -1  -9  -2    1.67    0.78
  -1  -9   2    1.36    1.03
  -1  -9   2    1.87    0.76
  -1   9   2    2.05    0.69
  -1  -9  -2    1.74    0.68
   0  -9  -2   67.36    2.99
   0  -9   2   72.74    3.17
   0   9   2   66.26    3.00
   0  -9  -2   70.61    3.20
   1  -9   2    3.43    0.79
   1   9   2    1.61    0.67
   1  -9  -2    2.07    0.68
   1   9  -2    2.49    0.66
   1  -9   2    2.20    1.13
   1  -9  -2    1.44    0.80
   2  -9   2   38.06    2.05
   2   9   2   32.26    1.82
   2   9  -2   33.43    1.84
   3  -9   2   27.18    1.68
   3   9  -2   21.83    1.48
   4  -9   2    0.81    0.70
   4   9  -2   -0.10    0.59
   5  -9   2   30.93    1.82
   5   9  -2   24.64    1.61
   6  -9   2   25.88    1.68
   6   9  -2   22.52    1.51
   7  -9   2   15.99    1.37
   8  -9   2   51.44    2.61
  11   9  -2    8.67    1.31
  11   9   2   10.14    1.87
 -11 -10  -2    6.74    1.10
 -10 -10  -2   10.71    1.21
  -9 -10  -2    0.74    0.77
  -9  10   2   -0.35    1.44
  -9  10  -2    0.99    1.18
  -8 -10  -2   22.87    1.62
  -8  10  -2   23.01    2.09
  -8 -10   2   24.24    1.90
  -8  10   2   20.93    2.35
  -7  10   2    2.81    1.39
  -7  10  -2    3.88    1.20
  -7 -10  -2    3.49    0.90
  -7 -10   2    3.58    1.10
  -6  10   2    7.95    1.65
  -6 -10  -2    9.36    1.07
  -6  10  -2    9.64    1.47
  -6 -10   2   10.65    1.40
  -5 -10  -2   24.53    1.65
  -5 -10   2   27.76    1.94
  -5  10   2   23.48    2.36
  -5  10  -2   24.01    2.00
  -4  10   2    0.59    1.23
  -4  10  -2    0.24    0.96
  -4 -10  -2    0.45    0.71
  -4 -10   2    0.93    0.85
  -3 -10  -2   36.76    2.02
  -3  10   2   35.69    2.74
  -3  10  -2   36.29    2.33
  -2 -10  -2   31.27    1.85
  -1 -10  -2    6.49    0.98
  -1 -10   2    8.01    1.10
   0 -10   2   55.89    2.68
   0 -10  -2   48.31    2.47
   1 -10  -2    6.35    0.98
   1 -10   2    7.89    1.11
   1  10  -2    6.61    0.92
   2  10  -2   29.82    1.79
   2 -10   2   33.44    2.01
   3 -10   2   37.36    2.15
   4 -10   2    0.37    0.78
   5 -10   2   23.48    1.72
   6 -10   2   10.62    1.25
   7 -10   2    4.80    1.05
   8 -10   2   23.79    1.79
 -10 -11  -2    4.33    1.08
  -9 -11  -2    1.48    0.94
  -8 -11  -2    8.51    1.16
  -7 -11  -2    5.83    1.11
  -6  11   2    1.58    1.50
  -6  11  -2    1.74    1.23
  -6 -11  -2    1.50    0.88
  -5 -11  -2   26.52    1.80
  -5  11   2   24.44    2.53
  -5  11  -2   28.74    2.21
  -4  11   2    1.87    1.44
  -4  11  -2    0.87    1.10
  -4 -11   2    0.79    0.95
  -4 -11  -2    0.57    0.79
  -3 -11  -2   36.83    2.11
  -2 -11  -2    7.84    1.09
  -1 -11  -2    6.08    1.03
  -1 -11   2    5.99    1.11
   0 -11   2   10.33    1.33
   0 -11  -2    9.32    1.19
   1 -11   2    6.80    1.16
   2 -11   2   10.36    1.31
   3 -11   2   39.74    2.37
   4 -11   2    1.15    0.94
   5 -11   2   29.95    2.04
   6 -11   2    1.43    0.95
   7 -11   2    6.12    1.18
 -19   0  -3    0.47    2.62
 -18   0  -3   25.12    2.36
 -18   0  -3   30.09    4.48
 -17   0  -3    1.79    2.49
 -17   0  -3    0.43    1.21
 -17   0   3    0.77    1.55
 -16   0   3   55.86    3.81
 -16   0  -3   47.33    3.04
 -16   0  -3   57.85    5.79
 -15   0  -3    0.76    2.53
 -15   0  -3   -0.45    0.93
 -14   0  -3    7.32    1.21
 -14   0   3    5.37    1.26
 -14   0  -3    7.23    1.56
 -13   0  -3    1.46    2.21
 -13   0  -3    0.18    0.80
 -13   0   3    0.04    0.96
 -13   0  -3    0.70    1.12
 -12   0  -3    8.13    2.60
 -12   0  -3   11.21    1.54
 -12   0  -3   10.19    1.16
 -12   0   3    8.45    1.32
 -11   0  -3   -0.65    1.87
 -11   0  -3    0.22    0.96
 -11   0  -3    0.48    0.67
 -11   0   3    0.22    0.83
 -10   0  -3   90.79    3.55
 -10   0   3   81.29    3.82
 -10   0  -3   91.72    4.07
  -9   0  -3   -0.67    1.99
  -9   0   3    0.06    0.72
  -9   0  -3    0.18    0.46
  -9   0  -3    0.03    0.75
  -8   0  -3  124.25    4.35
  -8   0  -3  133.10    4.88
  -7   0  -3   -0.04    0.35
  -7   0   3   -0.13    0.55
  -7   0  -3    0.53    0.63
  -7   0  -3   -0.96    1.66
  -6   0  -3   86.42    3.02
  -6   0   3   80.99    3.41
  -5   0   3    0.19    0.45
  -5   0  -3    0.14    0.39
  -5   0  -3   -0.28    1.40
  -4   0   3    1.32    0.41
  -4   0  -3    1.26    0.35
  -3   0   3   -0.08    0.36
  -2   0   3  169.85    6.83
  -2   0  -3  152.78    9.09
  -1   0  -3   -0.19    0.89
   0   0  -3  300.22   11.95
   1   0  -3    0.27    0.66
   2   0   3  234.10    6.91
   2   0  -3  147.05    7.91
   3   0  -3   -0.05    0.52
   3   0   3    0.15    0.23
   4   0  -3    0.93    0.50
   5   0  -3   -0.11    0.53
   6   0  -3  115.23    3.84
   6   0   3   72.97    3.31
   7   0  -3    0.12    0.68
   7   0   3    0.21    0.51
   8   0  -3  167.81    5.36
   8   0   3  101.23    4.79
   9   0  -3   -0.14    0.81
   9   0   3   -0.07    0.62
  10   0  -3  117.16    4.40
  10   0   3   74.55    4.00
  11   0  -3    0.34    0.97
  11   0   3    0.40    0.88
  12   0  -3   12.06    1.53
  13   0  -3    0.33    1.06
 -19   1  -3    7.27    3.16
 -18   1  -3    1.91    2.86
 -18   1  -3    2.17    1.46
 -18  -1  -3    2.14    1.36
 -17   1  -3   -1.55    2.69
 -17  -1  -3    0.16    1.20
 -17   1  -3    1.19    1.22
 -17  -1   3    0.62    1.61
 -17   1  -3   -1.34    2.02
 -17   1   3    0.08    1.47
 -16   1  -3    2.33    2.75
 -16  -1  -3    4.19    2.68
 -16  -1  -3    3.04    1.18
 -16   1  -3    3.75    1.32
 -16  -1   3    2.62    1.55
 -16   1  -3    1.76    1.71
 -16   1   3    1.74    1.35
 -15   1   3   18.23    2.37
 -15  -1  -3   21.68    1.93
 -15   1  -3   24.85    2.08
 -15  -1   3   27.97    2.64
 -15   1  -3   25.05    4.10
 -15  -1  -3   25.39    3.93
 -14   1  -3   -0.37    2.23
 -14  -1  -3    0.53    2.20
 -14   1  -3    0.17    0.21
 -14  -1  -3    0.24    0.90
 -14   1  -3    0.16    0.89
 -14  -1   3    0.53    1.22
 -14   1  -3   -0.80    1.32
 -13   1  -3   61.88    2.08
 -13  -1  -3   71.62    3.26
 -13   1  -3   70.23    3.26
 -13   1   3   62.32    3.26
 -13   1  -3   80.58    4.13
 -13  -1   3   71.91    4.02
 -13   1  -3   86.26    7.32
 -13  -1  -3   94.94    6.93
 -12   1   3    1.63    0.91
 -12   1  -3    2.24    0.19
 -12   1  -3    2.87    1.27
 -12  -1  -3    1.71    1.92
 -12  -1  -3    2.90    0.83
 -12   1  -3    2.98    0.83
 -12  -1   3    3.64    1.30
 -12   1  -3    1.28    2.30
 -11  -1  -3   91.16    3.75
 -11   1  -3   88.30    3.72
 -11   1   3   78.75    3.91
 -11   1  -3  105.92    4.75
 -11   1  -3   93.88    7.88
 -11  -1  -3  106.98    7.63
 -10   1   3    4.97    1.00
 -10  -1  -3    4.16    2.18
 -10   1  -3    5.51    1.27
 -10  -1  -3    5.28    0.83
 -10   1  -3    5.20    0.80
 -10   1  -3    2.58    2.17
  -9  -1  -3    2.20    1.67
  -9   1   3    1.45    0.79
  -9   1  -3    2.16    1.04
  -9  -1  -3    1.48    0.58
  -9   1  -3    1.93    0.55
  -9   1  -3    1.03    1.87
  -8  -1  -3    5.48    1.96
  -8   1   3    4.40    0.87
  -8   1  -3    5.73    1.12
  -8  -1  -3    5.82    0.66
  -8   1  -3    6.13    0.67
  -8   1   3    4.75    1.06
  -8   1  -3    4.82    2.07
  -7   1  -3   64.39    2.90
  -7   1   3   36.03    2.71
  -7   1  -3   55.93    2.12
  -7   1   3   49.59    2.48
  -7   1  -3   66.39    2.94
  -7   1  -3   36.31    4.49
  -7  -1  -3   48.93    4.54
  -6  -1  -3    8.28    1.96
  -6   1  -3   14.78    1.17
  -6   1   3    8.33    1.15
  -6   1  -3   13.73    0.75
  -6   1   3   12.18    1.04
  -6   1  -3   13.52    1.24
  -6   1  -3    6.32    2.14
  -5   1  -3  308.67    9.01
  -5   1   3  169.01    8.97
  -5   1  -3  282.41    8.44
  -5   1   3  439.24   10.74
  -5   1  -3  173.06   11.62
  -5   1   3  246.81    8.86
  -5   1  -3  309.25    9.23
  -5  -1  -3  211.69   11.44
  -4   1   3    4.40    0.68
  -4   1  -3    8.89    0.66
  -4   1   3   11.37    1.46
  -4   1   3    6.05    0.64
  -4   1  -3    7.47    0.81
  -3   1  -3  151.84    4.60
  -3   1   3  120.55    4.79
  -3   1   3  123.95    4.73
  -3   1  -3  152.62    4.90
  -2  -1  -3    3.97    1.29
  -2   1   3    3.97    0.37
  -2   1  -3    4.90    0.28
  -2  -1  -3    4.32    0.28
  -2   1   3    4.17    0.40
  -2   1  -3    3.71    1.47
  -2   1  -3    5.20    0.48
  -1  -1  -3   53.20    1.71
  -1  -1   3   51.38    1.76
  -1   1  -3   44.88    3.94
  -1  -1  -3   42.30    3.49
  -1   1   3   45.96    1.78
   0   1  -3   23.33    2.64
   0  -1  -3   21.54    2.23
   1   1  -3   41.68    3.47
   1  -1  -3   42.37    3.23
   2   1  -3    4.73    0.44
   2   1  -3    3.10    0.93
   2   1   3    3.75    0.37
   3   1   3  146.72    4.51
   3   1   3  149.30    4.81
   3   1  -3  102.99    5.77
   3   1  -3  159.03    4.88
   3   1   3  120.33    4.75
   4   1   3    6.06    0.64
   4   1   3    6.84    0.62
   4  -1   3    7.54    0.37
   4   1  -3    4.72    0.91
   4   1  -3    8.94    0.77
   5   1  -3  334.59    9.42
   5  -1   3  289.62    8.59
   5   1   3  277.93    9.15
   5   1  -3  192.85    9.40
   5   1   3  234.42    9.20
   6   1   3   10.06    1.01
   6   1  -3    7.85    0.80
   7   1  -3   68.39    2.77
   7   1   3   42.63    2.50
   8   1  -3    7.52    1.00
   8   1   3    4.28    0.94
   8   1   3    5.15    1.98
   9   1  -3    2.23    0.80
   9   1   3    1.55    0.75
  10   1  -3    5.68    1.06
  10   1   3    3.68    0.99
  11   1  -3  103.97    4.19
  11   1   3   70.56    4.05
  12   1  -3    3.08    1.08
  12   1   3    2.09    0.97
  13   1  -3   82.82    3.74
  13   1   3   58.22    3.70
  14   1   3    0.50    1.08
  14   1  -3    0.90    1.06
  15   1  -3   26.82    2.16
  15   1   3   15.16    2.03
  16   1  -3    3.68    1.33
  16   1   3    2.06    1.43
  17   1  -3    0.58    1.25
 -18   2  -3   17.91    4.12
 -18  -2  -3   12.25    1.88
 -18   2  -3   14.91    1.96
 -17   2  -3   -0.38    2.60
 -17  -2  -3    0.16    1.11
 -17   2  -3    0.90    1.34
 -17  -2   3   -0.38    1.44
 -17   2  -3   -1.04    1.75
 -17   2   3    0.65    1.51
 -16   2   3   20.35    2.56
 -16   2  -3   27.15    3.01
 -16  -2  -3   26.52    2.24
 -16   2  -3   32.45    2.44
 -16  -2   3   24.57    2.66
 -16   2  -3   34.70    5.09
 -15   2  -3    1.86    2.94
 -15  -2  -3    2.85    1.05
 -15   2  -3    3.36    1.25
 -15  -2   3    2.31    1.43
 -15   2  -3    2.18    1.63
 -15   2   3    2.27    1.45
 -14  -2  -3    7.07    1.20
 -14   2  -3    8.90    1.37
 -14  -2   3    7.17    1.64
 -14   2  -3    7.34    1.73
 -14   2   3    6.04    1.57
 -14   2  -3    6.51    3.37
 -13   2  -3   19.70    2.23
 -13   2  -3   16.80    0.77
 -13  -2  -3   19.02    1.60
 -13   2  -3   20.74    1.75
 -13  -2   3   16.36    2.00
 -13   2   3   16.51    1.68
 -13   2  -3   28.84    2.68
 -13   2   3   14.58    2.01
 -13   2  -3   25.25    4.75
 -12   2  -3    3.12    0.32
 -12   2   3    2.97    1.00
 -12   2  -3    5.22    1.59
 -12  -2  -3    3.43    0.84
 -12   2  -3    4.99    1.00
 -12  -2   3    2.94    1.24
 -12   2  -3    2.95    1.25
 -12   2   3    2.74    1.26
 -12   2  -3    5.24    2.91
 -11   2  -3   22.59    2.06
 -11   2   3   13.64    1.85
 -11   2  -3   17.45    0.75
 -11  -2  -3   20.14    1.46
 -11   2  -3   21.85    1.60
 -11  -2   3   17.06    1.88
 -11   2   3   16.99    1.57
 -11   2  -3   25.26    2.44
 -11  -2  -3   21.71    3.36
 -11   2  -3   18.90    4.05
 -10   2  -3  116.77    4.92
 -10   2   3   70.46    4.61
 -10   2  -3  111.16    4.13
 -10  -2   3   93.36    4.57
 -10   2  -3   77.67    7.59
 -10   2   3   90.59    4.17
 -10   2  -3  149.60    5.62
 -10  -2  -3  111.88    7.27
  -9  -2  -3    2.02    1.59
  -9   2   3    1.56    0.81
  -9   2  -3    1.64    0.60
  -9  -2   3    1.82    0.92
  -9   2  -3    2.71    1.18
  -9   2  -3    2.30    0.86
  -9   2   3    1.65    0.93
  -9   2   3    2.00    0.44
  -9   2  -3    3.65    2.39
  -8   2  -3  149.93    5.72
  -8   2   3   90.64    5.59
  -8   2  -3  152.12    5.12
  -8  -2   3  122.68    5.59
  -8   2  -3  116.44    9.53
  -8   2   3  204.89    5.61
  -8  -2  -3  139.98    8.28
  -8   2   3  122.88    5.30
  -8   2  -3  200.07    6.60
  -7   2  -3   39.91    2.40
  -7   2  -3   32.34    1.85
  -7   2   3   17.17    1.78
  -7   2  -3   30.53    1.44
  -7  -2   3   26.59    1.83
  -7   2  -3   28.48    4.39
  -7   2   3   40.02    1.99
  -7  -2  -3   28.70    3.44
  -7   2   3   26.16    1.66
  -6   2   3   71.28    3.12
  -6   2  -3   91.80    3.34
  -6   2  -3   85.07    2.86
  -6  -2   3   72.00    3.36
  -6   2  -3   50.10    5.49
  -6   2   3  105.23    3.88
  -6   2  -3  102.73    3.94
  -6  -2  -3   75.53    5.56
  -6   2   3   47.90    3.25
  -5   2   3   40.12    2.04
  -5   2  -3   61.99    2.74
  -5   2  -3   54.24    2.13
  -5   2   3   34.83    2.25
  -5   2  -3   53.95    1.82
  -5  -2   3   47.35    2.30
  -5   2  -3   31.54    4.01
  -5   2   3   63.01    2.91
  -5  -2  -3   44.81    4.02
  -4   2   3    4.97    0.57
  -4   2   3    6.46    0.76
  -4   2  -3    9.10    0.93
  -4   2  -3    7.59    0.38
  -4  -2   3    7.41    0.74
  -4   2  -3    8.10    0.63
  -4   2   3   10.08    1.22
  -3   2   3   25.03    1.36
  -3   2  -3   30.04    1.19
  -3   2   3   23.57    1.21
  -3  -2   3   29.43    1.36
  -3   2  -3   38.19    1.72
  -3   2   3   39.55    2.48
  -2  -2   3   83.21    2.77
  -2   2   3   74.28    2.83
  -2   2  -3   76.97    2.62
  -2  -2  -3   75.86    2.62
  -2  -2   3   79.41    2.79
  -1  -2  -3    0.75    0.20
  -1  -2   3    0.89    0.28
  -1   2  -3    1.03    0.20
  -1   2   3    0.92    0.30
   0  -2   3  196.99    6.58
   0  -2  -3  198.21    6.37
   1   2   3    1.07    0.33
   1  -2   3    1.06    0.39
   1  -2  -3    1.22    0.29
   1   2   3    1.51    1.14
   2   2   3   81.95    2.87
   2   2   3  123.50    6.34
   3   2   3   30.77    1.16
   3  -2   3   31.77    1.22
   3   2   3   31.58    1.47
   3   2  -3   29.98    1.32
   4   2   3    7.88    0.40
   4  -2   3    8.43    0.47
   4   2   3    7.86    0.73
   4   2  -3    8.19    0.69
   4   2   3    6.61    0.75
   5  -2   3   50.78    1.79
   5   2   3   51.77    2.24
   5   2  -3   54.17    2.24
   6  -2   3   82.00    2.57
   6   2   3   83.36    3.18
   6   2  -3   83.76    3.16
   7   2   3   33.39    1.75
   7   2  -3   21.69    1.52
   7   2  -3   29.29    1.72
   7   2   3   25.90    1.88
   8   2   3  144.37    5.34
   8   2  -3  144.44    5.33
   9   2   3    1.76    0.94
   9   2   3    3.86    2.29
   9   2  -3    1.93    0.81
  10   2  -3  112.14    4.33
  10   2   3  106.13    7.69
  11   2   3   14.08    1.73
  11   2   3   13.93    2.97
  12   2  -3    3.47    1.02
  12   2   3    1.26    1.07
  13   2   3   12.85    1.84
  13   2  -3   19.76    1.78
  14   2  -3    7.68    1.30
  14   2   3    3.95    1.33
  15   2  -3    1.86    1.15
  15   2   3    0.36    1.32
  16   2  -3   26.66    2.18
  16   2   3   19.60    2.41
  17   2   3    0.16    1.38
  17   2  -3   -0.15    1.06
 -18   3  -3    9.16    3.58
 -18   3  -3   11.54    1.98
 -17   3  -3    0.88    1.47
 -17   3  -3   -0.53    1.53
 -17   3   3    0.67    1.47
 -17   3  -3   -0.97    3.43
 -16   3  -3   15.67    2.32
 -16   3  -3   18.16    2.11
 -16  -3   3   11.28    1.93
 -16   3   3   11.66    2.08
 -16   3  -3   15.93    4.61
 -15   3  -3   23.11    2.52
 -15   3   3   15.49    2.28
 -15  -3   3   15.73    2.08
 -15   3  -3   23.48    2.14
 -15   3  -3   22.19    4.80
 -14  -3   3    3.59    1.31
 -14   3  -3    5.53    1.30
 -14   3  -3    4.22    1.49
 -14   3   3    4.62    1.55
 -14   3  -3    6.61    3.37
 -13  -3  -3   30.12    1.12
 -13   3  -3   37.40    2.83
 -13   3   3   25.45    2.63
 -13   3  -3   30.51    1.29
 -13  -3   3   29.74    2.48
 -13   3  -3   42.44    2.51
 -13   3  -3   39.78    5.86
 -13   3   3   33.77    2.21
 -12  -3  -3    1.85    0.23
 -12   3  -3    1.80    0.35
 -12   3   3    1.97    0.98
 -12  -3   3    1.86    1.09
 -12   3  -3    2.41    0.94
 -12   3  -3    2.81    1.72
 -12   3  -3    2.94    1.18
 -12   3   3    0.42    1.04
 -12   3  -3    2.98    2.66
 -11  -3  -3   25.23    0.93
 -11   3  -3   30.60    2.31
 -11   3   3   16.88    2.09
 -11   3  -3   24.89    1.08
 -11  -3   3   22.73    2.04
 -11   3  -3   33.90    2.07
 -11   3  -3   29.93    5.25
 -11   3   3   25.97    1.27
 -11   3   3   26.55    1.87
 -11   3  -3   41.39    3.05
 -10  -3  -3   33.82    1.17
 -10   3  -3   37.85    2.41
 -10   3  -3   31.53    1.29
 -10  -3   3   28.24    2.16
 -10   3  -3   31.86    5.44
 -10   3   3   37.58    1.79
 -10   3   3   31.72    2.03
  -9   3   3    0.65    0.55
  -9   3   3    0.47    0.66
  -9   3  -3    0.81    1.13
  -9  -3  -3    0.79    0.19
  -9  -3   3    0.68    0.81
  -9   3  -3    1.44    0.77
  -9   3   3    0.79    0.90
  -9   3  -3    0.49    1.99
  -8   3   3   44.21    2.30
  -8   3  -3   69.27    3.41
  -8   3  -3   55.12    2.59
  -8   3   3   31.40    2.52
  -8  -3   3   46.07    2.58
  -8   3  -3   32.36    4.53
  -8   3   3   58.85    2.61
  -7   3   3   11.62    1.06
  -7   3  -3   16.40    1.22
  -7   3   3    8.53    1.19
  -7  -3   3   13.48    1.25
  -7   3   3   15.88    1.38
  -7   3  -3    9.54    2.61
  -7   3  -3   19.63    1.74
  -6   3  -3   25.14    1.45
  -6   3   3   16.52    1.58
  -6   3   3   19.24    1.28
  -6   3  -3   34.55    2.06
  -6  -3   3   23.30    1.53
  -6   3   3   28.78    1.96
  -5   3  -3  117.46    4.01
  -5   3   3   84.40    4.22
  -5  -3   3  110.93    4.17
  -5   3   3   93.16    3.88
  -5   3  -3  158.51    5.02
  -5   3   3  155.70    5.45
  -4   3   3    5.43    0.75
  -4   3  -3    5.76    0.56
  -4  -3   3    7.24    0.72
  -3  -3   3  149.06    4.99
  -3   3  -3  152.29    4.90
  -3   3   3  132.02    5.16
  -3  -3  -3  141.21    4.82
  -3  -3   3  143.92    5.10
  -2  -3  -3   72.35    2.53
  -2   3   3   67.07    2.78
  -2  -3   3   74.44    2.77
  -2   3  -3   69.71    2.53
  -1   3   3   41.85    1.91
  -1  -3  -3   41.25    1.59
  -1  -3   3   43.42    1.84
  -1   3   3   41.39    1.84
  -1   3  -3   40.34    1.58
   0  -3   3  143.75    4.93
   0   3   3  137.82    4.80
   0  -3  -3  134.19    4.59
   1  -3   3   41.97    2.04
   1  -3  -3   42.15    1.70
   1   3   3   43.10    1.76
   2   3   3   74.59    2.68
   2  -3   3   70.96    3.25
   2  -3  -3   74.50    2.82
   2  -3   3   77.91    2.72
   3  -3  -3  145.83    5.05
   3  -3   3  150.98    4.77
   3   3   3  140.27    4.66
   4  -3   3    6.66    0.50
   4   3   3    5.99    0.42
   4   3   3    7.36    0.75
   5  -3   3  119.99    3.87
   5   3  -3  110.36    4.12
   5   3   3  105.73    4.47
   5   3   3  113.66    4.32
   6   3   3   25.00    1.51
   6   3   3   22.63    1.66
   6  -3   3   25.69    1.12
   6   3  -3   23.16    1.37
   7   3   3   14.19    1.22
   7   3  -3   13.84    1.09
   7   3   3   11.25    1.29
   8   3   3   51.96    2.56
   8   3  -3   49.78    2.42
   8   3   3   44.12    2.78
   9   3  -3    0.63    0.75
   9   3   3   -0.05    0.98
   9   3   3    0.49    0.70
   9   3   3    3.03    2.21
  10   3   3   44.58    5.00
  10   3  -3   36.78    2.19
  11   3   3   27.72    4.47
  11   3  -3   24.04    1.79
  11   3   3   19.09    2.08
  12   3   3    1.26    1.16
  12   3   3    1.73    2.20
  12   3  -3    1.38    0.96
  13   3  -3   33.11    2.24
  13   3   3   26.00    2.59
  14   3  -3    3.06    1.12
  14   3   3    3.34    1.46
  15   3   3   16.76    2.24
  15   3  -3   18.95    1.86
  16   3  -3   13.59    1.69
  16   3   3   12.61    2.15
  17   3   3   -0.34    1.55
  17   3  -3    0.05    1.08
 -18   4  -3    7.03    1.96
 -17   4  -3   -0.65    1.48
 -17   4  -3   -1.46    3.82
 -16   4   3   13.08    2.11
 -16   4  -3   12.07    2.09
 -16   4  -3   15.39    2.09
 -16  -4   3    9.07    1.88
 -16   4  -3   16.70    4.55
 -15   4  -3   19.74    2.31
 -15   4   3   12.43    2.08
 -15  -4   3   14.09    2.01
 -15   4  -3   21.82    2.20
 -15   4  -3   27.47    5.47
 -14  -4   3    3.32    1.46
 -14   4  -3    7.31    1.54
 -14   4  -3    4.92    1.44
 -14   4   3    4.13    1.50
 -14   4  -3    1.51    3.10
 -13  -4  -3   36.68    1.40
 -13   4  -3   40.92    2.83
 -13   4   3   27.73    2.69
 -13  -4   3   32.48    2.68
 -13   4  -3   41.02    6.70
 -13   4  -3   36.92    1.54
 -12   4  -3    1.27    1.54
 -12  -4  -3    0.37    0.27
 -12   4  -3    0.40    0.36
 -12  -4   3    0.11    1.03
 -12   4  -3    0.68    3.08
 -12   4  -3    0.76    0.97
 -12   4   3    0.47    1.04
 -12   4   3   -0.15    0.79
 -11   4   3   21.71    1.68
 -11  -4  -3   24.03    1.00
 -11   4  -3   27.60    2.07
 -11   4  -3   23.28    1.10
 -11  -4   3   22.42    2.01
 -11   4  -3   20.97    4.42
 -10  -4  -3   31.91    1.23
 -10   4   3   27.67    1.85
 -10   4  -3   36.47    2.24
 -10   4  -3   31.38    1.33
 -10  -4   3   30.08    2.22
 -10   4  -3   29.64    4.80
  -9  -4   3    1.29    0.82
  -9  -4  -3    1.65    0.30
  -9   4   3    0.89    0.63
  -9   4  -3    1.63    1.21
  -9   4  -3    1.57    0.87
  -9   4   3    0.61    0.93
  -8  -4  -3   33.97    1.30
  -8   4  -3   45.72    2.79
  -8   4   3   19.20    2.00
  -8   4   3   28.98    1.75
  -8  -4   3   33.70    2.13
  -8   4  -3   38.85    2.10
  -7   4  -3   19.19    1.31
  -7  -4  -3   17.83    0.83
  -7   4   3   11.04    1.40
  -7  -4   3   17.39    1.42
  -7   4   3   13.81    1.12
  -7   4  -3   23.93    1.94
  -6  -4  -3   20.69    0.92
  -6   4   3   14.31    1.44
  -6   4  -3   21.14    1.29
  -6  -4   3   19.34    1.39
  -6   4   3   16.71    1.17
  -5   4   3   88.34    3.81
  -5  -4   3   96.48    3.66
  -5   4  -3   97.29    3.47
  -4   4   3   12.26    1.12
  -4   4   3   12.77    1.16
  -4   4  -3   14.26    0.92
  -4  -4  -3   13.72    0.90
  -4  -4   3   14.22    1.10
  -3   4   3  133.27    4.95
  -3   4   3  123.63    4.94
  -3   4  -3  135.89    4.59
  -3  -4  -3  134.44    4.55
  -3  -4   3  140.29    4.91
  -2   4   3   38.92    1.87
  -2  -4  -3   36.98    1.58
  -2  -4   3   41.05    1.90
  -2   4   3   34.44    1.85
  -2   4  -3   37.21    1.60
  -1   4   3   30.50    1.54
  -1  -4  -3   29.79    1.31
  -1  -4   3   31.21    1.59
  -1   4  -3   28.39    1.11
  -1   4   3   29.12    1.59
  -1   4  -3   28.61    1.31
   0   4   3  108.62    3.79
   0  -4  -3  102.52    3.62
   0  -4   3  110.65    4.03
   0   4  -3  100.60    3.45
   1   4   3   31.58    1.43
   1  -4   3   32.87    1.47
   1  -4   3   34.67    1.87
   1   4  -3   28.87    1.24
   1  -4  -3   29.51    1.44
   2   4   3   37.98    1.64
   2  -4   3   40.75    2.22
   2  -4   3   42.09    1.73
   2  -4  -3   38.77    1.75
   3  -4   3  138.75    5.72
   3  -4  -3  137.24    5.03
   3   4   3  140.51    4.74
   3  -4   3  147.27    4.86
   4  -4   3   12.32    1.46
   4  -4  -3   13.50    1.08
   4  -4   3   14.08    0.83
   4   4   3   13.30    0.75
   4   4   3   14.11    1.12
   5  -4   3  105.89    3.68
   5   4   3  101.87    4.14
   6  -4   3   21.79    1.09
   6   4  -3   19.66    1.24
   6   4   3   20.32    1.61
   6   4   3   22.08    1.48
   7  -4   3   17.86    0.99
   7   4  -3   16.16    1.17
   7   4   3   15.91    1.51
   7   4   3   18.79    1.42
   8   4  -3   32.01    1.85
   8   4   3   31.07    2.30
   9   4  -3    0.89    0.69
   9   4   3    2.04    1.05
   9   4   3    2.37    0.84
   9   4   3    2.83    2.23
  10   4   3   33.82    2.17
  10   4  -3   32.56    1.99
  10   4   3   31.59    2.55
  11   4   3   27.81    4.44
  11   4  -3   23.60    1.73
  11   4   3   20.41    2.17
  11   4  -3   16.46    1.24
  12   4  -3    0.08    0.91
  12   4   3   -0.14    1.24
  12   4  -3    0.11    0.22
  13   4  -3   36.70    2.35
  13   4   3   33.34    2.97
  14   4   3    3.70    1.58
  14   4  -3    2.14    1.09
  15   4  -3   13.91    1.67
  15   4   3   14.31    2.19
  16   4  -3    9.81    1.52
  16   4   3   11.00    2.19
  17   4   3    1.45    1.78
 -17   5  -3    1.47    1.59
 -16   5  -3   22.38    2.49
 -16   5   3   11.46    2.15
 -16  -5   3   14.98    2.19
 -16   5  -3   25.62    2.66
 -16   5  -3   22.84    5.43
 -15  -5   3    1.26    1.36
 -15   5  -3    2.85    3.74
 -15   5  -3    1.33    1.33
 -15   5   3    1.49    1.44
 -14  -5   3    5.49    1.47
 -14   5  -3   11.13    4.78
 -14   5  -3    8.42    1.74
 -14   5   3    5.51    1.66
 -13  -5  -3    5.76    0.54
 -13  -5   3    6.45    1.49
 -13   5  -3    4.58    3.58
 -13   5  -3    6.08    1.48
 -13   5   3    4.39    1.51
 -12  -5  -3    4.05    0.49
 -12   5  -3    4.69    0.57
 -12  -5   3    4.78    1.29
 -12   5  -3    2.64    2.50
 -12   5  -3    3.76    1.30
 -12   5   3    4.06    1.42
 -11   5   3    9.46    1.17
 -11   5  -3   11.26    0.79
 -11   5  -3   12.83    1.56
 -11  -5   3   10.75    1.52
 -11  -5  -3   11.28    0.71
 -11   5   3    7.42    1.54
 -10   5   3   46.30    2.63
 -10   5  -3   59.66    2.25
 -10   5  -3   66.35    3.18
 -10   5   3   37.75    3.09
 -10  -5   3   60.68    3.26
 -10  -5  -3   61.82    2.18
  -9   5   3    0.39    0.64
  -9  -5   3    1.10    0.82
  -9   5  -3    0.58    1.20
  -9  -5  -3    0.35    0.32
  -9   5  -3    1.01    0.83
  -9   5   3    0.62    0.93
  -8  -5  -3  123.72    3.97
  -8   5   3   81.37    4.81
  -8   5  -3  132.04    4.75
  -8  -5   3  120.92    4.89
  -8   5   3   96.84    4.32
  -7  -5  -3    7.18    0.59
  -7   5  -3    7.35    0.92
  -6   5   3   30.71    2.00
  -6  -5  -3   35.40    1.49
  -6   5   3   27.25    2.05
  -6   5  -3   38.55    1.88
  -6  -5  -3   38.83    1.84
  -6  -5   3   36.17    2.11
  -5  -5  -3   27.55    1.27
  -5   5  -3   28.01    1.51
  -5  -5  -3   29.96    1.52
  -5  -5   3   30.14    1.79
  -5   5   3   25.01    1.69
  -4   5   3    2.62    0.84
  -4   5  -3    2.52    0.59
  -4  -5  -3    2.20    0.53
  -4  -5   3    3.09    0.76
  -4   5   3    2.43    0.68
  -3   5   3   11.61    1.06
  -3  -5  -3   11.40    0.86
  -3  -5   3   14.27    1.19
  -3   5   3   11.85    1.18
  -3   5  -3   12.18    0.89
  -2   5   3   76.09    3.13
  -2  -5  -3   78.19    2.94
  -2   5   3   73.36    3.34
  -2   5  -3   75.69    2.93
  -1  -5  -3    2.04    0.49
  -1  -5   3    2.35    0.63
  -1   5   3    2.12    0.54
  -1   5   3    2.98    0.69
  -1   5  -3    2.06    0.46
  -1  -5   3    2.87    0.60
  -1   5  -3    2.11    0.32
   0   5   3  107.51    3.84
   0  -5   3  119.21    3.94
   0  -5  -3   99.16    3.69
   0  -5   3  111.43    4.21
   0   5  -3   97.22    3.48
   1   5   3    3.11    0.51
   1  -5   3    2.95    0.55
   1   5  -3    2.27    0.38
   1  -5   3    2.00    0.80
   1  -5  -3    1.46    0.48
   2   5   3   75.40    2.83
   2  -5   3   80.50    2.94
   2  -5   3   83.79    3.66
   2  -5  -3   70.92    2.92
   2   5  -3   71.76    2.74
   3  -5   3   12.14    1.39
   3  -5   3   12.97    0.88
   3  -5  -3   14.52    1.06
   3   5   3   13.31    0.84
   3   5  -3   11.48    0.81
   4   5   3    2.48    0.42
   4  -5   3    2.73    0.51
   4  -5   3    1.61    0.96
   4  -5  -3    2.13    0.61
   5  -5   3   28.75    2.40
   5  -5  -3   25.22    1.67
   5  -5   3   28.01    1.38
   5   5   3   29.15    1.81
   6  -5   3   38.05    1.72
   6   5   3   38.21    2.19
   7  -5   3    7.01    0.70
   7   5  -3    5.79    0.79
   7   5   3    6.14    1.12
   7   5   3    7.63    1.03
   8  -5   3  127.65    4.39
   8   5  -3  112.30    4.56
   8   5   3  118.78    5.29
   8   5   3  119.07    4.86
   9   5  -3    0.48    0.63
   9   5   3    0.87    1.03
   9   5   3    0.63    0.79
   9   5   3   -0.20    2.42
  10   5   3   62.51    3.19
  10   5  -3   57.96    2.87
  10   5   3   59.32    3.59
  11   5   3   13.59    1.52
  11   5  -3    9.39    1.18
  11   5   3   13.30    1.88
  12   5  -3    3.31    0.79
  12   5   3    3.97    1.51
  12   5  -3    4.38    1.02
  13   5  -3    5.18    1.14
  13   5   3    5.05    1.71
  13   5  -3    3.59    0.71
  14   5  -3    6.59    1.29
  14   5   3    4.84    1.76
  15   5  -3    1.80    1.10
  15   5   3    0.70    1.60
  16   5  -3   15.86    1.81
  16   5   3   12.79    2.33
 -15  -6   3    9.61    1.78
 -15   6  -3   10.94    5.05
 -15   6  -3   11.69    1.90
 -15   6   3    7.69    1.81
 -14  -6   3    0.74    1.34
 -14   6  -3   -0.35    3.22
 -14   6  -3   -0.28    1.17
 -14   6   3   -0.29    1.25
 -13   6  -3   41.23    2.72
 -13   6   3   20.19    2.37
 -13  -6   3   34.35    2.64
 -13   6  -3   21.81    5.04
 -12   6  -3   -0.29    1.15
 -12   6   3   -0.28    1.17
 -12  -6  -3    0.61    0.41
 -12   6  -3    0.39    0.47
 -11   6  -3   36.96    2.42
 -11   6  -3   33.72    1.57
 -11  -6  -3   34.49    1.51
 -10   6   3    1.06    0.99
 -10   6  -3    1.05    0.90
 -10  -6  -3    1.22    0.42
 -10   6  -3    1.49    0.47
 -10   6   3    0.82    0.64
 -10   6  -3    1.64    1.32
  -9   6   3    1.59    1.00
  -9   6  -3    1.82    0.82
  -9  -6  -3    1.31    0.42
  -9   6  -3    1.99    1.33
  -9   6   3    1.38    0.66
  -8   6   3    0.93    0.87
  -8   6  -3    1.10    0.78
  -8  -6  -3    0.57    0.41
  -8  -6  -3    1.21    0.76
  -7   6  -3   30.98    1.80
  -7  -6  -3   30.22    1.41
  -7  -6  -3   31.78    1.78
  -7  -6   3   34.73    2.18
  -7   6   3   27.00    1.93
  -6  -6  -3    6.22    0.63
  -6   6   3    4.78    1.12
  -6   6   3    4.47    0.94
  -6   6  -3    6.13    0.90
  -6  -6  -3    5.91    0.84
  -6  -6   3    6.52    1.12
  -5   6   3  117.07    4.69
  -5  -6  -3  115.85    4.13
  -5   6  -3  124.74    4.48
  -5  -6  -3  122.51    4.40
  -5  -6   3  125.58    4.88
  -4   6   3    1.56    0.69
  -4   6   3    1.71    0.84
  -4   6  -3    1.38    0.58
  -4  -6  -3    1.89    0.59
  -4  -6   3    1.49    0.79
  -4  -6  -3    1.64    0.48
  -3   6   3  105.57    4.24
  -3  -6   3  123.45    4.38
  -3  -6  -3  108.94    4.03
  -3  -6   3  118.95    4.56
  -3   6   3   96.68    4.48
  -3   6  -3  107.32    4.06
  -2  -6  -3    0.74    0.53
  -2  -6   3    0.43    0.74
  -2   6   3   -0.10    0.67
  -2   6  -3    0.31    0.51
  -2   6   3    0.41    0.57
  -2  -6   3    0.41    0.59
  -1  -6   3   21.12    1.32
  -1   6  -3   18.15    0.95
  -1  -6  -3   18.62    1.14
  -1  -6   3   20.74    1.53
  -1   6   3   19.18    1.23
  -1   6   3   16.62    1.48
   0   6   3   11.70    0.94
   0  -6   3   12.45    1.00
   0  -6  -3   11.18    0.89
   0  -6   3   12.23    1.25
   0   6  -3   10.50    0.73
   1   6   3   18.71    1.16
   1  -6   3   20.93    1.26
   1  -6   3   21.93    1.65
   1  -6  -3   18.24    1.17
   1   6  -3   16.90    0.98
   2   6   3    1.24    1.67
   2  -6   3    0.44    0.46
   2   6   3    0.33    0.47
   2   6  -3    0.36    0.36
   2  -6   3    1.33    0.83
   2  -6  -3    0.46    0.51
   3  -6   3  115.15    4.07
   3  -6   3  123.59    5.12
   3  -6  -3  103.42    4.16
   3   6   3  113.78    3.96
   3   6  -3  101.35    3.88
   4   6   3    2.14    1.97
   4  -6   3    1.48    0.51
   4   6   3    1.97    0.48
   4   6  -3    1.77    0.51
   4  -6   3    2.29    1.03
   4  -6  -3    1.47    0.62
   5  -6   3  133.33    5.90
   5  -6   3  127.13    4.37
   5  -6  -3  114.12    4.63
   5   6   3  122.44    4.85
   5   6  -3  106.94    4.24
   6  -6   3    5.79    0.72
   6   6   3    6.01    1.03
   6  -6   3    6.55    1.59
   6  -6  -3    4.70    0.90
   7  -6   3   32.51    1.67
   7   6   3   32.96    2.09
   8   6   3    1.68    2.26
   8  -6   3    0.76    0.56
   8   6   3    0.11    0.76
   8   6  -3    0.91    0.66
   8   6   3    1.00    0.97
   9   6   3    2.01    0.92
   9   6  -3    1.19    0.72
   9   6   3    2.21    1.12
  10   6  -3    0.88    0.69
  10   6   3    2.56    1.21
  11   6  -3   31.47    2.05
  11   6   3   33.61    2.84
  12   6  -3    0.07    0.88
  12   6   3    0.15    1.47
  13   6  -3   32.31    2.21
  13   6   3   31.57    3.06
  14   6  -3   -0.13    1.06
  14   6   3   -0.08    1.52
  15   6   3   10.00    2.31
  15   6  -3   10.49    1.54
 -14   7   3    2.04    1.40
 -14   7  -3    3.56    1.41
 -13   7   3    0.42    1.25
 -13   7  -3    0.86    1.08
 -12   7   3    3.10    1.30
 -12   7  -3    5.69    1.30
 -11   7   3   -0.13    1.10
 -11   7  -3    0.87    0.97
 -11  -7  -3   -0.03    0.49
 -11   7  -3    0.21    0.51
 -10  -7  -3   30.93    1.49
 -10   7  -3   34.33    2.22
  -9   7   3    0.29    0.95
  -9   7  -3    1.27    0.85
  -9  -7  -3   -0.07    0.48
  -8  -7  -3   55.14    2.30
  -8   7  -3   61.39    2.90
  -8  -7  -3   57.60    2.74
  -8  -7   3   62.33    3.22
  -7   7   3    0.16    1.08
  -7   7  -3   -0.16    0.82
  -7  -7  -3    0.54    0.73
  -7  -7   3    0.47    0.96
  -7  -7  -3    0.57    0.49
  -6   7   3   26.31    1.81
  -6  -7  -3   27.47    1.41
  -6   7  -3   28.55    1.77
  -6  -7  -3   28.69    1.70
  -6  -7   3   30.85    2.10
  -5   7   3    0.23    0.88
  -5   7  -3    0.36    0.63
  -5  -7  -3    0.23    0.58
  -5  -7   3   -0.08    0.83
  -5  -7  -3   -0.05    0.47
  -5   7   3   -0.22    0.70
  -4  -7   3    0.26    0.82
  -4   7   3    0.82    0.85
  -4   7  -3    0.42    0.65
  -4  -7  -3    0.25    0.46
  -4   7   3    1.32    0.65
  -4  -7   3   -0.11    0.70
  -4  -7  -3    0.67    0.62
  -3   7   3    3.23    1.02
  -3  -7  -3    3.30    0.62
  -3   7   3    3.65    0.77
  -3  -7   3    3.56    0.81
  -3  -7  -3    4.65    0.77
  -3   7  -3    4.37    0.80
  -3  -7   3    2.89    1.04
  -2   7   3   79.60    3.36
  -2  -7  -3   77.47    3.21
  -2  -7   3   93.87    3.89
  -2   7   3   74.61    3.78
  -2   7  -3   78.34    3.26
  -2  -7   3   91.25    3.51
  -1  -7  -3    0.12    0.59
  -1  -7   3    0.04    0.83
  -1   7   3    0.45    0.57
  -1  -7   3    0.75    0.62
  -1   7  -3    0.07    0.39
   0  -7   3  168.37    5.57
   0   7   3  148.58    5.38
   0  -7   3  173.41    6.19
   0  -7  -3  146.04    5.35
   0   7  -3  139.25    5.08
   1  -7   3   -0.25    0.54
   1   7   3    0.20    0.50
   1   7  -3    0.48    0.41
   1  -7   3   -0.21    0.97
   1  -7  -3   -0.22    0.63
   2  -7   3   85.19    3.28
   2   7   3   78.48    3.12
   2  -7  -3   78.34    3.29
   2   7  -3   72.34    2.94
   3  -7   3    3.51    0.71
   3   7   3    3.20    0.61
   3   7  -3    3.39    0.57
   3  -7   3    5.72    1.30
   3  -7  -3    3.28    0.73
   4  -7   3    0.35    0.56
   4   7   3    0.64    1.98
   4   7   3    0.74    0.44
   4   7  -3    0.40    0.46
   4  -7   3    1.08    1.16
   4  -7  -3    0.09    0.63
   5   7   3    0.36    2.12
   5  -7   3   -0.26    0.56
   5   7   3    0.07    0.74
   5   7  -3    0.28    0.46
   5  -7   3   -0.13    1.06
   5  -7  -3    0.18    0.62
   6  -7   3   31.07    1.66
   6  -7   3   31.25    2.83
   6  -7  -3   26.76    1.89
   6   7   3   29.66    2.05
   6   7  -3   25.41    1.52
   7  -7   3    0.11    0.59
   7   7   3    0.70    0.84
   7  -7  -3   -0.26    0.85
   8  -7   3   56.18    2.56
   9   7  -3    0.47    0.70
   9   7   3    0.88    1.16
  10   7  -3   27.50    1.86
  10   7   3   31.54    2.64
  11   7  -3    0.20    0.80
  11   7   3    0.67    1.34
  12   7  -3    3.27    1.02
  12   7   3    5.10    1.67
  13   7  -3    0.67    0.99
  13   7   3    0.57    1.64
  14   7  -3    3.08    1.16
  14   7   3    2.67    1.78
 -12   8  -3    2.21    1.20
 -12   8   3    0.71    1.24
 -11  -8  -3   25.79    1.40
 -11   8  -3   25.65    2.06
 -10   8   3    2.27    1.22
 -10   8  -3    3.66    1.07
 -10  -8  -3    2.94    0.69
  -9   8   3    1.37    1.19
  -9   8  -3    1.36    1.05
  -9  -8  -3    1.62    0.60
  -9  -8   3    1.03    1.00
  -8  -8  -3    5.19    0.75
  -8   8   3    2.26    1.23
  -8   8  -3    4.94    1.13
  -8  -8   3    6.31    1.20
  -7  -8  -3   20.68    1.29
  -7   8   3   17.59    2.02
  -7   8  -3   22.63    1.70
  -6  -8  -3    4.24    0.70
  -6  -8  -3    4.87    0.95
  -6  -8   3    3.95    1.14
  -6   8  -3    3.25    0.92
  -6   8   3    3.17    1.23
  -5  -8  -3   63.21    2.70
  -5  -8  -3   67.80    2.96
  -5  -8   3   70.44    3.51
  -5   8  -3   65.46    3.00
  -4  -8   3    0.76    1.06
  -4  -8  -3    1.75    0.75
  -4   8   3    0.45    1.00
  -4   8  -3    0.94    0.72
  -4  -8  -3    0.61    0.55
  -4  -8   3    0.54    0.78
  -3   8   3   49.75    2.49
  -3  -8   3   57.11    2.68
  -3  -8  -3   50.00    2.41
  -3  -8   3   57.11    3.01
  -3   8   3   47.69    2.99
  -3   8  -3   47.79    2.42
  -3  -8  -3   47.26    2.25
  -2  -8  -3    3.60    0.75
  -2  -8   3    4.87    1.15
  -2   8   3    3.05    1.11
  -2   8  -3    2.98    0.75
  -2   8   3    2.68    0.75
  -2  -8   3    4.53    0.91
  -1   8   3    8.06    0.97
  -1  -8   3    9.10    1.06
  -1  -8  -3    8.60    0.96
  -1  -8   3    9.60    1.40
  -1   8  -3    7.63    0.74
   0  -8   3   10.73    1.11
   0   8   3   10.59    1.06
   0  -8   3   13.32    1.63
   0  -8  -3   10.48    1.09
   0   8  -3    9.37    0.82
   1  -8   3    8.98    1.00
   1   8   3    8.37    0.94
   1  -8   3   10.02    1.50
   1  -8  -3    7.41    0.97
   1   8  -3    7.46    0.75
   2   8   3    3.74    0.72
   2  -8   3    4.22    0.85
   2   8  -3    2.91    0.58
   2  -8   3    5.46    1.32
   2  -8  -3    2.99    0.79
   3  -8   3   53.07    2.40
   3  -8  -3   47.87    2.42
   3   8   3   48.37    2.22
   4  -8   3    0.33    0.61
   4   8   3    0.58    0.55
   4   8  -3    0.57    0.51
   4  -8   3    0.40    1.24
   4  -8  -3    0.48    0.73
   5  -8  -3   60.67    3.06
   5   8  -3   58.53    2.67
   6  -8   3    3.64    0.78
   6   8  -3    3.03    0.69
   6  -8   3    3.01    1.62
   6  -8  -3    2.32    0.90
   7  -8   3   23.28    1.53
   7   8  -3   18.29    1.34
   8  -8   3    6.26    0.99
   9   8   3    2.18    1.30
  10   8  -3    2.47    0.88
  10   8   3    2.58    1.46
  11   8  -3   19.64    1.62
  11   8   3   24.25    2.48
  12   8  -3    1.29    0.96
  12   8   3    0.84    1.53
  13   8   3   21.96    2.74
 -11   9   3    3.02    1.60
 -11   9  -3    6.45    1.53
 -10  -9  -3   19.22    1.33
 -10   9  -3   20.82    1.96
  -9   9  -3    0.41    1.01
  -9  -9  -3    0.11    0.63
  -9  -9   3    0.56    1.10
  -9   9   3    0.33    1.34
  -8  -9   3   36.28    2.36
  -8   9  -3   31.93    2.18
  -8  -9  -3   32.25    1.75
  -7  -9  -3    9.20    0.98
  -7   9   3    6.21    1.55
  -7  -9   3    9.62    1.39
  -7   9  -3    9.56    1.32
  -6  -9  -3   16.38    1.23
  -6   9   3   11.99    1.74
  -6   9  -3   15.48    1.49
  -5  -9  -3   15.72    1.20
  -5   9   3   13.57    1.83
  -5   9  -3   16.67    1.50
  -4  -9  -3    0.14    0.63
  -4   9   3    0.28    1.10
  -4   9  -3    0.03    0.83
  -4  -9   3    0.45    0.87
  -3  -9  -3   12.12    1.13
  -3  -9   3   15.00    1.41
  -3   9   3   11.78    1.69
  -3   9  -3   11.55    1.24
  -2  -9   3   25.18    1.80
  -1  -9   3    1.27    1.12
  -1  -9   3    0.97    0.81
  -1   9  -3    0.57    0.51
   0  -9   3   43.52    2.31
   0   9  -3   37.75    1.91
   1  -9   3    1.09    0.77
   1   9  -3    1.14    0.59
   1  -9   3    0.68    1.20
   2  -9   3   23.90    1.63
   2   9   3   23.24    1.52
   2   9  -3   21.51    1.35
   3   9   3   12.61    1.12
   3   9  -3   11.85    1.02
   4  -9   3    0.35    0.75
   4   9  -3    0.57    0.55
   5  -9   3   18.08    1.42
   5   9  -3   13.66    1.14
   6  -9   3   16.56    1.42
   6   9  -3   11.86    1.11
   7  -9   3    9.77    1.14
   8  -9   3   33.90    2.07
  10   9  -3   15.10    1.47
  10   9   3   17.47    2.24
  11   9   3    6.04    1.85
  -9 -10  -3    0.80    0.74
  -8 -10  -3   13.77    1.26
  -8  10   3   11.76    1.99
  -8  10  -3   13.47    1.59
  -7  10   3    2.63    1.45
  -7  10  -3    4.38    1.21
  -7 -10  -3    4.09    0.85
  -6  10   3    4.83    1.51
  -6  10  -3    6.12    1.24
  -6 -10  -3    4.55    0.89
  -5 -10  -3   14.98    1.28
  -5  10   3   13.48    1.94
  -5  10  -3   14.73    1.50
  -4 -10  -3    0.81    0.74
  -4  10   3    0.94    1.18
  -4  10  -3    0.87    0.91
  -4 -10   3    0.97    0.98
  -3 -10  -3   22.47    1.58
  -3 -10   3   25.85    1.89
  -2 -10   3   20.26    1.71
  -1 -10   3    3.81    0.98
  -1  10  -3    3.35    0.73
   0 -10   3   30.04    1.95
   0  10  -3   24.23    1.50
   1 -10   3    4.08    1.03
   1  10  -3    2.81    0.74
   2 -10   3   19.17    1.58
   2  10  -3   15.77    1.20
   3 -10   3   25.51    1.78
   3  10  -3   19.75    1.38
   4 -10   3    0.45    0.83
   5 -10   3   17.35    1.54
   6 -10   3    5.63    1.09
   7 -10   3    4.91    1.10
   8 -10   3   15.59    1.53
  -8 -11  -3    4.88    1.00
  -7 -11  -3    4.55    1.00
  -6 -11  -3    1.40    0.88
  -5 -11  -3   18.65    1.54
  -5  11  -3   19.58    1.79
  -4 -11  -3    0.38    0.85
   0 -11   3    8.76    1.30
   1 -11   3    4.97    1.15
   2 -11   3    5.81    1.19
   3 -11   3   22.21    1.83
   4 -11   3    0.14    0.92
   5 -11   3   20.10    1.81
 -17   0  -4    1.26    1.08
 -17   0  -4   -1.96    2.15
 -17   0   4   -0.42    1.43
 -16   0  -4   30.46    2.21
 -16   0   4   39.56    3.17
 -16   0  -4   33.70    5.31
 -15   0  -4   -0.48    2.98
 -15   0  -4    0.61    0.88
 -15   0   4    0.20    1.29
 -14   0  -4    7.64    3.38
 -14   0  -4    7.72    1.12
 -13   0  -4    1.60    2.55
 -13   0  -4    0.54    0.69
 -12   0  -4    5.29    2.77
 -12   0  -4    5.23    0.84
 -11   0  -4    0.42    2.06
 -11   0  -4    0.09    0.54
 -10   0  -4   57.17    5.84
  -9   0  -4   -0.72    1.71
  -8   0  -4   65.41    5.79
  -7   0  -4    0.34    1.45
  -6   0   4   83.80    3.76
  -5   0  -4   -0.02    0.43
  -5   0   4    0.14    0.50
  -4   0  -4    1.14    1.38
  -4   0  -4    2.82    0.36
  -4   0   4    1.91    0.46
  -3   0  -4   -0.52    1.29
  -3   0  -4    0.03    0.12
  -3   0   4    0.20    0.20
  -2   0  -4  111.47    6.67
  -1   0  -4   -0.20    0.89
   0   0  -4  291.62   11.80
   1   0  -4    0.16    0.75
   1   0   4    0.13    0.22
   2   0   4  161.98    5.03
   2   0  -4  115.32    6.54
   3   0  -4    0.58    0.72
   4   0  -4    2.45    0.86
 -17   1  -4   -0.26    1.04
 -17   1  -4   -0.27    1.78
 -17   1   4   -0.22    1.36
 -16   1  -4    2.72    3.57
 -16  -1  -4    3.73    3.25
 -16   1  -4    2.71    1.10
 -16  -1   4    4.15    1.60
 -16   1  -4    2.21    1.71
 -16   1   4    1.22    1.37
 -15   1  -4   11.10    3.82
 -15  -1  -4   20.97    4.22
 -15   1   4   13.40    2.03
 -15   1  -4   21.62    2.57
 -15   1  -4   17.28    1.58
 -15  -1   4   20.87    2.32
 -14   1  -4    1.17    2.52
 -14   1  -4    0.13    0.73
 -14  -1   4    1.06    1.30
 -14   1  -4   -0.14    1.41
 -14   1   4    0.27    1.17
 -14  -1  -4    0.22    2.41
 -13   1   4   50.02    3.50
 -13   1  -4   64.15    3.82
 -13   1   4   48.37    2.84
 -13   1  -4   68.61    3.61
 -13   1  -4   56.91    2.70
 -13  -1   4   60.60    3.62
 -13   1  -4   47.65    5.89
 -13  -1  -4   54.76    6.08
 -12   1  -4   -0.48    2.46
 -12  -1  -4    0.84    2.35
 -12   1  -4    2.37    0.74
 -12  -1   4    2.26    1.17
 -12   1  -4    1.31    1.16
 -12   1   4    2.13    1.19
 -12   1   4    1.68    0.91
 -12   1  -4    2.41    1.17
 -11   1  -4   82.11    4.00
 -11   1   4   62.90    3.90
 -11   1  -4   75.18    3.00
 -11   1   4   66.64    3.28
 -11   1  -4   83.08    3.79
 -11  -1   4   74.53    3.96
 -11   1  -4   54.34    6.51
 -11  -1  -4   62.03    6.36
 -10  -1  -4    1.66    2.14
 -10   1  -4    3.96    0.65
 -10   1  -4    4.04    1.04
 -10   1   4    3.13    1.07
 -10   1   4    3.94    0.85
 -10   1  -4    4.75    1.07
 -10   1  -4    1.44    2.28
  -9  -1  -4    4.29    2.16
  -9   1  -4    5.60    0.60
  -9   1   4    5.40    0.87
  -9   1  -4    5.84    1.05
  -9   1   4    3.76    1.05
  -9   1  -4    1.15    2.21
  -9   1  -4    5.47    0.96
  -8  -1  -4    5.88    2.30
  -8   1  -4    9.46    1.05
  -8   1   4    6.29    1.12
  -8   1   4    6.58    0.89
  -8   1  -4    9.62    1.07
  -8   1  -4    6.01    2.72
  -7   1  -4   55.61    2.38
  -7   1   4   41.89    2.60
  -7   1   4   45.32    2.23
  -7   1  -4   60.57    2.45
  -7   1  -4   36.65    4.97
  -7  -1  -4   32.80    4.26
  -6   1  -4   11.31    0.86
  -6   1   4    9.19    0.87
  -6   1  -4   11.14    0.92
  -5   1  -4  247.63    7.11
  -5   1  -4  242.09    6.97
  -4   1  -4    2.66    0.32
  -4   1   4    2.94    0.48
  -4   1  -4    3.31    0.41
  -4   1  -4    1.98    1.52
  -4   1   4    1.73    0.42
  -3   1  -4  219.90    6.22
  -3   1   4  153.56    6.29
  -3   1  -4  210.22    6.15
  -3  -1  -4  201.40    6.14
  -3  -1   4  188.87    6.28
  -3   1   4  277.41    9.27
  -3   1  -4  129.35    9.21
  -3  -1  -4  132.07    8.85
  -2  -1  -4    6.42    1.76
  -2   1   4   10.24    1.78
  -2   1  -4    7.22    1.92
  -1  -1   4   35.00    1.35
  -1  -1  -4   29.14    3.07
   0   1  -4   19.68    2.54
   0  -1  -4   15.47    2.15
   1   1  -4   24.89    2.75
   1  -1  -4   26.78    2.66
   2   1   4    7.59    0.63
   2  -1  -4    5.21    1.21
   2   1  -4    5.33    1.38
   3   1   4  211.14    8.00
   3   1  -4  319.76    8.07
   3   1   4  290.88   12.44
   3   1  -4  151.09    9.10
   4   1  -4    1.68    0.80
   4   1   4    2.46    0.24
   4  -1   4    2.96    0.30
   4   1  -4    4.28    0.57
   4   1   4    2.20    0.48
   4   1   4    1.91    1.64
   5  -1   4  225.94    6.82
   5   1  -4  323.49    7.73
   5   1   4  231.03    7.46
   5   1   4  181.63    7.12
   5   1   4  305.94   12.58
   5   1  -4  146.07    7.79
   6   1  -4   12.07    1.05
   6   1   4    7.70    0.75
   6   1  -4    6.90    0.98
   6   1   4   10.44    2.74
   7   1  -4   69.96    2.69
   7   1   4   43.73    2.31
   8   1  -4   10.76    1.11
   8   1   4    6.24    0.88
   9   1   4    3.90    0.84
   9   1  -4    7.44    1.06
  10   1   4    3.93    0.91
  10   1  -4    5.09    0.98
  11   1  -4   99.19    3.91
  11   1   4   65.98    3.68
  12   1  -4    1.95    0.93
  12   1   4    1.55    0.88
  13   1  -4   77.61    3.78
  14   1  -4    0.64    1.04
 -17   2  -4    0.57    1.49
 -17   2   4   -0.07    1.41
 -16   2  -4   19.57    4.52
 -16   2  -4   20.74    2.47
 -16   2   4   18.40    2.35
 -16   2  -4   20.51    1.79
 -16  -2   4   19.07    2.45
 -15   2  -4    1.36    3.17
 -15   2  -4    2.38    0.95
 -15  -2   4    2.45    1.42
 -15   2  -4    2.92    1.51
 -15   2   4    1.19    1.29
 -14   2  -4    4.55    3.18
 -14   2  -4    8.78    1.15
 -14  -2   4    7.04    1.65
 -14   2  -4    8.59    1.70
 -14   2   4    7.21    1.66
 -13   2   4   11.01    1.80
 -13   2  -4   11.71    1.66
 -13   2  -4   13.12    1.25
 -13  -2   4   14.28    1.88
 -13   2   4   10.23    1.27
 -13   2  -4   18.41    2.23
 -13   2  -4    6.65    3.67
 -12   2   4    1.66    0.86
 -12  -2  -4    4.05    2.46
 -12   2  -4    3.60    1.40
 -12   2  -4    2.61    0.72
 -12  -2   4    2.87    1.20
 -12   2  -4    2.36    1.02
 -12   2   4    1.57    1.14
 -12   2  -4    0.58    2.69
 -11   2  -4   20.99    1.83
 -11   2   4   16.30    1.85
 -11   2  -4   20.26    1.27
 -11  -2   4   17.24    1.85
 -11   2   4   15.82    1.47
 -11   2  -4   26.61    2.29
 -11  -2  -4   18.47    3.51
 -11   2  -4   18.10    4.21
 -10   2  -4   81.04    3.61
 -10   2   4   58.10    3.72
 -10   2  -4   73.93    2.86
 -10  -2   4   70.33    3.72
 -10   2   4   66.39    3.23
 -10   2  -4   58.25    6.86
 -10  -2  -4   62.80    6.06
  -9  -2  -4    0.35    1.65
  -9   2   4    1.15    0.70
  -9   2  -4    1.61    1.02
  -9   2  -4    1.13    0.44
  -9  -2   4    1.73    0.96
  -9   2  -4    1.41    0.73
  -9   2   4    0.21    0.79
  -9   2  -4   -0.76    2.08
  -8   2  -4  143.50    4.92
  -8   2   4   95.76    5.08
  -8   2  -4  130.20    4.31
  -8  -2   4  131.40    5.32
  -8   2   4  113.10    4.74
  -8   2  -4   99.74    8.78
  -8  -2  -4  111.92    8.03
  -7   2  -4   17.99    1.15
  -7   2   4   11.78    1.33
  -7   2  -4   15.09    0.75
  -7  -2   4   15.78    1.43
  -7   2   4   20.36    1.72
  -7   2   4   13.29    1.12
  -7   2  -4   22.45    1.68
  -7  -2  -4   14.68    2.88
  -7   2  -4   10.87    3.08
  -6   2  -4   83.71    2.85
  -6   2   4   45.27    2.95
  -6  -2   4   68.95    3.18
  -6   2   4  119.36    4.84
  -6   2   4   62.18    2.85
  -6   2  -4   98.90    3.63
  -5   2  -4   61.89    2.15
  -5   2   4   34.79    2.27
  -5  -2   4   56.87    2.56
  -5   2   4   81.28    3.98
  -5   2   4   49.39    2.30
  -5   2  -4   75.88    2.83
  -4   2   4    1.90    0.45
  -4   2  -4    2.55    0.34
  -4  -2   4    2.39    0.55
  -4  -2  -4    2.49    0.35
  -4  -2   4    2.75    0.47
  -4   2   4    2.50    0.47
  -4   2  -4    4.02    2.03
  -4   2   4    4.36    1.29
  -4   2  -4    4.86    0.77
  -3   2  -4   53.89    1.88
  -3  -2   4   35.04    1.54
  -3   2   4   25.86    1.41
  -3   2  -4   34.29    1.24
  -3  -2  -4   34.93    1.26
  -3  -2   4   31.90    1.42
  -3   2  -4   27.31    3.86
  -3   2   4   58.08    3.71
  -3  -2  -4   25.73    3.14
  -3   2   4   29.33    1.42
  -2   2   4   79.04    3.07
  -2   2  -4  146.93    3.54
  -2  -2  -4   91.26    2.96
  -2  -2   4   81.21    3.10
  -2  -2   4   99.89    3.14
  -2   2   4   82.52    3.13
  -2   2  -4   72.06    6.18
  -2   2   4  158.83    6.66
  -1  -2   4    3.60    0.41
  -1  -2  -4    5.56    0.35
  -1   2  -4    8.89    0.63
  -1   2  -4    4.68    1.80
  -1   2   4    4.59    0.36
  -1   2   4    8.57    1.92
   0   2  -4  166.30   10.13
   0   2   4  342.72   11.98
   1   2  -4    5.51    0.39
   1   2   4    5.40    0.42
   1   2  -4    5.33    1.62
   2   2   4   99.92    3.45
   2   2  -4  106.69    3.35
   3   2   4   37.15    1.45
   3  -2   4   38.28    1.50
   3   2   4   38.09    1.78
   3   2  -4   39.63    1.60
   4   2   4    2.84    0.28
   4  -2   4    3.05    0.36
   4   2   4    2.90    0.59
   4   2  -4    2.76    0.56
   4   2   4    2.90    0.55
   4   2   4    3.57    2.07
   4   2  -4    1.65    0.83
   5  -2   4   61.09    2.08
   5   2   4   58.90    2.55
   5   2  -4   45.60    3.15
   5   2  -4   66.37    2.55
   5   2   4   52.55    2.52
   6   2   4   62.18    3.09
   6  -2   4   78.58    2.53
   6   2   4   76.84    3.21
   6   2  -4   55.58    3.45
   6   2  -4   88.35    3.24
   7   2  -4   16.92    1.27
   7   2   4   12.60    1.21
   7   2   4   17.27    1.32
   7   2  -4   10.71    1.12
   8   2   4  106.59    4.33
   8   2  -4   80.24    3.60
   9   2  -4    1.37    0.73
   9   2   4    0.95    0.77
  10   2  -4   86.58    3.50
  10   2   4   83.27    7.01
  11   2  -4   21.10    1.63
  11   2   4   14.80    1.67
  12   2   4    2.21    1.11
  12   2  -4    3.60    1.08
  13   2  -4   15.27    1.57
  13   2   4   10.38    1.54
  14   2  -4    9.37    1.35
  14   2   4    7.32    1.51
  15   2   4    1.96    1.40
  15   2  -4    3.61    1.21
  16   2  -4   21.69    1.95
  16   2   4   16.59    2.23
  17   2   4    0.30    1.34
  17   2  -4    0.96    1.15
 -16  -3   4    7.56    1.80
 -16   3  -4   10.66    1.97
 -16   3   4    8.77    1.89
 -15   3  -4   14.57    1.98
 -15   3  -4   12.64    1.40
 -15  -3   4   10.36    1.87
 -15   3   4   11.25    2.00
 -15   3  -4    6.93    3.97
 -14  -3   4    3.95    1.39
 -14   3  -4    5.51    1.04
 -14   3  -4    6.23    1.43
 -14   3   4    3.83    1.40
 -14   3  -4    5.38    3.61
 -13   3   4   19.91    2.25
 -13  -3   4   22.22    2.24
 -13   3  -4   27.32    1.73
 -13   3  -4   19.58    4.83
 -12   3   4    1.51    0.83
 -12   3  -4    2.70    1.56
 -12  -3   4    2.06    1.04
 -12   3  -4    1.68    0.67
 -12   3  -4    1.64    0.99
 -12   3   4    1.72    1.14
 -12   3  -4    2.80    2.98
 -11   3  -4   30.00    1.99
 -11   3   4   18.95    2.06
 -11  -3   4   22.61    2.05
 -11   3  -4   26.64    1.51
 -11   3   4   23.97    1.74
 -11   3  -4   23.13    4.92
 -10   3  -4   31.42    1.98
 -10   3   4   19.53    1.98
 -10  -3   4   24.84    2.03
 -10   3  -4   27.42    1.45
 -10   3   4   31.76    1.64
 -10   3   4   24.17    1.71
 -10   3  -4   21.61    4.70
  -9   3  -4    1.85    0.46
  -9  -3   4    0.85    0.84
  -9   3   4    0.95    0.69
  -9   3  -4    0.66    1.16
  -9   3  -4    3.56    2.87
  -9   3  -4    1.51    0.68
  -9   3   4    1.88    0.76
  -9   3   4    0.85    0.90
  -8   3  -4   63.59    2.72
  -8   3   4   44.13    2.94
  -8   3  -4   59.79    2.24
  -8  -3   4   56.01    2.94
  -8   3  -4   56.31    6.92
  -8   3   4   49.05    2.57
  -7   3   4    9.10    0.95
  -7   3  -4   18.39    1.79
  -7   3  -4   10.67    0.90
  -7   3   4    6.10    1.04
  -7   3  -4   11.33    0.62
  -7  -3   4   10.27    1.12
  -7   3   4   14.47    1.58
  -7   3  -4    6.56    2.95
  -6   3   4   19.22    1.28
  -6   3  -4   40.81    2.30
  -6   3   4   13.43    1.37
  -6   3  -4   24.18    1.24
  -6   3  -4   24.59    0.89
  -6  -3   4   24.00    1.56
  -6   3   4   34.94    2.44
  -5   3   4   87.99    3.66
  -5   3  -4  164.02    4.89
  -5   3   4   64.68    3.75
  -5   3  -4  109.25    3.59
  -5  -3   4  106.53    3.96
  -5  -3  -4  110.90    3.58
  -5   3   4  155.76    5.88
  -4   3   4    1.02    0.39
  -4   3   4    0.71    0.52
  -4   3  -4    1.39    0.37
  -4  -3  -4    1.30    0.35
  -4  -3   4    1.48    0.51
  -4  -3   4    1.54    0.48
  -4   3  -4    1.93    0.79
  -4   3  -4    0.34    1.41
  -4   3   4    1.18    1.14
  -3   3   4   90.38    3.56
  -3  -3  -4  113.72    3.51
  -3  -3   4  109.47    3.82
  -3   3   4   87.44    3.76
  -3   3  -4  110.44    3.49
  -3   3  -4   79.28    6.30
  -2  -3  -4   73.51    2.45
  -2  -3   4   69.21    2.72
  -2   3  -4   72.25    2.44
  -1   3   4   35.89    1.87
  -1  -3  -4   37.10    1.39
   0   3   4  129.94    4.44
   0  -3  -4  129.69    4.02
   1   3   4   39.59    1.68
   1  -3  -4   37.82    1.49
   2   3   4   78.50    3.00
   2  -3   4   86.22    3.07
   3   3   4  114.68    3.97
   3   3  -4  113.54    4.04
   3   3   4  112.56    4.32
   4   3  -4    1.46    0.44
   4   3   4    1.56    0.57
   4   3   4    1.25    0.29
   4  -3   4    1.81    0.38
   4   3   4    1.62    0.58
   4   3   4    2.39    1.95
   5  -3   4  118.82    3.70
   5   3   4  109.28    3.51
   5   3   4  113.36    4.25
   5   3  -4  109.25    3.94
   6  -3   4   25.39    1.09
   6   3   4   24.38    1.57
   6   3  -4   24.04    1.40
   6   3   4   21.62    1.63
   7  -3   4   11.21    0.68
   7   3   4   10.53    1.13
   7   3  -4    7.48    1.20
   7   3  -4   10.30    1.02
   7   3   4   10.01    1.25
   8   3   4   60.74    2.83
   8   3  -4   62.48    2.70
   9   3   4    1.69    0.87
   9   3  -4    1.51    0.78
   9   3   4    1.06    0.93
   9   3  -4    0.43    0.41
  10   3  -4   28.34    1.84
  10   3   4   21.24    2.02
  11   3  -4   28.49    1.85
  11   3   4   18.47    1.99
  12   3  -4    2.00    0.98
  12   3   4    1.37    1.14
  13   3  -4   25.80    1.89
  13   3   4   21.80    2.32
  14   3  -4    5.36    1.15
  14   3   4    4.27    1.40
  15   3   4    9.28    1.90
  15   3  -4   12.25    1.48
  16   3  -4   10.79    1.48
  16   3   4    8.01    1.85
  17   3   4    0.87    1.50
 -16   4  -4    8.58    1.71
 -16   4   4    6.80    1.74
 -15   4  -4   12.86    1.81
 -15  -4   4   10.20    1.87
 -15   4   4   10.00    1.85
 -15   4  -4   11.47    4.57
 -14  -4   4    3.00    1.37
 -14   4  -4    4.53    1.08
 -14   4  -4    3.55    1.24
 -14   4   4    1.83    1.31
 -14   4  -4    2.45    3.39
 -13   4  -4   36.13    2.48
 -13   4   4   22.08    2.39
 -13  -4   4   27.36    2.41
 -13   4  -4   36.81    2.11
 -13   4  -4   17.67    4.84
 -12  -4   4    0.63    1.07
 -12   4   4    0.24    0.87
 -12   4  -4    0.52    0.74
 -12   4  -4   -0.40    1.93
 -12   4  -4    1.04    2.75
 -12   4  -4   -0.08    1.05
 -12   4   4    0.69    1.13
 -11   4  -4   25.02    1.95
 -11   4   4   22.02    2.21
 -11  -4   4   25.76    2.15
 -11   4  -4   29.61    1.67
 -11   4   4   21.52    1.68
 -11   4  -4   20.72    5.22
 -10   4  -4   19.71    1.57
 -10   4   4   13.36    1.72
 -10  -4   4   16.86    1.70
 -10   4  -4   23.52    1.37
 -10   4   4   22.52    1.61
 -10   4  -4   19.26    4.92
 -10   4   4   17.37    1.45
  -9   4   4    3.03    0.83
  -9   4   4    1.95    0.66
  -9   4  -4    4.71    1.59
  -9  -4   4    3.35    1.00
  -9   4  -4    2.82    0.57
  -9   4  -4    3.32    3.03
  -9   4  -4    2.66    0.78
  -9   4   4    1.17    0.83
  -8   4   4   28.18    1.76
  -8   4   4   22.12    2.03
  -8   4  -4   39.17    1.91
  -8  -4   4   34.72    2.17
  -8   4  -4   38.32    1.59
  -8   4  -4   29.92    4.85
  -8   4   4   41.24    2.44
  -7   4   4   13.69    1.11
  -7   4  -4   26.83    2.15
  -7   4   4    9.84    1.27
  -7   4  -4   19.57    1.18
  -7  -4   4   17.75    1.43
  -7   4  -4   18.16    0.90
  -7   4   4   20.10    1.80
  -7   4  -4    9.07    2.89
  -6   4   4   11.45    0.95
  -6  -4   4   13.95    1.19
  -6   4   4    8.93    1.13
  -6   4  -4   15.37    0.99
  -6   4  -4   19.47    1.77
  -6   4  -4   15.06    0.69
  -6  -4  -4   14.41    0.96
  -6  -4   4   15.52    1.30
  -6   4   4   17.79    1.82
  -5   4   4   65.54    3.69
  -5   4  -4   99.42    3.44
  -5   4   4   74.85    3.35
  -5  -4  -4  103.10    3.40
  -5   4  -4  144.18    4.88
  -5  -4   4   98.52    3.82
  -5   4   4  132.87    5.39
  -4   4   4    3.96    1.20
  -4   4   4    2.04    0.64
  -4   4  -4    2.14    0.45
  -4  -4  -4    2.21    0.45
  -4  -4   4    1.47    0.60
  -4   4   4    1.83    0.80
  -3   4   4  121.31    4.93
  -3  -4  -4  137.49    4.37
  -3  -4   4  133.68    4.77
  -3   4  -4  132.55    4.35
  -2  -4  -4   40.51    1.61
  -2  -4   4   41.41    1.97
  -2   4  -4   40.47    1.61
  -2   4   4   41.02    2.09
  -1   4   4   26.71    1.54
  -1  -4   4   23.92    1.51
  -1  -4  -4   25.16    1.18
   0   4   4   75.78    2.93
   0  -4  -4   71.08    2.64
   1   4   4   26.83    1.40
   1  -4   4   20.68    1.65
   1  -4  -4   27.27    1.31
   1  -4   4   31.26    1.49
   1   4   4   37.25    3.49
   2  -4   4   27.44    2.16
   2  -4  -4   41.64    1.84
   2   4   4   42.60    1.79
   2  -4   4   47.77    1.90
   2   4   4   61.70    4.79
   3  -4  -4  130.09    4.97
   3   4   4  138.59    4.76
   4  -4   4    2.79    0.48
   4   4   4    2.61    0.42
   4   4   4    2.78    0.71
   4   4   4    2.10    0.71
   4   4   4    2.39    2.12
   5  -4   4  104.06    3.51
   5   4   4   97.44    3.29
   5   4  -4   92.79    3.57
   5   4   4   99.60    4.05
   6  -4   4   15.77    0.91
   6   4   4   16.34    1.35
   6   4  -4   13.89    1.03
   6   4   4   13.06    1.36
   7  -4   4   19.32    1.03
   7   4   4   16.99    1.46
   7   4  -4   17.56    1.24
   7   4   4   15.37    1.59
   8   4   4   37.76    2.25
   8   4  -4   34.93    1.88
   9   4  -4    2.96    0.84
   9   4   4    2.24    1.08
   9   4   4    3.18    0.95
   9   4  -4    1.70    0.59
  10   4   4   18.41    1.70
  10   4  -4   16.68    1.27
  10   4  -4   19.87    1.58
  10   4   4   15.50    1.93
  11   4  -4   23.64    1.69
  11   4   4   18.98    2.15
  12   4   4   -0.07    1.26
  12   4  -4    0.32    0.87
  13   4  -4   29.87    2.08
  13   4   4   23.48    2.53
  14   4  -4    3.95    1.14
  14   4   4    1.14    1.48
  15   4  -4   10.19    1.44
  15   4   4    8.59    1.93
  16   4  -4    8.15    1.39
  16   4   4    4.80    1.73
 -15  -5   4    1.56    1.39
 -15   5  -4    0.33    1.29
 -15   5   4    0.21    1.37
 -14  -5   4    5.27    1.51
 -14   5  -4    7.16    4.00
 -14   5  -4    5.78    1.42
 -14   5   4    6.41    1.66
 -13  -5   4    3.08    1.42
 -13   5  -4    5.64    1.08
 -13   5  -4    2.49    3.82
 -13   5  -4    3.82    1.24
 -13   5   4    1.09    1.37
 -12  -5   4    1.86    1.11
 -12   5  -4    3.55    0.95
 -12   5  -4    1.67    3.38
 -12   5  -4    1.92    1.01
 -12   5   4    1.36    1.24
 -11   5   4    6.13    1.47
 -11   5   4    6.60    1.00
 -11   5  -4    8.46    1.25
 -11   5  -4   10.50    1.17
 -11  -5   4    7.80    1.42
 -11   5  -4    7.00    3.56
 -10   5   4   42.78    2.38
 -10   5   4   37.70    2.84
 -10   5  -4   54.25    2.63
 -10  -5   4   48.71    2.90
 -10   5  -4   41.34    6.24
 -10   5   4   60.66    2.99
  -9   5   4    0.40    0.81
  -9   5  -4    0.37    0.63
  -9   5   4    0.61    0.90
  -9   5   4    0.16    0.61
  -9  -5   4    0.88    0.91
  -9   5  -4    1.05    1.37
  -9   5  -4   -0.28    2.33
  -8   5   4   71.26    3.38
  -8   5   4   55.61    3.75
  -8   5  -4   98.45    3.62
  -8   5  -4  143.08    5.49
  -8  -5  -4   99.68    3.55
  -8   5   4  113.75    4.67
  -7   5   4    4.81    1.22
  -7   5   4    1.98    0.81
  -7   5  -4    4.07    1.30
  -7   5   4    2.25    0.89
  -7  -5  -4    2.81    0.64
  -7  -5   4    2.30    0.90
  -7   5  -4    3.45    0.66
  -7   5   4    1.68    0.56
  -6   5   4   36.91    2.35
  -6   5   4   28.77    2.24
  -6   5  -4   47.08    2.04
  -6   5   4   35.56    1.86
  -6  -5  -4   47.90    1.97
  -6  -5   4   46.58    2.42
  -6   5   4   56.30    3.33
  -5   5   4   16.88    1.52
  -5   5   4   13.36    1.39
  -5   5  -4   22.16    1.20
  -5  -5  -4   20.78    1.16
  -5  -5   4   21.46    1.54
  -5   5   4   28.19    2.49
  -4   5   4    2.20    1.32
  -4  -5  -4    2.03    0.50
  -4  -5   4    2.41    0.74
  -4   5   4    1.46    0.72
  -4   5  -4    1.79    0.50
  -4   5   4    1.74    0.76
  -4   5  -4    2.11    0.22
  -3   5   4    8.71    1.06
  -3  -5  -4    9.23    0.74
  -3  -5   4   10.21    1.10
  -3   5  -4    8.82    0.39
  -3   5   4    8.19    1.04
  -3   5  -4    8.83    0.74
  -3   5   4   10.91    2.00
  -2   5   4   70.01    3.05
  -2  -5  -4   69.13    2.60
  -2  -5   4   73.55    3.12
  -1  -5   4    4.38    0.84
  -1  -5  -4    3.27    0.52
  -1   5   4    5.23    1.76
  -1   5   4    3.49    0.71
   0   5   4  131.52    4.86
   0  -5   4  131.74    5.30
   0  -5  -4  126.63    4.63
   1   5   4    6.45    1.97
   1   5   4    4.15    0.61
   1  -5  -4    3.98    0.57
   1  -5   4    4.82    0.73
   1  -5   4    4.29    0.90
   2   5   4   73.33    2.83
   2  -5  -4   70.64    2.88
   2  -5   4   78.70    2.97
   3   5   4   12.85    2.62
   3  -5  -4    8.03    0.83
   3   5   4    9.75    0.76
   3  -5   4   10.30    0.86
   3  -5   4    5.43    1.20
   4   5   4    3.22    1.87
   4  -5   4    2.71    0.54
   4   5   4    1.95    0.44
   4   5   4    2.34    0.82
   4  -5   4    0.43    1.02
   4  -5  -4    1.42    0.59
   5  -5   4   22.60    1.23
   5   5   4   21.01    1.08
   5   5   4   23.04    1.70
   6  -5   4   50.15    2.03
   6   5  -4   41.21    2.05
   6   5   4   42.02    2.63
   6   5   4   46.37    2.55
   7  -5   4    3.80    0.62
   7   5   4    3.21    0.91
   7   5  -4    2.72    0.62
   7   5   4    3.23    0.97
   8  -5   4   98.40    3.50
   8   5   4   98.14    4.19
   8   5  -4   90.13    3.70
   9   5  -4    0.60    0.68
   9   5   4    0.06    1.07
   9   5   4    0.67    0.92
  10   5   4   52.39    2.94
  10   5  -4   49.84    2.49
  11   5  -4    6.58    1.09
  11   5   4    5.72    1.59
  12   5  -4    1.03    0.95
  12   5   4    0.99    1.40
  12   5  -4    1.04    0.35
  13   5  -4    3.22    0.95
  13   5   4    1.66    1.45
  14   5   4    5.30    1.96
  14   5  -4    6.39    1.29
  15   5  -4    1.17    1.11
  15   5   4    0.26    1.66
 -14   6  -4   -0.52    1.19
 -14   6   4   -0.74    1.45
 -13   6   4   21.09    2.31
 -13   6  -4   30.79    2.18
 -12   6   4    0.06    1.16
 -12   6  -4    0.99    0.92
 -12   6  -4   -1.13    3.69
 -11   6   4   18.52    2.05
 -11   6  -4   29.97    1.97
 -11   6  -4   23.66    5.16
 -10   6   4    0.34    1.02
 -10   6  -4    0.82    0.83
 -10   6   4    0.36    0.66
 -10   6  -4    0.52    1.63
  -9   6   4    1.52    0.97
  -9   6  -4    3.52    0.83
  -9   6   4    3.18    1.05
  -9   6   4    1.94    0.67
  -9  -6  -4    3.42    0.88
  -9  -6   4    3.92    1.13
  -9   6  -4    4.07    1.62
  -8   6   4    1.44    1.07
  -8   6  -4    0.84    0.64
  -8  -6  -4    0.43    0.70
  -8  -6   4    0.36    0.88
  -8   6   4    0.97    0.91
  -8   6  -4    1.64    1.40
  -8   6   4    0.02    0.52
  -7   6   4   15.50    1.77
  -7   6  -4   28.11    1.61
  -7  -6  -4   27.20    1.52
  -7  -6   4   28.23    1.98
  -7   6   4   19.07    1.33
  -7   6   4   28.57    2.38
  -6   6   4    3.39    1.26
  -6   6   4    1.76    0.93
  -6   6  -4    2.82    0.66
  -6  -6  -4    3.05    0.65
  -6  -6   4    3.52    0.98
  -6   6   4    1.61    0.85
  -5   6   4   88.46    4.05
  -5  -6  -4   98.49    3.56
  -5  -6   4  102.95    4.20
  -5   6   4   68.46    3.96
  -5   6  -4   98.80    3.62
  -5   6   4  122.77    5.60
  -4   6   4    1.84    1.32
  -4  -6  -4    0.35    0.53
  -4  -6   4    0.65    0.79
  -4   6   4    0.55    0.73
  -4   6  -4    0.56    0.53
  -4   6   4    0.45    0.72
  -3   6   4   99.37    4.17
  -3   6  -4  104.06    3.40
  -3  -6  -4  106.50    3.78
  -3   6  -4  105.67    3.81
  -2  -6  -4    0.24    0.46
  -2  -6   4    0.45    0.74
  -2   6   4   -0.10    1.42
  -2   6   4    0.46    0.63
  -2  -6   4    0.14    0.66
  -2   6  -4    0.42    0.25
  -1   6   4   16.43    1.25
  -1  -6   4   16.90    1.31
  -1  -6   4   17.56    1.53
  -1  -6  -4   15.41    1.02
  -1   6  -4   17.07    0.82
   0   6   4    7.19    2.13
   0   6   4    5.23    0.76
   0  -6  -4    3.55    0.62
   0  -6   4    4.97    0.80
   0   6  -4    4.04    0.45
   0  -6   4    5.89    1.14
   1   6   4   16.18    1.12
   1  -6   4   17.89    1.26
   1  -6   4   17.71    1.65
   1  -6  -4   16.69    1.08
   2   6   4    1.99    2.02
   2   6   4    0.17    0.50
   2  -6   4    0.07    0.54
   2  -6   4    0.42    0.89
   2  -6  -4    0.04    0.49
   3  -6   4  105.71    5.25
   3  -6  -4  103.19    4.19
   3  -6   4  118.81    4.21
   3   6   4  110.70    4.04
   4   6   4    0.63    1.97
   4  -6   4    0.78    0.55
   4   6   4    1.04    0.49
   4  -6   4    0.27    1.15
   4  -6  -4    0.25    0.56
   5  -6  -4   90.18    4.00
   5  -6   4  113.28    3.90
   5   6   4   99.45    3.62
   5   6   4  103.35    4.46
   6  -6   4    3.24    0.67
   6   6   4    2.82    0.97
   7  -6   4   26.46    1.46
   7   6  -4   21.83    1.45
   7   6   4   23.51    2.07
   7   6   4   24.59    1.91
   8  -6   4    0.17    0.55
   8   6   4    0.42    0.86
   8   6  -4    0.19    0.60
   8   6   4    0.84    1.03
   9   6  -4    3.19    0.80
   9   6   4    2.54    1.20
  10   6  -4    0.69    0.72
  10   6   4    0.13    1.17
  11   6  -4   25.00    1.76
  11   6   4   21.16    2.43
  12   6  -4   -0.17    0.92
  12   6   4   -0.24    1.42
  13   6  -4   29.44    2.02
  13   6   4   20.33    2.67
  14   6  -4   -0.04    0.96
  14   6   4    0.18    1.64
 -13   7   4    0.74    1.32
 -13   7  -4    1.51    1.17
 -12   7   4    1.86    1.27
 -12   7  -4    3.19    1.11
 -11   7   4    0.55    1.22
 -11   7  -4    0.57    0.88
 -10   7   4   17.54    2.03
 -10   7  -4   28.24    1.88
  -9   7   4   -0.18    1.11
  -9   7  -4    0.54    0.84
  -8   7   4   28.84    2.57
  -8   7  -4   50.62    2.37
  -8  -7  -4   49.56    2.30
  -8  -7   4   50.26    2.86
  -8   7   4   34.83    2.03
  -7   7   4   -0.52    1.02
  -7   7  -4    0.03    0.69
  -7  -7  -4    0.33    0.67
  -7  -7   4    0.25    1.01
  -6  -7  -4   28.81    1.60
  -6  -7   4   29.70    2.12
  -6   7  -4   27.11    1.62
  -5  -7  -4    1.49    0.64
  -5  -7   4    0.96    0.97
  -5   7   4    0.80    0.92
  -5   7  -4    1.13    0.67
  -4  -7  -4    0.55    0.56
  -4  -7   4    0.46    0.92
  -4   7   4   -0.18    0.84
  -4   7  -4    0.31    0.57
  -4   7   4   -0.23    0.71
  -4  -7   4    0.57    0.76
  -3  -7  -4    2.13    0.62
  -3  -7   4    2.51    0.95
  -3   7   4    4.34    1.61
  -3   7   4    4.02    0.99
  -3   7   4    1.71    0.74
  -3   7  -4    1.80    0.64
  -3  -7   4    2.06    0.78
  -3   7  -4    1.61    0.40
  -2   7   4   57.13    2.74
  -2  -7   4   69.22    2.98
  -2  -7  -4   57.88    2.49
  -2  -7   4   67.67    3.25
  -2   7  -4   55.84    2.17
  -1  -7   4    0.26    0.90
  -1  -7  -4    0.24    0.54
  -1   7   4   -0.11    1.66
  -1   7   4    0.80    0.65
  -1  -7   4    0.20    0.70
  -1   7  -4    0.42    0.32
   0   7   4  128.66    4.86
   0  -7   4  151.03    5.12
   0  -7   4  153.67    5.88
   0  -7  -4  124.21    4.73
   0   7  -4  120.69    4.39
   1   7   4    0.69    1.86
   1   7   4    0.80    0.62
   1  -7   4    0.71    0.68
   1   7  -4    0.46    0.39
   1  -7   4    1.42    1.02
   1  -7  -4    0.75    0.59
   2  -7   4   66.90    2.77
   2  -7   4   69.92    3.75
   2  -7  -4   57.41    2.61
   2   7   4   62.15    2.60
   2   7  -4   53.75    2.28
   3  -7   4    2.43    0.69
   3   7   4    1.99    0.61
   3  -7   4    2.17    1.24
   3  -7  -4    2.19    0.71
   4  -7   4    0.28    0.61
   4   7   4    0.20    0.49
   4  -7   4   -0.43    1.35
   4  -7  -4   -0.03    0.62
   5  -7   4    2.07    0.69
   5   7   4    1.56    0.98
   5  -7   4    0.56    1.45
   5  -7  -4    1.01    0.67
   6  -7   4   30.40    1.71
   7  -7   4    0.53    0.66
   8   7  -4   42.25    2.23
   8   7   4   39.43    3.00
   9   7  -4   -0.08    0.62
   9   7   4    0.37    1.10
  10   7  -4   22.45    1.61
  10   7   4   21.52    2.38
  11   7  -4    0.06    0.79
  11   7   4   -0.61    1.44
  12   7  -4    1.22    0.87
  12   7   4    0.98    1.56
  13   7  -4    0.65    0.89
  13   7   4   -1.07    1.84
 -12   8   4    0.28    1.28
 -12   8  -4    1.75    1.19
 -11   8   4   13.16    2.10
 -11   8  -4   21.77    1.86
 -10   8   4    1.82    1.38
 -10   8  -4    3.68    1.12
  -9   8   4    0.61    1.17
  -9   8  -4    1.34    0.90
  -8   8   4    2.64    1.23
  -8   8  -4    5.79    1.06
  -7  -8   4   13.75    1.57
  -7   8  -4   14.63    1.31
  -6  -8   4    3.49    1.18
  -6   8   4    2.47    1.18
  -6   8  -4    2.32    0.83
  -6  -8   4    3.29    1.07
  -5  -8   4   58.72    2.92
  -5  -8  -4   50.34    2.42
  -5  -8   4   55.35    3.13
  -5   8  -4   50.46    2.42
  -4  -8  -4    0.51    0.60
  -4  -8   4    0.71    1.05
  -4   8   4    1.18    0.97
  -4   8  -4    0.38    0.70
  -4  -8   4    0.58    0.87
  -3  -8   4   51.94    2.64
  -3  -8  -4   44.29    2.17
  -3  -8   4   52.84    2.95
  -2  -8   4    8.04    1.44
  -2  -8   4    7.66    1.15
  -2  -8  -4    6.42    0.87
  -2   8  -4    6.16    0.61
  -1  -8   4    8.19    1.49
  -1   8   4    5.86    0.99
  -1  -8   4    7.82    1.12
  -1  -8  -4    6.52    0.89
  -1   8  -4    5.93    0.59
   0   8   4    8.42    1.05
   0  -8   4    9.88    1.16
   0  -8  -4    7.74    0.97
   0   8  -4    7.24    0.67
   0  -8   4    7.38    1.51
   1  -8   4    7.42    1.00
   1   8   4    6.47    0.92
   1  -8   4    7.11    1.54
   1  -8  -4    7.44    0.93
   1   8  -4    6.50    0.68
   2  -8   4    6.32    0.99
   2  -8  -4    6.26    0.91
   2   8   4    6.66    0.89
   2   8  -4    5.85    0.68
   2  -8   4    7.99    1.63
   3  -8   4   52.43    2.43
   3  -8   4   54.14    3.60
   3  -8  -4   41.69    2.29
   3   8   4   46.37    2.17
   3   8  -4   40.74    1.92
   4  -8   4    0.59    0.69
   4   8   4    0.99    0.59
   4  -8   4   -0.15    1.29
   4  -8  -4    0.09    0.65
   5  -8   4   55.86    4.08
   5  -8   4   59.33    2.63
   6  -8   4    3.58    0.89
   6  -8   4    2.07    1.68
   7  -8   4   17.26    1.40
   8  -8   4    6.80    1.01
   8   8  -4    5.00    0.93
   8   8   4    6.00    1.53
   9  -8   4    2.31    0.88
   9   8  -4    1.56    0.82
   9   8   4    1.41    1.46
  10   8  -4    2.35    0.88
  10   8   4    1.99    1.47
  11   8  -4   14.99    1.46
  11   8   4   15.27    2.33
  12   8  -4    0.76    0.96
  12   8   4    1.32    1.74
 -10   9   4    6.51    1.73
 -10   9  -4   12.25    1.52
  -9   9   4   -1.11    1.34
  -9   9  -4    0.11    0.98
  -8   9   4   14.40    2.03
  -8   9  -4   24.93    1.78
  -7   9   4    4.94    1.44
  -7   9  -4    6.10    1.09
  -6  -9   4   13.00    1.56
  -6   9  -4   13.04    1.33
  -5  -9   4   18.19    1.72
  -5   9  -4   14.74    1.38
  -4   9   4    0.06    1.08
  -4   9  -4    0.22    0.75
  -4  -9   4   -0.04    0.89
  -3  -9   4   14.74    1.51
  -2  -9   4   21.86    1.76
  -1  -9   4    2.20    0.92
   0  -9   4   39.82    2.32
   1  -9   4    1.41    0.89
   2  -9   4   20.62    1.61
   3  -9   4   12.83    1.33
   4  -9   4    0.64    0.79
   5  -9   4   15.91    1.43
   6  -9   4   13.22    1.35
   7  -9   4    6.55    1.12
   8  -9   4   26.80    1.89
   9  -9   4    0.53    0.86
   9   9  -4    0.46    0.79
   9   9   4    1.22    1.69
  10   9  -4    9.48    1.21
  10   9   4    8.00    2.00
  -8  10  -4   11.03    1.45
  -7  10   4    0.89    1.50
  -7  10  -4    3.17    1.07
  -6  10   4    4.13    1.48
  -6  10  -4    5.73    1.13
  -5  10   4    7.76    1.72
  -5  10  -4   12.11    1.34
  -2 -10   4   17.21    1.70
  -1 -10   4    4.85    1.12
   0 -10   4   28.46    2.05
   1 -10   4    5.01    1.17
   2 -10   4   15.15    1.49
   3 -10   4   16.90    1.59
   4 -10   4    0.28    0.96
   5 -10   4   13.68    1.48
   6 -10   4    6.42    1.24
   7 -10   4    2.43    1.07
   8 -10   4   13.23    1.52
 -16   0   5   13.23    1.91
 -15   0   5    0.61    1.33
 -15   0  -5   -0.27    1.45
 -15   0   5    0.53    1.20
 -14   0   5    5.28    1.48
 -14   0  -5    3.54    1.38
 -14   0   5    1.74    1.16
 -13   0  -5    0.28    3.11
 -13   0  -5   -0.64    1.19
 -13   0   5   -0.34    1.09
 -12   0  -5    2.36    2.55
 -12   0  -5    2.56    1.13
 -12   0   5    3.85    1.21
 -11   0  -5   -0.50    2.34
 -11   0  -5   -0.62    0.96
 -11   0   5    0.30    0.91
 -10   0  -5   39.94    2.26
 -10   0   5   31.96    2.31
  -9   0  -5   -0.22    1.85
  -9   0  -5   -0.20    0.65
  -9   0   5    0.25    0.73
  -8   0  -5   50.53    2.26
  -8   0   5   45.18    2.59
  -7   0  -5   -0.02    0.40
  -7   0   5    0.53    0.61
  -6   0  -5   30.85    1.27
  -6   0   5   24.08    1.49
  -5   0  -5    0.64    1.40
  -5   0  -5   -0.05    0.22
  -5   0   5    0.01    0.33
  -4   0  -5   -0.15    1.43
  -3   0  -5   -0.41    1.20
  -2   0  -5   41.41    3.95
  -1   0  -5   -0.68    1.25
   0   0  -5   89.08    5.58
   1   0  -5    0.10    1.02
   1   0   5    0.11    0.21
   2   0  -5   43.73    3.45
   3   0  -5    0.22    0.86
   4   0  -5    0.06    0.73
 -16  -1   5    0.59    1.17
 -16   1   5    0.30    1.27
 -15  -1   5    9.83    1.86
 -15   1   5    8.87    1.74
 -14  -1   5    0.29    1.21
 -14   1  -5   -0.16    1.11
 -14   1   5    0.92    1.18
 -13  -1  -5   23.98    4.89
 -13   1  -5   31.42    2.27
 -13   1   5   25.06    2.26
 -13  -1   5   30.07    2.49
 -12   1  -5   -0.51    2.39
 -12  -1  -5    0.25    2.36
 -12  -1   5    0.89    1.14
 -12   1  -5    0.61    0.87
 -12   1   5   -0.05    1.02
 -11   1  -5   18.68    3.96
 -11  -1  -5   19.37    4.05
 -11   1  -5   30.44    1.96
 -11   1   5   24.18    2.13
 -11  -1   5   26.29    2.17
 -10   1  -5    0.48    2.33
 -10  -1  -5    2.05    2.39
 -10  -1   5    2.11    1.04
 -10   1  -5    2.14    0.81
 -10   1   5    1.12    0.92
  -9   1  -5    0.24    2.27
  -9  -1  -5    0.66    1.97
  -9  -1   5    1.12    0.96
  -9   1  -5    1.55    0.61
  -9   1   5    0.99    0.84
  -8   1  -5    2.70    0.59
  -8  -1   5    3.21    1.00
  -8   1   5    2.14    0.77
  -7  -1   5   17.42    1.48
  -7   1  -5   21.81    1.10
  -7   1   5   17.32    1.39
  -7  -1   5   20.58    1.67
  -6   1  -5    3.01    0.39
  -6  -1   5    3.55    0.85
  -6  -1  -5    2.66    0.54
  -6  -1   5    2.45    0.66
  -6   1  -5    2.43    2.08
  -6   1   5    2.19    0.55
  -5  -1  -5   88.92    2.69
  -5  -1   5   76.59    2.96
  -5   1   5   49.25    2.62
  -5   1  -5   78.16    2.47
  -5  -1   5   87.55    3.39
  -5  -1  -5   79.27    2.48
  -5   1  -5   58.51    5.86
  -5  -1  -5   57.72    5.58
  -4  -1  -5    0.63    1.55
  -4   1   5    0.44    0.17
  -4  -1   5    0.47    0.52
  -4   1  -5   -0.17    1.60
  -3   1  -5   41.26    4.55
  -3  -1  -5   41.21    4.30
  -2  -1  -5    2.55    1.49
  -2  -1   5    2.64    0.42
  -2   1  -5    0.72    1.42
  -1  -1  -5    8.44    2.00
  -1   1  -5    7.61    2.01
   0   1  -5    4.42    1.58
   0  -1  -5    6.84    1.76
   1  -1  -5    8.46    1.73
   1   1  -5   10.65    1.91
   2   1  -5    1.60    1.00
   2   1   5    2.26    0.46
   3   1   5   59.56    2.20
   3   1   5   57.10    2.25
   4   1  -5    0.83    0.83
   4   1   5    0.56    0.26
   4  -1   5    0.60    0.27
   4   1   5    1.08    0.48
   5  -1   5   84.43    2.66
   5   1  -5   58.10    3.85
   6   1  -5    1.55    0.79
 -16   2   5    8.64    1.65
 -15  -2   5    1.63    1.42
 -15   2   5    0.83    1.22
 -14  -2   5    4.08    1.47
 -14   2  -5    3.85    1.19
 -14   2   5    3.73    1.35
 -13   2  -5    2.45    3.12
 -13  -2   5    5.50    1.41
 -13   2   5    5.34    1.05
 -13   2  -5    6.58    1.17
 -13   2   5    3.81    1.26
 -12   2  -5    2.12    2.90
 -12  -2   5    1.21    1.12
 -12   2   5    1.48    0.85
 -12   2  -5    2.60    0.85
 -12   2   5    1.88    1.10
 -11  -2  -5    6.62    2.86
 -11   2  -5    7.51    1.00
 -11   2   5    5.45    0.95
 -11   2  -5    8.09    1.26
 -11  -2   5    6.25    1.26
 -11   2   5    6.06    1.19
 -11   2  -5    3.29    2.90
 -10  -2  -5   20.07    3.92
 -10   2  -5   34.74    1.84
 -10   2   5   27.84    2.15
 -10   2   5   26.37    1.74
 -10   2  -5   40.71    2.13
 -10  -2   5   35.49    2.40
 -10   2  -5   26.96    5.08
  -9  -2  -5    1.01    1.95
  -9  -2   5    0.54    0.89
  -9   2   5    0.72    0.62
  -9   2  -5   -0.27    0.60
  -9   2   5    0.12    0.79
  -9   2  -5    1.20    0.73
  -9   2  -5   -0.83    2.53
  -8   2  -5   52.64    2.11
  -8   2   5   38.38    2.40
  -8   2   5   41.14    2.12
  -8   2  -5   57.05    2.40
  -8  -2   5   50.68    2.72
  -7   2   5    4.70    0.81
  -7   2  -5    5.88    0.59
  -7   2   5    5.82    0.73
  -7   2  -5    7.26    0.80
  -7  -2   5    7.56    1.07
  -6   2   5   14.88    1.21
  -6   2  -5   23.57    1.02
  -6   2   5   21.35    1.22
  -6   2  -5   26.38    1.27
  -6  -2   5   24.36    1.57
  -6  -2  -5   23.26    1.03
  -6   2  -5   16.20    3.58
  -5  -2  -5   10.97    2.57
  -5   2   5   15.35    0.95
  -5   2  -5   19.15    0.92
  -5  -2   5   15.72    1.15
  -5   2   5   10.25    0.90
  -5   2  -5   16.56    0.73
  -5  -2  -5   15.84    0.73
  -5  -2   5   14.79    0.95
  -5   2  -5   14.04    3.15
  -4  -2  -5    1.45    1.39
  -4  -2   5    1.51    0.36
  -4   2   5    1.20    0.37
  -4   2  -5    1.93    0.32
  -4  -2  -5    1.51    0.24
  -4  -2   5    1.36    0.47
  -4   2  -5    1.44    0.22
  -4   2   5    1.46    0.39
  -4   2   5    2.55    1.22
  -4   2  -5    2.03    1.87
  -3  -2   5   10.11    0.70
  -3   2  -5   10.06    2.54
  -2   2   5   50.00    3.92
  -2   2  -5   25.78    3.51
  -1   2   5    2.94    1.74
  -1   2  -5    0.96    1.28
   0   2   5  107.75    6.37
   0   2  -5   45.93    4.31
   1   2   5    2.11    1.94
   1   2  -5    0.23    1.15
   2   2   5   32.69    1.55
   2   2   5   32.47    1.67
   3   2   5   10.81    0.72
   3  -2   5   11.78    0.76
   3   2   5   10.90    0.93
   3   2  -5    8.88    1.72
   4   2   5    1.64    0.28
   4  -2   5    2.14    0.38
   4   2  -5    2.68    0.49
   4   2   5    1.09    0.52
   4   2   5    0.84    2.14
   4   2  -5    0.89    0.93
   5  -2   5   17.89    0.85
   5   2  -5   24.22    1.22
   5   2   5   17.33    1.27
   5   2   5   28.46    3.94
   5   2  -5   11.96    1.64
   6  -2   5   23.78    0.92
   6   2  -5   31.90    1.49
   6   2   5   21.27    1.49
   6   2   5   18.59    1.11
   6   2   5   30.33    4.23
   6   2  -5   15.78    1.59
   7   2  -5    5.24    0.96
   7   2   5    6.39    0.69
   8   2  -5   67.49    2.57
   8   2   5   38.58    2.12
   9   2  -5    1.32    0.77
   9   2   5    1.27    0.60
  10   2  -5   44.83    2.21
  10   2   5   28.02    1.92
  11   2  -5    7.16    1.09
  11   2   5    6.11    1.02
  12   2  -5    2.80    0.95
  13   2  -5    8.50    1.29
  14   2  -5    4.33    1.12
 -16   3   5    5.17    1.49
 -15  -3   5    6.05    1.55
 -15   3   5    4.13    1.41
 -14  -3   5    1.61    1.31
 -14   3  -5    2.80    1.10
 -14   3   5    1.03    1.14
 -13   3  -5   12.84    1.50
 -13   3   5   12.60    1.72
 -13  -3   5   13.80    1.78
 -13   3  -5    9.64    4.23
 -12   3   5    0.92    0.82
 -12  -3   5    1.39    1.10
 -12   3  -5    0.10    0.84
 -12   3   5    0.38    1.05
 -12   3  -5    1.05    2.93
 -11   3  -5   11.36    1.19
 -11   3   5   10.67    1.52
 -11  -3   5   11.04    1.50
 -11   3   5    9.07    1.10
 -11   3  -5   17.38    1.80
 -11   3  -5   10.69    4.07
 -10   3  -5   12.65    1.11
 -10   3   5   10.50    1.37
 -10  -3   5   11.12    1.40
 -10   3   5    9.65    1.07
 -10   3  -5    9.12    3.65
  -9   3  -5    0.64    0.61
  -9   3   5    0.97    0.85
  -9   3   5    0.10    0.63
  -9   3  -5    0.24    0.95
  -9  -3   5    0.69    0.86
  -9   3  -5    2.03    2.67
  -8   3   5   15.65    1.47
  -8   3  -5   20.51    1.17
  -8  -3   5   20.26    1.61
  -8   3   5   17.39    1.29
  -8   3   5   22.78    1.83
  -7   3  -5    7.02    0.64
  -7  -3   5    8.33    1.02
  -7   3   5    6.37    0.79
  -7   3   5    9.02    1.59
  -7  -3  -5    7.11    0.66
  -7   3  -5    8.86    1.21
  -6  -3   5    8.65    0.96
  -6   3   5    5.01    0.85
  -6   3  -5    8.69    0.64
  -6  -3  -5    8.29    0.62
  -6  -3   5    7.52    0.87
  -6   3   5    6.91    0.77
  -6   3  -5   10.32    1.14
  -6   3   5   10.87    1.89
  -6   3  -5    7.05    2.82
  -5  -3   5   36.71    1.77
  -5   3   5   20.61    1.55
  -5  -3  -5   34.64    1.36
  -5   3  -5   36.20    1.36
  -5  -3   5   31.58    1.65
  -5   3   5   58.89    3.73
  -5   3  -5   28.74    4.31
  -5   3   5   32.46    1.59
  -5   3  -5   53.79    2.17
  -4  -3  -5    1.14    0.30
  -4  -3   5    0.88    0.44
  -4   3   5    0.40    0.42
  -4   3  -5    0.79    0.27
  -4   3   5    0.58    0.41
  -4   3  -5    1.15    0.62
  -4   3  -5    0.21    1.75
  -4   3   5    1.20    1.30
  -3   3  -5   64.99    2.08
  -3  -3   5   31.79    1.65
  -3  -3  -5   40.30    1.46
  -3   3  -5   34.65    4.55
  -3   3   5   66.84    4.32
  -3   3   5   35.38    1.58
  -2   3  -5   39.48    1.41
  -2  -3   5   17.39    1.08
  -2  -3  -5   22.66    0.92
  -2   3   5   39.78    3.53
  -2   3  -5   15.68    3.21
  -2   3   5   20.13    0.98
  -1   3   5    8.23    0.50
  -1   3   5    9.06    1.03
  -1  -3  -5    9.70    0.55
  -1   3  -5   17.40    0.86
  -1   3   5   17.11    2.71
  -1   3  -5    9.88    2.55
   0   3   5   35.85    1.83
   0   3  -5   38.52    1.23
   0   3   5   36.07    1.22
   0   3  -5   32.60    3.75
   1   3   5    9.87    0.92
   1   3  -5   10.82    0.58
   1   3   5    9.01    0.52
   1   3  -5   10.37    2.27
   2   3   5   23.27    1.28
   2  -3   5   27.86    1.37
   2   3  -5   25.49    1.10
   2   3  -5   20.32    2.71
   2   3   5   22.69    1.07
   3   3   5   45.59    1.82
   3  -3   5   49.39    1.92
   3   3   5   42.22    2.20
   3   3  -5   34.54    3.24
   3   3  -5   47.68    1.83
   3   3   5   38.42    1.74
   4   3   5    0.78    0.31
   4  -3   5    0.91    0.39
   4   3   5    0.87    0.62
   4   3  -5    0.67    0.49
   4   3   5    1.15    2.21
   4   3  -5    0.42    0.87
   4   3   5    0.83    0.44
   5   3   5   31.22    1.72
   5  -3   5   41.23    1.60
   5   3   5   38.80    1.39
   5   3   5   35.34    2.02
   5   3  -5   28.89    2.63
   5   3  -5   42.21    1.84
   6   3  -5    9.47    0.91
   6   3   5    7.58    0.86
   6  -3   5    8.61    0.62
   6   3   5    8.78    1.06
   7   3  -5    9.01    0.93
   7  -3   5    7.33    0.54
   7   3   5    6.05    0.87
   7   3   5    7.40    1.08
   8   3   5   16.52    1.37
   8   3   5   19.28    1.57
   9   3  -5    0.60    0.47
   9   3  -5    0.45    0.70
   9   3   5    0.35    0.70
  10   3  -5   13.73    1.27
  10   3   5    9.61    1.26
  11   3  -5   11.94    1.21
  11   3   5   10.18    1.37
  12   3  -5    0.84    0.89
  12   3   5    0.94    0.91
  13   3  -5   16.40    1.53
  13   3   5   12.45    1.61
  14   3   5    1.32    1.17
  14   3  -5    2.26    1.04
  15   3   5    7.32    1.57
  16   3   5    3.95    1.52
 -15  -4   5    5.24    1.58
 -15   4   5    5.08    1.54
 -14  -4   5    1.49    1.30
 -14   4   5    0.86    1.20
 -13   4  -5   16.23    1.54
 -13   4   5   11.59    1.69
 -13  -4   5   16.42    1.91
 -12   4  -5    0.35    0.81
 -12   4   5    0.11    1.02
 -12   4   5    0.09    0.75
 -12  -4   5    0.30    1.13
 -12   4  -5   -1.08    2.82
 -11   4  -5   10.44    1.13
 -11   4   5    9.20    1.45
 -11  -4   5   10.75    1.48
 -11   4   5    8.78    1.10
 -11   4  -5   10.27    4.07
 -10   4   5    8.41    1.32
 -10   4  -5   10.62    1.02
 -10  -4   5    9.29    1.33
 -10   4   5    8.28    1.01
 -10   4  -5   11.71    4.24
  -9   4   5    0.84    0.81
  -9   4  -5    1.39    0.61
  -9  -4   5    0.58    0.88
  -9   4   5    0.41    0.62
  -9   4  -5    0.70    1.21
  -9   4  -5   -0.31    2.41
  -8  -4   5   14.47    1.38
  -8   4  -5   15.00    1.02
  -8  -4  -5   15.01    1.02
  -8  -4   5   15.98    1.39
  -8   4   5   18.00    1.88
  -8   4   5   13.23    1.12
  -7   4   5    5.81    1.00
  -7  -4   5    8.89    1.06
  -7   4  -5    8.28    0.76
  -7  -4  -5    8.86    0.76
  -7  -4   5    9.13    1.06
  -7   4   5   10.25    1.67
  -7   4   5    6.12    0.80
  -6   4   5    5.67    0.71
  -6   4   5    4.63    0.87
  -6   4  -5    7.23    0.65
  -6  -4  -5    7.55    0.65
  -6  -4   5    6.45    0.90
  -6   4  -5    6.18    3.08
  -6   4   5    9.99    1.75
  -5   4   5   26.98    1.48
  -5  -4  -5   34.81    1.41
  -5  -4   5   31.09    1.75
  -5   4  -5   34.81    1.40
  -5   4  -5   29.84    4.68
  -4  -4  -5    2.13    0.39
  -4  -4   5    1.79    0.57
  -4   4  -5    4.41    1.01
  -4   4   5    0.79    0.78
  -4   4   5    1.45    0.59
  -4   4  -5    1.85    0.38
  -4   4   5    1.26    0.43
  -4   4  -5   -0.41    1.74
  -4   4   5    4.11    1.60
  -3   4   5   35.58    2.19
  -3   4   5   30.35    1.52
  -3  -4  -5   39.89    1.52
  -3  -4   5   35.04    1.85
  -3   4  -5   81.22    2.73
  -3   4  -5   32.71    4.26
  -3   4   5   71.45    4.55
  -2   4   5   12.06    1.21
  -2  -4   5   10.16    1.00
  -2  -4  -5   13.34    0.73
  -2   4   5   10.38    0.68
  -2   4  -5   11.51    2.53
  -1   4   5    6.90    0.92
  -1  -4   5    7.06    0.89
  -1  -4  -5    7.87    0.58
  -1   4  -5    5.55    1.97
   0   4   5   30.82    1.67
   0  -4   5   22.99    1.62
   0  -4  -5   28.24    1.27
   0   4  -5   21.96    3.03
   1   4   5    8.75    0.85
   1  -4   5    9.72    0.92
   2   4   5   14.62    1.00
   2  -4   5   17.42    1.12
   2   4  -5   12.80    0.78
   2   4   5   13.74    1.03
   2   4  -5    9.74    1.95
   3   4   5   42.39    1.80
   3  -4   5   50.58    2.00
   3   4  -5   40.29    1.71
   3   4   5   39.74    1.98
   3   4  -5   31.43    3.10
   4   4  -5    1.92    0.50
   4   4   5    2.20    0.67
   4  -4   5    2.48    0.54
   4   4   5    1.86    0.41
   4   4   5    1.77    0.74
   4   4  -5    0.26    0.95
   5  -4   5   40.26    1.67
   5   4   5   36.76    1.45
   5   4   5   34.42    2.10
   5   4  -5   34.30    1.69
   5   4   5   34.58    2.00
   6  -4   5    7.91    0.69
   6   4   5    6.77    1.06
   6   4  -5    7.32    0.81
   6   4   5    6.72    1.04
   6   4  -5    5.31    1.40
   7  -4   5    7.79    0.67
   7   4   5    8.90    1.19
   7   4  -5    8.29    0.91
   7   4   5    6.74    1.13
   7   4  -5    5.17    1.20
   8   4   5   13.39    1.44
   8   4  -5    8.95    1.28
   8   4  -5   13.02    1.13
   8   4   5   12.43    1.44
   9   4   5    0.09    0.91
   9   4   5    0.68    0.90
   9   4  -5    0.43    0.66
   9   4  -5   -0.14    0.59
  10   4  -5   10.89    1.16
  10   4   5    7.86    1.35
  10   4   5    8.55    1.39
  10   4  -5    5.58    0.64
  11   4  -5   10.13    1.20
  11   4   5    9.36    1.45
  12   4  -5   -0.03    0.80
  12   4   5   -0.06    1.11
  13   4  -5   16.32    1.52
  13   4   5   12.55    1.76
  14   4   5    2.08    1.32
  14   4  -5    2.25    0.98
  15   4   5    4.59    1.49
  16   4   5    2.66    1.51
 -15   5   5    0.77    1.28
 -14   5   5    2.15    1.35
 -14  -5   5    2.53    1.41
 -13   5   5    1.36    1.19
 -13  -5   5    2.58    1.29
 -12   5   5    0.94    1.09
 -12   5  -5    1.49    0.81
 -12  -5   5    1.17    1.12
 -11   5   5    3.48    1.18
 -11   5  -5    4.22    0.91
 -11  -5   5    4.31    1.18
 -11   5   5    2.71    0.92
 -10   5   5   18.79    1.86
 -10   5  -5   23.70    1.48
 -10  -5   5   25.63    1.93
 -10   5   5   18.36    1.44
 -10   5  -5   22.47    5.76
  -9   5   5    0.85    0.95
  -9   5  -5    0.19    0.56
  -9   5  -5    0.31    1.44
  -9  -5  -5    0.28    0.60
  -9  -5   5    0.50    0.96
  -9   5  -5    0.37    3.30
  -9   5   5    0.39    0.64
  -8   5   5   30.02    1.82
  -8   5   5   26.08    2.20
  -8   5  -5   42.93    1.95
  -8  -5  -5   40.79    1.86
  -8  -5   5   42.38    2.38
  -7   5   5    0.78    0.80
  -7   5  -5    1.54    0.54
  -7  -5  -5    2.78    0.60
  -7  -5   5    3.09    0.89
  -7   5   5    1.71    0.56
  -7   5  -5    4.23    1.41
  -7   5   5    3.52    1.35
  -6   5   5    9.99    0.89
  -6  -5  -5   13.45    0.91
  -6  -5   5   14.58    1.34
  -6   5   5    8.32    1.15
  -6   5  -5   14.54    0.94
  -6   5   5   18.20    2.18
  -6   5  -5    6.48    2.73
  -5   5   5   11.26    1.90
  -5   5   5    7.60    1.17
  -5   5   5    7.03    0.70
  -5  -5  -5   10.73    0.78
  -5  -5   5    8.38    1.10
  -5   5   5    5.10    0.94
  -5   5  -5    9.07    0.74
  -5   5  -5    4.62    2.26
  -4   5   5    1.21    1.41
  -4  -5  -5    1.39    0.42
  -4  -5   5    1.11    0.65
  -4   5   5    0.67    0.38
  -4   5   5    1.11    0.77
  -4   5   5    0.52    0.64
  -4   5  -5    0.61    0.40
  -4   5  -5   -0.19    1.78
  -3   5   5    4.29    0.98
  -3  -5  -5    5.28    0.55
  -3  -5   5    5.22    0.82
  -2   5   5   25.36    1.69
  -2  -5   5   21.98    1.61
  -2  -5  -5   24.18    1.19
  -1   5   5    0.81    1.62
  -1   5   5    1.20    0.67
  -1  -5   5    1.34    0.71
  -1  -5  -5    1.46    0.41
   0   5   5   44.77    2.21
   0  -5   5   38.48    2.45
   0  -5  -5   44.60    1.91
   1   5   5    1.13    0.54
   1  -5   5    1.25    0.65
   1  -5   5    0.68    0.72
   1  -5  -5    0.58    0.43
   1   5   5    0.57    2.01
   2  -5  -5   23.95    1.40
   2   5   5   27.15    1.45
   3   5   5    6.75    0.69
   3  -5   5    6.37    0.81
   4  -5   5    1.31    0.56
   4   5   5    1.46    0.46
   4   5   5    0.73    0.78
   4   5  -5    0.79    0.47
   4   5   5    1.29    0.76
   5  -5   5    9.95    0.86
   5   5   5    9.31    0.68
   5   5   5    9.83    1.29
   5   5  -5    8.06    0.77
   5   5   5    7.32    1.10
   6  -5   5   16.45    1.07
   6   5   5   16.15    1.54
   6   5  -5   13.55    1.05
   6   5   5   12.60    1.39
   7   5  -5    2.18    0.65
   7  -5   5    2.35    0.56
   7   5   5    1.52    0.93
   7   5   5    1.94    0.92
   7   5  -5    1.53    0.85
   8  -5   5   40.21    1.76
   8   5   5   38.78    2.45
   8   5  -5   35.63    1.91
   8   5   5   34.68    2.50
   9   5  -5    0.03    0.67
   9   5   5   -0.06    1.08
   9   5   5    0.37    1.01
   9   5  -5    0.11    0.84
  10   5  -5   21.73    1.52
  10   5   5   17.83    2.03
  11   5  -5    3.79    0.92
  11   5   5    2.17    1.31
  12   5  -5    1.29    0.89
  12   5   5    0.46    1.24
  13   5  -5    2.95    1.05
  13   5   5    0.96    1.33
  14   5   5    1.36    1.54
  15   5   5    0.90    1.46
 -14   6   5    0.30    1.29
 -13   6   5   10.78    1.77
 -12   6   5    0.50    1.17
 -11   6   5   10.34    1.60
 -11   6  -5   15.23    1.31
 -10   6   5   -0.05    1.07
 -10   6  -5    1.56    0.76
  -9   6   5    0.81    1.04
  -9   6  -5    0.68    0.67
  -9  -6   5    1.20    1.06
  -9   6   5    0.47    0.63
  -9   6  -5   -0.66    2.68
  -8   6   5   -0.09    0.88
  -8   6  -5    0.68    0.63
  -8  -6   5    0.41    0.88
  -8   6   5    0.30    0.59
  -7   6   5    8.50    0.87
  -7  -6  -5   11.73    0.96
  -7  -6   5   12.09    1.42
  -7   6   5    7.16    1.22
  -7   6  -5   11.24    0.95
  -7   6   5   12.75    1.76
  -6   6   5    1.47    1.25
  -6  -6  -5    0.98    0.57
  -6  -6   5    0.81    0.88
  -6   6   5    0.66    0.83
  -6   6  -5    1.30    0.57
  -6   6   5    0.88    0.49
  -6   6  -5    3.05    1.37
  -5  -6  -5   42.59    1.77
  -5  -6   5   47.99    2.49
  -5   6   5   29.36    1.65
  -5   6   5   25.34    2.07
  -5   6  -5   40.43    1.76
  -5   6   5   53.10    3.58
  -4   6   5    0.08    1.30
  -4  -6  -5    0.51    0.45
  -4  -6   5    0.54    0.75
  -4   6   5    0.38    0.75
  -3   6   5   35.20    2.17
  -3  -6  -5   35.89    1.64
  -3  -6   5   39.11    2.27
  -2   6   5    0.10    1.50
  -2   6   5    0.34    0.68
  -2  -6   5    0.06    0.74
  -2  -6   5   -0.15    0.79
  -2  -6  -5    0.03    0.45
  -1   6   5    7.96    2.12
  -1   6   5    6.26    0.96
  -1  -6  -5    6.28    0.69
  -1  -6   5    9.09    1.10
  -1  -6   5    6.29    1.13
   0  -6  -5    3.14    0.59
   0   6   5    2.74    0.70
   0  -6   5    4.36    0.88
   0  -6   5    1.91    0.89
   1   6   5    6.36    0.79
   1  -6  -5    5.91    0.70
   1  -6   5    7.68    0.96
   1  -6   5    5.75    1.22
   2   6   5    0.51    0.55
   2  -6   5    1.10    0.67
   2  -6   5   -0.06    1.01
   2  -6  -5    0.26    0.49
   3  -6   5   45.60    2.12
   3   6   5   40.68    1.89
   4  -6   5    0.29    0.57
   4   6   5    0.35    0.48
   4   6   5   -0.08    0.91
   5   6   5   41.84    1.80
   5   6  -5   37.14    1.86
   5   6   5   37.66    2.49
   5   6   5   42.73    2.65
   6  -6   5    1.44    0.62
   6   6   5    1.26    0.91
   6   6  -5    1.13    0.56
   6   6   5    0.74    0.88
   7  -6   5   12.38    1.04
   7   6  -5   10.64    0.99
   7   6   5    9.24    1.48
   8   6  -5    0.29    0.61
   8   6   5    0.17    1.02
   8  -6   5    0.56    0.61
   9   6  -5    1.11    0.71
   9   6   5    1.79    1.23
  10   6  -5    0.17    0.74
  10   6   5    0.20    1.27
  11   6   5    7.93    1.86
  11   6  -5   11.03    1.23
  12   6  -5    0.29    0.89
  12   6   5   -0.52    1.49
  13   6   5   10.33    2.07
  14   6   5   -0.98    1.66
 -12   7   5    1.48    1.30
 -11   7   5    0.42    1.17
 -10   7   5    8.11    1.61
  -9   7   5    0.11    1.04
  -9   7  -5    0.57    0.73
  -8   7   5   15.75    1.24
  -8  -7   5   24.58    2.01
  -8   7   5   14.57    1.75
  -8   7  -5   22.20    1.44
  -7  -7   5   -0.21    1.06
  -7   7   5    0.10    0.99
  -7   7  -5    0.06    0.60
  -7   7   5   -0.06    0.52
  -6   7   5    5.62    1.24
  -6  -7   5   14.02    1.57
  -6   7   5    8.14    0.86
  -6   7  -5   11.10    0.99
  -6   7   5   11.83    2.07
  -5   7   5    0.35    1.37
  -5  -7  -5    0.58    0.55
  -5  -7   5    0.24    0.92
  -5   7   5    0.32    0.87
  -5   7  -5    0.06    0.55
  -4  -7  -5    0.20    0.53
  -4  -7   5    0.33    0.95
  -4  -7   5    0.30    0.92
  -3  -7   5    0.16    0.89
  -3  -7  -5    0.47    0.50
  -3  -7   5   -0.04    0.85
  -2  -7   5   30.05    1.94
  -2  -7   5   26.84    2.07
  -2  -7  -5   23.80    1.37
  -1   7   5    0.41    0.67
  -1  -7   5    0.26    0.86
  -1  -7   5   -0.88    1.12
  -1  -7  -5    0.08    0.55
   0   7   5   49.32    2.44
   0  -7   5   49.78    3.06
   0  -7  -5   45.99    2.17
   1   7   5   -0.25    0.69
   1  -7   5    0.12    0.75
   1  -7   5    0.48    0.95
   1  -7  -5   -0.04    0.53
   2  -7   5   23.84    2.34
   2  -7  -5   23.13    1.50
   2   7   5   27.42    1.59
   3  -7   5    0.34    0.71
   3   7   5    0.67    0.59
   3  -7   5    0.22    1.27
   3  -7  -5   -0.32    0.66
   4  -7   5    0.41    0.67
   4   7   5    0.60    0.54
   4  -7  -5   -0.34    0.69
   5  -7   5    0.53    0.69
   6  -7   5   12.70    1.12
   6   7  -5    9.07    0.94
   6   7   5    9.13    1.49
   7  -7   5    0.52    0.70
   7   7  -5    0.44    0.60
   7   7   5    0.05    0.98
   8   7  -5   18.70    1.38
   8   7   5   17.58    2.06
   9   7  -5    0.13    0.68
   9   7   5   -0.07    1.21
  10   7  -5   10.80    1.20
  10   7   5   12.14    2.01
  11   7  -5    0.12    0.84
  11   7   5    0.23    1.44
  12   7   5    0.25    1.68
  13   7   5   -0.60    1.82
 -11   8   5    6.30    1.60
 -10   8   5    0.41    1.21
  -9   8   5   -0.57    1.23
  -8   8   5    0.72    1.12
  -7   8   5    5.20    1.38
  -7   8  -5    7.63    0.97
  -6   8   5    1.21    1.12
  -6   8  -5    0.86    0.64
  -6  -8   5    0.26    1.07
  -5  -8   5   28.87    2.10
  -5  -8   5   28.84    2.18
  -4  -8   5    0.59    1.11
  -4  -8   5    0.20    1.02
  -3  -8   5   26.43    2.00
  -3  -8   5   25.37    2.22
  -2  -8   5    2.24    1.00
  -2  -8   5    1.39    1.13
  -1  -8   5    4.62    1.06
  -1  -8   5    3.54    1.35
   0  -8   5    4.46    1.03
   0  -8   5    4.03    1.41
   1  -8   5    3.41    0.94
   1  -8   5    2.77    1.47
   2  -8   5    2.31    0.88
   2   8   5    2.13    0.81
   2  -8   5    0.80    1.39
   3  -8   5   18.75    2.55
   3  -8   5   22.41    1.62
   3   8   5   20.00    1.40
   4  -8   5    0.20    0.76
   4   8   5    0.50    0.63
   4  -8   5   -1.05    1.80
   5  -8   5   27.41    1.79
   6  -8   5    1.17    0.79
   6   8   5    1.81    1.32
   7  -8   5    9.22    1.14
   7   8  -5    6.49    0.93
   7   8   5    6.46    1.56
   8  -8   5    2.49    0.88
   8   8  -5    2.52    0.74
   8   8   5    1.40    1.35
   9   8  -5    0.75    0.73
   9   8   5    0.29    1.36
  10   8   5    1.93    1.53
  11   8   5    5.85    2.01
  -9   9   5    0.37    1.47
  -8   9   5    7.20    1.67
  -7   9   5    2.15    1.27
  -6   9   5    3.31    1.39
  -3  -9   5    5.81    1.26
  -2  -9   5   10.98    1.47
  -1  -9   5    1.11    1.04
   0  -9   5   21.43    1.77
   1  -9   5    1.11    0.96
   2  -9   5    9.96    1.33
   3  -9   5    6.38    1.18
   4  -9   5    0.39    0.88
   5  -9   5    6.60    1.16
   6  -9   5    5.89    1.17
   7  -9   5    3.18    0.99
   7   9   5    1.44    1.29
   8  -9   5   13.84    1.39
   8   9   5    6.87    1.83
   9   9   5    0.15    1.42
   4 -10   5    0.29    0.98
   5 -10   5    8.36    1.38
   6 -10   5    2.99    1.11
   7 -10   5    2.04    1.16
   7  10   5    0.68    1.48
 -14   0   6    3.22    1.44
 -13   0   6    0.71    1.12
 -12   0   6    1.19    1.17
 -11   0   6   -0.04    0.81
 -10   0   6   23.40    1.69
  -9   0   6   -0.22    0.67
  -8   0   6   36.60    1.82
  -8   0  -6   27.16    4.58
  -7   0   6    0.24    0.38
  -7   0  -6    0.64    2.03
  -6   0  -6   19.60    3.57
  -5   0  -6    1.61    1.73
  -4   0  -6    0.17    1.71
  -3   0  -6    0.92    1.50
  -2   0  -6   33.50    3.78
  -1   0  -6    0.13    1.41
   0   0  -6   77.72    5.38
   1   0  -6    0.41    1.19
   2   0  -6   36.26    3.21
   3   0  -6    0.54    0.96
   4   0   6    0.48    0.35
 -14  -1   6    0.38    1.25
 -13  -1   6   19.52    2.06
 -12  -1   6    0.29    1.14
 -11  -1   6   16.96    1.59
 -11   1   6   17.93    1.61
 -10  -1  -6    1.27    2.43
 -10  -1   6    1.38    0.99
 -10  -1   6    1.20    0.84
 -10   1   6    1.58    0.86
  -9  -1   6    1.97    0.96
  -9  -1   6    1.42    0.74
  -9   1   6    1.23    0.72
  -8   1  -6    1.29    2.11
  -8   1   6    2.48    0.62
  -8  -1  -6    2.44    2.55
  -8  -1   6    3.10    0.94
  -8  -1   6    3.20    0.73
  -7  -1  -6   10.36    3.00
  -7  -1   6   12.67    0.87
  -7   1   6   12.16    0.83
  -7  -1   6   13.64    1.34
  -7  -1   6   12.95    0.79
  -6   1  -6    0.36    1.83
  -6  -1  -6    1.54    2.00
  -6  -1   6    2.56    0.77
  -5   1  -6   39.51    4.65
  -5  -1  -6   46.71    5.05
  -4   1  -6   -0.15    1.56
  -4  -1  -6    0.50    1.66
  -4  -1   6    0.14    0.50
  -3  -1   6   54.52    2.01
  -3  -1  -6   48.85    4.77
  -2   1  -6    1.91    1.51
  -2  -1  -6    1.07    1.50
  -1   1  -6    7.05    1.85
  -1  -1  -6    8.03    1.98
   0   1  -6    2.32    1.43
   0  -1  -6    4.67    1.59
   1   1  -6    5.87    1.67
   1   1   6    9.86    0.73
   2   1  -6    3.77    1.37
   2   1   6    2.38    0.48
   3   1   6   52.71    2.12
   3   1   6   52.17    2.04
   4   1  -6   -0.07    0.91
   4   1   6   -0.04    0.29
   4  -1   6    0.16    0.32
   5  -1   6   57.59    1.89
   5   1  -6   43.36    3.13
 -14  -2   6    2.86    1.30
 -13  -2   6    4.19    1.28
 -12  -2   6    1.14    1.08
 -11  -2   6    4.42    1.19
 -11   2   6    4.03    1.08
 -10  -2   6   17.84    1.60
 -10   2   6   16.62    1.43
 -10  -2   6   19.91    1.75
  -9   2   6    0.62    0.66
  -9  -2   6   -0.04    0.80
  -9  -2   6    0.29    0.75
  -8  -2   6   35.58    1.97
  -8   2   6   30.02    1.73
  -8  -2   6   36.85    2.11
  -8  -2   6   33.84    1.69
  -7   2   6    2.09    0.57
  -7  -2   6    3.15    0.57
  -7  -2   6    3.85    0.82
  -7  -2   6    3.65    0.66
  -7   2  -6    2.62    2.45
  -6  -2   6   14.75    0.73
  -6  -2   6   13.86    0.67
  -6   2   6   14.86    0.79
  -5  -2   6   14.12    1.01
  -5   2  -6    9.88    3.02
  -4  -2   6    0.56    0.38
  -4   2  -6   -0.94    1.91
  -3   2  -6    8.24    2.49
  -2   2  -6   23.00    3.42
  -1   2  -6    0.14    1.48
   0   2  -6   43.68    4.10
   1   2  -6   -0.11    1.34
   1   2   6    1.19    0.60
   1   2   6    1.64    0.54
   2   2   6   27.26    1.43
   2   2   6   24.82    1.47
   2   2  -6   22.56    2.65
   3   2   6   10.47    0.78
   3  -2   6   12.79    0.87
   3   2   6   10.37    0.94
   4   2  -6   -0.43    0.95
   4   2   6    0.68    0.31
   4  -2   6    0.79    0.41
   4   2   6    0.62    0.58
   5  -2   6   14.40    0.75
   5   2   6   13.98    1.17
   6   2  -6   13.77    1.62
   7   2  -6    2.84    0.85
 -13  -3   6    9.62    1.60
 -12  -3   6    0.37    1.10
 -11  -3   6    8.85    1.47
 -10   3   6    7.09    1.09
 -10  -3   6    8.36    1.29
  -9   3   6    0.78    0.79
  -9  -3   6    0.69    0.86
  -8  -3   6   18.05    1.45
  -8   3   6   13.57    1.24
  -8   3  -6   10.99    3.76
  -7  -3   6    3.91    0.71
  -7   3   6    3.43    0.71
  -7   3   6    4.60    0.62
  -7  -3   6    4.93    0.84
  -7   3  -6    2.65    2.57
  -6  -3   6    6.74    0.82
  -6  -3   6    7.95    0.69
  -6   3   6    6.80    0.75
  -6   3  -6    5.81    2.68
  -5  -3   6   24.11    1.08
  -5  -3   6   24.07    1.03
  -5   3  -6   26.47    4.37
  -4   3   6    0.68    1.27
  -4   3  -6   -0.20    1.86
  -3   3   6   41.71    3.57
  -3   3  -6   30.32    4.26
  -2   3   6   26.65    3.09
  -2   3  -6   14.63    2.92
  -1   3   6    5.51    0.95
  -1   3   6    9.14    2.38
  -1   3  -6    7.93    2.25
   0   3   6   28.19    1.74
   0   3  -6   26.79    3.42
   1   3   6    6.03    0.81
   1   3  -6    6.24    1.99
   2   3   6   17.62    1.14
   2  -3   6   21.04    1.25
   2   3   6   15.53    1.30
   2   3  -6   18.30    2.63
   3   3   6   30.51    1.43
   3   3   6   26.22    1.76
   3   3  -6   25.97    2.91
   4   3   6    0.43    0.34
   4  -3   6    0.17    0.43
   4   3   6    0.50    0.64
   4   3  -6    0.17    1.13
   5  -3   6   30.56    1.31
   5   3   6   26.84    1.00
   5   3   6   27.92    1.78
   6  -3   6    7.88    0.59
   6   3   6    6.72    1.04
   7   3  -6    2.81    0.93
   7   3   6    3.54    0.94
   8   3  -6   10.24    1.18
 -11  -4   6    9.28    1.41
 -10  -4   6    5.11    1.16
  -9   4   6    0.43    0.84
  -9  -4   6    0.49    0.81
  -8   4   6    7.99    1.07
  -8   4  -6   11.58    3.77
  -7   4   6    4.18    0.85
  -7   4  -6    3.00    2.68
  -6   4   6    3.23    0.57
  -6   4   6    3.21    0.72
  -6  -4   6    4.29    0.73
  -6   4  -6    3.03    2.65
  -5  -4   6   28.05    1.48
  -5   4   6   24.52    1.27
  -5   4  -6   24.09    4.27
  -4   4   6    0.20    0.38
  -4  -4   6    0.41    0.45
  -4   4   6   -0.22    1.58
  -4   4  -6    0.85    1.97
  -3   4   6   24.50    1.88
  -3  -4   6   29.06    1.21
  -3   4   6   27.35    1.11
  -3   4  -6   26.48    4.06
  -2   4   6    8.20    1.17
  -2   4  -6    7.56    2.44
  -1   4   6    5.06    0.94
  -1   4   6    9.14    2.56
  -1   4  -6    4.84    2.09
   0   4   6   16.13    1.29
   0   4  -6   12.64    2.62
   1   4   6    6.12    0.82
   1  -4   6    7.83    0.93
   1   4  -6    5.06    1.80
   2   4   6   11.63    0.94
   2  -4   6   12.74    1.07
   2   4  -6    9.40    2.16
   3   4   6   32.94    1.55
   3   4   6   27.13    1.93
   3   4  -6   25.73    3.02
   4  -4   6    0.36    0.48
   4   4   6    0.37    0.39
   4   4   6    0.41    0.72
   4   4   6    0.12    0.25
   4   4  -6    0.37    1.19
   5  -4   6   31.82    1.43
   5   4   6   29.35    1.13
   5   4   6   22.17    1.14
   5   4   6   26.01    1.86
   5   4  -6   19.07    2.36
   6  -4   6    4.49    0.61
   6   4   6    4.03    0.56
   6   4   6    4.04    0.97
   6   4  -6    3.98    1.34
   7  -4   6    5.99    0.61
   7   4   6    4.90    0.70
   7   4   6    6.45    1.16
   7   4  -6    3.98    1.12
   8   4  -6    6.15    1.03
   8   4   6    8.67    0.90
   8   4   6    9.12    1.28
  -8   5   6   20.40    1.65
  -7   5   6    1.26    0.82
  -7   5  -6    3.14    2.84
  -6   5   6    8.38    1.11
  -6   5  -6    9.79    3.43
  -5   5  -6    3.49    2.82
  -4   5   6    0.55    0.44
  -4   5  -6    0.25    2.26
  -4   5   6    0.92    1.60
  -3   5   6    2.51    0.46
  -3  -5   6    3.34    0.78
  -3   5  -6    6.17    2.99
  -3   5   6    5.47    2.07
  -2   5   6   18.08    1.56
  -2   5   6   15.95    0.88
  -2   5  -6   14.94    3.55
  -1   5   6    0.55    0.31
  -1   5   6    0.80    0.74
  -1   5  -6   -0.19    1.77
   0   5   6   34.99    1.88
   0   5   6   27.59    1.19
   0   5  -6   36.83    4.35
   1   5   6    1.36    0.64
   1  -5   6    1.57    0.73
   1   5  -6   -0.31    1.75
   1   5   6    0.97    0.48
   2   5   6   21.85    1.35
   2  -5   6   25.60    1.57
   2   5   6   22.47    1.24
   2   5  -6   19.32    3.08
   3  -5   6    5.38    0.81
   3   5   6    3.28    0.61
   3   5   6    3.11    0.64
   3   5   6    3.53    0.99
   3   5  -6    5.44    1.95
   4  -5   6    0.26    0.57
   4   5   6    0.82    0.47
   4   5   6    0.19    0.56
   4   5   6    0.65    0.84
   4   5  -6    0.44    1.31
   5  -5   6    5.98    0.78
   5   5   6    4.38    1.07
   5   5   6    4.32    0.77
   5   5  -6    4.30    1.48
   6  -5   6   13.23    0.98
   6   5   6   10.74    1.40
   6   5   6   10.56    1.08
   7   5   6    0.33    0.71
   7  -5   6    1.16    0.56
   7   5   6    1.07    1.00
   7   5  -6    0.99    0.99
  -5   6  -6   30.42    5.21
  -4   6  -6   -0.23    2.13
  -3   6  -6   21.85    3.86
  -2  -6   6   -0.14    0.90
  -2   6  -6   -0.18    1.77
  -1   6   6    4.33    0.95
  -1  -6   6    5.99    1.07
  -1   6  -6    4.22    2.08
   0   6   6    0.89    0.66
   0  -6   6    1.78    0.90
   0   6  -6    1.16    1.71
   1   6   6    5.10    0.82
   1  -6   6    5.94    1.01
   2   6   6   -0.02    0.60
   2  -6   6    1.12    0.80
   2   6   6    0.18    0.71
   2   6  -6   -0.72    1.40
   3  -6   6   35.38    1.86
   3   6   6   28.64    1.76
   4   6   6   -0.03    0.75
   4  -6   6    0.50    0.68
   4   6  -6   -0.10    1.14
   5  -6   6   31.76    1.69
   5   6   6   26.94    1.88
   6  -6   6    0.80    0.65
   6   6  -6   -0.37    1.31
   7   6  -6    4.42    1.48
  -5  -7   6   -0.18    1.09
  -4  -7   6    0.99    0.99
  -3  -7   6    1.40    1.07
  -3   7  -6   -0.38    1.95
  -2  -7   6   19.54    1.75
  -2   7  -6   10.76    2.76
  -1  -7   6    0.64    0.98
  -1   7  -6   -0.81    1.71
   0  -7   6   40.17    2.34
   1   7   6   -0.32    0.74
   1  -7   6    0.51    0.90
   2  -7   6   18.64    1.54
   3  -7   6    0.84    0.77
   4  -7   6   -0.38    0.78
   4   7  -6    0.30    1.18
   5  -7   6    0.77    0.74
   5   7  -6    0.45    1.08
   6  -7   6    8.45    1.07
   6   7  -6    5.25    1.44
  -2  -8   6    1.53    1.07
  -1  -8   6    2.48    1.08
   0  -8   6    4.78    1.19
   1  -8   6    3.13    1.10
   2  -8   6    1.70    0.96
   3  -8   6   18.00    1.55
   4  -8   6    0.61    0.87
   5  -8   6   17.97    1.54
   2  -9   6    6.00    1.22
   3  -9   6    4.46    1.18
   4  -9   6    0.03    0.99
  -6   0  -7    3.56    2.35
  -5   0  -7    0.18    2.05
  -4   0  -7    0.34    1.82
  -3   0  -7   -1.24    1.92
  -2   0  -7   13.51    2.73
  -1   0  -7    1.31    1.65
   0   0  -7   17.79    2.67
   1   0  -7    1.00    1.42
  -6   1  -7    2.01    2.32
  -6  -1  -7    0.19    1.86
  -5   1  -7   12.02    3.05
  -5  -1  -7   12.66    2.96
  -4   1  -7    0.17    1.86
  -4  -1  -7    0.80    1.74
  -3   1  -7   10.91    2.78
  -2   1  -7    0.72    1.83
  -1   1  -7    1.99    1.68
   0   1  -7    1.72    1.71
   1   1  -7    2.66    1.60
   2   1  -7    0.48    1.36
   3   1  -7   10.00    1.86
   3  -1   7   16.26    0.98
  -6   2  -7    2.06    2.05
  -5   2  -7    2.26    2.01
  -4   2  -7   -0.64    1.74
  -3   2  -7    1.74    1.84
  -2   2  -7    8.18    2.15
  -1   2  -7    0.12    1.45
   0   2  -7   11.62    2.27
   0   2   7   10.97    1.16
   1   2  -7    0.42    1.34
   2   2  -7    5.10    1.60
   3   2  -7    2.65    1.40
   3  -2   7    3.26    0.61
   4   2  -7    0.53    1.08
   5   2  -7    2.07    1.09
  -5   3  -7    5.84    2.70
  -4   3  -7    0.19    2.07
  -3   3  -7    7.51    2.58
  -2   3   7    2.48    0.92
  -2   3  -7    4.30    2.07
  -1   3  -7    0.71    1.64
  -1   3   7    0.99    0.76
   0   3  -7    8.12    2.23
   1   3  -7    0.68    1.41
   2   3  -7    3.36    1.53
   2  -3   7    5.37    0.82
   3   3  -7    5.65    1.53
   3  -3   7   10.02    0.91
   4   3  -7    0.53    1.02
   5   3  -7    4.69    1.35
  -4   4  -7   -0.21    2.37
  -3   4  -7   10.03    2.91
  -2   4  -7    3.34    2.27
  -1   4  -7    1.61    1.98
   0  -4   7    9.69    1.15
   0   4  -7    6.92    2.40
   1  -4   7    1.82    0.78
   1   4  -7    0.77    1.59
   2  -4   7    3.88    0.80
   2   4  -7    2.90    1.64
   3  -4   7   10.88    1.02
   3   4  -7    7.47    1.92
   4   4  -7    0.43    1.19
   5   4  -7    4.24    1.25
  -2   5  -7    6.41    2.45
  -1  -5   7   -0.07    0.93
  -1   5  -7   -0.64    1.76
   0  -5   7   14.62    1.42
   0   5  -7   10.80    2.59
   1  -5   7    0.55    0.81
   1   5  -7   -0.53    1.59
   2  -5   7    8.45    1.05
   2   5  -7    6.44    2.13
   3   5  -7    1.64    1.56
   4   5  -7   -0.89    1.39
  -3  -6   7   12.60    1.58
  -2  -6   7   -0.04    0.94
  -1  -6   7    2.10    0.97
   0  -6   7    0.72    0.89
   0   6  -7    1.69    1.94
   1  -6   7    2.24    0.94
   1   6  -7    0.70    1.66
   2  -6   7   -0.12    0.76
   2   6  -7    2.30    1.80
   3   6  -7    6.00    1.86
   4   6  -7   -0.10    1.35
  -1  -7   7    0.23    0.99
   0  -7   7   13.99    1.59
   1  -7   7    0.62    0.96
   3   7  -7   -0.13    1.68
  -1   1  -8    2.21    1.90
   0   1  -8    1.24    1.56
   1   1  -8    1.69    1.53
   0   2  -8   11.98    2.48
   1   2  -8    0.42    1.49
   2   2  -8    4.76    1.64
   1   3  -8    0.75    1.45
   2   3  -8    2.27    1.54
   0   0   0    0.00    0.00
;
_shelx_hkl_checksum              62629
loop_
_space_group_symop_operation_xyz
'x, y, z'
'-x, -y, z'
'x+1/2, -y, z'
'-x+1/2, y, z'
loop_
_atom_site_label
_atom_site_type_symbol
_atom_site_fract_x
_atom_site_fract_y
_atom_site_fract_z
_atom_site_U_iso_or_equiv
_atom_site_adp_type
_atom_site_occupancy
_atom_site_site_symmetry_order
_atom_site_calc_flag
_atom_site_refinement_flags_posn
_atom_site_refinement_flags_adp
_atom_site_refinement_flags_occupancy
_atom_site_disorder_assembly
_atom_site_disorder_group
Pb1 Pb 0.05883(2) 0.71184(4) 0.4830(10) 0.0374(3) Uani 1 1 d . . . . .
Cl1 Cl 0.0000 1.0000 0.490(6) 0.084(2) Uani 1 2 d S T P . .
Cl2 Cl 0.0643(4) 0.7049(4) 0.984(5) 0.0769(18) Uani 1 1 d . . . . .
Cl3 Cl 0.1140(2) 0.4189(3) 0.488(3) 0.0651(11) Uani 1 1 d . . . . .
Cl4 Cl 0.2500 0.7530(7) 0.482(6) 0.080(2) Uani 1 2 d S T P . .
N1 N 0.2500 0.5224(19) -0.069(7) 0.081(13) Uani 1 2 d DS T P . .
H1A H 0.2103 0.5871 -0.0204 0.121 Uiso 0.5 1 d R U P . .
H1B H 0.3038 0.5390 -0.0051 0.121 Uiso 0.5 1 d R U P . .
H1C H 0.2500 0.5278 -0.2222 0.121 Uiso 1 2 d R U P . .
N2 N 0.2500 0.1230(17) 0.008(5) 0.055(5) Uani 1 2 d DS TU P . .
C1 C 0.2195(18) 0.382(2) 0.005(10) 0.051(9) Uani 0.5 1 d D U P . .
H1D H 0.1614 0.3658 -0.0613 0.061 Uiso 0.5 1 d R U P . .
H1E H 0.2129 0.3776 0.1676 0.061 Uiso 0.5 1 d R U P . .
C2 C 0.279(2) 0.264(3) -0.081(6) 0.059(9) Uani 0.5 1 d D U P . .
H2A H 0.2811 0.2616 -0.2443 0.071 Uiso 0.5 1 d R U P . .
H2B H 0.3381 0.2831 -0.0252 0.071 Uiso 0.5 1 d R U P . .
C3 C 0.2500 0.116(3) 0.261(4) 0.095(10) Uani 1 2 d DS TU P . .
H3A H 0.3030 0.1609 0.3188 0.142 Uiso 1 1 d R U . . .
H3C H 0.2500 0.0182 0.3041 0.142 Uiso 1 2 d R U P . .
C4 C 0.1748(19) 0.047(4) -0.094(5) 0.150(14) Uani 1 1 d D U . . .
H4A H 0.1735 -0.0526 -0.0653 0.226 Uiso 1 1 d R U . . .
H4B H 0.1230 0.0905 -0.0264 0.226 Uiso 1 1 d R U . . .
H4C H 0.1744 0.0635 -0.2556 0.226 Uiso 1 1 d R U . . .
loop_
_atom_site_aniso_label
_atom_site_aniso_U_11
_atom_site_aniso_U_22
_atom_site_aniso_U_33
_atom_site_aniso_U_23
_atom_site_aniso_U_13
_atom_site_aniso_U_12
Pb1 0.0352(4) 0.0315(3) 0.0454(4) 0.0035(5) 0.0014(10) 0.00083(15)
Cl1 0.095(5) 0.045(3) 0.111(5) 0.000 0.000 0.022(3)
Cl2 0.100(5) 0.072(3) 0.058(3) 0.002(6) 0.020(8) 0.010(2)
Cl3 0.044(2) 0.0461(16) 0.105(3) -0.002(7) -0.021(6) 0.0056(15)
Cl4 0.045(3) 0.063(3) 0.130(6) 0.021(14) 0.000 0.000
N1 0.094(17) 0.040(9) 0.11(4) -0.005(13) 0.000 0.000
N2 0.057(8) 0.046(7) 0.062(10) -0.005(9) 0.000 0.000
C1 0.050(15) 0.038(11) 0.06(2) -0.005(19) 0.004(18) 0.009(9)
C2 0.060(17) 0.053(12) 0.064(17) 0.002(11) 0.012(12) 0.004(11)
C3 0.14(3) 0.063(16) 0.079(16) 0.011(14) 0.000 0.000
C4 0.13(2) 0.18(2) 0.15(3) -0.02(2) -0.032(17) -0.073(18)
loop_
_atom_type_symbol
_atom_type_description
_atom_type_scat_dispersion_real
_atom_type_scat_dispersion_imag
_atom_type_scat_source
C C 0.0033 0.0016 'International Tables Vol C Tables 4.2.6.8 and 6.1.1.4'
H H 0.0000 0.0000 'International Tables Vol C Tables 4.2.6.8 and 6.1.1.4'
N N 0.0061 0.0033 'International Tables Vol C Tables 4.2.6.8 and 6.1.1.4'
Cl Cl 0.1484 0.1585 'International Tables Vol C Tables 4.2.6.8 and 6.1.1.4'
Pb Pb -3.3944 10.1111 'International Tables Vol C Tables 4.2.6.8 and 6.1.1.4'
loop_
_geom_angle_atom_site_label_1
_geom_angle_atom_site_label_2
_geom_angle_atom_site_label_3
_geom_angle
_geom_angle_site_symmetry_1
_geom_angle_site_symmetry_3
_geom_angle_publ_flag
Cl3 Pb1 Cl1 97.91(7) 2_565 . ?
Cl3 Pb1 Cl4 162.09(14) 2_565 . ?
Cl1 Pb1 Cl4 99.99(14) . . ?
Cl3 Pb1 Cl3 80.78(11) 2_565 . ?
Cl1 Pb1 Cl3 178.1(6) . . ?
Cl4 Pb1 Cl3 81.32(15) . . ?
Cl3 Pb1 Cl2 91.5(4) 2_565 1_554 ?
Cl1 Pb1 Cl2 92.6(7) . 1_554 ?
Cl4 Pb1 Cl2 88.5(7) . 1_554 ?
Cl3 Pb1 Cl2 88.9(3) . 1_554 ?
Cl3 Pb1 Cl2 90.3(3) 2_565 . ?
Cl1 Pb1 Cl2 90.9(7) . . ?
Cl4 Pb1 Cl2 88.7(7) . . ?
Cl3 Pb1 Cl2 87.7(3) . . ?
Cl2 Pb1 Cl2 175.9(2) 1_554 . ?
Pb1 Cl1 Pb1 178.3(14) . 2_575 ?
Pb1 Cl2 Pb1 175.9(2) 1_556 . ?
Pb1 Cl3 Pb1 99.21(10) 2_565 . ?
Pb1 Cl4 Pb1 164.4(3) 4 . ?
C1 N1 C1 36(2) . 4 ?
C4 N2 C4 100(3) . 4 ?
C4 N2 C3 112.6(17) . . ?
C4 N2 C3 112.6(17) 4 . ?
C4 N2 C2 95(2) . 4 ?
C4 N2 C2 121(3) 4 4 ?
C3 N2 C2 113(2) . 4 ?
C4 N2 C2 121(3) . . ?
C4 N2 C2 95(2) 4 . ?
C3 N2 C2 113(2) . . ?
C2 N2 C2 33(3) 4 . ?
C1 C1 C2 89(2) 4 4 ?
C1 C1 N1 72.1(11) 4 . ?
C2 C1 N1 134(5) 4 . ?
C1 C1 C2 54.1(18) 4 . ?
C2 C1 C2 35(3) 4 . ?
N1 C1 C2 113(2) . . ?
C2 C2 C1 91(2) 4 4 ?
C2 C2 N2 73.4(13) 4 . ?
C1 C2 N2 133(3) 4 . ?
C2 C2 C1 54.1(18) 4 . ?
C1 C2 C1 37(3) 4 . ?
N2 C2 C1 112.2(19) . . ?
loop_
_geom_bond_atom_site_label_1
_geom_bond_atom_site_label_2
_geom_bond_distance
_geom_bond_site_symmetry_2
_geom_bond_publ_flag
Pb1 Cl3 2.860(4) 2_565 ?
Pb1 Cl1 2.8714(6) . ?
Pb1 Cl4 2.8769(10) . ?
Pb1 Cl3 2.898(3) . ?
Pb1 Cl2 2.93(3) 1_554 ?
Pb1 Cl2 2.94(3) . ?
Cl1 Pb1 2.8714(6) 2_575 ?
Cl2 Pb1 2.93(3) 1_556 ?
Cl3 Pb1 2.860(4) 2_565 ?
Cl4 Pb1 2.8769(10) 4 ?
N1 C1 1.48(2) . ?
N1 C1 1.48(2) 4 ?
N2 C4 1.460(19) . ?
N2 C4 1.460(19) 4 ?
N2 C3 1.49(2) . ?
N2 C2 1.50(2) 4 ?
N2 C2 1.50(2) . ?
C1 C1 0.91(5) 4 ?
C1 C2 1.22(4) 4 ?
C1 C2 1.51(2) . ?
C2 C2 0.86(7) 4 ?
C2 C1 1.22(4) 4 ?
