#------------------------------------------------------------------------------
#$Date: 2020-03-05 01:42:07 +0200 (Thu, 05 Mar 2020) $
#$Revision: 248854 $
#$URL: file:///home/coder/svn-repositories/cod/cif/4/13/43/4134332.cif $
#------------------------------------------------------------------------------
#
# This file is available in the Crystallography Open Database (COD),
# http://www.crystallography.net/
#
# All data on this site have been placed in the public domain by the
# contributors.
#
data_4134332
loop_
_publ_author_name
'Peterson, Joshua P.'
'Ellern, Arkady'
'Winter, Arthur H.'
_publ_section_title
;
 Spin Delocalization, Polarization, and London Dispersion Forces Govern
 the Formation of Diradical Pimers.
;
_journal_name_full               'Journal of the American Chemical Society'
_journal_paper_doi               10.1021/jacs.0c00190
_journal_year                    2020
_chemical_formula_sum            'C22 H14 N4 O2'
_chemical_formula_weight         366.37
_space_group_crystal_system      triclinic
_space_group_IT_number           2
_space_group_name_Hall           '-P 1'
_space_group_name_H-M_alt        'P -1'
_atom_sites_solution_hydrogens   geom
_atom_sites_solution_primary     direct
_atom_sites_solution_secondary   difmap
_cell_angle_alpha                73.7000(10)
_cell_angle_beta                 88.894(2)
_cell_angle_gamma                65.047(2)
_cell_formula_units_Z            1
_cell_length_a                   7.2535(2)
_cell_length_b                   7.5984(2)
_cell_length_c                   9.1524(2)
_cell_measurement_reflns_used    2690
_cell_measurement_temperature    173.(2)
_cell_measurement_theta_max      66.2049
_cell_measurement_theta_min      5.0678
_cell_volume                     436.11(2)
_computing_cell_refinement       'SAINT V8.38A (Bruker AXS Inc., 2017)'
_computing_data_collection       'APEX3 Suite (Bruker AXS Inc. , 2017)'
_computing_data_reduction        'SAINT V8.38A (Bruker AXS Inc., 2017)'
_computing_molecular_graphics    'shelXle (C.B. Huebschle, rev 833)'
_computing_structure_refinement  'SHELXL-2016/6 (Sheldrick, 2016)'
_computing_structure_solution    'XT, VERSION 2014/5'
_diffrn_ambient_temperature      173.(2)
_diffrn_detector_area_resol_mean 8.3333
_diffrn_measured_fraction_theta_full 0.964
_diffrn_measured_fraction_theta_max 0.964
_diffrn_measurement_device_type  'Bruker D8 VENTURE diffractometer'
_diffrn_measurement_method
'\w and \f scans, narrow frame width, shutterless'
_diffrn_radiation_monochromator  'multilayer mirror'
_diffrn_radiation_type           'Cu K\a'
_diffrn_radiation_wavelength     1.54178
_diffrn_reflns_av_R_equivalents  0.0296
_diffrn_reflns_av_unetI/netI     0.0270
_diffrn_reflns_limit_h_max       8
_diffrn_reflns_limit_h_min       -8
_diffrn_reflns_limit_k_max       8
_diffrn_reflns_limit_k_min       -8
_diffrn_reflns_limit_l_max       10
_diffrn_reflns_limit_l_min       -10
_diffrn_reflns_number            5843
_diffrn_reflns_theta_full        66.47
_diffrn_reflns_theta_max         66.47
_diffrn_reflns_theta_min         5.07
_diffrn_source                   'microfocus sealed tube'
_diffrn_source_type              'sealed tube'
_exptl_absorpt_coefficient_mu    0.754
_exptl_absorpt_correction_T_max  0.97
_exptl_absorpt_correction_T_min  0.86
_exptl_absorpt_correction_type   multi-scan
_exptl_absorpt_process_details
;

SADABS (Spek A. L., 2015) was used for an absorption correction and scalling
of observed data
;
_exptl_crystal_colour            colourless
_exptl_crystal_density_diffrn    1.395
_exptl_crystal_density_method    'not measured'
_exptl_crystal_description       plate
_exptl_crystal_F_000             190
_exptl_crystal_size_max          0.120
_exptl_crystal_size_mid          0.120
_exptl_crystal_size_min          0.040
_refine_diff_density_max         0.249
_refine_diff_density_min         -0.184
_refine_ls_extinction_method     none
_refine_ls_goodness_of_fit_ref   1.221
_refine_ls_hydrogen_treatment    constr
_refine_ls_matrix_type           full
_refine_ls_number_parameters     127
_refine_ls_number_reflns         1477
_refine_ls_number_restraints     0
_refine_ls_restrained_S_all      1.221
_refine_ls_R_factor_all          0.0411
_refine_ls_R_factor_gt           0.0380
_refine_ls_shift/su_max          0.000
_refine_ls_shift/su_mean         0.000
_refine_ls_structure_factor_coef Fsqd
_refine_ls_weighting_details
'w=1/[\s^2^(Fo^2^)+(0.1000P)^2^] where P=(Fo^2^+2Fc^2^)/3'
_refine_ls_weighting_scheme      calc
_refine_ls_wR_factor_gt          0.1386
_refine_ls_wR_factor_ref         0.1427
_reflns_number_gt                1334
_reflns_number_total             1477
_reflns_threshold_expression     'I > 2\s(I)'
_cod_data_source_file            ja0c00190_si_003.cif
_cod_data_source_block           Win034Cu
_cod_depositor_comments
;
The following automatic conversions were performed:

data item '_exptl_absorpt_correction_type' value 'Multi-Scan' was
changed to 'multi-scan' in accordance with the
/home/data/users/saulius/crontab/automatic-downloads/rss-feeds/ACS/lib/dictionaries/cif_core.dic
dictionary named 'cif_core.dic' version 2.4.2 last updated on
2011-04-26.

Automatic conversion script
Id: cif_fix_values 7556 2019-12-06 15:28:31Z antanas 
;
_cod_database_code               4134332
_shelx_res_file
;

TITL Win034_a.res in P-1
    Win034_a.res
    created by SHELXL-2016/6 at 10:14:56 on 18-Mar-2019
REM Old TITL Win034 in P-1
REM SHELXT solution in P-1
REM R1 0.110,  Rweak 0.004,  Alpha 0.032,  Orientation as input
REM Formula found by SHELXT:  C11 N3
CELL  1.54178   7.2535   7.5984   9.1524   73.700   88.894   65.047
ZERR    1.000   0.0002   0.0002   0.0002    0.001    0.002    0.002
LATT  1
SFAC C H N O
UNIT 22 14 4 2
ACTA
TEMP -100
SIZE 0.04 0.12 0.12
L.S. 10
BOND $H
LIST 4
FMAP 2
PLAN 20
WGHT    0.100000
FVAR       1.14563
O1    4    0.445316    0.271685    0.921954    11.00000    0.03847    0.02738 =
         0.03813    0.00145    0.00715   -0.01753
N1    3    0.220247    1.079717    0.236058    11.00000    0.03567    0.03038 =
         0.03097   -0.00877   -0.00502   -0.01023
N2    3    0.875795    0.784547    0.370182    11.00000    0.02847    0.03202 =
         0.03714   -0.01118    0.00929   -0.01149
C1    1    0.446176    0.428638    0.806601    11.00000    0.03167    0.01954 =
         0.02912   -0.00790    0.00775   -0.01275
C2    1    0.277526    0.572397    0.704713    11.00000    0.02447    0.02474 =
         0.04117   -0.00905    0.00415   -0.01246
AFIX  43
H2    2    0.149078    0.566911    0.711070    11.00000   -1.20000
AFIX   0
C3    1    0.301477    0.725021    0.592824    11.00000    0.02159    0.02027 =
         0.03364   -0.00658   -0.00001   -0.00738
AFIX  43
H3    2    0.187318    0.826826    0.522065    11.00000   -1.20000
AFIX   0
C4    1    0.491082    0.731259    0.582636    11.00000    0.02269    0.01676 =
         0.02416   -0.00706    0.00235   -0.00712
C5    1    0.511794    0.908112    0.464770    11.00000    0.02145    0.01892 =
         0.02298   -0.00575    0.00182   -0.00704
C6    1    0.351948    1.001728    0.332715    11.00000    0.02848    0.02014 =
         0.02432   -0.00788    0.00359   -0.00978
C7    1    0.715513    0.839739    0.408458    11.00000    0.02806    0.01852 =
         0.02198   -0.00387    0.00127   -0.00958
C8    1    0.661408    0.579975    0.684925    11.00000    0.02070    0.01931 =
         0.02532   -0.00611    0.00175   -0.00669
AFIX  43
H8    2    0.791864    0.580593    0.676138    11.00000   -1.20000
AFIX   0
C9    1    0.637279    0.430761    0.798074    11.00000    0.02428    0.01844 =
         0.02821   -0.01010    0.00331   -0.00777
C10   1    0.787021    0.251847    0.922601    11.00000    0.03346    0.02327 =
         0.02854   -0.00236    0.00012   -0.01000
AFIX  23
H10A  2    0.857283    0.294919    0.987413    11.00000   -1.20000
H10B  2    0.890423    0.150382    0.879853    11.00000   -1.20000
AFIX   0
C11   1    0.645234    0.167816    1.012665    11.00000    0.03992    0.02326 =
         0.02666   -0.00312    0.00323   -0.01227
AFIX  23
H11A  2    0.701335    0.019224    1.029900    11.00000   -1.20000
H11B  2    0.633123    0.193340    1.113505    11.00000   -1.20000
AFIX   0
HKLF 4




REM  Win034_a.res in P-1
REM R1 =  0.0380 for    1334 Fo > 4sig(Fo)  and  0.0411 for all    1477 data
REM    127 parameters refined using      0 restraints

END

WGHT      0.0601      0.1289

REM Highest difference peak  0.249,  deepest hole -0.184,  1-sigma level  0.041
Q1    1   0.5608  0.4370  0.7983  11.00000  0.05    0.25
Q2    1   0.7273  0.2155  0.9761  11.00000  0.05    0.24
Q3    1   0.3241  0.6026  0.6364  11.00000  0.05    0.23
Q4    1   0.7072  0.3614  0.8546  11.00000  0.05    0.21
Q5    1   0.6367  0.5222  0.7823  11.00000  0.05    0.20
Q6    1   0.3487  0.4960  0.7278  11.00000  0.05    0.19
Q7    1   0.4228  0.9841  0.3887  11.00000  0.05    0.19
Q8    1   0.5000  1.0000  0.5000  10.50000  0.05    0.18
Q9    1   0.6060  0.9154  0.4346  11.00000  0.05    0.18
Q10   1   0.3801  0.7243  0.5703  11.00000  0.05    0.16
Q11   1   0.4966  0.8198  0.5353  11.00000  0.05    0.16
Q12   1   0.5232  0.3321  0.9444  11.00000  0.05    0.16
Q13   1   0.5929  0.6641  0.6552  11.00000  0.05    0.16
Q14   1   0.9098  0.2683  0.9374  11.00000  0.05    0.15
Q15   1   0.7842  0.8480  0.4438  11.00000  0.05    0.14
Q16   1   0.4517  0.3088  0.8742  11.00000  0.05    0.14
Q17   1   0.8188  0.2051  0.8988  11.00000  0.05    0.13
Q18   1   0.3656  0.3837  0.9178  11.00000  0.05    0.13
Q19   1   0.2596  0.4349  0.8263  11.00000  0.05    0.13
Q20   1   0.2710  1.0842  0.3482  11.00000  0.05    0.13
;
_shelx_res_checksum              83799
_shelx_hkl_file
;
  -1   0   0 5049.79  151.18
  -1   0   0 5283.97  151.58
   1   0   0 4478.75  150.98
   1   0   0 5152.98  151.18
  -2   0   0  486.45   15.10
   3   0   0    1.50    0.40
   3   0   0    1.50    0.40
  -4   0   0   14.30    1.00
  -4   0   0   14.90    1.20
   4   0   0   15.20    1.10
  -5   0   0  114.79    4.70
  -5   0   0  129.39    5.00
   3  -1   0   27.70    1.60
  -2   1   0    5.40    0.60
  -2   1   0    6.10    0.90
   0  -1   0    0.60    0.30
   0  -1   0    0.40    0.20
   0   1   0    0.30    0.30
  -1  -1   0  271.67    8.40
   1   1   0  284.17    8.50
   1   1   0  274.87    8.40
   2   1   0  160.78    5.20
   2   1   0  166.78    5.10
   2   1   0  162.98    5.30
   3   1   0  626.64   19.40
   3   1   0  631.44   19.20
  -4  -1   0  262.57    8.80
  -4  -1   0  249.18    8.40
   4   1   0  259.17    8.50
  -5  -1   0   50.49    2.70
  -5  -1   0   47.10    2.40
  -5  -1   0   47.80    2.30
  -5  -1   0   50.39    2.60
  -5  -1   0   49.50    2.70
  -5  -1   0   48.10    2.40
  -6  -1   0  105.79    4.50
  -6  -1   0  108.29    4.80
  -6  -1   0  120.79    4.70
  -6  -1   0  112.79    4.70
  -6  -1   0  117.69    5.00
  -7  -1   0   25.70    1.70
  -7  -1   0   23.40    2.20
  -7  -1   0   22.70    1.70
  -4   2   0    1.90    0.60
  -4   2   0    1.90    0.70
  -4   2   0    1.20    0.60
  -2   2   0    4.40    0.60
  -2   2   0    3.30    0.90
  -1   2   0  189.88    6.70
  -1   2   0  192.98    6.20
   0   2   0  349.77   10.90
   0   2   0  327.17   10.50
   1   2   0  632.14   18.80
   1   2   0  592.24   18.70
  -2  -2   0  471.45   14.30
   2   2   0  456.85   14.50
   2   2   0  482.95   14.40
   3   2   0 1793.02   54.39
  -4  -2   0  114.99    4.20
  -4  -2   0  114.69    4.40
   4   2   0  109.79    4.20
  -5  -2   0    5.50    0.90
  -5  -2   0    4.30    1.00
  -5  -2   0    4.20    0.90
  -5  -2   0    4.40    0.90
  -5  -2   0    4.20    1.00
  -5  -2   0    5.00    1.10
  -5  -2   0    5.70    1.00
  -6  -2   0   41.40    2.60
  -6  -2   0   29.20    2.20
  -6  -2   0   32.20    2.00
  -6  -2   0   28.10    2.00
  -6  -2   0   32.10    2.10
  -6  -2   0   33.70    2.20
  -6  -2   0   36.60    2.50
  -7  -2   0    1.90    0.90
  -7  -2   0    1.90    0.80
  -7  -2   0    2.20    0.90
  -7  -2   0    2.10    1.00
  -7  -2   0    2.50    0.80
  -8  -2   0    4.40    0.80
  -8  -2   0    4.50    0.70
  -5   3   0   24.00    1.50
  -4   3   0    1.30    0.70
  -4   3   0    0.90    0.60
  -4   3   0    0.40    0.60
  -4   3   0    0.70    0.70
  -3   3   0   97.59    3.80
  -3   3   0   93.19    3.80
  -3   3   0   91.69    4.00
  -3   3   0  100.49    3.90
  -1   3   0   23.40    1.80
   0   3   0   77.39    2.90
   0   3   0   77.19    3.30
   1   3   0  401.96   12.20
   1   3   0  378.86   12.50
   2   3   0  113.89    4.10
   2   3   0  119.69    4.10
   3   3   0  240.08    7.90
  -4  -3   0   74.19    3.10
  -4  -3   0   73.89    3.30
   4   3   0   76.19    3.10
  -5  -3   0    2.60    0.80
  -5  -3   0    3.80    1.00
  -5  -3   0    2.70    0.90
  -5  -3   0    2.70    0.90
  -5  -3   0    3.60    0.80
  -5  -3   0    4.70    0.90
  -5  -3   0    2.80    0.90
  -5  -3   0    4.40    0.90
  -6  -3   0   16.20    1.60
  -6  -3   0   15.90    1.60
  -6  -3   0   15.40    1.70
  -6  -3   0   10.40    1.50
  -6  -3   0   18.50    1.90
  -6  -3   0   11.30    1.40
  -6  -3   0   13.40    1.60
  -6  -3   0   17.40    2.10
  -7  -3   0  105.39    4.80
  -7  -3   0   96.59    4.40
  -7  -3   0  110.79    4.70
  -7  -3   0  102.79    4.40
  -7  -3   0   99.09    4.30
  -7  -3   0   99.89    4.50
  -8  -3   0   22.20    1.70
  -8  -3   0   20.30    1.70
  -8  -3   0   22.70    1.50
  -8  -3   0   28.00    2.50
  -8  -3   0   22.10    1.50
  -4   4   0   12.60    1.20
  -4   4   0   13.30    1.20
  -4   4   0   15.50    1.30
  -4   4   0   12.00    1.30
  -3   4   0   26.70    1.80
  -3   4   0   25.80    1.90
  -3   4   0   25.80    1.80
  -3   4   0   26.70    1.70
  -2   4   0    0.50    0.60
  -2   4   0    0.20    0.60
  -2   4   0    0.60    0.60
  -2   4   0    0.40    0.70
  -2   4   0    0.20    0.60
  -1   4   0   -0.50    0.50
  -1   4   0    0.00    0.50
  -1   4   0    0.50    0.50
  -1   4   0    0.00    0.50
  -1   4   0    0.60    0.50
   0   4   0  149.09    6.00
   1   4   0   87.69    3.80
   1   4   0   91.59    3.80
   2   4   0  144.29    5.00
   2   4   0  135.09    4.80
   3   4   0   27.90    1.50
   3   4   0   25.90    1.60
  -4  -4   0   13.70    1.20
   4   4   0    6.90    1.20
   4   4   0   13.00    1.20
  -5  -4   0    4.30    0.90
  -5  -4   0    4.70    1.10
  -5  -4   0    4.70    0.90
  -5  -4   0    6.80    1.20
  -5  -4   0    5.30    1.10
  -5  -4   0    5.40    1.00
  -5  -4   0    5.10    1.10
  -6  -4   0   84.89    3.70
  -6  -4   0   82.19    4.10
  -6  -4   0   75.39    3.80
  -6  -4   0   75.69    3.90
  -6  -4   0   73.49    3.50
  -6  -4   0   81.69    3.90
  -6  -4   0   71.29    3.60
   6   4   0   85.19    3.60
  -7  -4   0    5.20    1.30
  -7  -4   0    7.70    1.40
  -7  -4   0    7.60    1.30
  -7  -4   0   10.20    1.40
  -7  -4   0    9.60    1.30
  -7  -4   0   11.70    1.60
   7   4   0    8.30    1.20
  -8  -4   0    0.00    0.70
  -8  -4   0    0.30    0.50
  -8  -4   0    0.80    0.70
  -8  -4   0   -0.10    0.60
  -8  -4   0    0.40    0.50
  -4   5   0  193.38    6.40
  -4   5   0  192.98    6.40
  -3   5   0  347.27   11.40
  -3   5   0  347.47   11.50
  -3   5   0  354.16   11.30
  -3   5   0  333.27   11.30
  -2   5   0   40.50    2.20
  -2   5   0   40.70    2.20
  -2   5   0   38.80    2.30
  -2   5   0   38.00    2.40
  -1   5   0    5.90    1.20
  -1   5   0    4.60    0.90
  -1   5   0    4.00    0.80
  -1   5   0    3.20    0.80
   0  -5   0   41.30    2.40
   0   5   0   41.60    2.40
   0   5   0   39.90    2.20
   0   5   0   39.90    2.10
   0   5   0   38.90    2.00
  -1  -5   0   47.60    2.50
   1   5   0   46.30    2.40
   1   5   0   45.70    2.30
   1   5   0   47.00    2.30
   1   5   0   49.20    2.50
  -2  -5   0   76.89    3.30
  -2  -5   0   80.89    3.40
   2   5   0   77.69    3.20
   2   5   0   78.69    3.40
   2   5   0   80.89    3.20
  -3  -5   0    1.00    0.70
  -3  -5   0    0.80    0.60
  -3  -5   0    1.40    0.70
   3   5   0    0.60    0.50
   3   5   0    1.80    0.70
  -4  -5   0   54.99    3.00
  -4  -5   0   57.59    2.80
  -4  -5   0   63.19    2.90
   4   5   0   55.49    2.70
   4   5   0   55.39    2.80
  -5  -5   0    1.00    0.80
  -5  -5   0    0.10    0.80
  -5  -5   0   -0.30    0.70
  -5  -5   0    0.30    0.70
  -5  -5   0   -0.70    0.60
   5   5   0    0.30    0.70
   5   5   0    0.10    0.60
  -6  -5   0    1.80    0.80
  -6  -5   0    1.90    0.80
  -6  -5   0    1.90    1.00
  -6  -5   0    1.00    0.80
  -6  -5   0    1.80    0.90
  -6  -5   0    1.80    1.00
   6   5   0    2.30    0.90
  -7  -5   0    1.80    0.90
  -7  -5   0    1.30    0.80
  -7  -5   0    0.80    0.70
  -7  -5   0    1.90    1.00
  -7  -5   0    1.00    0.70
  -7  -5   0    1.80    0.90
   7   5   0    2.50    0.80
   7   5   0    1.60    0.80
  -8  -5   0   59.69    2.70
  -8  -5   0   60.29    2.70
  -8  -5   0   59.79    3.00
  -8  -5   0   58.49    2.90
   8   5   0   61.19    2.70
  -3   6   0   33.90    1.80
  -3   6   0   32.50    1.80
  -2   6   0    0.50    0.50
  -2   6   0    0.00    0.50
  -2   6   0   -0.50    0.50
   1  -6   0  140.29    5.60
  -1   6   0  158.08    5.60
  -1   6   0  153.58    5.50
  -1   6   0  142.89    5.40
  -1   6   0  146.99    5.80
   0  -6   0  332.37   11.50
   0   6   0  339.57   11.10
   0   6   0  326.97   11.00
   0   6   0  341.27   11.30
  -1  -6   0   20.50    1.80
   1   6   0   20.60    1.80
  -2  -6   0   53.79    2.90
  -2  -6   0   55.59    2.90
   2   6   0   55.89    2.70
   2   6   0   53.29    2.90
  -3  -6   0  236.98    8.40
  -3  -6   0  239.68    8.40
  -3  -6   0  232.88    8.50
   3   6   0  256.27    8.60
   3   6   0  238.58    8.30
  -4  -6   0  309.77   10.70
  -4  -6   0  301.47   10.80
  -4  -6   0  313.67   10.60
   4   6   0  315.97   10.60
   4   6   0  333.47   11.00
  -5  -6   0   76.29    3.50
  -5  -6   0   72.59    3.40
   5   6   0   68.99    3.50
   5   6   0   68.49    3.30
  -6  -6   0    0.70    0.70
  -6  -6   0   -0.70    0.70
   6   6   0    0.80    0.80
   6   6   0    0.70    0.70
  -7  -6   0   29.80    2.00
  -7  -6   0   29.20    2.00
  -7  -6   0   31.70    2.00
   7   6   0   31.70    2.10
   7   6   0   31.30    1.90
  -8  -6   0    0.60    0.50
   8   6   0    0.20    0.50
   8   6   0    0.10    0.60
   1  -7   0  101.09    4.10
  -1   7   0  109.79    3.90
  -1   7   0  104.49    3.80
  -1   7   0  101.29    3.70
   0  -7   0  249.68    8.50
   0  -7   0  230.18    8.20
   0   7   0  234.28    8.00
   0   7   0  245.78    8.20
  -1  -7   0  224.88    8.10
  -1  -7   0  235.68    8.20
   1   7   0  214.98    7.80
  -2  -7   0   35.80    2.30
  -2  -7   0   32.90    2.20
   2   7   0   33.90    3.00
   2   7   0   34.70    2.10
  -3  -7   0  371.26   12.20
  -3  -7   0  362.06   12.10
   3   7   0  349.37   12.20
  -4  -7   0   10.80    1.50
  -4  -7   0    9.00    1.20
  -4  -7   0    7.60    1.10
   4   7   0    8.10    1.10
   4   7   0    8.90    1.30
  -5  -7   0   46.50    2.50
  -5  -7   0   48.70    2.70
   5   7   0   47.90    2.70
   5   7   0   47.90    2.50
  -6  -7   0   18.90    1.60
  -6  -7   0   20.20    1.60
   6   7   0   22.80    2.20
   6   7   0   17.60    1.70
   6   7   0   19.20    1.60
  -7  -7   0    7.70    0.90
  -7  -7   0    8.60    1.00
   7   7   0    7.70    1.00
   7   7   0   10.80    1.20
  -1  -8   0   17.60    1.80
  -1  -8   0   16.90    1.30
   1   8   0   18.10    1.20
  -2  -8   0   21.10    1.60
  -2  -8   0   19.00    1.50
   2   8   0   20.80    1.30
  -3  -8   0   27.60    1.70
  -3  -8   0   25.50    1.80
  -4  -8   0   16.00    1.50
   4   8   0   14.80    1.40
  -5  -8   0    8.50    1.10
   5   8   0    9.40    1.20
  -6  -8   0    7.40    0.90
   6   8   0    7.80    1.00
   5   8  -1   24.40    1.60
  -5  -8   1   24.40    1.50
   4   8  -1   22.80    1.60
  -4  -8   1   22.60    1.60
  -4  -8   1   23.10    1.40
   3   8  -1   23.90    1.50
  -3  -8   1   24.40    1.60
  -3  -8   1   26.50    1.60
  -2  -8   1    9.50    1.00
   7   7  -1   -0.20    0.50
   7   7  -1    0.40    0.50
  -7  -7   1    0.20    0.50
  -7  -7   1    1.10    0.50
   6   7  -1    0.10    0.60
   6   7  -1    0.20    0.70
   6   7  -1    0.20    0.60
  -6  -7   1    0.80    0.60
  -6  -7   1    0.40    0.60
   5   7  -1   61.39    3.10
   5   7  -1   60.59    2.90
  -5  -7   1   55.49    2.70
  -5  -7   1   62.59    3.00
   4   7  -1   21.20    1.70
   4   7  -1   22.20    1.90
  -4  -7   1   20.60    1.80
  -4  -7   1   21.80    1.70
   3   7  -1    0.60    0.70
   3   7  -1   -0.30    0.50
  -3  -7   1    0.70    0.80
  -3  -7   1    1.00    0.70
   2   7  -1    3.80    0.80
   2   7  -1    3.20    0.90
  -2  -7   1    4.00    1.00
  -2  -7   1    2.00    0.90
   1   7  -1    1.80    0.70
  -1  -7   1    3.00    0.90
  -1  -7   1    1.80    0.90
   0   7  -1    2.70    0.70
   0  -7   1    2.70    0.80
  -1   7  -1    0.50    0.40
   1  -7   1    0.90    0.70
   8   6  -1   36.60    2.30
   7   6  -1    7.80    1.10
   7   6  -1    8.40    1.20
   7   6  -1    9.40    1.30
  -7  -6   1    7.20    1.00
  -7  -6   1    7.70    1.10
   6   6  -1   88.39    4.10
   6   6  -1   82.19    3.80
   6   6  -1   91.99    4.10
  -6  -6   1   93.29    3.90
  -6  -6   1   85.29    3.90
   5   6  -1   21.10    1.90
   5   6  -1   22.40    1.90
   5   6  -1   21.80    1.90
  -5  -6   1   21.30    1.80
  -5  -6   1   21.10    1.70
  -5  -6   1   20.30    1.70
   4   6  -1   11.70    1.50
   4   6  -1   11.20    1.40
   4   6  -1   10.00    1.40
  -4  -6   1   13.20    1.50
  -4  -6   1   13.20    1.40
  -4  -6   1   13.50    1.40
   3   6  -1  111.79    4.80
   3   6  -1  118.89    4.70
  -3  -6   1  118.59    4.70
  -3  -6   1  112.69    4.70
   2   6  -1    9.00    1.20
   2   6  -1   15.00    1.40
   2   6  -1    9.70    1.30
  -2  -6   1   11.20    1.50
  -2  -6   1   14.10    1.60
   1   6  -1   32.90    2.20
   1   6  -1   29.70    2.00
  -1  -6   1   35.10    2.20
  -1  -6   1   33.10    2.30
   0   6  -1    0.90    0.60
   0   6  -1    0.00    0.60
   0   6  -1   -0.10    0.60
   0  -6   1   -0.30    0.80
  -1   6  -1   34.50    2.10
  -1   6  -1   37.00    2.00
  -1   6  -1   37.00    2.00
   1  -6   1   32.30    2.30
  -2   6  -1   48.90    2.10
  -2   6  -1   47.60    2.20
  -2   6  -1   44.60    2.10
   2  -6   1   47.60    2.40
  -8  -5   1   19.30    1.30
  -8  -5   1   19.00    1.40
  -8  -5   1   19.40    1.40
  -8  -5   1   18.80    1.50
   7   5  -1    2.30    0.80
   7   5  -1    4.40    0.90
  -7  -5   1    4.00    1.00
  -7  -5   1    3.90    1.10
  -7  -5   1    4.20    0.90
  -7  -5   1    3.80    1.00
   6   5  -1  361.66   11.60
   6   5  -1  346.57   11.80
  -6  -5   1  346.87   12.20
  -6  -5   1  328.27   11.90
  -6  -5   1  355.56   11.80
  -6  -5   1  341.67   11.90
  -6  -5   1  342.57   11.70
  -6  -5   1  327.87   11.50
   5   5  -1  552.04   17.00
   5   5  -1  531.25   17.20
  -5  -5   1  507.45   17.00
  -5  -5   1  509.25   17.10
  -5  -5   1  521.55   16.90
  -5  -5   1  544.15   18.50
  -5  -5   1  510.35   17.50
   4   5  -1  255.67    8.70
   4   5  -1  258.47    8.90
  -4  -5   1  257.77    8.70
  -4  -5   1  248.98    8.70
  -4  -5   1  241.98    8.80
   3   5  -1   42.20    2.30
   3   5  -1   36.10    2.20
   3   5  -1   39.50    2.10
  -3  -5   1   38.80    2.20
  -3  -5   1   39.50    2.20
   2   5  -1   48.70    2.30
   2   5  -1   46.60    2.50
  -2  -5   1   44.20    2.40
  -2  -5   1   43.60    2.40
   1   5  -1   63.09    2.90
   1   5  -1   64.89    2.90
   1   5  -1   66.09    3.10
  -1  -5   1   65.09    3.10
   0   5  -1    2.10    0.70
   0   5  -1    2.90    0.90
   0   5  -1    4.20    1.00
   0   5  -1    1.90    0.60
   0   5  -1    3.20    0.80
   0  -5   1    3.20    0.90
  -1   5  -1   -0.40    0.40
  -1   5  -1    0.20    0.70
  -1   5  -1    0.90    0.70
  -1   5  -1    0.40    0.70
  -2   5  -1    3.30    0.80
  -2   5  -1    1.90    0.80
  -2   5  -1    1.70    0.80
  -2   5  -1    2.30    0.70
  -3   5  -1    0.30    0.60
  -3   5  -1    0.30    0.50
  -3   5  -1    1.20    0.50
  -8  -4   1    1.00    0.80
  -8  -4   1    0.70    0.60
  -8  -4   1    0.70    0.60
   7   4  -1    0.30    0.60
   7   4  -1    0.50    0.70
  -7  -4   1    0.50    0.90
  -7  -4   1    0.30    0.80
  -7  -4   1    0.60    0.70
  -7  -4   1    0.80    0.90
  -7  -4   1   -0.10    0.80
  -7  -4   1   -0.20    0.70
   6   4  -1    0.60    0.70
  -6  -4   1    1.30    1.00
  -6  -4   1    2.70    1.10
  -6  -4   1    0.70    0.80
  -6  -4   1    1.30    0.70
  -6  -4   1    1.20    0.80
  -6  -4   1    2.10    1.00
   5   4  -1  125.59    5.00
  -5  -4   1  128.09    5.30
  -5  -4   1  124.79    5.00
  -5  -4   1  145.39    5.20
  -5  -4   1  123.89    5.00
  -5  -4   1  130.19    5.40
  -5  -4   1  130.69    5.30
   4   4  -1   12.40    1.20
   4   4  -1   16.70    1.40
  -4  -4   1   17.20    1.60
  -4  -4   1   17.80    1.80
  -4  -4   1   14.50    1.40
  -4  -4   1   16.10    1.40
   3   4  -1  423.86   13.40
   3   4  -1  409.86   13.30
   2   4  -1   32.30    2.00
   2   4  -1   34.10    1.70
   1   4  -1  279.57    9.10
   1   4  -1  275.37    9.80
   0   4  -1  125.59    4.60
   0   4  -1  128.79    6.60
  -1   4  -1   71.39    3.00
  -1   4  -1   65.89    3.10
  -1   4  -1   72.09    3.20
  -1   4  -1   74.49    3.10
  -1   4  -1   69.79    3.00
  -2   4  -1    9.80    1.20
  -2   4  -1   10.80    1.20
  -2   4  -1    8.70    1.20
  -2   4  -1   10.70    1.40
  -3   4  -1   21.10    1.70
  -3   4  -1   21.50    1.70
  -3   4  -1   22.70    1.60
  -4   4  -1   40.00    2.00
  -4   4  -1   42.90    2.10
  -4   4  -1   35.90    1.90
  -8  -3   1    5.70    1.00
  -8  -3   1    6.90    1.10
  -8  -3   1    6.30    0.90
  -8  -3   1    6.30    0.90
   7   3  -1  122.59    5.60
  -7  -3   1  133.59    5.40
  -7  -3   1  148.19    5.50
  -7  -3   1  135.19    5.60
  -7  -3   1  141.19    5.50
  -7  -3   1  147.09    5.70
  -7  -3   1  124.49    5.70
   6   3  -1  192.58    7.00
  -6  -3   1  186.78    7.20
  -6  -3   1  213.78    7.70
  -6  -3   1  194.58    7.40
  -6  -3   1  200.78    7.50
  -6  -3   1  190.18    7.30
  -6  -3   1  188.38    7.20
  -6  -3   1  191.48    7.20
  -5  -3   1    0.30    0.70
  -5  -3   1   -0.50    0.70
  -5  -3   1    1.00    0.60
  -5  -3   1    0.40    0.70
  -5  -3   1    0.10    0.70
  -5  -3   1    0.90    0.70
  -5  -3   1   -0.50    0.60
   4   3  -1  172.48    6.10
   4   3  -1  168.88    6.00
  -4  -3   1  179.68    6.40
   3   3  -1   48.90    2.10
   3   3  -1   51.49    2.20
   2   3  -1 1995.60   62.49
   2   3  -1 2117.69   62.19
   1   3  -1  961.40   29.20
   1   3  -1  956.00   29.80
   0   3  -1  160.98    6.00
  -1   3  -1   45.30    2.60
  -1   3  -1   46.50    2.00
  -2   3  -1    0.30    0.50
  -2   3  -1    0.90    0.60
  -2   3  -1    0.90    0.60
  -2   3  -1    1.10    0.50
  -3   3  -1  117.29    4.60
  -3   3  -1  126.19    4.70
  -3   3  -1  124.89    4.70
  -3   3  -1  116.19    4.70
  -4   3  -1    0.60    0.60
  -4   3  -1    0.80    0.60
  -4   3  -1    0.40    0.70
  -5   3  -1    0.50    0.50
  -5   3  -1    0.50    0.50
  -8  -2   1    5.10    0.90
  -8  -2   1    4.60    0.70
  -8  -2   1    3.40    0.60
  -7  -2   1    6.40    1.20
  -7  -2   1    5.30    1.10
  -7  -2   1    7.90    1.20
  -7  -2   1    4.90    1.20
  -7  -2   1    7.10    1.20
  -7  -2   1    6.50    1.10
  -6  -2   1   56.39    3.00
  -6  -2   1   64.49    3.40
  -6  -2   1   61.89    3.20
  -6  -2   1   60.49    3.40
  -6  -2   1   65.39    3.10
  -6  -2   1   55.79    3.00
  -5  -2   1   16.70    1.50
  -5  -2   1   14.50    1.50
  -5  -2   1   16.50    1.60
  -5  -2   1   18.20    1.50
  -5  -2   1   15.50    1.60
  -5  -2   1   15.20    1.30
  -5  -2   1   16.90    1.40
   4   2  -1   67.59    2.80
  -4  -2   1   63.79    3.00
  -4  -2   1   63.59    2.70
   3   2  -1   28.20    1.40
   3   2  -1   29.20    1.40
   2   2  -1  305.97    9.40
   2   2  -1  290.77    9.40
   1   2  -1 1873.71   58.59
   1   2  -1 1988.00   58.49
   0   2  -1  109.69    4.10
   0   2  -1  116.29    3.60
   0  -2   1  111.49    3.50
  -1   2  -1  746.53   23.50
  -2   2  -1  442.16   14.70
  -3   2  -1  117.59    4.30
  -3   2  -1  115.89    4.30
  -3   2  -1  119.49    4.30
  -4   2  -1   25.60    1.80
  -4   2  -1   25.60    1.60
  -4   2  -1   27.30    1.70
  -5   2  -1   19.60    1.40
  -7  -1   1   42.80    2.30
  -7  -1   1   41.50    2.30
  -7  -1   1   38.30    2.30
  -7  -1   1   40.70    2.60
  -6  -1   1   46.40    2.50
  -6  -1   1   35.50    2.40
  -6  -1   1   41.80    2.50
  -5  -1   1    0.10    0.60
  -5  -1   1    0.90    0.60
  -5  -1   1    1.30    0.70
  -5  -1   1    0.40    0.60
  -5  -1   1    1.40    0.90
  -5  -1   1   -0.30    0.70
   4   1  -1    6.80    0.90
  -4  -1   1    6.90    1.00
  -4  -1   1    6.70    0.90
   3   1  -1   49.00    2.10
   3   1  -1   48.20    1.90
   2   1  -1   72.39    2.50
   2   1  -1   71.49    2.60
   1   1  -1 1827.62   55.79
   1   1  -1 1845.62   56.39
   0   1  -1  463.75   14.30
   0   1  -1  488.25   14.70
  -1   1  -1  427.66   13.70
  -1   1  -1  450.95   13.30
   1  -1   1  428.86   13.30
  -2   1  -1 1061.09   31.50
   2  -1   1  970.80   30.70
  -3   1  -1  512.25   16.30
  -3   1  -1  531.05   17.00
  -4   1  -1   21.90    1.40
  -4   1  -1   19.50    1.30
  -6   0   1  139.29    5.40
  -6   0   1  135.49    5.60
  -6   0   1  148.19    5.50
  -5   0   1   30.40    1.90
  -5   0   1   27.80    2.00
  -5   0   1   26.10    1.80
  -5   0   1   27.70    1.90
   4   0  -1   33.00    1.80
  -4   0   1   33.20    2.00
   3   0  -1   38.80    1.70
  -3   0   1   38.00    1.90
   2   0  -1    9.80    0.70
  -2   0   1   10.00    0.80
   1   0  -1   66.19    2.30
  -1   0   1   70.89    2.40
   0   0  -1  289.17    9.10
   0   0  -1  299.37    9.10
   0   0   1  301.67    9.10
   0   0   1  304.57    9.10
  -1   0  -1   19.30    1.00
   1   0   1   20.00    0.80
   1   0   1   19.00    0.90
   1   0   1   19.70    0.80
  -2   0  -1   67.19    2.60
   2   0   1   69.69    2.40
   3   0   1   59.79    2.30
  -4   0  -1   92.09    3.50
  -5   0  -1  809.82   25.20
  -5   1   1  362.36   11.80
  -5   1   1  338.27   11.80
  -5   1   1  362.96   11.90
   4  -1  -1  322.57   11.30
  -4   1   1  332.87   11.00
   3  -1  -1    5.40    0.80
  -3   1   1    4.80    0.80
   2  -1  -1   54.79    2.30
  -2   1   1   54.89    2.30
   1  -1  -1   39.50    1.60
  -1   1   1   39.80    1.60
   0  -1  -1   40.20    1.60
   0  -1  -1   43.20    1.50
  -1  -1  -1  498.45   15.30
   1   1   1  514.25   15.40
   2   1   1   78.19    2.60
   2   1   1   83.79    2.80
   3   1   1    3.60    0.40
   3   1   1    4.20    0.60
  -4  -1  -1   12.60    1.10
  -4  -1  -1   14.70    1.20
   4   1   1   10.60    0.90
  -5  -1  -1  213.18    7.60
  -5  -1  -1  218.98    7.30
  -5  -1  -1  209.28    7.70
  -5  -1  -1  201.98    7.40
  -5  -1  -1  212.68    7.70
  -5  -1  -1  214.28    7.50
  -6  -1  -1   13.60    1.70
  -6  -1  -1   15.70    1.60
  -6  -1  -1   10.40    1.20
  -6  -1  -1   11.10    1.40
  -6  -1  -1   11.30    1.40
  -6  -1  -1   14.40    1.70
  -7  -1  -1    0.10    0.70
  -5   2   1  629.54   20.10
  -4   2   1   21.30    1.60
  -4   2   1   19.50    1.60
  -4   2   1   18.70    1.40
   3  -2  -1   78.39    3.40
  -3   2   1   74.69    3.30
  -2   2   1  102.69    3.90
  -1   2   1  467.05   14.10
  -1   2   1  432.46   14.40
   0   2   1   23.50    1.20
   0   2   1   24.80    1.40
  -1  -2  -1  120.79    4.00
   1   2   1  124.19    4.10
   1   2   1  127.49    4.10
   2   2   1   68.19    2.50
   3   2   1    5.70    0.70
  -4  -2  -1    0.70    0.60
  -4  -2  -1    0.40    0.50
   4   2   1    0.50    0.40
  -5  -2  -1  115.29    4.70
  -5  -2  -1  119.79    4.40
  -5  -2  -1  110.79    4.70
  -5  -2  -1  108.89    4.30
  -5  -2  -1  107.69    4.40
  -5  -2  -1  116.29    4.50
  -5  -2  -1  109.79    4.60
  -6  -2  -1   12.40    1.40
  -6  -2  -1   10.20    1.40
  -6  -2  -1    9.70    1.20
  -6  -2  -1    9.40    1.20
  -6  -2  -1   16.30    1.70
  -6  -2  -1   14.50    1.80
  -6  -2  -1   13.60    1.70
  -7  -2  -1   66.59    3.50
  -7  -2  -1   62.59    3.00
  -7  -2  -1   71.09    3.40
  -7  -2  -1   70.59    3.40
  -7  -2  -1   68.39    3.20
  -8  -2  -1   46.50    2.10
  -8  -2  -1   45.40    2.20
  -5   3   1   27.00    1.80
  -5   3   1   29.60    1.70
  -4   3   1    4.00    0.80
  -4   3   1    3.30    0.80
  -4   3   1    5.40    0.90
  -4   3   1    5.80    1.10
  -3   3   1   77.79    3.20
  -3   3   1   83.89    3.60
  -3   3   1   82.29    3.30
  -3   3   1   79.39    3.20
  -3   3   1   67.29    3.30
  -1   3   1    3.80    0.70
  -1   3   1    3.00    0.80
   0   3   1  196.28    6.40
   0   3   1  181.68    6.70
   1   3   1  392.26   12.40
   1   3   1  393.46   12.50
   2   3   1    5.10    0.50
   2   3   1    5.30    0.70
   3   3   1    1.30    0.50
  -4  -3  -1    5.30    0.80
  -4  -3  -1    7.20    1.00
   4   3   1    7.40    0.90
  -5  -3  -1    0.50    0.70
  -5  -3  -1    0.70    0.60
  -5  -3  -1    0.40    0.60
  -5  -3  -1    0.80    0.60
  -5  -3  -1    0.80    0.70
  -5  -3  -1    0.50    0.70
  -5  -3  -1   -0.30    0.60
  -6  -3  -1   30.60    2.40
  -6  -3  -1   32.40    2.20
  -6  -3  -1   33.40    2.10
  -6  -3  -1   30.10    2.00
  -6  -3  -1   27.60    2.00
  -6  -3  -1   31.50    2.30
  -6  -3  -1   29.20    2.20
  -7  -3  -1  156.98    6.70
  -7  -3  -1  177.78    6.50
  -7  -3  -1  178.78    6.60
  -7  -3  -1  166.78    6.50
  -7  -3  -1  173.48    6.30
  -7  -3  -1  166.68    6.70
  -7  -3  -1  170.98    6.40
  -8  -3  -1    2.30    0.70
  -8  -3  -1    3.30    0.80
  -8  -3  -1    5.10    0.90
  -5   4   1    4.00    0.60
  -4   4   1   98.49    4.10
  -4   4   1  106.19    4.40
  -4   4   1  117.29    4.20
  -3   4   1    2.40    0.80
  -3   4   1    1.70    0.70
  -3   4   1    1.60    0.70
  -3   4   1    2.70    0.90
  -3   4   1    1.70    0.80
  -2   4   1   65.59    3.20
  -2   4   1   62.19    2.90
  -2   4   1   69.59    3.00
  -2   4   1   66.89    2.90
  -2   4   1   66.79    3.10
  -1   4   1   74.99    3.20
  -1   4   1   77.89    3.20
  -1   4   1   76.69    3.40
  -1   4   1   78.59    3.20
   0   4   1   65.09    3.20
   0   4   1   58.09    2.70
   1   4   1  226.98    7.60
   1   4   1  215.98    7.80
   2   4   1  134.89    4.80
  -3  -4  -1    0.40    0.50
   3   4   1    1.00    0.60
  -4  -4  -1    4.90    0.90
  -4  -4  -1    4.60    1.00
   4   4   1    2.90    0.80
  -5  -4  -1   53.59    2.60
  -5  -4  -1   57.39    2.80
  -5  -4  -1   54.99    3.00
  -5  -4  -1   55.99    3.00
  -5  -4  -1   60.39    2.70
  -5  -4  -1   53.39    2.80
  -5  -4  -1   56.09    2.90
  -5  -4  -1   56.49    2.90
  -6  -4  -1   20.20    1.90
  -6  -4  -1   17.80    1.70
  -6  -4  -1   23.10    2.00
  -6  -4  -1   23.40    2.20
  -6  -4  -1   22.40    1.80
  -6  -4  -1   17.50    1.90
  -6  -4  -1   18.00    2.00
  -7  -4  -1   10.10    1.40
  -7  -4  -1    9.00    1.30
  -7  -4  -1    7.40    1.30
  -7  -4  -1   10.60    1.50
  -7  -4  -1   10.70    1.70
  -7  -4  -1   12.00    1.70
  -8  -4  -1   15.20    1.20
  -8  -4  -1   11.10    1.30
  -8  -4  -1   13.70    1.50
  -8  -4  -1   13.70    1.70
  -8  -4  -1   17.50    1.50
  -4   5   1   32.30    1.60
  -4   5   1   31.80    1.60
  -4   5   1   32.20    1.70
  -3   5   1    0.70    0.60
  -3   5   1    1.80    0.70
  -3   5   1    0.90    0.70
  -3   5   1    2.60    0.80
  -2   5   1   25.80    2.00
  -2   5   1   26.00    1.90
  -2   5   1   22.70    1.90
  -2   5   1   27.70    1.80
  -2   5   1   26.50    1.80
  -1   5   1   13.50    1.40
  -1   5   1   15.80    1.70
  -1   5   1   12.80    1.30
  -1   5   1   16.10    1.70
  -1   5   1   15.50    1.40
   0   5   1    2.30    0.80
   0   5   1    2.90    0.80
   0   5   1    2.60    0.80
   0   5   1    4.40    1.00
   0   5   1    4.40    0.80
  -1  -5  -1  190.08    6.90
   1   5   1  203.68    6.90
   1   5   1  194.98    6.90
   1   5   1  184.28    6.70
  -2  -5  -1 1726.83   52.39
   2   5   1 1669.03   52.49
   2   5   1 1735.13   53.19
  -3  -5  -1  193.68    6.70
  -3  -5  -1  188.28    6.60
   3   5   1  181.58    6.70
   3   5   1  193.68    6.50
  -4  -5  -1   99.09    4.00
  -4  -5  -1   97.79    4.00
  -4  -5  -1   96.69    4.10
  -4  -5  -1   92.99    4.20
   4   5   1  102.19    3.90
  -5  -5  -1   38.30    2.30
  -5  -5  -1   40.30    2.50
  -5  -5  -1   36.70    2.20
  -5  -5  -1   36.10    2.30
  -5  -5  -1   38.70    2.50
  -5  -5  -1   39.50    2.50
  -5  -5  -1   38.50    2.20
   5   5   1   39.40    2.20
  -6  -5  -1   40.10    2.70
  -6  -5  -1   46.60    2.90
  -6  -5  -1   45.00    2.60
  -6  -5  -1   42.50    2.50
  -6  -5  -1   45.70    2.60
  -6  -5  -1   44.30    2.70
  -6  -5  -1   44.00    2.90
   6   5   1   45.10    2.50
  -7  -5  -1  148.19    5.90
  -7  -5  -1  148.39    6.30
  -7  -5  -1  153.38    6.10
  -7  -5  -1  165.48    6.00
  -7  -5  -1  168.08    6.30
  -8  -5  -1    6.70    0.90
  -8  -5  -1    5.60    1.00
  -8  -5  -1    3.90    1.00
  -8  -5  -1    6.10    0.90
   8   5   1    7.80    1.00
  -3   6   1    0.20    0.40
  -3   6   1    0.30    0.40
  -3   6   1    0.40    0.40
   2  -6  -1    2.60    0.80
  -2   6   1    2.90    0.70
  -2   6   1    2.60    0.70
  -2   6   1    3.90    0.90
  -2   6   1    2.90    0.80
   1  -6  -1   35.30    2.40
  -1   6   1   40.00    2.20
  -1   6   1   39.00    2.20
  -1   6   1   40.80    2.50
  -1   6   1   38.80    2.30
   0  -6  -1    3.60    1.10
   0   6   1    2.20    0.90
   0   6   1    2.20    0.70
   0   6   1    4.10    1.00
   0   6   1    2.50    0.80
  -1  -6  -1   66.19    3.30
   1   6   1   65.99    3.10
   1   6   1   69.69    3.30
   1   6   1   64.29    2.90
  -2  -6  -1    7.30    1.20
  -2  -6  -1    5.50    1.10
  -2  -6  -1    4.90    1.00
   2   6   1    5.60    0.90
  -3  -6  -1   10.50    1.40
  -3  -6  -1    7.50    1.10
  -3  -6  -1    8.10    1.10
   3   6   1   10.80    1.20
   3   6   1   11.20    1.40
   3   6   1    7.70    1.00
  -4  -6  -1    0.50    0.80
  -4  -6  -1   -0.60    0.60
   4   6   1    0.10    0.60
   4   6   1    0.20    0.60
  -5  -6  -1  265.97    9.70
  -5  -6  -1  276.57   10.00
  -5  -6  -1  299.47    9.80
   5   6   1  282.17    9.90
   5   6   1  285.07    9.70
  -6  -6  -1  181.28    7.00
  -6  -6  -1  173.08    7.00
  -6  -6  -1  186.18    6.70
  -6  -6  -1  181.08    6.70
   6   6   1  182.88    6.90
   6   6   1  172.38    6.60
  -7  -6  -1    5.30    1.00
  -7  -6  -1    5.20    0.90
  -7  -6  -1    4.40    1.00
  -7  -6  -1    6.50    1.10
  -7  -6  -1    6.60    1.10
   7   6   1    6.00    1.00
   7   6   1    7.70    1.20
  -8  -6  -1    7.70    1.00
  -8  -6  -1    5.60    0.90
  -8  -6  -1    7.60    0.90
   8   6   1    9.30    1.00
   1  -7  -1   12.10    1.20
  -1   7   1   11.90    1.10
  -1   7   1   13.10    1.10
  -1   7   1    9.00    1.00
   0  -7  -1    3.60    1.00
   0   7   1    4.00    0.80
   0   7   1    2.70    0.80
  -1  -7  -1    4.40    1.10
  -1  -7  -1    5.80    1.10
   1   7   1    6.50    1.10
   1   7   1    6.50    0.90
  -2  -7  -1   -0.20    0.70
  -2  -7  -1   -0.20    0.80
   2   7   1    0.20    0.60
  -3  -7  -1   70.59    3.20
  -3  -7  -1   65.89    3.20
  -3  -7  -1   72.69    3.40
   3   7   1   64.79    3.30
   3   7   1   66.69    3.10
  -4  -7  -1   26.40    1.90
  -4  -7  -1   25.50    2.00
   4   7   1   24.40    2.00
  -5  -7  -1  241.98    8.30
  -5  -7  -1  224.28    8.30
   5   7   1  245.08    8.30
   5   7   1  232.28    8.50
  -6  -7  -1  160.18    6.00
  -6  -7  -1  160.58    5.90
   6   7   1  154.68    5.80
   6   7   1  160.98    6.10
  -7  -7  -1    4.10    0.90
  -7  -7  -1    5.10    0.90
   7   7   1    6.50    1.00
   7   7   1    5.50    0.90
   0  -8  -1    6.00    1.10
  -1  -8  -1    5.20    0.90
  -1  -8  -1    5.80    0.90
   1   8   1    5.10    0.80
  -2  -8  -1   15.50    1.40
  -2  -8  -1   14.30    1.40
   2   8   1   16.10    1.30
  -3  -8  -1   53.29    2.70
  -3  -8  -1   49.60    2.40
   3   8   1   53.69    2.40
  -4  -8  -1   93.99    3.70
  -4  -8  -1   90.69    3.90
   4   8   1   92.89    3.90
  -5  -8  -1   -0.40    0.50
  -5  -8  -1    0.90    0.60
   5   8   1    1.30    0.70
  -6  -8  -1    4.50    0.80
  -6  -8  -1    8.10    0.90
   6   8   1    5.20    0.80
  -3  -8   2    8.10    1.40
   6   7  -2    5.10    0.90
   6   7  -2    2.90    0.70
  -6  -7   2    4.40    0.80
   5   7  -2    0.20    0.60
   5   7  -2    1.20    0.70
  -5  -7   2    0.40    0.50
  -5  -7   2    0.50    0.70
   4   7  -2  106.99    4.40
   4   7  -2  106.69    4.20
  -4  -7   2   96.99    4.20
  -4  -7   2  105.49    4.30
   3   7  -2   43.30    2.30
   3   7  -2   45.10    2.50
  -3  -7   2   48.40    2.60
  -3  -7   2   49.50    2.50
   2   7  -2   39.00    2.30
  -2  -7   2   37.00    2.90
  -2  -7   2   38.80    2.30
   1   7  -2    1.60    0.60
   1   7  -2    1.50    0.60
  -1  -7   2    1.40    0.80
   0   7  -2   17.00    1.20
   0  -7   2   16.60    1.30
   7   6  -2   25.10    1.80
   7   6  -2   25.40    1.70
  -7  -6   2   24.00    1.70
  -7  -6   2   26.60    1.70
   6   6  -2   42.50    2.60
   6   6  -2   39.90    2.30
   6   6  -2   44.50    2.50
  -6  -6   2   37.90    2.60
  -6  -6   2   40.40    2.30
  -6  -6   2   40.10    2.40
   5   6  -2   11.10    1.30
   5   6  -2   11.40    1.50
   5   6  -2   14.60    1.70
  -5  -6   2   14.00    1.60
  -5  -6   2   10.20    1.20
   4   6  -2   58.49    3.10
   4   6  -2   55.69    2.90
   4   6  -2   56.29    2.90
  -4  -6   2   51.89    2.90
  -4  -6   2   57.19    2.90
   3   6  -2   75.19    3.70
   3   6  -2   74.89    3.40
  -3  -6   2   72.49    3.50
  -3  -6   2   74.69    3.50
   2   6  -2   76.79    3.70
   2   6  -2   83.09    3.50
  -2  -6   2   77.59    3.60
  -2  -6   2   76.69    3.70
   1   6  -2   27.50    2.00
   1   6  -2   30.90    2.20
   1   6  -2   30.90    1.80
  -1  -6   2   32.60    2.30
   0   6  -2  227.18    7.60
   0   6  -2  202.58    7.40
   0   6  -2  206.68    7.30
   0   6  -2  219.68    7.80
   0  -6   2  226.58    7.90
  -1   6  -2    1.80    0.60
  -1   6  -2    2.00    0.70
  -1   6  -2    1.40    0.60
   1  -6   2    1.20    0.80
  -2   6  -2   13.80    1.00
  -2   6  -2   13.10    0.90
  -2   6  -2   12.00    1.00
   8   5  -2   22.90    1.60
  -8  -5   2   23.60    1.50
  -8  -5   2   23.30    1.60
  -8  -5   2   22.30    1.40
   7   5  -2   13.60    1.40
   7   5  -2   13.10    1.30
   7   5  -2   15.30    1.70
  -7  -5   2   11.00    1.40
  -7  -5   2   12.20    1.40
  -7  -5   2   15.80    1.60
  -7  -5   2   12.30    1.30
   6   5  -2  102.69    4.50
   6   5  -2   93.49    4.20
   6   5  -2   95.79    4.10
  -6  -5   2  102.09    4.30
  -6  -5   2   86.19    4.30
  -6  -5   2  101.19    4.20
  -6  -5   2   89.79    4.00
   5   5  -2  267.07    8.90
   5   5  -2  253.67    9.10
   5   5  -2  247.98    9.00
  -5  -5   2  264.27    9.90
  -5  -5   2  240.88    8.80
  -5  -5   2  251.17    8.80
  -5  -5   2  234.48    8.80
   4   5  -2  192.18    7.00
   4   5  -2  180.88    6.70
   4   5  -2  178.08    6.80
  -4  -5   2  184.08    6.70
  -4  -5   2  176.98    6.70
   3   5  -2   27.90    1.90
   3   5  -2   27.90    2.00
   3   5  -2   24.40    1.80
  -3  -5   2   28.20    1.90
  -3  -5   2   28.70    1.90
   2   5  -2   76.49    3.60
   2   5  -2   77.39    3.40
  -2  -5   2   76.59    3.50
  -2  -5   2   82.29    3.50
   1   5  -2  435.56   13.80
   1   5  -2  451.25   14.20
   1   5  -2  429.96   13.90
  -1  -5   2  393.46   14.00
  -1  -5   2  416.86   13.90
   0   5  -2  708.93   22.50
   0   5  -2  710.63   22.50
   0   5  -2  698.93   22.30
   0   5  -2  715.53   22.80
   0   5  -2  708.33   22.40
   0  -5   2  732.13   22.90
  -1   5  -2  298.47   10.20
  -1   5  -2  312.87   10.30
  -1   5  -2  307.97   10.40
  -1   5  -2  311.17   10.60
  -2   5  -2  105.29    4.20
  -2   5  -2  110.09    4.20
  -2   5  -2  113.19    4.30
   2  -5   2  102.09    4.40
  -3   5  -2    0.00    0.40
  -3   5  -2    0.00    0.40
  -3   5  -2    0.30    0.40
   8   4  -2    0.30    0.60
  -8  -4   2    0.30    0.50
  -8  -4   2    0.20    0.70
  -8  -4   2   -0.10    0.50
  -8  -4   2    0.10    0.50
   7   4  -2   66.99    3.10
  -7  -4   2   69.59    3.30
  -7  -4   2   71.99    3.40
  -7  -4   2   73.49    3.70
  -7  -4   2   65.09    3.50
  -7  -4   2   66.89    3.30
   6   4  -2    1.40    0.80
   6   4  -2    0.90    0.70
  -6  -4   2    1.30    1.00
  -6  -4   2    1.30    0.80
  -6  -4   2    0.70    0.80
  -6  -4   2    0.60    0.80
  -6  -4   2    1.80    1.00
  -6  -4   2   -0.10    0.80
  -6  -4   2    0.50    0.80
   5   4  -2   23.70    1.60
   5   4  -2   23.00    1.70
  -5  -4   2   25.00    2.20
  -5  -4   2   22.50    1.70
  -5  -4   2   22.80    1.90
  -5  -4   2   23.00    1.70
  -5  -4   2   22.00    1.80
  -5  -4   2   20.10    1.80
   4   4  -2   95.09    3.90
   4   4  -2   95.19    4.10
  -4  -4   2  101.79    4.10
  -4  -4   2   98.29    4.20
  -4  -4   2  101.49    4.00
  -4  -4   2  102.69    4.10
   3   4  -2  330.97   11.00
   3   4  -2  335.37   10.90
   3   4  -2  324.77   11.10
  -3  -4   2  334.17   10.90
  -3  -4   2  334.07   11.00
   2   4  -2  156.38    6.80
   2   4  -2  159.48    6.20
   2   4  -2  163.28    5.60
  -2  -4   2  146.99    6.80
   1   4  -2    8.30    1.00
   1   4  -2   10.10    1.20
  -1  -4   2   11.00    1.30
   0   4  -2   23.40    1.50
   0   4  -2   23.30    1.70
   0   4  -2   19.70    1.30
   0   4  -2   23.50    1.50
   0   4  -2   20.50    1.40
  -1   4  -2   85.69    3.60
  -1   4  -2   80.69    3.50
  -1   4  -2   84.79    3.50
  -1   4  -2   87.19    3.50
  -1   4  -2   84.49    3.80
  -1   4  -2   81.29    3.70
  -2   4  -2  108.49    4.40
  -2   4  -2  108.89    4.30
  -2   4  -2  103.19    4.40
  -2   4  -2  113.19    4.30
  -2   4  -2  104.09    4.40
  -3   4  -2   72.99    3.10
  -3   4  -2   66.69    3.00
  -3   4  -2   65.99    3.20
  -4   4  -2    0.70    0.50
  -4   4  -2    0.50    0.50
  -4   4  -2    0.20    0.40
  -8  -3   2   41.20    2.30
  -8  -3   2   41.10    2.10
  -8  -3   2   43.20    2.20
  -8  -3   2   43.10    2.10
  -7  -3   2   15.70    1.70
  -7  -3   2   22.20    1.90
  -7  -3   2   20.00    1.90
  -7  -3   2   20.20    1.80
  -7  -3   2   23.20    2.10
  -7  -3   2   23.50    2.20
   6   3  -2    4.60    0.90
  -6  -3   2    6.00    1.20
  -6  -3   2    4.30    1.00
  -6  -3   2    6.80    1.40
  -6  -3   2    8.10    1.30
  -6  -3   2    3.70    1.00
  -6  -3   2    5.40    1.30
  -6  -3   2    7.20    1.40
   5   3  -2   18.90    1.50
   5   3  -2   19.70    1.40
  -5  -3   2   19.00    1.80
  -5  -3   2   17.60    1.60
  -5  -3   2   19.80    1.60
  -5  -3   2   19.60    1.60
  -5  -3   2   17.60    1.50
  -5  -3   2   21.30    1.90
  -5  -3   2   20.50    1.80
   4   3  -2   87.29    3.40
   4   3  -2   83.69    3.50
  -4  -3   2   79.79    5.00
  -4  -3   2   84.89    3.60
   3   3  -2  284.67    9.00
   3   3  -2  263.07   10.00
   3   3  -2  269.67    8.90
   2   3  -2  161.58    5.80
   2   3  -2  153.18    5.40
   2   3  -2  167.28    5.70
   1   3  -2  545.25   17.10
   1   3  -2  509.65   16.50
   0   3  -2    0.90    0.50
   0   3  -2    0.70    0.60
  -1   3  -2    8.90    1.00
  -2   3  -2   32.70    2.10
  -2   3  -2   35.40    1.90
  -2   3  -2   35.30    1.90
  -2   3  -2   35.00    2.00
  -2   3  -2   35.50    1.90
  -2   3  -2   34.50    1.90
  -3   3  -2  135.89    5.00
  -3   3  -2  127.49    5.20
  -3   3  -2  135.39    5.00
  -3   3  -2  126.69    5.00
  -4   3  -2  274.67    9.00
  -4   3  -2  262.07    9.00
  -4   3  -2  263.57    9.00
  -5   3  -2   12.20    1.00
  -5   3  -2   10.00    1.00
  -8  -2   2   13.50    1.20
  -8  -2   2   14.50    1.20
  -8  -2   2   12.90    1.20
  -7  -2   2    2.00    1.00
  -7  -2   2    1.30    0.80
  -7  -2   2    2.20    0.80
  -7  -2   2    1.50    0.80
  -7  -2   2    2.20    0.90
  -6  -2   2   80.19    3.80
  -6  -2   2   72.89    3.60
  -6  -2   2   80.89    3.70
  -6  -2   2   76.89    4.00
  -6  -2   2   78.09    3.60
  -6  -2   2   75.29    3.70
  -6  -2   2   74.59    3.60
   5   2  -2   16.00    1.20
  -5  -2   2   16.80    1.80
  -5  -2   2   15.80    1.60
  -5  -2   2   19.00    1.70
  -5  -2   2   13.70    1.60
  -5  -2   2   18.70    1.80
  -5  -2   2   15.60    1.80
  -5  -2   2   12.50    1.40
   4   2  -2   36.80    1.90
   4   2  -2   35.30    1.70
  -4  -2   2   34.90    2.10
   3   2  -2    0.10    0.40
   3   2  -2    0.50    0.40
   2   2  -2    4.60    0.50
   2   2  -2    5.10    0.70
   1   2  -2   48.00    2.20
   1   2  -2   47.10    1.70
   0   2  -2   34.10    1.90
  -1   2  -2   71.19    3.30
  -2   2  -2   50.09    2.20
  -2   2  -2   43.60    2.60
  -3   2  -2    0.20    0.50
  -3   2  -2    0.50    0.50
  -3   2  -2    0.40    0.50
  -3   2  -2    0.60    0.60
  -3   2  -2    0.20    0.50
  -4   2  -2   29.90    1.80
  -4   2  -2   31.90    2.60
  -4   2  -2   33.40    1.90
  -4   2  -2   29.70    1.90
  -5   2  -2   56.79    2.60
  -5   2  -2   59.09    2.70
  -7  -1   2   40.50    2.40
  -7  -1   2   41.80    2.30
  -7  -1   2   40.70    2.50
  -7  -1   2   33.80    2.20
  -7  -1   2   40.60    2.30
  -6  -1   2    4.10    1.20
  -6  -1   2    5.10    1.20
  -6  -1   2    4.10    1.00
  -6  -1   2    3.00    0.90
  -6  -1   2    4.50    1.10
  -6  -1   2    3.20    0.90
  -5  -1   2   62.89    2.90
  -5  -1   2   62.09    3.30
  -5  -1   2   58.89    3.10
  -5  -1   2   61.89    3.00
  -5  -1   2   58.89    3.00
  -5  -1   2   67.49    3.90
  -5  -1   2   58.69    2.90
   4   1  -2  334.47   10.60
  -4  -1   2  306.07   10.80
   3   1  -2   52.29    2.20
   3   1  -2   52.89    2.20
   2   1  -2   91.19    3.30
   1   1  -2  393.46   12.40
   0   1  -2    3.80    0.60
  -1   1  -2   59.09    2.50
  -2   1  -2   58.99    2.80
  -3   1  -2  100.69    3.70
  -3   1  -2   88.89    4.10
  -4   1  -2   16.20    1.40
  -4   1  -2   16.30    1.80
  -4   1  -2   16.60    1.50
  -4   1  -2   16.00    1.30
  -4   1  -2   13.90    1.30
  -5   1  -2   50.19    2.50
  -5   1  -2   54.39    2.50
  -7   0   2   18.50    2.40
  -7   0   2   19.30    1.50
  -6   0   2    2.00    0.90
  -6   0   2    1.20    0.90
  -6   0   2    2.70    0.90
  -6   0   2    2.30    0.90
  -6   0   2    2.30    0.80
  -5   0   2   38.90    2.50
  -5   0   2   42.20    2.30
  -5   0   2   45.40    2.40
  -5   0   2   41.10    2.40
  -5   0   2   38.80    2.80
  -5   0   2   43.10    2.40
   4   0  -2  241.78    8.40
  -4   0   2  255.47    8.70
   3   0  -2  951.60   29.10
  -3   0   2  940.01   29.40
   2   0  -2 2182.98   66.09
  -2   0   2 2107.99   64.99
   1   0  -2  267.17    8.40
  -1   0   2  267.17    8.50
   0   0  -2    0.60    0.40
   0   0  -2    0.30    0.20
   0   0   2    0.40    0.30
  -1   0  -2 1182.98   37.00
  -1   0  -2 1227.48   36.70
   1   0   2 1243.48   37.00
  -2   0  -2   18.00    1.20
   2   0   2   17.20    0.80
  -3   0  -2   28.50    1.70
  -3   0  -2   27.30    1.50
  -4   0  -2    0.70    0.50
  -4   0  -2    1.60    0.60
  -5   0  -2   42.90    2.50
  -5   0  -2   44.20    2.40
  -5   0  -2   46.80    2.30
  -5   0  -2   44.20    2.30
  -6   1   2    6.70    1.10
  -6   1   2    7.60    1.10
  -6   1   2    3.90    0.90
  -5   1   2    6.90    1.10
  -5   1   2   10.00    1.30
  -5   1   2   12.90    1.60
  -5   1   2   14.10    1.60
  -4   1   2    5.70    1.10
  -4   1   2    5.50    0.90
  -4   1   2    4.90    0.90
  -4   1   2    5.00    0.90
   3  -1  -2  103.49    4.00
  -3   1   2  101.79    4.10
  -3   1   2  101.39    4.00
   2  -1  -2  206.68    7.00
  -2   1   2  216.78    7.20
   1  -1  -2 4872.61  141.69
  -1   1   2 4424.06  141.89
   0  -1  -2 3506.75  111.59
   0   1   2 3828.52  111.79
  -1  -1  -2 1304.67   39.80
   1   1   2 1255.07   39.30
   1   1   2 1342.07   39.70
  -2  -1  -2   46.80    1.70
   2   1   2   44.50    1.70
   3   1   2    3.30    0.50
  -4  -1  -2  195.38    7.00
  -4  -1  -2  201.08    6.80
  -5  -1  -2  225.48    7.60
  -5  -1  -2  212.08    7.90
  -5  -1  -2  217.88    7.80
  -5  -1  -2  204.08    7.60
  -5  -1  -2  229.08    8.00
  -5  -1  -2  226.58    8.00
  -6  -1  -2  217.58    7.80
  -6  -1  -2  206.88    7.60
  -6  -1  -2  214.48    7.90
  -6  -1  -2  210.08    7.90
  -6  -1  -2  224.08    7.60
  -7  -1  -2    8.40    1.60
  -5   2   2  130.69    5.20
  -5   2   2  135.49    5.40
  -5   2   2  141.19    5.40
  -4   2   2   53.69    2.80
  -4   2   2   62.19    3.00
  -4   2   2   57.19    2.70
  -4   2   2   61.09    3.00
   3  -2  -2    2.50    0.70
  -3   2   2    2.40    0.80
  -3   2   2    3.00    0.80
   2  -2  -2  101.09    4.00
  -2   2   2  101.69    4.00
   1  -2  -2    1.50    0.40
  -1   2   2    1.50    0.50
   0  -2  -2 9999.00  299.67
   0   2   2 9802.82  299.97
  -1  -2  -2 7395.16  233.28
   1   2   2 7284.57  222.58
   2   2   2  610.04   18.80
   3   2   2  418.76   13.20
  -4  -2  -2   40.10    2.00
  -4  -2  -2   38.50    2.20
   4   2   2   40.00    1.90
  -5  -2  -2   15.70    1.60
  -5  -2  -2   19.60    1.90
  -5  -2  -2   12.10    1.30
  -5  -2  -2   13.20    1.30
  -5  -2  -2   12.90    1.40
  -5  -2  -2   15.10    1.60
  -6  -2  -2    1.60    0.90
  -6  -2  -2    0.50    0.90
  -6  -2  -2    0.10    0.70
  -6  -2  -2    0.30    0.80
  -6  -2  -2    1.10    0.70
  -6  -2  -2    0.50    0.60
  -7  -2  -2    2.40    0.90
  -7  -2  -2    1.90    0.80
  -7  -2  -2    2.70    0.80
  -7  -2  -2    1.40    0.70
  -7  -2  -2    3.00    0.80
  -5   3   2    0.40    0.60
  -5   3   2   -0.40    0.50
  -5   3   2    0.20    0.60
  -4   3   2   28.80    2.10
  -4   3   2   29.30    1.80
  -4   3   2   28.10    2.00
  -4   3   2   28.20    1.80
  -4   3   2   33.80    2.50
  -3   3   2    4.80    1.10
  -3   3   2    1.80    0.70
  -3   3   2    5.00    0.90
  -3   3   2    4.00    0.80
  -3   3   2    3.60    0.90
   2  -3  -2    0.10    0.40
  -2   3   2    0.50    0.50
   1  -3  -2    1.80    0.60
  -1   3   2    1.70    0.60
   0  -3  -2   57.19    2.40
   0   3   2   63.59    2.60
  -1  -3  -2  656.63   20.10
   1   3   2  653.23   20.40
   2   3   2    8.10    0.90
  -3  -3  -2  174.58    7.30
   3   3   2  175.48    6.00
  -4  -3  -2  480.65   15.60
  -4  -3  -2  486.45   15.30
   4   3   2  473.55   15.40
  -5  -3  -2    3.50    1.00
  -5  -3  -2    2.80    0.80
  -5  -3  -2    5.20    1.10
  -5  -3  -2    5.70    1.00
  -5  -3  -2    4.20    1.00
  -5  -3  -2    4.50    1.00
  -5  -3  -2    3.80    0.80
  -6  -3  -2   23.10    2.20
  -6  -3  -2   21.00    2.20
  -6  -3  -2   23.30    2.10
  -6  -3  -2   14.10    1.50
  -6  -3  -2   19.50    1.60
  -6  -3  -2   19.80    1.80
  -6  -3  -2   24.60    2.10
  -7  -3  -2   31.10    2.10
  -7  -3  -2   32.90    2.40
  -7  -3  -2   31.20    2.30
  -7  -3  -2   31.00    2.20
  -7  -3  -2   33.00    2.30
  -7  -3  -2   28.20    2.00
  -8  -3  -2    3.60    0.80
  -8  -3  -2    3.80    0.80
  -8  -3  -2    4.40    0.70
  -8  -3  -2    4.50    0.80
  -5   4   2   15.40    1.10
  -5   4   2   13.90    1.10
  -4   4   2    1.20    0.70
  -4   4   2    0.60    0.60
  -4   4   2    1.20    0.60
  -4   4   2    1.50    0.70
  -3   4   2    0.30    0.70
  -3   4   2    0.90    0.60
  -3   4   2    0.70    0.60
  -3   4   2    0.20    0.80
  -2   4   2    0.70    0.60
  -2   4   2    1.20    0.70
  -2   4   2    0.30    0.60
  -2   4   2    0.80    0.80
  -2   4   2    0.30    0.70
  -2   4   2    0.90    0.60
  -1   4   2    3.50    0.80
  -1   4   2    2.80    0.90
  -1   4   2    2.70    0.60
  -1   4   2    3.20    0.70
  -1   4   2    4.50    0.90
   0  -4  -2   97.59    3.90
   0   4   2   99.19    4.00
   2   4   2   66.49    2.90
  -3  -4  -2  391.86   12.50
  -3  -4  -2  384.16   12.30
   3   4   2  372.56   12.40
  -4  -4  -2   96.29    3.80
  -4  -4  -2   90.89    4.00
  -5  -4  -2    0.70    0.80
  -5  -4  -2    0.20    0.70
  -5  -4  -2    0.00    0.60
  -5  -4  -2    1.20    0.70
  -5  -4  -2    0.50    0.60
  -5  -4  -2    0.30    0.80
  -5  -4  -2    0.50    0.60
  -6  -4  -2    3.70    1.00
  -6  -4  -2    3.80    1.10
  -6  -4  -2    4.00    1.20
  -6  -4  -2    6.10    1.30
  -6  -4  -2    2.90    1.00
  -6  -4  -2    6.00    1.10
  -6  -4  -2    5.20    1.10
  -7  -4  -2    1.80    0.90
  -7  -4  -2    1.70    0.80
  -7  -4  -2    0.50    0.90
  -7  -4  -2    2.80    0.80
  -7  -4  -2    1.90    0.90
  -7  -4  -2    0.80    0.90
  -7  -4  -2    0.90    0.80
  -8  -4  -2    2.80    0.80
  -8  -4  -2    2.60    0.70
  -8  -4  -2    2.30    0.70
  -8  -4  -2    3.30    0.80
  -4   5   2   11.60    1.20
  -4   5   2   14.70    1.10
  -4   5   2   13.50    1.10
  -3   5   2   40.00    2.40
  -3   5   2   36.50    2.30
  -3   5   2   44.10    2.40
  -3   5   2   37.90    2.20
  -3   5   2   35.10    2.10
  -2   5   2   23.80    2.00
  -2   5   2   26.00    1.90
  -2   5   2   22.90    1.90
  -2   5   2   23.40    1.70
  -2   5   2   24.60    1.80
   1  -5  -2   20.60    1.80
  -1   5   2   23.70    1.90
  -1   5   2   25.10    1.90
  -1   5   2   25.40    1.70
  -1   5   2   24.40    1.80
  -1   5   2   23.00    1.70
   0  -5  -2   62.19    3.00
   0   5   2   64.69    3.10
   0   5   2   66.49    2.80
   0   5   2   61.39    2.80
   0   5   2   65.59    3.10
   0   5   2   66.99    2.90
  -1  -5  -2    5.90    1.00
   1   5   2    4.70    1.30
   1   5   2    6.10    0.90
   1   5   2    5.50    0.90
   1   5   2    4.90    1.20
  -2  -5  -2  242.98    8.20
  -2  -5  -2  230.58    9.30
   2   5   2  230.58    9.10
   2   5   2  237.78    8.00
  -3  -5  -2   28.10    1.80
  -3  -5  -2   30.10    1.70
  -3  -5  -2   29.40    1.90
   3   5   2   28.20    1.60
   3   5   2   29.80    1.60
  -4  -5  -2   60.19    2.80
  -4  -5  -2   60.69    3.10
  -4  -5  -2   63.49    3.10
  -4  -5  -2   62.49    2.90
   4   5   2   60.59    2.70
  -5  -5  -2   31.50    2.10
  -5  -5  -2   29.40    2.20
  -5  -5  -2   29.10    2.10
  -5  -5  -2   28.30    2.00
  -5  -5  -2   26.50    2.20
  -5  -5  -2   27.40    2.00
  -6  -5  -2    0.00    0.70
  -6  -5  -2   -0.80    0.60
  -6  -5  -2    0.50    0.70
  -6  -5  -2    1.10    0.90
  -6  -5  -2    0.60    0.80
  -6  -5  -2    0.00    0.70
  -7  -5  -2   62.59    3.00
  -7  -5  -2   60.49    2.90
  -7  -5  -2   55.19    3.30
  -7  -5  -2   59.19    3.20
  -7  -5  -2   55.49    3.20
   7   5   2   56.49    2.90
  -8  -5  -2   75.79    3.20
  -8  -5  -2   78.39    3.30
  -8  -5  -2   78.89    3.40
  -8  -5  -2   80.39    3.40
   3  -6  -2   76.79    3.20
  -3   6   2   77.89    3.00
  -3   6   2   79.49    3.20
  -3   6   2   73.59    3.00
  -2   6   2   70.19    3.40
  -2   6   2   69.19    3.10
  -2   6   2   69.09    3.10
  -2   6   2   72.69    3.10
  -1   6   2    6.60    1.10
  -1   6   2    6.40    1.20
  -1   6   2    7.40    1.10
  -1   6   2    8.00    1.10
   0  -6  -2   16.40    1.70
   0   6   2   16.50    1.70
   0   6   2   13.60    1.40
   0   6   2   18.00    1.60
   0   6   2   19.50    1.60
  -1  -6  -2  109.59    4.60
  -1  -6  -2  114.59    4.70
   1   6   2  114.79    4.40
   1   6   2  108.39    4.50
   1   6   2  108.99    4.50
  -2  -6  -2  187.68    6.80
  -2  -6  -2  176.18    6.60
   2   6   2  180.28    6.60
  -3  -6  -2  110.29    4.40
  -3  -6  -2  102.39    4.30
   3   6   2  101.89    4.10
   3   6   2  102.69    4.30
  -4  -6  -2    2.10    0.80
  -4  -6  -2    1.70    0.80
   4   6   2    1.30    0.80
   4   6   2    2.00    0.70
   4   6   2    1.50    0.70
  -5  -6  -2   10.40    1.50
  -5  -6  -2    7.00    1.10
  -5  -6  -2    9.30    1.30
   5   6   2    9.90    1.20
  -6  -6  -2    9.50    1.40
  -6  -6  -2    7.10    1.30
  -6  -6  -2   10.20    1.40
  -6  -6  -2    9.00    1.20
   6   6   2   10.80    1.30
  -7  -6  -2   16.70    1.60
  -7  -6  -2   15.40    1.50
  -7  -6  -2   18.70    1.80
  -7  -6  -2   14.70    1.60
  -7  -6  -2   13.70    1.40
   7   6   2   21.20    1.90
   7   6   2   19.10    1.50
  -8  -6  -2    9.40    1.00
  -8  -6  -2   11.30    1.20
  -8  -6  -2   15.40    1.10
  -8  -6  -2   10.90    1.50
   8   6   2   11.50    1.10
  -2   7   2    4.80    0.60
   1  -7  -2   60.09    2.90
  -1   7   2   58.39    2.60
  -1   7   2   56.39    2.70
  -1   7   2   60.69    2.60
   0  -7  -2  124.29    5.00
   0   7   2  118.59    4.60
   0   7   2  122.29    4.80
  -1  -7  -2   41.40    2.70
   1   7   2   47.60    2.60
   1   7   2   41.50    2.20
  -2  -7  -2    0.30    0.70
  -2  -7  -2    0.90    0.80
  -2  -7  -2    2.70    1.00
   2   7   2    2.40    0.80
  -3  -7  -2   82.59    3.70
  -3  -7  -2   78.99    3.70
   3   7   2   81.39    3.60
  -4  -7  -2   40.80    2.40
  -4  -7  -2   38.30    2.30
   4   7   2   37.40    2.20
   4   7   2   40.80    2.40
  -5  -7  -2   -0.40    0.70
  -5  -7  -2    1.20    0.70
   5   7   2    0.70    0.60
   5   7   2    1.40    0.90
  -6  -7  -2   11.50    1.30
  -6  -7  -2   14.40    1.50
   6   7   2   13.30    1.30
   6   7   2    9.70    1.30
  -7  -7  -2    4.60    0.80
   7   7   2    4.90    0.90
   0  -8  -2  236.78    7.80
   0  -8  -2  227.58    7.70
   0   8   2  227.08    7.60
  -1  -8  -2   46.50    2.30
  -1  -8  -2   45.30    2.40
   1   8   2   42.60    2.20
  -2  -8  -2    9.00    1.10
  -2  -8  -2   10.40    1.30
   2   8   2    8.30    1.10
  -3  -8  -2    1.10    0.70
  -3  -8  -2    1.50    0.80
   3   8   2    1.40    0.70
  -4  -8  -2   58.59    2.90
  -4  -8  -2   65.89    2.90
   4   8   2   62.49    3.00
  -5  -8  -2   88.39    3.70
  -5  -8  -2   88.99    3.70
   5   8   2   91.49    3.70
  -6  -8  -2    2.60    0.70
  -6  -8  -2    4.30    0.70
   6   8   2    2.50    0.70
  -6  -7   3   29.40    1.70
   5   7  -3    1.10    0.60
  -5  -7   3    0.50    0.50
  -5  -7   3    0.20    0.60
   4   7  -3    0.40    0.60
  -4  -7   3   -0.40    0.50
  -4  -7   3    0.40    0.60
   3   7  -3    3.30    0.80
  -3  -7   3    3.90    0.90
   2   7  -3    0.80    0.60
  -2  -7   3    0.20    0.60
  -1  -7   3   10.00    1.00
   7   6  -3    0.10    0.60
  -7  -6   3    0.40    0.50
   6   6  -3    9.30    1.30
   6   6  -3   11.80    1.30
   6   6  -3    9.60    1.20
  -6  -6   3    9.80    1.10
  -6  -6   3   11.90    1.40
   5   6  -3   11.10    1.40
   5   6  -3    8.60    1.20
   5   6  -3    8.30    1.30
  -5  -6   3    7.00    1.10
  -5  -6   3    9.40    1.20
   4   6  -3    5.90    1.10
   4   6  -3    5.30    1.00
   4   6  -3    9.50    1.40
  -4  -6   3    6.70    1.10
  -4  -6   3    8.80    1.30
   3   6  -3   29.10    2.10
   3   6  -3   23.80    2.10
   3   6  -3   25.20    1.90
  -3  -6   3   27.50    1.90
  -3  -6   3   29.80    2.10
   2   6  -3    1.00    0.80
   2   6  -3    0.30    0.60
  -2  -6   3    0.40    0.80
   1   6  -3   85.09    3.90
   1   6  -3   85.29    3.70
  -1  -6   3   99.09    4.00
   0   6  -3   13.20    1.20
   0   6  -3   14.20    1.40
   0   6  -3   12.00    1.20
   0  -6   3   11.00    1.30
  -1   6  -3   18.80    1.20
  -1   6  -3   20.00    1.20
  -1   6  -3   20.50    1.30
   1  -6   3   16.70    1.40
   7   5  -3    3.30    0.90
  -7  -5   3    2.50    0.80
  -7  -5   3    2.00    0.70
   6   5  -3    0.30    0.60
   6   5  -3    0.70    0.70
   6   5  -3    1.00    0.90
  -6  -5   3    0.30    0.70
  -6  -5   3    1.20    0.80
  -6  -5   3    0.60    0.60
   5   5  -3   24.70    2.20
   5   5  -3   27.80    2.00
   5   5  -3   27.00    2.00
  -5  -5   3   27.90    2.00
  -5  -5   3   28.10    2.10
   4   5  -3  129.79    5.30
   4   5  -3  128.59    5.40
   4   5  -3  134.09    5.20
  -4  -5   3  129.69    5.20
  -4  -5   3  126.29    5.20
   3   5  -3   22.40    1.90
   3   5  -3   17.00    1.80
   3   5  -3   21.30    1.90
  -3  -5   3   18.00    1.60
  -3  -5   3   19.90    1.60
   2   5  -3    2.20    0.90
   2   5  -3    3.50    0.90
   2   5  -3    2.10    0.80
  -2  -5   3    3.20    1.00
   1   5  -3   15.70    1.40
   1   5  -3   19.20    1.70
   1   5  -3   13.90    1.50
  -1  -5   3   21.80    2.00
   0   5  -3   55.69    2.50
   0   5  -3   59.99    2.70
   0   5  -3   59.19    2.90
   0   5  -3   58.79    3.10
   0   5  -3   51.69    2.60
   0  -5   3   55.89    3.00
  -1   5  -3   37.00    2.10
  -1   5  -3   37.80    2.10
  -1   5  -3   37.00    1.90
  -1   5  -3   39.00    2.30
   1  -5   3   31.00    2.20
  -2   5  -3    1.80    0.60
  -2   5  -3    1.50    0.60
  -2   5  -3    2.80    0.70
  -3   5  -3   67.99    2.80
  -3   5  -3   69.29    2.80
  -3   5  -3   77.89    2.90
  -8  -4   3    2.30    0.60
  -8  -4   3    4.00    0.70
  -8  -4   3    4.80    0.80
   7   4  -3    5.40    1.10
  -7  -4   3    2.70    0.90
  -7  -4   3    3.80    0.90
  -7  -4   3    4.30    1.10
  -7  -4   3    6.20    1.00
  -7  -4   3    5.40    1.10
   6   4  -3  200.78    7.20
   6   4  -3  207.68    7.70
  -6  -4   3  204.88    7.50
  -6  -4   3  187.88    7.50
  -6  -4   3  201.08    7.40
  -6  -4   3  197.68    7.30
  -6  -4   3  205.28    7.40
  -6  -4   3  200.88    7.70
   5   4  -3  435.66   14.10
   5   4  -3  406.26   14.10
   5   4  -3  421.06   14.40
  -5  -4   3  436.46   14.20
  -5  -4   3  419.56   14.20
  -5  -4   3  441.26   14.20
  -5  -4   3  435.76   14.50
   4   4  -3   10.00    1.50
   4   4  -3    8.40    1.20
   4   4  -3    8.30    1.20
  -4  -4   3    8.50    1.30
  -4  -4   3    8.20    1.10
  -4  -4   3    7.20    1.30
   3   4  -3   42.70    2.40
   3   4  -3   52.59    2.70
   3   4  -3   45.50    2.40
  -3  -4   3   44.60    2.40
  -3  -4   3   47.60    2.40
   2   4  -3    6.60    1.10
   2   4  -3    5.50    1.00
   2   4  -3    6.40    1.00
  -2  -4   3    7.10    1.10
  -2  -4   3    6.80    1.00
   1   4  -3   84.29    3.30
   1   4  -3   77.79    3.60
   1   4  -3   81.39    3.50
   1   4  -3   80.99    3.60
  -1  -4   3   84.99    3.60
   0   4  -3   31.50    1.90
   0   4  -3   30.70    1.90
   0   4  -3   31.50    1.80
   0   4  -3   28.80    2.00
   0   4  -3   30.30    1.70
   0  -4   3   32.00    2.00
  -1   4  -3    5.90    0.90
  -1   4  -3    5.50    0.90
  -1   4  -3    4.90    1.00
  -1   4  -3    4.70    0.90
  -1   4  -3    6.20    1.20
   1  -4   3    3.70    1.00
  -2   4  -3   49.30    2.60
  -2   4  -3   50.39    2.50
  -2   4  -3   52.59    2.60
  -2   4  -3   52.99    2.90
  -3   4  -3   35.40    1.90
  -3   4  -3   41.60    2.20
  -3   4  -3   35.40    2.00
  -4   4  -3    0.60    0.40
  -4   4  -3    0.40    0.40
  -4   4  -3    0.50    0.40
  -8  -3   3   -0.10    0.50
  -8  -3   3    0.80    0.50
  -8  -3   3    0.00    0.50
  -8  -3   3    1.00    0.50
   7   3  -3    5.30    1.10
  -7  -3   3    7.20    1.20
  -7  -3   3    7.00    1.30
  -7  -3   3    9.40    1.50
  -7  -3   3    5.90    1.10
  -7  -3   3    5.70    1.00
  -6  -3   3  162.28    6.30
  -6  -3   3  173.68    6.70
  -6  -3   3  166.18    6.40
  -6  -3   3  160.08    6.50
  -6  -3   3  168.48    6.40
  -6  -3   3  164.88    6.70
   5   3  -3  311.67   10.60
  -5  -3   3  316.67   11.10
  -5  -3   3  311.57   10.80
  -5  -3   3  312.57   10.80
  -5  -3   3  328.47   10.90
  -5  -3   3  331.37   11.20
  -5  -3   3  315.47   10.90
   4   3  -3  180.68    6.30
   4   3  -3  170.88    6.30
  -4  -3   3  180.48    6.70
  -4  -3   3  174.18    6.30
  -4  -3   3  177.68    6.60
  -4  -3   3  178.58    6.40
  -4  -3   3  172.58    6.40
  -4  -3   3  190.58    6.50
   3   3  -3   17.70    1.50
   3   3  -3   15.00    1.20
   2   3  -3  317.57   10.90
   2   3  -3  318.17   10.40
   1   3  -3    4.10    0.90
   1   3  -3    5.00    0.80
   0   3  -3    6.00    0.90
  -1   3  -3   21.00    1.70
  -1   3  -3   22.30    1.40
  -1   3  -3   21.10    1.50
  -1   3  -3   21.40    1.40
  -1   3  -3   23.90    1.70
  -1   3  -3   23.00    1.60
  -2   3  -3    0.60    0.60
  -2   3  -3    0.40    0.70
  -2   3  -3   -0.10    0.60
  -2   3  -3    0.10    0.60
  -2   3  -3    0.40    0.60
  -3   3  -3    0.30    0.60
  -3   3  -3    0.20    0.70
  -3   3  -3    0.60    0.60
  -3   3  -3    1.00    0.60
  -3   3  -3    1.10    0.70
  -4   3  -3   20.60    1.40
  -4   3  -3   19.60    1.40
  -4   3  -3   21.20    1.50
  -5   3  -3    7.10    1.00
  -8  -2   3   18.90    1.30
  -8  -2   3   14.60    1.10
  -8  -2   3   16.40    1.20
  -7  -2   3   19.20    1.70
  -7  -2   3   19.60    1.70
  -7  -2   3   18.90    1.90
  -7  -2   3   13.50    1.60
  -7  -2   3   20.20    1.90
  -6  -2   3   48.40    3.00
  -6  -2   3   43.10    2.70
  -6  -2   3   41.40    2.80
  -6  -2   3   39.30    2.50
  -6  -2   3   41.00    2.60
  -6  -2   3   42.60    2.50
  -6  -2   3   43.70    2.60
  -5  -2   3    0.90    0.70
  -5  -2   3    1.40    0.80
  -5  -2   3    0.60    0.80
  -5  -2   3    1.10    0.90
  -5  -2   3    0.40    0.80
  -5  -2   3    0.70    0.60
  -5  -2   3    1.10    0.80
   4   2  -3    1.00    0.50
  -4  -2   3    1.90    0.80
  -4  -2   3    0.90    0.60
  -4  -2   3    1.10    0.60
  -4  -2   3    0.90    0.60
  -4  -2   3    0.50    0.60
   3   2  -3  776.22   24.60
   3   2  -3  773.52   24.20
   3   2  -3  809.22   24.20
  -3  -2   3  772.72   24.40
   2   2  -3  758.32   23.10
   2   2  -3  748.13   23.60
   1   2  -3  195.08    6.90
   0   2  -3  477.75   15.50
   0   2  -3  468.65   14.90
  -1   2  -3   24.70    1.90
  -1   2  -3   23.30    1.40
  -2   2  -3  152.68    5.40
  -2   2  -3  150.18    5.30
  -2   2  -3  151.08    5.30
  -2   2  -3  139.29    5.60
  -2   2  -3  156.18    5.50
  -3   2  -3    4.40    0.80
  -3   2  -3    5.10    0.90
  -3   2  -3    5.10    1.00
  -3   2  -3    6.80    1.20
  -3   2  -3    6.80    1.00
  -4   2  -3   68.09    3.20
  -4   2  -3   69.29    3.30
  -4   2  -3   66.89    3.10
  -4   2  -3   72.69    3.10
  -4   2  -3   69.39    3.10
  -5   2  -3   18.90    1.40
  -5   2  -3   20.10    1.50
  -7  -1   3    1.30    0.70
  -7  -1   3    0.90    0.80
  -7  -1   3    0.90    0.70
  -7  -1   3    1.20    0.70
  -7  -1   3    1.90    0.70
  -6  -1   3   95.09    4.20
  -6  -1   3   98.59    4.60
  -6  -1   3   91.09    4.30
  -6  -1   3  104.69    4.40
  -6  -1   3   94.99    4.30
  -6  -1   3   92.79    4.20
  -5  -1   3    2.80    0.90
  -5  -1   3    2.90    1.00
  -5  -1   3    3.70    1.00
  -5  -1   3    3.10    1.00
  -5  -1   3    2.70    1.00
  -5  -1   3    2.90    0.90
   4   1  -3  127.49    5.30
  -4  -1   3  129.79    5.10
   3   1  -3  553.34   17.60
  -3  -1   3  560.54   17.70
   2   1  -3    0.40    0.40
   1   1  -3  760.12   23.60
   0   1  -3  330.67   10.80
  -1   1  -3    0.30    0.50
  -2   1  -3  398.76   12.80
  -2   1  -3  400.66   13.30
  -3   1  -3   99.99    3.80
  -3   1  -3   97.89    4.10
  -3   1  -3   99.39    3.80
  -3   1  -3   93.09    4.00
  -3   1  -3   98.29    3.70
  -3   1  -3   98.49    3.90
  -4   1  -3  142.69    5.20
  -4   1  -3  143.79    5.30
  -4   1  -3  134.29    5.40
  -4   1  -3  133.99    5.00
  -4   1  -3  134.89    5.50
  -4   1  -3  129.19    4.90
  -5   1  -3    3.80    0.80
  -5   1  -3    4.20    0.80
  -5   1  -3    3.70    0.90
  -5   1  -3    3.80    0.90
  -7   0   3    2.50    0.70
  -7   0   3    2.90    0.70
  -7   0   3    3.50    0.80
  -7   0   3    2.20    0.80
  -6   0   3   80.69    3.60
  -6   0   3   75.19    3.80
  -6   0   3   79.99    3.80
  -6   0   3   74.89    3.60
  -6   0   3   83.39    3.70
  -5   0   3   20.00    1.70
  -5   0   3   20.70    1.80
  -5   0   3   20.30    1.70
  -5   0   3   20.50    1.90
  -5   0   3   20.20    1.90
  -5   0   3   16.20    1.70
   4   0  -3  168.28    6.40
  -4   0   3  180.68    6.30
  -4   0   3  175.18    6.40
  -4   0   3  184.98    6.40
  -4   0   3  170.08    6.40
  -4   0   3  179.08    6.60
   3   0  -3  122.69    4.70
  -3   0   3  129.19    4.90
  -3   0   3  131.19    4.80
   2   0  -3   23.60    1.40
  -2   0   3   25.40    1.50
   1   0  -3  518.65   16.10
  -1   0   3  512.35   16.00
   0   0  -3  525.65   16.60
   0   0   3  539.35   16.30
  -1   0  -3 1177.48   34.90
   1   0   3 1104.89   34.40
  -2   0  -3 1346.57   41.30
  -3   0  -3  449.26   14.30
  -4   0  -3   60.29    2.70
  -4   0  -3   55.09    2.50
  -4   0  -3   59.99    3.00
  -4   0  -3   59.29    3.00
  -4   0  -3   61.69    2.70
  -4   0  -3   56.79    2.90
  -5   0  -3   13.20    1.50
  -5   0  -3   16.20    1.30
  -5   0  -3   14.20    1.40
  -5   0  -3   19.50    1.70
  -5   0  -3   15.50    1.40
  -6   0  -3    5.70    0.80
  -6   0  -3   10.30    1.30
  -6   0  -3    7.50    1.20
  -7   1   3   -0.10    0.40
  -7   1   3    0.80    0.40
  -6   1   3    9.80    1.20
  -6   1   3    9.50    1.30
  -6   1   3   14.10    1.60
  -6   1   3    7.90    1.20
  -5   1   3    5.00    1.10
  -5   1   3    3.90    1.10
  -5   1   3    6.30    1.20
  -5   1   3    2.50    0.90
  -5   1   3    3.90    0.90
  -4   1   3   17.90    1.60
  -4   1   3   16.30    1.40
  -4   1   3   17.90    1.60
  -4   1   3   17.20    1.30
  -4   1   3   20.10    1.70
  -4   1   3   17.90    1.60
   3  -1  -3   84.39    3.50
  -3   1   3   89.19    3.60
  -3   1   3   83.39    3.70
   2  -1  -3    1.30    0.50
  -2   1   3    1.70    0.60
   1  -1  -3  217.98    7.10
  -1   1   3  215.98    7.20
   0  -1  -3  938.91   28.70
   0   1   3  941.21   28.70
  -2  -1  -3   58.79    2.30
   2   1   3   56.99    2.20
  -3  -1  -3  268.77    8.80
  -4  -1  -3  147.09    5.70
  -4  -1  -3  150.98    6.40
  -4  -1  -3  150.78    5.50
  -4  -1  -3  142.99    5.50
  -4  -1  -3  147.59    5.70
  -4  -1  -3  150.68    5.40
  -5  -1  -3  408.96   13.10
  -5  -1  -3  373.76   12.70
  -5  -1  -3  377.96   13.00
  -5  -1  -3  396.76   12.90
  -5  -1  -3  373.26   12.50
  -5  -1  -3  369.76   12.70
  -6  -1  -3   71.59    3.30
  -6  -1  -3   76.59    3.60
  -6  -1  -3   71.99    3.50
  -6  -1  -3   73.89    3.50
  -7  -1  -3    2.00    0.70
  -7  -1  -3    4.00    0.80
  -6   2   3  204.58    7.40
  -6   2   3  222.58    7.60
  -6   2   3  218.98    7.50
  -5   2   3   66.79    3.30
  -5   2   3   67.89    3.30
  -5   2   3   64.09    3.10
  -5   2   3   63.79    3.30
  -4   2   3    9.60    1.40
  -4   2   3   11.30    1.30
  -4   2   3   12.40    1.60
  -4   2   3   10.00    1.40
  -4   2   3   10.20    1.30
  -3   2   3  110.29    5.40
  -3   2   3  127.09    4.70
  -3   2   3  119.29    4.80
  -3   2   3  124.59    4.80
  -3   2   3  119.29    4.80
   2  -2  -3   37.00    2.00
  -2   2   3   38.40    2.00
  -2   2   3   44.20    2.20
   1  -2  -3    7.60    0.90
  -1   2   3    5.70    0.80
   0  -2  -3  152.58    5.00
   0   2   3  141.49    5.10
  -1  -2  -3   39.40    1.60
   1   2   3   39.30    1.80
   2   2   3  250.47    8.10
  -3  -2  -3   14.80    1.20
  -3  -2  -3   16.10    1.10
   3   2   3   14.00    1.00
  -4  -2  -3   62.59    2.90
  -4  -2  -3   60.79    2.70
  -5  -2  -3  208.68    7.40
  -5  -2  -3  201.08    7.60
  -5  -2  -3  202.78    7.30
  -5  -2  -3  200.38    7.50
  -5  -2  -3  194.28    7.20
  -5  -2  -3  210.58    7.60
  -5  -2  -3  199.48    7.00
  -6  -2  -3  568.74   18.80
  -6  -2  -3  568.94   18.80
  -6  -2  -3  556.44   18.80
  -6  -2  -3  564.04   18.60
  -6  -2  -3  547.45   18.40
  -6  -2  -3  622.94   18.60
  -7  -2  -3   12.30    1.40
  -7  -2  -3   12.40    1.40
  -7  -2  -3   13.50    1.50
  -7  -2  -3   10.70    1.20
  -7  -2  -3   12.40    1.30
  -5   3   3  222.58    8.20
  -5   3   3  263.57    8.50
  -5   3   3  239.28    8.10
  -5   3   3  231.28    8.40
  -4   3   3  313.17   11.00
  -4   3   3  319.47   11.00
  -4   3   3  313.27   10.70
  -4   3   3  318.37   10.80
  -3   3   3    0.00    0.50
  -3   3   3    1.00    0.70
  -3   3   3   -0.40    0.50
  -3   3   3   -0.20    0.60
  -3   3   3    0.20    0.70
   2  -3  -3   93.79    4.10
  -2   3   3   97.29    4.10
   1  -3  -3   15.40    1.50
   1  -3  -3   14.70    1.20
  -1   3   3   14.10    1.30
   0  -3  -3   62.89    2.50
   0   3   3   58.59    2.70
  -1  -3  -3  174.68    5.70
   1   3   3  170.48    6.00
   2   3   3    0.40    0.40
  -3  -3  -3   70.19    3.10
  -3  -3  -3   71.69    2.80
   3   3   3   71.39    3.00
  -4  -3  -3    3.30    0.70
  -4  -3  -3    2.10    0.70
   4   3   3    2.10    0.60
  -5  -3  -3   26.40    1.90
  -5  -3  -3   21.20    1.70
  -5  -3  -3   24.70    1.90
  -5  -3  -3   24.40    1.60
  -5  -3  -3   23.80    1.90
  -5  -3  -3   23.20    1.80
  -5  -3  -3   25.10    1.80
  -6  -3  -3    3.30    1.00
  -6  -3  -3    4.70    1.20
  -6  -3  -3    1.40    1.00
  -6  -3  -3    2.60    1.00
  -6  -3  -3    5.20    1.10
  -6  -3  -3    2.10    0.80
  -7  -3  -3   10.20    1.40
  -7  -3  -3    7.10    1.10
  -7  -3  -3   12.80    1.50
  -7  -3  -3   15.40    1.80
  -7  -3  -3   11.00    1.30
  -7  -3  -3   10.10    1.20
  -8  -3  -3    7.70    1.00
  -8  -3  -3    6.50    0.90
  -8  -3  -3    7.90    0.90
  -8  -3  -3    8.00    0.90
  -5   4   3   98.09    3.60
  -5   4   3   97.09    3.80
  -5   4   3   97.29    3.80
  -4   4   3   18.50    1.60
  -4   4   3   17.30    1.30
  -4   4   3   17.70    1.80
  -4   4   3   17.60    1.70
  -4   4   3   17.90    1.50
  -3   4   3  211.68    8.00
  -3   4   3  235.48    7.80
  -3   4   3  229.68    8.10
  -3   4   3  209.88    7.80
  -3   4   3  210.78    7.80
  -2   4   3   84.19    3.60
  -2   4   3   85.09    3.80
  -2   4   3   91.59    3.60
  -2   4   3   82.79    3.80
  -2   4   3   80.09    3.60
  -1   4   3  109.29    4.30
  -1   4   3  104.49    4.10
  -1   4   3  109.59    4.20
  -1   4   3  108.29    4.30
  -1   4   3  104.79    4.20
   0  -4  -3  127.49    4.90
   0   4   3  137.79    5.20
  -1  -4  -3   64.09    2.90
   1   4   3   71.39    3.10
  -2  -4  -3  145.99    5.50
   2   4   3  158.48    5.60
  -3  -4  -3    1.50    0.70
  -3  -4  -3    0.80    0.40
   3   4   3    0.30    0.50
  -4  -4  -3    0.40    0.60
  -4  -4  -3    0.30    0.60
  -4  -4  -3   -0.40    0.40
  -4  -4  -3    0.10    0.70
  -4  -4  -3    0.10    0.60
  -4  -4  -3   -0.10    0.60
   4   4   3   -0.50    0.40
  -5  -4  -3   20.80    1.90
  -5  -4  -3   13.30    1.60
  -5  -4  -3   20.10    1.60
  -5  -4  -3   22.00    2.00
  -5  -4  -3   22.10    1.70
  -5  -4  -3   15.10    1.50
  -5  -4  -3   20.20    1.80
   5   4   3   17.60    1.40
  -6  -4  -3   42.90    2.70
  -6  -4  -3   41.00    2.40
  -6  -4  -3   35.00    2.50
  -6  -4  -3   36.50    2.50
  -6  -4  -3   40.20    2.70
  -6  -4  -3   35.60    2.40
  -6  -4  -3   37.30    2.30
  -7  -4  -3   34.50    2.20
  -7  -4  -3   33.60    2.30
  -7  -4  -3   34.40    2.50
  -7  -4  -3   33.60    2.20
  -7  -4  -3   33.20    2.30
  -7  -4  -3   35.30    2.40
  -8  -4  -3    0.60    0.50
  -8  -4  -3    0.20    0.50
  -8  -4  -3   -0.20    0.50
  -8  -4  -3   -1.10    0.50
  -4   5   3    8.30    1.10
  -4   5   3    6.20    0.70
  -4   5   3    5.30    0.80
  -4   5   3    8.50    1.00
  -3   5   3    1.90    0.80
  -3   5   3    0.20    0.70
  -3   5   3    1.70    0.70
  -3   5   3    1.90    0.80
  -2   5   3  105.69    4.60
  -2   5   3  106.39    4.30
  -2   5   3  100.49    4.30
  -2   5   3  109.19    4.40
  -2   5   3  104.19    4.60
  -1   5   3   43.60    2.50
  -1   5   3   33.30    2.10
  -1   5   3   38.30    2.20
  -1   5   3   39.00    2.50
  -1   5   3   38.90    2.20
   0  -5  -3  196.08    7.30
   0   5   3  205.48    7.40
   0   5   3  203.48    7.30
   0   5   3  202.48    7.10
   0   5   3  200.48    7.10
   0   5   3  209.68    7.20
  -1  -5  -3   11.20    1.40
   1   5   3    9.90    1.30
   1   5   3   11.50    1.20
   1   5   3   11.50    1.20
  -2  -5  -3    4.90    0.80
  -2  -5  -3    4.20    1.40
  -3  -5  -3   35.10    2.10
  -3  -5  -3   38.50    2.60
  -3  -5  -3   36.80    2.00
   3   5   3   34.30    1.90
  -4  -5  -3    1.40    0.70
  -4  -5  -3    1.10    0.70
  -4  -5  -3    1.70    0.70
  -4  -5  -3    0.80    0.70
  -4  -5  -3    2.00    0.80
   4   5   3    1.10    0.60
  -5  -5  -3   15.90    1.90
  -5  -5  -3   12.70    1.50
  -5  -5  -3   16.00    1.60
  -5  -5  -3   15.50    1.60
  -5  -5  -3   10.90    1.50
  -5  -5  -3   11.80    1.40
  -5  -5  -3   16.70    1.80
   5   5   3   10.90    1.20
  -6  -5  -3    0.30    0.70
  -6  -5  -3    0.40    0.90
  -6  -5  -3    0.20    0.80
  -6  -5  -3    0.80    0.70
  -6  -5  -3    0.30    0.90
  -6  -5  -3   -0.10    0.80
  -6  -5  -3    0.10    0.70
  -7  -5  -3   97.09    4.10
  -7  -5  -3   91.19    4.10
  -7  -5  -3   87.49    4.20
  -7  -5  -3   92.59    4.00
  -7  -5  -3   91.89    4.20
  -7  -5  -3   83.39    3.70
  -8  -5  -3   51.69    2.40
  -8  -5  -3   48.10    2.50
  -8  -5  -3   52.39    2.50
  -3   6   3   17.60    1.20
  -3   6   3   16.90    1.20
  -3   6   3   18.50    1.40
  -2   6   3   17.00    1.70
  -2   6   3   19.50    1.50
  -2   6   3   14.10    1.30
  -2   6   3   19.70    1.60
   1  -6  -3   26.10    2.10
  -1   6   3   30.50    2.00
  -1   6   3   30.00    2.10
  -1   6   3   27.70    1.90
  -1   6   3   29.80    2.30
  -1   6   3   30.40    1.90
   0  -6  -3  107.99    4.60
   0   6   3  104.79    4.20
   0   6   3  106.99    4.30
   0   6   3  109.39    4.40
   0   6   3  104.39    4.50
  -1  -6  -3  100.99    4.40
  -1  -6  -3  102.19    4.30
   1   6   3   96.99    4.10
   1   6   3  100.29    4.20
   1   6   3  103.89    4.20
  -2  -6  -3   14.50    1.60
  -2  -6  -3   19.10    1.90
   2   6   3   14.30    1.50
   2   6   3   14.20    1.40
  -3  -6  -3   42.70    2.40
  -3  -6  -3   45.10    2.40
   3   6   3   44.50    2.30
  -4  -6  -3   -0.30    0.60
  -4  -6  -3    0.80    0.70
  -4  -6  -3    0.40    0.70
   4   6   3    0.80    0.60
  -5  -6  -3    0.10    0.70
  -5  -6  -3    0.40    0.70
   5   6   3    0.80    0.70
   5   6   3    0.10    0.50
  -6  -6  -3   95.09    4.00
  -6  -6  -3   84.69    3.90
  -6  -6  -3   99.19    4.40
  -6  -6  -3   89.49    4.10
   6   6   3   89.19    3.90
  -7  -6  -3   79.79    3.90
  -7  -6  -3   88.99    3.70
  -7  -6  -3   87.39    3.90
  -7  -6  -3   89.99    3.70
  -7  -6  -3   85.79    3.70
   7   6   3   88.99    3.60
  -8  -6  -3   68.79    3.50
   8   6   3   65.59    2.80
  -2   7   3   13.20    1.20
  -2   7   3   11.40    0.90
   1  -7  -3   25.60    1.90
  -1   7   3   27.90    1.90
  -1   7   3   24.60    1.60
  -1   7   3   25.30    1.50
  -1   7   3   26.00    1.70
   0  -7  -3    3.90    0.90
   0  -7  -3    4.60    1.20
   0   7   3    5.50    1.10
   0   7   3    2.90    0.80
   0   7   3    4.60    1.00
  -1  -7  -3    0.20    0.70
  -1  -7  -3   -0.10    0.80
   1   7   3    0.10    0.60
   1   7   3   -0.20    0.70
  -2  -7  -3  280.37    9.70
  -2  -7  -3  267.37    9.80
   2   7   3  290.67    9.70
  -3  -7  -3  185.08    6.70
  -3  -7  -3  180.18    6.60
   3   7   3  164.68    6.50
  -4  -7  -3   89.49    3.80
  -4  -7  -3   87.19    3.90
   4   7   3   84.39    3.70
  -5  -7  -3  205.88    7.60
  -5  -7  -3  216.78    8.70
   5   7   3  205.58    7.60
  -6  -7  -3   27.40    1.90
  -6  -7  -3   28.90    2.00
   6   7   3   25.80    1.70
   6   7   3   29.30    2.00
  -7  -7  -3    9.20    1.00
   7   7   3   12.00    1.20
   0  -8  -3    1.60    0.60
   0  -8  -3    1.70    0.70
   0   8   3    1.90    0.50
   0   8   3    1.10    0.50
  -1  -8  -3   14.40    1.40
  -1  -8  -3   16.40    1.60
   1   8   3   14.70    1.30
   1   8   3   14.30    1.20
  -2  -8  -3    0.30    0.70
  -2  -8  -3    0.80    0.60
   2   8   3   -0.40    0.60
  -3  -8  -3   54.59    2.70
  -3  -8  -3   47.10    2.60
   3   8   3   52.49    2.60
  -4  -8  -3    6.30    1.00
  -4  -8  -3    6.60    1.00
   4   8   3    5.30    0.90
  -5  -8  -3   81.99    3.50
  -5  -8  -3   76.29    3.20
  -6  -8  -3  168.28    6.00
   6   8   3  167.78    6.00
   4   7  -4    0.00    0.40
  -4  -7   4    0.50    0.50
   3   7  -4    6.50    0.80
  -3  -7   4    8.00    1.00
   6   6  -4    0.20    0.60
   6   6  -4    1.00    0.50
  -6  -6   4    0.60    0.50
  -6  -6   4    0.20    0.60
   5   6  -4    4.40    0.90
   5   6  -4    5.30    0.90
   5   6  -4    6.10    1.00
  -5  -6   4    5.10    0.90
  -5  -6   4    6.70    1.00
   4   6  -4    6.50    1.10
   4   6  -4    6.00    1.10
   4   6  -4    6.20    1.00
  -4  -6   4    5.50    1.00
  -4  -6   4    5.60    1.00
   3   6  -4    1.20    0.70
   3   6  -4    1.30    0.70
   3   6  -4    0.80    0.70
  -3  -6   4    1.90    0.90
   2   6  -4   21.50    1.70
   2   6  -4   18.90    1.50
  -2  -6   4   21.50    1.70
   1   6  -4    0.80    0.50
   1   6  -4    1.00    0.60
  -1  -6   4    0.70    0.70
   0   6  -4    1.60    0.60
   0  -6   4    1.40    0.60
   7   5  -4    4.10    0.80
   7   5  -4    4.80    0.90
  -7  -5   4    3.80    0.80
  -7  -5   4    3.70    0.70
   6   5  -4    1.60    0.70
   6   5  -4    0.50    0.80
   6   5  -4   -0.10    0.70
  -6  -5   4    0.20    0.60
  -6  -5   4    1.40    0.80
   5   5  -4    0.50    0.70
   5   5  -4    0.60    0.80
   5   5  -4    0.70    0.70
  -5  -5   4    1.00    0.80
  -5  -5   4    1.30    0.80
   4   5  -4   66.29    3.50
   4   5  -4   69.89    3.30
   4   5  -4   69.99    3.50
  -4  -5   4   73.69    3.50
  -4  -5   4   72.79    3.40
   3   5  -4  267.97    9.60
   3   5  -4  264.87    9.60
  -3  -5   4  279.87    9.60
   2   5  -4    3.10    0.90
   2   5  -4    0.20    0.70
   2   5  -4    1.30    0.70
  -2  -5   4    1.90    0.90
   1   5  -4   28.60    2.00
   1   5  -4   26.30    1.80
   1   5  -4   24.90    1.80
   1   5  -4   19.30    2.50
  -1  -5   4   29.50    2.00
   0   5  -4   35.00    2.00
   0   5  -4   34.50    2.10
   0   5  -4   34.60    2.30
   0   5  -4   37.80    2.10
   0  -5   4   38.80    2.20
  -1   5  -4    0.10    0.60
  -1   5  -4    0.10    0.40
  -1   5  -4    0.90    0.50
  -1   5  -4   -0.10    0.60
  -1   5  -4    0.10    0.50
  -2   5  -4    2.90    0.60
  -2   5  -4    4.40    0.60
  -2   5  -4    3.10    0.60
  -2   5  -4    4.30    0.70
   7   4  -4    0.90    0.70
  -7  -4   4    0.10    0.50
  -7  -4   4    0.70    0.70
  -7  -4   4    0.60    0.60
  -7  -4   4   -0.10    0.60
   6   4  -4   23.70    2.10
   6   4  -4   15.70    1.70
  -6  -4   4   18.20    1.80
  -6  -4   4   14.30    1.50
  -6  -4   4   16.00    1.50
  -6  -4   4   19.00    1.60
   5   4  -4    1.70    1.00
   5   4  -4    2.40    0.80
   5   4  -4    3.50    1.20
  -5  -4   4    2.80    0.90
  -5  -4   4    2.20    0.90
   4   4  -4   -0.20    0.60
   4   4  -4    0.30    0.80
   4   4  -4   -0.40    0.70
   4   4  -4    0.20    0.70
  -4  -4   4   -0.20    0.80
  -4  -4   4   -0.50    0.60
   3   4  -4   31.20    2.20
   3   4  -4   28.90    1.90
   3   4  -4   34.70    2.20
  -3  -4   4   32.20    2.10
  -3  -4   4   31.00    2.00
   2   4  -4   33.60    2.20
   2   4  -4   32.60    2.00
   2   4  -4   35.50    2.20
  -2  -4   4   33.60    2.10
   1   4  -4   47.30    2.40
   1   4  -4   50.59    2.80
   1   4  -4   49.70    2.70
   1   4  -4   51.29    2.60
  -1  -4   4   49.60    2.60
   0   4  -4  804.52   26.80
   0   4  -4  869.91   26.90
   0   4  -4  856.81   26.60
   0   4  -4  830.82   26.40
   0   4  -4  850.01   26.30
   0  -4   4  850.81   26.60
  -1   4  -4  336.17   11.30
  -1   4  -4  327.37   10.80
  -1   4  -4  317.77   10.90
  -1   4  -4  322.57   10.90
  -1   4  -4  328.47   11.00
  -2   4  -4    2.50    0.80
  -2   4  -4    2.70    0.70
  -2   4  -4    2.20    0.80
  -2   4  -4    3.80    0.90
  -2   4  -4    1.70    0.60
  -3   4  -4    4.10    0.70
  -3   4  -4    3.10    0.70
  -3   4  -4    5.90    0.80
  -3   4  -4    4.70    0.70
   7   3  -4   12.90    1.40
  -7  -3   4   16.40    1.50
  -7  -3   4   16.00    1.50
  -7  -3   4   14.00    1.50
  -7  -3   4   12.00    1.50
  -7  -3   4   10.90    1.30
   6   3  -4   45.60    2.80
  -6  -3   4   50.49    2.90
  -6  -3   4   48.60    2.80
  -6  -3   4   52.89    3.10
  -6  -3   4   49.50    2.70
  -6  -3   4   49.00    2.70
  -6  -3   4   47.30    2.90
   5   3  -4  289.17   10.30
   5   3  -4  284.47    9.90
  -5  -3   4  296.37   10.20
  -5  -3   4  290.77   10.10
  -5  -3   4  303.57   10.20
  -5  -3   4  290.37   10.30
  -5  -3   4  312.97   10.30
  -5  -3   4  277.07   10.40
   4   3  -4  307.57   11.10
   4   3  -4  314.77   10.70
  -4  -3   4  334.47   11.00
  -4  -3   4  332.17   11.30
  -4  -3   4  330.87   11.00
   3   3  -4  127.49    5.20
   3   3  -4  133.99    4.90
   3   3  -4  131.79    5.00
  -3  -3   4  131.49    5.00
  -3  -3   4  127.89    4.90
   2   3  -4   46.40    2.50
   2   3  -4   50.49    2.40
   2   3  -4   50.69    2.70
  -2  -3   4   52.59    2.50
   1   3  -4  117.09    4.50
   1   3  -4  117.79    4.70
   1   3  -4  119.39    4.70
   1   3  -4  121.19    4.40
  -1  -3   4  115.79    4.50
   0   3  -4  776.62   24.10
   0   3  -4  758.72   23.60
   0   3  -4  758.52   23.90
   0   3  -4  767.02   24.20
   0   3  -4  781.32   23.80
   0   3  -4  734.73   23.70
   0  -3   4  748.53   23.90
  -1   3  -4  125.39    4.90
  -1   3  -4  126.69    4.80
  -1   3  -4  119.89    5.10
  -1   3  -4  130.39    5.20
  -1   3  -4  129.69    4.90
  -1   3  -4  126.19    4.70
  -2   3  -4   57.89    2.70
  -2   3  -4   57.39    3.10
  -2   3  -4   57.59    2.90
  -2   3  -4   60.59    2.80
  -2   3  -4   56.59    2.80
  -3   3  -4    8.20    1.20
  -3   3  -4    6.30    1.00
  -3   3  -4    7.20    1.00
  -3   3  -4    8.00    1.10
  -3   3  -4    8.30    1.20
  -4   3  -4    2.30    0.60
  -4   3  -4    1.90    0.60
  -4   3  -4    2.70    0.60
  -4   3  -4    2.30    0.60
  -7  -2   4   37.40    2.10
  -7  -2   4   37.90    2.20
  -7  -2   4   34.10    2.10
  -7  -2   4   34.00    2.20
  -7  -2   4   36.00    2.40
   6   2  -4   19.00    1.90
  -6  -2   4   14.30    1.60
  -6  -2   4   21.40    1.80
  -6  -2   4   21.20    2.00
  -6  -2   4   18.50    1.80
  -6  -2   4   15.70    1.80
  -6  -2   4   15.10    1.70
   5   2  -4  177.58    7.00
  -5  -2   4  195.88    7.10
  -5  -2   4  191.78    7.30
  -5  -2   4  194.58    7.40
  -5  -2   4  199.38    7.20
  -5  -2   4  191.38    7.20
  -5  -2   4  186.88    7.00
   4   2  -4  111.19    4.50
  -4  -2   4  108.59    4.40
  -4  -2   4  107.79    4.40
  -4  -2   4  102.59    4.20
  -4  -2   4  109.49    4.60
  -4  -2   4  109.79    4.30
  -4  -2   4  105.39    4.50
   3   2  -4   19.70    1.30
   3   2  -4   20.90    1.60
  -3  -2   4   20.10    1.50
   2   2  -4   48.50    2.50
   2   2  -4   43.10    2.10
   1   2  -4   54.79    2.90
   1   2  -4   59.89    2.50
   0   2  -4  187.18    6.40
   0   2  -4  187.78    7.20
  -1   2  -4    2.30    0.70
  -1   2  -4    1.60    0.70
  -1   2  -4    2.70    0.70
  -1   2  -4    1.80    0.60
  -1   2  -4    3.10    0.90
  -1   2  -4    2.00    0.60
  -2   2  -4  123.49    5.00
  -2   2  -4  132.69    4.70
  -2   2  -4  117.39    4.80
  -2   2  -4  115.79    5.00
  -2   2  -4  126.99    4.70
  -2   2  -4  122.79    4.70
  -3   2  -4  445.16   14.80
  -3   2  -4  463.15   14.80
  -3   2  -4  467.15   15.30
  -3   2  -4  441.56   14.90
  -3   2  -4  456.65   15.30
  -3   2  -4  464.25   14.80
  -4   2  -4   39.80    2.40
  -4   2  -4   37.70    2.20
  -4   2  -4   41.40    2.20
  -4   2  -4   38.10    2.10
  -4   2  -4   35.60    2.00
  -5   2  -4    6.70    0.80
  -5   2  -4    4.70    0.70
  -5   2  -4    4.80    0.70
  -7  -1   4   66.89    3.30
  -7  -1   4   64.59    2.90
  -7  -1   4   64.89    3.00
  -7  -1   4   64.49    3.10
  -7  -1   4   66.09    3.00
  -6  -1   4    0.50    0.90
  -6  -1   4    0.00    0.80
  -6  -1   4    0.40    0.70
  -6  -1   4    1.00    0.80
  -6  -1   4   -0.50    0.70
  -6  -1   4    1.30    0.90
  -5  -1   4   39.40    2.50
  -5  -1   4   37.00    2.50
  -5  -1   4   41.40    2.70
  -5  -1   4   36.00    2.30
  -5  -1   4   39.20    2.40
  -5  -1   4   42.30    2.60
  -4  -1   4   47.50    2.60
  -4  -1   4   44.80    2.50
  -4  -1   4   45.90    2.60
  -4  -1   4   46.30    2.40
  -4  -1   4   48.90    2.70
  -4  -1   4   52.29    2.50
   3   1  -4  186.68    6.60
  -3  -1   4  179.68    6.60
   2   1  -4   97.79    4.00
   1   1  -4  147.49    5.50
   0   1  -4   26.00    1.80
   0   1  -4   27.00    1.40
  -1   1  -4   87.69    3.90
  -1   1  -4   86.79    3.40
  -2   1  -4   -0.10    0.40
  -2   1  -4   -0.60    0.40
  -2   1  -4    0.40    0.50
  -2   1  -4    0.30    0.60
  -2   1  -4    0.60    0.50
  -2   1  -4    0.70    0.70
  -2   1  -4    0.60    0.60
  -3   1  -4    0.10    0.60
  -3   1  -4    0.80    0.60
  -3   1  -4    0.10    0.50
  -3   1  -4   -0.40    0.60
  -3   1  -4   -1.00    0.60
  -3   1  -4    0.40    0.60
  -4   1  -4   30.60    2.20
  -4   1  -4   28.20    1.80
  -4   1  -4   28.40    1.90
  -4   1  -4   30.50    2.00
  -4   1  -4   29.10    2.20
  -4   1  -4   29.40    1.80
  -5   1  -4   19.10    1.50
  -5   1  -4   19.70    1.50
  -5   1  -4   17.60    1.30
  -5   1  -4   12.80    1.40
  -6   1  -4    7.20    0.80
  -7   0   4    0.10    0.50
  -7   0   4    0.50    0.50
  -7   0   4   -0.30    0.50
  -7   0   4    0.50    0.50
  -6   0   4    0.30    0.70
  -6   0   4    2.20    0.80
  -6   0   4    0.90    0.80
  -6   0   4    1.10    0.70
  -6   0   4    1.00    0.80
  -5   0   4   29.20    2.20
  -5   0   4   29.80    2.30
  -5   0   4   27.30    2.10
  -5   0   4   28.40    2.00
  -5   0   4   28.00    2.10
  -5   0   4   27.60    2.00
  -4   0   4   44.40    2.50
  -4   0   4   43.80    2.40
  -4   0   4   45.00    2.60
  -4   0   4   44.40    2.40
  -4   0   4   43.50    2.40
  -4   0   4   41.40    2.50
   3   0  -4   10.50    1.20
  -3   0   4   13.90    1.40
  -3   0   4   14.60    1.50
   2   0  -4   35.10    1.90
  -2   0   4   34.70    1.90
  -2   0   4   32.60    1.80
   1   0  -4   40.10    2.00
  -1   0   4   43.30    1.90
   0   0  -4   33.60    1.80
  -1   0  -4  158.88    5.70
  -2   0  -4    0.90    0.50
  -2   0  -4    0.90    0.50
  -3   0  -4   20.30    1.40
  -3   0  -4   20.60    1.70
  -3   0  -4   20.10    1.70
  -3   0  -4   19.80    1.50
  -3   0  -4   21.00    1.30
  -3   0  -4   20.90    1.60
  -4   0  -4   -0.60    0.50
  -4   0  -4   -0.20    0.50
  -4   0  -4    0.20    0.70
  -4   0  -4    0.90    0.70
  -4   0  -4   -0.50    0.60
  -4   0  -4    0.00    0.70
  -5   0  -4   44.80    2.70
  -5   0  -4   44.70    2.50
  -5   0  -4   43.20    2.40
  -5   0  -4   45.60    2.30
  -5   0  -4   45.40    2.70
  -6   0  -4    4.50    0.80
  -6   0  -4    4.60    0.90
  -6   0  -4    4.50    0.80
  -6   0  -4    5.90    1.00
  -7   1   4   12.30    1.10
  -7   1   4   12.00    1.00
  -6   1   4   20.10    1.80
  -6   1   4   18.10    1.60
  -6   1   4   16.80    1.70
  -5   1   4   23.20    2.10
  -5   1   4   22.70    2.00
  -5   1   4   23.00    2.00
  -5   1   4   21.80    1.80
  -5   1   4   23.10    1.80
  -4   1   4  181.38    6.70
  -4   1   4  174.88    6.50
  -4   1   4  187.08    6.90
  -4   1   4  174.58    6.90
  -4   1   4  199.88    7.10
  -4   1   4  184.58    6.60
   3  -1  -4  842.92   26.30
  -3   1   4  775.32   26.10
  -3   1   4  878.21   28.00
   2  -1  -4    1.00    0.50
  -2   1   4    1.20    0.60
  -2   1   4    1.20    0.60
   1  -1  -4   26.90    1.50
  -1   1   4   24.30    1.50
   0  -1  -4  102.69    3.60
   0   1   4   94.09    3.60
  -1  -1  -4    7.80    0.80
   1   1   4    8.40    0.70
  -2  -1  -4  122.79    4.20
  -2  -1  -4  114.49    4.30
  -3  -1  -4   87.09    3.50
  -4  -1  -4   75.99    3.40
  -4  -1  -4   73.89    3.60
  -4  -1  -4   78.19    3.20
  -4  -1  -4   75.19    3.30
  -4  -1  -4   74.09    3.10
  -4  -1  -4   76.69    3.60
  -4  -1  -4   68.09    3.20
  -5  -1  -4    1.20    0.60
  -5  -1  -4    1.90    0.90
  -5  -1  -4    2.20    0.80
  -5  -1  -4    1.00    0.70
  -5  -1  -4    1.80    0.80
  -5  -1  -4    2.60    0.90
  -6  -1  -4    6.30    1.00
  -6  -1  -4    4.80    1.00
  -6  -1  -4    8.20    1.30
  -6  -1  -4    5.90    0.90
  -6  -1  -4    4.00    0.90
  -7  -1  -4   16.00    1.30
  -7  -1  -4   16.20    1.30
  -6   2   4   -0.30    0.50
  -6   2   4    0.30    0.50
  -6   2   4    0.30    0.50
  -5   2   4    0.10    0.70
  -5   2   4    0.70    0.60
  -5   2   4    0.20    0.70
  -5   2   4    1.10    0.80
  -4   2   4   81.89    3.70
  -4   2   4   81.49    3.60
  -4   2   4   83.49    3.90
  -4   2   4   80.59    3.90
  -4   2   4   82.19    3.90
  -3   2   4   70.89    3.20
  -3   2   4   83.29    3.60
  -3   2   4   78.69    3.60
  -3   2   4   77.59    3.40
  -3   2   4   74.79    3.50
  -3   2   4   78.49    3.30
   2  -2  -4  202.28    6.90
  -2   2   4  182.68    7.00
   1  -2  -4   73.19    3.30
   1  -2  -4   81.49    3.20
  -1   2   4   76.39    3.30
   0  -2  -4 1229.68   36.00
   0   2   4 1121.99   36.10
  -1  -2  -4   46.80    1.90
   1   2   4   45.00    2.10
   2   2   4   16.40    1.20
  -3  -2  -4  332.57   10.80
  -3  -2  -4  333.77   11.10
  -4  -2  -4  125.39    4.70
  -4  -2  -4  130.99    5.20
  -4  -2  -4  131.19    5.20
  -4  -2  -4  125.79    4.90
  -4  -2  -4  131.99    5.10
  -4  -2  -4  131.39    5.20
  -4  -2  -4  128.79    4.80
  -4  -2  -4  127.49    5.00
  -5  -2  -4   11.60    1.60
  -5  -2  -4   18.90    1.70
  -5  -2  -4   16.10    1.70
  -5  -2  -4   14.10    1.50
  -5  -2  -4   18.20    1.70
  -5  -2  -4   15.00    1.80
  -5  -2  -4   12.30    1.60
  -6  -2  -4   13.50    1.60
  -6  -2  -4    9.10    1.40
  -6  -2  -4   15.10    1.40
  -6  -2  -4   12.30    1.40
  -6  -2  -4   12.60    1.50
  -6  -2  -4    8.50    1.30
  -7  -2  -4    0.80    0.60
  -7  -2  -4    0.90    0.60
  -7  -2  -4    2.00    0.70
  -7  -2  -4    0.70    0.60
  -5   3   4    0.60    0.70
  -5   3   4    0.50    0.70
  -5   3   4    0.30    0.60
  -5   3   4   -0.10    0.50
  -4   3   4   33.90    2.20
  -4   3   4   32.30    2.10
  -4   3   4   32.30    2.30
  -4   3   4   29.50    2.30
   3  -3  -4    6.00    1.40
  -3   3   4    5.40    1.10
  -3   3   4    4.90    1.00
  -3   3   4    3.90    0.90
  -3   3   4    5.00    1.10
  -3   3   4    5.90    1.10
   2  -3  -4   -0.30    0.70
  -2   3   4    0.10    0.60
  -2   3   4    0.40    0.60
  -2   3   4    0.10    0.50
  -2   3   4   -0.20    0.70
  -2   3   4    2.70    0.90
   1  -3  -4 1461.25   43.40
   1  -3  -4 1310.07   43.50
  -1   3   4 1462.65   43.70
   0  -3  -4 2546.75   77.59
   0  -3  -4 2538.85   77.29
   0   3   4 2559.54   77.59
  -1  -3  -4 1226.78   36.80
  -1  -3  -4 1176.08   37.20
   1   3   4 1213.98   37.20
  -2  -3  -4  150.08    5.50
   2   3   4  145.99    5.40
  -3  -3  -4  114.69    4.30
  -3  -3  -4  121.79    4.70
   3   3   4  120.09    4.50
  -4  -3  -4    0.40    0.60
  -4  -3  -4    0.10    0.50
  -4  -3  -4    0.10    0.60
  -4  -3  -4    0.40    0.70
  -4  -3  -4    0.60    0.60
  -4  -3  -4    0.60    0.70
  -4  -3  -4   -0.40    0.40
  -5  -3  -4  101.99    4.60
  -5  -3  -4   99.29    4.30
  -5  -3  -4  103.49    4.10
  -5  -3  -4   94.39    4.40
  -5  -3  -4   99.29    4.30
  -5  -3  -4   94.89    4.10
  -5  -3  -4   97.79    4.40
  -6  -3  -4  163.68    6.40
  -6  -3  -4  161.48    6.30
  -6  -3  -4  168.88    6.50
  -6  -3  -4  164.08    6.10
  -6  -3  -4  157.98    6.40
  -6  -3  -4  155.38    5.90
  -6  -3  -4  154.38    6.40
  -7  -3  -4   55.79    3.00
  -7  -3  -4   56.99    2.70
  -7  -3  -4   53.99    2.80
  -7  -3  -4   54.69    2.90
  -7  -3  -4   53.79    2.70
  -5   4   4   13.10    1.00
  -5   4   4   14.40    1.20
  -5   4   4   12.10    1.20
  -4   4   4   22.30    1.80
  -4   4   4   13.00    1.30
  -4   4   4   17.70    1.60
  -4   4   4   13.50    1.50
  -3   4   4    6.20    1.10
  -3   4   4    6.50    1.00
  -3   4   4    4.40    0.90
  -3   4   4    5.80    1.30
  -3   4   4    7.90    1.30
  -2   4   4   47.20    2.60
  -2   4   4   43.40    2.60
  -2   4   4   44.50    2.40
  -2   4   4   46.10    2.50
  -2   4   4   43.80    2.40
   1  -4  -4  174.88    6.60
  -1   4   4  186.28    6.30
  -1   4   4  168.78    6.30
  -1   4   4  178.38    6.30
  -1   4   4  169.88    6.40
  -1   4   4  170.38    6.20
  -1   4   4  177.28    6.40
   0  -4  -4   83.39    3.60
   0  -4  -4   75.79    3.30
   0   4   4   84.39    4.60
  -1  -4  -4 1000.80   31.20
   1   4   4  997.80   31.20
  -2  -4  -4   70.89    3.20
   2   4   4   74.89    3.40
  -3  -4  -4  641.74   20.00
   3   4   4  600.04   19.60
  -4  -4  -4   59.99    2.90
  -4  -4  -4   59.59    2.90
  -4  -4  -4   59.39    2.70
  -4  -4  -4   53.89    2.90
  -4  -4  -4   60.49    3.00
  -4  -4  -4   59.49    3.10
  -4  -4  -4   59.59    2.70
  -5  -4  -4   35.00    2.30
  -5  -4  -4   37.80    2.60
  -5  -4  -4   36.30    2.40
  -5  -4  -4   35.00    2.30
  -5  -4  -4   36.30    2.20
  -5  -4  -4   35.90    2.40
  -6  -4  -4   68.49    3.40
  -6  -4  -4   66.49    3.70
  -6  -4  -4   67.09    3.50
  -6  -4  -4   70.49    3.50
  -6  -4  -4   68.69    3.60
  -6  -4  -4   71.39    3.30
   6   4   4   63.19    3.00
  -7  -4  -4   50.99    2.80
  -7  -4  -4   48.80    2.60
  -7  -4  -4   47.60    2.60
  -7  -4  -4   47.40    2.90
  -7  -4  -4   51.69    2.80
  -7  -4  -4   49.99    2.80
  -8  -4  -4    0.70    0.60
  -8  -4  -4    0.60    0.50
  -8  -4  -4    0.80    0.50
  -8  -4  -4    0.50    0.50
  -4   5   4   19.90    1.30
  -4   5   4   22.40    1.60
  -4   5   4   22.60    1.60
  -3   5   4    2.20    0.80
  -3   5   4    3.50    0.80
  -3   5   4    2.40    0.90
  -3   5   4    1.80    0.90
  -2   5   4   36.70    2.30
  -2   5   4   40.70    2.40
  -2   5   4   39.90    2.60
  -2   5   4   41.00    2.60
  -2   5   4   42.50    2.40
  -1   5   4   11.80    1.30
  -1   5   4   18.00    1.80
  -1   5   4   12.70    1.50
  -1   5   4   14.00    1.40
  -1   5   4   14.00    1.60
   0   5   4    1.30    0.70
   0   5   4    0.80    0.70
   0   5   4    1.80    0.70
   0   5   4    1.00    0.70
   0   5   4   -0.70    0.70
  -1  -5  -4  142.79    5.40
  -1  -5  -4  132.29    5.30
   1   5   4  132.69    5.30
   1   5   4  142.29    5.20
   1   5   4  142.19    5.10
  -2  -5  -4   56.09    2.70
  -2  -5  -4   58.79    2.90
  -2  -5  -4   58.69    2.80
   2   5   4   59.59    2.60
   2   5   4   60.39    2.70
  -3  -5  -4    4.70    1.00
  -3  -5  -4    4.50    1.00
   3   5   4    3.90    0.90
  -4  -5  -4  120.09    4.80
  -4  -5  -4  119.09    4.70
  -4  -5  -4  118.99    4.80
  -4  -5  -4  122.09    5.00
  -4  -5  -4  122.69    5.20
   4   5   4  119.59    4.70
  -5  -5  -4    7.20    1.30
  -5  -5  -4    7.20    1.30
  -5  -5  -4    4.90    1.10
  -5  -5  -4    6.50    1.10
  -5  -5  -4    5.10    1.20
  -5  -5  -4    8.40    1.30
  -5  -5  -4    7.10    1.20
   5   5   4    6.30    1.00
  -6  -5  -4   22.20    1.90
  -6  -5  -4   21.70    2.10
  -6  -5  -4   16.40    1.80
  -6  -5  -4   26.10    2.10
  -6  -5  -4   25.80    2.00
  -6  -5  -4   21.60    1.90
   6   5   4   18.40    1.80
  -7  -5  -4    2.30    0.80
  -7  -5  -4    2.00    0.90
  -7  -5  -4    1.30    0.70
  -7  -5  -4    1.90    0.80
  -7  -5  -4    2.00    0.90
  -8  -5  -4    0.00    0.70
  -8  -5  -4    0.40    0.50
  -8  -5  -4   -0.10    0.40
  -8  -5  -4    0.60    0.50
  -3   6   4    0.70    0.60
  -3   6   4    0.30    0.50
  -3   6   4    0.80    0.50
   2  -6  -4    7.60    1.20
  -2   6   4    8.70    1.20
  -2   6   4    8.10    1.20
  -2   6   4    8.00    1.00
  -2   6   4    8.40    1.10
   1  -6  -4    2.60    1.00
  -1   6   4    2.10    0.80
  -1   6   4    4.00    0.90
  -1   6   4    2.30    0.90
  -1   6   4    3.40    1.10
  -1   6   4    4.30    1.00
   0  -6  -4    6.90    1.20
   0   6   4    9.60    1.30
   0   6   4    7.90    1.10
   0   6   4   10.00    1.20
   0   6   4    6.50    1.20
   0   6   4    9.60    1.30
  -1  -6  -4    2.10    0.90
   1   6   4    2.50    0.90
   1   6   4    2.10    0.70
  -2  -6  -4   43.60    2.50
  -2  -6  -4   45.10    2.60
   2   6   4   41.70    2.40
   2   6   4   42.00    2.30
  -3  -6  -4   30.40    2.00
  -3  -6  -4   29.90    2.20
  -3  -6  -4   29.50    1.90
   3   6   4   27.60    1.90
  -4  -6  -4   72.59    3.70
  -4  -6  -4   74.89    3.50
   4   6   4   76.59    3.40
  -5  -6  -4   -0.30    0.60
  -5  -6  -4    0.30    0.80
  -5  -6  -4    0.30    0.70
  -5  -6  -4    0.30    0.80
   5   6   4    0.70    0.60
   5   6   4   -0.20    0.50
  -6  -6  -4    7.00    1.10
  -6  -6  -4    7.30    1.30
  -6  -6  -4    7.50    1.10
  -6  -6  -4    9.10    1.40
   6   6   4    7.70    1.10
  -7  -6  -4   26.20    1.90
  -7  -6  -4   25.20    1.70
  -7  -6  -4   23.50    1.80
  -7  -6  -4   24.20    1.70
   7   6   4   27.20    1.70
   2  -7  -4    7.80    1.10
  -2   7   4    7.50    0.80
   1  -7  -4   14.40    1.40
   1  -7  -4   14.00    1.50
  -1   7   4   15.10    1.30
  -1   7   4   14.20    1.30
  -1   7   4   16.80    1.60
  -1   7   4   13.40    1.30
   0  -7  -4   75.69    3.60
   0  -7  -4   84.79    3.80
   0   7   4   78.39    3.50
   0   7   4   75.79    3.50
   0   7   4   80.49    3.40
  -1  -7  -4   42.50    2.70
  -1  -7  -4   45.90    2.70
   1   7   4   43.00    2.40
   1   7   4   49.60    2.60
  -2  -7  -4   19.30    1.80
  -2  -7  -4   14.60    1.60
   2   7   4   11.70    1.40
   2   7   4   16.10    1.50
  -3  -7  -4   -0.50    0.70
  -3  -7  -4   -0.10    0.70
   3   7   4    0.10    0.70
  -4  -7  -4  119.49    4.90
   4   7   4  117.69    4.70
  -5  -7  -4    1.90    0.90
  -5  -7  -4    1.00    0.80
   5   7   4    2.00    0.70
  -6  -7  -4    1.60    0.70
  -6  -7  -4    3.60    0.90
   6   7   4    1.90    0.80
  -7  -7  -4    0.30    0.40
   7   7   4    0.80    0.60
   0  -8  -4   48.00    2.30
   0   8   4   46.00    2.00
   0   8   4   45.90    2.10
  -1  -8  -4    4.50    0.80
  -1  -8  -4    4.10    0.90
   1   8   4    4.10    0.70
   1   8   4    4.70    0.90
  -2  -8  -4   36.80    2.20
  -2  -8  -4   36.60    2.20
   2   8   4   40.70    2.20
  -3  -8  -4   39.00    2.30
  -3  -8  -4   39.20    2.20
   3   8   4   38.50    2.20
  -4  -8  -4   -0.20    0.60
  -4  -8  -4    0.50    0.50
   4   8   4    0.20    0.60
  -5  -8  -4    4.60    0.90
   5   8   4    5.30    0.90
  -6  -8  -4    3.20    0.70
   5   6  -5    5.40    0.80
  -5  -6   5    5.50    0.80
   4   6  -5    0.90    0.50
   4   6  -5    0.50    0.60
  -4  -6   5    1.00    0.60
   3   6  -5    0.50    0.60
   3   6  -5    1.20    0.60
  -3  -6   5    0.50    0.60
   2   6  -5   17.80    1.40
  -2  -6   5   19.00    1.40
   1   6  -5   33.30    1.80
   6   5  -5  136.59    5.00
   6   5  -5  135.99    5.20
  -6  -5   5  134.49    5.10
  -6  -5   5  137.89    5.00
   5   5  -5    2.80    1.20
   5   5  -5    2.70    0.80
   5   5  -5    4.00    1.00
  -5  -5   5    2.50    0.80
  -5  -5   5    3.10    0.90
   4   5  -5   -0.30    0.60
   4   5  -5    0.10    0.60
   4   5  -5   -0.40    0.70
  -4  -5   5    0.50    0.70
   3   5  -5    0.50    0.70
   3   5  -5    0.20    0.70
   3   5  -5    0.20    0.60
  -3  -5   5    0.40    0.70
   2   5  -5    4.80    1.00
   2   5  -5    6.30    1.00
   2   5  -5    5.50    1.00
  -2  -5   5    6.00    1.10
   1   5  -5    3.10    0.80
   1   5  -5    3.00    0.80
   1   5  -5    2.90    0.90
  -1  -5   5    3.10    0.70
  -1  -5   5    4.80    0.90
   0   5  -5    1.60    0.70
   0   5  -5    0.60    0.60
  -1   5  -5    3.40    0.70
   7   4  -5    3.50    0.80
   7   4  -5    3.70    0.90
  -7  -4   5    3.70    0.70
  -7  -4   5    2.30    0.60
   6   4  -5   81.99    3.90
   6   4  -5   96.79    4.00
  -6  -4   5   94.89    3.90
  -6  -4   5   84.99    3.80
   5   4  -5   16.60    1.70
   5   4  -5   22.60    2.00
   5   4  -5   19.40    1.60
  -5  -4   5   16.10    1.60
  -5  -4   5   22.70    1.90
   4   4  -5    0.70    0.80
   4   4  -5    1.40    0.80
   4   4  -5    0.90    0.70
   4   4  -5    1.60    0.80
  -4  -4   5    1.00    0.80
  -4  -4   5    1.00    0.70
   3   4  -5   -0.60    0.60
   3   4  -5    0.40    0.70
   3   4  -5    1.20    0.90
  -3  -4   5    0.30    0.80
   2   4  -5   12.00    1.40
   2   4  -5   18.50    1.70
   2   4  -5   10.00    1.40
  -2  -4   5   18.30    1.70
   1   4  -5   32.00    2.20
   1   4  -5   30.60    2.00
   1   4  -5   30.60    2.10
  -1  -4   5   27.20    2.00
   0   4  -5   15.80    1.70
   0   4  -5   15.90    1.50
   0   4  -5   12.00    1.30
   0   4  -5   18.70    1.90
  -1   4  -5    0.30    0.50
  -1   4  -5    0.00    0.60
  -1   4  -5    1.30    0.70
  -1   4  -5    0.80    0.60
  -1   4  -5    0.90    0.80
  -2   4  -5   56.19    2.40
  -2   4  -5   57.49    2.60
  -2   4  -5   55.69    2.80
  -2   4  -5   58.49    2.50
   7   3  -5    1.70    0.80
  -7  -3   5    0.90    0.70
  -7  -3   5    0.80    0.60
  -7  -3   5    0.90    0.60
  -7  -3   5    1.70    0.60
   6   3  -5   27.10    2.00
   6   3  -5   25.10    2.10
  -6  -3   5   23.10    1.80
  -6  -3   5   26.30    2.00
  -6  -3   5   27.50    2.00
  -6  -3   5   25.40    1.80
   5   3  -5    5.00    1.20
  -5  -3   5    6.10    1.20
  -5  -3   5    5.50    1.20
  -5  -3   5    6.80    1.10
   4   3  -5  127.99    4.90
   4   3  -5  129.89    5.30
   4   3  -5  126.09    5.40
  -4  -3   5  131.79    5.10
  -4  -3   5  120.69    5.10
   3   3  -5   79.29    3.50
   3   3  -5   74.99    3.70
   3   3  -5   78.49    3.70
   3   3  -5   77.99    3.40
  -3  -3   5   78.09    3.60
   2   3  -5    0.60    0.70
   2   3  -5    0.80    0.60
   2   3  -5    1.40    0.70
   2   3  -5    1.70    0.90
  -2  -3   5    0.70    0.60
  -2  -3   5    0.80    0.60
   1   3  -5    7.70    1.20
   1   3  -5    7.50    1.20
   1   3  -5    4.70    0.90
  -1  -3   5    7.30    1.10
   0   3  -5   61.49    3.00
   0   3  -5   65.09    3.30
   0   3  -5   56.39    2.90
   0   3  -5   60.49    3.10
  -1   3  -5   55.09    2.70
  -1   3  -5   57.79    2.80
  -1   3  -5   57.69    3.10
  -1   3  -5   55.29    3.00
  -1   3  -5   60.69    2.90
  -1   3  -5   54.79    2.60
  -2   3  -5   34.30    2.00
  -2   3  -5   34.80    2.00
  -2   3  -5   35.40    2.30
  -2   3  -5   33.30    2.10
  -2   3  -5   36.90    2.10
  -2   3  -5   38.60    2.40
  -3   3  -5   10.50    1.10
  -3   3  -5    9.90    1.10
  -3   3  -5    8.80    1.10
  -3   3  -5    8.30    1.10
  -3   3  -5    8.50    1.20
  -4   3  -5    4.50    0.60
  -4   3  -5    5.50    0.70
   7   2  -5   -0.50    0.70
  -7  -2   5    1.00    0.60
  -7  -2   5    0.50    0.60
  -7  -2   5    0.10    0.60
  -7  -2   5    0.40    0.60
  -6  -2   5  111.59    5.00
  -6  -2   5  107.79    4.60
  -6  -2   5  120.19    4.80
  -6  -2   5  113.29    4.90
  -6  -2   5  117.59    4.70
   5   2  -5  738.23   23.80
  -5  -2   5  736.83   23.90
  -5  -2   5  768.22   23.70
  -5  -2   5  725.03   23.80
  -5  -2   5  763.42   23.80
  -5  -2   5  718.83   23.50
   4   2  -5  158.28    6.10
  -4  -2   5  161.28    6.00
  -4  -2   5  154.28    5.90
  -4  -2   5  147.19    5.90
  -4  -2   5  158.38    6.10
   3   2  -5   11.80    1.20
   3   2  -5   13.90    1.60
   3   2  -5   10.30    1.30
  -3  -2   5   11.40    1.30
  -3  -2   5   10.50    1.20
   2   2  -5    9.20    1.00
   2   2  -5   11.00    1.40
   2   2  -5   11.20    1.40
  -2  -2   5   13.90    1.40
  -2  -2   5   11.80    1.10
   1   2  -5   44.50    2.40
   1   2  -5   43.30    2.40
   1   2  -5   40.80    2.20
   1   2  -5   44.20    2.20
  -1  -2   5   39.10    2.10
  -1  -2   5   41.80    2.00
   0   2  -5    3.30    0.70
   0   2  -5    4.20    0.90
   0   2  -5    4.20    0.70
   0   2  -5    6.00    1.00
   0   2  -5    4.60    0.90
   0   2  -5    4.20    0.90
  -1   2  -5  155.18    5.70
  -1   2  -5  155.78    6.00
  -1   2  -5  152.88    5.80
  -1   2  -5  160.78    6.20
  -1   2  -5  153.98    5.60
  -1   2  -5  154.38    5.60
  -2   2  -5    0.70    0.70
  -2   2  -5   -0.60    0.50
  -2   2  -5   -0.30    0.70
  -2   2  -5    0.50    0.70
  -2   2  -5    0.00    0.60
  -2   2  -5    1.00    0.60
  -3   2  -5   26.90    2.10
  -3   2  -5   28.60    2.10
  -3   2  -5   24.60    1.90
  -3   2  -5   26.60    1.90
  -3   2  -5   29.50    1.80
  -3   2  -5   28.40    1.80
  -4   2  -5    1.40    0.70
  -4   2  -5    1.20    0.60
  -4   2  -5    2.70    0.70
  -4   2  -5    1.30    0.60
  -7  -1   5   46.40    2.30
  -7  -1   5   48.40    2.30
  -7  -1   5   43.90    2.30
  -7  -1   5   49.10    2.40
  -6  -1   5   -0.10    0.70
  -6  -1   5   -0.70    0.60
  -6  -1   5    0.70    0.70
  -6  -1   5   -0.10    0.80
  -6  -1   5   -0.90    0.70
  -5  -1   5   47.20    2.90
  -5  -1   5   52.99    3.10
  -5  -1   5   50.59    2.80
  -5  -1   5   46.80    2.70
  -5  -1   5   46.70    2.80
  -4  -1   5    2.10    0.90
  -4  -1   5    1.20    0.70
  -4  -1   5    2.40    0.90
  -4  -1   5    1.70    0.90
  -4  -1   5    2.70    0.80
   3   1  -5   49.60    2.60
  -3  -1   5   59.19    2.70
  -3  -1   5   53.29    2.60
  -3  -1   5   51.99    2.60
  -3  -1   5   55.29    2.80
   1   1  -5  177.18    6.10
   1   1  -5  182.98    6.70
   0   1  -5    7.80    1.20
   0   1  -5    5.20    0.80
  -1   1  -5  102.09    4.20
  -1   1  -5   95.79    3.80
  -1   1  -5  102.69    4.00
  -1   1  -5  107.39    4.00
  -1   1  -5  105.09    4.50
  -1   1  -5   99.99    4.30
  -1   1  -5   99.99    4.00
  -2   1  -5   28.40    1.90
  -2   1  -5   26.60    1.70
  -2   1  -5   25.80    1.70
  -2   1  -5   30.80    1.80
  -2   1  -5   24.30    1.70
  -2   1  -5   28.60    2.10
  -2   1  -5   28.00    2.00
  -3   1  -5    1.00    0.80
  -3   1  -5    0.30    0.50
  -3   1  -5    1.10    0.80
  -3   1  -5    0.80    0.70
  -3   1  -5    1.20    0.70
  -3   1  -5    0.10    0.70
  -4   1  -5    0.20    0.60
  -4   1  -5    0.60    0.70
  -4   1  -5    1.40    0.80
  -4   1  -5    0.60    0.70
  -4   1  -5    0.20    0.60
  -4   1  -5    0.70    0.60
  -5   1  -5    4.20    0.70
  -5   1  -5    4.50    0.80
  -5   1  -5    4.40    0.80
  -5   1  -5    3.90    0.80
  -5   1  -5    4.70    0.80
  -7   0   5    7.90    0.90
  -7   0   5   10.90    1.10
  -7   0   5    9.50    1.00
  -6   0   5    8.90    1.30
  -6   0   5   11.20    1.60
  -6   0   5   13.80    1.50
  -6   0   5   10.00    1.20
  -6   0   5    8.60    1.20
  -5   0   5    8.90    1.50
  -5   0   5   12.90    1.60
  -5   0   5   11.00    1.40
  -5   0   5    8.60    1.30
  -5   0   5    8.90    1.50
  -4   0   5   56.19    2.90
  -4   0   5   59.09    3.30
  -4   0   5   60.09    3.10
  -4   0   5   57.39    2.90
  -4   0   5   63.99    3.20
  -3   0   5    6.60    1.00
  -3   0   5   10.30    1.10
  -3   0   5   10.00    1.30
  -3   0   5    8.20    1.20
  -3   0   5    9.30    1.30
  -3   0   5   10.40    1.20
   2   0  -5  347.97   11.50
  -2   0   5  341.67   11.40
  -2   0   5  337.07   11.40
   1   0  -5   21.40    1.50
   1   0  -5   17.40    1.40
   0   0  -5   94.19    3.90
   0   0  -5   89.69    3.40
  -1   0  -5    6.00    0.80
  -1   0  -5    7.40    1.10
  -2   0  -5  283.57    9.10
  -2   0  -5  269.07    9.50
  -2   0  -5  279.37    9.50
  -2   0  -5  267.07    9.20
  -2   0  -5  284.07    9.60
  -2   0  -5  271.27    9.30
  -2   0  -5  280.87    9.20
  -3   0  -5   63.49    2.90
  -3   0  -5   65.39    3.10
  -3   0  -5   69.79    3.00
  -3   0  -5   66.09    3.30
  -3   0  -5   67.49    3.00
  -3   0  -5   64.69    3.30
  -3   0  -5   70.89    3.40
  -4   0  -5   10.10    1.40
  -4   0  -5   11.90    1.60
  -4   0  -5    9.30    1.50
  -4   0  -5    6.80    1.00
  -4   0  -5    8.40    1.30
  -4   0  -5    9.70    1.20
  -5   0  -5   29.50    2.00
  -5   0  -5   31.80    2.20
  -5   0  -5   31.10    1.80
  -5   0  -5   28.70    1.90
  -5   0  -5   27.20    2.10
  -6   0  -5    5.10    0.70
  -6   0  -5    4.00    0.80
  -6   0  -5    5.10    0.80
  -6   1   5    3.60    0.80
  -6   1   5    5.20    1.00
  -6   1   5    4.40    1.00
  -5   1   5   23.50    1.90
  -5   1   5   22.90    2.00
  -5   1   5   24.10    2.00
  -5   1   5   24.60    1.90
  -5   1   5   22.70    2.10
  -4   1   5    7.20    1.40
  -4   1   5    6.20    1.20
  -4   1   5    7.40    1.20
  -4   1   5    6.40    1.20
  -4   1   5    7.30    1.20
  -4   1   5    7.20    1.10
  -3   1   5   49.20    2.50
  -3   1   5   53.89    2.70
  -3   1   5   53.39    2.80
  -3   1   5   50.49    2.80
  -3   1   5   55.99    2.60
  -3   1   5   51.49    2.60
   2  -1  -5  120.99    4.80
  -2   1   5  118.79    4.80
   1  -1  -5   10.10    1.20
   1  -1  -5   12.40    1.20
  -1   1   5   13.80    1.30
   0  -1  -5    5.80    1.00
   0  -1  -5    5.10    0.80
   0   1   5    4.90    0.70
  -1  -1  -5   14.30    1.20
  -1  -1  -5   16.50    1.10
  -1  -1  -5   14.70    1.20
  -2  -1  -5 1007.00   31.10
  -3  -1  -5  297.67    9.90
  -3  -1  -5  287.07   10.00
  -3  -1  -5  285.87   10.20
  -3  -1  -5  306.47   10.30
  -3  -1  -5  298.27    9.90
  -3  -1  -5  301.17    9.80
  -3  -1  -5  296.07   10.10
  -4  -1  -5  108.89    5.00
  -4  -1  -5  122.09    4.80
  -4  -1  -5  120.49    4.50
  -4  -1  -5  119.09    4.70
  -4  -1  -5  112.49    4.80
  -4  -1  -5  117.39    5.10
  -5  -1  -5   29.70    2.20
  -5  -1  -5   31.40    2.00
  -5  -1  -5   27.90    1.70
  -5  -1  -5   28.40    2.20
  -5  -1  -5   27.10    2.20
  -5  -1  -5   27.60    2.00
  -6  -1  -5    8.10    1.20
  -6  -1  -5   15.90    1.40
  -6  -1  -5   13.60    1.30
  -6  -1  -5   15.20    1.50
  -6  -1  -5   12.90    1.50
  -6   2   5   16.10    1.40
  -6   2   5   16.00    1.20
  -6   2   5   16.50    1.40
   5  -2  -5   78.29    4.10
  -5   2   5   82.69    3.80
  -5   2   5   77.29    3.80
  -5   2   5   77.49    3.40
  -4   2   5   27.00    2.00
  -4   2   5   21.90    1.90
  -4   2   5   23.20    1.80
  -4   2   5   27.70    2.10
  -4   2   5   26.00    1.80
  -3   2   5  111.79    4.40
  -3   2   5  105.59    4.50
  -3   2   5  106.89    4.60
  -3   2   5  109.89    4.40
  -3   2   5  109.79    4.50
   2  -2  -5   70.69    3.50
  -2   2   5   67.69    3.00
  -2   2   5   70.49    3.10
  -2   2   5   65.79    4.20
   1  -2  -5    2.70    0.70
  -1   2   5    4.20    0.80
   0  -2  -5  184.18    6.80
   0  -2  -5  188.88    6.50
   0   2   5  190.18    6.60
  -1  -2  -5   99.99    4.10
  -1  -2  -5  102.39    3.90
   1   2   5  104.19    4.00
  -2  -2  -5  375.16   12.20
  -2  -2  -5  357.66   11.70
  -3  -2  -5   42.90    2.30
  -3  -2  -5   44.00    2.20
  -3  -2  -5   47.10    2.50
  -3  -2  -5   45.50    2.50
  -3  -2  -5   45.90    2.20
  -3  -2  -5   45.30    2.20
  -3  -2  -5   45.10    2.30
  -3  -2  -5   45.60    2.50
  -4  -2  -5   22.80    1.90
  -4  -2  -5   22.70    1.70
  -4  -2  -5   23.30    1.80
  -4  -2  -5   20.60    1.50
  -4  -2  -5   24.70    1.80
  -4  -2  -5   22.00    1.90
  -4  -2  -5   24.70    1.90
  -4  -2  -5   24.30    2.00
  -5  -2  -5   34.40    2.20
  -5  -2  -5   34.00    2.30
  -5  -2  -5   34.00    2.40
  -5  -2  -5   32.20    2.20
  -5  -2  -5   33.80    2.20
  -5  -2  -5   34.20    2.50
  -5  -2  -5   32.20    1.90
  -6  -2  -5   20.90    1.70
  -6  -2  -5   21.40    2.00
  -6  -2  -5   20.40    1.90
  -6  -2  -5   20.60    1.60
  -6  -2  -5   21.00    1.70
  -6  -2  -5   21.80    1.90
  -7  -2  -5    0.80    0.50
  -7  -2  -5    0.80    0.50
  -7  -2  -5    1.70    0.60
  -5   3   5   16.20    1.60
  -5   3   5   15.20    1.50
  -5   3   5   10.50    1.20
  -5   3   5   15.00    1.30
   4  -3  -5    0.70    1.00
  -4   3   5   -0.20    0.60
  -4   3   5    0.80    0.80
  -4   3   5    0.70    0.70
  -4   3   5    0.30    0.70
   3  -3  -5   85.49    4.40
  -3   3   5   82.89    4.00
  -3   3   5   88.09    4.10
  -3   3   5   89.09    3.90
  -3   3   5   98.69    4.00
   2  -3  -5   55.89    3.20
  -2   3   5   55.79    2.90
  -2   3   5   57.09    2.80
  -2   3   5   53.99    2.60
  -2   3   5   56.79    2.80
  -2   3   5   56.59    2.90
   1  -3  -5    0.60    0.70
  -1   3   5   -0.10    0.60
  -1   3   5    0.60    0.60
   0  -3  -5  103.39    4.40
   0  -3  -5  102.79    4.10
   0   3   5  108.59    4.40
  -1  -3  -5   10.80    1.30
   1   3   5   10.90    1.30
  -2  -3  -5  166.78    6.10
   2   3   5  158.88    6.00
  -3  -3  -5    2.00    0.70
  -3  -3  -5    2.60    0.70
  -3  -3  -5    1.30    0.70
  -3  -3  -5    2.40    0.80
  -3  -3  -5    3.40    1.30
  -3  -3  -5    2.30    0.60
   3   3   5    2.10    0.60
  -4  -3  -5   28.60    1.90
  -4  -3  -5   27.60    2.10
  -4  -3  -5   29.40    2.00
  -4  -3  -5   28.60    2.10
  -4  -3  -5   34.20    2.00
  -4  -3  -5   27.30    1.80
  -4  -3  -5   26.80    2.00
   4   3   5   24.30    1.60
  -5  -3  -5  658.63   20.10
  -5  -3  -5  637.14   20.00
  -5  -3  -5  589.84   20.50
  -5  -3  -5  634.34   20.50
  -5  -3  -5  609.84   20.30
  -5  -3  -5  629.14   20.20
  -5  -3  -5  610.54   20.40
  -6  -3  -5  274.37    9.70
  -6  -3  -5  261.87    9.40
  -6  -3  -5  289.97    9.80
  -6  -3  -5  277.97    9.60
  -6  -3  -5  261.67    9.20
  -6  -3  -5  245.48    9.20
  -7  -3  -5    4.80    0.90
  -7  -3  -5    6.10    1.10
  -7  -3  -5    4.30    0.90
  -7  -3  -5    5.90    0.80
  -5   4   5  235.68    7.90
  -5   4   5  235.58    7.90
  -4   4   5    5.20    1.10
  -4   4   5    7.10    1.30
  -4   4   5    3.70    0.90
  -4   4   5    2.80    0.70
  -3   4   5   28.70    2.00
  -3   4   5   28.40    2.20
  -3   4   5   24.40    1.70
  -3   4   5   27.60    2.10
  -3   4   5   26.10    2.00
   2  -4  -5  120.29    5.50
  -2   4   5  137.29    5.20
  -2   4   5  130.09    5.00
  -2   4   5  124.79    5.20
  -2   4   5  133.39    5.10
  -2   4   5  122.59    5.20
   1  -4  -5    5.60    1.20
  -1   4   5    4.50    0.90
  -1   4   5    8.30    1.20
  -1   4   5    7.80    1.20
  -1   4   5    5.80    1.00
  -1   4   5    7.30    1.20
   0  -4  -5    0.50    0.70
   0   4   5    0.40    0.60
   0   4   5   -1.10    0.40
   0   4   5    0.60    0.50
   0   4   5    0.00    0.60
   0   4   5   -0.20    0.50
  -1  -4  -5   10.40    1.40
  -1  -4  -5    7.50    1.20
   1   4   5   10.20    1.10
   1   4   5    7.80    1.60
  -2  -4  -5   74.89    3.50
  -2  -4  -5   79.29    3.30
   2   4   5   74.09    3.20
   2   4   5   77.49    3.20
  -3  -4  -5   37.00    2.10
  -3  -4  -5   37.70    2.30
  -3  -4  -5   37.00    2.20
   3   4   5   34.00    1.90
   3   4   5   37.90    2.10
  -4  -4  -5   14.10    1.70
  -4  -4  -5   17.40    1.70
  -4  -4  -5   19.50    1.50
  -4  -4  -5   20.30    1.80
  -4  -4  -5   17.80    1.70
  -4  -4  -5   20.10    1.80
   4   4   5   18.40    1.50
  -5  -4  -5    0.00    0.70
  -5  -4  -5    1.30    1.00
  -5  -4  -5    0.70    0.70
  -5  -4  -5    0.40    0.70
  -5  -4  -5    0.10    0.70
  -5  -4  -5    0.60    0.80
  -6  -4  -5   78.69    3.70
  -6  -4  -5   74.79    3.80
  -6  -4  -5   73.29    3.80
  -6  -4  -5   75.19    3.70
  -6  -4  -5   76.69    3.80
  -6  -4  -5   79.19    3.50
   6   4   5   71.49    3.30
  -7  -4  -5   26.40    1.80
  -7  -4  -5   23.30    1.80
  -7  -4  -5   23.70    1.90
  -7  -4  -5   26.30    1.70
  -7  -4  -5   23.70    1.70
   4  -5  -5   75.39    3.20
  -4   5   5   78.19    3.30
  -4   5   5   76.79    3.00
  -4   5   5   81.09    3.20
  -3   5   5   -0.50    0.70
  -3   5   5   -0.20    0.50
  -3   5   5   -0.30    0.70
  -3   5   5    0.30    0.60
  -2   5   5  223.88    8.40
  -2   5   5  230.98    8.30
  -2   5   5  233.18    8.50
  -2   5   5  246.68    8.30
  -2   5   5  225.48    8.10
  -1   5   5   65.09    3.40
  -1   5   5   66.59    3.20
  -1   5   5   69.79    3.30
  -1   5   5   73.19    3.40
   0  -5  -5    0.00    0.70
   0   5   5   -0.10    0.50
   0   5   5   -0.10    0.60
   0   5   5    0.10    0.70
   0   5   5    0.10    0.60
  -1  -5  -5    4.00    1.00
  -1  -5  -5    4.20    1.00
   1   5   5    5.80    1.00
   1   5   5    5.10    1.00
  -2  -5  -5    1.80    0.90
  -2  -5  -5    0.50    0.60
   2   5   5    1.00    0.50
   2   5   5    0.40    0.60
  -3  -5  -5   60.39    3.30
  -3  -5  -5   67.69    3.10
  -3  -5  -5   67.89    3.10
   3   5   5   68.39    3.00
   3   5   5   66.79    3.10
  -4  -5  -5   10.20    1.30
  -4  -5  -5   15.20    1.50
  -4  -5  -5   13.10    1.70
   4   5   5   14.00    1.50
  -5  -5  -5    0.00    0.60
  -5  -5  -5    0.20    0.70
  -5  -5  -5   -0.10    0.90
  -5  -5  -5    0.10    0.70
  -5  -5  -5    1.00    0.70
   5   5   5    0.00    0.60
  -6  -5  -5    4.80    1.00
  -6  -5  -5    4.40    1.10
  -6  -5  -5    4.50    1.00
  -6  -5  -5    4.60    1.30
  -6  -5  -5    4.20    1.00
  -6  -5  -5    3.80    1.10
   6   5   5    3.10    0.80
  -7  -5  -5    3.70    0.90
  -7  -5  -5    3.70    0.90
  -7  -5  -5    3.50    0.80
  -7  -5  -5    3.00    0.80
  -3   6   5   61.79    2.60
  -3   6   5   57.39    2.40
   2  -6  -5   56.69    2.90
  -2   6   5   52.09    2.70
  -2   6   5   51.99    2.50
  -2   6   5   49.99    2.50
  -2   6   5   52.59    2.80
   1  -6  -5    9.30    1.50
  -1   6   5    5.10    1.00
  -1   6   5    3.90    1.20
  -1   6   5    4.60    1.00
  -1   6   5    4.60    1.10
  -1   6   5    5.90    1.10
   0  -6  -5    1.30    1.00
   0   6   5    1.30    0.70
   0   6   5    0.90    0.70
   0   6   5    0.90    0.80
   0   6   5    2.20    0.80
  -1  -6  -5   14.30    1.80
   1   6   5    9.10    1.30
   1   6   5   15.20    1.60
  -2  -6  -5   26.80    2.10
  -2  -6  -5   25.10    2.00
   2   6   5   29.20    1.90
   2   6   5   27.50    1.90
  -3  -6  -5    0.60    0.80
  -3  -6  -5    1.20    0.80
   3   6   5   -0.80    0.60
   3   6   5   -0.50    0.50
  -4  -6  -5   19.40    1.80
  -4  -6  -5   22.50    2.20
  -4  -6  -5   18.70    1.90
   4   6   5   17.60    1.70
  -5  -6  -5    4.10    1.10
  -5  -6  -5    3.90    0.90
  -5  -6  -5    2.50    1.00
  -5  -6  -5    4.10    1.00
   5   6   5    3.60    0.90
  -6  -6  -5   51.29    2.80
  -6  -6  -5   45.70    2.90
  -6  -6  -5   50.29    2.70
   6   6   5   47.90    2.40
  -7  -6  -5    5.20    0.80
  -7  -6  -5    4.00    0.80
   1  -7  -5   91.49    3.70
   1  -7  -5   88.19    3.80
  -1   7   5   89.19    3.40
  -1   7   5   84.99    3.50
  -1   7   5   81.49    3.50
   0  -7  -5   -0.30    0.70
   0  -7  -5   -0.20    0.70
   0   7   5    0.00    0.60
   0   7   5    0.20    0.70
  -1  -7  -5   15.00    1.60
  -1  -7  -5   10.90    1.40
   1   7   5   11.50    1.40
   1   7   5   14.10    1.40
  -2  -7  -5    8.90    1.40
  -2  -7  -5    7.10    1.10
   2   7   5    9.50    1.20
   2   7   5    6.80    1.20
  -3  -7  -5    2.80    1.00
   3   7   5    2.30    0.90
  -4  -7  -5    1.50    0.80
  -4  -7  -5    2.30    0.90
   4   7   5    1.10    0.70
  -5  -7  -5   55.39    2.70
  -5  -7  -5   53.89    3.00
   5   7   5   51.19    2.60
  -6  -7  -5   51.49    3.10
  -6  -7  -5   55.09    2.50
   6   7   5   52.39    2.40
   0  -8  -5   10.70    1.10
   0   8   5   12.70    1.10
  -1  -8  -5  108.29    4.20
  -1  -8  -5  108.69    4.20
   1   8   5  100.89    4.10
   1   8   5  112.29    4.00
  -2  -8  -5   78.49    3.40
  -2  -8  -5   76.69    3.30
   2   8   5   79.29    3.20
   2   8   5   79.69    3.40
  -3  -8  -5   36.00    2.20
   3   8   5   36.80    2.10
  -4  -8  -5    1.40    0.70
   4   8   5    1.60    0.70
  -5  -8  -5   58.19    2.80
   5   8   5   67.39    2.80
  -6  -8  -5    0.70    0.70
   5   5  -6    1.30    0.60
  -5  -5   6    1.30    0.60
   4   5  -6   -0.10    0.50
   4   5  -6    0.80    0.70
  -4  -5   6    0.50    0.60
   3   5  -6    1.00    0.70
   3   5  -6    2.40    0.70
   3   5  -6    1.90    0.70
  -3  -5   6    2.30    0.70
   2   5  -6    0.60    0.60
   2   5  -6   -0.10    0.50
   2   5  -6   -0.70    0.60
  -2  -5   6    0.30    0.60
   1   5  -6  108.09    4.30
   1   5  -6  117.19    4.40
   0   5  -6   16.80    1.30
   0  -5   6   20.80    1.50
   6   4  -6    5.50    0.90
   6   4  -6    5.70    0.90
  -6  -4   6    5.70    0.90
  -6  -4   6    4.50    0.90
   5   4  -6    1.70    0.80
   5   4  -6    1.50    0.80
  -5  -4   6    2.10    0.80
   4   4  -6   68.19    3.10
   4   4  -6   64.39    3.20
   4   4  -6   74.59    3.50
  -4  -4   6   71.49    3.30
   3   4  -6   35.60    2.20
   3   4  -6   37.40    2.20
   3   4  -6   41.30    2.60
  -3  -4   6   39.40    2.40
   2   4  -6   20.60    1.70
   2   4  -6   20.80    1.70
   2   4  -6   20.40    1.80
  -2  -4   6   15.40    1.60
   1   4  -6   -0.40    0.60
   1   4  -6    0.40    0.70
   1   4  -6    0.50    0.70
  -1  -4   6    0.70    0.60
   0   4  -6   25.20    1.90
   0   4  -6   22.50    1.60
   0   4  -6   22.80    1.80
   0  -4   6   26.00    1.70
  -1   4  -6    3.70    0.80
  -1   4  -6    3.80    1.00
   1  -4   6    3.30    0.70
  -2   4  -6   20.70    1.30
   2  -4   6   19.70    1.20
   6   3  -6    5.80    1.00
   6   3  -6    3.30    0.90
  -6  -3   6    5.00    1.00
  -6  -3   6    4.80    1.00
   5   3  -6   12.70    1.60
   5   3  -6   14.10    1.70
  -5  -3   6   11.60    1.50
  -5  -3   6   10.40    1.30
   4   3  -6   15.20    1.70
   4   3  -6   16.30    1.70
  -4  -3   6   21.00    1.80
   3   3  -6  191.48    7.10
   3   3  -6  185.88    7.10
   3   3  -6  193.18    6.80
  -3  -3   6  178.58    6.90
   2   3  -6   36.00    2.20
   2   3  -6   36.40    2.20
   2   3  -6   36.70    2.30
   2   3  -6   37.40    2.40
  -2  -3   6   33.80    1.90
  -2  -3   6   33.40    2.20
   1   3  -6  168.28    6.50
   1   3  -6  166.78    6.70
   1   3  -6  177.78    6.40
  -1  -3   6  172.98    6.20
   0   3  -6    8.60    1.30
   0   3  -6   14.50    1.60
   0   3  -6   12.50    1.50
   0  -3   6   10.10    1.20
  -1   3  -6    0.80    0.50
  -1   3  -6    0.60    0.60
  -1   3  -6    2.40    0.90
  -1   3  -6    1.00    0.70
  -1   3  -6    1.00    0.80
  -2   3  -6   19.50    1.60
  -2   3  -6   20.90    1.50
  -2   3  -6   22.10    1.80
  -2   3  -6   20.30    1.40
  -2   3  -6   18.10    1.40
  -3   3  -6   -0.20    0.40
  -3   3  -6   -0.70    0.40
  -3   3  -6    0.00    0.50
   3  -3   6    0.00    0.50
  -7  -2   6   27.50    1.60
  -7  -2   6   25.50    1.70
   6   2  -6   10.10    1.40
  -6  -2   6    8.80    1.20
  -6  -2   6   11.40    1.20
  -6  -2   6    8.00    1.10
  -6  -2   6    9.90    1.20
   5   2  -6   53.79    2.90
   5   2  -6   58.49    3.20
  -5  -2   6   53.49    2.90
  -5  -2   6   58.79    3.10
  -5  -2   6   55.09    2.90
   4   2  -6  147.29    5.80
   4   2  -6  145.09    6.00
  -4  -2   6  144.89    5.80
  -4  -2   6  143.69    5.60
  -4  -2   6  145.49    5.90
   3   2  -6    8.00    1.30
   3   2  -6   11.60    1.60
  -3  -2   6    7.70    1.20
   2   2  -6    0.80    0.80
   2   2  -6    1.30    0.70
   2   2  -6    0.70    0.80
  -2  -2   6    0.50    0.60
  -2  -2   6    0.30    0.60
   1   2  -6   33.90    2.10
   1   2  -6   30.30    2.20
   1   2  -6   32.20    2.20
   1   2  -6   36.10    2.00
  -1  -2   6   34.20    2.00
   0   2  -6  859.91   27.50
   0   2  -6  873.31   27.10
   0   2  -6  845.92   27.20
   0   2  -6  847.92   27.30
   0  -2   6  882.31   27.00
  -1   2  -6 1016.10   31.50
  -1   2  -6 1022.30   32.00
  -1   2  -6 1014.40   31.50
  -1   2  -6 1026.00   31.80
  -1   2  -6 1008.40   32.20
  -2   2  -6   21.60    1.70
  -2   2  -6   30.30    2.10
  -2   2  -6   24.10    2.00
  -2   2  -6   26.10    1.90
  -2   2  -6   25.40    1.70
  -3   2  -6   12.30    1.20
  -3   2  -6   11.50    1.20
  -3   2  -6   16.10    1.60
  -3   2  -6   11.30    1.40
  -3   2  -6   12.90    1.20
  -4   2  -6    0.10    0.40
  -4   2  -6   -0.10    0.40
  -4   2  -6    0.30    0.50
   4  -2   6    0.10    0.50
  -7  -1   6    6.70    0.80
  -7  -1   6    6.70    1.00
   6   1  -6    8.40    1.30
  -6  -1   6    7.60    1.10
  -6  -1   6    7.10    1.10
  -6  -1   6    6.10    1.00
  -6  -1   6    7.30    1.20
   5   1  -6   32.60    2.50
  -5  -1   6   29.20    2.00
  -5  -1   6   33.40    2.30
  -5  -1   6   33.30    2.30
  -5  -1   6   33.40    2.40
  -5  -1   6   31.30    2.20
   4   1  -6   39.50    2.70
  -4  -1   6   41.70    2.50
  -4  -1   6   39.80    2.50
  -4  -1   6   38.70    2.40
   3   1  -6   56.09    3.10
   3   1  -6   61.59    3.00
  -3  -1   6   61.49    2.80
  -3  -1   6   58.79    3.00
   2   1  -6    1.90    0.70
   2   1  -6    3.90    1.00
   2   1  -6    3.60    0.90
  -2  -1   6    2.40    0.70
  -2  -1   6    3.20    0.80
   1   1  -6   28.20    1.70
   1   1  -6   27.80    2.00
   1   1  -6   28.60    1.90
  -1  -1   6   28.60    1.70
   0   1  -6  101.69    4.20
   0   1  -6   93.49    4.00
   0   1  -6   90.49    4.10
   0   1  -6   94.09    3.80
   0   1  -6   97.29    3.70
   0  -1   6   95.09    3.80
  -1   1  -6    1.10    0.50
  -1   1  -6    1.90    0.80
  -1   1  -6    2.10    0.90
  -1   1  -6    1.30    0.70
  -1   1  -6    1.10    0.60
  -1   1  -6    1.90    0.80
  -2   1  -6   73.49    3.30
  -2   1  -6   64.89    3.00
  -2   1  -6   66.79    3.50
  -2   1  -6   68.49    3.10
  -2   1  -6   65.09    3.40
  -2   1  -6   68.99    3.40
  -3   1  -6    3.90    1.10
  -3   1  -6    2.00    0.90
  -3   1  -6    3.20    0.80
  -3   1  -6    3.40    0.90
  -3   1  -6    3.60    0.90
  -4   1  -6   16.20    1.60
  -4   1  -6   17.90    1.50
  -4   1  -6   16.50    1.70
  -4   1  -6   16.70    1.40
  -4   1  -6   18.30    1.40
  -5   1  -6   13.60    1.10
  -5   1  -6   14.80    1.00
  -5   1  -6   14.90    1.10
  -6   0   6   84.89    3.50
  -6   0   6   81.29    3.60
  -6   0   6   79.39    3.60
   5   0  -6   23.00    2.10
  -5   0   6   16.60    1.70
  -5   0   6   18.90    1.90
  -5   0   6   22.70    1.90
  -5   0   6   18.00    1.70
   4   0  -6  239.88    8.70
  -4   0   6  239.28    8.30
  -4   0   6  232.48    8.50
  -4   0   6  227.78    8.40
  -4   0   6  240.28    8.70
   3   0  -6   19.50    2.00
  -3   0   6   17.80    1.70
  -3   0   6   18.50    1.80
  -3   0   6   14.30    1.40
   2   0  -6    2.80    0.90
   2   0  -6    3.70    1.00
  -2   0   6    1.80    0.60
  -2   0   6    2.60    0.80
   1   0  -6    0.30    0.60
   1   0  -6   -0.10    0.50
   1   0  -6   -0.50    0.80
   1   0  -6    0.00    0.60
  -1   0   6   -0.10    0.40
   0   0  -6   69.69    2.90
   0   0  -6   68.59    3.20
   0   0  -6   71.19    3.20
   0   0  -6   66.99    2.80
   0   0   6   68.69    2.90
  -1   0  -6    1.60    0.50
  -1   0  -6    2.50    0.70
  -1   0  -6    2.00    0.70
  -1   0  -6    2.10    0.80
  -1   0  -6    1.70    0.70
  -1   0  -6    3.30    1.10
   1   0   6    1.50    0.60
  -2   0  -6   11.70    1.30
  -2   0  -6   11.60    1.20
  -2   0  -6   10.60    1.30
  -2   0  -6   10.60    1.20
  -2   0  -6   11.40    1.40
  -2   0  -6   10.20    1.40
   2   0   6   12.50    1.30
  -3   0  -6  219.08    8.30
  -3   0  -6  227.38    8.00
  -3   0  -6  235.18    8.60
  -3   0  -6  236.08    8.60
  -3   0  -6  246.48    8.30
  -3   0  -6  226.28    8.00
   3   0   6  219.88    7.80
  -4   0  -6  116.49    4.90
  -4   0  -6  125.39    4.90
  -4   0  -6  131.19    5.20
  -4   0  -6  126.99    5.20
  -4   0  -6  120.59    4.70
  -4   0  -6  118.09    5.30
  -5   0  -6    2.00    0.70
  -5   0  -6    1.10    0.60
  -5   0  -6    1.30    0.60
  -5   0  -6    1.50    0.60
  -5   0  -6    1.70    0.70
   6  -1  -6   -0.90    0.60
  -6   1   6   -0.20    0.50
  -6   1   6    0.10    0.60
  -6   1   6   -0.50    0.50
  -5   1   6    0.10    0.70
  -5   1   6    0.00    0.70
  -5   1   6   -0.30    0.70
  -4   1   6  126.39    5.20
  -4   1   6  129.49    5.30
  -4   1   6  128.99    5.40
  -4   1   6  134.69    5.30
  -4   1   6  131.69    5.10
   3  -1  -6    1.00    0.80
  -3   1   6    0.80    0.70
  -3   1   6   -0.20    0.70
  -3   1   6   -0.10    0.60
  -3   1   6    0.80    0.70
   2  -1  -6   58.69    2.90
   2  -1  -6   65.59    3.40
  -2   1   6   60.49    2.80
  -2   1   6   58.29    2.90
   1  -1  -6   14.80    1.40
   1  -1  -6   18.00    1.70
   1  -1  -6   12.10    1.50
  -1   1   6   15.10    1.20
   0  -1  -6   22.90    1.70
   0  -1  -6   21.60    1.60
   0  -1  -6   19.80    2.10
   0   1   6   23.30    1.50
  -1  -1  -6   10.30    1.10
  -1  -1  -6   10.50    1.00
  -1  -1  -6   10.50    1.40
  -1  -1  -6   14.10    1.60
  -1  -1  -6    8.60    1.50
  -1  -1  -6   12.60    1.30
   1   1   6   11.10    1.10
  -2  -1  -6    1.60    0.70
  -2  -1  -6    2.10    0.70
  -2  -1  -6    1.50    0.80
  -2  -1  -6    2.00    0.70
  -2  -1  -6    2.40    0.70
  -2  -1  -6    1.90    0.60
  -2  -1  -6    1.10    0.80
   2   1   6    0.90    0.60
  -3  -1  -6    4.60    1.20
  -3  -1  -6    4.00    0.90
  -3  -1  -6    4.60    0.80
  -3  -1  -6    4.60    1.00
  -3  -1  -6    4.90    0.90
  -3  -1  -6    3.50    0.90
  -3  -1  -6    4.40    1.00
  -4  -1  -6    9.50    1.20
  -4  -1  -6    9.80    1.40
  -4  -1  -6    7.60    1.40
  -4  -1  -6    9.60    1.40
  -4  -1  -6    9.00    1.30
  -4  -1  -6    9.00    1.50
  -5  -1  -6   14.80    1.50
  -5  -1  -6   12.70    1.50
  -5  -1  -6   14.80    1.70
  -5  -1  -6   15.80    1.80
  -5  -1  -6   13.70    1.30
  -5  -1  -6   14.00    1.40
  -6  -1  -6    3.10    0.80
  -6  -1  -6    4.10    1.00
  -6  -1  -6    3.10    0.60
  -6  -1  -6    3.70    0.80
  -6   2   6    0.90    0.50
  -6   2   6    0.00    0.50
  -6   2   6    0.80    0.50
   5  -2  -6   20.10    2.10
   5  -2  -6   22.70    1.90
  -5   2   6   26.50    1.70
  -5   2   6   23.80    2.10
  -5   2   6   24.70    1.80
  -5   2   6   22.60    1.80
   4  -2  -6    3.20    1.30
  -4   2   6    1.90    0.80
  -4   2   6    3.80    1.10
  -4   2   6    2.20    0.90
  -4   2   6    2.80    1.00
   3  -2  -6   12.00    1.90
  -3   2   6   12.70    1.40
  -3   2   6   11.30    1.50
  -3   2   6   15.20    1.70
  -3   2   6   10.70    1.30
   2  -2  -6   47.20    2.60
   2  -2  -6   49.30    3.00
  -2   2   6   46.90    2.50
  -2   2   6   44.60    2.40
  -2   2   6   46.30    2.40
   1  -2  -6   59.99    2.80
   1  -2  -6   56.99    3.10
  -1   2   6   59.19    2.70
  -1   2   6   57.79    2.70
   0  -2  -6   44.70    2.40
   0  -2  -6   45.20    2.30
   0  -2  -6   51.89    2.70
   0   2   6   47.60    2.20
  -1  -2  -6   -0.30    0.60
  -1  -2  -6    0.00    0.60
  -1  -2  -6    0.10    0.60
   1   2   6    0.40    0.40
  -2  -2  -6   26.60    1.90
  -2  -2  -6   26.20    1.70
  -2  -2  -6   25.40    1.60
  -2  -2  -6   24.60    1.50
  -2  -2  -6   24.70    1.80
  -2  -2  -6   25.20    1.80
  -3  -2  -6   27.60    1.90
  -3  -2  -6   31.20    1.90
  -3  -2  -6   28.50    1.90
  -3  -2  -6   29.00    2.10
  -3  -2  -6   27.90    2.00
  -3  -2  -6   29.90    1.90
  -3  -2  -6   29.40    2.10
  -3  -2  -6   27.20    1.80
  -4  -2  -6    6.10    1.20
  -4  -2  -6    4.50    1.00
  -4  -2  -6    3.60    1.00
  -4  -2  -6    5.00    1.10
  -4  -2  -6    5.70    1.00
  -4  -2  -6    3.90    1.20
  -4  -2  -6    4.50    1.10
  -5  -2  -6    6.90    1.10
  -5  -2  -6    7.30    1.20
  -5  -2  -6    6.90    1.30
  -5  -2  -6    6.20    1.20
  -5  -2  -6    5.70    1.00
  -5  -2  -6    7.20    1.20
  -6  -2  -6   10.60    1.20
  -6  -2  -6    9.30    1.10
  -6  -2  -6    8.90    1.20
  -6  -2  -6    8.50    1.10
  -6  -2  -6    9.80    1.30
  -5   3   6    0.10    0.50
  -5   3   6    0.20    0.40
  -5   3   6    0.10    0.60
  -5   3   6   -0.20    0.50
   4  -3  -6   16.80    2.10
  -4   3   6   15.20    1.60
  -4   3   6   12.50    1.50
  -4   3   6   11.30    1.40
  -4   3   6    8.30    1.10
   3  -3  -6  530.15   18.30
   3  -3  -6  613.44   19.30
  -3   3   6  573.74   18.50
  -3   3   6  529.95   18.50
  -3   3   6  578.24   18.40
  -3   3   6  581.44   18.40
   2  -3  -6  131.89    5.30
   2  -3  -6  134.39    5.80
  -2   3   6  132.79    5.30
  -2   3   6  136.99    5.30
  -2   3   6  133.09    5.30
  -2   3   6  138.79    5.40
  -2   3   6  129.29    5.00
   1  -3  -6   53.59    3.20
   1  -3  -6   52.79    2.70
  -1   3   6   56.59    2.60
  -1   3   6   49.30    2.50
  -1   3   6   52.89    2.70
   0  -3  -6    0.40    0.50
   0  -3  -6    0.00    0.70
   0   3   6    0.20    0.50
   0   3   6    1.00    0.60
   0   3   6    0.00    0.50
  -1  -3  -6    5.30    1.10
  -1  -3  -6    5.90    1.00
   1   3   6    6.60    1.00
   1   3   6    6.00    0.90
   1   3   6    4.50    0.80
  -2  -3  -6   43.40    2.50
  -2  -3  -6   43.40    2.30
  -2  -3  -6   40.20    2.30
  -2  -3  -6   40.00    2.20
   2   3   6   41.20    2.20
  -3  -3  -6   18.30    1.80
  -3  -3  -6   16.50    1.80
  -3  -3  -6   13.00    1.40
  -3  -3  -6   16.80    1.70
  -3  -3  -6   11.80    1.20
  -3  -3  -6   14.70    1.70
   3   3   6   17.80    1.50
  -4  -3  -6    7.20    1.30
  -4  -3  -6    5.40    1.20
  -4  -3  -6    7.20    1.10
  -4  -3  -6    6.50    1.20
  -4  -3  -6    8.70    1.50
  -4  -3  -6    5.30    1.00
  -4  -3  -6    4.80    1.00
   4   3   6    7.50    1.00
  -5  -3  -6    2.10    0.90
  -5  -3  -6    2.30    0.80
  -5  -3  -6    2.90    1.10
  -5  -3  -6    3.50    1.00
  -5  -3  -6    1.20    0.80
  -5  -3  -6    0.70    0.80
  -5  -3  -6    2.30    0.90
   5   3   6    1.80    0.70
  -6  -3  -6   14.10    1.60
  -6  -3  -6    9.40    1.20
  -6  -3  -6   16.00    1.70
  -6  -3  -6   12.10    1.30
  -6  -3  -6   15.90    1.70
  -7  -3  -6    3.00    0.70
  -7  -3  -6    2.90    0.60
  -7  -3  -6    1.60    0.50
  -4   4   6    0.80    0.60
  -4   4   6    0.50    0.50
  -4   4   6   -0.10    0.70
  -4   4   6    0.40    0.70
   3  -4  -6    4.10    1.30
  -3   4   6    3.50    1.00
  -3   4   6    3.80    1.00
  -3   4   6    2.20    0.90
  -3   4   6    4.80    1.00
   2  -4  -6   42.50    3.00
  -2   4   6   40.70    2.40
  -2   4   6   42.20    2.50
  -2   4   6   42.60    2.40
  -2   4   6   41.20    2.50
  -2   4   6   39.50    2.50
   1  -4  -6  119.29    5.30
  -1   4   6  123.19    4.70
  -1   4   6  111.89    4.70
  -1   4   6  115.59    4.70
  -1   4   6  118.19    4.80
   0  -4  -6  701.33   22.90
   0  -4  -6  723.43   23.60
   0   4   6  750.12   23.00
   0   4   6  729.93   23.00
  -1  -4  -6  236.18    8.10
  -1  -4  -6  224.58    8.00
  -1  -4  -6  232.78    8.60
   1   4   6  234.78    7.90
   1   4   6  229.28    8.00
  -2  -4  -6    6.40    1.20
  -2  -4  -6    7.00    1.00
   2   4   6    9.50    1.10
   2   4   6    9.80    1.20
  -3  -4  -6   94.39    4.20
  -3  -4  -6   88.89    4.30
  -3  -4  -6   97.09    4.10
   3   4   6   91.79    3.90
   3   4   6   97.59    3.90
  -4  -4  -6  207.18    7.90
  -4  -4  -6  191.48    7.50
  -4  -4  -6  200.18    8.40
  -4  -4  -6  201.28    7.70
  -4  -4  -6  196.98    7.40
  -4  -4  -6  194.38    7.30
   4   4   6  196.58    7.00
  -5  -4  -6   81.99    4.10
  -5  -4  -6   82.39    4.00
  -5  -4  -6   82.59    3.90
  -5  -4  -6   80.59    3.80
  -5  -4  -6   79.29    3.60
  -5  -4  -6   84.19    3.90
  -6  -4  -6   14.60    1.60
  -6  -4  -6   12.50    1.40
  -6  -4  -6   11.40    1.50
  -6  -4  -6    9.40    1.20
  -6  -4  -6   12.50    1.50
  -6  -4  -6   13.70    1.50
   6   4   6   14.30    1.40
  -7  -4  -6    1.30    0.50
  -7  -4  -6    1.40    0.60
  -7  -4  -6    1.20    0.60
  -7  -4  -6    2.10    0.70
  -3   5   6    0.00    0.70
  -3   5   6    0.20    0.70
  -3   5   6    0.30    0.60
  -2   5   6   44.90    2.60
  -2   5   6   51.19    2.90
  -2   5   6   48.90    2.60
  -2   5   6   45.80    2.50
   1  -5  -6   25.80    2.30
  -1   5   6   26.70    1.90
  -1   5   6   24.00    2.00
  -1   5   6   31.90    2.10
   0  -5  -6  556.64   18.10
   0  -5  -6  573.34   18.40
   0   5   6  543.05   17.80
   0   5   6  546.95   17.60
   0   5   6  534.55   17.80
  -1  -5  -6  276.17   10.00
  -1  -5  -6  283.17    9.60
   1   5   6  265.47    9.40
   1   5   6  272.97    9.30
  -2  -5  -6   21.20    1.70
  -2  -5  -6   16.90    1.60
  -2  -5  -6   23.30    2.00
   2   5   6   21.30    1.70
   2   5   6   22.00    1.60
  -3  -5  -6  181.18    6.70
  -3  -5  -6  158.28    6.10
  -3  -5  -6  156.98    5.90
   3   5   6  151.98    5.90
   3   5   6  154.08    6.00
  -4  -5  -6  201.18    7.50
  -4  -5  -6  209.18    7.90
   4   5   6  196.98    7.10
   4   5   6  199.28    7.30
  -5  -5  -6    2.00    0.80
  -5  -5  -6    2.30    0.90
  -5  -5  -6    2.40    0.90
  -5  -5  -6    1.80    1.00
   5   5   6    2.20    0.90
  -6  -5  -6   13.40    1.60
  -6  -5  -6   16.80    1.50
  -6  -5  -6   15.20    1.60
  -6  -5  -6   15.40    1.60
  -6  -5  -6   11.80    1.30
  -6  -5  -6   13.90    1.40
   6   5   6   14.40    1.30
  -7  -5  -6   20.90    1.40
  -7  -5  -6   18.60    1.40
  -7  -5  -6   19.60    1.30
  -7  -5  -6   20.60    1.50
   2  -6  -6    3.10    0.90
  -2   6   6    2.40    0.70
  -2   6   6    3.60    0.90
  -2   6   6    3.20    0.80
  -2   6   6    4.10    0.90
   1  -6  -6   19.50    2.00
  -1   6   6   20.30    1.90
  -1   6   6   16.30    1.50
  -1   6   6   12.80    1.40
   0  -6  -6   48.80    2.90
   0   6   6   44.20    2.40
   0   6   6   44.80    2.60
   0   6   6   46.60    2.50
  -1  -6  -6   34.20    2.40
  -1  -6  -6   36.00    2.50
   1   6   6   38.50    2.30
   1   6   6   37.10    2.30
  -2  -6  -6    5.50    1.10
  -2  -6  -6    4.00    1.10
   2   6   6    5.30    1.00
   2   6   6    3.90    0.90
  -3  -6  -6  165.28    6.00
  -3  -6  -6  163.78    6.50
   3   6   6  150.88    6.00
   3   6   6  155.28    5.90
  -4  -6  -6   13.70    1.90
  -4  -6  -6   12.00    1.40
  -4  -6  -6   15.80    1.60
   4   6   6   17.50    1.70
  -5  -6  -6    1.40    0.70
  -5  -6  -6    1.70    0.90
   5   6   6    1.60    0.80
  -6  -6  -6   17.80    1.60
  -6  -6  -6   18.20    1.70
  -6  -6  -6   22.20    1.70
   6   6   6   21.00    1.50
  -7  -6  -6   42.20    2.10
   1  -7  -6   26.00    1.70
   1  -7  -6   24.80    1.70
  -1   7   6   23.80    1.40
  -1   7   6   26.20    1.50
   0  -7  -6    4.90    1.00
   0  -7  -6    6.00    1.10
   0   7   6    4.40    0.80
   0   7   6    5.20    0.90
  -1  -7  -6   11.30    1.30
  -1  -7  -6   15.10    1.70
   1   7   6    8.40    1.10
   1   7   6   11.90    1.30
  -2  -7  -6   46.90    2.60
   2   7   6   45.00    2.50
   2   7   6   47.30    2.50
  -3  -7  -6    0.10    0.70
  -3  -7  -6    0.40    0.70
   3   7   6   -0.60    0.70
   3   7   6   -0.20    0.50
  -4  -7  -6    8.70    1.40
  -4  -7  -6    7.90    1.10
   4   7   6   10.80    1.30
  -5  -7  -6   40.10    2.40
  -5  -7  -6   36.20    2.00
   5   7   6   40.40    2.20
   6   7   6    0.80    0.50
  -1  -8  -6    0.70    0.60
  -1  -8  -6    0.50    0.70
   1   8   6    0.20    0.40
   1   8   6    0.30    0.50
  -2  -8  -6    6.80    1.00
   2   8   6    5.20    0.80
   2   8   6    6.20    0.90
  -3  -8  -6    1.50    0.70
   3   8   6    1.30    0.60
  -4  -8  -6   18.20    1.40
   4   8   6   18.70    1.40
  -5  -8  -6   -0.10    0.40
   5   8   6   -0.60    0.40
   5   4  -7    9.10    1.00
   5   4  -7    7.90    1.00
  -5  -4   7   10.00    1.00
   4   4  -7    1.60    0.60
   4   4  -7    1.20    0.70
  -4  -4   7    0.60    0.60
   3   4  -7    0.50    0.60
   3   4  -7    0.20    0.70
  -3  -4   7    0.00    0.60
   2   4  -7    6.30    1.10
   2   4  -7    7.30    1.00
   2   4  -7    6.30    0.90
   1   4  -7   19.40    1.50
   1   4  -7   14.90    1.50
   1   4  -7   18.10    1.50
  -1  -4   7   15.90    1.20
   0   4  -7  137.19    5.00
   0   4  -7  133.99    5.10
   0  -4   7  139.39    4.80
   6   3  -7   50.59    2.40
  -6  -3   7   48.50    2.30
   5   3  -7    3.80    0.90
   5   3  -7    3.30    0.80
  -5  -3   7    3.80    0.90
   4   3  -7    8.70    1.30
   4   3  -7   10.50    1.40
  -4  -3   7   10.50    1.40
   3   3  -7    1.70    0.80
   3   3  -7    1.80    0.90
  -3  -3   7    2.20    0.80
   2   3  -7    2.70    0.80
   2   3  -7    3.80    1.00
   2   3  -7    4.80    1.00
  -2  -3   7    2.80    0.70
   1   3  -7   35.50    2.40
   1   3  -7   32.00    2.10
   1   3  -7   36.70    2.10
  -1  -3   7   33.40    2.00
   0   3  -7   43.50    2.60
   0   3  -7   42.60    2.40
   0   3  -7   42.90    2.30
   0  -3   7   41.90    2.30
  -1   3  -7    5.60    1.00
  -1   3  -7    3.30    0.80
  -1   3  -7    4.00    0.80
   1  -3   7    4.00    0.80
  -2   3  -7    4.00    0.70
  -2   3  -7    5.50    0.70
  -2   3  -7    4.40    0.80
   2  -3   7    5.10    0.70
   6   2  -7   42.70    2.10
   6   2  -7   41.50    2.20
  -6  -2   7   39.50    2.20
  -6  -2   7   41.10    2.00
   5   2  -7  121.19    5.00
   5   2  -7  117.99    4.70
  -5  -2   7  118.39    4.90
   4   2  -7   -0.20    0.70
   4   2  -7    0.50    0.80
   4   2  -7    0.00    0.60
  -4  -2   7    0.70    0.80
   3   2  -7    0.20    0.80
   3   2  -7   -0.10    0.70
  -3  -2   7   -0.50    0.60
   2   2  -7   14.40    1.70
   2   2  -7   13.30    1.80
   2   2  -7   11.50    1.50
  -2  -2   7   14.60    1.40
   1   2  -7   21.50    2.10
   1   2  -7   21.40    1.70
   1   2  -7   24.00    1.90
  -1  -2   7   20.60    1.60
   0   2  -7    1.40    0.80
   0   2  -7    1.10    0.70
   0   2  -7    1.60    0.90
   0   2  -7    2.20    0.80
   0  -2   7    1.50    0.80
  -1   2  -7   27.80    1.70
  -1   2  -7   27.40    2.20
  -1   2  -7   28.20    2.10
  -1   2  -7   27.90    1.90
   1  -2   7   28.70    2.00
  -2   2  -7    0.70    0.60
  -2   2  -7    2.40    0.80
  -2   2  -7    1.00    0.60
  -2   2  -7    1.20    0.70
  -2   2  -7    1.70    0.60
   2  -2   7    0.90    0.70
  -3   2  -7   18.10    1.20
  -3   2  -7   16.90    1.20
  -3   2  -7   18.90    1.50
  -3   2  -7   15.80    1.30
   3  -2   7   17.80    1.30
   6   1  -7  116.79    4.50
   6   1  -7  121.39    4.60
  -6  -1   7  113.59    4.50
  -6  -1   7  114.69    4.40
   5   1  -7   34.60    2.60
   5   1  -7   38.00    2.50
  -5  -1   7   36.00    2.20
  -5  -1   7   36.60    2.40
   4   1  -7   81.99    3.90
   4   1  -7   70.69    3.90
  -4  -1   7   78.09    3.70
   3   1  -7  157.48    6.10
   3   1  -7  145.99    5.80
   3   1  -7  146.09    5.80
  -3  -1   7  152.98    5.60
  -3  -1   7  149.69    5.90
   2   1  -7   10.60    1.40
   2   1  -7    9.90    1.50
   2   1  -7    8.10    1.20
  -2  -1   7    8.20    1.10
   1   1  -7    2.60    0.90
  -1  -1   7    2.60    0.70
   0   1  -7    0.20    0.70
   0   1  -7    0.40    0.70
   0   1  -7    0.00    0.60
   0  -1   7   -0.30    0.60
  -1   1  -7   -0.10    0.80
  -1   1  -7    0.20    0.60
  -1   1  -7    0.90    0.70
  -1   1  -7    0.80    0.70
  -1   1  -7   -0.20    0.60
   1  -1   7    0.90    0.70
  -2   1  -7    5.10    1.10
  -2   1  -7    3.80    0.80
  -2   1  -7    4.30    0.90
  -2   1  -7    6.80    1.30
  -2   1  -7    4.20    0.90
  -2   1  -7    4.50    0.90
   2  -1   7    4.50    1.00
  -3   1  -7    3.30    0.90
  -3   1  -7    2.30    0.80
  -3   1  -7    2.30    0.70
  -3   1  -7    3.20    0.80
  -3   1  -7    2.40    0.80
   3  -1   7    1.80    0.70
  -4   1  -7   31.20    1.60
  -4   1  -7   30.30    1.80
  -4   1  -7   29.90    1.60
  -4   1  -7   27.80    1.70
   6   0  -7    1.60    0.70
  -6   0   7    1.90    0.70
  -6   0   7    2.60    0.60
  -6   0   7    1.60    0.60
   5   0  -7  243.18    9.10
   5   0  -7  238.98    8.50
  -5   0   7  234.38    8.20
  -5   0   7  229.58    8.30
  -5   0   7  249.97    8.60
   4   0  -7  197.88    7.70
   4   0  -7  214.98    8.30
  -4   0   7  207.78    7.70
  -4   0   7  209.88    7.40
   3   0  -7   83.59    3.90
   3   0  -7   78.69    3.90
   3   0  -7   91.39    4.40
  -3   0   7   78.89    3.80
  -3   0   7   86.79    3.60
   2   0  -7   85.79    4.00
   2   0  -7   84.99    4.10
   2   0  -7   93.49    3.90
  -2   0   7   86.09    3.70
   1   0  -7   22.00    1.70
   1   0  -7   25.60    1.90
   1   0  -7   27.40    2.00
  -1   0   7   24.50    1.70
   0   0  -7   24.40    1.70
   0   0  -7   23.70    1.90
   0   0  -7   24.20    2.00
   0   0   7   24.70    1.70
  -1   0  -7   39.00    2.50
  -1   0  -7   42.50    2.60
  -1   0  -7   40.30    2.20
  -1   0  -7   35.20    2.10
   1   0   7   39.20    2.20
  -2   0  -7    7.70    1.30
  -2   0  -7   13.00    1.50
  -2   0  -7   12.30    1.60
  -2   0  -7   13.70    1.40
  -2   0  -7   19.70    1.60
  -2   0  -7   10.50    1.40
   2   0   7   10.10    1.20
  -3   0  -7   27.20    1.80
  -3   0  -7   26.90    2.10
  -3   0  -7   23.90    1.80
  -3   0  -7   26.80    2.10
  -3   0  -7   25.90    1.90
  -3   0  -7   26.60    1.90
   3   0   7   23.40    1.70
  -4   0  -7   19.00    1.70
  -4   0  -7   20.10    1.60
  -4   0  -7   21.70    1.80
  -4   0  -7   19.30    1.50
  -4   0  -7   20.00    1.70
  -4   0  -7   20.90    1.50
  -5   0  -7    1.20    0.50
  -5   0  -7    2.00    0.50
  -5   0  -7    1.50    0.50
  -6   1   7   12.30    1.70
  -6   1   7   15.10    1.20
  -6   1   7   16.20    1.40
   5  -1  -7    3.80    1.20
   5  -1  -7    4.00    1.00
  -5   1   7    4.10    0.90
  -5   1   7    4.30    1.00
  -5   1   7    3.00    0.80
   4  -1  -7    8.80    1.60
   4  -1  -7   17.80    1.90
  -4   1   7   11.30    1.40
  -4   1   7   15.20    1.50
  -4   1   7    9.50    1.30
  -4   1   7   12.40    1.40
   3  -1  -7   54.29    3.10
   3  -1  -7   57.99    3.60
   3  -1  -7   62.19    3.20
  -3   1   7   61.99    3.20
  -3   1   7   63.29    3.00
   2  -1  -7  113.19    5.00
   2  -1  -7  110.59    4.60
   2  -1  -7  109.29    4.70
  -2   1   7  110.49    4.50
   1  -1  -7  197.38    7.50
   1  -1  -7  206.68    7.70
   1  -1  -7  207.88    7.30
  -1   1   7  197.88    7.20
   0  -1  -7    1.90    0.80
   0  -1  -7    0.80    0.60
   0  -1  -7    3.00    1.00
   0   1   7    2.60    0.60
   0   1   7    0.90    0.60
  -1  -1  -7    0.80    0.70
  -1  -1  -7    1.10    0.70
  -1  -1  -7    1.90    0.70
   1   1   7    1.00    0.70
  -2  -1  -7   34.70    2.10
  -2  -1  -7   32.60    2.10
  -2  -1  -7   35.50    2.40
  -2  -1  -7   30.30    2.00
  -2  -1  -7   33.10    2.30
  -2  -1  -7   34.20    2.00
  -2  -1  -7   34.00    2.00
   2   1   7   30.20    1.90
  -3  -1  -7    5.70    1.10
  -3  -1  -7    7.40    1.20
  -3  -1  -7    4.60    1.10
  -3  -1  -7    4.70    1.00
  -3  -1  -7    5.30    1.00
  -3  -1  -7    6.10    1.20
  -4  -1  -7   -0.20    0.70
  -4  -1  -7   -0.60    0.60
  -4  -1  -7   -0.20    0.60
  -4  -1  -7   -0.30    0.70
  -4  -1  -7    0.40    0.70
  -4  -1  -7    0.30    0.60
  -5  -1  -7    0.20    0.60
  -5  -1  -7    0.10    0.50
  -5  -1  -7    0.40    0.60
  -5  -1  -7    0.40    0.60
  -5  -1  -7    0.10    0.60
   5  -2  -7    2.10    0.70
  -5   2   7    2.60    0.70
  -5   2   7    3.10    0.70
  -5   2   7    2.40    0.80
   4  -2  -7   25.40    2.00
   4  -2  -7   26.20    2.50
  -4   2   7   23.10    1.80
  -4   2   7   24.30    1.80
  -4   2   7   27.50    2.00
  -4   2   7   23.60    1.90
   3  -2  -7   91.89    4.10
   3  -2  -7   93.69    4.70
  -3   2   7   92.19    4.00
  -3   2   7   87.19    3.80
  -3   2   7   81.99    3.90
  -3   2   7   89.69    4.00
   2  -2  -7   21.60    2.00
   2  -2  -7   22.50    2.20
  -2   2   7   21.80    1.80
   1  -2  -7    5.80    1.10
   1  -2  -7    3.90    0.90
   1  -2  -7    5.80    1.30
  -1   2   7    5.70    1.00
  -1   2   7    4.40    0.80
   0  -2  -7    1.00    0.70
   0  -2  -7    0.60    0.60
   0  -2  -7    1.10    0.80
   0   2   7    1.10    0.60
   0   2   7    0.50    0.60
  -1  -2  -7   88.39    3.80
  -1  -2  -7   90.79    4.00
  -1  -2  -7   90.39    4.00
   1   2   7   78.19    3.50
   1   2   7   87.79    3.60
  -2  -2  -7    4.70    1.00
  -2  -2  -7    4.40    1.00
  -2  -2  -7    7.40    1.10
  -2  -2  -7    6.40    1.10
  -2  -2  -7    6.30    1.20
   2   2   7    6.40    1.00
   2   2   7    6.20    0.90
  -3  -2  -7   55.69    2.90
  -3  -2  -7   62.09    3.20
  -3  -2  -7   52.49    2.80
  -3  -2  -7   51.39    2.80
  -3  -2  -7   55.49    3.20
  -3  -2  -7   54.69    2.80
  -4  -2  -7    1.00    0.80
  -4  -2  -7    1.60    0.80
  -4  -2  -7    1.40    0.90
  -4  -2  -7    0.90    0.70
  -4  -2  -7    1.00    0.70
  -4  -2  -7    1.00    0.80
  -5  -2  -7   12.90    1.50
  -5  -2  -7   17.30    1.50
  -5  -2  -7   15.40    1.70
  -5  -2  -7   15.80    1.50
  -5  -2  -7   15.50    1.60
   5   2   7   16.00    1.30
  -6  -2  -7   11.80    1.20
  -6  -2  -7    9.50    1.10
  -6  -2  -7    7.40    0.90
  -5   3   7   13.00    1.10
  -5   3   7   12.70    1.10
  -5   3   7   10.50    1.00
   4  -3  -7   11.10    1.60
  -4   3   7   11.40    1.30
  -4   3   7   11.30    1.20
  -4   3   7   12.40    1.30
  -4   3   7    9.50    1.10
   3  -3  -7    9.70    1.30
   3  -3  -7   10.00    1.70
  -3   3   7    8.60    1.20
  -3   3   7    8.70    1.20
  -3   3   7    9.50    1.20
  -3   3   7    9.70    1.30
   2  -3  -7    0.00    0.70
   2  -3  -7   -1.00    0.90
  -2   3   7   -0.70    0.60
  -2   3   7    0.60    0.70
   1  -3  -7    5.80    1.30
   1  -3  -7    6.70    1.20
  -1   3   7    6.70    1.10
  -1   3   7    5.60    0.90
  -1   3   7    6.70    1.00
   0  -3  -7    1.20    0.70
   0  -3  -7    1.30    1.00
   0   3   7    1.90    0.70
   0   3   7    1.30    0.70
  -1  -3  -7    1.30    0.90
  -1  -3  -7    3.50    0.90
  -1  -3  -7    1.90    0.80
   1   3   7    1.40    0.70
   1   3   7    1.50    0.70
  -2  -3  -7  294.57   10.40
  -2  -3  -7  301.67   10.60
  -2  -3  -7  313.67   10.80
   2   3   7  300.27   10.20
  -3  -3  -7  677.43   21.80
  -3  -3  -7  690.73   22.00
  -3  -3  -7  688.43   21.90
  -3  -3  -7  696.53   21.70
  -3  -3  -7  666.83   22.10
   3   3   7  654.13   21.50
  -4  -3  -7    0.30    0.80
  -4  -3  -7    0.00    0.70
  -4  -3  -7    0.30    0.70
  -4  -3  -7    1.00    0.80
  -4  -3  -7    0.10    0.70
  -4  -3  -7   -0.10    0.60
  -4  -3  -7   -0.30    0.80
   4   3   7   -0.20    0.60
  -5  -3  -7  107.49    4.60
  -5  -3  -7  112.19    4.60
  -5  -3  -7  112.39    4.70
  -5  -3  -7  107.19    4.40
  -5  -3  -7  111.89    4.90
  -5  -3  -7  114.39    4.60
   5   3   7  106.99    4.20
  -6  -3  -7    1.10    0.50
  -6  -3  -7    0.90    0.60
  -6  -3  -7    1.00    0.70
  -6  -3  -7    0.20    0.50
  -4   4   7   15.50    1.20
  -4   4   7   17.10    1.30
  -4   4   7   14.00    1.30
  -4   4   7   16.70    1.20
   3  -4  -7   14.20    1.80
  -3   4   7   13.00    1.40
  -3   4   7   11.00    1.30
  -3   4   7   10.10    1.20
  -3   4   7   10.60    1.30
   2  -4  -7   -0.70    0.90
  -2   4   7    0.30    0.70
  -2   4   7    0.40    0.60
  -2   4   7    1.20    0.80
  -2   4   7    0.70    0.80
   1  -4  -7    1.20    1.10
   1  -4  -7    0.80    0.70
  -1   4   7    1.20    0.70
  -1   4   7    1.20    0.80
  -1   4   7    0.50    0.70
   0  -4  -7   24.10    2.00
   0  -4  -7   16.80    1.60
   0  -4  -7   23.50    2.40
   0   4   7   19.60    1.70
   0   4   7   20.70    1.90
  -1  -4  -7   13.00    1.50
  -1  -4  -7   18.20    2.00
   1   4   7   11.50    1.30
   1   4   7   13.20    1.50
   1   4   7   12.60    1.30
  -2  -4  -7   19.60    2.10
  -2  -4  -7   17.80    1.80
   2   4   7   19.30    1.70
   2   4   7   17.30    1.60
  -3  -4  -7   30.20    2.10
  -3  -4  -7   28.00    2.20
  -3  -4  -7   27.90    2.30
   3   4   7   28.30    1.90
   3   4   7   30.50    2.00
  -4  -4  -7   54.39    3.20
  -4  -4  -7   52.89    3.20
  -4  -4  -7   54.89    3.10
   4   4   7   56.89    2.80
   4   4   7   62.69    3.00
  -5  -4  -7   56.79    2.90
  -5  -4  -7   64.09    3.30
  -5  -4  -7   56.69    3.10
  -5  -4  -7   57.39    3.00
  -5  -4  -7   60.59    3.20
  -5  -4  -7   55.89    3.00
   5   4   7   51.89    2.60
   5   4   7   62.99    2.90
  -6  -4  -7   83.29    3.60
  -6  -4  -7   72.79    3.30
  -6  -4  -7   77.09    3.40
  -6  -4  -7   77.19    3.30
   6   4   7   81.99    3.30
   3  -5  -7    3.20    0.90
  -3   5   7    3.70    0.70
  -3   5   7    2.40    0.70
  -3   5   7    4.20    0.80
   2  -5  -7   16.10    1.80
  -2   5   7   14.00    1.40
  -2   5   7   18.10    1.40
  -2   5   7   21.60    1.60
   1  -5  -7   -0.30    0.90
   1  -5  -7    0.30    0.90
  -1   5   7    0.30    0.70
  -1   5   7    0.00    0.60
   0  -5  -7   19.40    2.10
   0  -5  -7   17.60    1.80
   0   5   7   18.40    1.70
   0   5   7   22.80    1.80
  -1  -5  -7   56.39    2.90
  -1  -5  -7   54.49    3.30
  -1  -5  -7   54.49    2.90
   1   5   7   55.79    2.90
   1   5   7   55.69    2.70
  -2  -5  -7    2.90    0.90
  -2  -5  -7    4.70    1.20
   2   5   7    2.40    0.80
   2   5   7    4.50    0.90
  -3  -5  -7   -0.30    0.60
  -3  -5  -7    0.30    0.80
   3   5   7   -0.10    0.60
   3   5   7   -0.10    0.60
  -4  -5  -7   21.10    2.10
  -4  -5  -7   24.40    2.00
   4   5   7   22.20    1.70
   4   5   7   28.10    2.00
  -5  -5  -7  117.29    5.20
  -5  -5  -7  119.49    5.00
  -5  -5  -7  130.59    5.10
   5   5   7  127.29    4.90
  -6  -5  -7  208.18    7.30
  -6  -5  -7  198.08    7.10
  -6  -5  -7  202.78    7.20
   6   5   7  207.58    7.00
   2  -6  -7   18.30    1.50
  -2   6   7   17.90    1.20
  -2   6   7   17.50    1.30
   1  -6  -7    6.20    1.20
  -1   6   7    4.60    0.90
  -1   6   7    5.20    0.90
   0  -6  -7    0.70    0.80
   0  -6  -7    1.70    0.90
   0   6   7    1.40    0.80
   0   6   7    2.40    0.80
  -1  -6  -7    0.40    0.90
  -1  -6  -7    0.60    0.80
   1   6   7    0.30    0.70
   1   6   7    0.70    0.70
  -2  -6  -7    6.10    1.10
  -2  -6  -7    6.30    1.30
   2   6   7    5.00    1.00
   2   6   7    4.60    1.00
  -3  -6  -7   11.50    1.30
  -3  -6  -7   15.60    1.90
  -3  -6  -7   13.40    1.40
   3   6   7   13.60    1.50
   3   6   7   11.90    1.30
  -4  -6  -7   17.50    1.70
  -4  -6  -7   12.70    1.60
   4   6   7   19.00    1.50
   4   6   7   18.10    1.60
  -5  -6  -7    2.40    0.90
  -5  -6  -7    2.50    0.80
   5   6   7    3.00    0.80
  -6  -6  -7    1.30    0.60
   6   6   7    1.10    0.50
   1  -7  -7   87.29    3.50
   0  -7  -7    1.70    0.80
   0   7   7    1.40    0.60
  -1  -7  -7    0.70    0.70
   1   7   7    0.10    0.60
   1   7   7    0.20    0.50
  -2  -7  -7    1.00    0.70
  -2  -7  -7    1.20    0.80
   2   7   7    0.40    0.60
   2   7   7    0.10    0.60
  -3  -7  -7    4.70    0.90
  -3  -7  -7    5.70    1.10
   3   7   7    4.60    0.80
   3   7   7    6.30    1.00
  -4  -7  -7    7.80    1.00
  -4  -7  -7    9.60    1.40
   4   7   7    9.90    1.10
   5   7   7    2.10    0.60
  -2  -8  -7    7.90    0.90
   2   8   7    8.00    0.90
   2   8   7   10.60    1.00
  -3  -8  -7    1.70    0.60
   3   8   7    3.60    0.70
   4   8   7    3.70    0.70
   2   4  -8   33.50    2.40
   4   3  -8    3.90    0.80
   4   3  -8    3.60    0.80
  -4  -3   8    3.30    0.80
   3   3  -8    2.20    0.70
   3   3  -8    1.70    0.70
   2   3  -8    4.10    0.80
   2   3  -8    4.60    1.00
  -2  -3   8    5.60    0.80
   1   3  -8    9.40    1.20
  -1  -3   8    7.10    0.90
   0   3  -8   40.90    2.10
   0   3  -8   43.30    2.30
   0  -3   8   41.70    2.00
   5   2  -8    5.90    0.90
  -5  -2   8    6.90    1.00
   4   2  -8   80.79    3.70
   4   2  -8   86.79    3.80
  -4  -2   8   86.09    3.60
   3   2  -8  159.68    6.10
   3   2  -8  159.68    6.20
   2   2  -8   38.60    2.40
   2   2  -8   31.20    2.20
  -2  -2   8   36.40    2.00
   1   2  -8    1.10    0.70
   1   2  -8    0.20    0.70
   1   2  -8    0.40    0.70
  -1  -2   8    0.60    0.60
   0   2  -8   37.20    2.20
   0   2  -8   41.10    2.20
   0   2  -8   40.60    2.50
   0   2  -8   38.80    2.20
   0  -2   8   42.90    2.20
  -1   2  -8    0.60    0.70
  -1   2  -8    1.30    0.60
  -1   2  -8    0.90    0.60
   1  -2   8    0.90    0.60
  -2   2  -8   27.30    1.70
  -2   2  -8   30.30    1.70
   2  -2   8   28.20    1.50
   5   1  -8   -0.10    0.60
   5   1  -8    0.70    0.70
  -5  -1   8    0.10    0.60
   4   1  -8    1.20    0.80
   4   1  -8    1.20    0.80
  -4  -1   8    1.80    0.80
   3   1  -8    3.50    1.10
   3   1  -8    2.10    0.80
  -3  -1   8    2.00    0.70
   2   1  -8   17.50    1.90
   2   1  -8   17.40    1.80
  -2  -1   8   13.80    1.30
   1   1  -8  193.88    7.30
   1   1  -8  200.18    7.40
  -1  -1   8  185.48    6.90
   0   1  -8  359.46   12.20
   0   1  -8  344.17   11.60
   0   1  -8  335.17   12.00
   0  -1   8  363.76   11.70
  -1   1  -8   33.70    2.20
  -1   1  -8   33.70    2.10
  -1   1  -8   35.40    2.40
  -1   1  -8   35.50    2.10
   1  -1   8   35.50    2.10
  -2   1  -8   38.70    2.40
  -2   1  -8   42.80    2.20
  -2   1  -8   38.80    2.10
  -2   1  -8   35.40    2.20
   2  -1   8   37.90    2.10
  -3   1  -8   24.50    1.70
  -3   1  -8   24.70    1.60
  -3   1  -8   22.60    1.30
   3  -1   8   22.20    1.30
   5   0  -8   16.00    1.40
   5   0  -8   13.10    1.30
  -5   0   8   18.30    1.50
   4   0  -8  124.29    5.00
   4   0  -8  127.29    5.10
   4   0  -8  126.79    5.30
  -4   0   8  120.49    4.90
  -4   0   8  109.29    4.80
   3   0  -8   35.40    2.30
   3   0  -8   34.70    2.40
   3   0  -8   37.40    3.00
  -3   0   8   34.60    2.10
   2   0  -8   10.10    1.30
   2   0  -8   11.70    1.60
  -2   0   8    8.20    1.20
   1   0  -8    4.00    1.10
   1   0  -8    4.00    1.00
   1   0  -8    5.20    1.00
  -1   0   8    3.90    0.90
   0   0  -8   87.29    4.10
   0   0  -8   84.79    4.20
   0   0   8   89.59    3.80
   0   0   8   99.39    4.80
  -1   0  -8  568.84   18.20
  -1   0  -8  525.05   17.60
  -1   0  -8  530.55   18.10
   1   0   8  574.94   17.70
  -2   0  -8   55.49    3.10
  -2   0  -8   61.49    2.90
  -2   0  -8   61.29    3.20
  -2   0  -8   56.09    2.90
   2   0   8   58.99    2.80
  -3   0  -8   72.39    3.10
  -3   0  -8   74.09    3.50
  -3   0  -8   74.29    3.20
  -3   0  -8   74.19    3.50
  -3   0  -8   78.19    3.30
   3   0   8   71.09    3.00
  -4   0  -8   15.90    1.20
  -4   0  -8   15.60    1.20
  -4   0  -8   15.60    1.30
   4   0   8   16.40    1.20
   5  -1  -8    5.70    0.90
  -5   1   8    7.00    1.00
   4  -1  -8    6.60    1.40
   4  -1  -8   10.40    1.40
  -4   1   8    7.20    1.00
  -4   1   8    7.30    1.10
   3  -1  -8    4.60    1.30
   3  -1  -8    2.80    1.00
   3  -1  -8    3.30    1.00
  -3   1   8    2.90    0.90
   2  -1  -8    5.00    1.10
   2  -1  -8    4.60    1.30
   2  -1  -8    4.80    1.20
  -2   1   8    2.30    0.80
   1  -1  -8    8.80    1.30
   1  -1  -8    7.70    1.30
   1  -1  -8    7.50    1.30
  -1   1   8   10.10    1.30
   0  -1  -8   -0.70    0.60
   0  -1  -8    0.00    0.80
   0   1   8    0.50    0.60
   0   1   8   -0.70    0.50
  -1  -1  -8   10.50    1.40
  -1  -1  -8   12.90    1.40
  -1  -1  -8   12.60    1.60
   1   1   8   14.30    1.40
   1   1   8   12.30    1.20
  -2  -1  -8  187.38    7.30
  -2  -1  -8  193.18    6.90
  -2  -1  -8  192.68    7.30
  -2  -1  -8  182.48    6.80
   2   1   8  194.48    6.80
   2   1   8  190.88    6.70
  -3  -1  -8   38.80    2.20
  -3  -1  -8   38.70    2.30
  -3  -1  -8   39.30    2.60
  -3  -1  -8   42.70    2.30
  -3  -1  -8   40.40    2.60
  -4  -1  -8    1.40    0.70
  -4  -1  -8    0.30    0.70
  -4  -1  -8    1.00    0.60
  -4  -1  -8    1.10    0.60
  -4  -1  -8    1.90    0.60
   4   1   8    2.10    0.60
   4  -2  -8   44.60    2.40
   4  -2  -8   42.80    2.80
  -4   2   8   43.80    2.30
  -4   2   8   41.60    2.20
  -4   2   8   42.30    2.20
   3  -2  -8   20.50    2.30
   3  -2  -8   25.10    2.00
  -3   2   8   21.30    1.70
   2  -2  -8    1.00    1.10
   2  -2  -8    2.00    0.90
  -2   2   8    1.60    0.80
   1  -2  -8    0.10    0.80
   1  -2  -8    0.60    0.80
   1  -2  -8    1.30    1.00
  -1   2   8    1.60    0.70
   0  -2  -8    1.40    0.80
   0  -2  -8    0.80    0.70
   0  -2  -8    0.00    0.80
   0   2   8    1.90    0.70
   0   2   8    1.00    0.70
  -1  -2  -8   -0.40    0.70
  -1  -2  -8    0.50    0.70
  -1  -2  -8    0.60    0.70
   1   2   8   -0.90    0.60
   1   2   8    0.00    0.60
  -2  -2  -8   79.99    3.90
  -2  -2  -8   78.39    3.60
  -2  -2  -8   84.49    3.80
  -2  -2  -8   89.39    4.10
   2   2   8   80.39    3.60
   2   2   8   85.89    3.50
  -3  -2  -8    0.50    0.70
  -3  -2  -8   -1.10    0.70
  -3  -2  -8    0.00    0.60
  -3  -2  -8   -0.10    0.70
   3   2   8    0.40    0.70
  -4  -2  -8  129.89    5.40
  -4  -2  -8  130.49    4.90
  -4  -2  -8  128.39    5.30
  -4  -2  -8  131.59    5.00
  -4  -2  -8  135.19    5.50
  -4  -2  -8  123.79    5.00
   4   2   8  132.19    4.90
  -5  -2  -8    1.80    0.60
  -5  -2  -8    2.00    0.70
  -5  -2  -8    1.50    0.70
   5   2   8    1.30    0.50
  -4   3   8   26.30    1.60
  -4   3   8   25.10    1.50
  -4   3   8   26.80    1.60
   3  -3  -8   40.60    2.30
   3  -3  -8   38.90    2.80
  -3   3   8   38.80    2.30
  -3   3   8   40.60    2.20
   2  -3  -8   19.60    2.20
   2  -3  -8   25.90    2.00
  -2   3   8   27.00    2.80
  -2   3   8   25.90    1.90
   1  -3  -8    4.00    1.40
   1  -3  -8    2.80    0.90
  -1   3   8    3.90    0.80
  -1   3   8    3.90    1.00
   0  -3  -8    1.10    0.80
   0  -3  -8    0.90    1.00
   0   3   8    1.20    0.80
   0   3   8    0.20    0.60
  -1  -3  -8    2.60    1.00
  -1  -3  -8    4.60    1.20
  -1  -3  -8    1.80    0.80
   1   3   8    3.30    0.80
   1   3   8    2.30    0.80
  -2  -3  -8    1.50    0.80
  -2  -3  -8    5.40    1.20
  -2  -3  -8    6.10    1.30
   2   3   8    3.90    0.90
   2   3   8    3.40    0.80
  -3  -3  -8    2.40    0.90
  -3  -3  -8    1.90    1.40
  -3  -3  -8    1.80    1.00
   3   3   8    3.20    0.90
  -4  -3  -8   23.00    2.10
  -4  -3  -8   21.70    1.80
  -4  -3  -8   21.80    1.80
   4   3   8   25.00    1.70
  -5  -3  -8    1.60    0.70
  -5  -3  -8    1.80    0.60
  -5  -3  -8    2.40    0.70
  -5  -3  -8    2.30    0.80
   5   3   8    2.30    0.60
  -3   4   8    3.80    0.80
   2  -4  -8   19.40    1.70
   2  -4  -8   23.70    2.20
  -2   4   8   22.70    1.80
   1  -4  -8   42.00    2.90
   1  -4  -8   40.00    2.40
  -1   4   8   40.30    2.20
  -1   4   8   36.10    2.30
   0  -4  -8   13.30    1.80
   0  -4  -8   13.30    1.40
   0   4   8   13.70    1.40
   0   4   8   13.60    1.50
  -1  -4  -8   24.90    2.20
  -1  -4  -8   23.10    1.90
   1   4   8   22.90    1.90
   1   4   8   24.00    1.80
  -2  -4  -8    1.60    0.90
  -2  -4  -8    0.40    0.90
   2   4   8    0.70    0.70
   2   4   8    0.50    0.70
  -3  -4  -8   21.80    2.00
  -3  -4  -8   23.10    2.10
  -3  -4  -8   19.00    1.90
   3   4   8   23.50    1.80
   3   4   8   21.30    1.70
  -4  -4  -8   25.70    2.00
  -4  -4  -8   24.40    2.10
  -4  -4  -8   27.00    2.10
   4   4   8   25.30    1.80
   4   4   8   26.80    1.80
  -5  -4  -8    0.60    0.70
  -5  -4  -8    0.80    0.60
   5   4   8    1.10    0.60
   5   4   8   -0.20    0.50
   2  -5  -8   97.49    4.00
  -2   5   8   91.59    3.70
   1  -5  -8   86.29    4.10
   1  -5  -8   82.39    3.80
  -1   5   8   82.49    3.50
  -1   5   8   82.69    3.60
   0  -5  -8  148.19    5.70
   0  -5  -8  148.99    5.80
   0  -5  -8  154.28    6.30
   0   5   8  150.18    5.70
   0   5   8  157.78    5.80
  -1  -5  -8   16.40    1.60
  -1  -5  -8   22.80    2.30
   1   5   8   26.60    1.90
  -2  -5  -8    3.00    0.90
  -2  -5  -8    1.20    1.00
   2   5   8    2.60    0.80
   2   5   8    4.00    1.00
  -3  -5  -8    3.10    1.00
  -3  -5  -8    2.70    0.90
   3   5   8    3.80    0.90
   3   5   8    3.00    0.80
  -4  -5  -8   16.60    1.60
  -4  -5  -8   20.40    2.00
   4   5   8   20.50    1.60
   4   5   8   16.20    1.50
  -5  -5  -8    6.50    1.00
  -5  -5  -8    4.90    0.90
   5   5   8    5.60    0.90
   1  -6  -8   71.79    3.20
  -1   6   8   74.79    3.10
  -1   6   8   78.59    3.00
   0  -6  -8  172.58    6.60
   0  -6  -8  176.98    6.40
   0   6   8  173.88    6.30
  -1  -6  -8  167.28    6.70
  -1  -6  -8  167.48    6.20
   1   6   8  175.88    6.30
  -2  -6  -8    4.30    1.20
  -2  -6  -8    3.30    1.00
   2   6   8    5.20    1.00
   2   6   8    6.00    0.90
  -3  -6  -8    5.40    1.10
  -3  -6  -8    8.70    1.20
   3   6   8    8.80    1.20
   3   6   8    8.20    1.00
  -4  -6  -8   24.70    2.00
  -4  -6  -8   26.20    1.80
   4   6   8   24.30    1.70
   4   6   8   27.50    1.60
  -5  -6  -8   31.80    1.80
   5   6   8   30.20    1.70
   0  -7  -8   30.60    1.80
   0   7   8   31.10    1.60
  -1  -7  -8   79.89    3.20
   1   7   8   78.89    3.20
  -2  -7  -8    6.50    0.90
   2   7   8    5.60    0.80
   2   7   8    5.60    0.80
   3   7   8   39.50    2.00
   3   7   8   36.10    1.90
   4   7   8  134.29    4.80
   3   2  -9   16.60    1.40
   3   2  -9   16.50    1.30
   2   2  -9   24.60    1.70
   2   2  -9   26.00    1.70
  -2  -2   9   25.00    1.40
   1   2  -9    7.30    1.00
   1   2  -9    8.00    1.10
  -1  -2   9    6.70    0.90
   0   2  -9   52.19    2.50
   0  -2   9   54.59    2.30
   4   1  -9   13.60    1.10
   4   1  -9   11.90    1.20
   3   1  -9    7.10    1.10
  -3  -1   9    6.70    0.90
   2   1  -9   28.30    1.90
   2   1  -9   29.00    2.10
  -2  -1   9   29.20    1.70
   1   1  -9   -0.10    0.60
   1   1  -9    0.00    0.60
  -1  -1   9    0.40    0.60
   0   1  -9   24.20    1.80
   0   1  -9   26.60    1.90
   0  -1   9   27.10    1.70
  -1   1  -9   10.60    1.20
  -1   1  -9   13.10    1.30
   1  -1   9   16.70    1.30
  -2   1  -9    6.80    0.90
   2  -1   9    5.30    1.00
   4   0  -9   32.10    1.90
   4   0  -9   27.70    1.70
   3   0  -9    1.50    0.80
   3   0  -9    0.40    0.60
  -3   0   9    0.30    0.50
   2   0  -9    4.20    0.90
   2   0  -9    2.00    0.90
  -2   0   9    3.80    0.80
   1   0  -9   10.50    1.20
   1   0  -9   13.20    1.60
  -1   0   9    9.80    1.20
   0   0  -9   13.90    1.60
   0   0  -9   11.30    1.40
   0   0   9   13.40    1.40
  -1   0  -9   19.70    1.90
  -1   0  -9   18.90    1.70
   1   0   9   16.10    1.40
   1   0   9   19.40    1.60
  -2   0  -9    2.40    0.70
  -2   0  -9    1.80    0.70
   2   0   9    1.90    0.60
   2   0   9    2.40    0.60
  -3   0  -9   27.10    1.70
   3   0   9   30.50    1.50
   4  -1  -9   18.60    1.40
  -4   1   9   16.50    1.20
   3  -1  -9   55.59    2.90
   3  -1  -9   58.59    2.80
   3  -1  -9   52.99    3.00
  -3   1   9   58.89    2.70
   2  -1  -9    4.70    1.00
   2  -1  -9    8.60    1.40
  -2   1   9    5.20    1.00
   1  -1  -9    0.00    0.60
   1  -1  -9    0.80    0.80
  -1   1   9   -0.10    0.60
   0  -1  -9    8.80    1.10
   0  -1  -9    8.10    1.30
   0   1   9   10.30    1.30
  -1  -1  -9   12.70    1.30
  -1  -1  -9   15.10    1.60
  -1  -1  -9   16.90    1.80
   1   1   9   14.00    1.40
   1   1   9   14.30    1.30
  -2  -1  -9    4.10    1.00
  -2  -1  -9    4.90    1.00
   2   1   9    4.80    0.90
   2   1   9    4.20    0.80
  -3  -1  -9   12.20    1.40
  -3  -1  -9   13.30    1.40
   3   1   9   14.90    1.30
   4  -2  -9   75.09    3.00
  -4   2   9   68.19    3.20
   3  -2  -9   28.20    1.90
   3  -2  -9   28.10    2.20
  -3   2   9   28.70    1.80
   2  -2  -9  217.68    8.20
   2  -2  -9  215.78    7.80
  -2   2   9  221.28    7.80
   1  -2  -9   34.40    2.30
   1  -2  -9   36.70    2.40
   1  -2  -9   33.60    2.50
  -1   2   9   35.40    2.20
   0  -2  -9   26.00    2.00
   0  -2  -9   29.10    2.20
   0   2   9   30.10    2.00
   0   2   9   28.60    1.80
  -1  -2  -9    4.70    1.10
  -1  -2  -9    3.00    0.80
   1   2   9    4.60    1.00
   1   2   9    4.00    0.90
  -2  -2  -9    5.50    1.00
  -2  -2  -9    5.00    1.10
   2   2   9    4.50    0.90
   2   2   9    5.10    0.90
  -3  -2  -9    5.10    1.00
  -3  -2  -9    4.60    0.90
  -3  -2  -9    4.90    1.10
   3   2   9    5.60    0.90
  -4  -2  -9   15.00    1.40
  -4  -2  -9   16.10    1.30
   4   2   9   18.00    1.20
   3  -3  -9   16.90    1.40
  -3   3   9   14.20    1.30
   2  -3  -9    3.40    0.90
   2  -3  -9    2.30    1.00
  -2   3   9    2.70    0.80
   1  -3  -9   11.30    1.40
   1  -3  -9   11.60    1.60
  -1   3   9   14.90    1.50
   0  -3  -9    0.40    0.70
   0  -3  -9    0.90    0.80
   0   3   9    0.20    0.70
   0   3   9    0.50    0.60
  -1  -3  -9    9.60    1.40
  -1  -3  -9   10.60    1.30
  -1  -3  -9    8.90    1.40
   1   3   9   10.50    1.20
   1   3   9    6.70    1.00
  -2  -3  -9    5.20    1.00
  -2  -3  -9    4.40    1.00
   2   3   9    6.50    1.00
  -3  -3  -9    3.30    0.80
  -3  -3  -9    2.70    0.90
   3   3   9    2.50    0.80
   3   3   9    2.90    0.70
  -4  -3  -9    9.00    1.00
  -4  -3  -9   10.20    1.30
   4   3   9    9.10    1.00
   4   3   9    9.00    1.00
  -3   4   9   27.50    1.60
   2  -4  -9    2.80    0.70
  -2   4   9    1.90    0.70
   1  -4  -9   24.90    2.10
   1  -4  -9   26.60    1.80
  -1   4   9   23.30    1.70
  -1   4   9   25.50    1.60
   0  -4  -9    3.80    1.10
   0  -4  -9    4.40    1.00
   0   4   9    4.50    1.00
   0   4   9    3.30    0.80
  -1  -4  -9   75.39    3.90
  -1  -4  -9   86.39    3.70
   1   4   9   80.29    3.50
   1   4   9   79.79    3.50
  -2  -4  -9  101.39    4.30
  -2  -4  -9   93.69    4.30
   2   4   9  104.29    4.10
  -3  -4  -9    1.60    0.70
  -3  -4  -9   -0.10    0.60
  -3  -4  -9   -0.30    0.60
   3   4   9    0.00    0.50
   3   4   9    0.80    0.60
  -4  -4  -9    0.60    0.70
  -4  -4  -9    0.80    0.60
   4   4   9    0.70    0.60
   4   4   9    0.90    0.60
  -2   5   9    6.30    0.80
  -1   5   9    9.60    1.00
  -1   5   9   12.20    1.10
   0  -5  -9   13.60    1.30
   0  -5  -9   12.80    1.50
   0   5   9   11.90    1.20
   0   5   9   13.60    1.30
  -1  -5  -9   10.80    1.30
  -1  -5  -9   15.90    1.80
   1   5   9   11.80    1.20
  -2  -5  -9    2.90    0.90
  -2  -5  -9    2.50    0.90
   2   5   9    2.00    0.70
  -3  -5  -9  169.88    6.70
  -3  -5  -9  183.88    6.60
   3   5   9  186.68    6.30
   3   5   9  179.38    6.40
  -4  -5  -9    8.70    1.00
   4   5   9   11.50    1.10
   4   5   9   10.00    1.00
   0   6   9    2.50    0.60
   1   6   9   -0.80    0.40
  -2  -6  -9    0.50    0.60
   2   6   9   -0.10    0.50
  -3  -6  -9   10.70    1.10
   3   6   9   10.90    1.00
   3   6   9   11.20    1.10
  -4  -6  -9   75.89    3.10
   4   6   9   66.79    3.10
   4   6   9   75.99    2.90
   2   0 -10   16.60    1.40
  -2   0  10   17.40    1.20
   1   0 -10    7.40    1.10
  -1   0  10    7.20    0.90
   0   0 -10   61.29    2.90
   0   0  10   62.29    2.70
  -1   0 -10   45.80    2.30
   1   0  10   46.60    2.10
   3  -1 -10   13.50    1.10
   2  -1 -10    0.50    0.60
   2  -1 -10   -0.30    0.40
  -2   1  10    0.50    0.50
   1  -1 -10   38.30    2.00
   1  -1 -10   37.90    2.20
  -1   1  10   33.90    2.00
   0  -1 -10  340.27   11.20
   0  -1 -10  326.47   10.80
   0   1  10  328.47   10.90
  -1  -1 -10  119.79    4.80
   1   1  10  119.99    4.40
   1   1  10  119.69    4.30
  -2  -1 -10   11.60    1.20
   2   1  10   13.80    1.10
   3  -2 -10   15.00    1.50
   2  -2 -10   16.30    1.30
  -2   2  10   13.00    1.20
   1  -2 -10   40.60    2.20
   1  -2 -10   46.10    2.40
  -1   2  10   41.90    2.20
   0  -2 -10   11.30    1.20
   0  -2 -10   16.10    1.60
   0   2  10   15.20    1.40
  -1  -2 -10   31.20    1.80
  -1  -2 -10   31.90    2.10
   1   2  10   32.60    1.80
   1   2  10   33.70    1.80
  -2  -2 -10   27.00    1.90
  -2  -2 -10   25.50    1.50
   2   2  10   28.30    1.60
  -3  -2 -10   55.99    2.90
   3   2  10   58.99    2.60
   2  -3 -10    3.80    0.70
  -2   3  10    3.20    0.70
   1  -3 -10   21.60    1.50
  -1   3  10   19.10    1.50
   0  -3 -10    4.40    0.90
   0   3  10    4.90    0.90
   0   3  10    3.10    0.70
  -1  -3 -10    0.80    0.70
  -1  -3 -10    1.60    0.70
   1   3  10    1.90    0.60
   1   3  10    0.70    0.50
  -2  -3 -10   55.89    2.70
  -2  -3 -10   52.99    2.50
   2   3  10   49.90    2.40
  -3  -3 -10   40.90    2.00
  -3  -3 -10   43.60    2.30
   3   3  10   44.20    2.00
   1  -4 -10    0.60    0.50
  -1   4  10    0.90    0.50
   0  -4 -10    4.90    0.90
   0   4  10    5.90    0.90
   0   4  10    6.40    0.80
  -1  -4 -10    5.60    0.90
   1   4  10    5.70    0.90
  -2  -4 -10   15.90    1.40
   2   4  10   16.90    1.30
  -3  -4 -10   28.30    1.70
   3   4  10   28.90    1.60
   0   5  10   13.10    1.50
  -1  -5 -10    2.90    0.70
   1   5  10    2.90    0.60
  -2  -5 -10    0.40    0.50
   2   5  10    0.70    0.50
  -3  -5 -10    2.60    0.60
   3   5  10    2.90    0.60
   0   0   0    0.00    0.00

_computing_structure_solution     'SHELXT 2014/5 (Sheldrick, 2014)'
;
_shelx_hkl_checksum              81719
loop_
_space_group_symop_operation_xyz
'x, y, z'
'-x, -y, -z'
loop_
_atom_site_type_symbol
_atom_site_label
_atom_site_fract_x
_atom_site_fract_y
_atom_site_fract_z
_atom_site_U_iso_or_equiv
_atom_site_adp_type
_atom_site_calc_flag
_atom_site_refinement_flags_adp
_atom_site_refinement_flags_occupancy
_atom_site_refinement_flags_posn
_atom_site_occupancy
_atom_site_disorder_assembly
_atom_site_disorder_group
O O1 0.44532(16) 0.27169(16) 0.92195(12) 0.0361(4) Uani d . . . 1 . .
N N1 0.22025(19) 1.07972(19) 0.23606(14) 0.0338(4) Uani d . . . 1 . .
N N2 0.87579(18) 0.78455(19) 0.37018(14) 0.0330(4) Uani d . . . 1 . .
C C1 0.4462(2) 0.4286(2) 0.80660(16) 0.0261(4) Uani d . . . 1 . .
C C2 0.2775(2) 0.5724(2) 0.70471(17) 0.0297(4) Uani d . . . 1 . .
H H2 0.149078 0.566911 0.71107 0.036 Uiso calc U . R 1 . .
C C3 0.3015(2) 0.7250(2) 0.59282(16) 0.0261(4) Uani d . . . 1 . .
H H3 0.187318 0.826826 0.522065 0.031 Uiso calc U . R 1 . .
C C4 0.4911(2) 0.73126(19) 0.58264(14) 0.0215(4) Uani d . . . 1 . .
C C5 0.51179(19) 0.90811(19) 0.46477(14) 0.0219(4) Uani d . . . 1 . .
C C6 0.3519(2) 1.0017(2) 0.33272(14) 0.0243(4) Uani d . . . 1 . .
C C7 0.7155(2) 0.83974(18) 0.40846(14) 0.0235(4) Uani d . . . 1 . .
C C8 0.66141(19) 0.57997(19) 0.68492(14) 0.0226(4) Uani d . . . 1 . .
H H8 0.791864 0.580593 0.676138 0.027 Uiso calc U . R 1 . .
C C9 0.6373(2) 0.4308(2) 0.79807(15) 0.0235(4) Uani d . . . 1 . .
C C10 0.7870(2) 0.2518(2) 0.92260(16) 0.0304(4) Uani d . . . 1 . .
H H10A 0.857283 0.294919 0.987413 0.037 Uiso calc U . R 1 . .
H H10B 0.890423 0.150382 0.879853 0.037 Uiso calc U . R 1 . .
C C11 0.6452(2) 0.1678(2) 1.01267(15) 0.0314(4) Uani d . . . 1 . .
H H11A 0.701335 0.019224 1.0299 0.038 Uiso calc U . R 1 . .
H H11B 0.633123 0.19334 1.113505 0.038 Uiso calc U . R 1 . .
loop_
_atom_site_aniso_label
_atom_site_aniso_U_11
_atom_site_aniso_U_22
_atom_site_aniso_U_33
_atom_site_aniso_U_12
_atom_site_aniso_U_13
_atom_site_aniso_U_23
O1 0.0385(7) 0.0274(6) 0.0381(6) -0.0175(5) 0.0071(5) 0.0014(5)
N1 0.0357(8) 0.0304(7) 0.0310(7) -0.0102(6) -0.0050(5) -0.0088(5)
N2 0.0285(7) 0.0320(7) 0.0371(7) -0.0115(6) 0.0093(5) -0.0112(6)
C1 0.0317(8) 0.0195(7) 0.0291(7) -0.0128(6) 0.0077(5) -0.0079(6)
C2 0.0245(8) 0.0247(8) 0.0412(8) -0.0125(7) 0.0041(6) -0.0091(6)
C3 0.0216(8) 0.0203(7) 0.0336(7) -0.0074(6) 0.0000(5) -0.0066(6)
C4 0.0227(7) 0.0168(7) 0.0242(7) -0.0071(6) 0.0023(5) -0.0071(5)
C5 0.0215(7) 0.0189(7) 0.0230(6) -0.0070(6) 0.0018(5) -0.0057(5)
C6 0.0285(8) 0.0201(7) 0.0243(7) -0.0098(6) 0.0036(5) -0.0079(5)
C7 0.0281(8) 0.0185(7) 0.0220(6) -0.0096(6) 0.0013(5) -0.0039(5)
C8 0.0207(7) 0.0193(7) 0.0253(7) -0.0067(6) 0.0017(5) -0.0061(6)
C9 0.0243(8) 0.0184(7) 0.0282(7) -0.0078(6) 0.0033(5) -0.0101(6)
C10 0.0335(8) 0.0233(7) 0.0285(7) -0.0100(6) 0.0001(6) -0.0024(6)
C11 0.0399(9) 0.0233(7) 0.0267(7) -0.0123(6) 0.0032(6) -0.0031(5)
loop_
_atom_type_symbol
_atom_type_description
_atom_type_scat_dispersion_real
_atom_type_scat_dispersion_imag
_atom_type_scat_source
C C 0.0181 0.0091 'International Tables Vol C Tables 4.2.6.8 and 6.1.1.4'
H H 0.0000 0.0000 'International Tables Vol C Tables 4.2.6.8 and 6.1.1.4'
N N 0.0311 0.0180 'International Tables Vol C Tables 4.2.6.8 and 6.1.1.4'
O O 0.0492 0.0322 'International Tables Vol C Tables 4.2.6.8 and 6.1.1.4'
loop_
_geom_angle_atom_site_label_1
_geom_angle_atom_site_label_2
_geom_angle_atom_site_label_3
_geom_angle_site_symmetry_1
_geom_angle_site_symmetry_3
_geom_angle
_geom_angle_publ_flag
C1 O1 C11 . . 107.64(10) ?
O1 C1 C2 . . 124.39(13) ?
O1 C1 C9 . . 113.36(13) ?
C2 C1 C9 . . 122.25(13) ?
C1 C2 C3 . . 117.89(12) ?
C1 C2 H2 . . 121.1 ?
C3 C2 H2 . . 121.1 ?
C2 C3 C4 . . 120.92(12) ?
C2 C3 H3 . . 119.5 ?
C4 C3 H3 . . 119.5 ?
C3 C4 C8 . . 120.04(13) ?
C3 C4 C5 . . 120.20(11) ?
C8 C4 C5 . . 119.70(11) ?
C6 C5 C7 . . 108.98(10) ?
C6 C5 C4 . . 111.32(10) ?
C7 C5 C4 . . 111.09(10) ?
C6 C5 C5 . 2_676 106.21(12) ?
C7 C5 C5 . 2_676 106.21(12) ?
C4 C5 C5 . 2_676 112.77(12) ?
N1 C6 C5 . . 175.89(13) ?
N2 C7 C5 . . 177.60(13) ?
C9 C8 C4 . . 119.18(12) ?
C9 C8 H8 . . 120.4 ?
C4 C8 H8 . . 120.4 ?
C8 C9 C1 . . 119.68(13) ?
C8 C9 C10 . . 131.62(12) ?
C1 C9 C10 . . 108.68(13) ?
C9 C10 C11 . . 101.56(11) ?
C9 C10 H10A . . 111.5 ?
C11 C10 H10A . . 111.5 ?
C9 C10 H10B . . 111.5 ?
C11 C10 H10B . . 111.5 ?
H10A C10 H10B . . 109.3 ?
O1 C11 C10 . . 107.52(10) ?
O1 C11 H11A . . 110.2 ?
C10 C11 H11A . . 110.2 ?
O1 C11 H11B . . 110.2 ?
C10 C11 H11B . . 110.2 ?
H11A C11 H11B . . 108.5 ?
loop_
_geom_bond_atom_site_label_1
_geom_bond_atom_site_label_2
_geom_bond_site_symmetry_2
_geom_bond_distance
_geom_bond_publ_flag
O1 C1 . 1.3551(17) ?
O1 C11 . 1.4588(17) ?
N1 C6 . 1.1433(17) ?
N2 C7 . 1.1426(18) ?
C1 C2 . 1.380(2) ?
C1 C9 . 1.393(2) ?
C2 C3 . 1.3857(19) ?
C2 H2 . 0.95 ?
C3 C4 . 1.3964(19) ?
C3 H3 . 0.95 ?
C4 C8 . 1.4023(17) ?
C4 C5 . 1.5305(18) ?
C5 C6 . 1.4787(17) ?
C5 C7 . 1.4806(18) ?
C5 C5 2_676 1.642(2) ?
C8 C9 . 1.3747(19) ?
C8 H8 . 0.95 ?
C9 C10 . 1.5030(18) ?
C10 C11 . 1.540(2) ?
C10 H10A . 0.99 ?
C10 H10B . 0.99 ?
C11 H11A . 0.99 ?
C11 H11B . 0.99 ?
