#------------------------------------------------------------------------------
#$Date: 2020-04-04 07:10:10 +0300 (Sat, 04 Apr 2020) $
#$Revision: 250060 $
#$URL: file:///home/coder/svn-repositories/cod/cif/4/13/45/4134530.cif $
#------------------------------------------------------------------------------
#
# This file is available in the Crystallography Open Database (COD),
# http://www.crystallography.net/
#
# All data on this site have been placed in the public domain by the
# contributors.
#
data_4134530
loop_
_publ_author_name
'Khoury, Jason F.'
'Rettie, Alexander J. E.'
'Robredo, I\~nigo'
'Krogstad, Matthew J.'
'Malliakas, Christos D.'
'Bergara, Aitor'
'Vergniory, Maia G.'
'Osborn, Raymond'
'Rosenkranz, Stephan'
'Chung, Duck Young'
'Kanatzidis, Mercouri G.'
_publ_section_title
;
 The Subchalcogenides Ir<sub>2</sub>In<sub>8</sub>Q (Q = S, Se, Te): Dirac
 Semimetal Candidates with Re-entrant Structural Modulation.
;
_journal_issue                   13
_journal_name_full               'Journal of the American Chemical Society'
_journal_page_first              6312
_journal_page_last               6323
_journal_paper_doi               10.1021/jacs.0c00809
_journal_volume                  142
_journal_year                    2020
_chemical_formula_moiety         '0.25(In32 Ir8 Se4)'
_chemical_formula_sum            'In8 Ir2 Se'
_chemical_formula_weight         1381.92
_space_group_crystal_system      tetragonal
_space_group_IT_number           136
_space_group_name_Hall           '-P 4n 2n'
_space_group_name_H-M_alt        'P 42/m n m'
_atom_sites_solution_primary     dual
_audit_creation_date             2020-01-10
_audit_creation_method
;
Olex2 1.2
(compiled 2018.05.29 svn.r3508 for OlexSys, GUI svn.r5506)
;
_cell_angle_alpha                90
_cell_angle_beta                 90
_cell_angle_gamma                90
_cell_formula_units_Z            4
_cell_length_a                   9.9447(12)
_cell_length_b                   9.9447(12)
_cell_length_c                   10.1091(13)
_cell_measurement_reflns_used    7302
_cell_measurement_temperature    299(2)
_cell_measurement_theta_max      35.78
_cell_measurement_theta_min      6.11
_cell_volume                     999.8(2)
_computing_molecular_graphics    'Olex2 (Dolomanov et al., 2009)'
_computing_publication_material  'Olex2 (Dolomanov et al., 2009)'
_computing_structure_refinement  'ShelXL (Sheldrick, 2015)'
_computing_structure_solution    'ShelXT (Sheldrick, 2015)'
_diffrn_ambient_temperature      299.45
_diffrn_measured_fraction_theta_full 0.979
_diffrn_measured_fraction_theta_max 0.992
_diffrn_measurement_device_type  'Bruker APEX-II CCD'
_diffrn_measurement_method       '\f and \w scans'
_diffrn_radiation_monochromator  graphite
_diffrn_radiation_type           MoK\a
_diffrn_radiation_wavelength     0.71073
_diffrn_reflns_av_R_equivalents  0.0596
_diffrn_reflns_av_unetI/netI     0.0199
_diffrn_reflns_Laue_measured_fraction_full 0.979
_diffrn_reflns_Laue_measured_fraction_max 0.992
_diffrn_reflns_limit_h_max       16
_diffrn_reflns_limit_h_min       -16
_diffrn_reflns_limit_k_max       14
_diffrn_reflns_limit_k_min       -16
_diffrn_reflns_limit_l_max       16
_diffrn_reflns_limit_l_min       -16
_diffrn_reflns_number            31519
_diffrn_reflns_point_group_measured_fraction_full 0.979
_diffrn_reflns_point_group_measured_fraction_max 0.992
_diffrn_reflns_theta_full        25.242
_diffrn_reflns_theta_max         35.790
_diffrn_reflns_theta_min         6.110
_diffrn_standards_number         0
_exptl_absorpt_coefficient_mu    48.152
_exptl_absorpt_correction_T_max  0.7470
_exptl_absorpt_correction_T_min  0.3497
_exptl_absorpt_correction_type   multi-scan
_exptl_absorpt_process_details
;
SADABS-2016/2 (Bruker,2016/2) was used for absorption correction.
wR2(int) was 0.1794 before and 0.0820 after correction.
The Ratio of minimum to maximum transmission is 0.4681.
The \l/2 correction factor is Not present.
;
_exptl_crystal_colour            'metallic black'
_exptl_crystal_colour_lustre     metallic
_exptl_crystal_colour_primary    black
_exptl_crystal_density_diffrn    9.181
_exptl_crystal_description       plate
_exptl_crystal_F_000             2320
_exptl_crystal_size_max          0.143
_exptl_crystal_size_mid          0.06
_exptl_crystal_size_min          0.044
_refine_diff_density_max         5.430
_refine_diff_density_min         -5.057
_refine_diff_density_rms         0.498
_refine_ls_extinction_coef       0.00222(9)
_refine_ls_extinction_expression Fc^*^=kFc[1+0.001xFc^2^\l^3^/sin(2\q)]^-1/4^
_refine_ls_extinction_method     'SHELXL-2014/7 (Sheldrick 2014'
_refine_ls_goodness_of_fit_ref   1.187
_refine_ls_hydrogen_treatment    undef
_refine_ls_matrix_type           full
_refine_ls_number_parameters     37
_refine_ls_number_reflns         1293
_refine_ls_number_restraints     0
_refine_ls_restrained_S_all      1.187
_refine_ls_R_factor_all          0.0286
_refine_ls_R_factor_gt           0.0285
_refine_ls_shift/su_max          0.000
_refine_ls_shift/su_mean         0.000
_refine_ls_structure_factor_coef Fsqd
_refine_ls_weighting_details
'w=1/[\s^2^(Fo^2^)+(0.0114P)^2^+38.4561P] where P=(Fo^2^+2Fc^2^)/3'
_refine_ls_weighting_scheme      calc
_refine_ls_wR_factor_gt          0.0639
_refine_ls_wR_factor_ref         0.0639
_reflns_Friedel_coverage         0.000
_reflns_number_gt                1291
_reflns_number_total             1293
_reflns_threshold_expression     'I > 2\s(I)'
_cod_data_source_file            ja0c00809_si_003.cif
_cod_data_source_block           jfk1274c
_cod_depositor_comments
'Adding full bibliography for 4134530--4134534.cif.'
_cod_original_cell_volume        999.8(3)
_cod_database_code               4134530
_shelx_shelxl_version_number     2014/7
_shelx_space_group_comment
;
The symmetry employed for this shelxl refinement is uniquely defined
by the following loop, which should always be used as a source of
symmetry information in preference to the above space-group names.
They are only intended as comments.
;
_shelx_estimated_absorpt_t_max   0.226
_shelx_estimated_absorpt_t_min   0.055
_olex2_refinement_description
;
;
_shelx_res_file
;
    jfk1274c.res created by SHELXL-2014/7

TITL jfk1274c_a.res in P4(2)/mnm
REM Old TITL JFK1274c in P4(2)/mnm
REM SHELXT solution in P4(2)/mnm
REM R1 0.280, Rweak 0.005, Alpha 0.025, Orientation as input
REM Formula found by SHELXT: Se2 In7 Ir2
CELL 0.71073 9.9447 9.9447 10.1091 90 90 90
ZERR 4 0.0012 0.0012 0.0013 0 0 0
LATT 1
SYMM -X,-Y,+Z
SYMM 0.5-Y,0.5+X,0.5+Z
SYMM 0.5+Y,0.5-X,0.5+Z
SYMM 0.5-X,0.5+Y,0.5-Z
SYMM 0.5+X,0.5-Y,0.5-Z
SYMM +Y,+X,-Z
SYMM -Y,-X,-Z
SFAC In Ir Se
UNIT 32 8 4

L.S. 10
PLAN  20
SIZE 0.044 0.06 0.143
TEMP 26.3
list 4
fmap 2
acta
REM <olex2.extras>
REM <HklSrc "%.\\JFK1274c.hkl">
REM </olex2.extras>

WGHT    0.011400   38.456100
EXTI    0.002224
FVAR       0.13041
IR1   2    0.686295    0.686295    0.240539    10.50000    0.00475    0.00475 =
         0.00353   -0.00026   -0.00026   -0.00013
IN1   1    0.595300    0.595300    0.000000    10.25000    0.01712    0.01712 =
         0.00455    0.00000    0.00000   -0.00808
IN2   1    0.500000    0.500000    0.336744    10.25000    0.01215    0.01215 =
         0.01179    0.00000    0.00000   -0.00584
IN3   1    0.446326    0.794825    0.202535    11.00000    0.00521    0.01499 =
         0.02441    0.00209    0.00100    0.00271
IN4   1    0.687705    0.687705    0.500000    10.25000    0.02759    0.02759 =
         0.00287    0.00000    0.00000   -0.01317
IN5   1    0.798614    0.798614    0.000000    10.25000    0.04735    0.04735 =
         0.00640    0.00000    0.00000   -0.03875
SE1   3    0.500000    1.000000    0.000000    10.25000    0.08061    0.01195 =
         0.00863    0.00000    0.00000   -0.01543
HKLF 4

REM  jfk1274c_a.res in P4(2)/mnm
REM R1 =  0.0285 for    1291 Fo > 4sig(Fo)  and  0.0286 for all    1293 data
REM     37 parameters refined using      0 restraints

END

WGHT      0.0114     38.4629

REM Highest difference peak  5.430,  deepest hole -5.057,  1-sigma level  0.498
Q1    1   0.7626  0.8158  0.0000  10.50000  0.05    5.43
Q2    1   0.4659  1.0112  0.0000  10.50000  0.05    4.62
Q3    1   0.4472  0.7902  0.2581  11.00000  0.05    2.57
Q4    1   0.4813  1.0310  0.0000  10.50000  0.05    1.95
Q5    1   0.6351  0.6351  0.2739  10.50000  0.05    1.91
Q6    1   0.6361  0.6361  0.1985  10.50000  0.05    1.89
Q7    1   0.5670  0.5670  0.0000  10.25000  0.05    1.80
Q8    1   0.4201  0.7489  0.1791  11.00000  0.05    1.64
Q9    1   0.4915  0.7967  0.1901  11.00000  0.05    1.61
Q10   1   0.6485  0.5689  0.0000  10.50000  0.05    1.56
Q11   1   0.5000  0.5000 -0.1130  10.25000  0.05    1.48
Q12   1   0.7388  0.7388  0.2744  10.50000  0.05    1.41
Q13   1   0.5596  0.5596  0.3799  10.50000  0.05    1.39
Q14   1   0.5007  0.8593  0.1417  11.00000  0.05    1.37
Q15   1   0.6305  0.7426  0.2045  11.00000  0.05    1.36
Q16   1   0.6427  0.7073  0.5000  10.50000  0.05    1.34
Q17   1   0.3930  1.0633  0.0000  10.50000  0.05    1.31
Q18   1   0.6287  0.7430  0.2810  11.00000  0.05    1.27
Q19   1   0.7280  0.6977  0.5000  10.50000  0.05    1.25
Q20   1   0.7341  0.7060  0.0000  10.50000  0.05    1.22
;
_shelx_res_checksum              86896
_shelx_hkl_file
;
   2  -3   0 1225.18   91.19
   2  -3   0 1161.18   91.09
   3   2   0 1411.56   91.89
  -3  -2   0 1299.77   91.79
  -2  -3   0 1303.07   93.49
  -3  -3   0 9465.25  585.14
   3  -3   0 7559.14  585.14
   3  -3   0 7540.35  585.34
  -3  -3   0 8114.79  586.14
  -4  -3   0  591.44   45.60
   3  -4   0  540.15   47.20
   3  -4   0  609.84   45.40
  -4  -3   0  645.34   46.20
  -4  -3   0  665.13   45.60
   4   3   0  695.43   46.50
  -3   4   0  654.53   45.50
   3  -4   0  620.34   45.60
   2  -4   0  678.73   50.39
   2  -4   0  793.02   50.59
  -4  -2   0  642.54   50.49
  -4  -2   0  726.73   51.59
   2  -4   0  606.64   52.09
   4   2   0  749.23   51.69
  -4  -2   0  705.43   50.89
   1  -4   0 6203.48  422.16
   1  -4   0 6313.97  420.66
  -4  -1   0 5254.17  419.96
   1  -4   0 5750.82  419.86
  -4  -1   0 5896.81  420.56
  -4  -1   0 5834.92  420.46
   0  -4   0 1842.62  128.79
   0  -4   0 1823.82  128.99
  -4   0   0 1717.13  129.29
   0  -4   0 1822.22  128.79
  -4   1   0 5625.44  376.56
  -1  -4   0 5345.67  376.56
  -4   1   0 4858.11  375.96
  -4   1   0 5193.48  375.96
  -2  -4   0  846.92   56.09
  -4   2   0  636.04   56.89
  -2  -4   0  779.52   56.49
   2   4   0  861.01   56.49
   3   4   0  693.33   45.40
  -3  -4   0  627.94   44.80
  -3  -4   0  661.03   44.90
   4  -3   0  657.63   45.20
   4  -3   0  558.64   45.20
  -4   3   0  512.25   46.10
  -3  -4   0  651.43   45.30
   4  -3   0  591.14   46.50
   4   4   0 1427.76   94.09
   4  -4   0 1267.27   93.49
  -4   4   0 1157.28   94.89
   4  -4   0 1215.98   93.29
  -4  -4   0 1355.46   93.29
  -4  -4   0 1318.47   93.39
  -4  -4   0 1398.26   93.89
   4  -4   0 1237.78   95.29
  -5  -4   0   26.40    2.70
   4  -5   0   21.30    2.40
   4  -5   0   17.20    4.30
   5   4   0   27.10    3.50
  -5  -4   0   20.30    2.50
  -5  -4   0   27.20    3.30
  -4   5   0   18.20    3.80
   4  -5   0   22.10    2.50
  -5  -3   0 4693.53  350.76
  -3   5   0 4518.05  352.16
  -5  -3   0 5439.36  351.76
   5   3   0 5576.64  352.06
  -5  -3   0 4739.93  350.56
  -3   5   0 4815.22  350.96
  -5  -3   0 5349.77  351.46
   3  -5   0 4713.43  351.96
   3  -5   0 4330.27  351.46
  -5  -2   0   44.20    3.90
  -5  -2   0   33.50    4.40
  -5  -2   0   31.40    4.30
  -2   5   0   46.50    3.30
  -5  -2   0   32.20    3.50
   2  -5   0   39.40    3.30
   2  -5   0   39.90    3.20
   5   2   0   37.20    4.70
  -5  -2   0   35.50    3.80
   2  -5   0   39.30    5.40
  -5  -1   0   42.70    4.10
   1  -5   0   48.20    3.40
   1  -5   0   47.50    4.10
   1  -5   0   46.50    5.60
  -5  -1   0   35.90    4.20
  -5  -1   0   39.60    4.30
  -5  -1   0   34.70    4.60
  -5   0   0    0.20    0.70
   0  -5   0    1.10    0.40
  -5   0   0    4.30    1.40
   0  -5   0    1.10    0.40
   0  -5   0    1.60    0.60
  -5   0   0    1.30    1.00
  -5   0   0    1.20    1.00
  -1  -5   0   54.39    3.80
  -5   1   0   60.99    5.10
  -5   1   0   36.50    4.90
  -5   1   0   39.90    4.90
  -1  -5   0   49.10    4.20
  -5   1   0   44.60    4.80
  -1  -5   0   47.30    4.00
  -2  -5   0   48.20    3.70
  -2  -5   0   50.49    4.20
   2   5   0   51.39    4.10
  -2  -5   0   45.60    3.80
  -5   2   0   45.90    5.30
   5  -2   0   40.50    4.50
  -5   2   0   36.00    4.90
   5  -3   0 4778.42  336.17
  -3  -5   0 5425.16  336.47
  -5   3   0 4594.54  337.37
  -5   3   0 4323.67  336.67
   5  -3   0 4548.25  337.57
  -3  -5   0 4561.54  337.17
  -3  -5   0 4676.83  336.77
  -4  -5   0   22.40    2.60
   5  -4   0   21.20    2.60
  -5   4   0   15.50    3.00
   4   5   0   22.20    2.80
   5  -4   0   22.70    2.60
  -4  -5   0   21.30    2.20
  -5   4   0   17.60    3.70
  -4  -5   0   20.30    2.20
  -5   4   0   21.00    3.80
  -5  -5   0 6549.04  433.26
  -5  -5   0 6347.56  432.86
  -5   5   0 5735.63  434.16
   5  -5   0 6124.59  433.46
  -5   5   0 5559.64  433.36
   5  -5   0 6224.68  434.66
  -5  -5   0 5781.42  432.56
   5  -5   0 6089.49  434.96
   5  -6   0   10.90    2.00
  -5   6   0    6.10    2.10
  -6  -5   0    7.60    1.70
  -6  -5   0    9.80    1.80
  -6  -5   0   14.40    2.50
   6   5   0   10.90    2.80
   5  -6   0   11.10    4.10
  -5   6   0    8.40    3.10
  -6  -5   0   12.10    2.60
  -5   6   0    9.40    3.30
   5  -6   0   11.30    1.90
  -6  -4   0  723.03   56.89
   4  -6   0  742.93   59.59
   4  -6   0  788.62   56.49
  -6  -4   0  833.12   56.99
   4  -6   0  787.52   56.69
  -4   6   0  769.22   58.99
  -4   6   0  698.03   58.09
  -6  -4   0  880.11   58.19
  -6  -4   0  712.43   57.29
   6   4   0  888.61   58.59
   3  -6   0  569.34   48.40
  -6  -3   0  621.54   45.50
   6   3   0  660.03   47.80
  -6  -3   0  691.03   46.30
  -6  -3   0  539.55   46.50
  -6  -3   0  659.23   47.40
  -3   6   0  676.43   48.20
  -3   6   0  689.83   45.80
   6   3   0  712.93   46.30
  -6  -3   0  526.35   46.20
   3  -6   0  635.04   45.80
   3  -6   0  600.04   45.60
   2  -6   0   17.50    4.50
   2  -6   0   29.40    2.50
  -6  -2   0   23.00    4.20
  -6  -2   0   20.40    3.20
   2  -6   0   32.00    2.50
  -6  -2   0   28.10    3.20
  -6  -2   0   22.40    2.90
   6   2   0   22.20    4.60
  -2   6   0   33.10    2.60
  -6  -2   0   24.00    3.20
  -6  -1   0   92.19    9.20
  -6  -1   0  115.99    9.20
  -1   6   0  123.89    8.30
   1  -6   0  121.09    8.30
  -6  -1   0   90.09    8.80
   1  -6   0  116.79    9.00
  -6  -1   0   95.09    9.80
   1  -6   0   93.89   10.40
   1  -6   0  108.79    8.00
   0  -6   0 2599.44  175.38
  -6   0   0 2053.69  176.08
  -6   0   0 2102.39  175.58
   0  -6   0 2422.06  176.88
   0   6   0 2672.03  174.48
  -6   0   0 2292.57  175.18
   0  -6   0 2644.14  174.48
   0  -6   0 2526.25  174.78
   0  -6   0 2634.24  175.08
  -6   1   0   95.39    9.30
  -1  -6   0  114.99    8.90
   6  -1   0   93.29    9.60
   1   6   0  120.89    8.50
  -1  -6   0  119.99    8.30
  -6   1   0   93.99    9.60
  -1  -6   0  120.09    8.70
  -2  -6   0   29.20    2.60
  -2  -6   0   29.20    2.90
   2   6   0   25.90    2.60
  -2  -6   0   30.70    2.40
  -6   2   0   23.30    3.90
  -6   2   0   18.60    3.80
  -6   2   0   21.60    3.70
  -3  -6   0  693.03   49.00
  -6   3   0  575.34   49.70
   6  -3   0  691.43   50.79
   3   6   0  718.13   48.90
   6  -3   0  646.34   49.30
  -6   3   0  587.24   50.19
  -3  -6   0  748.33   48.50
  -3  -6   0  697.73   48.60
  -4  -6   0  840.52   58.59
  -4  -6   0  800.02   58.79
   6  -4   0  785.82   61.09
  -4  -6   0  859.31   59.29
   4   6   0  882.71   59.29
   6  -4   0  752.32   59.29
  -6   4   0  730.23   60.09
  -6   4   0  848.22   60.99
  -5  -6   0   10.90    2.50
   6  -5   0    8.10    1.80
  -5  -6   0    8.70    1.60
  -5  -6   0    8.50    2.00
  -6   5   0    7.90    2.70
  -6   5   0    8.50    2.40
  -6   5   0   10.00    3.10
   6  -5   0    6.60    1.70
   5   6   0   10.80    2.30
   6  -5   0    9.70    3.40
  -5  -6   0    7.70    1.40
   6   6   0 2548.25  180.38
  -6  -6   0 2599.44  179.38
   6  -6   0 2485.85  179.58
   6  -6   0 2453.55  182.58
   6  -6   0 2372.26  179.28
  -6   6   0 2441.76  181.88
  -6   6   0 2408.16  180.98
  -6  -6   0 2689.03  180.38
  -7  -6   0 1556.74  107.89
  -6   7   0 1500.95  109.69
  -6   7   0 1235.48  108.49
  -7  -6   0 1675.43  109.19
   6  -7   0 1490.75  107.49
   6  -7   0 1396.36  111.19
   7   6   0 1568.34  109.29
  -6   7   0 1469.25  110.49
   6  -7   0 1531.85  107.79
  -7  -5   0   21.60    3.90
   5  -7   0   14.90    2.20
  -5   7   0   26.20    5.50
   5  -7   0   14.80    2.30
  -5   7   0   11.80    2.90
  -7  -5   0   14.90    2.40
   7   5   0   18.40    4.00
  -5   7   0   12.30    4.00
  -7  -5   0   11.80    2.60
   5  -7   0    7.60    3.80
  -7  -5   0   19.70    2.60
   4  -7   0 5309.77  414.26
   4  -7   0 5452.45  412.16
  -4   7   0 5846.42  413.76
  -7  -4   0 5314.57  411.66
  -4   7   0 5686.03  410.86
   4  -7   0 5708.13  411.46
  -7  -4   0 6350.06  411.56
  -7  -4   0 6555.24  412.96
  -7  -4   0 5048.79  411.26
   7   4   0 6270.57  413.46
   3  -7   0  959.90   74.79
  -7  -3   0 1062.69   72.19
   3  -7   0  957.80   71.29
  -7  -3   0  975.50   73.29
  -7  -3   0  988.10   71.19
   7   3   0 1064.09   72.19
   3  -7   0  942.31   71.09
   7   3   0  964.40   73.99
  -3   7   0 1105.59   71.39
  -7  -3   0  853.01   71.99
  -7  -3   0  880.11   72.39
  -3   7   0 1155.38   74.49
  -7  -2   0 1005.10   74.69
   7   2   0  978.70   75.39
  -7  -2   0 1120.89   73.59
   2  -7   0 1058.29   72.49
  -7  -2   0  869.91   73.59
   2  -7   0 1085.19   72.29
   2  -7   0  987.60   75.89
  -7  -2   0  951.40   72.89
  -7  -1   0  288.27   24.20
  -7  -1   0  352.16   24.70
   1  -7   0  347.27   23.30
  -7  -1   0  311.17   25.70
   1  -7   0  308.57   26.50
   1  -7   0  335.17   24.40
   1  -7   0  348.37   23.50
  -7  -1   0  268.97   24.60
   7   0   0    0.70    1.70
  -7   0   0    1.20    1.10
  -7   0   0    0.90    1.30
  -7   0   0    2.50    1.40
  -7   1   0  258.67   25.00
  -1  -7   0  347.67   26.40
  -1  -7   0  332.67   24.40
  -1  -7   0  337.67   24.00
  -7   1   0  302.57   24.90
  -1  -7   0  342.77   23.60
   1   7   0  363.36   23.90
   7  -1   0  297.67   25.20
  -7   2   0 1039.70   80.39
  -2  -7   0 1203.98   78.99
  -2  -7   0 1077.29   79.69
  -2  -7   0 1184.18   81.49
   7  -2   0  960.70   80.29
  -2  -7   0 1141.49   79.29
  -7   2   0 1000.70   80.89
   2   7   0 1193.38   79.29
  -3  -7   0 1160.48   75.59
  -7   3   0  939.51   77.09
  -3  -7   0 1152.68   77.79
   7  -3   0 1067.19   78.19
  -3  -7   0 1037.50   75.79
  -3  -7   0 1077.29   76.29
   7  -3   0 1006.90   76.79
  -7   3   0  981.80   78.19
  -7   3   0  974.60   77.69
   3   7   0 1122.99   76.09
   7  -4   0 5350.56  422.86
   4   7   0 6392.86  422.66
  -7   4   0 5614.54  423.76
  -4  -7   0 6469.55  422.26
   7  -4   0 6092.69  425.16
  -7   4   0 6241.78  424.76
  -4  -7   0 5752.82  422.76
  -4  -7   0 5415.66  422.26
  -7   5   0   12.90    3.80
   7  -5   0   14.90    4.30
  -7   5   0   10.00    3.30
  -5  -7   0   17.90    3.40
  -5  -7   0   13.10    1.70
   7  -5   0   15.70    2.70
   7  -5   0   13.60    2.50
   5   7   0   14.30    2.60
  -5  -7   0   13.10    2.10
  -5  -7   0   18.00    2.60
  -7   5   0    7.40    2.50
  -7   6   0 1592.34  113.19
  -6  -7   0 1530.15  110.39
  -6  -7   0 1624.84  111.39
   6   7   0 1591.34  111.29
  -7   6   0 1450.75  112.09
   7  -6   0 1384.16  113.29
   7  -6   0 1546.55  110.89
   7  -6   0 1523.05  110.49
  -7   7   0  154.08   15.70
  -7   7   0  224.18   18.00
  -7   7   0  188.58   16.90
  -7  -7   0  173.98   14.20
   7  -7   0  193.18   18.30
   7  -7   0  199.38   15.10
  -7  -7   0  206.68   16.00
   7  -7   0  186.08   14.70
   7   7   0  186.38   15.90
  -7  -7   0  185.78   14.80
  -8  -7   0    8.80    2.30
   8   7   0    3.90    2.40
  -7   8   0    9.10    3.00
   7  -8   0    9.90    4.60
  -8  -7   0    5.50    2.40
   7  -8   0    4.40    1.70
  -7   8   0    9.10    3.80
   7  -8   0    7.10    1.90
  -8  -6   0  309.17   25.80
   6  -8   0  339.67   25.80
  -8  -6   0  395.66   28.00
   6  -8   0  360.96   26.20
  -6   8   0  349.27   29.30
   6  -8   0  337.47   30.10
  -8  -6   0  358.26   26.60
   8   6   0  335.87   28.00
  -5   8   0  476.65   36.60
  -8  -5   0  387.96   33.30
   5  -8   0  421.36   32.80
   5  -8   0  464.75   33.20
   5  -8   0  463.45   37.60
  -8  -5   0  496.75   35.20
  -8  -5   0  470.05   33.80
  -8  -5   0  436.36   34.00
  -4   8   0    1.40    2.10
   4  -8   0    2.70    2.80
  -8  -4   0    1.00    1.10
   4  -8   0    4.30    1.10
  -8  -4   0    1.70    1.40
   4  -8   0    2.30    1.00
   8   4   0    2.20    2.40
  -8  -4   0    5.30    2.40
  -8  -3   0  424.66   36.50
   3  -8   0  506.35   35.50
  -8  -3   0  509.65   36.70
   8   3   0  482.55   39.00
   8   3   0  521.05   36.90
  -8  -3   0  448.26   36.90
  -3   8   0  511.35   36.50
  -8  -3   0  502.05   38.00
   3  -8   0  489.85   35.70
   3  -8   0  449.16   39.30
  -8  -3   0  515.95   35.50
  -2   8   0 4600.24  312.07
   2  -8   0 4601.04  312.57
   2  -8   0 3969.20  315.57
   8   2   0 3900.11  315.37
  -8  -2   0 3971.90  313.27
  -8  -2   0 4693.93  314.77
  -8  -2   0 4490.35  312.47
  -8  -2   0 4572.84  313.17
   8   2   0 4324.07  313.57
   2  -8   0 4527.15  312.97
  -8  -1   0  226.08   21.00
   1  -8   0  264.57   20.70
  -8  -1   0  220.68   21.00
   1  -8   0  276.07   19.70
   1  -8   0  287.97   19.30
  -1   8   0  309.17   19.80
  -8  -1   0  282.97   20.90
  -8  -1   0  250.87   20.50
   8   1   0  242.48   23.10
   1  -8   0  274.17   23.30
  -8  -1   0  274.97   22.30
   1  -8   0  271.77   20.50
   0  -8   0 5191.08  388.36
   0  -8   0 5443.46  390.76
  -8   0   0 5313.57  388.56
  -8   0   0 4865.71  389.06
   0  -8   0 5707.33  389.16
   0  -8   0 5872.71  388.96
   0   8   0 5550.24  387.76
  -8   0   0 5496.95  390.16
  -1  -8   0  283.87   21.20
  -1  -8   0  281.57   21.70
  -1  -8   0  285.17   22.10
  -1  -8   0  292.07   24.20
  -8   1   0  325.27   22.70
  -8   1   0  263.97   22.60
   1   8   0  305.57   21.50
  -8   2   0 4178.88  315.47
  -2  -8   0 4652.93  313.67
  -8   2   0 4419.06  314.97
  -2  -8   0 4829.02  316.27
   8  -2   0 3745.03  314.67
  -2  -8   0 3894.81  313.97
   2   8   0 4506.05  313.57
  -2  -8   0 4894.81  313.57
   3   8   0  548.85   38.90
  -3  -8   0  531.15   39.30
  -8   3   0  499.35   40.20
  -3  -8   0  609.14   38.50
  -3  -8   0  606.74   41.20
  -8   3   0  470.45   41.20
  -3  -8   0  566.84   38.90
   8  -3   0  442.36   39.70
  -8   3   0  497.95   40.80
   8  -4   0    6.10    3.10
  -4  -8   0    3.30    1.40
   8  -4   0    8.90    2.30
   4   8   0    6.40    1.60
  -8   4   0    1.80    2.00
  -8   4   0    0.50    1.30
  -8   4   0    8.80    3.00
  -4  -8   0    2.30    1.90
  -8   4   0    4.30    2.50
   8  -4   0    1.50    1.20
  -4  -8   0    3.30    1.20
  -5  -8   0  453.35   34.60
  -8   5   0  449.95   36.30
   8  -5   0  512.15   38.10
   8  -5   0  452.75   35.20
  -5  -8   0  508.65   35.40
  -8   5   0  480.55   37.10
   8  -5   0  405.46   35.20
   5   8   0  505.65   35.10
  -6  -8   0  376.46   27.80
   8  -6   0  352.56   30.20
   8  -6   0  352.66   27.20
   8  -6   0  317.07   27.30
   6   8   0  362.26   27.60
  -6  -8   0  343.37   26.90
  -8   6   0  402.66   29.30
  -8   6   0  384.86   29.70
  -7  -8   0    8.40    2.60
   8  -7   0    9.10    4.30
  -7  -8   0    6.10    1.80
   7   8   0    7.30    2.70
   8  -7   0   16.70    2.80
  -8   7   0    8.50    3.60
   8  -7   0    7.60    2.00
  -8   7   0    6.50    2.80
  -8   7   0    9.40    3.70
  -8   8   0 5118.89  369.66
  -8   8   0 5481.85  370.96
  -8   8   0 4641.34  368.86
  -8  -8   0 5335.47  368.86
  -8  -8   0 5347.87  367.66
   8  -8   0 5127.89  367.16
   8  -8   0 4816.92  371.36
   8   8   0 5199.28  368.96
   8  -9   0   18.40    3.10
   8  -9   0   17.30    5.80
  -9  -8   0   14.70    3.70
  -8   9   0   22.00    5.80
  -9  -8   0   20.80    3.60
   8  -9   0   17.20    4.60
   8  -9   0   17.40    2.90
   9   8   0   19.30    4.80
   7  -9   0   13.80    5.40
   7  -9   0    6.40    2.90
   9   7   0    4.80    3.00
  -9  -7   0    8.30    3.10
   7  -9   0    5.20    1.80
   7  -9   0    7.00    1.90
  -9  -7   0   11.40    2.70
  -7   9   0   10.00    4.20
   6  -9   0   34.90    3.60
  -9  -6   0   29.60    5.30
   6  -9   0   24.00    6.70
  -9  -6   0   32.70    4.20
   9   6   0   25.80    5.60
  -9  -6   0   28.60    3.40
   6  -9   0   26.40    3.30
   5  -9   0   47.60    4.50
  -9  -5   0   51.79    5.40
  -9  -5   0   38.30    5.20
  -9  -5   0   48.00    6.20
   9   5   0   56.89    7.50
   5  -9   0   60.99   10.70
  -9  -5   0   43.90    4.80
   5  -9   0   45.30    4.30
  -9  -4   0 1996.40  147.29
   9   4   0 1888.91  149.88
  -9  -4   0 2007.90  147.89
  -9  -4   0 2263.37  147.69
   4  -9   0 2012.00  146.09
   4  -9   0 2097.89  151.58
   4  -9   0 2024.50  146.39
  -9  -3   0    9.40    3.10
   3  -9   0   11.20    1.60
  -9  -3   0    5.30    2.30
  -9  -3   0    8.10    1.40
  -9  -3   0   12.60    2.70
   3  -9   0    7.50    1.50
   3  -9   0    7.60    3.90
  -9  -3   0   12.90    2.70
   9   3   0   10.10    3.90
  -9  -2   0  728.53   51.69
  -9  -2   0  589.24   50.19
  -9  -2   0  589.44   49.90
   9   2   0  598.84   52.59
   2  -9   0  706.03   48.70
   2  -9   0  666.23   49.70
  -9  -2   0  680.43   49.10
   2  -9   0  729.33   48.30
   2  -9   0  743.93   49.50
   2  -9   0  620.34   52.59
  -9  -2   0  719.03   49.90
   9   2   0  648.54   50.59
   1  -9   0    0.30    2.50
  -9  -1   0    2.00    1.50
  -9  -1   0    2.10    1.50
  -9  -1   0    2.80    1.50
   1  -9   0    1.80    1.20
  -9  -1   0    6.50    2.70
   1  -9   0    2.30    0.80
   9   1   0    4.50    2.30
  -9  -1   0    3.90    1.70
   9   1   0    6.90    3.50
   1  -9   0    3.40    1.40
   0  -9   0    3.20    1.20
  -9   0   0    1.00    1.40
   0  -9   0    2.00    1.20
  -9   0   0    0.20    1.20
  -9   0   0    2.00    1.30
   0  -9   0    1.00    2.40
  -9   0   0    1.30    1.80
   0  -9   0    1.90    0.70
  -9   0   0    2.00    1.70
  -9   1   0   10.90    2.90
  -9   1   0    1.20    1.60
   1   9   0    4.00    1.10
  -9   1   0    3.10    2.30
  -1  -9   0    3.50    0.80
  -1  -9   0    2.90    1.20
  -1  -9   0   10.90    2.30
  -9   1   0    5.50    1.80
  -1  -9   0    2.50    2.60
  -2  -9   0  744.13   53.59
  -2  -9   0  680.13   50.89
  -9   2   0  750.92   51.89
   2   9   0  718.33   50.69
  -9   2   0  688.63   52.79
  -2  -9   0  666.63   51.29
  -2  -9   0  772.62   50.29
   9  -2   0  582.44   51.99
  -9   2   0  680.23   52.09
  -3  -9   0    6.80    1.10
  -3  -9   0   12.10    1.90
  -9   3   0    6.70    3.10
  -9   3   0    8.90    3.10
  -3  -9   0   14.00    3.90
  -3  -9   0   11.10    2.30
   9  -3   0   15.30    3.40
  -9   3   0    5.80    2.70
  -9   3   0    4.70    2.20
   9  -4   0 1979.10  153.98
  -9   4   0 2055.19  155.28
   4   9   0 2304.37  153.18
  -9   4   0 1964.40  155.98
  -9   4   0 2261.07  154.88
  -4  -9   0 2159.68  153.58
  -4  -9   0 2177.18  152.98
   5   9   0   48.20    5.00
  -9   5   0   57.49    7.10
  -9   5   0   38.70    5.80
  -5  -9   0   52.49    5.40
  -9   5   0   57.29    7.10
  -5  -9   0   46.10    4.70
  -5  -9   0   53.69    6.40
  -9   5   0   52.69    7.30
   9  -5   0   45.90    5.60
   9  -5   0   38.00    5.20
   9  -6   0   32.60   10.40
  -9   6   0   26.70    5.10
   6   9   0   25.20    4.00
  -6  -9   0   39.70    4.50
   9  -6   0   22.40    4.10
  -9   6   0   33.40    6.80
  -9   6   0   35.20    6.50
  -6  -9   0   38.70    3.80
  -9   6   0   27.40    5.50
   9  -6   0   33.00    4.50
  -9   7   0    5.60    3.20
  -7  -9   0   14.50    2.70
  -9   7   0    5.20    3.30
  -9   7   0   10.70    3.40
   9  -7   0    4.60    3.70
   9  -7   0    7.60    2.40
   9  -7   0    4.80    2.00
  -7  -9   0    6.70    2.50
   7   9   0    8.20    2.60
  -9   8   0   15.70    4.80
   9  -8   0   13.10    3.00
   9  -8   0   23.60    3.50
   9  -8   0   19.00    6.00
  -9   8   0   15.50    4.30
  -8  -9   0   21.90    4.30
  -9   8   0   19.20    5.20
  -8  -9   0   13.50    2.90
   9  -8   0   11.20    4.40
   8   9   0   16.90    4.10
  -9  -9   0  814.12   58.39
  -9   9   0  881.51   61.99
   9  -9   0  668.33   60.09
   9   9   0  728.53   59.49
  -9  -9   0  820.22   59.69
   9  -9   0  771.12   57.79
   9  -9   0  785.22   62.49
   9  -9   0  843.62   58.39
   9 -10   0  510.55   44.60
 -10  -9   0  522.95   41.60
   9 -10   0  467.05   41.80
   9 -10   0  555.44   40.00
  10   9   0  523.45   42.10
   9 -10   0  560.44   39.60
 -10  -9   0  561.54   40.50
 -10  -8   0  444.86   34.40
   8 -10   0  459.45   39.00
   8 -10   0  421.86   35.70
  10   8   0  421.76   36.20
 -10  -8   0  478.75   35.90
   8 -10   0  458.15   33.40
   8 -10   0  455.45   33.80
 -10  -7   0  789.32   53.99
 -10  -7   0  794.12   55.39
   7 -10   0  715.13   52.99
  10   7   0  599.94   55.39
   7 -10   0  709.43   58.09
   7 -10   0  739.73   52.59
   7 -10   0  688.43   54.69
  10   6   0  270.87   26.00
   6 -10   0  307.57   28.20
   6 -10   0  303.27   22.70
 -10  -6   0  287.47   22.80
   6 -10   0  336.97   23.20
 -10  -6   0  322.87   24.10
 -10  -6   0  318.87   25.30
   6 -10   0  275.37   24.30
  10   5   0  416.26   39.50
 -10  -5   0  516.45   36.80
 -10  -5   0  494.25   37.30
   5 -10   0  522.75   36.30
   5 -10   0  495.05   41.70
 -10  -5   0  526.75   38.90
   5 -10   0  476.15   37.50
   5 -10   0  467.15   35.80
 -10  -5   0  498.05   37.70
 -10  -4   0    8.20    2.80
 -10  -4   0   11.00    3.60
   4 -10   0   23.00    7.00
   4 -10   0    9.30    1.60
 -10  -4   0    5.80    2.10
  10   4   0    6.70    3.70
   4 -10   0    6.40    2.30
   4 -10   0    7.90    1.60
 -10  -4   0   15.50    3.10
   3 -10   0  100.59   12.80
 -10  -3   0   89.19    9.80
   3 -10   0  109.19    7.90
  10   3   0   80.09   11.70
 -10  -3   0  108.79    7.90
 -10  -3   0  101.39    9.60
 -10  -3   0  107.99    9.50
   3 -10   0  107.79    8.40
   3 -10   0   90.89    9.30
 -10  -3   0  116.79   11.10
 -10  -2   0  480.25   40.30
  10   2   0  454.85   42.80
  10   2   0  524.55   40.70
 -10  -2   0  514.55   40.00
   2 -10   0  571.74   39.70
   2 -10   0  500.95   42.90
 -10  -2   0  597.34   41.80
   2 -10   0  515.85   38.40
 -10  -2   0  536.05   38.80
 -10  -2   0  558.64   39.70
 -10  -1   0  660.23   56.99
   1 -10   0  731.43   59.29
  10   1   0  746.53   57.79
  10   1   0  657.93   59.79
 -10  -1   0  818.22   56.49
   1 -10   0  677.73   56.39
   1 -10   0  838.72   56.29
 -10  -1   0  864.41   58.79
 -10  -1   0  721.43   56.99
   1 -10   0  848.72   55.19
 -10  -1   0  797.32   56.09
 -10   0   0 2434.76  196.28
  10   0   0 2429.66  199.08
   0 -10   0 2604.34  195.38
 -10   0   0 2975.70  197.88
   0 -10   0 3003.60  194.08
 -10   0   0 2672.83  196.28
  10   0   0 2587.04  196.98
   0 -10   0 2804.42  198.28
 -10   0   0 2799.82  195.38
   0 -10   0 2801.32  194.98
  -1 -10   0  758.82   58.79
 -10   1   0  857.01   58.99
  -1 -10   0  784.12   58.19
 -10   1   0  765.62   59.79
  -1 -10   0  815.42   61.19
 -10   1   0  753.32   60.89
 -10   1   0  820.12   59.19
  -1 -10   0  826.62   57.39
  -2 -10   0  555.94   38.70
  10  -2   0  494.15   40.50
  -2 -10   0  508.65   39.10
 -10   2   0  528.35   40.60
 -10   2   0  434.76   40.00
  -2 -10   0  580.44   41.60
 -10   2   0  440.96   41.00
  -2 -10   0  603.24   37.80
 -10   2   0  544.25   39.90
   3  10   0  114.89    9.60
  -3 -10   0  117.49   11.20
 -10   3   0   90.49   10.10
  -3 -10   0  106.19    9.20
 -10   3   0   99.79   10.50
  10  -3   0  104.49   10.20
  -3 -10   0  109.89    8.60
 -10   3   0   97.19   10.20
 -10   3   0   77.09   10.50
   4  10   0    7.30    1.80
  -4 -10   0    8.80    1.90
 -10   4   0    5.10    3.10
 -10   4   0    6.10    2.80
  10  -4   0    4.30    1.90
 -10   4   0    9.20    3.40
 -10   4   0    7.60    3.20
  -4 -10   0    9.10    3.60
  10  -4   0    9.00    3.00
  -4 -10   0    7.90    2.20
 -10   5   0  458.85   38.70
  10  -5   0  481.95   37.80
  -5 -10   0  528.55   36.90
 -10   5   0  546.15   39.70
  10  -5   0  446.36   37.70
   5  10   0  520.55   37.10
  -5 -10   0  520.65   37.70
 -10   5   0  506.85   38.80
 -10   5   0  459.65   40.10
  10  -6   0  315.97   24.60
   6  10   0  322.57   24.30
  10  -6   0  295.57   24.70
 -10   6   0  302.37   27.30
  -6 -10   0  321.97   23.90
 -10   6   0  277.47   25.60
  10  -6   0  278.27   26.50
 -10   6   0  336.97   26.20
 -10   6   0  338.87   26.70
  -6 -10   0  330.57   24.80
 -10   7   0  795.32   57.89
 -10   7   0  680.63   57.29
  -7 -10   0  774.02   55.59
   7  10   0  754.62   56.29
  10  -7   0  763.52   55.99
  10  -7   0  698.53   58.49
  10  -7   0  736.23   56.29
 -10   7   0  811.12   58.69
 -10   7   0  775.22   59.49
  -7 -10   0  771.52   56.69
  -8 -10   0  474.25   36.50
 -10   8   0  508.25   38.50
   8  10   0  446.86   36.20
  -8 -10   0  481.05   35.40
  10  -8   0  402.56   37.70
 -10   8   0  460.55   38.90
  10  -8   0  493.75   35.90
 -10   8   0  458.45   37.20
 -10   8   0  457.95   37.40
  10  -8   0  487.55   35.40
  10  -9   0  493.15   44.80
 -10   9   0  624.34   46.00
  10  -9   0  593.44   42.80
  10  -9   0  577.04   42.30
   9  10   0  540.95   43.80
  -9 -10   0  564.14   42.60
 -10   9   0  582.74   45.00
  -9 -10   0  560.54   43.80
 -10 -10   0   21.80    5.10
 -10  10   0   25.50    6.70
  10  10   0   23.30    5.60
  10 -10   0   27.90    4.30
  10 -10   0   23.30    3.90
 -10 -10   0   23.20    4.20
  10 -10   0   24.10    6.00
  10 -10   0   29.50    8.00
  11  10   0  140.39   15.00
  10 -11   0  167.58   13.00
 -11 -10   0  148.69   14.50
  10 -11   0  152.58   12.40
  10 -11   0  138.69   17.10
  10 -11   0  133.89   14.80
 -11 -10   0  144.69   13.20
 -11  -9   0   30.60    6.10
   9 -11   0   40.80    4.50
   9 -11   0   32.50    4.20
  11   9   0   28.30    6.70
   9 -11   0   24.90    6.00
   9 -11   0   35.40    8.80
 -11  -9   0   25.60    4.70
   8 -11   0    3.90    4.90
   8 -11   0   14.80    4.40
  11   8   0   12.90    4.60
   8 -11   0    5.20    1.90
   8 -11   0    4.50    1.90
 -11  -8   0    2.10    2.50
 -11  -8   0    5.80    2.50
   7 -11   0  625.94   52.79
 -11  -7   0  665.03   48.30
   7 -11   0  681.03   47.30
   7 -11   0  658.53   46.80
 -11  -7   0  653.03   49.60
  11   7   0  551.24   50.29
   7 -11   0  620.84   48.80
 -11  -6   0  379.96   29.00
   6 -11   0  335.77   27.60
 -11  -6   0  401.96   27.80
   6 -11   0  342.37   26.20
   6 -11   0  359.96   32.30
  11   6   0  296.97   29.70
   6 -11   0  332.37   25.80
   5 -11   0 2224.88  172.88
 -11  -5   0 2240.88  167.28
 -11  -5   0 2387.56  168.18
   5 -11   0 2391.86  166.98
 -11  -5   0 2306.17  168.58
   5 -11   0 2222.18  167.98
 -11  -5   0 2594.04  170.08
   5 -11   0 2228.88  166.38
 -11  -4   0  198.28   17.70
 -11  -4   0  226.68   17.30
   4 -11   0  209.88   17.50
  11   4   0  168.68   19.80
 -11  -4   0  231.58   19.00
 -11  -4   0  203.48   16.90
   4 -11   0  209.08   16.00
   4 -11   0  206.78   21.50
   4 -11   0  207.48   15.40
   3 -11   0 2208.28  150.08
   3 -11   0 1913.41  153.68
  11   3   0 1831.12  153.48
 -11  -3   0 2195.08  149.79
 -11  -3   0 2353.36  151.98
   3 -11   0 2138.79  148.49
 -11  -3   0 1864.01  150.28
 -11  -3   0 2006.20  149.79
 -11  -2   0   37.00    5.80
 -11  -2   0   50.39    5.40
 -11  -2   0   44.40    5.70
 -11  -2   0   49.30    7.10
 -11  -2   0   42.50    4.50
  11   2   0   46.00    9.40
   2 -11   0   44.50    4.20
   2 -11   0   57.59    5.70
   2 -11   0   46.70    9.60
 -11  -1   0 1109.79   76.49
   1 -11   0  895.71   76.89
 -11  -1   0  955.00   77.89
   1 -11   0  992.10   80.19
  11   1   0  931.91   81.09
 -11  -1   0 1019.00   77.59
   1 -11   0 1130.59   76.89
   1 -11   0 1123.09   75.59
 -11  -1   0 1234.18   79.79
  11   1   0 1039.80   78.69
 -11  -1   0 1088.49   76.99
   0 -11   0    0.30    1.20
  11   0   0    4.80    4.10
 -11   0   0   -0.20    1.70
 -11   0   0    0.20    1.50
   0 -11   0    1.80    2.70
   0 -11   0    1.60    0.80
 -11   0   0    2.40    2.40
  11   0   0    2.10    2.40
 -11   0   0    1.40    1.90
   0 -11   0    4.80    1.60
 -11   0   0   -0.30    1.30
  11  -1   0  954.30   79.99
 -11   1   0 1059.39   80.69
  -1 -11   0 1099.39   77.69
 -11   1   0 1113.59   79.49
  -1 -11   0 1078.59   80.79
  -1 -11   0  994.10   78.19
  -1 -11   0 1156.58   76.69
 -11   1   0  948.01   79.29
 -11   1   0 1105.59   78.39
 -11   1   0 1141.69   78.29
  -2 -11   0   48.40    4.60
 -11   2   0   37.50    6.60
  -2 -11   0   49.60    7.70
 -11   2   0   41.20    6.50
  11  -2   0   33.60    6.70
  -2 -11   0   39.90    4.90
 -11   2   0   31.90    6.70
 -11   2   0   45.30    6.00
  11  -3   0 1947.81  148.69
  -3 -11   0 2116.49  145.59
 -11   3   0 1812.62  147.49
  -3 -11   0 1855.71  146.19
 -11   3   0 2149.48  147.19
  11  -3   0 1991.20  147.19
 -11   3   0 2094.49  147.99
  -3 -11   0 2229.58  148.69
  -4 -11   0  248.98   19.00
  11  -4   0  203.78   17.50
  -4 -11   0  204.28   16.70
 -11   4   0  218.28   18.00
 -11   4   0  230.08   18.60
  11  -4   0  186.38   16.90
  11  -4   0  206.48   19.10
 -11   4   0  153.98   18.40
 -11   4   0  194.18   18.00
  -4 -11   0  205.68   16.00
  11  -5   0 2123.99  165.48
 -11   5   0 2433.96  164.28
  11  -5   0 2210.38  163.38
  -5 -11   0 2157.28  162.98
  -5 -11   0 2351.26  162.28
 -11   5   0 2395.86  165.08
  11  -5   0 2257.17  163.48
 -11   5   0 2106.19  164.38
 -11   6   0  329.67   28.80
  -6 -11   0  352.06   27.70
 -11   6   0  294.67   29.80
  -6 -11   0  375.06   26.80
 -11   6   0  358.76   28.80
  11  -6   0  359.56   27.70
  11  -6   0  359.06   30.20
 -11   6   0  359.46   29.30
  11  -6   0  361.06   27.80
 -11   7   0  708.23   51.99
  11  -7   0  710.23   50.39
 -11   7   0  721.43   52.69
   7  11   0  698.33   50.29
 -11   7   0  646.54   51.79
  11  -7   0  595.54   52.59
  -7 -11   0  684.43   50.89
 -11   7   0  569.54   52.99
  11  -7   0  661.03   50.49
  -7 -11   0  697.53   49.70
 -11   8   0    0.30    2.40
 -11   8   0    4.50    3.00
  11  -8   0    6.20    2.40
 -11   8   0    4.00    3.50
 -11   8   0    4.60    3.80
  -8 -11   0    3.90    2.60
   8  11   0    6.30    2.90
  11  -8   0    4.40    3.90
  -8 -11   0    5.50    2.10
  11  -8   0    4.00    2.40
 -11   9   0   39.10    7.40
   9  11   0   26.90    5.50
  11  -9   0   29.50    7.10
 -11   9   0   29.20    7.40
  11  -9   0   35.20    5.10
  11  -9   0   38.90    5.00
  -9 -11   0   32.00    4.90
 -11   9   0   26.10    6.40
  -9 -11   0   31.10    5.80
  11 -10   0  167.28   13.50
 -10 -11   0  144.39   13.20
  10  11   0  139.99   14.60
 -11  10   0  175.48   17.20
 -10 -11   0  141.19   14.40
  11 -10   0  140.49   15.60
 -11  10   0  133.59   16.20
 -11  10   0  174.88   16.70
  11 -10   0  161.48   13.10
 -11 -11   0 1059.69   83.69
  11  11   0 1083.99   85.59
 -11 -11   0 1072.89   85.19
  11 -11   0 1271.07   83.19
  11 -11   0 1121.89   86.29
  11 -11   0 1301.67   83.89
 -11  11   0 1037.40   87.39
  11 -12   0  171.28   18.10
 -12 -11   0  195.28   18.00
  11 -12   0  229.88   16.40
  12  11   0  167.78   18.20
  11 -12   0  200.28   15.40
 -12 -11   0  170.18   16.20
 -12 -10   0  153.08   13.90
  10 -12   0  160.48   12.70
  10 -12   0  165.88   18.60
  10 -12   0  143.99   15.20
  10 -12   0  182.38   13.50
  12  10   0  127.19   15.50
 -12 -10   0  146.39   15.00
  12   9   0 1262.37  112.69
 -12  -9   0 1539.15  110.89
   9 -12   0 1629.74  116.69
 -12  -9   0 1530.95  112.29
   9 -12   0 1381.56  111.79
   9 -12   0 1627.14  109.39
   9 -12   0 1631.54  110.09
 -12  -8   0  683.63   51.09
   8 -12   0  698.53   48.70
   8 -12   0  582.74   50.09
 -12  -8   0  656.23   49.70
   8 -12   0  649.93   48.00
   8 -12   0  672.13   55.19
 -12  -7   0 1325.77   95.19
   7 -12   0 1388.56   93.99
   7 -12   0 1262.37  100.49
 -12  -7   0 1362.26   96.69
   7 -12   0 1253.67   93.29
   7 -12   0 1172.08   95.19
 -12  -6   0   70.39    8.40
  12   6   0   43.90    9.80
 -12  -6   0   69.89    7.30
   6 -12   0   63.79    7.80
   6 -12   0   64.39    6.10
   6 -12   0   62.99    5.50
   6 -12   0   66.39   12.90
 -12  -5   0  152.88   13.90
   5 -12   0  158.18   13.90
   5 -12   0  147.29   12.00
 -12  -5   0  154.28   12.40
   5 -12   0  144.89   11.20
   5 -12   0  131.99   17.20
  12   5   0  130.69   16.30
 -12  -5   0  174.88   15.20
 -12  -5   0  143.29   13.10
 -12  -4   0    1.90    2.80
   4 -12   0    1.00    3.90
 -12  -4   0    1.40    1.60
 -12  -4   0   -2.00    1.30
  12   4   0    0.40    3.30
 -12  -4   0    2.00    2.30
   4 -12   0    1.00    1.70
   4 -12   0    0.60    1.10
 -12  -3   0  233.78   19.70
  12   3   0  184.08   22.90
   3 -12   0  252.37   18.40
 -12  -3   0  231.88   20.60
 -12  -3   0  236.78   19.50
   3 -12   0  212.58   23.40
 -12  -3   0  291.97   22.10
   3 -12   0  260.87   20.00
 -12  -2   0   98.09   10.70
   2 -12   0   81.09   13.50
   2 -12   0   87.29    8.70
 -12  -2   0   96.29    7.50
 -12  -2   0   79.39    9.00
   2 -12   0   94.09    7.50
 -12  -2   0   77.59    9.50
  12   2   0   90.29   12.70
 -12  -2   0   95.89    8.70
 -12  -1   0 2843.12  197.08
  12   1   0 2606.64  198.98
   1 -12   0 2888.51  195.68
   1 -12   0 2604.34  200.78
   1 -12   0 2898.31  197.08
 -12  -1   0 2876.51  196.38
  12   1   0 2450.25  201.88
 -12  -1   0 2586.94  197.68
 -12  -1   0 3063.79  199.98
 -12  -1   0 2461.25  198.18
   0 -12   0  113.59   13.20
   0 -12   0  121.39    8.60
 -12   0   0  103.39   10.80
  12   0   0  132.59   15.20
  12   0   0  116.39   12.20
 -12   0   0  110.59   10.00
 -12   0   0   95.39    9.80
   0 -12   0  121.49    9.90
   0 -12   0   90.29   10.00
 -12   0   0   94.89   11.10
 -12   0   0  122.49   12.60
 -12   1   0 2664.03  197.58
 -12   1   0 2770.82  196.18
  -1 -12   0 2958.00  194.58
 -12   1   0 2900.81  195.08
  -1 -12   0 2811.52  198.08
 -12   1   0 2398.56  196.18
  12  -1   0 2409.16  199.48
  12  -1   0 2683.03  197.38
  -2 -12   0   76.59    8.20
 -12   2   0   80.19    9.60
  12  -2   0   79.89   10.20
 -12   2   0   82.89    9.30
 -12   2   0   74.29   10.30
 -12   2   0   86.59    9.00
  -2 -12   0   92.19   10.70
  -2 -12   0   98.19    7.90
 -12   3   0  212.18   20.70
  -3 -12   0  264.97   21.90
  -3 -12   0  250.87   18.80
 -12   3   0  263.87   20.40
  -3 -12   0  230.28   19.50
 -12   3   0  212.08   21.80
  12  -3   0  227.48   21.70
 -12   3   0  260.97   21.10
  -4 -12   0    1.40    1.40
  12  -4   0    0.20    1.60
 -12   4   0    1.70    2.80
  -4 -12   0    1.70    1.90
  12  -4   0    1.30    2.60
 -12   4   0    2.90    2.90
  12  -4   0   -0.50    2.40
 -12   4   0    1.70    2.40
  -4 -12   0    3.40    3.30
 -12   4   0    1.40    3.00
  12  -5   0  138.29   15.10
 -12   5   0  132.89   13.90
  12  -5   0  144.49   12.90
 -12   5   0  152.88   14.00
 -12   5   0  147.69   14.20
  -5 -12   0  141.69   11.70
  12  -5   0  159.68   13.50
  -5 -12   0  139.89   12.70
 -12   5   0  105.29   14.30
  12  -6   0   79.69    8.30
  -6 -12   0   64.89    6.50
 -12   6   0   65.59    8.70
 -12   6   0   64.49    8.90
  -6 -12   0   69.69    7.60
  12  -6   0   72.89    9.90
 -12   6   0   44.50    9.60
  12  -6   0   66.79    7.50
 -12   6   0   64.19    8.40
  -7 -12   0 1237.38   97.99
  -7 -12   0 1315.57   96.79
 -12   7   0 1339.77   98.99
 -12   7   0 1272.97   99.19
  12  -7   0 1359.76  100.79
  12  -7   0 1324.47   97.89
 -12   7   0 1380.16   99.79
  12  -7   0 1440.16   97.89
 -12   8   0  678.73   54.09
  -8 -12   0  675.33   53.29
 -12   8   0  695.83   54.69
  -8 -12   0  645.04   51.79
  12  -8   0  796.72   52.69
  12  -8   0  703.53   55.59
  12  -8   0  712.43   52.79
 -12   8   0  687.93   54.29
  -9 -12   0 1536.45  122.39
 -12   9   0 1740.63  123.49
  -9 -12   0 1522.15  120.89
  12  -9   0 1641.14  121.59
 -12   9   0 1760.72  124.29
  12  -9   0 1866.21  121.39
  12  -9   0 1607.94  124.39
 -12  10   0  188.58   17.90
 -12  10   0  173.38   17.70
 -10 -12   0  163.38   14.60
  12 -10   0  166.78   17.60
  12 -10   0  186.38   14.80
 -10 -12   0  157.08   15.90
  12 -10   0  169.48   14.90
  12 -11   0  225.48   16.60
  12 -11   0  182.88   19.20
 -11 -12   0  187.58   16.70
 -11 -12   0  183.38   18.10
 -12  11   0  173.58   20.00
  12 -11   0  221.78   17.10
  13   9   0  101.69   14.40
   9 -13   0  153.28   12.10
   9 -13   0  142.89   11.20
 -13  -9   0  146.89   12.90
   9 -13   0  168.78   18.90
 -13  -9   0  130.89   13.90
  13   8   0   59.39   10.80
   8 -13   0   78.19    7.10
 -13  -8   0   73.39    8.00
 -13  -8   0   75.79    9.30
   8 -13   0   78.19   14.70
   8 -13   0   70.19    6.20
  13   7   0   99.19   13.80
 -13  -7   0  110.29   10.90
   7 -13   0  131.59   10.10
   7 -13   0  109.49    9.00
 -13  -7   0  125.99   12.40
   7 -13   0  105.69   17.50
   6 -13   0   23.60    8.40
  13   6   0   19.00    6.70
 -13  -6   0   17.60    5.00
   6 -13   0   21.10    4.80
   6 -13   0   22.40    3.40
 -13  -6   0   18.90    4.00
  13   5   0  323.87   35.20
 -13  -5   0  473.65   34.20
   5 -13   0  412.96   32.60
 -13  -5   0  426.96   31.90
   5 -13   0  422.06   30.70
 -13  -5   0  435.26   33.00
   5 -13   0  330.47   36.10
  13   4   0   94.79   13.70
 -13  -4   0  108.39   11.10
 -13  -4   0  115.99    9.80
   4 -13   0   72.79   13.90
 -13  -4   0  105.59   10.00
   4 -13   0   99.99    8.80
   4 -13   0  102.69   10.40
 -13  -4   0  119.69   11.90
   3 -13   0 1248.88   87.79
 -13  -3   0 1158.58   88.59
   3 -13   0  969.50   90.99
   3 -13   0 1230.38   85.99
 -13  -3   0 1220.68   87.19
 -13  -3   0 1400.36   90.09
  13   3   0 1026.60   91.99
 -13  -3   0 1197.98   87.39
 -13  -2   0  302.37   24.10
 -13  -2   0  270.57   24.80
   2 -13   0  323.07   22.30
 -13  -2   0  326.57   26.20
 -13  -2   0  287.07   23.50
  13   2   0  266.77   28.50
   2 -13   0  273.67   27.60
   2 -13   0  305.87   23.90
  13   1   0    0.20    3.60
   1 -13   0    7.80    2.50
 -13  -1   0    3.30    2.50
 -13  -1   0    3.80    2.10
 -13  -1   0    6.10    3.40
 -13  -1   0    8.10    2.20
   1 -13   0    4.60    4.10
 -13  -1   0    4.80    3.10
 -13   0   0    1.60    2.00
  13   0   0    7.80    3.90
 -13   0   0    1.40    2.30
   0 -13   0    4.30    3.60
 -13   0   0    1.30    2.80
   0 -13   0    1.60    1.60
   0 -13   0    7.20    2.60
 -13   0   0    0.10    2.00
  13   0   0   -0.60    3.70
  13  -1   0   26.90    7.50
 -13   1   0    5.10    3.60
 -13   1   0    7.60    3.10
  -1 -13   0    2.70    2.00
  13  -1   0   28.90    6.60
  -1 -13   0    6.10    2.20
  -1 -13   0   12.20    5.00
 -13   1   0    5.10    2.70
 -13   1   0    4.30    3.10
 -13   2   0  250.87   23.70
  -2 -13   0  281.37   25.10
 -13   2   0  301.07   22.80
  -2 -13   0  300.17   21.90
 -13   2   0  271.57   25.20
  -2 -13   0  239.78   22.40
  13  -2   0  276.07   27.20
  13  -2   0  294.27   25.20
 -13   2   0  304.27   23.90
 -13   3   0 1026.10   83.49
 -13   3   0 1249.07   82.59
 -13   3   0 1113.19   85.39
 -13   3   0 1140.09   83.39
  -3 -13   0  978.70   81.89
  13  -3   0 1073.49   84.49
  13  -3   0 1092.69   86.69
  -3 -13   0 1126.89   81.19
  -3 -13   0 1219.78   84.69
  13  -3   0 1125.89   85.79
  13  -4   0  100.59   12.40
  -4 -13   0  140.09   13.00
  -4 -13   0  101.09    9.30
 -13   4   0   98.49   12.80
 -13   4   0  107.89   11.30
  13  -4   0  125.59   12.20
  -4 -13   0   98.69   10.30
 -13   4   0  100.49   11.60
  13  -4   0  102.99   10.50
 -13   4   0   97.79   11.20
 -13   5   0  324.07   33.10
  -5 -13   0  393.96   29.60
  13  -5   0  389.76   33.20
 -13   5   0  435.66   31.80
 -13   5   0  371.06   32.10
 -13   5   0  402.46   32.10
  13  -5   0  444.86   31.30
  -5 -13   0  356.06   30.60
 -13   6   0   17.90    5.00
  13  -6   0   16.80    5.60
  13  -6   0   18.40    4.10
 -13   6   0   20.70    5.40
  13  -6   0   17.10    4.30
 -13   6   0   29.90    6.40
 -13   6   0   13.20    5.30
  -6 -13   0   17.20    4.20
  -6 -13   0   17.00    3.30
 -13   7   0  131.39   13.30
 -13   7   0  125.19   13.00
  13  -7   0  118.59   13.90
  13  -7   0  136.09   11.80
  13  -7   0  128.49   11.90
 -13   7   0   86.89   13.00
  -7 -13   0  106.69   11.50
 -13   7   0  124.99   13.00
  -7 -13   0  108.59   10.20
  13  -8   0   85.19    8.70
  -8 -13   0   73.79    8.90
 -13   8   0   79.99    9.90
 -13   8   0   69.89   10.50
 -13   8   0   56.59   11.30
 -13   8   0   70.39    9.70
  13  -8   0   83.59   12.50
  -8 -13   0   66.19    7.40
  13  -8   0   92.49    9.10
 -13   9   0  157.88   16.20
  13  -9   0  168.78   14.00
  13  -9   0  148.39   16.50
 -13   9   0  149.09   15.70
  -9 -13   0  138.19   14.50
  13  -9   0  166.38   14.20
  -9 -13   0  142.49   13.10
  14   8   0  389.16   39.60
 -14  -8   0  531.65   38.80
   8 -14   0  494.45   43.30
   8 -14   0  497.15   35.80
 -14  -8   0  458.55   36.50
   7 -14   0  634.94   52.99
   7 -14   0  632.74   45.10
 -14  -7   0  651.53   47.90
 -14  -7   0  601.84   46.00
  14   7   0  506.05   49.40
 -14  -6   0  120.19   11.60
 -14  -6   0  139.99   13.50
   6 -14   0  109.19   18.30
  14   6   0  106.79   15.10
   6 -14   0  157.98   15.70
   6 -14   0  123.59   10.60
 -14  -5   0   19.60    3.90
 -14  -5   0   18.40    4.70
   5 -14   0   12.50    6.90
   5 -14   0   14.70    2.80
   5 -14   0   18.50    4.50
  14   5   0   11.80    5.80
 -14  -5   0   21.10    5.20
 -14  -4   0   93.99    9.10
 -14  -4   0  106.89   11.30
  14   4   0   71.59   13.90
   4 -14   0   95.29    9.70
   4 -14   0   70.19   13.80
 -14  -4   0   88.79   10.30
   4 -14   0   93.49    7.90
 -14  -4   0   86.09    8.50
 -14  -3   0   77.69    9.70
  14   3   0   61.19   12.30
 -14  -3   0   65.09    8.70
   3 -14   0   67.69    7.80
   3 -14   0   73.49    6.20
   3 -14   0   49.00   11.80
 -14  -3   0   62.99    7.20
 -14  -3   0   73.49    7.50
 -14  -2   0 1088.79   73.89
   2 -14   0  807.12   74.39
 -14  -2   0  962.40   70.69
 -14  -2   0  967.10   72.59
  14   2   0  837.52   75.99
   2 -14   0 1011.80   71.09
 -14  -2   0  975.30   71.09
 -14  -1   0   18.30    3.80
 -14  -1   0   29.80    5.30
   1 -14   0   22.60    4.30
   1 -14   0   22.80    7.00
 -14  -1   0   26.60    6.20
  14   1   0   21.50    7.80
 -14  -1   0   17.30    5.00
 -14   0   0  202.88   18.30
 -14   0   0  160.38   16.60
  14   0   0  146.19   19.50
  14   0   0  185.48   17.70
 -14   0   0  162.28   15.70
   0 -14   0  177.18   14.90
   0 -14   0  173.38   18.40
 -14   0   0  184.08   14.40
  -1 -14   0   17.20    5.90
  -1 -14   0   19.00    4.30
  -1 -14   0   22.00    3.80
  14  -1   0   27.40    6.70
 -14   1   0   19.90    6.00
 -14   1   0   20.10    4.60
 -14   1   0   15.70    5.10
  14  -1   0   19.10    7.30
 -14   1   0   23.20    4.20
 -14   2   0  942.71   69.29
  14  -2   0  898.61   70.69
  -2 -14   0  958.50   67.49
 -14   2   0 1029.60   68.19
 -14   2   0  994.10   71.79
 -14   2   0  865.51   69.79
  14  -2   0  844.12   73.09
  -2 -14   0  954.00   71.09
  -2 -14   0  761.32   68.09
  -3 -14   0   66.29    7.80
 -14   3   0   68.79    8.60
  -3 -14   0   75.69   11.30
  14  -3   0   81.09   11.90
 -14   3   0   71.69    8.50
 -14   3   0   69.09    9.30
 -14   3   0   65.79    9.90
  -3 -14   0   66.19    6.90
  14  -3   0   61.09   11.80
  14  -4   0   92.29   11.50
  -4 -14   0   82.39    8.10
  14  -4   0   97.89   13.30
 -14   4   0   92.09   10.30
  14  -4   0   94.29    9.50
 -14   4   0   85.09   10.60
  -4 -14   0   74.79    9.00
 -14   4   0   81.59   11.70
 -14   4   0   90.09   10.10
  -5 -14   0   14.80    3.20
  14  -5   0   15.20    5.50
  14  -5   0   20.10    5.10
 -14   5   0   15.20    6.00
  14  -5   0   14.20    5.80
 -14   5   0   16.50    5.10
  14  -5   0   19.30    4.30
 -14   5   0   18.90    5.20
 -14   5   0   20.20    5.60
  -5 -14   0   27.00    5.10
 -14   6   0   98.09   14.20
  -6 -14   0  124.29   10.90
  -6 -14   0  122.79   12.30
 -14   6   0  131.39   13.80
  14  -6   0  119.59   14.30
  14  -6   0  122.09   12.10
  14  -6   0  142.59   13.00
 -14   6   0  133.89   13.60
  14  -7   0  676.53   46.70
  -7 -14   0  543.85   44.90
 -14   7   0  643.84   47.50
 -14   7   0  610.04   47.80
  14  -7   0  692.03   46.80
 -14   7   0  582.04   47.90
  14  -7   0  593.94   49.00
  -7 -14   0  510.05   46.40
  -8 -14   0  421.36   38.00
 -14   8   0  473.55   38.80
 -14   8   0  472.45   39.10
  14  -8   0  554.54   37.80
  14  -8   0  460.95   40.20
  14  -8   0  536.15   37.90
  -8 -14   0  453.55   36.40
 -15  -6   0 1339.97  101.19
   6 -15   0 1456.45  100.29
  15   6   0 1176.18  105.59
   6 -15   0 1295.87  107.89
 -15  -6   0 1601.04  103.89
 -15  -5   0  178.98   15.10
 -15  -5   0  208.78   17.70
   5 -15   0  169.08   14.20
   5 -15   0  144.19   20.10
   5 -15   0  176.78   16.10
 -15  -5   0  179.28   17.00
  15   5   0  136.89   19.00
 -15  -4   0 1467.95  103.49
  15   4   0 1297.27  108.99
   4 -15   0 1151.38  108.09
 -15  -4   0 1552.34  105.59
   4 -15   0 1539.65  104.49
 -15  -3   0   33.70    6.80
   3 -15   0   36.70    6.00
  15   3   0   25.60    8.50
   3 -15   0   16.90    7.30
 -15  -3   0   30.30    5.00
 -15  -3   0   35.00    5.10
 -15  -3   0   41.30    7.80
   2 -15   0  992.30   74.29
 -15  -2   0 1150.68   77.29
  15   2   0  972.30   80.39
 -15  -2   0  964.50   75.79
 -15  -2   0  959.20   73.79
 -15  -2   0  973.40   74.09
   1 -15   0   25.60    4.70
 -15  -1   0   20.40    4.70
 -15  -1   0   34.50    7.30
   1 -15   0   27.00    7.80
 -15  -1   0   24.00    6.20
  15   1   0   18.60    7.90
 -15   0   0    4.10    3.90
   0 -15   0    1.30    3.50
 -15   0   0   -0.90    2.70
 -15   0   0    0.90    2.40
   0 -15   0    1.90    2.00
  15   0   0    3.80    5.30
 -15   1   0   24.60    6.10
  15  -1   0   21.40    7.90
  -1 -15   0   21.60    4.70
  -1 -15   0   21.10    6.60
 -15   1   0   29.50    4.50
  -1 -15   0   25.70    4.40
 -15   1   0   32.20    7.40
  15  -1   0   25.30    6.90
 -15   1   0   19.00    4.90
 -15   2   0  985.00   75.49
  15  -2   0 1016.80   77.29
 -15   2   0  971.40   76.49
  15  -2   0  960.90   79.89
  -2 -15   0  925.01   77.09
 -15   2   0 1113.79   78.59
  -2 -15   0 1001.00   73.89
 -15   2   0 1049.30   74.09
  15  -3   0   32.40    7.70
  15  -3   0   31.60    8.80
  -3 -15   0   31.40    7.30
 -15   3   0   27.80    7.60
 -15   3   0   34.50    6.60
  -3 -15   0   30.60    5.90
  -3 -15   0   34.70    4.70
 -15   3   0   36.10    7.70
 -15   3   0   44.20    6.30
 -15   4   0 1324.97  104.19
  -4 -15   0 1171.38  100.89
  -4 -15   0 1343.07   99.69
  15  -4   0 1336.97  105.49
 -15   4   0 1443.66  102.99
 -15   4   0 1582.44  101.09
  15  -4   0 1320.17  103.09
 -15   4   0 1431.36  101.99
 -15   5   0  176.38   16.00
  15  -5   0  170.88   18.80
  15  -5   0  156.38   16.90
  -5 -15   0  152.08   13.40
 -15   5   0  142.69   17.30
 -15   5   0  149.79   16.20
 -15   5   0  190.58   15.80
  15  -5   0  163.68   14.80
  -5 -15   0  138.89   14.80
 -15   6   0 1453.85   96.09
  -6 -15   0 1205.98   93.89
 -15   6   0 1114.79   98.19
  15  -6   0 1511.35   95.99
  15  -6   0 1259.47   97.79
 -15   6   0 1370.86   96.79
  -6 -15   0 1130.59   95.59
 -15   6   0 1286.07   97.19
  16   3   0    3.30    5.50
   3 -16   0    1.40    2.10
 -16  -3   0    6.30    2.70
 -16  -3   0    1.40    3.20
 -16  -3   0   -1.00    2.90
   3 -16   0   -0.60    4.00
 -16  -2   0  731.13   51.49
   2 -16   0  637.24   48.50
  16   2   0  580.44   53.89
   2 -16   0  528.15   51.99
 -16  -2   0  657.33   48.10
 -16  -2   0  645.64   50.29
   1 -16   0   88.59    9.80
 -16  -1   0  107.29   12.10
 -16  -1   0  107.69   12.70
 -16  -1   0  104.69   10.20
   1 -16   0   82.99   14.80
  16   1   0   92.19   16.40
 -16   0   0 1478.05  108.09
   0 -16   0 1221.58  108.69
 -16   0   0 1552.14  106.49
  16   0   0 1464.65  112.39
   0 -16   0 1480.05  105.69
  16  -1   0  104.39   15.00
 -16   1   0   89.29   11.50
  -1 -16   0   95.49   12.70
  -1 -16   0   87.09    9.20
 -16   1   0  106.09   13.00
  -2 -16   0  581.64   49.80
  -2 -16   0  607.64   46.40
  16  -2   0  668.73   53.19
  16  -2   0  609.44   49.40
 -16   2   0  620.84   49.20
 -16   3   0    1.20    3.40
 -16   3   0    3.00    3.00
  -3 -16   0    0.00    2.10
  -3 -16   0    0.30    4.00
  16  -3   0    0.30    3.70
 -16   3   0   -0.40    3.80
  16  -3   0   -2.30    3.70
  -3 -16   0    2.30    2.00
   2  -2  -1  651.13   47.10
   2  -3  -1 1087.59   77.09
  -3  -2  -1 1054.89   77.49
   2  -3  -1 1030.20   76.89
   3   2  -1 1208.88   77.49
  -3  -2   1 1067.49   76.89
  -3  -2   1 1043.90   77.49
   2  -3   1  976.30   76.99
  -3  -2   1 1125.49   77.19
   3   1  -1    2.80    1.10
   3   0  -1  975.10   70.09
   3  -1  -1    3.60    1.00
   2   3  -1 1176.58   80.29
  -2  -3  -1 1082.29   80.19
  -2  -3   1 1165.28   80.09
  -2  -3   1 1072.69   80.29
  -2  -3   1 1093.19   79.89
  -3   3  -1 1183.48   84.49
  -3  -3  -1 1225.58   84.79
   3   3  -1 1189.18   84.79
   3  -3  -1 1220.88   84.49
   3   3   1 1191.98   85.09
   3  -3   1 1157.08   84.49
  -3  -3   1 1059.49   84.19
  -3  -3   1 1249.38   84.49
   3  -3   1 1118.79   84.49
   3  -4  -1   19.40    2.00
  -3   4  -1   13.40    3.00
  -4  -3  -1   13.80    1.80
  -4  -3  -1   16.30    1.80
   3  -4  -1   19.00    1.90
  -3   4  -1   17.40    1.90
  -4  -3  -1   17.80    2.40
   4   3  -1   17.80    2.40
   3  -4  -1   16.10    3.60
   3  -4   1   14.60    1.80
  -4  -3   1   18.90    2.10
   3  -4   1   17.40    1.90
  -4  -3   1   15.50    1.90
   4   3   1   19.70    2.90
  -4  -3   1   20.70    2.50
  -4  -3   1   14.20    2.30
   2  -4  -1  150.28   10.80
   2  -4  -1  155.08   11.00
  -4  -2  -1  131.69   11.80
   2  -4  -1  135.79   12.60
  -4  -2  -1  122.09   11.10
   4   2  -1  169.68   11.10
   4   2  -1  168.38   11.90
   2  -4   1  143.19   10.90
  -4  -2   1  137.09   11.00
  -4  -2   1  135.29   11.80
   2  -4   1  146.69   10.90
  -4  -2   1  155.38   11.40
  -4  -1  -1  300.97   25.80
   1  -4  -1  340.47   26.90
   1  -4  -1  325.97   25.00
   4   1  -1  390.66   25.70
   1  -4  -1  349.07   25.20
  -1   4  -1  374.26   25.30
  -4  -1  -1  315.77   25.40
   1  -4  -1  376.96   25.70
   1  -4   1  349.96   25.30
  -4  -1   1  336.97   25.90
   1  -4   1  367.36   25.70
  -4  -1   1  362.96   25.70
   1  -4   1  348.97   25.20
  -4   0  -1    0.60    0.80
  -4   0  -1    1.00    0.90
  -4   0  -1    1.70    1.00
   4   0  -1    1.20    0.90
   0   4  -1    2.60    0.60
   0  -4  -1   11.80    2.70
   0  -4  -1    0.80    0.50
  -4   0   1    0.40    0.80
  -4   0   1    0.70    0.70
   0  -4   1    1.90    0.40
  -4   0   1    1.60    0.90
   0  -4   1    3.60    0.80
   0  -4   1    0.80    0.40
  -4   1  -1  321.47   27.30
  -4   1  -1  323.07   27.00
   1   4  -1  408.26   26.50
  -1  -4  -1  388.46   26.60
  -1  -4   1  376.46   26.20
  -1  -4   1  363.56   26.30
  -4   1   1  311.37   27.20
  -1  -4   1  396.46   26.60
  -4   2  -1  125.19   12.30
   2   4  -1  171.38   11.50
   4  -2  -1  165.08   11.90
  -2  -4  -1  157.08   11.40
  -4   2  -1  130.39   12.00
  -2  -4   1  158.58   11.00
  -2  -4   1  155.58   11.50
  -4   2   1  123.69   12.10
  -2  -4   1  147.39   11.10
   4  -3  -1   17.90    2.20
   3   4  -1   18.40    2.10
  -4   3  -1   14.70    3.10
  -3  -4  -1   17.60    2.00
  -4   3  -1   12.00    2.70
   4  -3  -1   21.80    4.00
  -3  -4  -1   19.30    1.70
  -4   3   1   13.40    2.90
   3   4   1   15.40    2.20
   4  -3   1   20.30    2.20
  -3  -4   1   21.30    2.00
  -3  -4   1   14.70    1.70
  -3  -4   1   13.90    1.60
  -3  -4   1   14.60    2.00
  -4  -4  -1  112.19    8.70
  -4  -4  -1  108.69    8.00
  -4  -4  -1  106.99    7.70
   4  -4  -1   97.89    8.10
  -4   4  -1   87.19    9.20
   4  -4  -1  120.99    8.50
  -4   4  -1  101.69    8.20
   4   4  -1  112.39    8.70
   4  -4  -1   97.09   10.00
  -4   4  -1   86.89    9.40
   4   4   1  121.79    9.20
   4  -4   1  101.39    8.30
  -4  -4   1  116.79    8.30
  -4  -4   1  100.69    8.20
  -4  -4   1   98.69    7.90
  -4   4   1   81.39    9.30
   4  -4   1   91.19    9.80
  -4  -4   1  107.29    8.60
   4  -4   1  104.99    8.20
  -4   4   1   92.09    8.50
  -5  -4  -1   18.00    2.00
  -5  -4  -1   15.50    3.40
   4  -5  -1   19.80    2.30
  -4   5  -1   22.10    4.00
  -4   5  -1   15.70    3.70
  -4   5  -1   12.30    2.80
   4  -5  -1   18.40    4.50
  -5  -4  -1   25.00    3.10
  -5  -4  -1   23.90    2.30
  -4   5  -1   22.80    2.40
   4  -5  -1   23.30    2.30
  -5  -4   1   17.50    2.10
   4  -5   1   21.20    2.30
  -4   5   1   21.10    4.30
  -5  -4   1   18.80    2.40
   5   4   1   25.60    4.10
  -4   5   1   17.80    2.60
  -5  -4   1   20.00    2.90
   4  -5   1   17.80    4.30
  -5  -4   1   18.40    2.40
   5   3  -1   53.09    5.10
  -5  -3  -1   41.00    4.70
  -5  -3  -1   49.70    4.30
   3  -5  -1   42.90    6.00
   3  -5  -1   51.79    4.20
  -5  -3  -1   49.20    5.10
  -3   5  -1   53.19    4.20
   5   3  -1   53.89    4.10
   3  -5  -1   42.50    3.90
  -3   5  -1   42.10    5.50
  -5  -3  -1   53.49    4.40
  -3   5  -1   48.30    5.60
   3  -5   1   48.20    4.10
  -5  -3   1   48.80    4.50
  -5  -3   1   50.09    5.10
  -5  -3   1   40.60    4.10
   5   3   1   44.80    5.50
  -5  -3   1   49.50    4.60
   3  -5   1   46.60    4.10
   5   2  -1    8.60    2.20
  -5  -2  -1    7.00    1.80
  -5  -2  -1   10.80    1.70
  -2   5  -1    9.40    1.20
  -2   5  -1   11.30    2.60
   2  -5  -1    6.50    2.40
   2  -5  -1    8.70    1.10
  -5  -2  -1    7.70    2.00
   2  -5  -1    9.80    1.80
   5   2  -1   13.60    1.60
  -5  -2   1    7.60    1.50
  -5  -2   1    7.90    2.20
  -5  -2   1    8.20    1.80
   2  -5   1    6.00    1.10
   2  -5   1   10.40    1.30
  -5  -2   1   10.90    1.80
  -5  -2   1    8.80    1.80
   1  -5  -1   17.20    3.70
   1  -5  -1   14.20    1.30
   5   1  -1   20.20    3.40
   5   1  -1   20.50    2.30
  -5  -1  -1   16.70    2.20
   1  -5  -1   14.40    1.90
   1  -5  -1   21.20    2.00
  -5  -1  -1   13.00    1.90
  -1   5  -1   19.70    1.70
  -5  -1  -1   13.10    2.60
   1  -5  -1   15.70    1.40
  -5  -1  -1   11.20    2.60
  -5  -1  -1   13.80    2.40
   1  -5   1   14.30    1.50
  -5  -1   1   14.70    2.10
  -5  -1   1   14.80    2.20
  -5  -1   1   11.30    2.20
   1  -5   1   17.40    2.00
   1  -5   1   17.10    1.60
  -5  -1   1    9.70    2.50
   0   5  -1 3294.77  232.08
  -5   0  -1 3187.38  231.78
  -5   0  -1 3060.59  232.18
   0  -5  -1 3188.48  232.18
  -5   0  -1 2981.00  232.28
   0  -5  -1 3144.79  231.48
   0  -5  -1 3469.75  233.18
   5   0  -1 3447.35  232.08
  -5   0   1 3157.48  232.28
  -5   0   1 3186.68  231.98
   0  -5   1 3172.28  231.88
  -5   0   1 3591.84  231.88
   0  -5   1 3258.87  232.28
   0  -5   1 3200.98  231.58
  -1  -5  -1   14.50    3.20
   1   5  -1   17.90    1.80
  -5   1  -1   12.80    2.50
   5  -1  -1   13.10    2.90
  -1  -5  -1   15.50    1.60
  -5   1  -1   14.90    2.80
  -5   1  -1   12.70    2.80
  -5   1  -1   15.40    2.90
  -1  -5  -1   17.90    1.90
  -5   1   1   15.60    2.60
  -1  -5   1   17.30    1.50
  -1  -5   1   15.60    1.80
  -1  -5   1   18.40    2.00
  -5   1   1   10.80    2.60
  -5   1   1   15.00    2.80
  -5   1   1   14.50    2.20
  -1  -5   1   17.70    1.60
  -2  -5  -1    8.30    1.00
   5  -2  -1   10.60    2.30
   2   5  -1    8.90    1.50
  -2  -5  -1   11.90    1.40
  -5   2  -1    6.90    2.10
  -5   2  -1    9.20    2.30
  -5   2  -1    6.50    1.90
  -2  -5  -1    9.70    2.40
  -2  -5   1    9.30    1.30
  -5   2   1    7.70    2.20
  -2  -5   1    8.80    1.10
  -2  -5   1    9.30    1.10
  -5   2   1    5.80    1.90
   5  -2   1    7.00    1.70
  -5   2   1   10.30    2.10
  -2  -5   1    8.60    1.40
  -5   2   1    9.50    2.00
   5  -3  -1   61.79    5.00
  -5   3  -1   36.80    4.90
  -5   3  -1   42.20    5.40
  -3  -5  -1   60.79    5.40
   3   5  -1   54.19    4.50
  -3  -5  -1   48.80    4.00
  -5   3  -1   43.20    5.30
  -3  -5  -1   47.70    4.40
   5  -3  -1   50.79    6.10
  -3  -5   1   50.49    4.50
   5  -3   1   43.70    5.60
   5  -3   1   51.89    4.70
  -3  -5   1   51.19    4.20
  -5   3   1   38.80    5.20
  -3  -5   1   55.19    3.90
   3   5   1   51.19    4.60
  -5   3   1   42.10    5.00
  -3  -5   1   52.59    4.30
   5  -3   1   47.70    4.60
  -5   3   1   48.00    4.90
  -5   4  -1   17.90    3.40
  -4  -5  -1   19.50    2.10
  -4  -5  -1   27.80    2.80
   5  -4  -1   24.20    4.90
  -5   4  -1   23.10    4.00
   5  -4  -1   18.70    2.50
  -5   4  -1   17.90    3.90
   4   5  -1   19.00    2.60
   5  -4  -1   22.40    2.70
  -5   4   1   18.10    2.80
  -4  -5   1   24.50    2.70
  -4  -5   1   18.80    1.90
   5  -4   1   18.90    4.20
  -5   4   1   16.30    3.70
  -4  -5   1   19.70    2.40
   5  -4   1   28.30    2.80
  -5   4   1   23.50    3.80
  -4  -5   1   24.30    2.40
   5  -4   1   20.50    2.60
   4   5   1   20.70    2.80
   5  -5  -1   26.00    5.60
  -5   5  -1   40.70    5.30
  -5   5  -1   33.50    5.00
  -5   5  -1   31.50    4.20
   5   5  -1   47.10    4.30
   5  -5  -1   34.30    3.50
  -5  -5  -1   39.70    3.40
  -5  -5  -1   37.80    4.10
   5  -5  -1   31.90    3.60
   5   5   1   32.70    4.30
  -5  -5   1   31.00    2.80
  -5  -5   1   40.00    3.70
  -5  -5   1   35.30    3.50
   5  -5   1   34.00    3.50
  -5   5   1   30.60    4.70
  -5  -5   1   36.40    4.00
  -5   5   1   39.60    6.20
   5  -5   1   33.40    6.20
  -5   5   1   27.60    3.80
   5  -5   1   32.60    3.60
   6   5  -1    3.00    1.60
   5  -6  -1    1.90    1.00
  -5   6  -1    1.70    1.80
  -6  -5  -1    1.00    0.80
  -5   6  -1    2.20    1.50
  -5   6  -1    1.10    2.20
   5  -6  -1    9.90    3.70
  -6  -5  -1    3.90    0.80
  -6  -5  -1    1.00    1.10
  -6  -5  -1    5.90    1.90
   5  -6  -1    1.90    1.00
   5  -6   1    2.00    1.10
  -5   6   1    5.00    1.70
  -5   6   1    7.70    2.70
  -6  -5   1    1.90    1.50
   6   5   1    1.20    1.70
  -6  -5   1    1.30    1.00
   5  -6   1    6.50    3.10
  -6  -5   1    1.40    1.00
  -6  -5   1    4.00    1.30
  -5   6   1    3.10    2.40
   5  -6   1    3.00    1.00
  -4   6  -1   56.89    6.50
  -6  -4  -1   52.59    5.60
   4  -6  -1   50.29    4.30
   4  -6  -1   50.29    4.50
   4  -6  -1   45.00    7.90
  -4   6  -1   45.60    6.30
  -6  -4  -1   49.50    4.60
  -4   6  -1   45.90    5.30
  -6  -4  -1   53.19    4.50
  -4   6  -1   57.29    4.60
  -6  -4  -1   46.10    5.10
   6   4  -1   57.59    5.80
   6   4  -1   55.09    4.30
  -6  -4   1   47.30    4.40
  -6  -4   1   57.29    5.70
   4  -6   1   58.69    7.30
   4  -6   1   48.60    4.40
   4  -6   1   52.99    4.50
   6   4   1   48.60    6.10
  -4   6   1   41.00    4.80
  -4   6   1   47.30    6.40
  -6  -4   1   38.10    4.70
  -6  -4   1   46.30    4.90
  -4   6   1   52.19    6.60
  -6  -4   1   51.79    4.80
  -3   6  -1    1.20    1.60
   3  -6  -1    3.40    0.80
   3  -6  -1    5.90    1.00
  -6  -3  -1    4.40    1.60
   3  -6  -1    2.50    1.20
  -6  -3  -1    3.40    1.10
  -3   6  -1    3.10    0.90
   6   3  -1    3.00    1.70
  -6  -3  -1   10.40    2.50
   3  -6  -1    7.80    2.90
   6   3  -1    4.50    1.20
  -3   6  -1    0.40    1.80
  -6  -3  -1    2.50    1.10
  -6  -3   1    1.40    1.30
   3  -6   1    1.40    0.70
  -3   6   1    4.70    1.00
   6   3   1    1.80    1.90
  -6  -3   1    1.60    1.00
  -6  -3   1    5.60    1.60
  -6  -3   1    2.80    1.10
   3  -6   1    5.00    1.00
  -3   6   1    2.00    1.90
  -6  -2  -1   25.60    3.50
  -6  -2  -1   26.00    3.20
  -2   6  -1   33.50    4.90
   6   2  -1   28.00    4.00
   2  -6  -1   29.30    3.10
   2  -6  -1   26.60    2.30
   6   2  -1   28.30    3.10
  -6  -2  -1   20.50    3.60
  -2   6  -1   32.50    2.70
  -6  -2  -1   32.60    3.30
  -6  -2  -1   32.20    2.50
   2  -6  -1   26.20    5.30
   2  -6  -1   28.10    2.50
   2  -6   1   29.50    2.60
  -6  -2   1   25.20    3.10
  -6  -2   1   25.40    3.90
  -6  -2   1   21.70    3.20
  -6  -2   1   20.00    3.10
  -6  -1  -1  272.97   23.30
  -6  -1  -1  300.07   22.00
   1  -6  -1  311.37   22.30
  -1   6  -1  328.17   21.70
  -6  -1  -1  280.67   22.50
  -6  -1  -1  328.67   22.50
   6   1  -1  299.27   23.70
   6   1  -1  310.97   22.50
   1  -6  -1  314.57   21.20
   1  -6  -1  296.47   21.40
  -6  -1  -1  269.27   22.80
   1  -6  -1  306.07   24.20
   1  -6   1  310.17   22.20
  -6  -1   1  249.58   23.10
   1  -6   1  289.07   21.60
   1  -6   1  290.77   21.40
  -6  -1   1  318.87   22.70
  -6  -1   1  247.88   22.40
  -6  -1   1  287.57   22.30
  -6  -1   1  264.07   22.60
   1  -6   1  312.77   22.30
  -6   0  -1    5.40    1.50
   0  -6  -1    2.40    0.70
   6   0  -1    1.60    1.90
  -6   0  -1    0.60    1.00
  -6   0  -1    1.90    1.10
   6   0  -1    0.20    0.90
  -6   0  -1    1.90    1.20
   0  -6  -1    2.60    1.90
   0  -6  -1    0.80    0.30
   0   6  -1    1.00    0.60
  -6   0  -1    0.80    1.00
  -6   0   1    0.70    1.20
   0  -6   1    0.80    0.50
   0  -6   1    2.70    1.00
   0  -6   1    1.70    0.60
  -6   0   1    0.70    0.80
  -6   0   1    1.30    1.10
   0  -6   1    1.90    0.80
  -6   0   1    1.70    1.20
  -1  -6  -1  345.47   22.90
  -6   1  -1  294.07   24.50
  -6   1  -1  320.97   24.10
   1   6  -1  337.67   23.30
  -1  -6  -1  323.37   23.60
  -1  -6  -1  309.97   23.30
  -1  -6  -1  340.07   25.30
  -6   1  -1  292.87   24.10
  -1  -6   1  318.07   23.10
  -6   1   1  270.97   24.10
  -1  -6   1  334.37   23.70
  -1  -6   1  310.47   23.40
   1   6   1  348.07   23.20
  -6   1   1  284.47   24.10
  -1  -6   1  323.27   23.00
  -6   2  -1   21.80    3.90
  -6   2  -1   22.30    4.00
  -2  -6  -1   31.40    2.90
   6  -2  -1   24.60    3.70
   6  -2  -1   32.20    5.10
  -2  -6  -1   26.70    2.50
   2   6  -1   29.30    2.70
  -6   2  -1   27.50    4.10
  -6   2  -1   26.60    3.80
  -2  -6  -1   31.70    4.10
  -6   2   1   22.50    3.60
  -2  -6   1   30.10    2.50
  -6   2   1   25.50    3.40
   2   6   1   30.90    2.70
  -6   2   1   22.50    3.80
   6  -2   1   24.00    3.30
  -6   2   1   15.40    3.50
  -2  -6   1   28.20    2.30
  -2  -6   1   31.70    2.80
  -2  -6   1   28.00    2.90
   3   6  -1    3.50    1.10
   6  -3  -1    8.70    3.00
  -3  -6  -1    2.90    0.80
  -3  -6  -1    2.10    0.90
  -3  -6  -1    2.30    1.50
   6  -3  -1    1.20    1.30
  -6   3  -1    6.80    2.00
  -6   3  -1    1.80    1.60
  -6   3  -1    4.70    2.10
   6  -3   1    2.00    1.80
  -3  -6   1    3.70    0.90
  -6   3   1    2.50    1.50
  -6   3   1    0.50    1.10
  -3  -6   1    2.50    1.00
  -6   3   1    2.00    1.60
   6  -3   1    4.30    1.50
   3   6   1    6.40    1.30
  -6   3   1    4.10    1.90
  -3  -6   1    2.80    0.90
   6  -3   1    2.20    1.10
   4   6  -1   59.49    5.10
  -6   4  -1   48.60    6.10
  -4  -6  -1   67.59    6.00
  -4  -6  -1   57.19    5.20
  -4  -6  -1   57.59    4.60
  -6   4  -1   39.60    5.50
   6  -4  -1   51.69    7.10
  -6   4  -1   51.79    6.40
   6  -4  -1   55.29    5.40
   6  -4   1   54.99    5.30
   6  -4   1   55.19    6.80
  -4  -6   1   54.49    5.10
  -6   4   1   47.70    6.00
  -6   4   1   47.80    6.30
  -4  -6   1   55.19    4.90
   4   6   1   63.29    5.40
  -4  -6   1   59.29    4.80
  -6   4   1   47.70    5.50
  -6   5  -1    1.80    2.10
  -6   5  -1    2.40    1.50
  -5  -6  -1    1.40    1.20
   5   6  -1    3.00    1.40
  -5  -6  -1    2.10    0.90
   6  -5  -1    4.50    2.70
   6  -5  -1    3.70    1.40
  -5  -6  -1    9.60    2.30
  -6   5   1    1.30    1.20
   6  -5   1    8.90    1.80
  -5  -6   1    1.60    1.00
  -6   5   1    0.50    1.60
   5   6   1    4.10    1.70
  -6   5   1    1.70    1.90
  -5  -6   1    5.60    1.60
  -6  -6  -1  299.37   23.30
  -6   6  -1  260.67   23.90
   6  -6  -1  303.57   23.20
  -6  -6  -1  313.57   22.80
  -6   6  -1  289.07   24.50
   6   6  -1  315.37   23.70
  -6  -6  -1  343.27   23.90
   6  -6  -1  272.77   24.00
   6  -6  -1  299.17   26.20
  -6   6  -1  297.47   25.20
   6  -6  -1  295.67   22.80
   6  -6   1  290.57   25.70
   6   6   1  323.17   24.20
  -6  -6   1  341.97   23.90
   6  -6   1  302.47   22.90
  -6   6   1  247.78   24.10
  -6  -6   1  317.07   23.10
   6  -6   1  338.27   23.30
  -6  -6   1  317.47   23.10
  -6   6   1  304.07   25.40
   6  -7  -1    5.20    1.50
  -7  -6  -1    2.80    1.20
   6  -7  -1    8.00    4.00
  -6   7  -1    0.30    2.10
  -7  -6  -1    2.90    1.70
   6  -7  -1    2.30    1.10
   6  -7  -1    1.40    1.70
   7   6  -1    4.80    2.10
  -6   7  -1    2.40    1.60
  -7  -6  -1    1.90    1.30
  -6   7  -1    2.70    2.50
   6  -7   1    2.50    1.20
  -6   7   1    1.70    2.30
   6  -7   1    8.90    4.10
  -7  -6   1    2.40    1.70
   7   6   1    3.60    2.10
   6  -7   1    4.20    1.50
  -7  -6   1    3.60    1.50
  -6   7   1    1.60    1.40
  -7  -6   1    3.50    1.40
  -7  -5  -1    6.40    2.20
   5  -7  -1    2.00    1.80
  -7  -5  -1    6.00    1.10
  -5   7  -1    3.50    1.90
  -5   7  -1    1.20    2.10
  -7  -5  -1    4.40    1.40
   7   5  -1    3.70    2.10
  -5   7  -1    4.50    2.70
   5  -7  -1    5.00    1.30
  -7  -5  -1    5.00    1.80
   5  -7  -1    6.50    1.50
   5  -7  -1    7.20    3.60
  -7  -5   1    2.00    1.20
  -7  -5   1    2.70    1.40
   5  -7   1    2.30    1.10
  -5   7   1    6.70    2.10
  -7  -5   1    3.40    1.50
  -5   7   1    8.40    3.30
  -7  -5   1    4.20    2.00
   7   5   1    2.20    2.20
   5  -7   1    5.50    3.30
  -4   7  -1   21.30    2.60
  -4   7  -1   20.70    3.90
  -4   7  -1   31.10    5.70
   4  -7  -1   19.80    2.50
   7   4  -1   29.50    4.90
   4  -7  -1   18.50    5.00
  -4   7  -1   24.20    5.00
  -7  -4  -1   21.50    4.20
   4  -7  -1   22.50    2.50
  -7  -4  -1   25.50    3.50
  -7  -4  -1   23.20    2.70
   4  -7  -1   22.20    3.60
  -7  -4   1   31.40    4.20
   4  -7   1   23.90    5.90
   4  -7   1   29.80    2.80
  -7  -4   1   16.50    3.20
   7   4   1   22.80    5.00
  -7  -4   1   21.10    3.40
  -7  -4   1   31.70    3.40
  -7  -4   1   19.90    2.50
   4  -7   1   21.80    2.50
  -4   7   1   17.90    3.20
  -4   7   1   24.90    5.40
   3  -7  -1   85.19    6.90
  -7  -3  -1   88.29    8.30
   3  -7  -1   91.19    7.10
   3  -7  -1   81.49   10.00
   3  -7  -1  108.09    8.10
  -3   7  -1  101.29    9.60
  -3   7  -1   75.29    9.40
  -7  -3  -1   84.49    8.80
   7   3  -1  103.39    7.70
   7   3  -1  100.99    9.40
  -3   7  -1   98.59    7.30
  -7  -3  -1   98.39    7.90
  -7  -3   1   87.79    7.90
   7   3   1   75.09    9.40
  -3   7   1  102.39   11.60
  -7  -3   1   80.79    8.70
   3  -7   1   91.79    7.20
   3  -7   1   93.09   10.50
  -7  -3   1   82.49    7.50
   3  -7   1   80.19    7.00
  -7  -3   1   84.89    8.10
   7   2  -1   74.69    6.40
  -7  -2  -1   58.39    7.00
  -2   7  -1   81.49    7.60
   2  -7  -1   76.69    6.10
   2  -7  -1   60.19    8.00
  -7  -2  -1   66.79    6.30
   2  -7  -1   67.19    5.10
  -7  -2  -1   72.19    5.40
  -7  -2  -1   65.89    6.20
  -2   7  -1   75.79    5.60
   2  -7  -1   66.59    5.40
   7   2  -1   65.39    7.60
  -7  -2  -1   65.29    6.70
  -7  -2   1   61.59    7.20
  -7  -2   1   67.79    6.50
   2  -7   1   67.49    6.20
   2  -7   1   71.49    5.60
   2  -7   1   66.19    5.40
  -7  -2   1   53.29    6.30
  -2   7   1   72.79    5.60
  -7  -2   1   63.29    6.60
  -7  -2   1   61.49    6.10
  -1   7  -1  235.88   15.50
   7   1  -1  223.38   18.20
  -1   7  -1  217.98   16.90
   1  -7  -1  200.38   16.10
   7   1  -1  201.78   16.50
   1  -7  -1  216.18   15.20
  -7  -1  -1  204.08   15.80
   7   1  -1  172.58   17.20
  -7  -1  -1  220.48   16.70
   1  -7  -1  204.98   18.20
  -7  -1  -1  174.98   16.60
  -7  -1  -1  194.78   17.40
   1  -7   1  213.88   15.20
  -7  -1   1  182.38   17.20
  -7  -1   1  169.78   16.50
  -1   7   1  239.38   15.30
  -7  -1   1  203.48   16.20
   1  -7   1  215.08   16.10
   1  -7   1  200.88   16.20
   1  -7   1  219.18   15.40
   7   0  -1    6.20    2.10
   0  -7  -1    7.40    1.50
  -7   0  -1    7.40    2.20
   0  -7  -1   10.50    1.90
  -7   0  -1    6.40    1.80
   0   7  -1    7.70    1.30
   7   0  -1   21.60    4.20
   0  -7  -1    8.30    3.10
  -7   0  -1   13.30    2.30
   0  -7  -1   10.80    1.40
  -7   0  -1    6.80    2.00
   0  -7  -1    7.50    0.90
   7   0  -1    6.10    2.90
  -7   0  -1    7.50    2.70
   0  -7   1    8.40    1.50
  -7   0   1    6.50    2.00
  -7   0   1    6.30    2.40
  -7   0   1    6.90    2.10
  -7   0   1    8.30    2.40
   0  -7   1    7.40    1.10
   0  -7   1    8.60    1.80
   0   7   1    6.30    1.10
  -7   0   1   14.10    2.60
   0  -7   1    7.80    1.20
  -1  -7  -1  213.78   17.90
   7  -1  -1  178.08   17.20
  -7   1  -1  186.68   16.50
  -1  -7  -1  229.48   15.30
   7  -1  -1  202.78   17.20
  -1  -7  -1  210.98   16.10
   1   7  -1  232.28   15.80
  -7   1  -1  207.98   17.20
  -7   1  -1  164.38   16.80
  -7   1  -1  230.88   16.60
  -1  -7  -1  206.58   15.70
  -7   1   1  252.07   17.10
  -7   1   1  182.08   16.60
  -1  -7   1  223.98   15.30
  -1  -7   1  214.28   15.90
  -7   1   1  170.68   16.60
  -1  -7   1  218.08   16.20
  -1  -7   1  223.38   15.60
   1   7   1  218.98   15.60
   2   7  -1   81.29    6.00
  -7   2  -1   54.29    7.20
  -7   2  -1   66.89    7.20
  -2  -7  -1   75.29    7.60
  -7   2  -1   86.99    6.90
   7  -2  -1   64.59    7.10
  -2  -7  -1   72.79    6.10
  -2  -7  -1   68.39    5.70
  -7   2  -1   68.29    7.00
   7  -2  -1   66.89    7.40
  -7   2  -1   67.29    7.10
  -7   2   1   50.19    6.90
  -7   2   1   92.89    7.50
  -2  -7   1   69.49    6.20
  -2  -7   1   72.39    6.00
  -7   2   1   53.89    7.30
  -7   2   1   60.89    6.80
  -2  -7   1   70.09    5.60
   2   7   1   81.29    5.80
   7  -3  -1   84.99    8.40
  -3  -7  -1   99.39    7.80
  -3  -7  -1   92.49    7.20
  -7   3  -1   90.89    9.10
  -3  -7  -1  118.69    9.40
  -7   3  -1  100.19    9.70
  -7   3  -1   90.69    8.70
  -7   3  -1   97.79    8.30
   7  -3  -1  106.69   10.10
  -7   3  -1   74.69    8.50
   3   7  -1   94.79    7.60
   3   7   1  100.49    7.60
  -7   3   1   78.19    8.60
  -3  -7   1   91.99    7.80
   7  -3   1   95.69    8.30
  -7   3   1   73.59    8.30
   7  -3   1   90.99    9.10
  -3  -7   1   96.09    7.50
  -3  -7   1  102.09    7.30
   7  -3   1   72.49    7.80
  -7   3   1   76.69    8.80
  -7   3   1   81.99    9.30
   7  -4  -1   27.70    3.60
  -4  -7  -1   21.90    2.80
  -4  -7  -1   34.20    4.70
  -7   4  -1   15.40    3.50
   4   7  -1   21.90    2.90
  -4  -7  -1   22.40    2.40
  -7   4  -1   28.50    4.60
  -7   4  -1   28.90    5.10
   7  -4  -1   26.00    5.60
  -7   4   1   16.00    3.40
   7  -4   1   21.40    3.30
  -4  -7   1   23.10    2.50
   4   7   1   27.60    3.00
  -7   4   1   21.30    4.60
  -4  -7   1   21.80    2.70
   7  -4   1   25.30    5.20
   7  -4   1   18.40    3.10
  -4  -7   1   23.40    2.90
  -7   4   1   20.40    4.10
   5   7  -1    7.10    1.90
   7  -5  -1    9.20    2.20
  -5  -7  -1   15.50    3.00
   7  -5  -1    4.20    1.60
  -7   5  -1    2.30    2.20
  -5  -7  -1    3.70    1.20
  -5  -7  -1    3.60    1.50
  -7   5  -1    3.50    2.20
  -7   5  -1    2.90    1.80
   7  -5  -1    8.20    3.70
  -5  -7   1    6.60    1.50
  -5  -7   1    3.70    1.20
  -7   5   1   14.10    3.70
   5   7   1    6.70    1.90
   7  -5   1    3.10    1.40
  -7   5   1    5.50    2.50
   7  -5   1    3.40    1.50
   7  -5   1   10.60    3.60
  -5  -7   1    3.90    1.50
  -7   5   1    4.30    1.90
   6   7  -1    2.70    1.60
  -6  -7  -1    3.70    1.20
  -7   6  -1    1.30    2.30
  -6  -7  -1    9.00    2.30
   7  -6  -1    1.60    2.10
   7  -6  -1   11.80    2.30
   7  -6  -1    3.60    1.50
   7  -6  -1    4.50    3.20
  -7   6  -1    8.00    3.20
  -7   6  -1    3.10    1.90
   7  -6   1    4.40    3.10
  -7   6   1    4.80    2.90
  -7   6   1    2.10    2.40
  -6  -7   1    4.10    1.70
  -6  -7   1    3.90    1.50
  -7   6   1    1.60    1.40
   7  -6   1    5.10    1.60
   7  -6   1    3.20    1.40
  -6  -7   1    1.80    1.10
   6   7   1    4.50    2.00
  -7   7  -1    3.00    2.70
   7  -7  -1    1.60    3.00
  -7   7  -1    6.20    2.50
  -7   7  -1    4.20    2.70
   7  -7  -1    2.00    1.30
  -7  -7  -1    9.70    2.60
   7   7  -1    2.00    1.70
   7  -7  -1    1.60    2.20
  -7  -7  -1    2.00    1.20
   7  -7  -1    1.80    1.30
   7  -7   1    1.00    1.10
  -7   7   1    2.20    2.70
   7  -7   1    0.70    1.20
  -7  -7   1    4.40    1.60
  -7  -7   1    8.00    1.80
   7  -7   1    2.80    2.90
   7   7   1    4.60    2.50
  -7   7   1    1.80    1.70
  -7   7   1   -0.20    1.90
  -7  -7   1    4.30    1.90
   7  -8  -1  239.28   20.50
  -7   8  -1  248.98   21.50
  -8  -7  -1  257.27   20.30
  -7   8  -1  240.48   21.70
   7  -8  -1  244.88   18.70
   8   7  -1  257.07   20.50
  -7   8  -1  249.68   21.40
   7  -8  -1  255.97   19.10
  -8  -7  -1  237.38   19.00
   7  -8  -1  238.78   23.10
   7  -8   1  247.78   19.00
   7  -8   1  244.38   22.80
   7  -8   1  243.48   18.80
  -8  -7   1  251.57   19.40
   8   7   1  234.28   20.80
  -8  -7   1  201.18   18.70
  -8  -7   1  272.57   20.50
  -7   8   1  250.67   22.10
   8   6  -1   13.30    3.30
   6  -8  -1    7.60    1.70
  -8  -6  -1    7.30    2.20
  -8  -6  -1    5.40    1.70
   6  -8  -1    5.20    2.40
  -8  -6  -1    8.30    2.70
   6  -8  -1    7.00    1.70
   6  -8  -1    6.30    3.70
  -6   8  -1    6.50    3.60
  -6   8  -1    8.00    3.50
  -6   8   1    4.00    2.30
   6  -8   1    7.50    1.80
   6  -8   1    6.50    1.80
   8   6   1   10.10    3.60
  -8  -6   1    4.20    1.70
  -8  -6   1    8.10    2.10
  -8  -6   1    4.40    2.20
  -6   8   1    8.00    3.60
   6  -8   1   12.20    4.90
   5  -8  -1  143.19   11.60
   5  -8  -1  135.59   10.30
  -8  -5  -1  122.59   11.10
   8   5  -1  131.89   12.30
   5  -8  -1  114.19    9.90
  -8  -5  -1  124.89   10.70
  -8  -5  -1  138.49   10.00
  -5   8  -1  144.79   13.50
  -5   8  -1  125.39   10.40
  -8  -5  -1  135.69   12.00
   5  -8  -1  136.59   14.40
   5  -8   1  118.79   13.80
  -8  -5   1  145.39   12.20
  -8  -5   1  107.69   10.90
   5  -8   1  133.09   10.40
  -8  -5   1  123.09   10.90
  -8  -5   1  136.49   11.10
   8   5   1  117.59   12.80
   5  -8   1  123.59   10.20
  -8  -4  -1  118.09    8.90
   4  -8  -1   96.19   11.70
   4  -8  -1  100.09    8.00
  -4   8  -1  103.59   10.80
  -8  -4  -1  101.99    8.30
  -8  -4  -1   99.79    9.20
   4  -8  -1   90.39    7.70
   8   4  -1  107.69   10.40
  -8  -4  -1  105.89    9.90
  -4   8  -1  109.49    8.20
   4  -8  -1  114.79    9.10
  -8  -4   1   91.09    7.80
  -8  -4   1   96.49    8.80
   4  -8   1   88.09    7.80
   4  -8   1  101.39   11.90
  -8  -4   1   81.09    8.80
   8   4   1   88.19   10.60
   4  -8   1  101.69    8.10
  -8  -4   1   94.89    8.90
  -8  -4   1  105.39   10.00
   3  -8  -1  390.76   28.30
  -8  -3  -1  377.26   30.10
  -8  -3  -1  410.36   29.60
   8   3  -1  418.66   29.60
   3  -8  -1  450.05   29.60
   3  -8  -1  359.76   32.40
  -8  -3  -1  403.26   29.50
   3  -8  -1  362.06   28.60
  -8  -3  -1  386.96   30.90
  -3   8  -1  444.36   31.80
   8   3  -1  404.36   31.60
  -8  -3   1  351.86   29.00
   3  -8   1  380.06   28.60
   3  -8   1  386.96   32.80
  -8  -3   1  389.86   31.00
  -8  -3   1  350.06   29.80
   3  -8   1  382.06   28.80
  -8  -3   1  423.56   29.90
  -8  -2  -1  243.78   18.00
  -8  -2  -1  237.28   19.20
   8   2  -1  225.48   20.90
   2  -8  -1  238.38   18.00
  -8  -2  -1  254.77   20.60
  -2   8  -1  275.07   18.30
   2  -8  -1  286.17   18.80
  -8  -2  -1  225.48   19.60
   2  -8  -1  242.48   21.80
  -8  -2  -1  245.48   19.00
   2  -8  -1  246.28   17.60
   8   2  -1  241.78   19.30
  -8  -2   1  252.77   20.60
   2  -8   1  251.97   19.10
  -8  -2   1  222.58   18.80
   2  -8   1  250.57   18.00
  -8  -2   1  255.27   19.40
  -8  -2   1  202.68   19.30
   2  -8   1  238.28   18.20
   1  -8  -1    3.70    1.30
  -8  -1  -1    2.60    1.30
   8   1  -1    1.20    2.40
  -1   8  -1    3.30    1.00
  -8  -1  -1    4.00    1.40
   8   1  -1    2.40    1.70
   1  -8  -1    4.10    0.80
  -8  -1  -1    1.00    1.30
   1  -8  -1    1.30    2.20
   1  -8  -1    2.00    1.00
  -8  -1  -1    1.30    1.80
  -8  -1  -1    7.10    2.20
  -8  -1   1    2.40    1.40
  -8  -1   1    1.50    1.40
  -8  -1   1    2.20    1.90
   1  -8   1    2.40    0.80
  -8  -1   1    1.40    1.50
   1  -8   1    3.60    1.00
   1  -8   1    2.70    1.10
   1  -8   1    1.60    1.20
  -8  -1   1    2.90    1.60
   0  -8  -1    2.40    2.30
   0  -8  -1    1.90    0.90
   8   0  -1    0.50    2.00
   8   0  -1    8.30    3.00
  -8   0  -1    0.60    1.50
  -8   0  -1    1.40    1.30
  -8   0  -1    0.40    1.20
   0   8  -1    2.80    0.90
   0  -8  -1    1.90    1.20
  -8   0  -1    7.20    2.20
  -8   0  -1    1.40    1.20
   8   0  -1    7.10    2.50
  -8   0   1    5.60    2.60
   0  -8   1    0.70    0.90
   0  -8   1    0.30    0.70
  -8   0   1    2.10    1.60
   0  -8   1    1.20    0.70
  -8   0   1    0.90    1.40
  -8   0   1    1.50    1.40
  -8   0   1    3.50    1.60
   1   8  -1    4.10    1.20
  -8   1  -1    3.10    1.90
  -1  -8  -1    2.40    2.10
  -8   1  -1    2.80    1.70
  -1  -8  -1    7.90    1.70
   8  -1  -1    2.50    2.20
  -8   1  -1    0.20    1.50
  -8   1  -1    2.40    1.70
  -8   1  -1    5.70    1.90
  -1  -8  -1    4.20    0.70
  -1  -8  -1    3.30    1.10
   8  -1  -1    1.80    1.90
  -8   1   1    1.20    1.40
  -1  -8   1    4.00    1.30
  -8   1   1    3.50    2.00
  -8   1   1    3.80    2.10
  -1  -8   1    1.70    0.80
   1   8   1    4.40    1.00
  -8   1   1    6.20    2.20
  -1  -8   1    1.50    0.90
  -2  -8  -1  251.47   18.60
  -8   2  -1  240.38   19.90
   2   8  -1  254.47   18.20
   8  -2  -1  193.18   19.40
  -2  -8  -1  273.87   20.60
  -8   2  -1  245.58   19.40
  -8   2  -1  202.68   19.50
  -2  -8  -1  255.87   18.10
   8  -2  -1  217.48   19.90
   2   8   1  260.67   18.10
  -8   2   1  199.88   19.70
  -2  -8   1  254.27   18.40
  -8   2   1  277.67   19.50
  -2  -8   1  255.27   17.90
  -2  -8   1  235.78   18.60
  -8   2   1  232.08   19.50
  -8   3  -1  337.87   29.90
  -3  -8  -1  396.06   28.90
   8  -3  -1  335.27   30.20
   8  -3  -1  333.27   29.50
   3   8  -1  430.06   28.70
  -8   3  -1  404.66   30.50
  -8   3  -1  413.76   30.00
  -8   3  -1  363.26   31.00
  -3  -8  -1  422.06   28.40
  -8   3  -1  411.56   29.50
  -8   3   1  371.26   30.00
   8  -3   1  355.96   29.40
  -3  -8   1  402.06   28.60
  -8   3   1  326.07   29.70
  -3  -8   1  431.76   28.30
  -8   3   1  347.27   30.90
  -8   3   1  363.26   30.50
  -3  -8   1  415.06   29.10
   3   8   1  423.36   28.60
   8  -4  -1   80.39   10.10
   8  -4  -1   91.79    9.40
  -4  -8  -1  136.09   10.70
   8  -4  -1  116.99   11.70
  -8   4  -1  117.29   10.80
  -4  -8  -1  112.29    8.50
  -8   4  -1  115.69   11.40
  -4  -8  -1  114.59    9.20
   4   8  -1  110.79    8.90
  -8   4  -1   96.89   10.10
  -8   4  -1  103.29   10.20
  -4  -8   1  107.19    8.80
  -8   4   1   94.19   10.20
   8  -4   1   92.29    9.20
  -8   4   1  105.79   11.10
   8  -4   1  105.29    9.50
  -4  -8   1  110.39    8.50
   4   8   1  110.69    8.90
  -8   4   1   97.09   10.50
  -4  -8   1  105.99    9.10
  -5  -8  -1  143.59   10.50
   5   8  -1  127.59   10.90
   8  -5  -1  110.09   11.10
  -8   5  -1  130.09   12.30
  -5  -8  -1  165.38   15.50
  -8   5  -1  112.39   11.90
   8  -5  -1  135.49   13.80
  -5  -8  -1  136.19   11.20
   8  -5  -1  115.39   12.30
   8  -5  -1  127.59   11.20
  -8   5  -1  140.69   12.80
   8  -5   1  120.39   11.00
   8  -5   1  123.29   11.10
  -5  -8   1  134.69   10.40
  -5  -8   1  134.19   10.70
   5   8   1  143.79   11.10
  -8   5   1  119.79   12.30
  -8   5   1  127.79   12.70
   8  -5   1  133.69   13.10
  -8   5   1  164.28   14.00
  -5  -8   1  140.19   11.20
  -8   6  -1    9.20    3.50
  -6  -8  -1    4.20    1.40
   8  -6  -1    4.30    1.70
   8  -6  -1    5.70    2.80
  -6  -8  -1    6.80    2.10
   8  -6  -1   13.70    4.60
   6   8  -1    7.80    2.20
   8  -6  -1   10.70    2.40
  -8   6  -1    1.80    2.60
  -8   6  -1    5.60    2.40
  -8   6   1    8.60    3.40
   8  -6   1    4.90    1.90
  -6  -8   1    5.00    1.40
   6   8   1    6.80    2.30
  -8   6   1    5.20    3.10
   8  -6   1    3.90    3.00
  -8   6   1    2.70    2.00
  -6  -8   1    6.90    2.20
   8  -6   1    4.50    1.80
  -8   7  -1  256.67   21.50
  -8   7  -1  223.78   20.20
   8  -7  -1  256.87   18.90
  -7  -8  -1  248.38   18.70
   8  -7  -1  255.47   22.90
  -7  -8  -1  275.67   19.90
   8  -7  -1  236.08   19.10
  -8   7  -1  229.88   20.60
   8  -7  -1  217.68   20.50
   7   8  -1  244.38   19.60
   7   8   1  249.38   20.00
   8  -7   1  259.87   22.20
   8  -7   1  245.18   19.10
  -8   7   1  215.48   20.70
  -8   7   1  240.88   21.50
   8  -7   1  228.08   18.70
  -7  -8   1  213.08   18.30
  -7  -8   1  273.97   20.00
  -7  -8   1  240.48   19.00
  -8   8  -1   37.50    6.70
  -8  -8  -1   34.20    4.00
  -8   8  -1   33.60    5.80
  -8  -8  -1   31.80    4.60
  -8   8  -1   36.90    7.00
   8  -8  -1   29.50    5.90
   8   8  -1   31.30    5.30
   8  -8  -1   32.00    4.00
   8  -8  -1   31.50    4.00
   8  -8  -1   26.50    7.30
   8  -8   1   27.00    6.80
  -8   8   1   22.90    5.00
   8  -8   1   33.20    4.10
  -8  -8   1   35.50    4.30
  -8   8   1   29.80    6.50
   8  -8   1   33.50    4.20
   8   8   1   30.20    5.70
  -8  -8   1   24.60    3.40
  -8  -8   1   32.30    4.70
   8  -9  -1   18.20    6.40
   8  -9  -1   11.30    2.40
  -8   9  -1    8.40    4.00
   8  -9  -1    7.30    3.10
   8  -9  -1   10.30    2.30
  -8   9  -1    6.60    3.90
  -9  -8  -1    8.80    2.40
  -9  -8  -1   21.00    4.30
   9   8  -1   15.10    3.90
  -9  -8   1   11.20    3.50
   8  -9   1   11.90    2.60
   8  -9   1   12.60    5.40
  -9  -8   1   10.60    2.80
   9   8   1   10.80    4.00
   8  -9   1   12.90    2.60
   7  -9  -1  165.88   17.70
   7  -9  -1  161.98   13.00
   7  -9  -1  154.18   12.60
  -7   9  -1  163.48   16.10
  -9  -7  -1  163.18   14.50
   9   7  -1  169.68   15.10
   7  -9  -1  142.29   14.20
  -9  -7  -1  150.98   13.30
   7  -9   1  153.08   12.80
   7  -9   1  156.98   17.10
   9   7   1  161.78   15.60
   7  -9   1  172.68   13.10
  -9  -7   1  175.78   14.80
  -9  -7   1  167.98   13.70
  -9  -6  -1  202.58   15.90
   6  -9  -1  187.48   16.50
   9   6  -1  196.28   17.60
   6  -9  -1  196.28   15.20
  -6   9  -1  215.88   18.90
  -9  -6  -1  200.28   17.00
   6  -9  -1  193.28   14.90
  -9  -6  -1  181.78   16.00
   6  -9  -1  197.48   19.90
   6  -9   1  196.88   19.80
   9   6   1  167.88   17.80
   6  -9   1  199.88   15.30
  -9  -6   1  219.78   16.30
  -9  -6   1  225.58   17.50
   6  -9   1  196.78   15.10
  -9  -6   1  165.68   15.60
  -5   9  -1    5.40    3.10
   5  -9  -1    4.80    2.20
  -9  -5  -1    6.50    2.00
  -9  -5  -1    4.50    2.30
  -9  -5  -1    6.70    1.40
   5  -9  -1   15.70    5.70
   9   5  -1    4.80    2.80
   5  -9  -1    7.60    1.40
   5  -9  -1    3.50    1.20
  -9  -5  -1   10.00    2.70
   5  -9   1    9.80    4.40
   5  -9   1   11.90    1.90
  -9  -5   1    5.80    2.10
  -9  -5   1    3.60    1.70
  -9  -5   1    6.30    2.70
   5  -9   1    7.50    1.60
   9   5   1    7.00    3.50
  -9  -5   1    6.10    2.20
   4  -9  -1  121.99    9.90
  -9  -4  -1  116.89   11.10
   9   4  -1  118.09   11.90
  -9  -4  -1  104.09   10.10
  -9  -4  -1  119.59    9.30
  -9  -4  -1  114.29    9.70
   4  -9  -1  109.09    8.50
   4  -9  -1  105.29    8.80
   4  -9  -1   99.49   12.50
  -9  -4   1  110.19    8.60
   4  -9   1  106.79   13.00
  -9  -4   1  116.89   10.10
  -9  -4   1  102.39   10.10
  -9  -4   1   97.49    9.80
   9   4   1   91.99   12.00
   4  -9   1  106.99    8.90
   4  -9   1  114.09    8.80
  -9  -4   1  115.29   11.10
   3  -9  -1    2.30    2.70
   3  -9  -1    1.80    0.60
  -9  -3  -1    0.50    1.20
  -9  -3  -1   13.10    3.50
  -9  -3  -1    4.70    2.10
   3  -9  -1    3.30    1.50
   9   3  -1    0.60    2.50
  -9  -3  -1    0.40    1.20
   3  -9  -1    3.50    1.00
  -9  -3   1    1.60    1.30
   3  -9   1    1.40    1.00
  -9  -3   1    8.10    2.30
  -9  -3   1    2.20    1.60
   3  -9   1    2.60    1.00
   3  -9   1    2.00    1.40
  -9  -3   1    0.60    1.20
   3  -9   1    4.10    3.10
  -9  -3   1    3.20    2.20
   9   3   1    2.30    2.80
   9   2  -1   12.80    3.10
  -9  -2  -1   12.70    2.50
  -9  -2  -1   13.00    3.20
  -9  -2  -1    9.10    2.40
   2  -9  -1   10.80    2.20
   2  -9  -1   19.90    5.40
   9   2  -1   13.70    4.50
   2  -9  -1   12.10    1.60
  -9  -2  -1   11.20    3.40
  -9  -2   1   10.10    2.50
   9   2   1    8.80    4.10
  -9  -2   1   11.10    2.90
  -9  -2   1   10.40    2.80
   2  -9   1   11.40    1.60
   2  -9   1   10.40    4.10
   2  -9   1   12.40    1.80
  -9  -2   1   11.30    2.50
  -9  -2   1   12.10    3.50
  -9  -1  -1   22.90    2.90
  -1   9  -1   21.40    2.40
   1  -9  -1   20.40    2.00
   9   1  -1   13.60    3.50
   1  -9  -1   23.60    5.90
  -9  -1  -1   23.00    3.40
  -9  -1  -1   17.60    3.40
  -9  -1  -1   23.00    4.70
   1  -9  -1   17.10    2.90
  -9  -1  -1   19.30    4.00
   9   1  -1   15.40    4.80
   1  -9  -1   19.60    3.10
  -9  -1   1   27.90    4.50
  -9  -1   1   13.10    3.30
   1  -9   1   19.90    2.00
   1  -9   1   20.40    2.30
   1  -9   1   24.10    3.00
  -9  -1   1   13.60    3.10
  -9  -1   1   17.50    3.20
   1  -9   1    9.80    4.30
   1  -9   1   16.60    2.80
  -9   0  -1  164.58   14.90
  -9   0  -1  143.89   15.00
   0  -9  -1  191.08   14.10
   0  -9  -1  174.08   14.40
   9   0  -1  155.78   16.90
  -9   0  -1  190.88   14.40
   0  -9  -1  189.98   13.10
   0   9  -1  198.68   13.60
   9   0  -1  145.99   15.10
  -9   0  -1  184.88   14.50
   0  -9  -1  183.98   16.90
  -9   0  -1  172.28   16.10
  -9   0   1  205.58   14.90
  -9   0   1  151.78   15.10
  -9   0   1  166.08   14.80
   0  -9   1  182.68   13.00
  -9   0   1  172.28   16.00
   0  -9   1  180.48   14.50
   0  -9   1  164.28   16.50
   0  -9   1  178.98   14.10
   0  -9   1  191.18   13.50
   9  -1  -1   21.30    4.60
  -9   1  -1   12.90    3.20
   9  -1  -1   13.90    3.70
  -1  -9  -1   17.80    2.30
  -9   1  -1   18.50    3.30
  -1  -9  -1   15.70    4.20
  -1  -9  -1   16.70    2.60
  -9   1  -1   12.20    3.70
  -9   1  -1   18.10    3.00
  -1  -9  -1   19.50    1.60
   1   9  -1   21.00    2.30
  -9   1  -1   14.50    3.40
  -1  -9   1   19.80    2.80
  -9   1   1   28.00    4.00
  -9   1   1   11.20    3.20
  -9   1   1   16.40    3.60
  -9   1   1   10.60    3.00
  -9   1   1   15.70    4.20
  -1  -9   1   14.40    2.40
   9  -2  -1    9.00    3.10
  -9   2  -1    8.90    2.80
  -9   2  -1   17.20    3.10
   2   9  -1   13.20    1.90
  -9   2  -1    5.80    2.80
  -9   2  -1   18.90    3.70
  -2  -9  -1   12.10    1.90
  -2  -9  -1    9.70    2.10
   9  -2  -1   11.20    3.40
  -2  -9  -1   14.90    4.20
  -9   2  -1   17.40    3.50
  -9   2   1    8.60    2.90
  -9   2   1   11.00    3.00
  -2  -9   1   12.70    2.50
  -9   2   1   11.10    3.10
  -9   2   1    9.00    3.30
  -2  -9   1   10.30    1.60
  -2  -9   1   10.00    2.00
  -3  -9  -1    0.70    0.70
  -9   3  -1    0.70    1.50
  -9   3  -1    1.40    2.00
  -9   3  -1   -0.40    1.50
   3   9  -1    5.60    1.40
  -3  -9  -1    4.00    2.60
  -9   3  -1    0.30    1.90
   9  -3  -1    1.20    1.80
  -3  -9  -1    4.10    1.50
   9  -3  -1   -0.40    2.00
  -9   3   1    2.00    2.10
  -9   3   1    1.50    2.10
  -9   3   1    0.60    1.40
   3   9   1    1.40    1.10
   9  -3   1    1.90    1.70
  -3  -9   1    1.40    1.00
  -9   3   1    1.80    2.10
  -3  -9   1    5.00    1.10
  -4  -9  -1  135.09   11.60
   9  -4  -1  113.09   10.70
  -9   4  -1  104.49   11.00
  -4  -9  -1  124.99   10.10
  -9   4  -1  110.19   12.10
   9  -4  -1   89.69   11.30
  -9   4  -1  124.49   11.30
  -9   4  -1  114.19   11.40
  -4  -9  -1  114.59    9.30
   4   9  -1  136.49    9.80
  -9   4   1  109.29   11.50
  -4  -9   1  110.59    9.60
   9  -4   1   96.39   10.00
   9  -4   1  106.69   10.30
  -4  -9   1  129.79    9.20
  -4  -9   1  119.59   10.10
  -9   4   1  111.69   11.30
   4   9   1  128.39    9.70
  -4  -9   1  117.29   11.40
  -9   4   1   97.99   11.70
  -5  -9  -1    7.20    2.10
   9  -5  -1    3.10    1.80
  -9   5  -1    5.50    2.90
   5   9  -1    9.60    2.20
   9  -5  -1    8.60    2.60
  -9   5  -1    7.90    3.20
  -9   5  -1    9.90    3.00
   9  -5  -1    3.40    2.80
  -9   5  -1    5.50    2.90
   9  -5   1    5.00    1.90
   9  -5   1    4.40    2.10
  -9   5   1    7.70    2.90
  -5  -9   1    5.00    1.30
  -9   5   1    2.90    2.70
  -9   5   1    5.40    3.10
  -5  -9   1    6.60    1.80
  -9   5   1    6.40    3.00
  -5  -9   1    3.90    1.70
   5   9   1    5.00    1.90
  -5  -9   1    7.70    3.00
   9  -6  -1  203.78   19.50
  -6  -9  -1  208.28   16.60
   9  -6  -1  170.18   17.80
   9  -6  -1  196.18   16.40
  -9   6  -1  219.58   19.20
   9  -6  -1  178.78   16.40
  -9   6  -1  176.58   17.30
   6   9  -1  203.78   16.30
  -6  -9  -1  204.18   15.60
  -9   6  -1  215.98   18.30
  -9   6  -1  200.98   17.70
   9  -6   1  192.28   16.40
  -6  -9   1  208.78   16.70
   6   9   1  232.68   16.70
  -9   6   1  191.08   18.30
  -6  -9   1  218.28   16.10
  -9   6   1  192.98   17.90
  -9   6   1  204.38   19.00
   9  -6   1  203.88   16.40
   9  -7  -1  149.49   16.80
  -9   7  -1  160.68   15.20
   9  -7  -1  140.99   15.40
  -7  -9  -1  181.58   14.50
  -9   7  -1  164.68   15.80
   9  -7  -1  165.98   13.70
   9  -7  -1  158.88   14.00
   7   9  -1  161.78   14.10
  -9   7  -1  173.78   15.70
  -7  -9  -1  155.08   13.20
   9  -7   1  159.48   16.50
  -7  -9   1  183.18   14.60
  -7  -9   1  164.28   13.60
   9  -7   1  167.28   13.70
   9  -7   1  176.18   14.10
  -9   7   1  160.48   15.70
   7   9   1  185.08   14.60
  -9   8  -1   12.60    3.90
   9  -8  -1   19.00    6.00
  -9   8  -1   11.00    4.30
   9  -8  -1   15.70    4.60
   9  -8  -1   11.40    2.70
  -9   8  -1   20.10    5.40
   9  -8  -1    9.90    2.50
  -8  -9  -1    9.30    2.30
  -8  -9  -1   12.30    3.30
   8   9  -1   12.90    3.50
   8   9   1   17.30    4.10
  -9   8   1   12.00    4.70
  -9   8   1    9.60    3.50
   9  -8   1   11.90    2.80
   9  -8   1   14.00    5.00
  -8  -9   1   16.70    3.10
  -9   8   1   11.10    4.70
  -8  -9   1    9.20    3.00
   9  -8   1   10.10    2.60
  -9  -9  -1   47.20    5.40
   9  -9  -1   44.30    5.30
   9  -9  -1   49.10   10.10
   9   9  -1   47.40    6.60
  -9   9  -1   50.39    8.60
   9  -9  -1   49.99    5.30
   9  -9  -1   33.00    7.00
  -9   9  -1   51.99    8.20
  -9  -9  -1   49.80    6.50
   9  -9   1   48.90    9.60
   9  -9   1   51.79    5.60
  -9   9   1   41.60    8.20
  -9  -9   1   46.40    5.70
   9  -9   1   47.80    5.50
   9   9   1   41.60    7.30
  -9  -9   1   65.39    7.10
  -9  10  -1    2.30    3.40
   9 -10  -1    3.70    1.90
   9 -10  -1    5.80    4.80
 -10  -9  -1    4.00    2.50
 -10  -9  -1    1.20    1.60
   9 -10  -1    3.00    1.80
   9 -10  -1    2.40    2.90
  10   9  -1    2.20    3.00
   9 -10   1    3.10    2.90
  10   9   1    9.50    3.90
 -10  -9   1    5.00    2.90
   9 -10   1    3.20    3.90
   9 -10   1    4.30    2.10
   9 -10   1    5.40    2.10
 -10  -9   1    3.10    2.10
 -10  -8  -1   20.40    3.70
   8 -10  -1   21.10    3.40
   8 -10  -1   19.70    6.90
  -8  10  -1   21.90    5.90
   8 -10  -1   16.60    2.80
  10   8  -1   21.70    5.30
 -10  -8  -1   21.70    4.60
   8 -10  -1   15.50    4.40
  10   8   1   23.40    5.70
   8 -10   1   28.30    7.70
   8 -10   1   18.80    3.10
 -10  -8   1   17.80    4.50
   8 -10   1   21.80    3.40
 -10  -8   1   20.80    4.10
   7 -10  -1  126.89   10.10
  10   7  -1  105.29   12.10
   7 -10  -1  125.69    9.70
 -10  -7  -1  127.09   10.80
   7 -10  -1  107.89   11.30
   7 -10  -1  124.19   15.20
 -10  -7  -1  123.89   11.90
   7 -10   1  130.39   15.10
 -10  -7   1  130.59   12.10
   7 -10   1  120.09    9.90
 -10  -7   1  130.29   11.20
  10   7   1  101.29   12.70
 -10  -7   1  102.89   10.00
   7 -10   1  126.79   10.20
   6 -10  -1    8.60    5.30
  10   6  -1   13.80    4.40
   6 -10  -1   12.30    2.00
 -10  -6  -1   12.70    2.80
   6 -10  -1   11.30    2.20
 -10  -6  -1   10.70    3.40
   6 -10  -1   11.70    3.20
 -10  -6  -1   14.10    3.40
   6 -10   1   11.60    2.30
   6 -10   1   13.60    2.40
   6 -10   1   25.50    7.10
 -10  -6   1   10.30    2.50
 -10  -6   1   16.60    3.40
  10   6   1   12.80    4.50
 -10  -6   1    9.00    3.50
 -10  -5  -1  137.69   12.10
 -10  -5  -1  145.19   13.10
   5 -10  -1  141.99   11.90
   5 -10  -1  133.99   15.50
 -10  -5  -1  129.19   11.50
 -10  -5  -1  142.79   10.60
   5 -10  -1  135.89   10.70
   5 -10  -1  129.59   10.20
  10   5  -1  134.79   13.90
 -10  -5   1  119.69   11.90
   5 -10   1  148.49   16.00
   5 -10   1  139.19   10.90
  10   5   1  115.59   14.10
   5 -10   1  126.19   10.60
 -10  -5   1  147.49   13.30
 -10  -5   1  145.89   12.10
 -10  -5   1  111.39   11.40
 -10  -4  -1    7.00    2.20
   4 -10  -1    5.50    3.90
   4 -10  -1    6.00    2.10
 -10  -4  -1    8.90    2.80
  10   4  -1    7.90    3.70
 -10  -4  -1   11.20    3.50
   4 -10  -1    7.80    1.20
 -10  -4  -1    6.90    1.90
   4 -10   1   12.90    5.50
   4 -10   1    7.90    1.80
 -10  -4   1    5.10    2.40
 -10  -4   1    8.30    1.30
 -10  -4   1    9.10    3.40
   4 -10   1    5.50    2.30
  10   4   1    5.60    3.90
 -10  -4   1    5.50    2.30
 -10  -4   1   10.10    2.70
   4 -10   1   11.10    1.90
   3 -10  -1    3.90    1.10
 -10  -3  -1    2.30    1.40
 -10  -3  -1    1.60    1.40
 -10  -3  -1    4.70    2.70
   3 -10  -1    1.20    3.10
 -10  -3  -1    1.50    1.80
  10   3  -1    3.50    3.30
 -10  -3   1    5.20    2.70
   3 -10   1    2.90    1.70
  10   3   1    1.40    2.90
 -10  -3   1    1.80    1.40
 -10  -3   1    3.20    2.00
   3 -10   1    2.90    1.10
   3 -10   1    4.50    1.20
 -10  -3   1    2.30    1.70
   3 -10   1    0.10    2.80
 -10  -3   1    1.00    1.70
   2 -10  -1    5.00    3.70
   2 -10  -1    3.20    0.90
  10   2  -1   -1.00    2.60
  10   2  -1    7.00    2.70
 -10  -2  -1    2.10    1.80
 -10  -2  -1    2.70    2.50
 -10  -2  -1    2.20    1.40
 -10  -2  -1    2.20    1.60
   2 -10  -1    3.10    1.70
 -10  -2   1   -0.10    1.50
  10   2   1    3.50    3.40
 -10  -2   1    3.30    2.10
   2 -10   1    8.00    1.50
 -10  -2   1    1.80    2.00
 -10  -2   1    2.50    1.70
   2 -10   1    2.60    3.10
   2 -10   1    3.30    1.50
   2 -10   1    3.40    1.00
 -10  -2   1    0.10    1.30
 -10  -1  -1   63.09    7.00
 -10  -1  -1   73.89    8.50
  10   1  -1   60.99    9.40
 -10  -1  -1   71.59    6.10
 -10  -1  -1   66.99    7.60
   1 -10  -1   70.29    6.50
  10   1  -1   60.29    7.50
   1 -10  -1   71.59    5.40
   1 -10  -1   58.89    6.60
   1 -10  -1   80.59    9.90
 -10  -1  -1   69.79    6.60
   1 -10   1   68.09    6.60
 -10  -1   1   70.79    8.40
   1 -10   1   60.99    6.70
   1 -10   1   69.29    5.70
 -10  -1   1   65.89    7.00
 -10  -1   1   69.19    6.90
   1 -10   1   47.10    9.20
   1 -10   1   72.09    5.20
 -10  -1   1   56.69    7.20
 -10   0  -1    0.60    1.60
 -10   0  -1    1.10    1.60
 -10   0  -1   -0.70    1.00
   0 -10  -1    4.10    1.70
   0 -10  -1    4.00    0.80
  10   0  -1    4.30    2.60
   0 -10  -1    0.90    1.00
 -10   0  -1    4.00    2.50
  10   0  -1    2.00    2.90
 -10   0  -1    1.30    1.60
   0 -10  -1    1.60    2.60
 -10   0   1    2.00    2.20
 -10   0   1    0.60    1.60
   0 -10   1    1.50    0.80
   0 -10   1    2.10    2.70
 -10   0   1    1.40    1.80
   0 -10   1    4.50    1.80
 -10   0   1    2.30    2.10
   0 -10   1    0.20    1.00
 -10   0   1    0.60    1.40
 -10   1  -1   56.79    7.20
 -10   1  -1   72.99    6.70
   1  10  -1   71.39    5.70
  -1 -10  -1   74.29    8.90
 -10   1  -1   64.09    7.20
  -1 -10  -1   62.19    6.40
  10  -1  -1   63.99    9.50
 -10   1  -1   57.99    8.10
 -10   1  -1   65.49    6.80
  10  -1  -1   56.99    7.70
 -10   1   1   53.59    7.70
 -10   1   1   49.20    6.90
  -1 -10   1   63.79    8.60
  -1 -10   1   72.49    6.70
 -10   1   1   58.09    7.30
  -1 -10   1   67.99    6.20
 -10   1   1   61.69    7.30
  -1 -10   1   70.19    5.50
 -10   1   1   75.69    7.40
  10  -2  -1   18.20    4.70
  -2 -10  -1    2.60    1.10
 -10   2  -1    4.00    1.90
  -2 -10  -1    3.60    2.70
 -10   2  -1    3.70    2.20
  -2 -10  -1    3.80    1.60
  10  -2  -1   12.60    3.50
 -10   2  -1    4.40    2.30
 -10   2  -1    2.50    2.30
 -10   2  -1    3.20    2.20
   2  10  -1    4.00    1.30
  -2 -10   1    5.30    1.10
 -10   2   1    1.80    2.10
 -10   2   1    0.60    2.10
  -2 -10   1    2.70    1.30
  -2 -10   1    0.40    1.10
  -2 -10   1    3.70    2.80
 -10   2   1    2.90    2.50
 -10   2   1    3.00    2.20
 -10   3  -1    2.40    2.20
  10  -3  -1    4.90    2.70
  -3 -10  -1    5.50    3.10
  10  -3  -1   -0.60    2.20
 -10   3  -1    0.70    2.00
 -10   3  -1    1.90    2.00
  -3 -10  -1    7.70    2.00
  -3 -10  -1    3.70    1.20
   3  10  -1    2.20    1.20
 -10   3   1    1.80    2.10
  10  -3   1    1.90    2.00
  -3 -10   1    3.80    2.80
  10  -3   1    2.10    1.40
 -10   3   1    2.10    2.60
  -3 -10   1    3.10    1.40
 -10   3   1   -0.40    1.60
  -3 -10   1    4.40    1.10
 -10   3   1    5.80    2.70
 -10   4  -1    8.30    3.00
  -4 -10  -1    7.80    3.20
  10  -4  -1    5.30    3.10
  10  -4  -1    6.70    2.80
  -4 -10  -1    7.20    1.70
  -4 -10  -1    9.10    2.30
   4  10  -1   11.30    2.30
 -10   4  -1    9.00    3.10
 -10   4  -1    3.40    2.90
 -10   4  -1   13.40    3.70
  -4 -10   1    8.10    2.00
 -10   4   1    4.70    2.40
 -10   4   1    3.70    2.80
  -4 -10   1    7.00    1.40
  -4 -10   1   21.70    4.80
  10  -4   1    6.00    2.10
 -10   4   1    4.10    2.60
  10  -4   1    6.40    2.70
 -10   4   1    8.20    3.50
  -4 -10   1    8.80    2.20
 -10   5  -1  124.39   12.80
   5  10  -1  147.09   11.50
  -5 -10  -1  140.09   11.00
  10  -5  -1  136.09   13.90
  10  -5  -1  122.89   12.10
 -10   5  -1  145.09   13.50
  10  -5  -1  135.29   12.40
 -10   5  -1  149.88   13.20
 -10   5  -1  121.09   13.90
  -5 -10  -1  140.99   11.90
  -5 -10   1  153.18   11.50
 -10   5   1  122.39   13.20
 -10   5   1  143.89   13.80
 -10   5   1  125.19   14.10
  10  -5   1  135.39   12.20
  10  -5   1  115.99   11.80
  -5 -10   1  140.09   11.90
  -5 -10   1  158.58   13.60
  10  -6  -1   19.50    3.90
 -10   6  -1   12.20    4.00
 -10   6  -1   18.20    4.80
 -10   6  -1   16.10    4.40
  -6 -10  -1   21.00    2.70
   6  10  -1   11.80    2.80
  10  -6  -1   12.80    4.60
 -10   6  -1   16.00    5.10
  10  -6  -1   12.00    3.10
  -6 -10  -1   18.40    3.60
  -6 -10   1   12.50    3.20
 -10   6   1   16.40    4.60
  -6 -10   1   15.60    2.90
  10  -6   1   13.10    3.00
 -10   6   1   10.20    4.10
 -10   6   1   15.40    4.20
 -10   6   1   11.60    4.30
   6  10   1   19.90    3.40
  10  -7  -1  101.69   12.60
 -10   7  -1  112.89   12.10
 -10   7  -1  132.79   13.00
  10  -7  -1  129.69   11.00
  -7 -10  -1  126.89   11.40
 -10   7  -1  127.29   12.70
   7  10  -1  123.19   11.00
  10  -7  -1  119.89   11.20
 -10   7  -1  135.69   13.90
  -7 -10  -1  115.69   10.20
  -7 -10   1  120.09   11.20
 -10   7   1  113.99   13.50
   7  10   1  128.59   11.30
  10  -7   1  131.79   11.00
 -10   7   1  128.69   13.20
  -7 -10   1  128.19   10.70
  10  -7   1  121.49   11.00
 -10   7   1  119.19   12.90
 -10   7   1   92.69   11.60
  10  -8  -1   17.70    3.60
  -8 -10  -1   21.40    3.40
  10  -8  -1   20.80    3.70
  -8 -10  -1   18.30    4.00
 -10   8  -1   17.50    4.70
 -10   8  -1   26.40    6.20
   8  10  -1   20.40    4.10
 -10   8  -1   23.50    5.70
  10  -8  -1   12.90    4.60
  10  -8   1   22.50    3.80
  10  -8   1   17.60    3.50
 -10   8   1   15.10    5.30
   8  10   1   18.00    4.30
 -10   8   1   16.70    4.50
  -8 -10   1   20.10    3.50
 -10   8   1   21.70    5.70
 -10   8   1   21.40    5.80
  -8 -10   1   20.10    4.20
   9  10  -1    0.50    2.30
  10  -9  -1    1.50    1.90
 -10   9  -1    2.90    3.70
 -10   9  -1    5.10    3.80
  -9 -10  -1    3.00    1.70
  10  -9  -1   -1.50    3.10
  -9 -10  -1    4.30    2.50
  10  -9  -1    1.40    1.80
  10  -9  -1    1.60    2.90
  10  -9   1    2.10    3.10
  10  -9   1    7.00    2.50
 -10   9   1    7.10    4.60
  -9 -10   1    4.20    2.10
   9  10   1    3.10    2.90
  -9 -10   1    1.50    2.20
  10 -10  -1   50.09    5.60
  10  10  -1   40.60    7.20
 -10  10  -1   59.59    9.20
 -10  10  -1   45.00    8.40
 -10 -10  -1   51.99    5.70
  10 -10  -1   48.60   10.80
 -10 -10  -1   45.70    6.60
  10 -10  -1   48.00    5.30
  10 -10  -1   39.90    7.60
 -10 -10   1   35.30    5.70
  10 -10   1   35.10    7.50
  10  10   1   43.90    7.70
  10 -10   1   50.39    5.70
 -10 -10   1   43.20    6.40
  10 -10   1   46.20    5.70
  10 -11  -1   18.10    3.00
  11  10  -1   12.10    4.40
  10 -11  -1   16.60    3.40
 -11 -10  -1   15.00    4.20
  10 -11  -1   11.20    4.20
  10 -11  -1   15.10    6.90
 -11 -10  -1   12.50    3.20
  10 -11   1   14.00    3.10
  10 -11   1   20.40    3.60
  10 -11   1   11.30    4.40
 -11 -10   1   22.80    5.20
 -11 -10   1    9.40    3.20
  11  10   1   21.70    5.90
  10 -11   1   10.20    5.80
 -11  -9  -1   29.30    4.60
   9 -11  -1   29.00    5.70
  11   9  -1   28.60    6.30
   9 -11  -1   28.00    7.90
   9 -11  -1   28.00    4.10
   9 -11  -1   25.20    3.60
 -11  -9  -1   24.40    5.20
 -11  -9   1   22.40    5.40
 -11  -9   1   25.90    4.80
   9 -11   1   30.50    4.10
   9 -11   1   30.30    8.60
   9 -11   1   26.30    4.00
  11   9   1   26.20    6.50
   9 -11   1   19.90    5.50
 -11  -8  -1    1.70    2.40
   8 -11  -1    3.20    2.50
   8 -11  -1    3.60    1.70
  11   8  -1    0.20    2.80
 -11  -8  -1    3.90    2.10
   8 -11  -1    8.20    5.60
   8 -11  -1    2.40    1.60
   8 -11   1    4.40    1.90
 -11  -8   1    1.90    2.60
   8 -11   1    0.90    2.70
  11   8   1    0.40    2.90
   8 -11   1    0.80    4.00
 -11  -8   1    2.30    2.10
   8 -11   1    7.20    2.10
  11   7  -1    3.10    3.10
   7 -11  -1    2.80    1.40
 -11  -7  -1    4.00    2.00
   7 -11  -1    1.80    4.70
 -11  -7  -1    1.90    2.50
   7 -11  -1    1.50    1.30
   7 -11  -1    0.20    2.00
   7 -11   1    1.10    1.50
   7 -11   1    1.40    2.20
   7 -11   1    1.20    3.80
 -11  -7   1    1.00    2.30
  11   7   1   11.90    4.80
 -11  -7   1    1.50    1.90
  11   6  -1  102.99   11.70
   6 -11  -1   86.09    7.60
   6 -11  -1  105.59   14.10
 -11  -6  -1   95.59   10.30
 -11  -6  -1  111.49    9.30
   6 -11  -1  105.49    8.30
   6 -11  -1   84.89    9.10
   6 -11   1  107.59    8.40
 -11  -6   1   95.39    8.80
 -11  -6   1   89.79    9.40
   6 -11   1   98.99    8.10
   6 -11   1   79.69    9.40
   6 -11   1   83.19   14.10
  11   6   1   66.39   10.90
 -11  -6   1  108.79   10.80
 -11  -5  -1    4.40    1.90
   5 -11  -1    1.40    1.20
 -11  -5  -1    2.10    2.10
   5 -11  -1    1.70    0.90
  11   5  -1    3.80    3.70
   5 -11  -1    0.50    1.70
   5 -11  -1   -2.30    2.70
 -11  -5  -1    6.70    3.20
 -11  -5   1    2.10    1.90
 -11  -5   1    1.10    2.40
  11   5   1    4.20    3.50
   5 -11   1   -1.80    2.70
 -11  -5   1    0.90    1.50
   5 -11   1    3.00    2.20
   5 -11   1    1.60    1.30
   5 -11   1    1.10    1.20
 -11  -5   1    0.10    1.80
 -11  -4  -1  313.17   23.70
 -11  -4  -1  289.97   22.00
 -11  -4  -1  291.47   22.50
  11   4  -1  241.28   25.40
 -11  -4  -1  334.47   24.70
   4 -11  -1  267.77   21.40
   4 -11  -1  266.97   26.70
 -11  -4   1  234.58   22.60
   4 -11   1  289.37   21.70
 -11  -4   1  328.57   24.80
   4 -11   1  282.57   21.20
 -11  -4   1  274.97   23.40
 -11  -4   1  292.87   23.10
   4 -11   1  332.87   23.60
  11   4   1  251.87   26.10
   4 -11   1  287.57   27.10
 -11  -3  -1   25.30    3.90
 -11  -3  -1   29.90    5.70
   3 -11  -1   28.70    7.50
  11   3  -1   21.30    6.40
 -11  -3  -1   27.60    3.90
   3 -11  -1   25.90    2.90
 -11  -3  -1   26.30    5.00
   3 -11  -1   30.70    4.80
 -11  -3   1   21.20    4.30
   3 -11   1   29.00    4.70
 -11  -3   1   29.70    3.50
 -11  -3   1   24.00    5.10
 -11  -3   1   28.00    4.40
   3 -11   1   30.60    2.90
 -11  -3   1   28.70    5.60
  11   3   1   24.10    7.00
   3 -11   1   21.80    6.60
   3 -11   1   27.70    3.20
  11   2  -1   14.20    5.40
 -11  -2  -1   14.60    2.90
 -11  -2  -1   18.00    4.50
   2 -11  -1   17.70    2.10
   2 -11  -1   11.90    2.70
 -11  -2  -1   15.50    3.30
 -11  -2  -1   12.70    3.60
   2 -11  -1   19.50    6.30
  11   2  -1   21.00    5.00
   2 -11   1   16.80    2.40
   2 -11   1   16.60    1.80
  11   2   1   22.30    6.80
 -11  -2   1   23.40    5.30
 -11  -2   1   17.60    3.50
 -11  -2   1   16.20    3.10
 -11  -2   1   15.80    3.70
 -11  -2   1   13.10    3.70
   2 -11   1   13.10    3.10
   2 -11   1   19.50    6.20
 -11  -1  -1   37.70    4.30
 -11  -1  -1   24.80    5.20
 -11  -1  -1   33.60    6.20
 -11  -1  -1   33.80    5.10
  11   1  -1   26.50    5.60
 -11  -1  -1   27.50    3.50
  11   1  -1   26.30    7.20
   1 -11  -1   30.20    3.90
   1 -11  -1   32.30    2.90
   1 -11  -1   24.00    6.60
 -11  -1   1   30.50    4.60
 -11  -1   1   30.10    4.50
  11   1   1   27.60    7.60
   1 -11   1   31.60    4.10
   1 -11   1   32.90    3.30
   1 -11   1   28.70    6.90
 -11  -1   1   31.90    6.20
 -11  -1   1   27.80    5.20
  11   1   1   33.80    6.40
   1 -11   1   24.10    4.10
 -11   0  -1   81.29    8.40
 -11   0  -1   82.59    9.10
 -11   0  -1   89.59    7.70
   0 -11  -1   80.99    7.50
 -11   0  -1   90.29    7.90
  11   0  -1   68.49   12.00
   0 -11  -1   80.59   10.50
 -11   0  -1   82.89    9.90
   0 -11  -1   77.19    8.00
  11   0  -1   84.69    9.50
 -11   0   1   71.99    8.70
   0 -11   1   87.19    7.80
 -11   0   1   81.49    8.00
   0 -11   1   80.09    8.00
 -11   0   1   81.99    8.40
 -11   0   1   68.49    8.60
   0 -11   1   72.39   10.30
   0 -11   1   87.39    6.80
 -11   0   1   89.89    9.90
 -11   1  -1   24.90    5.10
  11  -1  -1   17.40    6.10
  -1 -11  -1   27.60    6.20
 -11   1  -1   26.40    5.70
 -11   1  -1   27.30    4.20
  -1 -11  -1   31.60    3.50
 -11   1  -1   20.60    4.30
  11  -1  -1   24.10    5.60
  -1 -11  -1   23.60    3.60
 -11   1  -1   25.40    3.90
  -1 -11   1   29.50    6.70
 -11   1   1   23.70    5.60
  -1 -11   1   26.70    3.80
 -11   1   1   20.20    4.60
  -1 -11   1   28.70    2.80
  -1 -11   1   29.10    3.70
 -11   1   1   21.40    5.00
 -11   1   1   28.60    5.10
 -11   2  -1   13.60    3.60
  11  -2  -1   17.30    4.50
  11  -2  -1   20.30    5.30
 -11   2  -1   15.30    4.00
  -2 -11  -1   17.10    3.30
  11  -2  -1   17.50    5.80
 -11   2  -1   17.20    3.80
  -2 -11  -1   27.20    6.10
  -2 -11  -1   19.70    2.70
 -11   2  -1   14.90    4.80
  -2 -11   1   18.90    2.20
  -2 -11   1   12.90    3.10
 -11   2   1   17.20    4.50
  -2 -11   1   16.70    2.90
 -11   2   1   18.20    5.20
  -2 -11   1   21.10    5.40
 -11   2   1   12.00    3.60
 -11   2   1   23.60    4.80
 -11   3  -1   30.30    5.50
  11  -3  -1   22.40    5.10
 -11   3  -1   26.10    6.10
 -11   3  -1   25.50    4.80
  11  -3  -1   24.20    5.90
  -3 -11  -1   33.70    4.10
  -3 -11  -1   27.00    5.80
 -11   3  -1   24.70    5.10
  -3 -11  -1   29.90    3.30
  -3 -11   1   34.50    3.70
 -11   3   1   17.50    4.50
  -3 -11   1   24.30    3.90
  -3 -11   1   35.10    6.80
  -3 -11   1   30.90    3.70
  11  -3   1   26.00    4.50
 -11   3   1   21.90    5.80
 -11   3   1   19.90    5.00
 -11   3   1   27.80    5.50
  11  -4  -1  271.17   25.00
  -4 -11  -1  283.87   22.00
  -4 -11  -1  292.37   23.00
 -11   4  -1  311.27   23.90
  11  -4  -1  305.47   24.00
 -11   4  -1  298.37   24.30
   4  11  -1  297.67   22.20
 -11   4  -1  295.27   24.50
  -4 -11  -1  324.77   24.80
  11  -4   1  263.27   23.00
  -4 -11   1  292.97   22.40
 -11   4   1  243.98   23.90
  11  -4   1  264.37   23.40
  -4 -11   1  341.37   25.30
 -11   4   1  321.97   24.60
  -4 -11   1  262.17   22.80
 -11   4   1  302.27   24.90
 -11   5  -1    0.20    2.20
  11  -5  -1    1.90    1.90
   5  11  -1    4.90    1.80
  -5 -11  -1    0.20    1.10
  11  -5  -1    0.10    2.20
 -11   5  -1    0.80    2.30
 -11   5  -1    1.90    2.80
  11  -5  -1   -0.10    2.60
 -11   5  -1    1.70    2.80
 -11   5   1    0.40    2.10
  11  -5   1    1.40    2.20
 -11   5   1    2.80    2.80
 -11   5   1    1.50    2.70
  -5 -11   1    2.10    1.70
  11  -5   1    2.00    1.90
 -11   5   1   -0.10    3.00
  -5 -11   1    0.90    1.30
   6  11  -1   96.89    8.90
  11  -6  -1   92.59   11.40
  11  -6  -1   93.89    9.60
 -11   6  -1  100.09   10.80
 -11   6  -1  108.49   11.00
  -6 -11  -1   99.79    9.40
 -11   6  -1   81.89   11.20
  -6 -11  -1   99.79    8.40
  11  -6  -1   93.39    9.70
 -11   6  -1   92.59   10.60
 -11   6   1  109.19   11.50
  -6 -11   1   95.39    9.40
 -11   6   1   80.69   10.20
 -11   6   1  106.39   11.40
 -11   6   1   76.89   11.20
  -6 -11   1  104.59    8.90
  11  -6   1  108.49    9.80
  11  -6   1   98.59    9.50
 -11   7  -1    0.00    2.70
  -7 -11  -1    2.80    2.10
  -7 -11  -1    1.30    1.30
  11  -7  -1    5.90    2.70
   7  11  -1    4.00    2.20
 -11   7  -1    0.90    2.50
 -11   7  -1    0.90    2.70
  11  -7  -1    1.80    1.90
  11  -7  -1    1.00    2.50
 -11   7  -1    2.80    3.40
  -7 -11   1    1.90    1.70
  11  -7   1    1.50    2.10
  -7 -11   1    2.20    2.10
  11  -7   1    3.20    2.00
 -11   7   1    1.50    3.30
 -11   7   1    3.40    3.20
 -11   7   1    3.40    2.90
 -11   7   1    1.60    2.80
 -11   8  -1    1.30    2.80
   8  11  -1    3.80    2.50
  11  -8  -1    2.20    3.30
 -11   8  -1    4.30    3.00
  -8 -11  -1    2.40    2.00
  -8 -11  -1    3.00    1.60
 -11   8  -1    2.50    2.80
  11  -8  -1    2.10    1.90
 -11   8  -1    1.90    3.70
  11  -8  -1    4.10    2.40
 -11   8   1    1.60    2.70
  11  -8   1    2.40    2.00
  -8 -11   1    2.50    2.20
 -11   8   1    2.40    3.60
  11  -8   1    2.10    3.30
  -8 -11   1    1.50    1.70
 -11   8   1    3.70    3.50
  11  -8   1    4.40    2.50
 -11   8   1    1.40    3.00
 -11   9  -1   28.80    6.40
  -9 -11  -1   28.00    4.20
  11  -9  -1   25.70    4.30
  11  -9  -1   27.90    6.60
  -9 -11  -1   31.10    5.60
 -11   9  -1   24.10    6.90
   9  11  -1   31.80    5.80
  11  -9  -1   30.10    4.90
 -11   9  -1   30.10    6.80
 -11   9   1   24.00    6.50
  -9 -11   1   33.10    6.00
  11  -9   1   28.20    6.90
 -11   9   1   29.10    6.90
  -9 -11   1   27.00    4.50
 -11   9   1   26.90    6.70
  11  -9   1   30.40    4.70
  11  -9   1   28.20    4.70
 -11   9   1   23.80    7.70
 -11  10  -1   10.40    4.80
  11 -10  -1   16.30    5.40
 -11  10  -1   17.40    5.50
 -11  10  -1   18.90    6.10
  11 -10  -1   17.90    3.70
 -10 -11  -1   14.50    3.30
 -10 -11  -1   15.10    4.30
  10  11  -1   14.80    4.30
  11 -10  -1   14.90    3.30
  11 -10   1   19.40    5.90
 -11  10   1   13.40    5.40
 -10 -11   1   14.00    4.30
  11 -10   1   18.70    3.70
 -10 -11   1   18.10    3.90
  11 -10   1   20.30    3.90
 -11 -11  -1   56.29    6.60
  11 -11  -1   52.29    9.20
 -11 -11  -1   59.19    8.00
  11 -11  -1   61.49    6.40
 -11  11  -1   59.09   10.40
 -11  11  -1   70.39   11.10
  11 -11  -1   67.49    6.90
  11  11  -1   57.79    8.60
  11  11   1   62.59   10.30
 -11 -11   1   60.99    7.20
  11 -11   1   68.69    7.00
  11 -11   1   70.39    7.00
 -11  11   1   45.50    9.60
 -11 -11   1   61.59    8.30
  11 -11   1   59.09   10.00
 -12 -11  -1   28.10    4.60
  12  11  -1   29.80    7.10
 -12 -11  -1   28.80    6.10
  11 -12  -1   23.40    6.30
  11 -12  -1   29.80    4.10
  11 -12  -1   29.10    4.50
  11 -12   1   32.40    4.90
  11 -12   1   31.10    4.50
 -12 -11   1   25.90    4.90
  12  11   1   25.20    6.70
  11 -12   1   25.10    6.50
 -11  12   1   32.10    8.40
 -12 -11   1   21.70    5.50
 -12 -10  -1    1.30    2.40
  12  10  -1    2.20    3.50
  10 -12  -1    1.70    1.70
  10 -12  -1    1.50    3.10
  10 -12  -1    9.30    6.20
  10 -12  -1    0.50    1.60
 -12 -10  -1    1.80    2.00
  10 -12   1   -1.70    4.00
  10 -12   1    2.80    2.10
 -12 -10   1   -0.80    2.50
  10 -12   1    3.90    2.30
  10 -12   1   -0.50    2.60
 -12 -10   1    5.30    2.70
  12  10   1   -0.10    3.20
   9 -12  -1    6.70    2.20
   9 -12  -1    4.60    5.60
 -12  -9  -1    9.10    2.80
   9 -12  -1    3.90    3.00
  12   9  -1    4.30    3.80
   9 -12  -1    5.90    2.00
 -12  -9  -1    6.60    3.20
   9 -12   1    5.90    5.70
 -12  -9   1    7.20    3.70
   9 -12   1    5.20    3.50
   9 -12   1    9.00    2.40
 -12  -9   1   13.00    3.60
   9 -12   1    9.90    2.60
  12   9   1    5.60    4.10
   8 -12  -1   19.20    2.80
  12   8  -1   14.50    5.50
   8 -12  -1   22.00    3.40
   8 -12  -1   20.90    8.20
   8 -12  -1   17.90    4.50
 -12  -8  -1   19.50    3.80
 -12  -8  -1   19.70    4.90
 -12  -8   1   17.80    4.20
  12   8   1   11.00    5.00
   8 -12   1   18.20    4.90
   8 -12   1   22.00    3.30
   8 -12   1   22.80    7.50
 -12  -8   1   25.00    5.50
   8 -12   1   18.90    3.30
   7 -12  -1    6.10    5.60
 -12  -7  -1    3.50    2.70
 -12  -7  -1    8.20    2.60
   7 -12  -1    5.20    1.40
   7 -12  -1    7.30    3.00
   7 -12  -1    5.20    1.80
  12   7  -1    6.40    4.20
 -12  -7   1    6.80    3.40
   7 -12   1    3.70    2.70
  12   7   1    3.20    4.10
   7 -12   1    9.60    5.60
 -12  -7   1    9.20    3.20
   7 -12   1    5.60    2.00
   7 -12   1   15.10    2.80
   6 -12  -1   18.30    2.90
  12   6  -1   15.80    5.60
 -12  -6  -1   21.30    5.00
   6 -12  -1   20.10    7.60
 -12  -6  -1   18.00    3.50
   6 -12   1   17.40    2.70
  12   6   1   13.10    5.80
 -12  -6   1   21.00    5.10
   6 -12   1   12.60    6.70
 -12  -6   1   20.50    4.20
 -12  -6   1   19.90    3.50
   6 -12   1   18.90    3.10
   5 -12  -1    0.60    1.10
   5 -12  -1    6.50    4.90
 -12  -5  -1   -0.30    1.80
 -12  -5  -1    2.60    1.80
  12   5  -1    3.30    3.80
 -12  -5  -1    2.40    2.80
 -12  -5   1    0.30    2.20
 -12  -5   1    1.80    1.80
   5 -12   1    0.10    1.20
 -12  -5   1    2.60    2.20
  12   5   1    5.70    4.50
 -12  -5   1    0.80    2.10
   5 -12   1    0.80    1.90
   5 -12   1    0.50    3.60
   5 -12   1    4.30    1.50
   4 -12  -1  107.19    9.80
 -12  -4  -1  111.79   11.10
   4 -12  -1   95.89    7.90
  12   4  -1   80.59   11.90
 -12  -4  -1  102.89    8.40
 -12  -4  -1   92.69    8.90
 -12  -4  -1  103.69   10.20
   4 -12  -1   80.59   14.20
 -12  -4   1   84.49    9.20
   4 -12   1   95.59    8.20
  12   4   1   66.89   13.10
 -12  -4   1  100.09   10.70
   4 -12   1   94.99    7.50
   4 -12   1  101.89    9.80
 -12  -4   1   95.09    9.50
   4 -12   1   86.29   14.70
 -12  -4   1   84.19    9.80
 -12  -3  -1  143.59   12.80
 -12  -3  -1  107.49   11.40
  12   3  -1   97.79   13.90
   3 -12  -1   99.89   14.00
   3 -12  -1  112.99    9.20
 -12  -3  -1  120.69   10.40
 -12  -3  -1  128.79   10.40
   3 -12  -1  116.89   10.80
 -12  -3   1  101.19   11.40
   3 -12   1  120.69   11.00
  12   3   1   90.19   14.00
 -12  -3   1  130.29   12.60
   3 -12   1  100.99   14.00
 -12  -3   1  125.49    9.30
 -12  -3   1  128.09   11.00
 -12  -3   1  102.99   10.90
   3 -12   1  109.99    9.50
 -12  -2  -1   -0.10    2.20
   2 -12  -1    3.10    1.80
 -12  -2  -1    3.10    1.70
 -12  -2  -1    1.00    1.60
   2 -12  -1    0.80    3.20
   2 -12  -1    3.00    1.10
  12   2  -1    2.40    4.00
 -12  -2  -1    2.30    2.40
   2 -12   1    4.90    4.10
 -12  -2   1   -0.60    1.90
 -12  -2   1    1.90    2.20
  12   2   1    0.90    3.70
 -12  -2   1    0.30    2.30
   2 -12   1    2.20    1.20
 -12  -2   1    1.50    1.90
 -12  -2   1    1.50    1.80
   2 -12   1    1.30    1.60
 -12  -1  -1    0.10    2.10
   1 -12  -1    3.30    1.70
 -12  -1  -1   -0.50    1.60
  12   1  -1    4.30    3.30
 -12  -1  -1    0.20    1.50
  12   1  -1    4.60    4.30
 -12  -1  -1    8.90    3.90
   1 -12  -1    1.20    3.30
 -12  -1   1    1.10    1.80
   1 -12   1    4.00    1.90
  12   1   1   -1.10    3.30
   1 -12   1    5.30    1.40
  12   1   1    1.00    2.60
 -12  -1   1    1.30    2.00
 -12  -1   1    2.60    2.50
 -12  -1   1    7.10    3.10
 -12  -1   1   13.50    4.20
 -12   0  -1    1.20    1.70
 -12   0  -1    0.50    1.50
 -12   0  -1    4.10    3.00
   0 -12  -1    1.50    1.60
 -12   0  -1    1.00    2.20
   0 -12  -1    3.70    3.60
   0 -12  -1    2.30    1.40
 -12   0  -1    2.30    2.10
  12   0  -1    1.90    2.80
  12   0  -1   -1.20    3.20
 -12   0   1    0.00    2.10
   0 -12   1    1.10    1.50
   0 -12   1    1.50    1.00
 -12   0   1    1.40    2.30
 -12   0   1    0.90    2.20
   0 -12   1    1.90    1.70
  12   0   1    5.10    3.20
 -12   0   1    2.10    2.90
   0 -12   1   -1.50    2.60
  12   0   1    3.50    4.10
 -12   1  -1    1.80    2.10
  -1 -12  -1    3.20    2.00
  -1 -12  -1    2.20    1.40
 -12   1  -1    3.50    3.20
  12  -1  -1    1.70    4.20
  12  -1  -1   -0.40    2.40
 -12   1  -1    5.30    2.60
  -1 -12  -1   -0.50    2.60
  -1 -12   1    0.80    1.50
  -1 -12   1    0.00    2.40
  -1 -12   1    3.00    1.70
 -12   1   1    1.00    2.10
 -12   1   1    0.70    2.30
 -12   1   1    1.40    2.60
  12  -1   1    0.60    2.50
 -12   1   1    2.20    2.70
  -1 -12   1    3.20    1.20
 -12   2  -1    2.50    2.30
  -2 -12  -1    1.40    1.70
 -12   2  -1    1.30    3.00
  -2 -12  -1    1.50    1.30
  -2 -12  -1    1.40    2.80
 -12   2  -1    0.20    1.80
 -12   2  -1    2.10    2.70
  12  -2  -1    3.90    3.10
  12  -2  -1    2.50    3.60
 -12   2   1    1.10    2.60
  -2 -12   1    0.80    2.80
 -12   2   1    2.10    3.00
 -12   2   1   -0.90    2.00
 -12   2   1    0.20    2.10
  -2 -12   1    0.70    1.60
  -2 -12   1    1.70    1.60
 -12   3  -1  113.59   11.90
 -12   3  -1  112.29   11.40
  -3 -12  -1  111.49   10.40
  -3 -12  -1  114.29    9.50
  12  -3  -1   95.99   13.40
  12  -3  -1  112.09   11.70
 -12   3  -1  130.49   11.20
 -12   3  -1  113.09   13.10
  12  -3  -1  109.49   12.50
  -3 -12  -1  129.09   12.60
 -12   3   1  120.79   12.10
  -3 -12   1  106.69   10.40
  -3 -12   1  116.99    9.90
 -12   3   1  100.29   12.60
 -12   3   1   99.19   11.60
 -12   3   1  108.39   11.60
  -3 -12   1  115.59   12.50
  12  -4  -1   99.19   11.40
 -12   4  -1  105.69   10.60
  12  -4  -1   99.99   12.70
  -4 -12  -1  102.69    8.30
  12  -4  -1  109.49   10.80
  12  -4  -1   91.59    9.50
 -12   4  -1   82.69   11.20
 -12   4  -1  102.99   10.20
  -4 -12  -1   88.49    9.10
 -12   4  -1  133.49   11.70
  -4 -12  -1  101.69   11.00
 -12   4   1   96.49   10.70
  -4 -12   1   89.19    9.10
  -4 -12   1   98.59    8.70
 -12   4   1   69.19    9.90
 -12   4   1  100.09   10.80
 -12   4   1   70.79   10.70
  -4 -12   1  103.59   11.20
  12  -4   1   87.49    9.30
 -12   5  -1    1.70    2.30
  -5 -12  -1    1.90    1.40
 -12   5  -1    1.90    2.70
 -12   5  -1    2.30    3.00
 -12   5  -1    1.50    2.50
  12  -5  -1    1.60    1.80
  12  -5  -1    4.60    3.00
  -5 -12  -1    4.10    2.20
  12  -5  -1   -0.90    2.40
  12  -5   1    1.90    2.60
 -12   5   1    1.70    2.20
  -5 -12   1    2.40    1.60
 -12   5   1   -1.20    2.20
 -12   5   1    1.90    2.80
 -12   5   1    0.30    3.20
  12  -5   1    2.70    2.10
  -6 -12  -1   15.50    3.70
 -12   6  -1    7.20    4.30
 -12   6  -1   17.20    4.80
  12  -6  -1   21.00    5.60
 -12   6  -1   19.30    5.10
  12  -6  -1   21.70    4.60
 -12   6  -1   11.20    4.20
  -6 -12  -1   18.80    3.00
  12  -6  -1   16.80    3.80
 -12   6   1   16.40    4.70
  -6 -12   1   17.70    3.90
 -12   6   1   15.40    4.90
  12  -6   1    9.40    4.50
  12  -6   1   28.50    5.10
 -12   6   1   13.40    4.40
  12  -6   1   19.10    4.00
 -12   6   1   14.70    5.30
  -6 -12   1   18.60    3.40
 -12   7  -1    6.00    4.00
 -12   7  -1    6.10    3.50
  12  -7  -1    4.60    2.80
 -12   7  -1    4.90    3.30
 -12   7  -1    3.50    3.20
  -7 -12  -1    5.90    2.00
  12  -7  -1   12.70    3.60
  12  -7  -1    8.80    4.70
  -7 -12  -1    7.40    2.80
  12  -7   1    5.10    4.10
  -7 -12   1    7.10    2.30
  12  -7   1    9.10    3.00
  12  -7   1   11.10    3.50
 -12   7   1    3.90    3.60
 -12   7   1    4.20    3.30
  -7 -12   1    4.20    2.40
 -12   7   1    5.50    3.90
 -12   7   1    4.10    3.30
  12  -8  -1   23.10    6.40
 -12   8  -1   21.60    5.60
  -8 -12  -1   17.70    3.30
 -12   8  -1   19.20    5.70
 -12   8  -1   21.40    5.40
   8  12  -1   19.50    4.40
 -12   8  -1   19.50    6.20
  12  -8  -1   18.20    4.10
  12  -8  -1   20.70    4.30
  -8 -12  -1   22.50    4.80
  12  -8   1   26.90    4.70
  12  -8   1   20.60    6.20
  12  -8   1   20.90    4.30
  -8 -12   1   20.10    4.60
 -12   8   1   37.30    7.40
 -12   8   1   20.00    5.60
 -12   8   1   13.60    5.10
  -8 -12   1   18.10    3.60
 -12   8   1   17.10    5.00
 -12   9  -1    7.90    4.00
  12  -9  -1   11.00    3.30
  -9 -12  -1    6.40    2.30
  12  -9  -1    1.90    3.50
  12  -9  -1    8.80    3.10
 -12   9  -1   11.00    5.00
   9  12  -1   10.10    3.70
  -9 -12  -1    6.50    3.00
 -12   9  -1    9.60    4.70
 -12   9   1    3.30    3.40
  12  -9   1    5.80    4.20
  12  -9   1    8.00    2.90
  -9 -12   1    8.00    2.70
  12  -9   1    6.20    3.10
  -9 -12   1    5.70    3.10
 -12   9   1    8.20    4.30
 -12   9   1    9.40    4.80
 -12   9   1    2.50    4.30
  12 -10  -1    1.10    3.50
 -12  10  -1    5.70    4.10
 -12  10  -1    0.10    4.20
 -10 -12  -1    5.00    2.20
 -10 -12  -1    2.30    2.60
  10  12  -1    8.20    3.80
  12 -10  -1    6.50    2.70
 -12  10  -1    0.50    3.10
  12 -10  -1    4.50    2.60
 -10 -12   1    2.40    2.80
  12 -10   1    8.10    3.10
  12 -10   1    0.10    3.40
 -12  10   1    0.40    3.50
 -10 -12   1    2.30    2.00
  12 -10   1    2.10    2.20
 -12  10   1    1.60    3.60
 -12  11  -1   35.90    8.00
 -12  11  -1   28.20    6.90
 -12  11  -1   28.80    7.70
  12 -11  -1   33.50    4.90
  12 -11  -1   25.50    6.70
 -11 -12  -1   27.30    5.90
  11  12  -1   25.50    6.00
 -11 -12  -1   24.60    4.40
  12 -11  -1   33.80    5.30
 -12  11   1   24.40    7.20
  12 -11   1   30.60    4.90
 -11 -12   1   27.90    5.10
  12 -11   1   37.10    5.40
 -11 -12   1   25.70    5.80
  12 -11   1   39.20    8.50
 -13  -9  -1    2.90    3.20
 -13  -9  -1    3.30    2.20
   9 -13  -1   10.70    2.50
   9 -13  -1   -3.60    3.90
  13   9  -1    7.00    4.40
   9 -13   1    1.50    1.90
   9 -13   1    4.30    5.10
  13   9   1    6.60    4.70
   9 -13   1    2.80    4.70
 -13  -9   1    3.30    3.30
   9 -13   1    3.90    2.10
 -13  -9   1    1.70    2.50
 -13  -8  -1   19.60    5.00
   8 -13  -1   11.90    7.00
   8 -13  -1   23.00    3.50
 -13  -8  -1   16.00    3.50
  13   8  -1   13.70    5.80
   8 -13   1   21.40    7.90
 -13  -8   1   19.00    4.30
  13   8   1   15.50    6.10
   8 -13   1   20.40    3.00
 -13  -8   1   21.80    5.50
   8 -13   1   15.80    3.20
  13   7  -1    2.20    4.00
 -13  -7  -1    4.30    3.10
   7 -13  -1    9.50    6.10
   7 -13  -1    7.60    2.10
 -13  -7  -1    6.20    2.50
 -13  -7   1    5.40    2.80
 -13  -7   1    7.50    3.70
   7 -13   1    2.20    4.70
   7 -13   1    8.10    2.30
   7 -13   1    5.00    1.80
  13   7   1    6.30    4.80
 -13  -6  -1   32.90    4.70
 -13  -6  -1   41.40    6.30
   6 -13  -1   29.20    9.50
  13   6  -1   22.70    7.20
   6 -13  -1   37.70    4.10
   6 -13  -1   39.10    6.40
   6 -13   1   33.10    9.30
   6 -13   1   32.10    4.20
 -13  -6   1   34.40    5.50
   6 -13   1   33.70    3.60
  13   6   1   26.30    7.80
 -13  -6   1   34.10    6.50
   5 -13  -1   58.09    7.00
   5 -13  -1   54.09    5.20
 -13  -5  -1   55.19    7.10
   5 -13  -1   64.89   13.00
  13   5  -1   45.90    9.80
 -13  -5  -1   56.39    7.80
 -13  -5  -1   54.89    6.10
 -13  -5   1   51.09    7.10
   5 -13   1   45.80   10.90
 -13  -5   1   51.59    6.60
 -13  -5   1   57.89    7.80
   5 -13   1   51.49    5.40
  13   5   1   38.10    9.80
 -13  -5   1   56.49    6.30
   5 -13   1   52.89    7.00
   4 -13  -1   24.60    3.10
   4 -13  -1   24.60    4.60
 -13  -4  -1   30.00    5.70
  13   4  -1   22.60    7.50
   4 -13  -1   23.50    7.90
 -13  -4  -1   27.50    4.30
 -13  -4  -1   31.00    6.10
 -13  -4   1   28.20    4.90
   4 -13   1   12.70    6.20
 -13  -4   1   21.00    5.00
  13   4   1   20.30    7.50
   4 -13   1   25.10    3.40
 -13  -4   1   26.30    6.00
   4 -13   1   27.90    5.20
 -13  -4   1   27.30    4.60
 -13  -3  -1   65.09    8.20
 -13  -3  -1   47.10    5.50
   3 -13  -1   57.89   11.60
  13   3  -1   53.89   10.80
   3 -13  -1   49.99    6.10
 -13  -3  -1   50.69    7.10
 -13  -3  -1   44.80    5.60
   3 -13  -1   50.29    4.60
 -13  -3   1   53.59    7.80
 -13  -3   1   49.10    6.50
   3 -13   1   39.90    9.70
   3 -13   1   50.99    5.00
 -13  -3   1   44.80    7.60
  13   3   1   42.30    9.90
 -13  -3   1   50.39    6.10
   3 -13   1   45.30    6.20
   2 -13  -1   52.79   10.80
   2 -13  -1   51.89    6.20
  13   2  -1   53.69   11.20
 -13  -2  -1   54.09    6.10
 -13  -2  -1   55.69    7.90
 -13  -2  -1   54.49    7.20
 -13  -2  -1   54.19    6.20
 -13  -2   1   45.20    6.20
   2 -13   1   46.10   10.20
   2 -13   1   63.09    5.30
 -13  -2   1   58.49    8.00
   2 -13   1   54.09    6.50
 -13  -2   1   51.99    6.90
 -13  -2   1   50.49    7.40
 -13  -2   1   54.09    5.50
  13   2   1   55.59   11.40
 -13  -1  -1   66.29    8.20
 -13  -1  -1   83.39    9.80
  13   1  -1   45.80   10.60
 -13  -1  -1   64.69    6.80
 -13  -1  -1   68.09    7.30
   1 -13  -1   66.59    6.90
   1 -13  -1   61.19   10.90
   1 -13   1   63.19   11.40
 -13  -1   1   56.09    7.70
 -13  -1   1   69.29    9.00
  13   1   1   52.79   11.60
   1 -13   1   65.69    7.10
 -13  -1   1   60.59    8.30
 -13  -1   1   74.89   11.30
 -13  -1   1   68.49    7.00
   1 -13   1   68.79    5.90
   0 -13  -1    1.70    1.90
 -13   0  -1    1.90    2.50
  13   0  -1    3.20    3.40
   0 -13  -1    4.10    1.90
  13   0  -1   -0.10    3.70
 -13   0  -1    6.60    2.70
 -13   0  -1    4.90    2.10
 -13   0  -1    4.40    3.70
   0 -13  -1    3.50    3.80
 -13   0   1    6.00    2.80
   0 -13   1    3.10    2.00
   0 -13   1    5.00    4.20
  13   0   1    0.20    3.90
   0 -13   1    5.90    1.50
 -13   0   1    5.50    3.40
 -13   0   1    1.50    2.30
  13   0   1    1.10    2.90
   0 -13   1    4.30    2.10
 -13   0   1    3.60    3.00
 -13   1  -1   61.99    8.90
  -1 -13  -1   59.29    9.90
  -1 -13  -1   63.19    6.30
  13  -1  -1   56.89    9.50
 -13   1  -1   66.89    8.40
 -13   1  -1   65.89    6.70
 -13   1  -1   69.69    7.60
  13  -1  -1   70.49   12.30
  -1 -13  -1   50.89    6.70
  -1 -13   1   48.20    6.60
  -1 -13   1   71.89    6.80
 -13   1   1   56.39    8.10
  13  -1   1   45.80    8.90
 -13   1   1   65.89    9.20
  -1 -13   1   59.29   10.30
  13  -1   1   53.99   11.30
 -13   1   1   64.19    8.10
 -13   1   1   62.99    7.60
 -13   2  -1   49.20    7.40
 -13   2  -1   53.99    6.90
  13  -2  -1   49.99    9.20
 -13   2  -1   63.99    6.70
  -2 -13  -1   47.80    8.60
  13  -2  -1   40.30    9.50
  -2 -13  -1   39.90    5.80
 -13   2  -1   54.99    8.60
  -2 -13  -1   56.39    5.40
  -2 -13   1   45.90    6.10
 -13   2   1   47.50    8.20
 -13   2   1   52.09    7.20
  -2 -13   1   47.90    5.60
  13  -2   1   50.49    9.10
 -13   2   1   49.30    8.90
  -2 -13   1   49.80    9.10
 -13   2   1   36.20    6.90
  -3 -13  -1   46.50    8.50
 -13   3  -1   46.20    7.90
  -3 -13  -1   44.50    5.00
  13  -3  -1   44.80    8.40
  13  -3  -1   48.70   10.10
 -13   3  -1   49.40    6.90
 -13   3  -1   39.60    8.30
  -3 -13  -1   41.70    5.80
 -13   3  -1   61.09    7.00
  13  -3   1   59.99    9.80
  -3 -13   1   43.70    5.80
 -13   3   1   40.50    7.70
 -13   3   1   44.60    8.70
  -3 -13   1   48.10    5.50
 -13   3   1   56.79    7.60
 -13   3   1   42.80    7.30
  -3 -13   1   46.40    8.60
 -13   4  -1   22.00    5.70
 -13   4  -1   18.40    5.80
 -13   4  -1   25.20    5.00
 -13   4  -1   23.00    5.20
  13  -4  -1   20.20    6.10
  13  -4  -1   29.10    5.30
  -4 -13  -1   26.00    4.80
  13  -4  -1   25.60    7.50
  -4 -13  -1   25.40    7.40
  13  -4  -1   44.40    6.90
  -4 -13  -1   22.60    3.50
  13  -4   1   24.30    6.40
  13  -4   1   18.10    4.20
  -4 -13   1   22.60    4.40
 -13   4   1   21.70    5.80
 -13   4   1   22.70    6.30
 -13   4   1   20.40    5.40
  -4 -13   1   24.90    6.10
  -4 -13   1   26.20    4.10
 -13   4   1   25.10    5.50
  -5 -13  -1   53.49    6.50
  13  -5  -1   64.79    8.00
 -13   5  -1   53.89    8.20
  13  -5  -1   58.59    7.00
 -13   5  -1   50.59    7.60
  -5 -13  -1   48.50    5.30
  13  -5  -1   58.89   10.50
 -13   5  -1   46.80    8.20
 -13   5  -1   44.30    9.30
  13  -5  -1   49.80    9.40
  -5 -13   1   52.19    5.80
 -13   5   1   39.90    9.20
 -13   5   1   40.20    7.70
 -13   5   1   48.80    8.50
  -5 -13   1   49.80    6.50
  13  -5   1   56.99    6.70
  13  -5   1   64.29    7.80
 -13   5   1   55.19    8.30
  13  -5   1   49.30    9.20
 -13   6  -1   35.30    6.90
 -13   6  -1   31.60    6.30
 -13   6  -1   29.70    6.10
  13  -6  -1   35.10    6.20
  -6 -13  -1   34.70    4.10
  13  -6  -1   32.60    7.20
  13  -6  -1   34.20    5.80
 -13   6  -1   26.50    7.00
  -6 -13  -1   30.30    5.50
 -13   6   1   27.00    6.20
  -6 -13   1   32.50    4.40
  13  -6   1   32.10    7.60
  13  -6   1   43.90    6.50
 -13   6   1   30.40    6.40
  13  -6   1   32.30    5.40
 -13   6   1   23.20    6.70
  -6 -13   1   37.00    5.30
 -13   6   1   26.30    6.30
  13  -7  -1    7.70    3.50
  -7 -13  -1    5.10    2.80
 -13   7  -1    6.10    3.70
  13  -7  -1    1.70    4.00
  13  -7  -1    8.40    3.40
 -13   7  -1    2.10    3.30
 -13   7  -1    2.10    3.00
 -13   7  -1    2.10    3.80
  -7 -13  -1    6.00    2.00
  -7 -13   1    5.20    2.60
  13  -7   1    4.60    3.10
  13  -7   1    7.50    2.90
 -13   7   1    4.60    4.00
 -13   7   1    4.00    3.90
 -13   7   1    6.40    3.50
 -13   7   1    5.50    3.80
  13  -7   1    8.30    4.50
  -7 -13   1    5.60    2.30
 -13   8  -1   13.10    4.70
 -13   8  -1   16.20    5.00
  -8 -13  -1   15.30    4.10
  13  -8  -1   22.60    4.70
  13  -8  -1   13.60    5.60
 -13   8  -1   11.40    5.00
  -8 -13  -1   15.50    3.20
 -13   8  -1   16.50    5.60
  13  -8  -1   16.10    4.20
  -8 -13   1   18.80    3.70
 -13   8   1   22.50    6.00
  13  -8   1   18.20    4.30
 -13   8   1   13.50    5.50
 -13   8   1   11.80    5.20
  13  -8   1   23.90    4.70
  -8 -13   1   17.90    4.40
  13  -8   1   26.30    7.20
 -13   8   1   16.60    5.30
  -9 -13  -1    4.10    3.00
 -13   9  -1   -0.40    4.20
  13  -9  -1    2.20    2.40
 -13   9  -1    0.90    3.30
  13  -9  -1    2.60    4.10
  13  -9  -1    5.60    3.10
 -13   9  -1    3.80    3.50
  -9 -13  -1    2.20    1.70
  13  -9   1    7.60    3.00
 -13   9   1    0.40    3.20
  -9 -13   1    1.90    1.90
 -13   9   1    3.90    3.50
  -9 -13   1    3.30    2.90
  13  -9   1    1.80    3.80
  13  -9   1    6.50    3.20
 -13   9   1    0.90    3.30
 -13   9   1    2.40    4.50
   8 -14  -1    3.00    5.30
 -14  -8  -1    1.50    2.60
 -14  -8  -1    1.50    1.90
   8 -14  -1    3.00    1.90
  14   8  -1   -1.10    3.80
   8 -14   1    2.50    1.90
 -14  -8   1    3.60    3.00
  14   8   1    4.60    4.40
   8 -14   1   -1.60    4.70
 -14  -8   1    3.00    2.60
 -14  -7  -1    9.10    3.90
   7 -14  -1   13.90    2.70
   7 -14  -1   13.50    7.60
  14   7  -1    6.80    4.90
 -14  -7  -1   14.70    3.40
   7 -14   1    5.90    5.70
   7 -14   1   17.60    3.20
 -14  -7   1   10.00    3.40
 -14  -7   1    8.10    3.80
  14   7   1   10.50    5.70
  14   6  -1   86.09   13.50
 -14  -6  -1  102.99    9.90
   6 -14  -1  107.99   11.20
   6 -14  -1  113.69    9.20
   6 -14  -1  107.09   18.60
 -14  -6  -1  114.79   12.00
 -14  -6   1  105.89   10.50
  14   6   1   90.69   13.90
   6 -14   1   86.59   15.90
   6 -14   1  102.19    9.30
 -14  -6   1  121.19   12.20
  14   5  -1    4.30    4.30
   5 -14  -1    4.80    1.60
 -14  -5  -1    3.10    2.80
 -14  -5  -1    3.20    2.10
   5 -14  -1    1.00    4.50
 -14  -5  -1    1.30    2.80
   5 -14  -1    0.70    2.00
   5 -14   1    1.20    1.50
   5 -14   1    3.10    2.70
 -14  -5   1   -1.00    2.20
 -14  -5   1    3.50    2.50
  14   5   1   -3.70    3.40
 -14  -5   1    2.40    3.20
   5 -14   1    2.00    4.40
 -14  -5   1    3.00    2.40
   4 -14  -1   15.70    4.00
 -14  -4  -1   20.50    5.50
   4 -14  -1   20.30    7.70
 -14  -4  -1   18.30    3.70
 -14  -4  -1   22.00    5.10
  14   4  -1   17.90    6.90
 -14  -4   1   21.50    4.40
 -14  -4   1   18.80    4.10
 -14  -4   1   28.10    5.90
 -14  -4   1   21.90    5.30
  14   4   1   14.30    6.40
   4 -14   1   19.10    4.50
   4 -14   1   18.60    3.00
   4 -14   1   16.10    7.00
   3 -14  -1    5.40    4.90
 -14  -3  -1    1.00    1.60
  14   3  -1    0.30    4.40
 -14  -3  -1    1.30    3.20
   3 -14  -1    0.90    1.90
 -14  -3  -1    3.00    3.00
 -14  -3  -1    3.20    2.10
   3 -14   1    4.60    1.70
 -14  -3   1    8.10    2.90
   3 -14   1    6.60    3.10
  14   3   1    4.20    4.70
 -14  -3   1    2.30    2.90
 -14  -3   1    2.50    2.90
 -14  -3   1    2.80    2.30
   3 -14   1   -1.00    3.20
   2 -14  -1    0.20    3.80
  14   2  -1    1.90    4.50
 -14  -2  -1    1.90    2.80
   2 -14  -1    1.40    1.90
 -14  -2  -1    2.10    1.80
 -14  -2  -1    2.30    2.00
 -14  -2  -1    6.10    3.80
   2 -14   1    1.30    4.10
 -14  -2   1    4.50    3.30
   2 -14   1    0.90    1.90
 -14  -2   1    2.80    2.10
  14   2   1   -0.80    3.50
 -14  -2   1    1.00    2.40
 -14  -2   1    4.20    3.60
   2 -14   1    3.30    1.50
 -14  -1  -1    2.20    2.00
 -14  -1  -1    1.70    2.80
 -14  -1  -1    2.40    2.10
 -14  -1  -1    2.00    3.40
   1 -14  -1    0.30    3.60
  14   1  -1    4.20    5.00
   1 -14  -1    1.10    1.70
 -14  -1   1    2.40    3.20
   1 -14   1    3.10    2.20
 -14  -1   1   -0.10    2.10
 -14  -1   1    2.90    2.20
  14   1   1   -0.20    3.80
 -14  -1   1    2.30    2.60
   1 -14   1   -0.50    3.10
 -14   0  -1    1.20    1.90
 -14   0  -1    1.30    2.10
   0 -14  -1    3.30    4.00
   0 -14  -1    0.50    1.60
 -14   0  -1    4.00    3.80
  14   0  -1    1.00    3.30
  14   0  -1    1.90    4.50
 -14   0  -1    2.10    2.70
  14   0   1    3.60    3.60
 -14   0   1    3.00    2.80
 -14   0   1    0.40    3.00
  14   0   1   -0.90    3.30
   0 -14   1    1.50    1.80
   0 -14   1   -0.50    3.40
 -14   0   1    1.20    2.40
 -14   0   1    1.70    2.40
 -14   1  -1   -0.10    2.80
  -1 -14  -1    4.70    2.30
  -1 -14  -1    3.20    3.70
  14  -1  -1    0.60    4.30
 -14   1  -1    4.60    2.60
  -1 -14  -1    5.00    2.10
 -14   1  -1    3.50    3.50
  14  -1  -1   -0.30    3.00
 -14   1   1    1.70    2.80
  14  -1   1    5.60    4.20
  -1 -14   1    2.90    2.10
  -1 -14   1    5.40    4.50
 -14   1   1    0.20    2.80
 -14   1   1   -0.30    2.20
 -14   1   1    1.50    3.40
  -1 -14   1    1.50    1.80
  14  -1   1    1.40    4.50
  -2 -14  -1    4.40    2.40
  14  -2  -1    6.00    4.70
  -2 -14  -1    2.30    3.40
  -2 -14  -1    5.20    2.00
  14  -2  -1    4.90    4.10
 -14   2  -1    4.00    2.60
 -14   2  -1    4.60    3.40
 -14   2  -1    0.10    3.20
 -14   2  -1    0.20    2.10
  -2 -14   1   19.40    6.10
 -14   2   1    3.90    3.60
  14  -2   1    6.30    5.40
 -14   2   1    4.90    3.30
 -14   2   1    6.40    3.60
  -2 -14   1    4.70    2.60
 -14   2   1    3.50    3.00
  -2 -14   1    2.40    1.90
  14  -2   1    4.20    3.90
  -3 -14  -1    0.10    3.30
 -14   3  -1    0.10    3.40
 -14   3  -1    1.80    2.90
  -3 -14  -1    3.90    1.90
  14  -3  -1    1.30    3.30
 -14   3  -1    1.80    2.50
 -14   3  -1    2.90    2.90
  -3 -14  -1    3.70    2.30
  14  -3  -1    0.40    3.90
  -3 -14   1    5.20    2.30
 -14   3   1    2.40    3.00
 -14   3   1    1.90    3.10
  -3 -14   1    0.70    1.80
  14  -3   1    3.80    3.90
 -14   3   1    2.00    3.30
  -3 -14   1    3.60    3.70
 -14   3   1    5.10    3.50
 -14   4  -1   18.70    6.20
  14  -4  -1   23.50    7.60
 -14   4  -1   18.20    4.90
  -4 -14  -1   20.00    4.50
  -4 -14  -1   21.60    3.50
  14  -4  -1   39.60    6.60
  14  -4  -1   16.40    4.30
 -14   4  -1   22.50    6.00
 -14   4  -1   19.70    4.70
  14  -4  -1   18.00    5.80
  14  -4   1   13.20    5.20
 -14   4   1   19.60    5.60
 -14   4   1   14.60    5.70
  -4 -14   1   21.80    3.80
  -4 -14   1   19.80    6.10
 -14   4   1   19.10    5.10
  -4 -14   1   15.50    4.00
 -14   4   1   16.40    4.90
  -5 -14  -1    0.90    1.40
 -14   5  -1    0.40    2.90
  14  -5  -1    1.30    3.40
 -14   5  -1    1.00    2.90
 -14   5  -1   -0.20    2.80
  -5 -14  -1    2.80    2.20
  14  -5  -1   -0.10    2.10
  14  -5  -1   10.70    4.20
 -14   5  -1    2.80    3.40
  14  -5   1   14.40    5.70
  -5 -14   1    4.70    2.10
 -14   5   1    1.10    3.00
  14  -5   1    1.20    2.20
 -14   5   1    1.50    3.60
  -5 -14   1    3.00    2.20
 -14   5   1    6.20    3.50
 -14   5   1    4.40    4.10
  14  -6  -1   95.39   12.60
 -14   6  -1  109.29   11.60
  -6 -14  -1   91.99    8.90
 -14   6  -1  104.99   11.70
  14  -6  -1  127.99   11.20
  -6 -14  -1  106.69   10.80
 -14   6  -1  111.69   12.20
 -14   6  -1   79.19   12.40
  14  -6  -1  123.09   11.50
  -6 -14   1   93.29   10.60
 -14   6   1  108.29   12.00
  14  -6   1  106.49   10.50
  14  -6   1   95.09   12.60
 -14   6   1   91.19   11.70
  -6 -14   1   96.19    9.50
  14  -6   1  119.89   11.50
 -14   6   1  112.59   12.30
 -14   6   1   80.89   12.60
  14  -7  -1   12.70    4.30
  14  -7  -1    8.00    3.40
  14  -7  -1   16.10    6.20
 -14   7  -1   11.70    4.50
 -14   7  -1    8.70    4.50
 -14   7  -1   17.30    5.30
  -7 -14  -1    7.10    2.30
  -7 -14  -1    9.00    3.60
 -14   7  -1    3.80    3.60
  14  -7   1   12.70    3.80
 -14   7   1   10.10    5.10
  14  -7   1    9.30    3.90
  14  -7   1   15.40    5.60
  -7 -14   1   10.40    3.50
  -7 -14   1   10.10    2.90
 -14   7   1    6.50    4.70
 -14   7   1    3.10    3.60
 -14   7   1    6.00    3.80
 -14   8  -1   -0.30    2.90
  14  -8  -1    4.60    2.80
  14  -8  -1   -1.80    3.30
  -8 -14  -1    6.70    3.10
 -14   8  -1    0.80    3.10
  14  -8  -1    0.40    3.00
 -14   8  -1    3.80    3.50
  -8 -14  -1    0.70    1.60
 -14   8  -1    3.30    4.40
  -8 -14   1    6.90    3.20
  -8 -14   1    2.50    1.90
  14  -8   1    4.40    2.80
 -14   8   1    7.20    4.30
 -14   8   1    0.50    3.50
 -14   8   1    1.40    4.20
  14  -8   1    0.20    3.40
 -14   8   1    1.80    3.30
  14  -8   1   -2.10    2.80
 -15  -6  -1    1.00    2.00
   6 -15  -1    2.80    2.60
  15   6  -1    0.90    4.40
 -15  -6  -1    2.80    3.00
   6 -15  -1   -3.30    4.20
 -15  -6   1    1.20    2.30
  15   6   1    5.00    5.10
 -15  -6   1    2.40    3.30
   6 -15   1    1.90    5.00
   6 -15   1    1.80    1.80
 -15  -5  -1    5.30    2.50
 -15  -5  -1    6.80    3.90
   5 -15  -1    5.10    2.90
   5 -15  -1   -0.10    5.20
 -15  -5  -1    1.70    3.20
  15   5  -1    5.60    5.00
 -15  -5   1    5.80    2.90
   5 -15   1    7.70    5.80
 -15  -5   1    3.00    3.50
   5 -15   1    5.40    2.10
  15   5   1   10.80    6.00
 -15  -4  -1    1.80    3.00
   4 -15  -1    7.00    3.10
 -15  -4  -1    2.50    2.20
 -15  -4  -1    2.50    3.30
  15   4  -1    5.50    5.10
   4 -15  -1    4.30    5.90
 -15  -4   1    2.90    2.50
   4 -15   1    9.30    6.60
   4 -15   1    4.60    2.90
 -15  -4   1    3.70    3.50
 -15  -4   1    4.90    2.60
 -15  -4   1    2.90    3.60
  15   4   1    2.50    4.70
   4 -15   1    5.00    1.90
 -15  -3  -1    2.90    3.70
   3 -15  -1    1.90    2.10
  15   3  -1    3.30    4.90
 -15  -3  -1    7.00    3.80
   3 -15  -1    2.30    4.40
 -15  -3  -1    1.00    1.90
 -15  -3   1    1.30    2.20
 -15  -3   1    2.40    3.30
 -15  -3   1    2.40    2.30
 -15  -3   1    1.40    3.00
  15   3   1    3.00    4.90
   3 -15   1    0.60    4.30
   3 -15   1    1.50    2.30
   2 -15  -1   82.09   14.60
 -15  -2  -1  108.29   12.00
  15   2  -1  106.19   14.60
 -15  -2  -1   86.69   10.60
 -15  -2  -1   95.79    8.90
   2 -15  -1   88.29    9.20
 -15  -2  -1   89.89    8.90
   2 -15   1   91.39    9.60
 -15  -2   1  102.19   11.50
  15   2   1   75.39   14.90
 -15  -2   1   90.59    9.80
   2 -15   1   70.19   14.00
 -15  -2   1   86.59   10.90
 -15  -1  -1   38.20    5.70
 -15  -1  -1   34.20    7.00
 -15  -1  -1   38.00    7.60
   1 -15  -1   30.60    8.50
 -15  -1  -1   34.10    5.20
   1 -15  -1   33.30    5.30
  15   1  -1   37.70   10.50
  15   1   1   34.70   10.10
   1 -15   1   33.80    5.60
 -15  -1   1   35.60    7.20
   1 -15   1   35.00    8.70
 -15  -1   1   41.20    6.90
 -15  -1   1   35.60    7.30
 -15   0  -1  139.79   14.70
   0 -15  -1  136.59   12.60
 -15   0  -1  148.79   13.30
 -15   0  -1  168.18   16.30
  15   0  -1  133.99   17.90
   0 -15  -1  122.89   15.90
 -15   0   1  141.49   14.90
   0 -15   1  145.99   13.10
  15   0   1  130.89   17.70
 -15   0   1  146.09   14.10
 -15   0   1  149.59   12.50
   0 -15   1  128.39   16.10
 -15   0   1  154.48   15.90
  -1 -15  -1   30.20    4.70
  15  -1  -1   34.80    7.50
  15  -1  -1   30.10    9.00
 -15   1  -1   33.90    5.90
 -15   1  -1   38.30    7.40
 -15   1  -1   49.00    9.20
  -1 -15  -1   37.20    8.20
  -1 -15   1   34.90    5.40
  15  -1   1   24.50    8.10
 -15   1   1   38.20    5.50
 -15   1   1   25.70    6.30
  -1 -15   1   24.60    5.20
 -15   1   1   33.80    6.60
  -1 -15   1   22.70    7.20
  15  -1   1   31.50    7.70
 -15   1   1   39.70    8.10
  15  -2  -1   86.59   11.20
  -2 -15  -1   70.49    8.80
 -15   2  -1   78.89   10.50
  -2 -15  -1   90.59    8.20
 -15   2  -1   90.09    9.60
  -2 -15  -1   96.89   12.10
 -15   2  -1   98.19   12.20
  15  -2  -1   79.99   13.90
  -2 -15   1   67.49    8.80
 -15   2   1   86.89    9.40
 -15   2   1   69.59   10.20
  15  -2   1   88.49   14.90
 -15   2   1   79.29    9.90
 -15   2   1   87.59   11.50
  15  -2   1   87.29   12.90
  -2 -15   1   92.39   12.00
  -2 -15   1   92.29    8.70
  -3 -15  -1    1.60    1.60
 -15   3  -1    0.90    3.60
  15  -3  -1   21.30    6.40
 -15   3  -1   -0.20    3.00
  -3 -15  -1   -2.30    2.90
 -15   3  -1    0.60    2.50
  -3 -15  -1    4.40    2.70
  15  -3  -1    1.00    4.60
  15  -3   1    1.80    3.70
  15  -3   1    5.80    4.80
  -3 -15   1   -1.60    3.20
 -15   3   1    0.60    3.10
 -15   3   1    2.30    3.10
 -15   3   1    1.60    3.20
 -15   3   1    2.00    4.00
  -3 -15   1    1.00    1.80
  -3 -15   1    1.70    2.30
 -15   4  -1    6.90    3.50
  15  -4  -1    5.00    2.90
  15  -4  -1    7.70    5.20
  -4 -15  -1    1.40    2.20
  15  -4  -1    3.60    4.20
 -15   4  -1    2.30    3.70
 -15   4  -1    1.50    3.70
  -4 -15  -1    4.50    2.00
 -15   4   1    0.80    3.20
  15  -4   1    9.40    5.80
 -15   4   1    1.20    3.80
 -15   4   1    3.30    3.80
  15  -4   1    4.60    3.90
 -15   4   1    3.00    3.30
  -4 -15   1    4.30    2.30
  -4 -15   1    2.20    2.40
  -5 -15  -1    4.50    2.00
 -15   5  -1    2.60    3.40
 -15   5  -1    9.70    4.10
 -15   5  -1    3.00    3.90
  15  -5  -1    5.10    3.80
  15  -5  -1    7.40    3.30
 -15   5  -1    8.50    3.60
  15  -5  -1   -0.60    4.00
  -5 -15  -1    7.70    3.50
  15  -5   1    8.30    5.10
  15  -5   1    1.10    3.80
 -15   5   1    5.90    4.50
 -15   5   1    2.10    3.50
 -15   5   1    4.30    3.70
  -5 -15   1    8.20    3.30
 -15   5   1    7.70    4.40
  -5 -15   1    5.50    2.40
  15  -6  -1    4.30    3.00
  -6 -15  -1    3.40    1.70
 -15   6  -1    2.10    3.60
 -15   6  -1   -1.20    3.00
 -15   6  -1    0.00    3.70
  15  -6  -1    9.80    4.10
  15  -6  -1   -1.80    3.40
 -15   6  -1    1.00    2.90
  -6 -15  -1    2.40    2.50
  15  -6   1    3.00    3.70
 -15   6   1    3.20    3.50
 -15   6   1    1.60    3.60
  -6 -15   1    2.10    2.00
  15  -6   1   -0.40    3.30
 -15   6   1    1.30    3.70
  15  -6   1    2.90    2.60
  -6 -15   1    4.40    2.70
 -15   6   1    2.40    4.20
   3 -16  -1    4.50    5.20
  16   3  -1    5.90    6.20
 -16  -3  -1    3.20    3.30
 -16  -3  -1    4.20    2.40
   3 -16  -1    2.20    2.40
 -16  -3  -1    4.40    3.60
 -16  -3   1   10.20    4.60
 -16  -3   1    5.30    2.70
   3 -16   1   10.50    3.70
   3 -16   1    3.60    5.20
 -16  -3   1    7.40    4.30
  16   3   1    1.30    5.20
   2 -16  -1    0.10    2.10
 -16  -2  -1    2.00    3.30
 -16  -2  -1   10.40    3.10
  16   2  -1    5.50    5.20
   2 -16  -1   -0.20    4.20
 -16  -2  -1    1.30    3.40
  16   2   1   -3.00    4.40
 -16  -2   1   -1.80    2.70
   2 -16   1   -0.20    3.90
 -16  -2   1    4.50    4.00
 -16  -2   1    1.00    2.30
   2 -16   1   -1.90    1.80
 -16  -1  -1   32.60    5.00
  16   1  -1   34.40   10.00
 -16  -1  -1   34.20    7.80
 -16  -1  -1   28.40    6.80
   1 -16  -1   30.40    5.10
   1 -16  -1   20.20    7.20
   1 -16   1   33.70    5.80
 -16  -1   1   23.70    6.60
 -16  -1   1   32.00    6.10
  16   1   1   20.20    8.50
 -16  -1   1   26.20    7.00
   1 -16   1   32.10    8.70
 -16   0  -1   -0.20    3.20
  16   0  -1    0.00    4.70
   0 -16  -1    0.60    1.90
 -16   0  -1    3.00    3.90
 -16   0  -1   -0.70    2.00
   0 -16  -1    0.10    4.10
 -16   0   1    0.70    3.50
  16   0   1    1.10    5.30
 -16   0   1    1.60    2.80
 -16   0   1    0.80    3.40
   0 -16   1    0.90    2.20
   0 -16   1    1.70    3.80
 -16   1  -1   23.80    4.80
 -16   1  -1   35.60    7.40
  -1 -16  -1   35.30    8.40
  -1 -16  -1   26.30    4.60
  16  -1  -1   34.20    9.80
 -16   1  -1   33.00    7.60
  -1 -16   1   28.80    7.80
 -16   1   1   25.40    6.60
 -16   1   1   29.60    7.40
 -16   1   1   32.20    4.80
 -16   1   1   20.90    5.50
  -1 -16   1   28.70    5.10
  16  -1   1   22.70    8.70
 -16   2  -1    1.40    3.70
  16  -2  -1    1.20    4.80
 -16   2  -1   -0.40    2.30
  -2 -16  -1   -0.10    1.70
  16  -2  -1   -2.00    3.20
  -2 -16  -1    1.90    4.00
 -16   2  -1    7.30    5.20
  -2 -16  -1    0.90    1.70
 -16   2   1    1.20    3.90
  -2 -16   1    0.00    1.70
  16  -2   1   -1.30    3.60
  16  -2   1    1.20    5.00
  -2 -16   1    4.60    2.60
 -16   2   1    0.50    2.90
 -16   2   1    1.00    3.00
 -16   2   1   -0.90    2.80
  -2 -16   1    1.20    3.80
 -16   3  -1    6.20    3.40
 -16   3  -1    5.00    4.30
  16  -3  -1    7.00    5.70
  -3 -16  -1    3.20    2.20
 -16   3  -1    4.30    4.50
  -3 -16  -1    4.00    2.80
  16  -3  -1    1.40    3.80
 -16   3   1   14.20    4.20
  16  -3   1    3.40    4.20
 -16   3   1    3.20    3.30
  16  -3   1    4.20    5.20
 -16   3   1    4.20    3.80
  -3 -16   1    6.00    2.60
 -16   3   1   16.00    6.30
  -3 -16   1    2.20    4.10
  -3 -16   1    3.20    2.40
  -1   2  -2  317.07   23.20
   2  -1  -2  340.77   24.70
  -2   1  -2  337.97   24.80
  -2   2  -2 1728.73  130.69
   2  -2  -2 1923.01  130.79
   2   2  -2 1829.52  130.69
   2  -3  -2   73.59    5.50
   2  -3  -2   69.39    5.20
  -2   3  -2   62.89    6.00
   2  -3  -2   67.09    6.70
  -3  -2  -2   60.69    5.70
  -2   3  -2   74.69    5.40
   3   2  -2   66.59    5.20
   3   2  -2   71.49    5.60
  -3  -2   2   67.19    5.70
  -3  -2   2   69.19    5.30
   2  -3   2   59.39    5.20
  -3  -2   2   63.29    5.40
   3   1  -2 1034.20   67.09
  -1   3  -2  951.20   67.09
   3   1  -2 1069.49   67.59
  -3  -1   2  944.31   67.39
   1  -3   2  931.41   67.29
  -3  -1   2  810.82   67.79
   1  -3   2  807.02   67.09
   3   0  -2    5.40    1.00
   0   3  -2    3.30    0.70
   1   3  -2 1053.99   68.09
  -3   1  -2  881.91   68.59
   3  -1  -2 1045.70   68.29
  -1  -3   2  860.31   67.89
  -1  -3   2 1015.30   68.09
  -1  -3   2  835.82   67.79
  -3   2  -2   75.79    6.40
  -2  -3  -2   71.79    5.60
  -3   2  -2   64.29    6.30
   2   3  -2   70.49    5.70
  -3   2  -2   83.09    5.90
   3  -2  -2   74.59    6.00
  -2  -3   2   63.49    5.50
  -2  -3   2   67.39    5.40
  -2  -3   2   69.99    5.70
  -3   3  -2 3860.31  298.97
  -3   3  -2 4007.80  298.57
   3  -3  -2 4138.29  298.47
   3  -3  -2 3697.23  299.57
   3   3  -2 4730.93  300.27
  -3  -3  -2 4543.45  298.87
  -3  -3   2 4338.87  299.87
   3  -3   2 4056.19  299.67
  -3  -3   2 4368.06  299.27
  -3  -3   2 4230.68  298.87
   3  -3   2 3949.60  298.57
  -4  -3  -2  108.09    9.00
   4   3  -2  110.29    8.10
  -3   4  -2  111.69    9.70
   3  -4  -2  109.69    8.50
  -3   4  -2   90.09    9.40
   4   3  -2  121.99    8.90
   3  -4  -2  116.49    8.80
  -4  -3  -2  110.99    8.30
  -3   4  -2  118.49    8.50
   3  -4  -2  107.69    8.20
   3  -4  -2   82.19    9.80
  -4  -3   2  111.09    9.00
  -4  -3   2  113.59    8.40
   3  -4   2   99.69    8.30
   3  -4   2   96.39    8.30
  -4  -3   2  110.59    8.60
   2  -4  -2  145.59    9.70
   4   2  -2  140.69   10.00
   2  -4  -2  130.79    9.30
   4   2  -2  126.99    9.30
  -4  -2  -2  118.79    9.20
   2  -4  -2  111.79    9.00
  -4  -2  -2  103.79   10.00
   2  -4  -2  115.19   11.00
  -2   4  -2  131.49    9.40
  -4  -2  -2  121.79    9.50
  -2   4  -2  124.19   10.30
  -4  -2   2  140.39    9.80
   2  -4   2  109.89    9.20
  -4  -2   2  114.59   10.10
  -4  -2   2  127.19    9.50
   2  -4   2  113.59    9.30
   1  -4  -2 5800.22  453.55
   1  -4  -2 6039.90  453.35
  -1   4  -2 5880.41  453.75
   1  -4  -2 5922.51  452.65
  -4  -1   2 5709.83  452.75
  -4  -1   2 7180.28  455.45
   1  -4   2 6658.43  453.45
   1  -4   2 6600.24  454.85
  -4  -1   2 7075.79  455.05
   1  -4   2 6523.25  453.95
   0  -4  -2  495.55   36.80
   0  -4  -2  521.75   35.60
   4   0  -2  534.95   35.80
   4   0  -2  520.45   36.20
  -4   0  -2  403.76   35.90
   0   4  -2  476.45   35.40
   0  -4   2  478.25   35.40
  -4   0   2  485.25   35.70
   0  -4   2  544.55   35.80
   0  -4   2  457.15   35.30
  -4   0   2  480.85   36.10
   1   4  -2 7235.48  491.25
  -4   1  -2 5553.34  489.75
  -1  -4   2 7208.18  491.05
  -4   1   2 7028.40  489.65
  -1  -4   2 7051.19  490.35
  -1  -4   2 7108.59  492.25
  -4   1   2 6814.52  493.25
   4  -2  -2  129.99   10.00
  -4   2  -2  108.09   10.20
   4  -2  -2  115.69   10.90
  -4   2  -2  109.59   10.00
   2   4  -2  131.99    9.50
  -2  -4  -2  122.69    9.30
   4  -2  -2  128.39    9.80
  -2  -4  -2  123.79    9.00
  -2  -4   2  127.69    9.50
  -4   2   2  107.69   10.10
  -2  -4   2  122.39    9.20
  -4   2   2  124.39    9.70
  -2  -4   2  122.89    9.10
  -3  -4  -2  101.99    8.00
  -4   3  -2   91.49    9.20
   4  -3  -2  111.19    8.70
  -4   3  -2  118.89    8.70
   4  -3  -2  100.29   10.20
   4  -3  -2  118.29    9.00
  -3  -4  -2  108.29    8.50
  -4   3  -2   86.09    9.30
   3   4  -2  113.09    8.60
  -4   3  -2   98.59    9.50
  -3  -4   2  112.19    8.40
   3   4   2  112.89    9.10
   4  -3   2  109.19    8.60
  -4   3   2  116.59    8.80
  -3  -4   2  106.89    8.60
  -3  -4   2  111.19    8.20
  -4   3   2   92.79    9.30
   4  -3   2  108.59    8.60
  -3  -4   2  119.79    8.90
   4  -4  -2   19.00    2.20
  -4   4  -2   17.90    3.20
   4  -4  -2   18.30    2.10
  -4   4  -2   17.80    2.20
  -4   4  -2   15.40    3.20
   4  -4  -2   15.00    3.80
  -4   4  -2   14.70    3.30
   4  -4  -2   18.60    2.80
   4   4  -2   18.80    2.30
  -4  -4  -2   16.60    1.70
  -4  -4  -2   15.40    2.20
   4   4   2   19.10    3.30
   4  -4   2   16.00    2.10
  -4   4   2   13.50    3.00
  -4  -4   2   14.70    2.10
  -4   4   2   14.80    2.10
  -4  -4   2   19.90    2.10
  -4  -4   2   14.00    2.20
  -4  -4   2   18.00    2.00
   4  -4   2   14.70    2.00
   4  -5  -2  150.18   11.40
  -4   5  -2  158.48   11.40
  -4   5  -2  122.79   12.10
   4  -5  -2  136.19   11.00
   4  -5  -2  124.79   13.50
  -5  -4  -2  150.18   11.10
  -4   5  -2  150.38   13.00
   5   4  -2  157.18   11.90
   5   4  -2  156.18   10.80
  -4   5  -2  132.09   12.60
  -5  -4  -2  151.48   12.00
  -5  -4  -2  159.08   12.00
  -5  -4   2  157.18   12.00
   4  -5   2  138.19   11.20
  -4   5   2  120.39   12.70
   4  -5   2  132.79   11.10
  -4   5   2  141.09   11.50
   5   4   2  147.29   12.90
  -5  -4   2  145.59   11.50
  -5  -4   2  141.99   11.10
  -5  -4   2  155.18   11.60
   5   3  -2  704.43   49.90
  -3   5  -2  770.32   49.20
   3  -5  -2  788.02   49.60
  -5  -3  -2  697.93   50.09
   5   3  -2  726.93   48.90
   3  -5  -2  619.84   48.70
   3  -5  -2  715.13   49.10
  -5  -3  -2  662.23   48.50
  -3   5  -2  712.63   50.69
  -5  -3  -2  641.84   49.10
  -3   5  -2  589.94   50.29
  -5  -3  -2  658.83   49.99
   3  -5  -2  567.64   51.09
  -5  -3   2  693.03   49.50
  -5  -3   2  709.43   49.20
  -5  -3   2  708.03   50.09
  -5  -3   2  721.93   49.60
   3  -5   2  594.04   49.00
   3  -5   2  647.44   49.00
  -5  -3   2  620.64   49.40
   5   2  -2   11.70    2.30
  -2   5  -2   16.80    3.20
  -5  -2  -2   11.30    2.50
   2  -5  -2    9.90    1.00
  -2   5  -2   11.40    1.40
  -5  -2  -2   14.40    1.70
   2  -5  -2   12.00    1.80
   5   2  -2   14.00    1.60
   2  -5  -2    7.50    1.20
  -5  -2  -2   14.50    2.70
   2  -5  -2    8.00    2.70
  -2   5  -2   11.20    2.50
  -5  -2  -2   10.50    1.70
  -5  -2   2   10.30    2.00
   2  -5   2   10.40    1.30
   2  -5   2   10.80    1.50
  -5  -2   2    7.50    2.00
  -5  -2   2    9.60    1.80
  -5  -2   2   10.90    1.80
  -1   5  -2  310.57   21.50
   5   1  -2  330.57   21.80
  -5  -1  -2  302.47   21.90
  -5  -1  -2  239.18   22.50
  -1   5  -2  296.87   22.30
   5   1  -2  333.97   22.70
   1  -5  -2  272.97   23.20
  -5  -1  -2  286.67   22.00
   1  -5  -2  284.17   21.10
  -5  -1  -2  267.47   22.60
   1  -5  -2  297.47   21.80
   1  -5   2  286.87   21.30
  -5  -1   2  301.67   21.80
   1  -5   2  288.17   21.40
   1  -5   2  298.37   21.90
  -5  -1   2  280.37   22.10
  -5  -1   2  290.37   22.00
  -5   0  -2    3.10    1.40
   0  -5  -2    2.90    0.70
  -5   0  -2    1.50    0.90
   5   0  -2    1.60    1.20
   0   5  -2    1.90    0.60
   0  -5  -2    1.40    0.20
   0  -5  -2   10.10    2.60
  -5   0  -2    0.00    0.60
  -5   0  -2    1.90    1.20
   5   0  -2    1.00    0.90
   5   0  -2    7.50    2.60
  -5   0  -2    0.70    0.80
  -5   0   2    2.30    1.00
  -5   0   2    1.90    1.20
  -5   0   2    0.90    0.80
   0  -5   2    2.20    0.60
   1   5  -2  314.57   21.90
   5  -1  -2  311.87   22.50
  -5   1  -2  288.17   22.40
  -5   1  -2  273.97   22.80
   5  -1  -2  289.07   22.90
  -1  -5  -2  301.47   22.00
  -1  -5  -2  330.97   23.40
  -5   1  -2  255.17   23.00
  -5   1   2  304.57   22.90
  -1  -5   2  297.97   21.70
  -1  -5   2  303.77   21.60
  -5   1   2  300.07   22.50
  -1  -5   2  314.07   22.10
  -5   1   2  284.77   22.30
  -2  -5  -2    9.90    2.40
   2   5  -2   12.70    1.60
   5  -2  -2   11.00    3.10
  -2  -5  -2   14.10    1.60
  -2  -5  -2   13.40    1.20
  -5   2  -2    9.30    2.20
  -5   2  -2   10.40    2.50
  -5   2  -2   11.20    2.60
   5  -2  -2   14.90    2.50
  -2  -5   2   13.10    1.50
  -5   2   2   10.80    2.10
  -2  -5   2    9.00    1.40
  -5   2   2   16.10    3.10
   5  -2   2   10.70    1.90
  -5   2   2    8.20    1.90
  -5   2   2    9.30    2.30
  -2  -5   2   10.70    1.70
   5  -3  -2  700.83   52.29
  -3  -5  -2  724.73   51.39
  -3  -5  -2  831.12   52.79
  -5   3  -2  643.44   53.09
   5  -3  -2  741.83   52.59
   5  -3  -2  754.82   54.29
  -5   3  -2  721.23   52.89
  -5   3  -2  629.64   52.89
  -3  -5  -2  744.03   51.99
   3   5  -2  742.33   51.99
  -3  -5   2  709.93   51.89
  -3  -5   2  713.23   51.99
   5  -3   2  711.63   52.09
  -5   3   2  678.33   52.39
  -3  -5   2  727.93   51.69
   5  -3   2  666.03   52.09
  -5   3   2  680.43   52.29
   3   5   2  774.22   52.29
  -3  -5   2  714.73   51.49
   5  -4  -2  164.58   12.30
   4   5  -2  145.69   11.60
  -4  -5  -2  161.38   11.80
  -5   4  -2  125.09   12.40
  -4  -5  -2  142.39   11.00
   5  -4  -2  150.78   11.60
  -5   4  -2  144.59   12.60
   5  -4  -2  136.09   13.70
  -5   4  -2  121.39   12.60
  -4  -5   2  153.18   11.80
  -4  -5   2  147.39   11.50
   5  -4   2  140.89   11.60
  -4  -5   2  151.68   11.40
  -5   4   2  141.89   11.90
  -4  -5   2  142.59   11.10
   5  -4   2  159.28   11.60
  -5   4   2  156.28   12.30
   4   5   2  154.28   12.20
  -5  -5  -2  748.33   52.79
   5   5  -2  751.72   53.49
   5  -5  -2  685.53   52.99
   5  -5  -2  696.93   53.29
  -5   5  -2  786.92   53.39
  -5  -5  -2  789.42   53.69
   5  -5  -2  681.43   55.89
   5  -5  -2  757.42   53.89
  -5   5  -2  648.34   54.19
  -5   5  -2  678.33   54.79
  -5   5  -2  747.63   54.59
  -5   5   2  688.63   53.59
  -5   5   2  681.13   53.99
   5   5   2  753.12   54.49
  -5  -5   2  779.12   53.29
   5  -5   2  696.33   52.99
  -5  -5   2  800.62   53.79
   5  -5   2  732.63   53.19
  -5  -5   2  722.63   52.79
  -5  -5   2  768.02   53.29
   5  -6  -2   87.89    7.60
   6   5  -2   99.59    8.30
  -5   6  -2   84.59    9.20
   5  -6  -2   82.79   10.30
   5  -6  -2   93.89    7.30
  -6  -5  -2   93.89    7.40
  -5   6  -2   79.29    7.50
  -5   6  -2   80.99    8.60
  -6  -5  -2  102.79    8.50
  -6  -5  -2   91.39    8.20
   5  -6  -2   94.29    8.40
  -5   6  -2   90.39    9.40
  -5   6   2   76.89    9.30
   5  -6   2   87.89    7.50
  -6  -5   2   91.99    7.90
  -5   6   2   85.29    8.00
  -6  -5   2   92.09    7.30
  -6  -5   2   99.79    8.50
   5  -6   2   83.49    7.50
  -6  -5   2   95.09    7.90
   6   5   2   86.79    9.20
  -6  -4  -2  391.66   28.40
  -4   6  -2  316.97   28.60
  -4   6  -2  411.26   29.60
  -6  -4  -2  364.16   28.10
  -4   6  -2  391.46   27.30
  -4   6  -2  373.16   28.40
   6   4  -2  386.06   26.90
   4  -6  -2  342.57   26.80
   6   4  -2  400.86   28.30
   6   4  -2  382.16   28.00
   4  -6  -2  407.86   27.90
  -6  -4  -2  360.96   27.30
   4  -6  -2  306.67   29.70
   4  -6  -2  358.16   27.20
  -6  -4   2  406.76   27.90
  -6  -4   2  402.16   28.50
   4  -6   2  344.67   27.10
   4  -6   2  343.97   27.10
  -4   6   2  358.46   27.60
  -6  -4   2  390.26   27.70
  -4   6   2  305.77   29.10
  -6  -4   2  379.76   27.20
   6   4   2  325.77   29.20
  -6  -3  -2  512.05   40.40
  -6  -3  -2  527.95   39.60
  -6  -3  -2  504.85   40.60
   3  -6  -2  611.64   39.90
   6   3  -2  575.24   40.60
  -6  -3  -2  558.44   39.20
  -3   6  -2  595.94   41.40
   3  -6  -2  512.55   39.20
   3  -6  -2  491.35   38.90
   6   3  -2  599.64   39.40
   3  -6  -2  457.45   41.70
  -3   6  -2  596.94   39.50
  -6  -3   2  571.04   40.00
  -3   6   2  556.94   40.00
  -6  -3   2  563.04   40.90
  -6  -3   2  547.95   39.60
   3  -6   2  485.85   39.20
  -6  -3   2  495.05   39.90
  -6  -3   2  536.75   40.10
   3  -6   2  518.35   39.30
   2  -6  -2   17.50    1.40
  -6  -2  -2   16.00    3.20
   2  -6  -2   15.90    1.70
  -6  -2  -2   19.50    2.30
   2  -6  -2   20.80    2.40
  -6  -2  -2   18.80    2.30
   2  -6  -2   19.50    4.40
   6   2  -2   17.00    2.20
  -2   6  -2   14.00    3.40
  -2   6  -2   15.70    3.10
  -6  -2  -2   11.30    2.90
   2  -6   2   17.90    2.00
   2  -6   2   17.70    2.70
  -6  -2   2   23.90    2.80
  -6  -2   2   22.20    2.70
  -6  -2   2   12.80    2.50
  -6  -2   2   20.70    2.70
   2  -6   2   16.20    1.90
  -6  -2   2   15.60    3.30
  -6  -1  -2  564.94   42.30
  -6  -1  -2  632.14   42.20
   6   1  -2  625.94   43.20
  -6  -1  -2  570.94   43.10
   1  -6  -2  522.45   43.60
   1  -6  -2  568.14   41.20
   1  -6  -2  568.94   42.10
  -1   6  -2  615.74   41.60
  -6  -1  -2  510.95   43.00
   6   1  -2  620.44   42.20
   1  -6   2  594.84   42.20
   1  -6   2  566.94   42.00
  -6  -1   2  558.14   42.10
  -6  -1   2  544.75   42.40
  -6  -1   2  562.94   42.60
   1  -6   2  576.44   41.40
   1  -6   2  575.44   41.50
  -6  -1   2  542.45   42.60
   0  -6  -2  872.01   63.29
  -6   0  -2  925.11   63.59
   6   0  -2  890.71   64.59
   0   6  -2  882.61   62.89
   0   6  -2  847.22   63.59
   0  -6  -2  911.71   62.39
  -6   0  -2  869.81   63.89
   6   0  -2  929.51   63.79
   0  -6  -2  876.91   64.99
  -6   0  -2  856.71   64.39
  -6   0  -2  858.41   63.19
  -6   0   2  880.71   63.59
   0  -6   2  861.31   62.79
   0  -6   2  932.11   63.49
  -6   0   2  857.11   63.79
   0  -6   2  865.31   62.69
   0  -6   2  814.62   63.19
  -6   0   2  793.52   63.99
  -6   1  -2  589.94   42.60
  -6   1  -2  606.44   42.60
   6  -1  -2  464.45   43.00
  -1  -6  -2  609.54   42.20
  -6   1  -2  556.74   43.00
   6  -1  -2  588.34   42.80
   6  -1  -2  566.14   43.50
   1   6  -2  615.24   41.90
  -1  -6  -2  627.24   43.80
  -6   1   2  535.25   43.10
  -6   1   2  554.84   42.60
  -1  -6   2  593.04   41.60
  -1  -6   2  589.64   42.30
  -1  -6   2  551.54   42.10
  -1  -6   2  600.04   41.80
  -6   1   2  582.94   42.80
   6  -2  -2   19.60    4.20
  -2  -6  -2   17.90    2.20
  -6   2  -2   18.70    3.80
  -6   2  -2   25.00    2.90
  -6   2  -2   15.90    3.10
   6  -2  -2   15.80    3.00
  -2  -6  -2   19.10    1.80
  -6   2  -2   13.80    3.00
  -2  -6  -2   20.60    3.80
   2   6  -2   17.90    2.20
   6  -2  -2   21.20    3.70
  -6   2  -2   16.10    3.30
   6  -2   2   20.20    2.90
  -2  -6   2   18.20    2.00
  -6   2   2   15.30    3.40
   6  -2   2   15.30    2.60
   2   6   2   23.10    2.10
  -2  -6   2   18.70    2.20
  -2  -6   2   19.00    2.00
  -6   2   2   18.70    3.10
  -6   2   2   15.10    3.30
   6  -3  -2  604.04   43.40
  -3  -6  -2  648.94   41.90
   6  -3  -2  492.35   41.20
  -6   3  -2  523.45   42.00
  -3  -6  -2  550.84   40.10
   3   6  -2  574.74   40.70
   6  -3  -2  567.84   41.60
  -6   3  -2  536.05   41.60
  -6   3  -2  533.45   42.00
  -6   3  -2  618.34   41.40
  -3  -6  -2  574.64   40.70
  -3  -6   2  545.05   40.70
  -6   3   2  539.25   42.40
  -3  -6   2  572.14   40.20
  -3  -6   2  559.94   40.80
   6  -3   2  481.25   40.90
   6  -3   2  546.55   41.00
  -6   3   2  529.95   41.40
   6  -3   2  519.35   42.00
  -6   3   2  530.55   41.30
   3   6   2  608.94   40.80
  -3  -6   2  598.44   40.50
  -6   4  -2  366.96   29.10
  -6   4  -2  358.66   29.50
  -6   4  -2  347.97   29.10
  -4  -6  -2  378.86   27.40
   6  -4  -2  396.16   31.00
  -4  -6  -2  432.06   27.30
  -4  -6  -2  395.56   28.20
   4   6  -2  376.76   28.00
   6  -4  -2  396.36   28.40
   6  -4  -2  377.86   28.90
  -4  -6   2  366.16   28.00
  -4  -6   2  395.16   27.80
   6  -4   2  359.66   29.80
  -4  -6   2  378.66   27.40
  -6   4   2  352.36   28.60
  -4  -6   2  383.56   28.20
   6  -4   2  332.37   28.10
   4   6   2  405.76   28.50
   6  -4   2  367.56   28.10
  -6   4   2  348.17   28.80
   5   6  -2   96.89    7.90
  -6   5  -2   83.99    8.70
  -6   5  -2   98.89    9.20
   6  -5  -2   82.39    7.80
  -5  -6  -2   95.39    7.10
   6  -5  -2   94.59    8.60
  -6   5  -2   79.79    9.00
   6  -5  -2   78.39   10.00
   6  -5  -2   84.29    7.60
  -5  -6  -2   97.89    8.00
  -5  -6   2   95.59    8.00
  -5  -6   2   92.79    7.70
   6  -5   2   83.79    7.60
  -6   5   2   81.79    8.60
  -6   5   2   80.49    8.00
   6  -5   2   89.59    9.70
  -5  -6   2   96.29    7.60
   5   6   2   99.69    8.60
  -6   5   2   66.69    8.80
  -5  -6   2   84.59    7.00
   6  -5   2   92.29    7.70
  -6   6  -2  249.68   19.30
   6  -6  -2  216.18   18.30
   6  -6  -2  204.78   20.50
   6  -6  -2  222.78   17.20
  -6   6  -2  213.28   19.30
  -6   6  -2  215.18   18.70
   6   6  -2  234.48   18.00
  -6  -6  -2  232.68   17.20
  -6  -6  -2  258.27   18.30
   6  -6  -2  216.08   17.60
   6  -6   2  226.98   20.30
   6   6   2  223.08   18.80
  -6  -6   2  250.07   17.80
  -6  -6   2  225.38   17.60
   6  -6   2  218.28   17.30
  -6  -6   2  208.28   16.80
  -6  -6   2  243.88   18.20
  -6   6   2  271.67   20.90
  -6   6   2  211.18   18.10
   6  -6   2  222.28   17.50
  -6   6   2  208.18   19.60
   6  -7  -2  707.63   61.29
   6  -7  -2  778.02   57.79
  -7  -6  -2  809.52   57.69
   6  -7  -2  756.92   57.29
   7   6  -2  820.82   58.69
  -6   7  -2  795.02   60.29
  -6   7  -2  795.42   59.69
   6  -7  -2  849.02   58.89
  -6   7  -2  748.23   59.19
  -7  -6  -2  821.72   58.49
  -7  -6  -2  848.42   58.89
   6  -7   2  811.62   57.79
  -7  -6   2  675.33   56.89
  -6   7   2  722.23   60.39
   6  -7   2  767.02   61.19
   6  -7   2  817.22   57.59
   7   6   2  789.32   59.89
  -7  -6   2  903.81   59.09
  -7  -6   2  801.92   58.19
  -7  -6   2  803.72   58.19
  -5   7  -2  160.88   14.30
  -7  -5  -2  176.48   14.20
   5  -7  -2  165.58   12.90
  -7  -5  -2  171.68   13.10
  -7  -5  -2  163.48   13.80
   7   5  -2  188.88   14.30
   5  -7  -2  154.28   12.50
  -5   7  -2  166.88   15.30
  -5   7  -2  166.38   13.10
  -5   7  -2  154.98   14.80
   5  -7  -2  148.89   16.20
   5  -7  -2  178.48   13.80
   5  -7   2  162.08   16.20
  -7  -5   2  178.78   13.60
   5  -7   2  157.98   12.90
  -7  -5   2  181.78   14.30
   5  -7   2  163.38   12.80
  -7  -5   2  172.68   13.60
   7   5   2  144.99   15.00
  -5   7   2  149.88   13.50
  -7  -5   2  158.18   12.70
   4  -7  -2 2819.82  179.08
   4  -7  -2 2203.88  177.78
   4  -7  -2 2171.98  181.48
  -7  -4  -2 2401.66  179.38
  -4   7  -2 2640.44  180.88
  -4   7  -2 2240.98  180.08
  -4   7  -2 2602.24  178.38
   4  -7  -2 2457.95  178.18
  -7  -4  -2 2599.94  179.88
   7   4  -2 2726.43  179.98
  -7  -4  -2 2463.55  178.58
  -7  -4  -2 2340.97  177.58
  -7  -4   2 2605.14  179.08
  -4   7   2 2278.17  178.68
  -7  -4   2 2482.75  178.38
   4  -7   2 2301.97  178.08
   4  -7   2 2574.04  178.38
  -7  -4   2 2688.73  180.08
  -7  -4   2 2697.73  179.28
  -7  -3  -2  190.98   13.80
  -7  -3  -2  128.59   13.30
   7   3  -2  177.48   14.00
   3  -7  -2  136.99   11.90
  -7  -3  -2  163.58   12.60
   3  -7  -2  142.89   15.00
  -3   7  -2  180.88   12.30
   3  -7  -2  186.98   12.80
   3  -7  -2  155.98   11.60
  -3   7  -2  141.29   14.10
  -7  -3  -2  165.78   12.20
   7   3  -2  170.78   12.40
   3  -7   2  149.88   12.10
   3  -7   2  167.78   12.10
  -7  -3   2  156.08   13.80
  -7  -3   2  159.68   12.60
  -3   7   2  152.68   12.40
  -7  -3   2  164.58   13.00
  -7  -3   2  131.39   12.80
   3  -7   2  140.49   12.80
  -7  -3   2  156.28   13.10
  -7  -2  -2 1605.84  117.19
  -2   7  -2 1722.63  115.69
  -7  -2  -2 1745.93  116.19
   2  -7  -2 1524.25  115.29
  -7  -2  -2 1692.83  116.19
   2  -7  -2 1476.95  118.49
   2  -7  -2 1857.91  115.99
   7   2  -2 1746.23  116.19
   7   2  -2 1725.03  117.69
  -2   7  -2 1751.92  117.59
  -2   7  -2 1566.24  117.69
  -7  -2  -2 1519.05  117.39
  -7  -2   2 1426.46  116.49
  -7  -2   2 1572.84  116.19
  -7  -2   2 1387.26  117.29
   2  -7   2 1592.24  116.29
   2  -7   2 1541.95  115.49
   2  -7   2 1554.94  115.59
  -7  -1  -2 1584.04  113.39
   7   1  -2 1590.34  112.49
  -1   7  -2 1645.14  112.99
   1  -7  -2 1502.85  112.29
  -1   7  -2 1653.23  111.69
  -7  -1  -2 1568.24  112.49
   7   1  -2 1654.93  113.89
   1  -7  -2 1449.95  114.19
  -7  -1  -2 1759.82  112.39
  -7  -1  -2 1503.95  113.59
   1  -7  -2 1558.84  111.19
  -7  -1   2 1467.25  113.59
  -7  -1   2 1447.46  112.69
  -7  -1   2 1477.75  112.99
  -7  -1   2 1664.33  112.99
   1  -7   2 1505.95  112.39
  -7  -1   2 1526.95  112.39
   1  -7   2 1561.84  111.59
   1  -7   2 1537.05  111.49
   1  -7   2 1474.45  112.19
   7   0  -2    2.40    2.00
  -7   0  -2    1.80    1.30
   0  -7  -2    3.60    0.80
   7   0  -2    2.50    2.30
   0  -7  -2    2.20    1.00
   0   7  -2    2.00    0.80
  -7   0  -2    2.60    1.20
   0  -7  -2    2.10    1.90
   0   7  -2    2.60    1.30
  -7   0  -2    0.30    0.80
  -7   0  -2    1.10    1.20
   7   0  -2    0.80    1.30
  -7   0  -2    1.30    1.60
  -7   0   2    2.30    1.50
  -7   0   2    3.90    1.70
  -7   0   2    0.80    1.30
  -7   0   2    1.20    1.10
   0  -7   2    5.50    1.30
   0  -7   2    1.50    0.90
  -7   0   2    2.80    1.60
   0  -7   2    2.90    0.80
   0  -7   2    2.70    0.80
  -7   1  -2 1707.03  111.99
  -7   1  -2 1494.15  112.79
  -1  -7  -2 1599.04  111.09
  -7   1  -2 1588.84  112.59
   1   7  -2 1379.26  111.59
  -1  -7  -2 1522.25  111.49
   1   7  -2 1670.83  111.29
  -7   1  -2 1673.63  111.99
  -1  -7  -2 1657.23  113.39
   7  -1  -2 1381.56  113.09
   7  -1  -2 1539.75  112.39
  -1  -7   2 1582.04  110.89
  -7   1   2 1346.27  112.49
  -1  -7   2 1590.74  111.69
  -1  -7   2 1612.64  111.09
   1   7   2 1501.35  111.19
  -1  -7   2 1572.04  111.49
  -7   1   2 1458.05  112.29
  -7   1   2 1545.55  112.19
  -2  -7  -2 1643.34  116.49
   7  -2  -2 1503.25  117.89
  -2  -7  -2 1563.04  116.99
  -7   2  -2 1739.53  117.79
  -7   2  -2 1625.34  118.29
   7  -2  -2 1481.55  118.59
  -2  -7  -2 1841.52  118.79
  -7   2  -2 1788.22  117.69
  -7   2  -2 1578.24  118.39
   2   7  -2 1669.13  116.89
  -7   2   2 1632.94  117.89
  -2  -7   2 1685.33  116.69
  -2  -7   2 1682.33  116.39
   7  -2   2 1434.86  117.39
  -7   2   2 1492.65  117.79
   2   7   2 1716.33  116.59
  -2  -7   2 1560.44  117.09
  -2  -7   2 1648.04  116.99
  -3  -7  -2  189.58   14.10
  -7   3  -2  159.18   14.60
   3   7  -2  173.48   12.50
  -7   3  -2  152.38   13.90
  -7   3  -2  174.78   13.70
   7  -3  -2  156.18   13.50
  -7   3  -2  160.28   13.10
  -3  -7  -2  165.98   12.00
  -3  -7  -2  165.18   12.60
   7  -3  -2  150.88   13.60
  -3  -7  -2  150.58   11.80
  -7   3  -2  181.88   14.30
   7  -3  -2  172.28   15.10
  -3  -7   2  166.08   12.80
  -3  -7   2  160.58   11.90
  -7   3   2  136.69   14.10
  -7   3   2  142.69   13.30
  -7   3   2  127.89   13.70
   7  -3   2  155.98   14.00
   3   7   2  173.58   12.50
  -7   3   2  151.98   13.50
  -3  -7   2  172.38   12.30
  -3  -7   2  149.49   12.50
  -4  -7  -2 2552.84  184.78
  -7   4  -2 2751.72  185.38
   7  -4  -2 2389.46  185.08
  -7   4  -2 2617.74  185.78
  -7   4  -2 2444.56  186.08
   7  -4  -2 2702.63  187.98
   7  -4  -2 2605.54  185.98
  -7   4  -2 2580.44  186.38
   4   7  -2 2582.34  184.68
  -4  -7  -2 2582.34  184.08
  -4  -7  -2 2582.54  183.88
  -4  -7   2 2514.85  184.68
   7  -4   2 2651.63  184.98
   7  -4   2 2508.45  186.48
   4   7   2 2888.21  184.98
  -4  -7   2 2747.12  184.48
  -7   4   2 2730.13  187.28
  -4  -7   2 2471.15  183.78
  -7   4   2 2386.66  185.68
  -7   4   2 2331.97  185.48
   7  -4   2 2418.36  184.98
  -4  -7   2 2614.54  184.88
   7  -5  -2  135.99   13.30
  -7   5  -2  167.18   14.50
   5   7  -2  167.98   13.30
   7  -5  -2  153.58   13.30
  -7   5  -2  157.08   14.70
   7  -5  -2  180.68   16.60
  -7   5  -2  162.28   14.50
  -5  -7  -2  174.78   12.60
   7  -5  -2  182.78   14.50
  -5  -7  -2  175.98   13.50
  -5  -7   2  166.48   13.20
  -7   5   2  154.38   14.30
   7  -5   2  178.58   15.50
  -5  -7   2  178.58   13.50
  -5  -7   2  180.28   13.00
   7  -5   2  167.28   13.30
   7  -5   2  168.18   13.40
  -7   5   2  128.09   14.50
  -7   5   2  137.19   13.70
   5   7   2  183.68   13.80
  -7   6  -2  784.42   60.69
   7  -6  -2  785.22   58.99
  -6  -7  -2  842.52   58.19
   6   7  -2  814.52   58.99
  -7   6  -2  821.82   60.19
   7  -6  -2  786.82   62.39
   7  -6  -2  749.33   58.39
  -7   6  -2  756.62   59.99
  -6  -7  -2  874.01   59.29
   7  -6  -2  772.42   59.79
   7  -6   2  791.62   58.49
   6   7   2  853.11   59.79
  -7   6   2  747.33   60.89
  -6  -7   2  830.22   59.19
  -7   6   2  698.83   59.89
   7  -6   2  800.12   58.79
   7  -6   2  826.32   61.49
  -6  -7   2  850.31   58.69
  -6  -7   2  840.22   58.79
   7  -7  -2  176.88   14.00
   7   7  -2  179.38   14.90
   7  -7  -2  164.88   17.70
  -7   7  -2  173.08   15.70
   7  -7  -2  168.88   14.30
  -7  -7  -2  185.58   14.00
   7  -7  -2  173.28   15.40
  -7   7  -2  167.78   16.30
  -7   7  -2  184.08   16.20
  -7  -7  -2  191.58   15.10
   7  -7   2  188.68   14.40
  -7  -7   2  177.98   14.50
  -7  -7   2  183.78   14.50
  -7  -7   2  195.68   15.20
  -7   7   2  181.68   17.00
   7   7   2  185.58   15.90
   7  -7   2  182.28   17.40
  -7   7   2  146.89   14.90
   7  -7   2  178.08   14.10
   7  -8  -2  442.06   37.80
   7  -8  -2  420.86   34.40
  -8  -7  -2  445.66   33.30
   7  -8  -2  422.86   32.80
  -7   8  -2  464.95   36.30
   8   7  -2  438.46   34.40
  -7   8  -2  450.15   35.50
   7  -8  -2  436.06   33.30
  -8  -7  -2  470.35   34.60
  -8  -7   2  473.95   34.00
  -8  -7   2  436.36   33.70
   8   7   2  402.66   35.30
   7  -8   2  450.85   37.10
  -8  -7   2  494.65   34.90
   7  -8   2  437.26   33.30
   7  -8   2  449.46   33.20
  -8  -6  -2  466.65   37.20
   8   6  -2  495.55   37.90
  -6   8  -2  505.55   39.50
   6  -8  -2  471.45   36.00
  -8  -6  -2  480.35   36.60
  -6   8  -2  509.35   38.90
   6  -8  -2  507.75   37.60
  -8  -6  -2  530.65   38.00
   6  -8  -2  473.45   40.90
   6  -8  -2  488.75   36.50
   6  -8   2  486.55   36.50
  -8  -6   2  553.04   38.30
  -8  -6   2  475.05   37.10
   8   6   2  458.55   39.10
   6  -8   2  493.35   40.50
  -8  -6   2  493.45   37.20
   6  -8   2  496.05   36.40
   5  -8  -2  140.39   12.10
  -5   8  -2  173.78   15.50
  -5   8  -2  180.88   12.90
  -8  -5  -2  168.28   13.70
   5  -8  -2  150.78   16.60
  -8  -5  -2  152.68   12.90
   5  -8  -2  164.68   12.50
  -5   8  -2  163.08   15.20
   8   5  -2  170.58   14.30
   5  -8  -2  165.88   13.50
  -8  -5  -2  174.98   14.30
  -8  -5   2  139.99   12.40
   5  -8   2  154.58   12.50
  -8  -5   2  154.78   13.50
  -8  -5   2  184.58   14.60
   5  -8   2  165.78   12.70
  -8  -5   2  174.48   13.50
   5  -8   2  170.78   16.80
   8   5   2  119.49   14.80
  -8  -4  -2   41.70    3.90
   4  -8  -2   30.70    3.90
   8   4  -2   37.60    5.10
  -4   8  -2   43.30    6.80
  -4   8  -2   30.70    6.00
   4  -8  -2   31.90    3.20
  -8  -4  -2   30.60    4.30
  -8  -4  -2   34.60    2.90
  -4   8  -2   34.40    3.50
  -8  -4  -2   29.40    4.50
   4  -8  -2   28.90    6.60
  -8  -4   2   33.20    3.80
   4  -8   2   32.20    7.30
  -8  -4   2   22.40    4.20
  -8  -4   2   33.70    4.80
  -8  -4   2   29.60    4.20
   4  -8   2   29.00    3.30
   4  -8   2   27.60    4.00
   4  -8   2   34.70    3.40
   8   4   2   27.50    6.50
  -8  -4   2   30.20    4.00
  -3   8  -2   25.90    2.80
  -8  -3  -2   27.30    2.90
   3  -8  -2   36.90    3.50
   3  -8  -2   23.50    5.90
  -3   8  -2   32.80    5.60
   3  -8  -2   22.70    2.40
  -8  -3  -2   27.70    4.00
  -8  -3  -2   23.30    3.10
   8   3  -2   21.80    4.60
   8   3  -2   25.70    3.20
   3  -8  -2   23.80    2.00
  -8  -3  -2   24.80    4.60
   3  -8   2   27.70    2.80
  -8  -3   2   24.20    3.80
  -8  -3   2   23.70    3.60
  -8  -3   2   20.40    3.80
   3  -8   2   25.90    3.50
   3  -8   2   22.40    2.80
  -8  -3   2   28.90    3.70
   8   3   2   19.00    5.40
  -8  -3   2   25.00    4.80
  -8  -2  -2  657.93   47.60
  -8  -2  -2  630.34   47.00
   8   2  -2  611.34   47.70
  -2   8  -2  684.63   47.50
  -8  -2  -2  630.44   45.90
  -8  -2  -2  704.83   46.00
  -2   8  -2  690.03   45.50
   2  -8  -2  603.44   44.90
   2  -8  -2  554.44   48.40
   8   2  -2  619.64   46.10
  -8  -2   2  568.14   46.60
   2  -8   2  602.84   45.10
  -8  -2   2  595.64   46.50
   2  -8   2  631.74   46.20
  -8  -2   2  573.14   47.40
   2  -8   2  634.64   45.40
  -8  -2   2  598.24   46.00
   1  -8  -2   99.09   10.50
  -8  -1  -2   91.59    9.50
  -8  -1  -2  104.59    8.60
   8   1  -2   91.39    9.80
  -8  -1  -2  103.99    8.30
   8   1  -2   72.29    9.60
  -8  -1  -2   91.89    9.20
   1  -8  -2  113.99    7.70
   1  -8  -2   90.29    8.30
  -1   8  -2   95.59    9.00
   8   1  -2  108.09    8.80
   1  -8  -2  101.79    7.20
  -8  -1   2   95.49    8.80
   1  -8   2  102.59    7.50
   1  -8   2   93.19    7.60
  -8  -1   2   83.09    9.50
  -8  -1   2   75.69    8.60
  -8  -1   2   89.79    8.60
   1  -8   2   95.89    8.20
  -8  -1   2   84.69    8.90
   1  -8   2   89.49    8.40
  -8   0  -2 3603.64  255.97
  -8   0  -2 3936.51  254.97
   0  -8  -2 3284.67  254.67
   0  -8  -2 3626.14  256.97
  -8   0  -2 3683.43  255.37
   8   0  -2 3015.50  256.07
   8   0  -2 3414.56  256.77
   0   8  -2 3640.74  254.17
  -8   0  -2 3360.06  256.37
  -8   0  -2 3819.32  254.47
   8   0  -2 3479.35  255.37
   0  -8  -2 3896.81  253.57
  -8   0   2 3092.89  255.27
   0  -8   2 3638.54  254.57
   0  -8   2 3627.94  254.07
  -8   0   2 3059.29  255.57
   0  -8   2 3555.64  254.87
  -8   0   2 3532.15  255.17
  -8   0   2 3477.25  256.57
   0  -8   2 3950.80  253.87
  -8   0   2 3913.11  255.67
  -1  -8  -2   97.79    7.80
  -8   1  -2   91.39    9.30
  -1  -8  -2  107.49    8.40
   1   8  -2   98.39    7.90
  -8   1  -2  102.59    8.60
  -1  -8  -2  109.79   10.30
   8  -1  -2   83.19    9.70
  -8   1  -2   94.59    9.00
  -8   1  -2  106.69    8.70
   8  -1  -2   96.09    9.30
  -1  -8   2  100.59    8.50
  -1  -8   2  103.69    7.50
  -1  -8   2   97.29    8.20
  -8   1   2  104.59    9.10
  -8   1   2   80.79    9.50
  -8   1   2  103.29    9.20
  -1  -8   2   97.89    7.70
  -8   1   2   71.79    9.00
  -8   1   2   88.99    9.00
  -2  -8  -2  651.73   43.90
  -2  -8  -2  712.13   46.60
   8  -2  -2  491.65   46.20
   2   8  -2  645.84   44.20
  -8   2  -2  658.03   45.10
   8  -2  -2  592.44   45.70
  -8   2  -2  630.54   45.70
  -8   2  -2  667.33   45.00
   8  -2  -2  499.25   45.40
  -8   2  -2  592.84   45.90
  -2  -8  -2  621.14   44.50
  -8   2   2  495.55   45.60
  -8   2   2  563.54   45.30
  -2  -8   2  581.44   44.50
  -8   2   2  532.35   45.30
  -2  -8   2  624.64   43.60
  -2  -8   2  645.84   44.40
  -2  -8   2  658.93   44.00
  -8   3  -2   28.30    4.80
  -8   3  -2   22.40    4.90
  -8   3  -2   20.30    4.10
   3   8  -2   23.70    2.90
  -8   3  -2   25.70    4.30
   8  -3  -2   25.10    4.50
   8  -3  -2   23.00    4.30
  -3  -8  -2   25.40    2.50
  -8   3  -2   26.90    3.60
  -3  -8  -2   27.90    4.70
  -3  -8  -2   23.80    3.00
   8  -3  -2   24.70    5.30
  -8   3   2   17.30    4.50
  -3  -8   2   31.50    3.20
   3   8   2   25.10    2.90
  -8   3   2   25.10    4.70
  -3  -8   2   26.80    2.20
  -8   3   2   21.90    4.10
   8  -3   2   28.30    4.20
  -8   3   2   19.70    3.90
  -3  -8   2   26.30    2.70
  -3  -8   2   23.60    3.10
   8  -3   2   18.70    3.40
  -4  -8  -2   45.80    5.30
  -4  -8  -2   37.70    4.00
   8  -4  -2   31.20    5.40
   8  -4  -2   41.60    7.40
   8  -4  -2   35.20    4.70
  -8   4  -2   37.20    5.30
   4   8  -2   31.00    3.70
  -8   4  -2   34.60    5.60
  -8   4  -2   34.70    5.00
  -8   4  -2   30.60    5.30
  -4  -8  -2   33.70    3.20
  -8   4   2   28.90    5.50
   4   8   2   37.10    3.80
  -8   4   2   29.70    4.50
   8  -4   2   34.30    4.30
  -4  -8   2   37.50    3.90
   8  -4   2   28.70    3.90
  -8   4   2   39.20    5.50
  -8   4   2   34.80    5.50
  -4  -8   2   39.20    3.60
  -4  -8   2   32.90    3.90
  -5  -8  -2  175.48   13.70
   5   8  -2  166.28   13.40
  -8   5  -2  173.68   15.20
  -5  -8  -2  173.58   12.80
   8  -5  -2  161.88   13.80
   8  -5  -2  162.18   14.80
  -8   5  -2  186.98   14.90
   8  -5  -2  135.89   13.60
  -8   5  -2  168.98   14.90
   8  -5  -2  168.58   16.70
  -5  -8   2  183.08   13.20
  -8   5   2  140.49   15.10
  -8   5   2  189.08   16.20
   8  -5   2  164.28   13.60
   8  -5   2  160.98   13.70
  -8   5   2  152.08   14.70
  -5  -8   2  167.78   13.70
  -8   5   2  137.69   14.10
   5   8   2  189.28   13.80
  -5  -8   2  173.48   13.50
   8  -5   2  167.98   15.50
   8  -6  -2  478.75   37.20
  -6  -8  -2  502.15   36.70
   8  -6  -2  546.35   41.40
  -8   6  -2  520.75   39.40
   6   8  -2  490.95   37.40
  -6  -8  -2  544.05   37.80
  -8   6  -2  486.55   38.80
   8  -6  -2  459.85   38.60
   8  -6  -2  465.65   37.60
  -8   6  -2  529.15   38.80
   8  -6   2  492.75   39.80
  -8   6   2  447.96   38.70
   6   8   2  522.95   38.00
  -8   6   2  460.65   39.50
  -6  -8   2  526.75   37.80
   8  -6   2  533.25   37.40
   8  -6   2  476.45   37.40
  -6  -8   2  505.35   37.30
  -6  -8   2  505.85   37.10
   8  -7  -2  408.96   34.00
  -7  -8  -2  470.55   34.70
  -8   7  -2  472.35   35.70
   7   8  -2  456.25   34.40
  -8   7  -2  484.75   36.50
   8  -7  -2  448.26   38.00
   8  -7  -2  419.86   35.20
   8  -7  -2  432.46   33.60
  -8   7  -2  445.16   35.50
  -7  -8  -2  461.85   33.50
  -7  -8   2  452.25   33.90
  -7  -8   2  478.45   34.80
   8  -7   2  458.75   33.80
   8  -7   2  448.16   34.00
  -7  -8   2  445.56   34.10
  -8   7   2  450.05   36.70
   7   8   2  469.35   35.20
   8  -7   2  430.46   36.80
  -8  -8  -2 2378.56  171.88
   8   8  -2 2426.26  172.98
  -8  -8  -2 2516.55  173.18
  -8   8  -2 2457.95  174.08
   8  -8  -2 2215.28  172.08
  -8   8  -2 2492.55  174.18
   8  -8  -2 2220.18  176.48
  -8   8  -2 2410.06  174.78
   8  -8  -2 2186.78  173.38
   8  -8  -2 2151.68  171.48
  -8  -8   2 2521.95  173.38
   8   8   2 2329.97  173.88
  -8   8   2 2697.03  178.88
   8  -8   2 2573.34  171.98
   8  -8   2 2437.36  175.98
  -8  -8   2 2246.38  171.98
  -8  -8   2 2333.57  172.38
   8  -8   2 2479.55  172.18
  -9  -8  -2    7.00    2.00
   8  -9  -2    2.30    2.50
   9   8  -2    4.00    2.70
   8  -9  -2    5.20    4.60
  -8   9  -2    4.00    3.20
  -9  -8  -2    6.80    2.60
   8  -9  -2    3.90    1.60
  -8   9  -2    4.10    3.60
   8  -9  -2   13.60    2.70
   8  -9   2    3.90    3.80
  -9  -8   2    5.30    2.60
  -9  -8   2    2.50    1.60
   9   8   2    1.30    2.50
   8  -9   2    4.20    1.80
   8  -9   2    6.80    2.10
  -9  -8   2    2.00    1.90
   7  -9  -2   25.00    3.20
  -7   9  -2   29.50    6.10
  -9  -7  -2   21.30    3.50
   7  -9  -2   23.00    3.00
   9   7  -2   25.10    4.90
  -9  -7  -2   22.20    4.30
  -7   9  -2   31.70    6.40
   7  -9  -2   20.80    6.80
   7  -9  -2   17.90    4.10
  -9  -7   2   19.20    3.60
   7  -9   2   26.30    3.40
   7  -9   2   26.50    3.50
   9   7   2   17.90    5.10
   7  -9   2   16.60    5.70
  -9  -7   2   24.70    4.70
  -9  -7   2   28.10    4.50
   6  -9  -2  260.07   24.30
  -6   9  -2  256.27   22.50
  -9  -6  -2  253.27   20.80
  -6   9  -2  279.67   22.80
  -9  -6  -2  234.18   19.40
   6  -9  -2  244.28   20.10
   6  -9  -2  222.68   18.50
   9   6  -2  269.67   21.40
  -9  -6  -2  272.17   20.40
   6  -9  -2  261.87   19.10
   9   6   2  195.98   21.60
  -9  -6   2  268.47   21.20
  -9  -6   2  228.58   19.90
   6  -9   2  250.77   19.00
   6  -9   2  249.18   19.20
   6  -9   2  259.97   23.70
  -9  -6   2  265.07   20.20
   5  -9  -2  263.07   19.70
   5  -9  -2  236.48   19.20
  -5   9  -2  267.37   20.10
  -9  -5  -2  284.97   21.30
   5  -9  -2  292.87   20.90
  -9  -5  -2  263.97   20.30
   9   5  -2  282.47   22.30
  -5   9  -2  283.97   23.30
  -9  -5  -2  251.97   21.50
   5  -9  -2  261.97   24.80
   5  -9   2  291.17   25.00
  -9  -5   2  243.58   20.90
   5  -9   2  252.97   19.70
   5  -9   2  268.47   19.90
  -9  -5   2  272.17   21.00
  -9  -5   2  219.78   20.70
  -9  -5   2  236.88   19.50
  -9  -5   2  290.07   22.20
  -9  -4  -2 2255.57  157.28
  -9  -4  -2 2324.07  158.18
   9   4  -2 2203.48  160.28
  -9  -4  -2 2231.08  159.18
  -4   9  -2 2307.27  157.78
  -9  -4  -2 2231.58  159.78
   4  -9  -2 2189.88  156.88
   4  -9  -2 2422.66  158.38
   4  -9  -2 2084.69  157.38
  -4   9  -2 2532.65  161.38
   4  -9  -2 1946.81  161.88
  -9  -4   2 2265.27  158.88
   4  -9   2 2177.78  157.68
   4  -9   2 2055.19  158.78
   4  -9   2 2052.79  162.08
  -9  -4   2 2090.89  158.98
  -9  -4   2 2303.67  160.08
   4  -9   2 1956.60  157.38
  -9  -4   2 2108.39  157.88
  -9  -3  -2  106.09   10.40
   3  -9  -2  118.99    8.90
   9   3  -2  102.19   10.90
  -9  -3  -2  110.69    8.60
  -9  -3  -2  107.09    8.80
   3  -9  -2   99.89    8.00
   9   3  -2  102.09    9.20
  -9  -3  -2  101.89    9.80
  -3   9  -2  116.29    8.50
   3  -9  -2   80.99   11.30
  -3   9  -2  133.59   12.80
  -9  -3   2   89.09    9.50
   3  -9   2   96.29    8.20
   3  -9   2   91.99   11.80
   3  -9   2   99.09    9.30
   9   3   2   73.59   11.10
  -9  -3   2  107.39    9.60
  -9  -3   2   95.09   10.20
   3  -9   2   95.59    8.30
  -9  -3   2  100.89    9.00
   2  -9  -2   77.39    6.30
  -9  -2  -2   85.69    9.00
   9   2  -2   71.19    9.00
   9   2  -2   89.59    7.90
  -2   9  -2   81.49    6.80
  -9  -2  -2   85.89    7.40
  -9  -2  -2   78.39    7.20
  -9  -2  -2   80.59    8.30
   2  -9  -2   75.69   10.00
  -9  -2   2   70.49    7.60
   2  -9   2   88.99    6.60
  -9  -2   2  101.39    8.80
  -9  -2   2   70.59    7.70
  -9  -2   2   81.29    9.00
   2  -9   2   76.89    6.70
   9   1  -2   43.00    6.70
  -9  -1  -2   53.49    5.40
   1  -9  -2   46.10    5.10
  -9  -1  -2   46.80    4.90
   1  -9  -2   56.19    8.80
   9   1  -2   56.39    5.90
   1  -9  -2   47.20    3.90
  -9  -1  -2   50.59    6.40
  -9  -1  -2   49.99    6.10
  -1   9  -2   50.79    4.50
   1  -9   2   50.19    4.40
  -9  -1   2   44.50    5.70
   1  -9   2   52.19    4.30
   1  -9   2   45.30    5.20
   1  -9   2   46.20    5.00
  -9  -1   2   54.89    5.80
  -9  -1   2   48.60    6.00
  -9  -1   2   46.60    5.70
  -9  -1   2   44.60    6.30
   9   0  -2    3.70    2.70
  -9   0  -2    1.30    1.20
   0  -9  -2    1.00    2.40
   0  -9  -2    3.90    1.50
  -9   0  -2    2.80    2.30
   9   0  -2    6.20    3.20
   0  -9  -2    1.10    0.90
  -9   0  -2    1.60    1.50
  -9   0  -2    0.90    1.20
   9   0  -2   -0.50    1.50
  -9   0  -2    1.00    1.70
  -9   0   2    5.50    2.10
   0  -9   2    0.90    1.00
  -9   0   2    0.60    1.90
  -9   0   2   -0.80    1.30
  -9   0   2    3.90    2.40
   0  -9   2    4.70    1.10
  -9   0   2    1.60    1.70
   0  -9   2    5.40    1.80
   0  -9   2    5.70    1.20
  -9   1  -2   46.50    5.60
  -1  -9  -2   48.90    4.40
  -1  -9  -2   48.00    6.60
   9  -1  -2   44.90    5.90
  -9   1  -2   42.30    6.30
  -9   1  -2   53.29    5.20
  -1  -9  -2   47.50    4.90
   1   9  -2   45.70    4.40
   9  -1  -2   41.90    7.00
   9  -1  -2   44.80    7.80
  -9   1  -2   45.30    6.00
  -9   1  -2   52.19    5.30
  -1  -9   2   54.49    4.90
  -1  -9   2   53.29    4.00
  -9   1   2   42.50    5.90
  -9   1   2   40.10    5.80
  -1  -9   2   47.70    4.20
  -1  -9   2   47.50    5.10
  -9   1   2   37.20    5.40
  -9   1   2   40.20    6.10
  -9   2  -2   57.09    8.10
  -9   2  -2   78.59    7.90
  -9   2  -2   74.49    8.10
   9  -2  -2   63.19    8.80
   9  -2  -2   62.49    7.80
  -2  -9  -2   94.19    9.00
  -2  -9  -2   72.19    6.10
   9  -2  -2   64.39    8.10
  -9   2  -2   81.99    7.50
  -2  -9  -2   88.49    7.00
  -9   2  -2   82.69    7.20
   2   9  -2   83.49    6.40
  -2  -9   2   82.19    6.80
  -9   2   2   61.89    7.50
  -9   2   2   60.59    7.90
  -9   2   2   69.19    7.90
  -9   2   2   59.79    8.20
  -2  -9   2   78.49    7.00
  -2  -9   2   69.99    6.10
  -9   3  -2  107.19    9.10
   9  -3  -2   96.09    9.80
  -3  -9  -2  105.09    7.90
  -3  -9  -2  109.89    8.80
   3   9  -2  102.19    8.20
   9  -3  -2   72.99   10.30
  -9   3  -2  114.99    9.60
  -3  -9  -2  125.49   10.70
   9  -3  -2   87.79    9.80
  -9   3  -2  114.09   10.10
  -9   3  -2  106.19   10.20
  -9   3  -2   85.49   10.40
  -9   3   2   78.59   10.10
  -3  -9   2  111.59    8.10
   9  -3   2   91.39    9.60
  -3  -9   2  101.19    8.50
  -9   3   2  104.49   10.00
   9  -3   2   77.99    8.60
  -3  -9   2  100.89    8.70
  -9   3   2   79.39    9.30
  -9   3   2   82.79    9.90
   4   9  -2 2272.67  154.48
  -4  -9  -2 2219.08  153.98
  -9   4  -2 2388.66  156.68
   9  -4  -2 2042.70  156.38
  -4  -9  -2 2259.87  154.88
  -9   4  -2 2087.59  157.58
  -9   4  -2 2238.28  156.58
  -9   4  -2 2419.26  155.88
   9  -4  -2 2009.80  155.48
  -4  -9   2 2241.98  154.68
   9  -4   2 1959.20  154.98
   9  -4   2 2232.78  155.28
  -9   4   2 1842.92  155.78
  -4  -9   2 2355.26  154.28
  -9   4   2 2163.88  156.18
  -9   4   2 1814.62  156.98
  -9   4   2 1936.91  156.58
  -4  -9   2 2163.18  154.88
   5   9  -2  277.47   20.80
  -9   5  -2  275.27   22.50
  -5  -9  -2  282.67   21.10
   9  -5  -2  292.97   21.70
  -9   5  -2  270.97   23.60
  -9   5  -2  286.67   22.80
   9  -5  -2  251.67   22.50
   9  -5  -2  298.87   24.70
  -9   5  -2  282.27   22.20
  -5  -9  -2  275.87   20.10
  -5  -9   2  275.67   21.20
  -9   5   2  216.38   21.70
  -5  -9   2  279.77   20.90
  -9   5   2  219.98   22.40
  -5  -9   2  287.47   20.50
  -9   5   2  251.07   23.50
   9  -5   2  273.77   21.20
  -9   5   2  254.27   22.40
   9  -5   2  247.58   21.10
  -9   6  -2  274.77   23.10
   6   9  -2  257.37   20.10
  -9   6  -2  283.77   21.70
   9  -6  -2  252.77   20.30
   9  -6  -2  217.18   20.30
  -6  -9  -2  263.27   19.40
   9  -6  -2  264.07   23.80
  -6  -9  -2  264.17   20.50
   9  -6  -2  242.38   21.70
  -9   6  -2  253.37   21.90
  -9   6  -2  258.57   21.70
   6   9   2  274.07   20.50
  -6  -9   2  253.37   20.40
   9  -6   2  244.28   20.20
  -9   6   2  260.27   23.10
  -6  -9   2  277.97   19.80
  -9   6   2  253.17   22.40
  -9   6   2  213.98   21.40
  -6  -9   2  260.97   20.10
   9  -6   2  255.17   20.20
  -9   7  -2   28.60    5.60
  -9   7  -2   26.90    5.70
  -7  -9  -2   29.40    3.30
   9  -7  -2   28.20    4.00
   9  -7  -2   20.90    3.90
  -9   7  -2   26.50    5.30
   7   9  -2   21.60    4.00
   9  -7  -2   28.80    7.50
   9  -7  -2   22.10    5.10
  -7  -9  -2   24.70    4.10
   7   9   2   32.50    5.10
  -9   7   2   18.50    4.60
   9  -7   2   28.00    4.20
  -7  -9   2   25.20    4.10
  -7  -9   2   26.70    4.10
   9  -7   2   26.70    4.00
  -9   7   2   25.00    5.60
  -9   7   2   23.40    5.80
  -7  -9   2   25.60    3.40
  -8  -9  -2    3.10    2.10
   9  -8  -2    1.80    1.60
  -9   8  -2    3.20    2.60
   9  -8  -2   -0.10    3.10
  -9   8  -2    0.70    2.60
   8   9  -2    2.20    2.00
  -9   8  -2    3.90    3.50
  -8  -9  -2    1.40    1.30
   9  -8  -2    2.80    2.80
   9  -8  -2    1.10    1.50
  -8  -9   2    4.00    1.60
   8   9   2    2.60    2.50
  -8  -9   2    4.50    2.30
   9  -8   2    3.60    3.60
   9  -8   2    4.40    1.90
  -9   8   2    4.80    3.30
  -8  -9   2    2.50    1.90
  -9   8   2    1.70    2.20
   9  -8   2    4.40    2.00
   9  -9  -2  783.82   66.79
   9  -9  -2  787.62   61.49
  -9  -9  -2  863.91   63.39
  -9   9  -2  920.91   65.49
   9   9  -2  796.32   63.19
   9  -9  -2  821.92   62.19
  -9   9  -2  938.91   64.79
   9  -9  -2  770.02   63.69
  -9  -9  -2  803.32   61.99
   9   9   2  792.02   64.09
   9  -9   2  889.81   61.99
  -9  -9   2  870.21   63.69
   9  -9   2  856.81   65.99
   9  -9   2  920.11   62.39
  -9  -9   2  865.21   62.79
  -9  10  -2  217.88   19.40
   9 -10  -2  182.48   15.10
  10   9  -2  188.38   17.50
   9 -10  -2  192.08   20.80
 -10  -9  -2  197.18   15.90
  -9  10  -2  229.68   19.30
   9 -10  -2  211.88   15.90
   9 -10  -2  175.78   17.20
 -10  -9  -2  183.58   17.00
   9 -10   2  198.48   15.90
  10   9   2  157.48   17.70
   9 -10   2  208.08   20.10
 -10  -9   2  195.68   17.50
   9 -10   2  196.18   15.70
 -10  -9   2  204.08   16.80
 -10  -8  -2  262.57   20.80
  10   8  -2  252.27   22.50
   8 -10  -2  269.97   26.10
  -8  10  -2  289.47   24.40
  -8  10  -2  328.37   25.20
 -10  -8  -2  248.78   22.00
   8 -10  -2  251.87   19.90
   8 -10  -2  276.07   20.60
   8 -10  -2  249.88   21.90
   8 -10   2  278.27   20.70
 -10  -8   2  286.57   21.80
 -10  -8   2  220.58   20.50
   8 -10   2  278.27   20.50
  10   8   2  204.28   22.80
   8 -10   2  282.17   25.60
 -10  -8   2  293.87   22.70
   7 -10  -2  331.87   26.40
  10   7  -2  345.37   29.30
  -7  10  -2  392.96   31.10
 -10  -7  -2  340.57   28.60
 -10  -7  -2  360.36   27.40
   7 -10  -2  353.26   27.00
   7 -10  -2  349.87   28.20
   7 -10  -2  382.76   33.10
   7 -10   2  372.26   27.00
 -10  -7   2  381.76   28.40
   7 -10   2  362.26   32.10
 -10  -7   2  397.86   29.40
   7 -10   2  381.46   27.30
 -10  -7   2  301.17   27.50
 -10  -6  -2  188.98   14.60
   6 -10  -2  164.48   13.30
  10   6  -2  169.08   16.50
   6 -10  -2  183.58   14.00
   6 -10  -2  159.98   19.00
 -10  -6  -2  153.48   15.50
 -10  -6  -2  197.48   15.50
  -6  10  -2  217.88   18.40
   6 -10  -2  198.58   15.30
   6 -10   2  176.78   14.00
   6 -10   2  206.88   19.60
  10   6   2  129.79   16.90
 -10  -6   2  179.88   16.10
 -10  -6   2  154.68   14.90
 -10  -6   2  202.58   15.60
   6 -10   2  189.88   14.30
 -10  -5  -2  176.88   13.70
   5 -10  -2  152.18   11.80
   5 -10  -2  153.98   12.70
  10   5  -2  145.39   14.60
   5 -10  -2  147.19   11.10
 -10  -5  -2  150.68   13.90
   5 -10  -2  144.79   16.90
 -10  -5  -2  159.88   12.50
   5 -10   2  158.48   12.10
  10   5   2  115.69   15.30
 -10  -5   2  152.38   11.30
 -10  -5   2  166.18   13.50
   5 -10   2  136.89   11.80
 -10  -5   2  155.28   14.20
 -10  -5   2  136.29   13.10
 -10  -5   2  139.99   13.30
   5 -10   2  149.49   16.70
 -10  -4  -2    2.30    1.40
   4 -10  -2    1.20    1.40
  10   4  -2    1.90    2.60
 -10  -4  -2    4.30    2.60
   4 -10  -2    0.30    3.40
 -10  -4  -2    2.60    1.00
 -10  -4  -2    4.60    2.20
   4 -10  -2    1.40    0.90
 -10  -4   2    1.30    1.50
   4 -10   2    6.40    2.40
 -10  -4   2    4.50    2.20
   4 -10   2    1.60    1.30
 -10  -4   2    3.30    2.40
 -10  -4   2    0.30    1.40
  10   4   2    7.00    4.00
 -10  -4   2    1.60    1.70
   4 -10   2    3.60    1.40
   4 -10   2    1.30    3.00
 -10  -3  -2  190.58   14.00
 -10  -3  -2  189.38   14.30
   3 -10  -2  151.28   17.50
 -10  -3  -2  198.58   16.30
  10   3  -2  177.28   16.90
   3 -10  -2  177.88   13.30
  -3  10  -2  196.68   13.90
 -10  -3  -2  184.58   15.50
   3 -10   2  150.68   17.60
   3 -10   2  167.28   13.70
  10   3   2  126.89   17.10
   3 -10   2  181.68   14.90
 -10  -3   2  152.98   15.10
 -10  -3   2  178.88   15.10
 -10  -3   2  172.28   16.10
 -10  -3   2  169.98   14.30
   3 -10   2  173.88   13.40
 -10  -2  -2  191.58   15.90
   2 -10  -2  176.68   12.60
 -10  -2  -2  171.38   13.80
  10   2  -2  160.48   14.30
  -2  10  -2  196.98   13.30
  10   2  -2  157.18   16.30
 -10  -2  -2  157.38   13.50
 -10  -2  -2  160.08   14.80
   2 -10  -2  160.58   17.00
   2 -10   2  133.39   16.40
 -10  -2   2  137.39   14.50
 -10  -2   2  157.78   14.30
 -10  -2   2  192.58   16.00
   2 -10   2  176.28   12.80
   2 -10   2  179.58   14.20
 -10  -2   2  154.28   14.00
   2 -10   2  164.98   13.10
 -10  -1  -2  261.67   22.50
 -10  -1  -2  299.27   21.40
 -10  -1  -2  305.67   23.60
   1 -10  -2  278.87   21.30
  10   1  -2  253.97   22.10
   1 -10  -2  283.67   24.50
  -1  10  -2  307.47   20.80
 -10  -1  -2  291.47   21.70
   1 -10  -2  282.47   19.90
  10   1  -2  235.88   23.80
 -10  -1   2  215.98   22.10
   1 -10   2  278.37   20.60
   1 -10   2  236.98   21.60
 -10  -1   2  263.77   21.80
 -10  -1   2  287.67   22.10
   1 -10   2  287.47   20.20
 -10  -1   2  278.47   23.40
   1 -10   2  271.17   21.50
  10   0  -2   26.70    5.20
 -10   0  -2   28.60    5.20
   0 -10  -2   35.50    3.70
 -10   0  -2   39.80    4.20
   0 -10  -2   29.40    4.00
  10   0  -2   30.30    6.70
   0  10  -2   42.40    3.60
 -10   0  -2   34.30    5.50
   0 -10  -2   32.90    6.70
 -10   0  -2   39.60    4.70
 -10   0   2   22.00    4.80
 -10   0   2   25.60    4.80
   0 -10   2   29.20    4.10
   0 -10   2   33.30    3.30
 -10   0   2   34.30    5.40
 -10   0   2   28.00    5.60
   0 -10   2   29.80    3.80
 -10   0   2   21.10    4.60
  10  -1  -2  267.67   22.20
 -10   1  -2  284.37   20.70
 -10   1  -2  262.27   23.10
 -10   1  -2  288.37   21.70
  10  -1  -2  254.17   23.80
  -1 -10  -2  262.37   20.90
 -10   1  -2  276.97   22.30
   1  10  -2  284.37   20.20
  10  -1  -2  245.08   22.40
  -1 -10  -2  291.07   23.40
 -10   1  -2  284.47   20.90
  -1 -10  -2  279.27   20.20
  -1 -10   2  245.38   20.90
 -10   1   2  239.48   22.10
 -10   1   2  243.68   22.70
 -10   1   2  212.88   21.60
 -10   1   2  273.17   21.80
  -1 -10   2  292.87   20.00
  -1 -10   2  260.87   20.60
  10  -2  -2  139.29   14.60
  10  -2  -2  149.59   14.80
 -10   2  -2  174.08   14.50
  -2 -10  -2  163.58   13.40
  -2 -10  -2  184.58   15.80
  10  -2  -2  153.28   16.20
  -2 -10  -2  169.18   12.70
 -10   2  -2  187.38   13.80
 -10   2  -2  160.08   14.70
 -10   2  -2  176.88   13.80
 -10   2  -2  136.19   15.20
   2  10  -2  186.78   12.90
  -2 -10   2  163.98   13.60
 -10   2   2  161.38   14.60
 -10   2   2  136.39   14.60
 -10   2   2  138.69   15.20
  -2 -10   2  170.28   13.20
 -10   2   2  133.19   14.20
  -2 -10   2  175.88   12.60
  -3 -10  -2  178.48   14.00
  10  -3  -2  156.98   15.50
 -10   3  -2  188.68   15.30
 -10   3  -2  182.08   15.60
  10  -3  -2  160.38   15.20
  -3 -10  -2  172.48   13.10
 -10   3  -2  194.28   14.80
  10  -3  -2  150.58   16.50
 -10   3  -2  135.29   15.80
  -3 -10  -2  195.68   16.00
   3  10  -2  188.88   13.50
  -3 -10   2  167.48   14.00
 -10   3   2  149.88   15.00
 -10   3   2  157.78   15.60
  10  -3   2  134.59   13.90
 -10   3   2  176.08   15.50
  -3 -10   2  189.98   13.20
  -3 -10   2  188.38   13.80
 -10   3   2  138.29   15.70
  10  -4  -2    2.80    2.40
   4  10  -2    2.10    1.30
 -10   4  -2    1.10    2.20
 -10   4  -2    1.90    2.30
  10  -4  -2    1.20    2.80
 -10   4  -2    1.40    2.00
  -4 -10  -2    0.80    0.80
 -10   4  -2    1.00    2.40
  -4 -10  -2    1.10    1.30
  10  -4  -2   -1.50    1.70
 -10   4   2    2.20    2.70
  10  -4   2    3.00    2.10
 -10   4   2    3.20    2.50
 -10   4   2   -0.70    1.20
  -4 -10   2    3.00    1.20
 -10   4   2    2.00    2.50
  -4 -10   2    1.40    1.40
  -4 -10   2    1.30    1.40
  10  -4   2    2.10    1.50
  -5 -10  -2  165.78   13.20
 -10   5  -2  157.38   14.60
  10  -5  -2  144.39   14.60
  10  -5  -2  155.78   13.80
 -10   5  -2  144.29   15.40
  -5 -10  -2  160.28   12.10
 -10   5  -2  163.18   14.60
 -10   5  -2  181.38   14.50
  10  -5  -2  143.59   13.50
   5  10  -2  153.48   12.60
 -10   5   2  148.29   14.90
  10  -5   2  125.49   12.90
 -10   5   2  149.79   14.60
 -10   5   2  131.59   15.10
  -5 -10   2  158.18   13.20
  10  -5   2  153.78   13.40
  -5 -10   2  165.98   12.90
  -5 -10   2  164.78   12.30
  -6 -10  -2  190.58   15.20
  10  -6  -2  160.08   16.40
 -10   6  -2  210.58   16.50
  -6 -10  -2  184.68   14.00
 -10   6  -2  186.38   16.50
   6  10  -2  174.78   14.60
  10  -6  -2  168.38   15.10
  10  -6  -2  164.68   15.20
 -10   6  -2  173.88   17.50
 -10   6   2  137.99   15.60
  -6 -10   2  192.68   14.20
  10  -6   2  183.98   15.10
  -6 -10   2  193.28   14.80
 -10   6   2  172.18   16.70
 -10   6   2  159.28   17.40
 -10   6   2  194.78   17.40
  -6 -10   2  182.18   15.10
  10  -6   2  179.48   15.10
 -10   7  -2  380.16   30.70
  10  -7  -2  345.77   29.50
 -10   7  -2  398.56   31.40
  10  -7  -2  331.17   30.90
 -10   7  -2  381.36   31.00
  -7 -10  -2  400.56   29.90
   7  10  -2  395.86   29.50
  -7 -10  -2  430.66   28.70
 -10   7  -2  381.66   32.40
  10  -7  -2  369.86   29.20
  10  -7   2  400.06   29.30
 -10   7   2  347.97   31.00
 -10   7   2  345.87   32.20
 -10   7   2  374.16   31.90
  -7 -10   2  377.06   29.80
  10  -7   2  404.46   29.60
  -7 -10   2  372.86   29.20
   8  10  -2  261.27   22.50
 -10   8  -2  294.97   24.50
  -8 -10  -2  273.67   21.50
  10  -8  -2  226.48   23.50
 -10   8  -2  316.77   24.40
 -10   8  -2  298.57   24.20
  10  -8  -2  269.47   21.80
  10  -8  -2  273.87   22.50
  10  -8  -2  261.07   26.00
  -8 -10  -2  303.37   23.10
  10  -8   2  285.17   22.10
 -10   8   2  281.77   25.50
  10  -8   2  295.57   22.40
  -8 -10   2  289.07   23.10
  -8 -10   2  271.87   22.30
 -10   8   2  277.97   25.00
 -10   9  -2  222.28   19.00
  10  -9  -2  161.28   17.40
  10  -9  -2  186.58   15.50
  10  -9  -2  192.48   16.20
   9  10  -2  187.28   16.90
 -10   9  -2  213.48   18.60
  -9 -10  -2  204.08   17.10
  10  -9  -2  199.88   20.80
  -9 -10  -2  197.48   15.70
  10  -9   2  218.68   16.30
 -10   9   2  159.58   20.20
 -10   9   2  191.28   19.40
   9  10   2  181.18   18.00
  10  -9   2  203.68   16.00
  -9 -10   2  172.38   16.10
  -9 -10   2  204.98   17.40
 -10 -10  -2  217.38   17.90
  10 -10  -2  177.08   19.40
  10 -10  -2  218.68   17.50
  10  10  -2  208.18   19.50
 -10  10  -2  247.38   21.20
  10 -10  -2  217.08   23.00
 -10 -10  -2  218.78   19.30
  10 -10  -2  231.78   18.30
 -10  10  -2  252.77   21.50
  10  10   2  190.28   19.90
 -10 -10   2  217.18   18.80
 -10 -10   2  242.28   20.00
  10 -10   2  242.18   18.20
  10 -10   2  256.97   18.50
  10 -11  -2   20.00    7.80
 -11 -10  -2   19.00    3.60
  10 -11  -2   29.00    4.20
  10 -11  -2   25.90    5.80
 -10  11  -2   21.60    6.70
  10 -11  -2   21.60    3.20
 -11 -10  -2   21.40    5.00
  11  10  -2   23.20    5.70
 -10  11  -2   25.00    6.60
  11  10   2   19.30    6.00
  10 -11   2   28.50    4.40
  10 -11   2   28.20    4.20
 -11 -10   2   25.10    4.90
  10 -11   2   19.90    5.70
 -11 -10   2   26.10    5.60
  -9  11  -2  153.48   15.10
   9 -11  -2  112.99   10.00
  11   9  -2  131.69   13.40
 -11  -9  -2  113.59   12.20
   9 -11  -2  130.59   16.40
   9 -11  -2  145.79   11.00
   9 -11  -2  110.39   12.10
 -11  -9  -2  126.09   11.00
  11   9   2   92.49   13.00
   9 -11   2  135.79   11.10
 -11  -9   2  124.39   12.00
 -11  -9   2  134.69   13.00
   9 -11   2  134.29   15.60
   9 -11   2  130.79   10.90
   8 -11  -2   -0.10    1.20
   8 -11  -2    1.30    1.30
 -11  -8  -2    0.70    1.50
  11   8  -2    0.30    2.80
 -11  -8  -2    1.10    2.30
   8 -11  -2    2.30    2.40
   8 -11  -2   -0.20    3.80
   8 -11   2    2.30    1.90
 -11  -8   2    1.20    2.10
   8 -11   2   -1.00    3.40
 -11  -8   2    9.30    3.80
  11   8   2   -0.20    2.80
   8 -11   2    0.40    1.50
   7 -11  -2   77.79    8.40
 -11  -7  -2   86.09    9.30
   7 -11  -2   83.69    7.30
 -11  -7  -2   80.99    7.80
   7 -11  -2   73.79    6.60
  11   7  -2   82.19   10.20
   7 -11  -2   87.49   14.80
 -11  -7   2   78.19    8.10
 -11  -7   2   83.39    9.40
 -11  -7   2   90.99    9.00
   7 -11   2   98.49    7.80
   7 -11   2   82.39    7.50
  11   7   2   59.79   10.90
   7 -11   2   96.39   15.30
   6 -11  -2   93.89    7.40
 -11  -6  -2  109.09   10.00
  11   6  -2   82.29   10.80
   6 -11  -2  108.79   16.80
   6 -11  -2   97.09    9.30
 -11  -6  -2   99.69    8.90
   6 -11  -2  102.99    8.30
 -11  -6  -2  104.89   10.60
   6 -11   2   93.09   14.90
 -11  -6   2  103.29   10.00
 -11  -6   2   98.99   10.60
  11   6   2   78.59   11.90
   6 -11   2  103.69    8.50
 -11  -6   2   94.59    9.50
   6 -11   2   99.99    8.60
 -11  -5  -2 2499.85  161.78
 -11  -5  -2 2374.06  160.38
   5 -11  -2 2046.40  165.68
   5 -11  -2 2237.18  159.48
   5 -11  -2 2164.18  160.68
  11   5  -2 2096.09  163.28
 -11  -5   2 1914.01  160.88
 -11  -5   2 2173.48  161.28
   5 -11   2 2359.46  159.98
   5 -11   2 2236.68  159.58
   5 -11   2 2267.17  165.78
 -11  -5   2 2064.59  161.48
 -11  -5   2 2444.26  162.78
 -11  -4  -2  403.36   30.50
 -11  -4  -2  446.86   31.60
 -11  -4  -2  411.36   29.20
   4 -11  -2  389.06   28.30
   4 -11  -2  354.26   33.80
  11   4  -2  363.36   32.30
 -11  -4   2  391.06   30.20
 -11  -4   2  332.87   30.20
  11   4   2  327.37   33.10
 -11  -4   2  328.37   29.90
 -11  -4   2  444.96   31.80
   4 -11   2  381.46   30.10
   4 -11   2  388.16   28.70
   4 -11   2  381.76   28.30
   4 -11   2  365.26   33.60
 -11  -4   2  385.56   28.50
 -11  -3  -2  988.00   65.69
  11   3  -2  857.31   68.99
   3 -11  -2  926.71   64.49
   3 -11  -2  807.12   69.79
 -11  -3  -2  940.91   66.99
 -11  -3  -2  983.40   65.19
  11   3   2  721.63   69.49
   3 -11   2  770.02   69.49
 -11  -3   2  890.41   66.49
   3 -11   2  914.91   64.99
 -11  -3   2  904.61   65.49
 -11  -3   2  758.72   66.59
 -11  -3   2 1059.29   68.39
   3 -11   2  897.21   64.59
 -11  -2  -2   55.19    6.60
  11   2  -2   48.80    6.20
 -11  -2  -2   45.50    5.10
   2 -11  -2   48.10    4.00
  11   2  -2   42.20    8.70
   2 -11  -2   40.00    5.10
 -11  -2  -2   53.99    7.30
 -11  -2  -2   52.49    5.30
   2 -11  -2   40.30    8.40
 -11  -2   2   46.20    5.90
 -11  -2   2   44.60    7.00
 -11  -2   2   40.50    6.10
   2 -11   2   47.30    4.30
   2 -11   2   39.10    9.00
 -11  -2   2   52.99    6.00
   2 -11   2   50.09    5.70
   2 -11   2   48.00    4.70
  11   2   2   39.60    9.20
 -11  -2   2   54.59    7.20
 -11  -1  -2  399.56   28.50
  11   1  -2  325.07   26.80
 -11  -1  -2  347.17   25.50
  11   1  -2  283.87   28.60
 -11  -1  -2  349.17   27.20
   1 -11  -2  334.27   29.00
   1 -11  -2  333.67   25.50
 -11  -1  -2  356.16   26.00
 -11  -1   2  288.57   26.70
 -11  -1   2  377.16   28.30
   1 -11   2  288.67   25.90
   1 -11   2  342.37   24.80
 -11  -1   2  342.77   26.30
 -11  -1   2  301.87   26.00
   1 -11   2  354.16   24.20
   1 -11   2  265.57   28.30
  11   0  -2    1.20    2.20
 -11   0  -2   -1.10    1.40
   0 -11  -2    0.10    1.30
 -11   0  -2    1.00    1.30
   0 -11  -2    1.90    3.10
 -11   0  -2    0.90    1.50
 -11   0  -2    1.50    2.60
  11   0  -2    0.90    2.80
   0 -11  -2    1.50    1.20
   0 -11   2    4.70    3.70
 -11   0   2    1.70    2.10
 -11   0   2    1.30    2.20
   0 -11   2    1.70    1.40
 -11   0   2    2.90    2.30
   0 -11   2    1.50    1.10
   0 -11   2    0.10    1.20
 -11   0   2   -0.60    2.20
 -11   1  -2  327.17   28.30
  11  -1  -2  333.17   28.40
  -1 -11  -2  356.56   25.30
 -11   1  -2  359.06   25.90
 -11   1  -2  339.87   27.40
  11  -1  -2  300.77   27.20
 -11   1  -2  365.86   25.60
 -11   1  -2  336.17   26.50
   1  11  -2  354.26   25.10
  -1 -11  -2  311.17   25.90
  -1 -11  -2  349.77   28.50
  11  -1  -2  276.77   28.60
 -11   1   2  309.57   26.70
 -11   1   2  284.17   27.10
 -11   1   2  327.07   28.20
  -1 -11   2  361.86   24.90
  -1 -11   2  364.46   25.90
  -1 -11   2  309.97   28.40
   2  11  -2   47.60    4.70
 -11   2  -2   49.40    6.10
 -11   2  -2   42.80    8.20
 -11   2  -2   49.50    5.80
  -2 -11  -2   43.10    5.30
 -11   2  -2   52.59    5.50
  11  -2  -2   43.90    7.60
  11  -2  -2   44.80    8.90
  11  -2  -2   49.60    7.30
 -11   2  -2   54.59    6.90
  -2 -11  -2   43.10    4.50
  -2 -11  -2   56.39    8.60
 -11   2   2   49.70    6.90
  -2 -11   2   52.59    4.50
  -2 -11   2   51.29    8.40
 -11   2   2   37.40    6.70
 -11   2   2   42.20    7.20
 -11   2   2   43.60    7.20
  -2 -11   2   47.50    5.40
  -2 -11   2   42.80    5.00
   3  11  -2  941.11   64.99
  -3 -11  -2  887.01   65.69
 -11   3  -2  747.43   67.99
  -3 -11  -2 1028.90   67.99
 -11   3  -2 1028.20   66.19
 -11   3  -2  914.51   66.79
  -3 -11  -2  937.01   64.69
  11  -3  -2  856.91   66.89
  11  -3  -2  808.72   68.89
 -11   3  -2  949.31   67.49
  11  -3  -2  767.42   67.19
  -3 -11   2  915.51   65.39
  -3 -11   2  887.91   67.89
  -3 -11   2  864.91   65.79
 -11   3   2  747.33   67.89
 -11   3   2  807.52   67.29
 -11   3   2  905.11   66.99
  -3 -11   2 1009.80   64.69
 -11   4  -2  424.66   31.70
  11  -4  -2  327.67   31.80
 -11   4  -2  411.96   32.00
   4  11  -2  402.06   29.70
 -11   4  -2  443.96   31.10
  11  -4  -2  385.26   33.60
  -4 -11  -2  382.86   30.30
  11  -4  -2  378.96   31.30
  -4 -11  -2  412.46   29.30
  -4 -11   2  435.36   32.60
 -11   4   2  391.06   31.80
 -11   4   2  373.06   32.10
  -4 -11   2  421.86   29.30
  -4 -11   2  404.16   30.10
  -4 -11   2  351.86   30.20
  11  -4   2  360.66   30.40
  11  -5  -2 1939.11  162.08
  11  -5  -2 2160.98  163.58
  11  -5  -2 2032.00  160.88
 -11   5  -2 2518.55  161.38
 -11   5  -2 2399.16  162.38
  -5 -11  -2 2226.18  159.18
   5  11  -2 2326.47  159.88
  -5 -11  -2 2268.87  160.58
  11  -5  -2 2363.46  161.28
 -11   5  -2 2537.95  162.28
  -5 -11   2 2100.19  160.38
  -5 -11   2 2337.17  160.18
  11  -5   2 2225.18  160.68
 -11   5   2 2123.19  162.48
 -11   5   2 1830.82  161.48
  11  -5   2 2038.20  160.38
 -11   5   2 2283.57  162.08
  -6 -11  -2  109.19    9.70
 -11   6  -2   85.99   11.40
  11  -6  -2   91.39   11.20
  -6 -11  -2   94.69    8.20
 -11   6  -2  115.49   11.00
  11  -6  -2  102.89   10.00
  11  -6  -2   74.99    9.40
 -11   6  -2  109.79   11.10
   6  11  -2  102.49    9.10
 -11   6  -2   99.39   10.70
 -11   6   2   82.09   10.30
  11  -6   2  105.19    9.60
  11  -6   2  104.89    9.70
 -11   6   2   97.59   11.50
 -11   6   2   74.09   11.20
  -6 -11   2  102.59    9.20
 -11   6   2  106.09   11.50
  -6 -11   2  104.39    9.70
   7  11  -2   97.69    8.90
 -11   7  -2   94.89   10.40
 -11   7  -2   97.29   10.50
 -11   7  -2  104.59   10.80
  -7 -11  -2   91.09    9.10
 -11   7  -2   75.59   10.90
  11  -7  -2   94.59    9.10
  11  -7  -2   82.79    9.10
  11  -7  -2  115.09   11.50
  -7 -11  -2   89.09    7.80
  11  -7   2   89.49    9.00
 -11   7   2   84.89   11.10
  -7 -11   2   94.59    8.60
  -7 -11   2   98.59    9.40
 -11   7   2   64.29    9.40
 -11   7   2   78.79   10.50
 -11   7   2   71.29   10.70
  11  -7   2   84.99    8.70
   8  11  -2    1.70    2.00
 -11   8  -2    2.70    3.60
  11  -8  -2   -1.60    2.10
  11  -8  -2    2.90    2.20
  -8 -11  -2    3.20    2.40
  11  -8  -2    2.90    2.20
 -11   8  -2    2.70    3.10
 -11   8  -2    2.10    2.80
  -8 -11  -2    1.00    1.40
 -11   8  -2    0.70    2.50
 -11   8   2    1.30    3.00
  11  -8   2    0.40    1.60
 -11   8   2    2.00    3.00
  -8 -11   2   -0.70    1.60
 -11   8   2    1.80    3.80
  11  -8   2    2.70    2.30
  -8 -11   2    1.50    1.70
 -11   8   2    1.20    2.40
  11  -9  -2  137.39   12.00
 -11   9  -2  150.58   14.50
  11  -9  -2  109.59   13.30
 -11   9  -2  123.89   14.50
 -11   9  -2  118.79   13.50
  -9 -11  -2  120.59   10.90
  11  -9  -2  128.59   11.30
   9  11  -2  123.29   12.30
  -9 -11  -2  134.09   12.60
  -9 -11   2  120.79   12.50
 -11   9   2  104.79   14.00
  -9 -11   2  141.99   12.00
  11  -9   2  133.19   11.70
 -11   9   2  149.49   15.40
  11  -9   2  148.29   11.90
 -11   9   2  115.59   13.00
 -11  10  -2   26.10    6.80
  11 -10  -2   25.10    4.50
  10  11  -2   29.90    5.90
  11 -10  -2   23.70    6.20
  11 -10  -2   27.70    4.10
 -11  10  -2   20.10    5.90
 -10 -11  -2   32.70    4.10
 -10 -11  -2   22.30    5.20
 -11  10  -2   25.00    7.00
  11 -10   2   30.60    4.80
 -10 -11   2   26.60    5.60
  11 -10   2   20.90    6.30
 -11  10   2   30.80    7.40
 -10 -11   2   28.30    5.10
  11 -10   2   25.60    4.60
  11 -11  -2  741.83   49.80
  11 -11  -2  571.64   51.09
  11  11  -2  644.94   51.39
 -11  11  -2  755.72   53.29
  11 -11  -2  642.64   48.60
 -11 -11  -2  607.34   50.69
 -11 -11  -2  617.44   49.00
  11 -11   2  652.43   52.79
  11 -11   2  754.02   49.50
 -11  11   2  562.84   52.99
 -11 -11   2  672.13   51.49
 -11 -11   2  636.84   50.19
  11 -11   2  743.73   49.90
  12  10  -2   19.40    5.70
  10 -12  -2   15.20    4.50
 -12 -10  -2   15.90    4.40
 -12 -10  -2   21.30    3.50
  10 -12  -2   20.70    3.60
  10 -12  -2   15.40    7.00
  10 -12  -2   19.20    2.80
  10 -12   2   17.20    5.60
  10 -12   2   24.90    4.00
 -12 -10   2   19.70    4.50
 -12 -10   2   18.10    5.00
  10 -12   2   16.70    7.90
  12  10   2   15.60    5.70
  10 -12   2   21.60    3.70
   9 -12  -2  568.44   43.00
  12   9  -2  522.95   46.70
 -12  -9  -2  567.84   45.90
   9 -12  -2  525.55   45.30
   9 -12  -2  691.93   44.30
 -12  -9  -2  571.24   44.10
   9 -12  -2  560.44   50.39
   9 -12   2  644.14   50.09
   9 -12   2  635.84   44.50
 -12  -9   2  629.84   46.80
 -12  -9   2  570.24   45.50
   9 -12   2  558.64   46.70
   9 -12   2  640.24   44.00
  12   8  -2   72.79   10.30
 -12  -8  -2   84.29    7.80
   8 -12  -2   90.19    7.50
 -12  -8  -2   75.99    9.20
   8 -12  -2   71.59    8.50
   8 -12  -2   79.49   15.50
   8 -12   2   65.29    9.20
   8 -12   2   86.99    7.80
 -12  -8   2   83.69    9.00
   8 -12   2   73.19   13.00
 -12  -8   2   80.49    9.60
  12   8   2   60.99   11.10
   8 -12   2   90.29    7.70
 -12  -7  -2 1030.80   75.29
   7 -12  -2  980.30   76.49
  12   7  -2  884.11   77.99
 -12  -7  -2 1045.70   77.09
   7 -12  -2 1110.29   74.79
   7 -12  -2 1048.90   82.09
 -12  -7   2 1069.19   77.59
   7 -12   2 1093.59   81.79
   7 -12   2 1104.59   75.19
 -12  -7   2  974.00   76.39
 -12  -7   2  958.80   75.39
   7 -12   2 1040.80   74.59
 -12  -6  -2  165.58   13.70
  12   6  -2  164.58   17.10
   6 -12  -2  167.98   13.10
 -12  -6  -2  172.18   15.60
   6 -12  -2  165.08   19.60
  12   6   2  129.49   17.20
 -12  -6   2  171.38   15.00
   6 -12   2  169.08   19.20
 -12  -6   2  151.88   14.20
 -12  -6   2  174.38   15.80
   6 -12   2  160.68   13.10
   6 -12   2  176.08   13.50
  12   5  -2   33.40    7.60
 -12  -5  -2   42.10    6.00
   5 -12  -2   41.50    4.10
 -12  -5  -2   41.80    4.80
 -12  -5  -2   45.00    6.40
   5 -12  -2   46.00   10.80
 -12  -5   2   43.50    6.40
 -12  -5   2   31.40    6.00
  12   5   2   27.30    7.70
   5 -12   2   36.90    4.40
   5 -12   2   41.00    4.30
 -12  -5   2   33.30    5.70
 -12  -5   2   46.20    6.80
   5 -12   2   34.50    8.80
 -12  -4  -2    5.30    2.00
   4 -12  -2    7.20    1.60
  12   4  -2    6.70    4.60
 -12  -4  -2    8.50    3.00
   4 -12  -2    6.60    5.20
 -12  -4  -2   10.90    3.70
 -12  -4   2    6.10    3.40
 -12  -4   2    6.80    3.00
   4 -12   2   16.00    3.70
 -12  -4   2    8.50    3.00
   4 -12   2    5.80    1.70
 -12  -4   2    8.20    1.80
   4 -12   2    2.40    4.50
 -12  -4   2    5.40    2.60
   4 -12   2    8.30    2.00
  12   4   2    6.90    4.90
 -12  -3  -2  550.84   41.00
  12   3  -2  508.35   45.00
 -12  -3  -2  577.54   42.70
   3 -12  -2  591.94   41.80
 -12  -3  -2  587.24   40.60
   3 -12  -2  577.44   39.90
   3 -12  -2  530.05   46.10
 -12  -3   2  467.15   42.10
   3 -12   2  573.94   39.90
 -12  -3   2  472.95   42.40
   3 -12   2  559.14   40.60
   3 -12   2  474.15   45.20
  12   3   2  443.76   45.40
 -12  -3   2  590.74   42.20
 -12  -3   2  550.84   40.80
 -12  -3   2  650.63   44.10
  12   2  -2   22.50    6.70
 -12  -2  -2   18.40    4.50
 -12  -2  -2   20.00    3.50
   2 -12  -2   25.20    4.10
   2 -12  -2   21.40    6.90
 -12  -2  -2   23.00    5.40
 -12  -2  -2   23.60    3.80
 -12  -2   2   21.80    4.20
  12   2   2   50.89   10.10
 -12  -2   2   19.20    4.50
   2 -12   2   29.10    4.90
 -12  -2   2   18.90    4.80
 -12  -2   2   28.70    6.10
 -12  -2   2   28.00    4.40
   2 -12   2   26.70    3.20
   2 -12   2   20.10    6.50
   2 -12   2   22.70    2.50
  12   1  -2 1339.47  111.79
   1 -12  -2 1590.74  107.79
   1 -12  -2 1427.86  111.49
 -12  -1  -2 1570.04  107.99
  12   1  -2 1335.17  108.99
 -12  -1  -2 1601.64  109.69
 -12  -1  -2 1545.85  107.69
   1 -12   2 1240.78  111.09
 -12  -1   2 1699.33  110.89
 -12  -1   2 1497.95  108.19
   1 -12   2 1583.34  106.99
   1 -12   2 1549.74  108.19
 -12  -1   2 1233.48  108.99
  12   0  -2  309.07   30.80
   0 -12  -2  291.67   27.10
 -12   0  -2  376.06   28.90
   0 -12  -2  340.97   30.10
   0 -12  -2  358.96   26.70
 -12   0  -2  356.76   27.50
 -12   0  -2  379.56   27.10
 -12   0  -2  399.86   30.20
  12   0  -2  328.97   28.60
   0 -12   2  393.56   26.20
 -12   0   2  277.57   28.10
 -12   0   2  397.86   30.10
 -12   0   2  355.16   27.90
   0 -12   2  299.67   29.80
   0 -12   2  362.16   27.20
  -1 -12  -2 1524.15  110.29
  12  -1  -2 1358.86  111.29
 -12   1  -2 1598.64  107.29
 -12   1  -2 1629.24  108.19
 -12   1  -2 1530.15  109.09
  -1 -12  -2 1551.54  106.69
 -12   1  -2 1550.14  110.49
  12  -1  -2 1249.97  108.69
  -1 -12  -2 1302.17  107.39
  -1 -12   2 1629.64  106.29
 -12   1   2 1536.75  110.29
  -1 -12   2 1517.45  107.29
  -1 -12   2 1264.07  107.49
  -1 -12   2 1357.46  110.19
 -12   1   2 1502.05  108.19
  12  -2  -2   22.60    5.30
 -12   2  -2   23.00    5.20
  12  -2  -2   21.40    5.30
  12  -2  -2   26.40    7.30
 -12   2  -2   18.80    5.70
  -2 -12  -2   20.40    4.00
 -12   2  -2   26.40    4.20
  -2 -12  -2   24.20    6.00
  -2 -12  -2   22.50    3.10
 -12   2  -2   27.40    4.90
 -12   2   2   20.30    5.20
 -12   2   2   22.80    5.90
 -12   2   2   26.70    5.30
  -2 -12   2   25.30    2.90
  -2 -12   2   17.80    3.90
  -2 -12   2   24.60    3.90
  -2 -12   2   35.90    7.30
 -12   2   2   19.40    4.80
 -12   3  -2  524.65   44.50
  -3 -12  -2  513.15   41.50
  12  -3  -2  508.65   43.40
 -12   3  -2  576.24   42.50
 -12   3  -2  631.84   41.80
  12  -3  -2  533.85   45.30
  -3 -12  -2  628.34   44.10
  12  -3  -2  558.34   43.00
 -12   3  -2  590.24   43.40
  -3 -12  -2  563.34   40.40
 -12   3   2  528.75   42.70
  -3 -12   2  504.75   41.60
 -12   3   2  494.05   44.10
  -3 -12   2  570.04   44.10
  -3 -12   2  572.24   41.30
  -3 -12   2  617.84   40.30
 -12   3   2  443.66   42.50
 -12   3   2  510.15   43.20
  12  -4  -2    6.80    3.50
 -12   4  -2    5.80    3.10
  -4 -12  -2    6.90    3.50
   4  12  -2    6.20    2.20
  -4 -12  -2   10.40    2.90
  12  -4  -2    4.90    3.80
  12  -4  -2    7.00    4.00
  -4 -12  -2    6.50    1.70
 -12   4  -2    5.20    2.90
 -12   4  -2    5.70    3.60
  -4 -12   2    5.50    2.20
 -12   4   2    5.40    3.50
  -4 -12   2    6.70    2.50
 -12   4   2    5.10    3.70
 -12   4   2    7.70    3.70
  -4 -12   2    6.30    3.60
 -12   4   2    4.70    3.00
 -12   5  -2   40.00    6.60
  12  -5  -2   46.50    6.80
  -5 -12  -2   39.70    5.30
 -12   5  -2   36.80    6.90
 -12   5  -2   48.30    6.80
  12  -5  -2   42.90    7.70
  -5 -12  -2   38.90    4.10
 -12   5  -2   28.90    7.00
   5  12  -2   43.30    4.80
  12  -5  -2   42.30    5.80
  -5 -12   2   36.70    4.80
  12  -5   2   37.10    5.70
  -5 -12   2   33.00    5.00
 -12   5   2   51.49    7.90
 -12   5   2   32.90    6.80
 -12   5   2   35.60    7.90
 -12   5   2   32.70    6.80
  12  -6  -2  174.18   15.00
  12  -6  -2  147.79   16.20
 -12   6  -2  164.58   15.80
 -12   6  -2  126.39   16.20
  12  -6  -2  168.28   15.00
 -12   6  -2  190.08   15.70
  -6 -12  -2  178.28   13.10
 -12   6  -2  176.78   15.70
  -6 -12  -2  165.28   14.50
   6  12  -2  165.58   13.80
 -12   6   2  122.69   16.30
  -6 -12   2  171.98   14.70
 -12   6   2  171.38   16.40
  12  -6   2  169.08   14.60
 -12   6   2  128.39   15.10
  12  -6   2  180.68   14.60
  -6 -12   2  165.08   13.90
 -12   6   2  157.68   16.20
  12  -7  -2 1111.69   78.29
  12  -7  -2  983.10   79.69
 -12   7  -2 1164.48   79.69
  12  -7  -2 1075.19   77.59
  -7 -12  -2 1018.70   76.29
   7  12  -2 1045.50   77.19
 -12   7  -2 1097.59   79.19
 -12   7  -2 1174.78   78.89
  -7 -12  -2 1005.10   77.89
 -12   7   2 1074.09   80.09
  12  -7   2 1106.29   77.59
  -7 -12   2  998.50   77.89
  12  -7   2 1044.90   77.59
 -12   7   2 1055.69   79.39
  -7 -12   2 1009.80   77.09
 -12   7   2  852.61   78.59
 -12   8  -2  102.69   11.30
  -8 -12  -2   83.19    9.20
 -12   8  -2  101.29   10.80
 -12   8  -2   92.79   10.50
  -8 -12  -2   87.09    7.80
  12  -8  -2   76.69   12.00
  12  -8  -2   93.19    9.00
 -12   8  -2   64.29   10.60
   8  12  -2   81.19    8.80
  12  -8  -2  102.09    9.50
  12  -8   2   82.59    8.70
 -12   8   2   69.19    9.90
 -12   8   2   68.09   10.80
  12  -8   2   95.19    9.30
 -12   8   2   76.89   11.40
  -8 -12   2   91.19    8.70
  -8 -12   2   87.69    9.50
 -12   8   2   86.89   11.10
  12  -9  -2  612.14   46.50
   9  12  -2  636.04   46.80
  12  -9  -2  647.64   45.70
 -12   9  -2  648.04   48.40
  12  -9  -2  534.75   48.00
 -12   9  -2  652.83   48.10
  -9 -12  -2  615.24   47.10
  -9 -12  -2  566.34   45.20
 -12   9   2  656.83   49.50
  12  -9   2  627.34   49.50
  12  -9   2  674.83   46.40
 -12   9   2  492.65   49.10
  -9 -12   2  595.04   46.10
 -12   9   2  561.14   47.80
  -9 -12   2  621.64   47.40
 -12   9   2  615.14   54.39
 -10 -12  -2   18.50    3.30
 -12  10  -2   23.80    6.30
 -10 -12  -2   21.70    5.00
  12 -10  -2   11.60    4.80
  12 -10  -2   16.90    3.50
  10  12  -2   18.40    4.80
  12 -10  -2   19.40    4.20
 -12  10  -2   17.20    5.80
 -12  10   2    9.10    5.30
  12 -10   2   29.60    7.40
  12 -10   2   20.40    4.10
 -10 -12   2   20.30    4.20
 -10 -12   2   25.20    5.50
  12 -10   2   19.80    4.20
 -13  -9  -2   92.49   10.70
 -13  -9  -2   95.59    8.90
  13   9  -2   75.99   11.30
   9 -13  -2  105.19    8.90
   9 -13  -2  123.19   18.60
   9 -13   2   93.99   15.80
 -13  -9   2   97.79   10.40
   9 -13   2  104.09    8.90
 -13  -9   2  101.69   11.30
   9 -13   2  104.69   16.70
  13   9   2   78.99   12.00
   9 -13   2  110.49    9.40
 -13  -8  -2  244.38   20.60
   8 -13  -2  258.17   27.40
   8 -13  -2  289.27   20.40
  13   8  -2  217.48   23.50
 -13  -8  -2  262.97   22.60
 -13  -8   2  259.27   22.10
   8 -13   2  274.97   26.90
   8 -13   2  278.07   20.80
 -13  -8   2  277.07   23.20
   8 -13   2  256.87   20.10
 -13  -7  -2    7.30    2.40
   7 -13  -2    9.10    2.20
  13   7  -2    7.00    4.70
   7 -13  -2    9.60    6.90
  13   7   2   13.70    6.00
   7 -13   2    8.20    2.30
   7 -13   2    9.40    5.90
 -13  -7   2   12.70    4.20
 -13  -7   2    8.10    3.30
   7 -13   2   11.60    2.70
 -13  -6  -2   22.60    5.30
  13   6  -2   16.60    6.10
 -13  -6  -2   19.00    3.50
   6 -13  -2   20.50    8.60
   6 -13  -2   19.00    3.00
   6 -13   2   20.60    3.40
 -13  -6   2   24.80    4.80
 -13  -6   2   22.80    4.30
 -13  -6   2   18.70    5.20
  13   6   2   15.80    6.40
   6 -13   2   17.10    6.80
   6 -13   2   20.60    3.00
 -13  -5  -2  150.28   13.20
  13   5  -2  147.39   16.00
   5 -13  -2  138.99   12.60
 -13  -5  -2  145.79   13.60
   5 -13  -2  105.89   18.30
 -13  -5  -2  131.89   11.40
   5 -13  -2  124.89   10.40
   5 -13   2  130.69   11.10
 -13  -5   2  134.39   12.60
 -13  -5   2  141.09   13.30
 -13  -5   2  109.29   11.90
 -13  -5   2  140.49   13.70
  13   5   2  100.39   14.90
   5 -13   2  119.69   10.30
   5 -13   2  185.78   18.70
   4 -13  -2   15.50    6.90
 -13  -4  -2   42.40    7.10
 -13  -4  -2   21.60    3.70
  13   4  -2   25.80    7.20
 -13  -4  -2   23.20    5.10
   4 -13  -2   23.60    4.50
   4 -13   2   24.40    2.90
 -13  -4   2   28.80    5.80
 -13  -4   2   21.30    5.20
 -13  -4   2   23.30    4.80
   4 -13   2   21.60    4.60
  13   4   2   22.10    7.40
   4 -13   2   26.70    3.60
 -13  -4   2   20.10    4.40
   4 -13   2   25.50    8.30
 -13  -3  -2  751.72   55.39
   3 -13  -2  694.23   60.59
 -13  -3  -2  764.12   55.09
 -13  -3  -2  878.21   58.49
   3 -13  -2  756.12   55.99
 -13  -3  -2  783.82   57.19
  13   3  -2  684.13   59.89
   3 -13   2  730.63   54.79
 -13  -3   2  634.04   56.39
 -13  -3   2  812.42   54.79
 -13  -3   2  867.51   58.49
   3 -13   2  646.34   59.89
 -13  -3   2  761.72   56.29
 -13  -3   2  656.93   56.99
 -13  -2  -2    7.80    4.10
 -13  -2  -2    9.70    2.40
  13   2  -2    8.80    5.30
 -13  -2  -2    9.30    3.40
 -13  -2  -2    8.10    2.30
   2 -13  -2   10.90    5.60
   2 -13  -2    7.50    2.40
  13   2   2    5.40    5.00
 -13  -2   2   14.30    4.30
 -13  -2   2    8.10    2.70
   2 -13   2    7.80    4.80
   2 -13   2    8.10    2.10
 -13  -2   2    6.70    3.10
   2 -13   2    8.40    2.90
 -13  -2   2    5.70    3.60
 -13  -1  -2    8.00    3.80
 -13  -1  -2    8.90    2.60
   1 -13  -2    7.10    2.30
 -13  -1  -2    6.80    3.10
 -13  -1  -2    4.70    2.10
  13   1  -2    8.70    5.30
   1 -13  -2    5.60    4.30
 -13  -1   2   11.60    3.30
   1 -13   2    9.10    2.00
   1 -13   2    6.30    4.50
  13   1   2    5.70    5.20
   1 -13   2    7.80    2.80
 -13  -1   2    8.30    3.50
 -13  -1   2    9.40    3.80
 -13  -1   2    9.60    4.10
 -13   0  -2    2.20    1.90
   0 -13  -2    0.80    1.40
 -13   0  -2    3.20    1.80
  13   0  -2    6.30    3.50
   0 -13  -2    2.50    3.50
 -13   0  -2    0.70    2.50
 -13   0  -2   -0.60    2.40
  13   0  -2    2.10    4.00
   0 -13   2    1.20    1.80
 -13   0   2    1.00    2.80
 -13   0   2    3.00    2.70
   0 -13   2    2.90    2.00
 -13   0   2    1.90    2.80
  13   0   2   -2.00    2.60
   0 -13   2    1.70    1.30
 -13   0   2   -0.60    2.10
   0 -13   2    0.10    2.90
  -1 -13  -2    6.70    3.90
  13  -1  -2    9.30    5.40
  -1 -13  -2    8.30    2.80
 -13   1  -2    7.80    3.60
 -13   1  -2    8.60    3.00
  13  -1  -2    5.40    3.70
 -13   1  -2   13.80    2.90
  -1 -13  -2   10.20    2.30
 -13   1  -2    7.80    3.90
  -1 -13   2   22.20    3.90
  -1 -13   2    8.10    2.70
 -13   1   2    8.10    4.20
 -13   1   2   12.80    4.10
  -1 -13   2    7.70    4.20
 -13   1   2    6.70    3.50
 -13   1   2    5.30    3.40
  -1 -13   2    9.70    2.00
  13  -2  -2    7.60    4.20
 -13   2  -2    7.30    4.00
  -2 -13  -2    9.40    4.50
 -13   2  -2    7.10    3.60
  13  -2  -2    6.20    4.90
 -13   2  -2    5.90    3.00
  -2 -13  -2    5.30    2.50
  -2 -13  -2    8.90    2.10
 -13   2   2    9.10    3.90
 -13   2   2    5.60    3.90
  -2 -13   2    4.80    3.70
 -13   2   2    6.30    3.40
  -2 -13   2    7.70    2.40
 -13   2   2    3.50    3.00
  -2 -13   2    5.50    2.40
  -3 -13  -2  703.63   53.59
  13  -3  -2  683.33   56.79
  13  -3  -2  823.82   56.69
 -13   3  -2  737.73   58.19
 -13   3  -2  793.72   55.79
  -3 -13  -2  806.92   57.49
 -13   3  -2  766.52   56.79
  -3 -13  -2  683.63   54.99
  13  -3  -2  738.63   59.29
 -13   3   2  707.33   57.89
 -13   3   2  719.23   56.69
  -3 -13   2  779.42   54.69
  -3 -13   2  710.33   57.19
 -13   3   2  604.74   56.09
 -13   3   2  752.22   55.99
 -13   4  -2   22.40    5.10
 -13   4  -2   27.40    4.90
  13  -4  -2   23.90    6.00
 -13   4  -2   18.20    5.70
 -13   4  -2   23.30    5.60
  13  -4  -2   32.30    6.20
  -4 -13  -2   20.80    4.20
  -4 -13  -2   22.50    3.00
  13  -4  -2   23.00    7.00
  -4 -13   2   19.90    5.70
  -4 -13   2   19.80    3.80
 -13   4   2   18.20    5.90
 -13   4   2   19.90    5.60
 -13   4   2   15.00    4.80
 -13   4   2   27.10    5.90
  -4 -13   2   17.40    4.10
  13  -5  -2  148.79   13.40
  13  -5  -2  119.99   14.00
 -13   5  -2  136.89   13.00
 -13   5  -2  142.19   13.80
 -13   5  -2  102.19   14.00
 -13   5  -2  146.39   12.90
  -5 -13  -2  129.29   12.20
  13  -5  -2  122.39   12.40
  -5 -13  -2  128.29   10.50
  -5 -13   2  132.99   12.20
  13  -5   2  131.59   12.20
 -13   5   2  105.69   14.20
 -13   5   2  132.89   13.80
 -13   5   2  131.19   13.80
 -13   5   2  121.39   13.40
  -5 -13   2  120.99   11.40
 -13   6  -2   15.50    4.50
 -13   6  -2   21.50    5.20
  -6 -13  -2   20.00    3.10
 -13   6  -2   22.00    5.70
  13  -6  -2   39.00    6.40
  -6 -13  -2   17.50    4.10
  13  -6  -2   22.40    4.80
 -13   6  -2   12.20    5.00
  13  -6  -2   16.90    5.80
  13  -6   2   22.00    4.70
 -13   6   2   15.90    5.20
  -6 -13   2   20.40    4.10
 -13   6   2   12.20    5.10
 -13   6   2   22.60    6.00
 -13   6   2   21.70    5.90
  -6 -13   2   19.70    4.40
  13  -6   2   21.70    4.50
  -7 -13  -2   10.90    2.40
  13  -7  -2    5.90    3.00
  -7 -13  -2    6.70    2.90
  13  -7  -2    5.00    3.40
 -13   7  -2   13.60    4.80
 -13   7  -2    3.20    3.60
 -13   7  -2   14.20    4.40
 -13   7  -2    7.00    3.80
  13  -7  -2   10.10    4.90
  13  -7   2    6.70    3.40
 -13   7   2    7.30    4.20
 -13   7   2    8.90    4.60
  13  -7   2    8.90    3.20
 -13   7   2    7.00    4.50
  13  -7   2    9.70    4.50
 -13   7   2   11.90    4.40
  -7 -13   2    8.70    2.80
  -7 -13   2    7.40    3.10
  -8 -13  -2  257.67   22.60
  -8 -13  -2  257.47   20.70
  13  -8  -2  238.88   23.90
 -13   8  -2  281.57   23.90
  13  -8  -2  293.17   22.70
  13  -8  -2  295.07   22.20
 -13   8  -2  247.68   23.20
  13  -8   2  302.37   22.30
  -8 -13   2  257.57   22.70
  13  -8   2  274.17   25.10
 -13   8   2  272.47   24.20
 -13   8   2  253.17   23.70
  13  -8   2  267.97   22.00
  -8 -13   2  258.37   21.60
 -13   8   2  244.08   23.90
  13  -9  -2   89.79   12.20
  13  -9  -2  116.59   10.30
 -13   9  -2  114.39   12.20
  -9 -13  -2   99.79    9.10
 -13   9  -2   72.69   12.00
  13  -9  -2  110.09   10.80
  13  -9   2  125.79   10.90
 -13   9   2   76.19   12.40
 -13   9   2   86.49   11.40
  13  -9   2  105.09   10.20
  13  -9   2  110.39   13.30
  -9 -13   2  103.39   10.10
 -13   9   2  117.79   13.10
 -13   9   2  109.19   13.20
 -14  -8  -2  302.47   24.50
   8 -14  -2  334.77   24.20
 -14  -8  -2  328.17   26.80
  14   8  -2  264.17   27.90
   8 -14  -2  309.87   31.80
 -14  -8   2  299.97   25.90
 -14  -8   2  331.27   27.20
   8 -14   2  328.87   31.20
   8 -14   2  342.77   24.80
   8 -14   2  312.97   23.80
   7 -14  -2  117.89   12.40
 -14  -7  -2  138.89   13.00
  14   7  -2  102.89   14.40
   7 -14  -2  128.79   20.30
   7 -14  -2  129.09   10.20
 -14  -7  -2  113.39   10.70
   7 -14   2  129.39   10.80
 -14  -7   2  131.79   12.30
   7 -14   2  121.69    9.80
  14   7   2   94.19   14.20
 -14  -7   2  131.89   13.30
   7 -14   2   92.59   16.90
   6 -14  -2  525.15   39.70
 -14  -6  -2  591.74   40.70
   6 -14  -2  504.65   37.70
   6 -14  -2  434.56   44.00
 -14  -6  -2  497.25   37.90
  14   6  -2  466.55   42.40
  14   6   2  394.06   42.00
   6 -14   2  532.45   45.00
 -14  -6   2  489.55   39.10
   6 -14   2  480.65   37.60
 -14  -6   2  578.94   40.90
 -14  -5  -2    4.50    2.10
 -14  -5  -2    6.30    3.50
  14   5  -2    0.00    4.20
   5 -14  -2    4.80    2.80
   5 -14  -2   -1.60    4.40
 -14  -5  -2    4.90    3.20
  14   5   2    0.30    4.60
 -14  -5   2    0.60    2.70
 -14  -5   2    2.80    3.10
 -14  -5   2    3.70    2.60
 -14  -5   2    1.80    2.50
   5 -14   2    3.30    4.80
   5 -14   2    4.50    2.00
 -14  -4  -2   30.00    5.80
  14   4  -2   20.10    7.40
   4 -14  -2   20.40    7.70
 -14  -4  -2   29.60    6.30
   4 -14  -2   26.00    4.90
 -14  -4  -2   26.40    4.20
 -14  -4   2   24.10    4.80
   4 -14   2   24.30    5.10
   4 -14   2   27.90    8.80
  14   4   2   19.20    7.40
 -14  -4   2   29.30    5.40
 -14  -4   2   26.80    5.90
   4 -14   2   25.90    3.80
 -14  -4   2   28.40    6.10
   3 -14  -2  128.99   11.60
   3 -14  -2   99.99   17.00
 -14  -3  -2  124.39   12.60
 -14  -3  -2  120.99   10.90
 -14  -3  -2  153.68   14.00
  14   3  -2  120.49   15.70
 -14  -3   2  108.89   12.60
 -14  -3   2  107.69   11.90
  14   3   2  101.79   15.60
   3 -14   2   96.49   16.60
   3 -14   2  127.19   10.40
   3 -14   2  121.59   11.90
 -14  -3   2  146.09   13.90
  14   2  -2  472.65   41.10
 -14  -2  -2  478.65   37.50
 -14  -2  -2  473.85   35.10
   2 -14  -2  454.35   35.70
 -14  -2  -2  541.45   38.80
 -14  -2  -2  467.85   35.40
   2 -14  -2  421.76   40.10
 -14  -2   2  523.25   38.70
   2 -14   2  376.36   39.30
 -14  -2   2  436.46   37.50
 -14  -2   2  508.45   35.10
 -14  -2   2  454.05   37.00
   2 -14   2  469.95   34.80
  14   2   2  361.66   40.30
   2 -14   2  490.15   36.50
 -14  -1  -2   86.79    8.30
   1 -14  -2   80.09   13.30
 -14  -1  -2   90.59    8.50
 -14  -1  -2   90.79   10.30
 -14  -1  -2  102.79   11.30
   1 -14  -2   86.59    8.50
  14   1  -2   79.89   14.10
 -14  -1   2   67.09    9.40
   1 -14   2   91.79    7.70
 -14  -1   2   99.19   11.30
 -14  -1   2   86.99    8.90
 -14  -1   2   71.19    9.90
   1 -14   2   88.29    9.10
  14   1   2   70.19   13.70
   1 -14   2   93.59   14.30
 -14   0  -2  149.29   15.10
   0 -14  -2  149.59   16.90
 -14   0  -2  185.18   16.90
  14   0  -2  149.39   15.40
   0 -14  -2  161.28   13.20
 -14   0  -2  168.28   13.70
  14   0  -2  138.29   17.80
   0 -14   2  155.98   13.80
 -14   0   2  140.39   14.70
   0 -14   2  165.48   12.40
   0 -14   2  115.49   15.90
  14   0   2  133.79   18.00
 -14   0   2  146.49   15.30
 -14   0   2  157.58   14.00
  14   0   2  136.99   16.30
 -14   0   2  168.78   16.40
  -1 -14  -2   90.29   11.70
 -14   1  -2   93.79   11.60
  14  -1  -2   80.99   13.90
  -1 -14  -2   96.59    8.10
 -14   1  -2   87.39   10.10
 -14   1  -2   93.89    9.00
  -1 -14  -2   70.49    8.60
  14  -1  -2   88.59   10.70
  -1 -14   2   64.29    8.40
  -1 -14   2   76.39   12.60
 -14   1   2   90.39   11.30
 -14   1   2   65.69    9.70
  -1 -14   2   89.99    8.70
 -14   1   2   90.69   10.30
  14  -1   2   70.19   13.10
 -14   1   2   91.49    9.60
  14  -1   2   82.09   10.70
  -2 -14  -2  462.65   34.30
  14  -2  -2  455.15   37.60
 -14   2  -2  491.85   37.50
 -14   2  -2  493.85   39.00
  14  -2  -2  450.55   40.00
  -2 -14  -2  399.26   35.50
 -14   2  -2  499.75   36.00
  -2 -14  -2  466.35   38.20
  -2 -14   2  450.15   38.30
  14  -2   2  420.86   37.60
 -14   2   2  484.75   36.30
  -2 -14   2  489.45   35.30
 -14   2   2  443.56   37.00
 -14   2   2  391.86   36.80
 -14   2   2  466.05   38.50
  -3 -14  -2  123.49   13.50
  14  -3  -2  139.89   15.80
  14  -3  -2  132.69   13.10
  -3 -14  -2  104.19   11.10
  14  -3  -2  121.89   13.40
 -14   3  -2  125.99   11.70
 -14   3  -2  120.79   14.10
  -3 -14  -2  111.09    9.70
 -14   3  -2  134.09   13.10
 -14   3   2  120.99   12.50
  -3 -14   2   88.29   10.80
 -14   3   2  122.39   13.80
 -14   3   2  109.59   12.40
  -3 -14   2  118.19   10.80
  14  -3   2  119.99   13.30
  -3 -14   2  104.89   13.10
 -14   3   2   94.19   12.20
  14  -4  -2   23.10    5.00
  -4 -14  -2   25.80    3.40
  14  -4  -2   27.70    6.00
  14  -4  -2   29.50    8.00
 -14   4  -2   24.00    5.90
  14  -4  -2   21.20    6.20
 -14   4  -2   19.00    6.20
  -4 -14  -2   23.20    4.70
 -14   4  -2   28.20    5.60
  -4 -14   2   16.40    4.20
  -4 -14   2   23.90    4.30
 -14   4   2   23.80    5.70
 -14   4   2   25.90    7.20
  -4 -14   2   24.60    6.50
  14  -4   2   18.40    5.80
 -14   4   2   27.90    6.10
 -14   4   2   23.00    6.20
  14  -5  -2    3.70    3.70
 -14   5  -2    6.10    4.00
  -5 -14  -2    3.60    2.50
  -5 -14  -2    2.60    1.50
 -14   5  -2    1.80    2.80
 -14   5  -2    0.40    2.50
  14  -5  -2    4.30    2.60
  14  -5  -2    2.40    3.40
 -14   5   2    2.20    3.80
 -14   5   2    1.70    3.00
  -5 -14   2    7.40    2.60
 -14   5   2    2.90    3.80
  14  -5   2    5.50    3.80
  -5 -14   2    7.10    2.90
 -14   5   2    0.90    2.70
  14  -6  -2  481.35   40.00
 -14   6  -2  534.35   38.80
  -6 -14  -2  463.65   35.90
  -6 -14  -2  498.15   38.20
  -6 -14   2  442.26   37.80
 -14   6   2  503.05   39.70
 -14   6   2  409.46   40.40
 -14   6   2  522.65   39.30
 -14   6   2  418.86   39.00
  14  -6   2  529.75   37.80
  -6 -14   2  497.75   37.10
  14  -6   2  515.35   40.60
 -14   7  -2   84.19   13.30
  14  -7  -2  118.79   13.90
 -14   7  -2  134.79   13.10
  14  -7  -2  147.39   12.90
  -7 -14  -2  114.39   10.30
  14  -7  -2  155.38   13.00
  -7 -14  -2  134.49   12.70
 -14   7  -2  130.39   13.60
 -14   7   2  117.19   13.70
  -7 -14   2  113.79   11.20
 -14   7   2  103.09   13.10
 -14   7   2   98.29   14.20
  14  -7   2  116.69   14.20
  14  -7   2  132.79   12.00
 -14   7   2  120.39   13.60
  -7 -14   2  120.39   12.40
  14  -7   2  143.79   12.60
  -8 -14  -2  301.77   24.30
 -14   8  -2  325.77   27.20
  -8 -14  -2  303.87   26.60
  14  -8  -2  384.46   26.40
  14  -8  -2  313.57   28.40
  14  -8  -2  366.16   26.80
  14  -8   2  352.56   29.30
 -14   8   2  321.47   27.90
  -8 -14   2  300.87   26.70
 -14   8   2  264.97   27.10
  -8 -14   2  272.07   25.20
 -14   8   2  310.37   27.90
  14  -8   2  357.56   26.10
  15   6  -2  704.83   63.69
   6 -15  -2  779.12   60.59
 -15  -6  -2  770.42   58.89
 -15  -6  -2  916.61   61.89
   6 -15  -2  724.03   66.09
   6 -15   2  795.52   58.79
 -15  -6   2  887.01   61.99
   6 -15   2  773.22   65.99
 -15  -6   2  785.72   60.09
 -15  -5  -2    3.40    3.40
 -15  -5  -2    1.80    3.30
   5 -15  -2    0.30    4.80
 -15  -5  -2    9.30    2.70
   5 -15  -2   10.40    3.60
  15   5  -2    2.30    5.00
 -15  -5   2    3.70    2.70
   5 -15   2    1.70    5.20
 -15  -5   2    3.80    3.40
   5 -15   2    9.60    2.50
 -15  -5   2    3.40    2.80
  15   5   2    5.90    5.30
 -15  -4  -2  796.12   63.29
 -15  -4  -2  940.01   65.79
   4 -15  -2  823.32   64.19
  15   4  -2  835.62   69.09
 -15  -4  -2  993.90   66.59
 -15  -4   2  872.11   64.39
 -15  -4   2  806.92   64.19
   4 -15   2  806.02   62.79
 -15  -4   2  873.41   65.99
   4 -15   2  707.33   68.59
 -15  -4   2  978.50   66.59
 -15  -3  -2   18.40    3.50
 -15  -3  -2   14.70    4.70
 -15  -3  -2   20.50    5.60
  15   3  -2   20.10    7.80
   3 -15  -2    9.00    3.20
   3 -15  -2   10.90    6.00
   3 -15   2   14.40    2.80
 -15  -3   2    8.60    4.40
 -15  -3   2   12.00    3.90
   3 -15   2   11.90    6.00
 -15  -3   2   14.20    5.20
   3 -15   2   19.70    4.80
  15   3   2   11.90    6.20
 -15  -2  -2  854.71   57.69
   2 -15  -2  769.32   57.89
 -15  -2  -2  807.12   59.79
  15   2  -2  792.92   63.79
   2 -15  -2  694.53   62.39
   2 -15   2  835.42   58.79
   2 -15   2  843.22   56.89
 -15  -2   2  803.72   60.29
 -15  -2   2  730.43   58.89
   2 -15   2  674.43   62.19
  15   2   2  638.34   62.99
 -15  -1  -2    5.80    2.30
   1 -15  -2    2.50    2.00
 -15  -1  -2    3.20    2.10
 -15  -1  -2    6.20    3.50
  15   1  -2    6.20    5.50
   1 -15  -2    1.50    4.40
 -15  -1  -2    3.00    3.80
 -15  -1   2    4.40    3.10
 -15  -1   2    1.80    3.60
   1 -15   2    4.30    2.70
  15   1   2    5.90    5.20
   1 -15   2    0.10    3.80
 -15  -1   2    1.70    3.30
 -15  -1   2    7.50    2.80
 -15   0  -2   -0.90    1.60
 -15   0  -2    0.90    1.90
  15   0  -2    0.80    4.80
 -15   0  -2    1.70    3.70
 -15   0  -2   -1.50    2.60
   0 -15  -2   -2.00    3.20
   0 -15  -2    4.60    2.10
 -15   0   2   -1.40    2.70
 -15   0   2   -0.50    3.10
 -15   0   2    1.20    2.80
   0 -15   2   -0.20    3.40
 -15   0   2    4.40    2.90
  15   0   2   -0.90    4.20
   0 -15   2    0.80    2.10
 -15   1  -2    4.50    4.00
  -1 -15  -2    5.00    2.10
  15  -1  -2    5.10    5.30
  15  -1  -2    2.80    3.80
 -15   1  -2    4.60    2.60
  -1 -15  -2    1.20    4.10
 -15   1  -2    4.10    3.60
  15  -1   2   12.20    5.80
 -15   1   2    4.00    3.90
  -1 -15   2    3.70    4.40
 -15   1   2    4.80    3.20
 -15   1   2    2.00    2.70
 -15   1   2    2.30    3.10
  -1 -15   2    3.00    2.20
  -1 -15   2    6.10    2.90
  15  -1   2   -1.10    3.20
  -2 -15  -2  798.02   62.99
 -15   2  -2  873.01   62.29
 -15   2  -2  935.01   64.39
  15  -2  -2  786.42   62.29
  15  -2  -2  794.32   65.09
 -15   2  -2  815.12   60.29
  -2 -15  -2  773.52   58.89
  -2 -15   2  749.62   62.99
  -2 -15   2  793.52   59.89
 -15   2   2  789.82   61.69
 -15   2   2  696.23   61.69
  15  -2   2  776.12   62.49
 -15   2   2  870.11   63.79
  15  -2   2  707.53   64.79
 -15   2   2  846.22   60.49
 -15   3  -2   23.50    6.80
  -3 -15  -2   14.90    2.90
  -3 -15  -2   10.50    3.60
 -15   3  -2   16.00    5.00
  -3 -15  -2   20.10    6.60
 -15   3  -2   10.00    3.60
  15  -3  -2   23.30    7.60
  15  -3  -2   18.70    6.20
  -3 -15   2   14.50    3.70
 -15   3   2   12.80    4.90
 -15   3   2   14.50    5.40
  -3 -15   2   13.60    4.00
 -15   3   2   14.40    4.70
 -15   3   2   10.40    4.60
  -3 -15   2   14.40    5.70
  15  -3   2    8.30    4.90
  15  -3   2   20.70    6.00
 -15   4  -2  856.21   58.69
 -15   4  -2  792.42   61.69
  -4 -15  -2  724.43   58.39
  15  -4  -2  809.52   60.49
  15  -4  -2  783.92   58.49
  -4 -15  -2  729.43   56.19
 -15   4  -2  843.62   60.09
 -15   4   2  770.42   61.39
  -4 -15   2  769.42   57.49
  15  -4   2  714.93   59.99
  -4 -15   2  640.34   57.99
 -15   4   2  807.32   59.89
 -15   4   2  840.62   58.99
 -15   4   2  703.53   59.69
 -15   5  -2    4.10    4.20
  -5 -15  -2    7.30    2.00
  15  -5  -2    4.00    2.80
  -5 -15  -2    2.60    2.70
 -15   5  -2    7.60    3.50
 -15   5  -2    6.40    4.00
  15  -5  -2    6.30    4.20
  15  -5  -2    2.20    4.10
 -15   5   2    5.60    4.00
  15  -5   2    3.50    4.00
 -15   5   2    0.90    3.90
  -5 -15   2    2.20    2.60
 -15   5   2    5.60    4.20
  -5 -15   2    3.80    2.40
 -15   5   2    4.10    4.20
  15  -6  -2  788.42   57.59
 -15   6  -2  718.73   55.29
  -6 -15  -2  704.83   55.39
  -6 -15  -2  727.43   52.89
 -15   6  -2  607.44   57.29
  15  -6  -2  845.12   55.79
 -15   6  -2  796.72   56.89
 -15   6   2  805.72   56.19
  -6 -15   2  631.44   54.99
  15  -6   2  740.63   57.39
  -6 -15   2  701.13   53.99
 -15   6   2  726.23   56.49
 -15   6   2  656.63   57.99
 -15   6   2  668.43   56.39
 -16  -2  -2  426.46   32.60
   2 -16  -2  349.57   36.90
   2 -16  -2  401.36   32.90
  16   2  -2  423.36   38.70
 -16  -2  -2  513.65   36.60
 -16  -2  -2  500.35   35.60
   2 -16   2  397.66   33.60
  16   2   2  332.67   37.70
 -16  -2   2  427.56   35.40
 -16  -2   2  418.26   33.90
 -16  -2   2  509.35   36.50
   2 -16   2  356.06   37.20
   1 -16  -2   69.19    7.90
 -16  -1  -2   97.49   11.40
   1 -16  -2   82.69   14.20
  16   1  -2   62.69   13.10
 -16  -1  -2   80.59   10.10
   1 -16   2   64.49   12.60
   1 -16   2   76.09    8.80
 -16  -1   2   75.09    9.30
 -16  -1   2   94.09   11.20
 -16  -1   2   66.59    9.90
  16   1   2   65.99   13.90
 -16   0  -2 1282.97   92.09
   0 -16  -2 1116.79   93.39
 -16   0  -2 1242.78   89.39
   0 -16  -2 1174.98   89.29
   0 -16   2 1043.20   93.29
  16   0   2 1025.20   94.99
 -16   0   2 1335.77   89.19
 -16   0   2 1431.76   93.79
 -16   0   2 1235.68   91.29
   0 -16   2 1241.08   90.19
 -16   1  -2   78.39   11.20
 -16   1  -2   78.69   10.10
  -1 -16  -2   54.59   10.80
  16  -1  -2   92.39   15.20
  -1 -16  -2   64.39    7.20
 -16   1  -2   71.69    8.00
  -1 -16   2   70.29    8.20
  -1 -16   2   67.69   12.40
 -16   1   2   85.29   11.30
  16  -1   2   53.29   12.10
 -16   1   2   76.99    9.70
 -16   1   2   80.49    8.60
 -16   1   2   72.49   10.10
  16  -2  -2  415.36   35.60
 -16   2  -2  483.15   37.50
 -16   2  -2  437.86   33.50
 -16   2  -2  428.66   35.40
  -2 -16  -2  424.96   36.30
  -2 -16  -2  418.76   32.30
  16  -2  -2  410.86   38.20
 -16   2   2  387.66   35.30
 -16   2   2  404.76   34.80
 -16   2   2  493.15   37.40
 -16   2   2  443.46   33.50
  16  -2   2  374.26   38.10
  -2 -16   2  408.96   33.30
  -2 -16   2  408.66   36.60
   0   0  -3    1.70    0.50
   1   0  -3    7.00    0.90
   0  -1  -3    5.70    0.90
  -1   0  -3    7.60    1.00
   1  -1  -3  342.37   23.80
  -1   1  -3  326.97   23.90
  -1  -1  -3  324.87   23.80
   1   1  -3  321.57   23.80
   2   1  -3 3829.82  288.87
  -1   2  -3 3804.82  288.77
   2   1  -3 4250.27  288.57
  -1   2  -3 3812.92  289.17
  -1   2  -3 4064.69  288.87
  -2  -1  -3 4294.37  289.57
   1  -2  -3 4198.08  288.97
   2   0  -3    5.70    1.00
   0   2  -3    5.60    0.80
   0   2  -3    8.00    1.00
  -2   1  -3 4006.80  285.67
  -2   1  -3 3727.43  284.37
   2  -1  -3 3721.53  284.67
   1   2  -3 3753.72  285.27
   2  -1  -3 4207.98  285.37
  -2   1  -3 4336.77  284.97
   1   2  -3 3761.52  285.37
  -1  -2  -3 4352.76  285.47
   2  -2  -3  183.88   12.70
   2  -2  -3  178.28   12.70
  -2   2  -3  175.78   12.70
   2  -2  -3  159.48   14.00
  -2   2  -3  167.48   12.90
  -2  -2  -3  177.48   12.50
  -2   2  -3  153.88   12.90
   2   2  -3  175.78   12.70
  -2  -2   3  162.08   12.60
  -2  -2   3  153.28   12.50
  -3  -2  -3  318.47   24.90
   2  -3  -3  335.67   24.00
   3   2  -3  333.37   24.80
   2  -3  -3  355.86   24.30
   3   2  -3  348.27   24.40
  -2   3  -3  321.47   24.80
   2  -3  -3  318.57   25.90
   3   2  -3  323.37   24.10
  -3  -2  -3  353.16   24.20
  -2   3  -3  341.17   24.30
  -3  -2   3  333.37   24.20
  -3  -2   3  332.27   24.30
   2  -3   3  303.17   24.10
  -3  -2   3  318.77   24.50
  -3  -1  -3  806.52   54.59
   3   1  -3  777.92   54.39
   1  -3  -3  861.01   54.49
   1  -3  -3  753.72   54.29
  -1   3  -3  712.83   54.79
  -1   3  -3  743.03   54.39
   3   1  -3  702.03   55.09
  -1   3  -3  773.02   54.69
   3   1  -3  856.31   54.69
   1  -3  -3  775.22   55.99
   1  -3   3  689.43   54.49
   1  -3   3  690.33   54.29
  -3  -1   3  772.72   54.59
  -3  -1   3  646.54   54.89
  -3  -1   3  794.92   54.69
  -3   0  -3  381.46   29.10
  -3   0  -3  418.26   29.30
   0   3  -3  409.86   29.10
   0  -3  -3  422.16   30.30
   0  -3  -3  449.66   28.90
   3   0  -3  418.06   29.10
   0   3  -3  358.66   29.20
   3   0  -3  453.05   29.30
   0   3  -3  378.36   29.00
   0  -3   3  414.16   29.10
   0  -3   3  368.76   28.90
   0  -3   3  337.07   28.80
  -1  -3  -3  796.42   53.89
   3  -1  -3  808.82   54.29
   3  -1  -3  662.63   54.89
  -3   1  -3  680.33   54.39
   1   3  -3  746.23   53.99
   1   3  -3  765.22   54.09
  -3   1  -3  743.73   54.49
  -1  -3   3  837.32   54.19
  -1  -3   3  743.43   54.09
  -1  -3   3  728.03   53.99
   3  -2  -3  305.97   26.50
   2   3  -3  346.27   25.10
  -3   2  -3  359.66   25.30
   2   3  -3  325.57   24.80
   3  -2  -3  365.36   25.50
   3  -2  -3  357.76   25.20
  -3   2  -3  319.47   25.60
  -2  -3  -3  376.96   24.80
   2   3  -3  333.97   25.90
  -2  -3   3  352.96   25.10
  -2  -3   3  315.77   24.80
  -2  -3   3  342.67   25.00
   3  -3  -3  147.49   13.70
  -3   3  -3  160.68   12.00
  -3  -3  -3  158.38   12.00
  -3  -3  -3  166.38   11.70
   3   3  -3  155.38   11.60
   3  -3  -3  169.18   12.10
  -3  -3  -3  160.18   11.50
  -3   3  -3  162.38   12.80
   3  -3  -3  155.98   11.90
   3   3  -3  156.68   12.00
   3   3  -3  156.38   12.30
  -3  -3   3  149.69   12.00
  -3  -3   3  144.69   11.70
  -3   3   3  159.18   12.00
   3  -3   3  149.69   11.80
  -3  -3   3  153.68   11.90
  -4  -3  -3  226.18   16.20
   3  -4  -3  247.08   16.70
   4   3  -3  229.28   17.10
   3  -4  -3  196.78   16.40
  -3   4  -3  230.68   16.50
  -3   4  -3  226.38   17.50
   4   3  -3  224.08   16.70
  -4  -3  -3  218.68   16.80
   4   3  -3  225.58   16.10
   3  -4  -3  189.98   18.30
   3  -4  -3  212.58   16.10
  -4  -3   3  218.98   16.80
   3  -4   3  198.28   16.30
   3  -4   3  216.98   16.30
  -3   4   3  218.28   16.40
  -4  -3   3  212.78   16.30
  -4  -3   3  232.88   16.60
   2  -4  -3  442.76   34.50
   4   2  -3  504.25   34.90
   2  -4  -3  499.55   34.90
  -2   4  -3  495.35   35.00
   4   2  -3  498.35   35.80
  -2   4  -3  507.15   35.90
   4   2  -3  566.04   40.20
   2  -4  -3  547.85   35.20
   4   2  -3  513.85   35.40
   2  -4  -3  468.65   37.00
  -4  -2  -3  443.46   34.90
  -4  -2  -3  416.76   35.50
  -4  -2   3  445.96   35.60
   2  -4   3  411.96   34.80
  -4  -2   3  506.05   35.30
   2  -4   3  459.35   34.90
  -4  -2   3  507.45   35.10
   1  -4  -3   20.10    1.70
  -4  -1  -3   23.00    3.00
  -4  -1  -3   14.60    2.70
  -1   4  -3   23.40    2.50
  -4  -1  -3   17.10    2.00
  -1   4  -3   18.50    2.40
   1  -4  -3   18.80    2.00
   1  -4  -3   19.50    3.60
   4   1  -3   16.80    3.70
  -4  -1  -3   18.30    1.90
   4   1  -3   19.80    2.10
   1  -4   3   24.00    2.10
  -4  -1   3   19.70    2.30
   1  -4   3   17.70    1.90
  -4  -1   3   19.10    2.20
  -4  -1   3   21.50    2.30
   1  -4   3   18.10    2.10
  -4  -1   3   19.00    2.70
   4   0  -3    1.10    0.80
  -4   0  -3    0.10    0.50
   4   0  -3   -0.30    1.40
   0   4  -3    1.30    0.60
   0  -4  -3    3.70    1.60
  -4   0  -3    5.80    1.20
   4   0  -3    1.90    0.80
   0   4  -3    2.50    1.00
   0  -4  -3    1.60    0.60
  -4   0  -3    3.30    1.30
  -4   0   3    1.90    1.10
  -4   0   3    0.00    0.60
   0  -4   3    3.40    0.80
   0  -4   3    1.10    0.50
  -4   0   3    1.40    0.70
  -4   0   3    0.60    0.70
   0  -4   3    3.60    0.90
  -1  -4  -3   17.20    3.10
  -1  -4  -3   19.10    1.90
   1   4  -3   18.30    1.90
   1   4  -3   16.90    2.10
   4  -1  -3   15.70    3.20
   4  -1  -3   15.80    3.40
  -1  -4  -3   21.00    1.70
   4  -1  -3   20.20    2.30
   1   4  -3   19.40    2.00
  -4   1  -3   15.90    2.60
  -4   1   3   18.10    2.40
  -1  -4   3   16.80    1.80
  -1  -4   3   18.10    1.80
  -4   1   3   19.70    2.10
  -4   1   3   19.10    2.50
  -4   1   3   12.20    2.70
  -1  -4   3   20.10    2.00
   2   4  -3  471.35   36.20
  -4   2  -3  518.35   37.30
   2   4  -3  494.55   35.70
   4  -2  -3  484.25   36.60
   2   4  -3  531.55   36.00
   4  -2  -3  530.55   36.20
   4  -2  -3  529.75   36.30
   4  -2  -3  439.66   37.60
  -2  -4  -3  498.25   35.80
  -4   2  -3  511.15   36.30
  -4   2  -3  470.85   36.70
  -2  -4   3  515.35   36.00
  -2  -4   3  486.65   35.80
  -4   2   3  437.76   36.90
  -4   2   3  453.45   36.60
  -2  -4   3  477.45   35.70
  -4   2   3  533.95   36.20
  -3  -4  -3  223.18   16.30
   4  -3  -3  236.18   16.60
   3   4  -3  200.68   15.90
   4  -3  -3  213.78   16.50
  -4   3  -3  189.68   17.10
   4  -3  -3  209.78   18.40
  -4   3  -3  231.28   17.60
   3   4  -3  226.38   16.40
   3   4  -3  220.98   16.70
  -4   3  -3  235.68   16.60
  -3  -4  -3  224.68   15.70
  -3  -4   3  207.98   16.00
  -4   3   3  223.78   16.50
  -4   3   3  191.68   17.00
   4  -3   3  205.58   16.30
   3   4   3  201.48   17.00
   4  -3   3  227.58   16.30
  -3  -4   3  223.48   16.20
  -3  -4   3  217.28   16.40
  -4   4  -3 1190.98   78.69
   4   4  -3 1117.09   77.49
  -4   4  -3 1115.49   77.49
  -4   4  -3  970.50   78.29
   4   4  -3 1127.89   76.89
   4  -4  -3 1019.30   77.09
  -4   4  -3  991.80   78.39
   4  -4  -3  992.00   79.59
   4  -4  -3 1151.68   77.69
  -4  -4  -3 1111.09   77.49
   4   4  -3 1114.19   77.89
  -4  -4  -3 1023.60   76.79
  -4  -4   3 1070.49   77.49
  -4  -4   3 1106.59   77.39
  -4   4   3 1058.09   77.39
  -4  -4   3 1035.20   76.99
   4  -4   3 1002.40   77.19
  -4  -4   3 1085.49   77.59
   5   4  -3  714.83   50.09
  -5  -4  -3  656.83   49.40
  -4   5  -3  703.63   49.80
  -5  -4  -3  713.83   50.29
   5   4  -3  733.73   50.49
   4  -5  -3  648.74   49.30
  -4   5  -3  583.24   50.79
   5   4  -3  682.93   49.30
  -4   5  -3  666.73   51.19
   4  -5  -3  734.53   50.09
   4  -5  -3  571.74   51.99
   4  -5  -3  666.13   49.70
  -5  -4   3  736.53   49.99
  -5  -4   3  742.13   50.39
   4  -5   3  668.13   49.50
  -4   5   3  722.73   49.90
  -5  -4   3  692.13   49.60
  -5  -4   3  675.73   49.99
   4  -5   3  657.13   49.60
  -5  -4   3  672.53   49.80
   5   3  -3  158.18   14.10
   5   3  -3  168.68   12.30
   3  -5  -3  140.19   14.60
  -3   5  -3  172.88   13.90
   3  -5  -3  143.79   12.00
   5   3  -3  170.98   13.30
  -5  -3  -3  169.18   12.40
  -5  -3  -3  200.58   13.90
  -5  -3  -3  152.68   13.20
  -3   5  -3  169.38   12.60
   3  -5  -3  171.88   12.80
   3  -5  -3  159.98   12.40
  -3   5   3  175.38   12.60
  -5  -3   3  169.98   12.80
  -5  -3   3  161.18   13.30
  -5  -3   3  164.88   12.60
   3  -5   3  141.49   12.40
  -5  -3   3  183.68   13.10
   3  -5   3  150.68   12.40
  -5  -3   3  163.58   12.90
  -5  -2  -3 1947.71  163.08
   2  -5  -3 2122.29  164.38
   2  -5  -3 2156.28  161.98
   5   2  -3 2503.65  162.98
   5   2  -3 2298.27  162.18
  -5  -2  -3 2223.98  161.78
  -2   5  -3 2310.37  163.28
  -5  -2  -3 2356.66  162.38
  -5  -2  -3 2492.45  163.78
  -2   5  -3 2245.78  162.28
   5   2  -3 2128.49  163.88
  -5  -2   3 2499.15  162.48
   2  -5   3 2176.78  162.08
  -5  -2   3 2454.65  162.88
  -5  -2   3 2145.09  163.28
   2  -5   3 1947.11  162.08
  -5  -2   3 2535.15  162.78
  -5  -1  -3 1334.17   92.39
   5   1  -3 1337.77   91.59
   1  -5  -3 1202.58   90.39
   5   1  -3 1366.16   91.09
  -1   5  -3 1227.68   90.89
  -1   5  -3 1227.78   91.59
  -5  -1  -3 1251.57   90.99
   1  -5  -3 1246.98   92.89
  -5  -1  -3 1182.88   91.09
  -5  -1   3 1327.27   91.19
  -5  -1   3 1244.58   91.49
  -5  -1   3 1369.76   91.39
   1  -5   3 1218.88   91.19
   1  -5   3 1258.77   90.69
   1  -5   3 1202.18   90.79
   0   5  -3  136.49   10.50
  -5   0  -3  139.99   10.90
   0  -5  -3  151.28   12.30
   5   0  -3  144.79   11.20
   0   5  -3  122.59   10.90
  -5   0  -3  121.79   10.90
   0  -5  -3  157.48   10.30
   0  -5  -3  143.39   10.70
   0   5  -3  124.09   10.70
   5   0  -3  139.59   10.80
   0  -5   3  136.59   10.70
   0  -5   3  127.79   10.30
   0  -5   3  130.79   10.40
  -5   0   3  158.48   11.00
  -5   0   3  132.79   11.20
   5  -1  -3 1379.56   90.69
  -5   1  -3 1148.79   90.59
  -5   1  -3 1375.86   90.39
   5  -1  -3 1318.77   90.29
  -1  -5  -3 1263.77   89.89
   1   5  -3 1206.38   89.89
   1   5  -3 1170.28   90.19
   1   5  -3 1333.37   89.89
  -5   1   3 1217.38   90.79
  -5   1   3 1187.28   90.19
  -1  -5   3 1223.58   90.09
  -1  -5   3 1247.68   89.79
  -1  -5   3 1200.18   89.59
  -5   1   3 1252.37   90.29
  -2  -5  -3 2330.67  165.48
   2   5  -3 2452.95  165.58
   2   5  -3 2341.37  165.38
  -5   2  -3 2123.89  166.88
   5  -2  -3 2047.80  167.38
  -5   2  -3 2653.83  166.18
  -2  -5  -3 2320.27  165.18
   5  -2  -3 2478.55  166.08
  -2  -5  -3 1959.90  164.98
  -5   2  -3 2503.35  167.28
   5  -2  -3 2469.55  166.28
   2   5  -3 2096.89  165.78
  -5   2  -3 2136.89  166.48
  -5   2   3 2381.36  165.98
  -2  -5   3 2437.16  165.78
  -2  -5   3 2293.67  165.28
  -5   2   3 2390.06  165.98
  -2  -5   3 2396.26  165.48
  -5   2   3 2220.18  166.58
  -2  -5   3 2333.67  165.68
   5  -2   3 2190.78  165.78
  -5   3  -3  143.99   13.50
   3   5  -3  156.08   12.80
   3   5  -3  167.48   12.60
   5  -3  -3  167.68   13.00
  -5   3  -3  152.98   13.40
  -3  -5  -3  168.88   11.80
   3   5  -3  167.58   12.20
  -3  -5  -3  163.58   11.90
  -5   3  -3  186.88   14.00
  -5   3  -3  158.08   13.80
   5  -3  -3  151.98   12.90
   5  -3  -3  132.49   14.40
  -3  -5  -3  169.28   12.50
   5  -3  -3  150.88   13.00
  -3  -5   3  165.88   12.70
  -3  -5   3  159.98   12.60
  -3  -5   3  182.48   12.50
  -5   3   3  166.88   13.00
   5  -3   3  164.68   12.70
   3   5   3  170.38   13.00
  -5   3   3  163.58   12.90
  -5   3   3  143.29   13.50
   5  -3   3  162.98   12.70
  -3  -5   3  173.98   12.30
   5  -4  -3  640.14   52.19
   5  -4  -3  636.14   49.70
   5  -4  -3  667.83   49.50
  -5   4  -3  638.14   50.69
  -5   4  -3  704.23   49.70
  -5   4  -3  594.84   50.59
   4   5  -3  694.33   49.90
  -5   4  -3  696.43   50.59
   4   5  -3  677.73   48.90
  -4  -5  -3  706.13   48.80
   5  -4  -3  702.23   49.99
   4   5  -3  691.03   49.60
  -4  -5  -3  723.83   49.60
  -4  -5   3  690.33   49.60
   5  -4   3  673.53   49.40
  -4  -5   3  694.73   49.70
  -4  -5   3  708.23   49.20
   4   5   3  700.93   50.49
   5  -4   3  654.33   49.50
  -4  -5   3  699.43   49.40
  -5   4   3  638.84   49.90
  -5   4   3  691.83   49.80
   5  -5  -3    8.10    3.70
   5  -5  -3    6.00    1.40
  -5  -5  -3    2.80    0.80
   5  -5  -3    3.70    1.60
  -5   5  -3    4.50    1.40
  -5   5  -3    3.10    1.80
   5   5  -3    2.90    1.50
  -5  -5  -3    2.40    1.30
  -5  -5  -3    2.80    0.90
   5  -5  -3    6.10    1.50
  -5   5  -3   10.30    3.10
  -5   5  -3    3.60    1.80
  -5  -5   3    3.50    1.50
  -5  -5   3    3.80    1.20
   5   5   3    9.00    2.70
  -5   5   3    2.90    2.00
  -5  -5   3    1.10    1.10
  -5   5   3    5.70    1.60
  -5  -5   3    3.60    1.30
   5  -5   3    2.50    1.00
  -5  -5   3    2.30    1.20
   5  -5   3    2.70    1.10
  -5   6  -3    2.30    1.80
   5  -6  -3    1.50    0.90
   6   5  -3    0.70    1.50
  -5   6  -3    0.80    1.40
  -5   6  -3    4.70    1.50
  -6  -5  -3    1.40    1.20
  -5   6  -3    1.60    2.20
   6   5  -3    1.80    1.30
   5  -6  -3    4.30    1.20
   5  -6  -3    1.00    2.30
   5  -6  -3    1.70    1.40
   5  -6   3    1.80    0.90
   6   5   3    0.60    1.50
  -6  -5   3    1.50    1.20
  -6  -5   3    1.90    1.10
  -6  -5   3    2.10    1.30
  -5   6   3    4.50    2.60
  -5   6   3    6.30    1.70
   5  -6   3    2.90    1.30
  -6  -5   3    2.30    1.40
  -6  -5   3    2.50    1.20
   4  -6  -3   16.50    4.80
  -6  -4  -3   18.50    3.30
  -6  -4  -3   17.50    3.30
  -4   6  -3   12.50    3.50
   4  -6  -3   14.40    2.00
   4  -6  -3   23.80    2.90
   4  -6  -3   21.00    2.00
   6   4  -3   21.50    2.10
   6   4  -3   15.80    3.10
  -6  -4  -3   14.20    2.00
  -4   6  -3   22.40    3.80
  -4   6  -3   13.50    2.30
   6   4  -3   22.00    3.00
  -4   6  -3   14.60    3.40
  -6  -4   3   14.00    2.60
   4  -6   3   17.00    2.40
   4  -6   3   14.80    2.10
  -6  -4   3   11.80    2.50
  -4   6   3   16.30    2.30
  -6  -4   3   16.90    3.20
  -6  -4   3   12.40    2.50
  -6  -3  -3 1362.16   95.39
  -6  -3  -3 1370.56   96.79
  -6  -3  -3 1226.48   96.39
   6   3  -3 1396.96   96.29
  -3   6  -3 1335.47   96.99
   3  -6  -3 1218.58   95.09
   3  -6  -3 1530.85   95.79
   6   3  -3 1419.26   95.29
  -3   6  -3 1367.76   95.49
   6   3  -3 1357.56   97.39
   3  -6  -3 1143.69   94.69
  -6  -3   3 1356.26   96.69
   3  -6   3 1140.39   95.19
  -6  -3   3 1394.56   96.19
  -6  -3   3 1346.37   96.09
  -3   6   3 1404.86   95.49
  -6  -3   3 1291.97   95.89
   3  -6   3 1192.48   95.19
  -6  -3   3 1374.46   95.59
   2  -6  -3 1333.07   84.59
  -6  -2  -3 1049.59   84.09
   2  -6  -3 1043.20   86.69
  -6  -2  -3 1207.38   84.59
   6   2  -3 1232.98   85.39
  -2   6  -3 1173.78   84.39
   6   2  -3 1251.17   84.49
   2  -6  -3 1054.39   83.89
  -2   6  -3 1233.28   85.69
  -6  -2  -3 1202.28   85.89
  -6  -2   3 1196.08   84.69
  -6  -2   3 1190.18   84.99
  -6  -2   3 1209.68   85.29
  -6  -2   3 1232.48   85.29
  -6  -2   3 1069.59   85.69
   2  -6   3 1136.79   84.29
   2  -6   3 1148.69   84.19
   2  -6   3 1146.69   84.89
  -6  -1  -3   21.90    3.50
   1  -6  -3   26.10    2.00
   1  -6  -3   26.00    2.90
  -1   6  -3   31.60    3.60
   6   1  -3   28.20    3.60
   6   1  -3   19.30    4.70
  -6  -1  -3   22.20    2.80
  -6  -1  -3   25.00    2.80
  -6  -1  -3   25.30    3.70
   6   1  -3   28.20    3.00
   1  -6  -3   20.40    4.60
  -6  -1   3   25.00    3.10
  -6  -1   3   18.80    3.70
  -6  -1   3   28.00    3.50
   1  -6   3   28.60    2.60
   1  -6   3   26.20    3.00
   1  -6   3   26.10    2.60
   1  -6   3   24.00    2.90
  -6   0  -3    0.50    1.10
   6   0  -3    0.20    1.70
   0  -6  -3    5.20    1.30
   6   0  -3    1.10    1.80
   0  -6  -3    2.10    0.70
  -6   0  -3    1.30    1.00
   0   6  -3    0.10    0.60
  -6   0  -3    1.90    1.00
   6   0  -3    1.30    1.00
   0  -6  -3    2.50    1.80
  -6   0  -3    0.40    1.10
   6   0  -3    0.00    1.00
  -6   0   3    0.00    1.00
  -6   0   3    1.90    1.40
   0  -6   3    0.60    0.60
   0  -6   3    0.80    0.60
  -6   0   3    1.80    1.10
   0  -6   3    1.60    0.80
   0  -6   3    1.70    0.90
  -6   0   3    0.90    1.10
  -1  -6  -3   28.60    4.70
  -6   1  -3   27.60    4.10
   1   6  -3   28.60    2.80
   6  -1  -3   28.80    3.30
  -6   1  -3   29.30    3.60
  -6   1  -3   27.50    3.20
   6  -1  -3   29.00    3.70
   6  -1  -3   19.20    4.30
   6  -1  -3   16.90    4.00
  -1  -6  -3   32.80    2.40
   1   6  -3   27.00    3.10
   6  -1   3   21.20    2.80
  -6   1   3   25.30    3.60
  -1  -6   3   25.40    2.60
  -6   1   3   25.70    3.20
  -6   1   3   17.70    3.80
  -1  -6   3   29.00    3.00
  -1  -6   3   31.50    2.70
  -6   1   3   27.10    3.40
  -1  -6   3   24.70    2.90
  -2  -6  -3 1142.29   82.29
  -6   2  -3 1120.89   83.39
  -6   2  -3 1102.79   83.79
   6  -2  -3  954.80   83.19
   2   6  -3 1184.08   82.29
  -6   2  -3 1072.89   83.99
   6  -2  -3 1204.38   83.39
   2   6  -3 1076.99   82.59
   6  -2  -3  996.10   84.09
  -2  -6  -3 1015.50   81.59
  -6   2  -3 1265.37   82.89
  -2  -6  -3 1190.08   81.69
   6  -2  -3 1166.48   82.89
   2   6   3 1302.87   82.09
   6  -2   3 1202.68   82.89
  -2  -6   3 1211.38   82.49
  -2  -6   3 1145.19   81.89
  -6   2   3 1174.38   82.99
  -6   2   3 1154.28   82.89
  -2  -6   3 1208.98   82.49
  -6   2   3 1008.00   83.39
  -2  -6   3 1181.38   82.09
   6  -3  -3 1269.17   96.79
  -3  -6  -3 1410.46   95.39
  -6   3  -3 1252.07   97.29
  -6   3  -3 1507.25   96.79
  -6   3  -3 1281.37   97.59
   6  -3  -3 1377.76   99.09
   3   6  -3 1357.76   96.09
   6  -3  -3 1266.07   96.89
  -3  -6  -3 1209.78   95.19
  -3  -6  -3 1373.26   96.09
   6  -3  -3 1393.76   96.79
  -6   3  -3 1387.56   96.99
   3   6  -3 1253.87   96.39
  -3  -6   3 1345.87   95.89
  -6   3   3 1138.89   97.29
   6  -3   3 1204.18   96.29
  -3  -6   3 1368.46   96.29
  -6   3   3 1377.36   96.79
  -6   3   3 1234.98   97.79
   6  -3   3 1358.96   96.39
  -6   3   3 1405.26   96.79
   3   6   3 1509.55   96.29
  -3  -6   3 1372.66   96.29
  -3  -6   3 1353.66   95.69
   6  -4  -3   13.60    2.90
  -4  -6  -3   16.90    1.50
  -6   4  -3   18.50    3.70
   6  -4  -3   17.70    5.00
   4   6  -3   12.90    2.60
  -6   4  -3   18.90    3.70
  -6   4  -3   17.00    2.70
  -6   4  -3   12.10    3.30
   6  -4  -3   24.60    3.10
   6  -4  -3   23.40    3.70
   4   6  -3   18.50    2.40
  -4  -6  -3   17.60    1.70
  -4  -6  -3   25.80    3.70
  -4  -6  -3   15.00    2.30
  -6   4   3   14.20    2.80
  -6   4   3   13.10    3.50
  -4  -6   3   16.60    2.30
  -6   4   3   18.10    3.20
  -4  -6   3   16.20    2.60
  -4  -6   3   15.30    2.20
  -4  -6   3   16.30    2.40
   6  -4   3   18.00    2.50
   6  -4   3   15.00    2.50
   4   6   3   13.70    2.80
  -5  -6  -3    6.90    1.70
  -6   5  -3    2.70    1.90
   5   6  -3    1.50    1.20
   6  -5  -3    2.50    1.30
  -5  -6  -3    2.30    0.70
  -6   5  -3    0.90    2.00
  -5  -6  -3    4.00    0.90
  -6   5  -3    4.00    2.10
   6  -5  -3    2.10    1.20
   6  -5  -3    6.20    2.00
   6  -5  -3   14.50    4.50
  -6   5   3    1.70    1.30
   6  -5   3    2.50    1.20
  -6   5   3    6.60    2.40
  -5  -6   3    1.90    1.30
   5   6   3    9.20    2.60
  -6   5   3    0.80    1.60
  -5  -6   3    1.10    1.00
  -5  -6   3    2.70    1.30
   6  -5   3    3.00    1.30
   6  -6  -3  963.10   79.19
   6  -6  -3 1015.20   76.19
   6   6  -3 1070.89   75.99
  -6  -6  -3 1154.18   76.29
   6  -6  -3 1032.50   75.29
   6  -6  -3 1009.70   75.79
  -6   6  -3  963.60   77.39
  -6   6  -3 1118.09   77.29
  -6   6  -3  994.70   77.09
  -6  -6  -3  983.40   75.09
  -6  -6   3 1098.69   75.99
   6  -6   3 1043.30   75.49
  -6  -6   3 1144.89   76.29
   6   6   3 1024.70   77.39
  -6  -6   3 1134.89   75.89
  -6  -6   3 1022.00   75.19
   6  -6   3  998.90   75.59
  -6   6   3  963.40   76.09
  -6   7  -3  839.52   67.09
  -6   7  -3  960.30   67.09
  -6   7  -3  965.80   66.89
   6  -7  -3  910.71   65.69
   7   6  -3  904.41   65.69
   6  -7  -3  885.91   64.99
   6  -7  -3  874.51   69.19
   6  -7  -3  850.41   64.39
  -7  -6  -3  962.80   65.89
  -7  -6  -3  844.62   64.59
  -7  -6   3  927.31   65.49
   7   6   3  757.42   66.89
   6  -7   3  883.11   64.79
   6  -7   3  945.81   64.99
  -7  -6   3  880.31   65.39
  -6   7   3  808.02   65.49
  -7  -6   3  864.71   64.59
  -7  -6   3  982.80   66.09
  -7  -5  -3  242.28   18.50
   5  -7  -3  204.48   16.80
  -5   7  -3  240.38   17.60
  -5   7  -3  274.07   19.40
   5  -7  -3  226.98   17.30
   5  -7  -3  233.58   18.00
  -7  -5  -3  225.08   17.30
   7   5  -3  227.58   18.30
  -5   7  -3  237.48   19.70
  -5   7  -3  209.98   19.30
   5  -7  -3  190.88   20.50
  -7  -5   3  189.08   17.70
  -7  -5   3  224.78   18.00
  -7  -5   3  261.47   18.80
   5  -7   3  228.98   17.30
  -5   7   3  211.88   17.80
  -7  -5   3  231.38   18.10
   5  -7   3  224.68   17.40
  -7  -5   3  238.28   17.50
   4  -7  -3  270.57   26.00
  -7  -4  -3  321.27   22.90
   4  -7  -3  340.57   23.40
  -4   7  -3  274.67   24.80
   4  -7  -3  262.47   22.20
   7   4  -3  313.07   23.80
  -7  -4  -3  318.37   24.20
  -4   7  -3  317.67   23.00
   4  -7  -3  302.17   22.70
  -4   7  -3  337.27   25.20
  -7  -4  -3  303.17   24.10
  -7  -4   3  275.07   23.50
  -7  -4   3  329.17   24.40
   4  -7   3  295.17   22.90
  -7  -4   3  335.37   23.90
  -4   7   3  307.87   23.20
  -7  -4   3  318.97   23.70
  -7  -4   3  320.27   23.10
   4  -7   3  287.87   22.70
  -7  -3  -3   99.59   10.60
   7   3  -3  132.99   11.00
   3  -7  -3  113.19    9.20
   3  -7  -3  137.49    9.90
   7   3  -3  136.59    9.80
  -7  -3  -3  127.49    9.70
  -3   7  -3  133.19    9.80
   3  -7  -3  100.09   12.10
  -7  -3  -3  128.59   11.10
  -3   7  -3  139.19   11.60
  -7  -3   3  117.19   11.00
  -3   7   3  123.29    9.80
  -7  -3   3  115.49   10.30
  -7  -3   3  128.29   10.50
  -7  -3   3  121.79   10.00
  -7  -3   3  118.49   10.50
   3  -7   3  112.99   10.30
   3  -7   3  114.99    9.50
   3  -7   3  105.69    9.40
   2  -7  -3  659.53   55.69
  -2   7  -3  779.32   52.99
  -7  -2  -3  753.82   54.59
  -7  -2  -3  767.22   53.19
  -7  -2  -3  717.63   52.89
  -7  -2  -3  675.83   54.39
  -2   7  -3  774.42   54.49
   2  -7  -3  705.93   52.39
   7   2  -3  784.12   53.29
   7   2  -3  767.92   54.39
  -7  -2   3  723.23   53.99
  -7  -2   3  624.24   54.39
  -7  -2   3  754.32   53.49
  -7  -2   3  723.23   53.79
   2  -7   3  681.33   52.69
   2  -7   3  731.23   52.89
   2  -7   3  718.43   53.49
  -2   7   3  785.92   52.89
   1  -7  -3   14.00    4.00
   7   1  -3    4.70    2.00
  -1   7  -3    4.40    1.20
  -7  -1  -3    3.10    1.80
  -1   7  -3    8.30    2.20
  -7  -1  -3    4.10    1.30
   1  -7  -3    5.30    1.20
  -7  -1  -3    3.40    1.20
   7   1  -3    0.80    2.10
   1  -7  -3    3.50    1.30
  -7  -1  -3    2.80    1.70
   7   1  -3    4.70    1.60
  -7  -1   3    7.50    1.90
  -7  -1   3   11.40    2.40
   1  -7   3    4.90    1.50
  -7  -1   3    4.80    1.80
   1  -7   3    3.00    1.20
   1  -7   3    4.80    1.20
  -7  -1   3    3.70    1.60
  -7  -1   3    3.80    1.90
   1  -7   3    5.00    1.20
  -7   0  -3  283.87   25.40
  -7   0  -3  327.57   24.40
   7   0  -3  329.97   25.40
  -7   0  -3  338.77   25.70
   0   7  -3  354.46   23.90
   0   7  -3  301.07   24.50
   0  -7  -3  332.57   24.30
   7   0  -3  322.67   24.50
  -7   0  -3  321.17   24.60
   0  -7  -3  309.07   26.00
  -7   0   3  297.87   25.10
  -7   0   3  278.27   25.50
   0  -7   3  337.97   23.80
   0  -7   3  328.97   24.50
   0  -7   3  325.47   23.60
  -7   0   3  326.57   24.80
  -7   0   3  344.07   25.70
  -7   0   3  332.97   24.60
  -7   1  -3   11.70    3.00
  -7   1  -3    6.20    1.90
  -1  -7  -3    5.90    1.50
   7  -1  -3    5.60    1.90
  -1  -7  -3    3.90    1.00
   7  -1  -3    5.40    2.50
   1   7  -3    9.60    1.60
   1   7  -3    4.70    1.60
  -7   1  -3    6.20    2.40
   7  -1  -3    6.10    2.30
  -7   1  -3    6.20    1.70
   7  -1  -3    7.30    2.90
  -1  -7  -3    5.70    2.50
  -7   1   3   17.30    3.40
  -7   1   3    4.20    2.10
  -1  -7   3    6.40    1.50
  -7   1   3    3.80    1.80
  -1  -7   3    9.20    1.80
  -1  -7   3   10.90    1.60
  -1  -7   3    4.60    1.20
  -7   1   3    7.90    2.00
  -7   2  -3  769.32   54.19
   7  -2  -3  645.74   54.79
   7  -2  -3  702.13   54.19
  -7   2  -3  739.93   54.69
  -7   2  -3  603.84   54.49
  -7   2  -3  779.52   53.59
   2   7  -3  709.23   53.29
   2   7  -3  789.32   52.89
  -2  -7  -3  705.83   52.29
  -2  -7  -3  761.52   52.39
  -2  -7  -3  746.23   52.99
   7  -2  -3  740.93   53.79
  -7   2   3  669.93   54.29
  -7   2   3  729.93   53.69
  -2  -7   3  773.82   52.69
  -2  -7   3  742.43   53.19
  -2  -7   3  714.33   52.99
  -7   2   3  702.63   53.79
  -2  -7   3  770.42   52.49
  -7   3  -3  149.19   11.30
   7  -3  -3  128.59   11.00
  -3  -7  -3  113.19    9.20
   7  -3  -3  128.29   12.80
  -3  -7  -3  130.89   10.20
  -3  -7  -3  123.79    9.40
  -7   3  -3  119.39   12.00
   3   7  -3  130.09   10.10
  -7   3  -3  123.39   11.30
  -3  -7  -3  143.29   11.60
   7  -3  -3  121.39   11.30
   7  -3  -3  103.89   10.90
  -7   3  -3  130.79   10.70
  -7   3  -3  128.69   11.70
   7  -3   3  134.19   10.60
  -3  -7   3  128.99    9.90
  -3  -7   3  124.39   10.30
   3   7   3  143.29   10.10
  -7   3   3  123.29   11.00
  -7   3   3  125.19   10.90
   7  -3   3  124.59   10.50
  -7   3   3   99.79   11.20
  -3  -7   3  125.89   10.20
  -3  -7   3  119.79    9.60
  -7   4  -3  361.46   24.80
   7  -4  -3  318.37   27.20
   7  -4  -3  267.27   24.90
   4   7  -3  308.77   24.00
  -7   4  -3  348.47   25.30
   7  -4  -3  321.17   25.00
  -7   4  -3  321.97   25.70
   7  -4  -3  298.07   24.50
  -4  -7  -3  323.47   23.30
  -4  -7  -3  322.67   24.10
  -7   4  -3  302.77   25.40
  -4  -7  -3  380.36   25.30
  -4  -7  -3  316.67   23.10
  -4  -7   3  332.77   23.90
  -7   4   3  298.37   24.90
  -7   4   3  295.57   24.80
  -4  -7   3  328.47   24.20
  -7   4   3  305.37   26.10
  -4  -7   3  330.97   24.30
   7  -4   3  308.27   24.20
  -4  -7   3  307.17   23.50
   4   7   3  354.56   24.40
   7  -4   3  308.17   24.30
  -5  -7  -3  241.18   18.40
  -7   5  -3  245.18   19.60
  -7   5  -3  207.88   19.60
  -7   5  -3  224.98   19.70
   5   7  -3  222.98   18.30
  -5  -7  -3  261.67   17.30
   7  -5  -3  223.08   18.40
  -5  -7  -3  247.48   17.60
   7  -5  -3  240.28   19.20
   7  -5  -3  235.18   21.90
   5   7   3  252.57   19.10
  -5  -7   3  248.98   18.20
   7  -5   3  227.08   20.30
   7  -5   3  241.08   18.50
  -7   5   3  195.18   19.10
  -7   5   3  234.78   19.10
  -5  -7   3  230.68   18.40
  -5  -7   3  253.97   18.60
  -5  -7   3  237.68   17.70
   7  -5   3  237.78   18.30
   7  -6  -3  841.02   65.99
   7  -6  -3  878.31   66.59
  -7   6  -3  987.90   67.39
   6   7  -3  884.41   65.99
  -6  -7  -3  938.41   66.19
  -7   6  -3  933.91   67.79
  -7   6  -3  888.71   67.39
   7  -6  -3  867.01   65.49
  -6  -7  -3  917.11   65.09
   7  -6  -3  880.21   69.79
  -6  -7   3  890.21   64.99
   6   7   3  972.60   67.29
   7  -6   3  915.61   65.89
   7  -6   3  898.41   65.59
   7  -6   3  864.71   68.29
  -6  -7   3  936.71   65.99
  -6  -7   3  918.71   65.79
  -6  -7   3  930.71   66.19
  -7   6   3  781.22   66.29
  -7   7  -3    7.70    3.20
   7  -7  -3    6.60    1.70
  -7  -7  -3    6.80    2.20
  -7   7  -3    5.80    2.70
   7  -7  -3    9.60    4.40
  -7   7  -3    7.30    3.40
   7  -7  -3    8.50    2.70
   7   7  -3    5.80    2.20
   7  -7  -3    4.30    1.60
  -7  -7   3    3.90    1.70
   7  -7   3    6.10    1.80
   7   7   3    4.70    2.70
  -7   7   3    8.70    2.60
   7  -7   3    4.60    1.80
   7  -7   3    6.70    3.40
  -7  -7   3    6.20    2.10
  -7  -7   3    4.80    1.40
  -7  -7   3    7.80    2.40
   7  -8  -3   27.90    3.10
  -8  -7  -3   22.20    4.10
  -8  -7  -3   21.10    3.00
   8   7  -3   25.20    4.40
  -7   8  -3   23.50    5.50
  -7   8  -3   26.60    5.50
   7  -8  -3   23.20    3.20
   7  -8  -3   32.40    7.90
   7  -8  -3   19.40    3.90
   7  -8   3   27.50    6.70
  -8  -7   3   21.70    2.40
  -8  -7   3   24.60    4.40
  -8  -7   3   30.90    4.50
   7  -8   3   28.10    3.40
   7  -8   3   29.20    3.70
   8   7   3   22.50    5.50
  -8  -7   3   24.80    4.00
  -7   8   3   20.10    4.20
  -8  -6  -3    8.30    2.50
  -6   8  -3    2.30    1.40
   6  -8  -3    0.80    2.90
   6  -8  -3    3.60    1.30
   6  -8  -3    2.60    1.60
  -8  -6  -3    2.90    1.30
  -6   8  -3    0.90    2.90
  -6   8  -3    6.40    3.10
   6  -8  -3    4.20    1.20
   8   6  -3    4.20    2.00
   8   6   3    3.50    2.90
  -8  -6   3    4.40    2.00
   6  -8   3    2.40    1.50
  -8  -6   3    3.10    1.40
   6  -8   3    1.10    2.80
   6  -8   3    8.60    1.90
  -8  -6   3    1.60    1.60
  -8  -6   3    1.20    1.90
  -6   8   3    0.90    1.30
   8   5  -3  219.98   17.60
  -5   8  -3  204.38   18.60
  -8  -5  -3  208.08   17.40
   5  -8  -3  205.38   16.70
  -5   8  -3  222.48   16.40
  -8  -5  -3  218.28   17.40
  -5   8  -3  192.28   18.50
  -8  -5  -3  218.18   16.20
   5  -8  -3  209.28   16.00
   5  -8  -3  276.17   21.70
   5  -8  -3  181.68   15.40
   5  -8   3  211.18   16.20
  -8  -5   3  220.88   17.70
  -8  -5   3  214.28   17.20
  -5   8   3  194.48   16.70
   5  -8   3  204.48   16.10
  -8  -5   3  204.48   17.00
  -8  -5   3  210.08   16.30
  -8  -4  -3  252.27   19.00
  -4   8  -3  284.77   21.70
  -4   8  -3  278.77   19.20
   4  -8  -3  262.47   19.40
   4  -8  -3  240.18   18.00
   4  -8  -3  247.18   18.60
   4  -8  -3  217.68   22.50
  -8  -4  -3  219.28   20.10
  -8  -4  -3  293.87   20.70
   8   4  -3  252.57   20.40
  -8  -4   3  260.37   20.70
  -8  -4   3  214.98   19.70
   4  -8   3  235.18   18.90
  -8  -4   3  259.97   20.20
  -8  -4   3  257.77   19.40
   4  -8   3  237.38   18.80
   3  -8  -3  147.49   11.70
  -8  -3  -3  174.78   13.90
   8   3  -3  170.68   12.50
   3  -8  -3  174.18   12.50
  -3   8  -3  169.78   12.30
  -3   8  -3  160.88   14.20
   3  -8  -3  140.79   15.40
   8   3  -3  166.38   13.90
  -8  -3  -3  134.79   13.50
  -8  -3  -3  169.98   12.40
  -8  -3  -3  154.28   11.60
  -8  -3   3  146.89   12.70
   3  -8   3  147.79   12.10
   3  -8   3  143.79   12.00
  -8  -3   3  159.18   13.40
  -8  -3   3  160.08   13.30
  -8  -3   3  148.09   13.80
  -8  -3   3  141.29   13.10
  -2   8  -3  110.59   10.60
  -8  -2  -3  112.29    9.30
  -8  -2  -3  108.99   10.70
   8   2  -3   82.49   11.30
  -8  -2  -3  118.39   10.70
   2  -8  -3  134.79    9.20
   8   2  -3  119.09    9.60
  -2   8  -3  130.99    9.20
   2  -8  -3  107.79    8.40
   8   2  -3  118.49   10.90
  -8  -2  -3  114.29    9.10
   2  -8  -3  103.89   11.90
  -8  -2   3  116.39   10.30
  -8  -2   3  103.89   10.70
  -8  -2   3  122.79   10.60
   2  -8   3  110.09    9.00
  -8  -2   3  105.69   10.00
   2  -8   3  103.19    9.60
   2  -8   3  108.29    8.90
  -8  -2   3  116.49    9.90
  -8  -1  -3  797.02   56.79
   8   1  -3  798.92   57.09
   8   1  -3  791.62   58.29
  -8  -1  -3  777.12   58.29
   1  -8  -3  807.62   55.49
  -8  -1  -3  814.52   56.79
  -1   8  -3  791.72   56.29
  -1   8  -3  757.52   57.59
   1  -8  -3  782.62   59.49
   1  -8  -3  714.33   56.79
  -8  -1  -3  835.92   58.29
   1  -8   3  828.42   56.29
  -8  -1   3  770.62   57.69
   1  -8   3  731.33   57.09
   1  -8   3  739.83   56.79
  -8  -1   3  738.33   57.79
  -8  -1   3  802.92   57.19
   1  -8   3  777.82   56.09
  -8  -1   3  735.23   57.49
  -8  -1   3  735.83   58.39
  -8   0  -3    3.60    2.20
   8   0  -3    5.30    1.90
   8   0  -3    5.80    3.20
  -8   0  -3    4.20    1.50
   0  -8  -3    0.30    1.80
   0   8  -3    2.30    1.50
   8   0  -3    4.10    2.30
   0   8  -3    1.70    0.90
  -8   0  -3    5.30    1.80
  -8   0  -3    1.50    1.60
   0  -8  -3    4.20    1.50
   0  -8   3    4.00    1.10
  -8   0   3    1.90    1.70
  -8   0   3    6.50    2.30
  -8   0   3    2.30    1.80
  -8   0   3    2.00    1.50
   0  -8   3    1.60    1.10
  -8   0   3   12.40    3.40
   0  -8   3    1.60    1.20
  -1  -8  -3  845.32   58.19
  -1  -8  -3  766.62   55.89
   8  -1  -3  790.12   57.69
  -8   1  -3  815.02   57.69
   8  -1  -3  627.24   57.29
   1   8  -3  787.62   55.59
  -8   1  -3  839.22   56.29
  -1  -8  -3  753.02   55.39
  -8   1  -3  788.12   56.69
   8  -1  -3  743.73   56.59
  -8   1   3  739.53   56.79
  -8   1   3  735.03   56.49
  -1  -8   3  807.92   55.19
  -8   1   3  668.83   57.09
  -8   1   3  654.53   57.49
  -1  -8   3  800.22   55.99
  -1  -8   3  821.02   55.49
  -1  -8   3  786.22   56.19
   2   8  -3  121.69    9.20
  -8   2  -3  123.99    9.90
  -8   2  -3  113.19   10.40
   8  -2  -3  103.29   11.30
  -8   2  -3  126.49   11.10
  -2  -8  -3  132.59   11.40
   8  -2  -3  109.89   10.30
   8  -2  -3   96.29   10.80
  -2  -8  -3  115.19    8.70
   8  -2  -3  119.19   11.20
  -8   2  -3   90.09   10.90
  -2  -8  -3  117.79    9.50
  -2  -8  -3  105.69    8.70
  -2  -8   3  119.49    8.80
  -2  -8   3  110.79    9.40
  -8   2   3  100.39   10.70
  -8   2   3  104.49   10.30
  -2  -8   3  129.79    9.80
  -8   2   3  108.89   10.30
  -2  -8   3  118.49    9.10
   3   8  -3  163.58   12.10
   8  -3  -3  135.89   13.20
  -3  -8  -3  160.08   11.40
  -3  -8  -3  164.48   12.30
  -8   3  -3  169.38   12.80
   8  -3  -3  138.39   13.00
  -8   3  -3  139.69   14.20
  -8   3  -3  166.78   13.10
   8  -3  -3  146.69   13.70
  -3  -8  -3  169.08   13.80
   8  -3  -3  137.89   14.50
  -8   3  -3  157.78   13.80
  -3  -8  -3  144.19   11.20
  -8   3  -3  168.98   13.60
  -3  -8   3  159.88   11.50
   8  -3   3  124.29   12.30
  -8   3   3  127.79   12.80
  -8   3   3  157.78   13.30
  -3  -8   3  157.68   11.90
  -3  -8   3  160.58   12.30
  -8   3   3  123.69   13.40
  -3  -8   3  151.68   12.30
  -4  -8  -3  246.48   18.50
   8  -4  -3  268.97   20.80
  -8   4  -3  253.77   22.00
   8  -4  -3  269.77   23.10
  -8   4  -3  282.97   20.70
   4   8  -3  251.57   19.40
   8  -4  -3  217.38   20.80
   8  -4  -3  237.78   20.30
  -4  -8  -3  258.77   18.70
  -8   4  -3  276.67   21.20
  -8   4  -3  263.17   21.30
  -4  -8  -3  261.17   19.60
  -8   4  -3  256.57   20.10
   8  -4   3  260.57   19.90
  -4  -8   3  259.77   18.80
   8  -4   3  238.08   19.80
  -8   4   3  229.68   21.60
  -8   4   3  244.58   20.60
  -4  -8   3  271.37   19.30
  -4  -8   3  243.88   19.60
  -8   4   3  249.88   20.80
  -4  -8   3  257.57   19.70
   8  -5  -3  229.68   20.50
  -8   5  -3  235.98   18.00
  -5  -8  -3  218.58   15.80
  -8   5  -3  201.48   18.00
  -5  -8  -3  217.58   16.70
  -5  -8  -3  204.08   15.50
   8  -5  -3  196.08   16.90
  -8   5  -3  221.78   18.40
   8  -5  -3  213.78   17.80
   5   8  -3  216.08   16.60
  -5  -8   3  218.38   16.90
  -8   5   3  202.78   17.60
   5   8   3  236.88   17.70
  -8   5   3  209.28   19.00
  -5  -8   3  219.48   16.40
   8  -5   3  209.38   16.80
  -5  -8   3  215.88   16.80
  -5  -8   3  205.48   15.60
  -8   5   3  174.08   18.20
   8  -5   3  199.18   16.70
  -8   5   3  185.78   17.70
   8  -6  -3    2.30    1.60
  -6  -8  -3    3.00    1.60
  -8   6  -3    3.50    2.30
   6   8  -3    3.70    1.70
  -8   6  -3   11.00    3.50
   8  -6  -3    5.90    1.90
   8  -6  -3    3.60    3.60
  -8   6  -3    2.90    2.30
   8  -6  -3    4.40    2.40
  -6  -8  -3    7.20    1.40
  -8   6   3    2.40    1.70
   8  -6   3    9.00    2.10
   6   8   3    2.90    2.10
  -8   6   3    2.70    2.80
   8  -6   3    2.10    2.60
  -6  -8   3    4.30    1.70
  -6  -8   3    2.00    1.40
  -6  -8   3    6.00    1.90
   8  -6   3    3.50    1.60
  -8   7  -3   29.60    5.40
  -8   7  -3   22.90    5.00
   8  -7  -3   21.80    3.30
   8  -7  -3   21.40    4.40
  -8   7  -3   15.50    4.40
   8  -7  -3   12.00    5.30
  -7  -8  -3   19.40    2.70
   7   8  -3   23.90    4.00
  -7  -8  -3   23.80    3.70
   8  -7  -3   29.50    3.80
   8  -7   3   26.20    6.10
  -7  -8   3   27.20    3.60
  -7  -8   3   23.00    3.70
   7   8   3   28.60    5.10
   8  -7   3   20.80    3.40
   8  -7   3   20.50    3.30
  -8   7   3   17.60    5.30
  -8   7   3   16.10    3.90
  -7  -8   3   23.10    3.70
   8  -8  -3  191.08   17.00
  -8   8  -3  212.08   18.30
  -8   8  -3  197.68   18.20
  -8   8  -3  206.08   18.50
   8   8  -3  197.48   16.80
  -8  -8  -3  192.28   15.60
  -8  -8  -3  209.28   16.90
   8  -8  -3  192.28   20.50
   8  -8  -3  204.68   16.20
   8  -8  -3  188.08   15.50
  -8  -8   3  195.08   16.30
  -8  -8   3  214.18   17.20
   8   8   3  193.28   18.00
  -8  -8   3  213.18   16.70
   8  -8   3  196.18   19.30
  -8   8   3  158.08   16.80
   8  -8   3  229.58   16.30
   8  -8   3  212.58   16.10
   8  -9  -3   71.59    6.50
  -8   9  -3   84.99   10.20
   9   8  -3   74.69    8.30
  -8   9  -3   86.49   10.00
  -9  -8  -3   76.79    8.10
   8  -9  -3   76.99    7.10
   8  -9  -3   70.19   12.40
   8  -9  -3   68.49    8.00
  -9  -8  -3   72.79    6.80
  -9  -8   3   77.69    8.00
   9   8   3   56.99    8.90
  -9  -8   3   77.89    8.30
  -9  -8   3   70.29    7.50
   8  -9   3   76.19    7.20
   8  -9   3   76.89    7.20
   8  -9   3   78.59   10.60
   9   7  -3   90.29    9.00
   7  -9  -3   81.49    8.30
  -9  -7  -3   76.09    8.50
   7  -9  -3   95.59   15.00
   7  -9  -3   79.39    6.90
  -9  -7  -3   86.29    7.50
  -7   9  -3   87.19   10.30
  -7   9  -3   84.99   10.40
   7  -9  -3   88.39    7.50
  -9  -7   3   94.09    9.10
   9   7   3   55.29    9.40
   7  -9   3   95.49   11.60
  -9  -7   3   79.89    8.30
   7  -9   3   87.59    7.70
   7  -9   3   92.49    7.80
  -9  -7   3   81.79    8.40
   6  -9  -3    4.90    1.40
  -6   9  -3    1.80    3.40
   9   6  -3    3.80    2.40
  -9  -6  -3    4.10    1.50
   6  -9  -3    4.30    4.10
  -9  -6  -3    0.80    1.70
   6  -9  -3    2.30    1.00
  -6   9  -3    3.30    1.60
   6  -9  -3    5.40    2.10
  -6   9  -3    3.20    3.20
  -9  -6   3    2.20    1.90
   6  -9   3    4.60    1.60
   6  -9   3    4.00    3.50
  -9  -6   3    2.70    2.20
   9   6   3   -0.70    2.20
  -9  -6   3    4.10    1.50
  -9  -6   3    2.80    1.90
   6  -9   3    4.00    1.70
   5  -9  -3  326.07   31.10
   5  -9  -3  371.86   27.20
  -5   9  -3  400.26   27.10
  -9  -5  -3  386.46   28.20
   5  -9  -3  318.77   25.70
   5  -9  -3  343.37   26.30
  -5   9  -3  416.96   30.20
   9   5  -3  374.56   28.60
  -9  -5  -3  324.67   28.00
  -9  -5  -3  358.96   26.70
   5  -9   3  367.26   31.30
   5  -9   3  332.47   26.60
   5  -9   3  334.97   26.50
  -9  -5   3  387.46   28.80
  -9  -5   3  350.96   26.80
  -9  -5   3  364.66   27.90
  -9  -5   3  331.37   27.80
  -9  -4  -3  253.97   19.40
   4  -9  -3  267.97   19.70
   4  -9  -3  217.98   23.20
  -9  -4  -3  272.57   21.00
  -4   9  -3  306.57   22.60
  -4   9  -3  283.07   19.60
  -9  -4  -3  234.08   20.80
   9   4  -3  260.97   21.40
   4  -9  -3  242.58   18.90
  -9  -4   3  270.37   20.70
   4  -9   3  261.47   19.40
  -9  -4   3  207.38   20.30
   4  -9   3  226.78   19.10
  -9  -4   3  267.37   21.40
  -9  -4   3  247.28   20.70
  -9  -4   3  262.27   19.90
  -3   9  -3  374.06   27.80
   3  -9  -3  365.46   25.30
  -9  -3  -3  315.57   26.80
  -9  -3  -3  353.36   26.80
  -9  -3  -3  323.47   25.20
  -3   9  -3  370.56   25.30
  -9  -3  -3  344.17   24.60
   9   3  -3  337.87   27.30
   9   3  -3  358.96   25.60
   3  -9  -3  292.17   28.60
   3  -9  -3  338.07   24.50
  -9  -3   3  326.17   26.30
   3  -9   3  349.96   26.20
  -9  -3   3  299.97   26.30
  -9  -3   3  322.57   27.10
   3  -9   3  323.67   25.10
  -9  -3   3  330.57   26.60
  -9  -3   3  340.37   25.80
   3  -9   3  303.07   24.80
  -9  -2  -3    3.90    2.00
  -9  -2  -3    3.10    2.30
  -9  -2  -3    4.50    1.40
   2  -9  -3    5.30    0.80
   2  -9  -3    4.90    3.50
  -2   9  -3    2.10    2.00
   2  -9  -3    6.10    1.50
   9   2  -3    2.70    1.60
  -9  -2  -3    8.40    1.80
   9   2  -3    1.30    1.90
  -9  -2   3    7.30    2.40
  -9  -2   3    1.10    1.60
  -9  -2   3    1.90    1.60
   2  -9   3    4.80    1.40
   2  -9   3    1.30    1.30
   2  -9   3    5.20    1.30
  -9  -2   3    3.40    2.10
  -9  -2   3    4.60    2.50
  -9  -1  -3    2.40    1.80
  -1   9  -3    1.60    1.10
   9   1  -3    2.00    1.60
   1  -9  -3    9.00    3.80
  -9  -1  -3    3.40    1.30
   9   1  -3    0.40    2.60
   9   1  -3    2.90    2.40
  -9  -1  -3    1.60    1.80
  -9  -1  -3    5.30    1.70
  -9  -1   3    9.00    2.70
   1  -9   3    2.90    1.20
  -9  -1   3    0.20    1.80
   1  -9   3    6.60    2.00
  -9  -1   3    2.30    1.60
   1  -9   3    3.20    1.10
  -9  -1   3    2.30    2.10
   1  -9   3    3.10    1.50
  -9  -1   3    4.80    2.30
   9   0  -3 1897.91  139.99
  -9   0  -3 2026.80  139.59
   0  -9  -3 2085.39  140.89
  -9   0  -3 2078.09  138.39
   9   0  -3 1833.02  138.49
  -9   0  -3 2043.40  137.99
  -9   0  -3 1919.81  139.89
   0   9  -3 1956.80  137.39
   0  -9  -3 1743.03  137.89
   0  -9   3 1957.80  137.29
  -9   0   3 1720.13  139.09
  -9   0   3 1786.72  138.79
   0  -9   3 1847.02  138.29
  -9   0   3 1967.80  138.59
  -9   0   3 1862.81  139.89
   0  -9   3 1995.20  136.99
   0  -9   3 1812.12  137.89
  -1  -9  -3   -0.90    1.50
  -1  -9  -3    4.60    1.20
   9  -1  -3    4.30    2.90
   1   9  -3    1.10    1.00
  -1  -9  -3    2.70    1.30
  -9   1  -3    6.30    2.60
  -9   1  -3    2.50    1.60
  -9   1  -3    1.50    1.90
   9  -1  -3    3.50    2.50
  -9   1  -3    2.10    1.40
  -9   1   3    0.10    1.90
  -1  -9   3    1.20    1.10
  -1  -9   3    2.20    1.00
  -1  -9   3    4.70    1.20
  -9   1   3    1.30    1.70
  -1  -9   3    3.10    1.60
  -9   1   3    3.60    2.50
  -9   1   3    7.20    2.60
  -9   2  -3    1.50    1.70
   9  -2  -3    8.10    2.80
   9  -2  -3    1.80    2.40
  -2  -9  -3    5.80    1.70
   2   9  -3    3.50    1.30
  -9   2  -3    4.00    1.80
   9  -2  -3    7.10    3.10
  -2  -9  -3    4.40    1.00
  -9   2  -3    1.20    1.70
  -2  -9  -3   12.00    3.70
  -9   2  -3    4.20    2.50
  -9   2   3    1.80    2.00
  -2  -9   3    5.10    1.20
  -9   2   3    2.10    2.20
  -9   2   3    5.10    2.20
  -2  -9   3    2.50    1.30
  -2  -9   3    2.40    1.20
  -9   2   3    2.30    2.10
  -2  -9   3    5.40    1.40
   9  -3  -3  299.07   25.30
   9  -3  -3  291.67   25.40
  -3  -9  -3  319.67   24.30
  -9   3  -3  341.77   24.90
   9  -3  -3  287.87   26.00
  -9   3  -3  340.27   25.50
  -9   3  -3  268.17   26.30
  -9   3  -3  356.76   24.80
   3   9  -3  339.57   24.00
  -3  -9  -3  335.07   23.30
  -9   3  -3  338.97   26.10
  -9   3   3  290.97   25.30
  -3  -9   3  319.37   23.20
   9  -3   3  275.17   24.30
  -3  -9   3  353.46   24.60
  -3  -9   3  344.87   23.80
  -9   3   3  335.07   25.60
  -3  -9   3  309.37   24.20
  -9   3   3  255.47   25.60
  -4  -9  -3  265.27   18.50
   9  -4  -3  237.98   20.60
   4   9  -3  266.67   19.30
  -4  -9  -3  263.77   19.50
  -9   4  -3  298.77   21.20
  -9   4  -3  284.47   20.50
  -9   4  -3  273.67   21.30
   9  -4  -3  240.38   20.30
   9  -4  -3  272.27   24.10
   9  -4  -3  210.58   20.90
  -9   4  -3  259.37   22.20
  -4  -9   3  262.67   19.00
  -9   4   3  201.68   21.30
  -9   4   3  236.38   20.60
  -4  -9   3  248.88   19.60
  -4  -9   3  247.38   18.20
   9  -4   3  243.38   20.10
  -9   4   3  204.98   20.90
   9  -4   3  210.68   19.50
  -4  -9   3  262.07   19.60
  -9   4   3  239.68   20.70
  -9   5  -3  349.17   29.80
   5   9  -3  344.97   26.90
  -9   5  -3  384.36   29.10
   9  -5  -3  313.87   28.10
   9  -5  -3  359.76   31.00
   9  -5  -3  327.27   27.50
  -5  -9  -3  378.36   27.30
  -9   5  -3  399.26   28.40
  -9   5  -3  376.46   28.80
  -5  -9  -3  365.86   26.10
   9  -5   3  354.76   27.30
  -5  -9   3  352.46   27.30
   9  -5   3  346.07   27.30
  -5  -9   3  370.46   27.20
  -9   5   3  314.77   28.10
  -9   5   3  367.96   28.80
  -9   5   3  311.97   29.40
  -5  -9   3  376.86   26.80
   9  -6  -3    3.10    1.90
   6   9  -3    3.10    1.60
  -9   6  -3    3.90    2.60
  -9   6  -3    4.30    3.10
  -6  -9  -3    6.00    1.40
  -9   6  -3    4.10    2.60
  -6  -9  -3    5.90    2.00
   9  -6  -3    1.10    3.40
   9  -6  -3    5.10    2.20
   9  -6  -3    1.70    2.50
  -9   6  -3    5.70    3.10
  -9   6   3    3.40    2.80
   9  -6   3    3.10    1.80
  -9   6   3   15.70    4.60
  -6  -9   3    2.10    1.70
  -6  -9   3    0.60    1.30
  -6  -9   3    2.00    1.40
  -9   6   3    2.70    1.90
  -9   6   3    1.70    2.40
   9  -6   3    3.10    1.60
   9  -7  -3   72.79    8.50
   9  -7  -3   93.79    8.40
  -9   7  -3  103.39   10.40
  -9   7  -3  101.29   10.30
   7   9  -3   86.99    8.60
   9  -7  -3   93.69   12.70
   9  -7  -3   86.39    9.70
  -7  -9  -3  109.29    9.10
  -9   7  -3   89.79   10.20
  -7  -9  -3   93.49    7.70
   9  -7   3   95.99    8.60
  -7  -9   3   94.89    9.00
  -9   7   3   98.29   11.20
  -7  -9   3   80.19    8.20
  -7  -9   3   88.49    8.70
   9  -7   3   92.39    8.50
  -9   7   3   87.59   11.00
  -8  -9  -3   74.69    7.00
   9  -8  -3   75.59    7.20
  -9   8  -3   87.19    9.60
   9  -8  -3   75.29   13.10
  -9   8  -3   80.99    9.60
   8   9  -3   71.39    7.90
   9  -8  -3   73.79    8.80
   9  -8  -3   76.29    7.80
  -9   8  -3   83.69    9.90
  -8  -9  -3   85.49    8.30
   8   9   3   75.09    9.00
   9  -8   3   83.99    7.70
  -8  -9   3   77.39    8.00
  -8  -9   3   85.59    8.50
   9  -8   3   94.99    7.90
  -8  -9   3   70.89    7.50
  -9   8   3   64.49    8.40
   9  -8   3   80.09   16.40
   9  -9  -3   40.60    4.90
   9   9  -3   42.50    5.80
   9  -9  -3   38.90    9.20
   9  -9  -3   35.00    4.40
  -9  -9  -3   33.40    4.20
   9  -9  -3   48.70    6.40
  -9  -9  -3   43.60    5.60
  -9   9  -3   42.30    7.60
   9  -9   3   42.90    5.30
   9  -9   3   42.30    5.00
  -9  -9   3   39.50    5.80
  -9  -9   3   36.70    4.90
   9   9   3   47.00    7.80
   9  -9   3   42.00    8.60
  -9  -9   3   44.90    5.60
 -10  -9  -3  250.77   20.00
   9 -10  -3  241.68   21.70
  10   9  -3  263.87   22.20
   9 -10  -3  266.27   20.50
   9 -10  -3  272.47   26.30
 -10  -9  -3  256.17   21.60
  -9  10  -3  301.77   24.10
   9 -10  -3  237.08   19.60
   9 -10   3  280.57   20.60
 -10  -9   3  278.57   22.30
 -10  -9   3  235.38   20.60
   9 -10   3  286.97   25.20
  10   9   3  200.48   22.50
   9 -10   3  285.47   20.80
 -10  -9   3  282.27   21.80
   8 -10  -3    5.80    4.70
 -10  -8  -3    8.80    2.10
   8 -10  -3   10.10    2.30
   8 -10  -3    6.60    2.80
  -8  10  -3   17.80    5.30
 -10  -8  -3    8.90    3.00
  10   8  -3   13.30    4.10
   8 -10  -3    6.90    1.70
   8 -10   3   10.70    2.50
 -10  -8   3    5.70    2.90
 -10  -8   3   12.10    3.00
   8 -10   3   10.80    5.10
 -10  -8   3   12.50    3.30
  10   8   3    8.60    4.10
   8 -10   3    7.70    2.40
  10   7  -3  791.42   60.59
  -7  10  -3  866.41   62.49
 -10  -7  -3  802.22   58.49
   7 -10  -3  824.02   58.39
   7 -10  -3  765.22   59.39
 -10  -7  -3  774.22   59.99
   7 -10  -3  716.13   57.49
   7 -10  -3  783.52   64.49
 -10  -7   3  741.83   59.49
   7 -10   3  821.72   58.49
   7 -10   3  815.12   63.59
 -10  -7   3  870.01   60.79
 -10  -7   3  822.52   59.99
   7 -10   3  827.62   58.79
   6 -10  -3   31.80    8.70
 -10  -6  -3   32.30    5.20
   6 -10  -3   41.60    4.90
  10   6  -3   41.00    6.00
   6 -10  -3   34.00    3.00
 -10  -6  -3   38.20    4.10
  -6  10  -3   40.60    4.50
  -6  10  -3   51.09    8.50
   6 -10  -3   33.70    3.70
  10   6   3   21.60    6.70
   6 -10   3   34.00    4.10
 -10  -6   3   37.30    5.60
   6 -10   3   39.20    4.30
   6 -10   3   38.30    8.90
 -10  -6   3   32.10    3.50
 -10  -6   3   42.90    5.40
 -10  -6   3   41.20    5.40
   5 -10  -3  452.05   34.20
 -10  -5  -3  525.35   35.60
  -5  10  -3  517.45   37.70
  -5  10  -3  459.95   34.00
   5 -10  -3  440.36   33.30
   5 -10  -3  415.16   38.70
 -10  -5  -3  436.36   33.70
 -10  -5  -3  442.86   35.40
   5 -10   3  477.15   39.10
 -10  -5   3  482.85   35.30
 -10  -5   3  446.66   35.80
   5 -10   3  420.46   33.50
   5 -10   3  471.75   33.80
 -10  -5   3  424.76   33.80
 -10  -5   3  432.06   35.10
  -4  10  -3  456.85   31.20
 -10  -4  -3  457.25   32.80
   4 -10  -3  342.47   35.00
   4 -10  -3  381.36   30.30
  -4  10  -3  500.15   34.80
   4 -10  -3  432.56   31.20
 -10  -4  -3  420.66   31.10
 -10  -4  -3  437.46   33.00
  10   4  -3  398.56   33.30
 -10  -4   3  338.67   32.10
 -10  -4   3  436.46   31.50
 -10  -4   3  423.76   32.70
 -10  -4   3  441.96   32.50
   4 -10   3  396.96   35.60
   4 -10   3  411.46   30.90
 -10  -4   3  421.06   33.20
   4 -10   3  372.16   30.60
  -3  10  -3  789.72   52.99
 -10  -3  -3  767.02   55.09
 -10  -3  -3  774.22   54.79
  10   3  -3  701.03   55.49
   3 -10  -3  737.53   52.09
 -10  -3  -3  742.93   52.29
 -10  -3  -3  723.23   52.99
   3 -10  -3  642.44   56.99
 -10  -3   3  729.83   54.29
 -10  -3   3  748.93   55.29
 -10  -3   3  718.33   53.59
   3 -10   3  691.53   52.79
 -10  -3   3  654.23   54.39
   3 -10   3  677.43   52.49
   2 -10  -3   11.80    4.70
 -10  -2  -3   14.50    2.50
 -10  -2  -3   15.20    3.60
   2 -10  -3   17.50    1.50
 -10  -2  -3   11.10    2.40
  10   2  -3   14.20    4.30
  -2  10  -3   14.40    2.40
  10   2  -3   12.90    3.10
 -10  -2  -3   13.70    4.00
 -10  -2   3   10.60    3.50
 -10  -2   3   15.20    3.70
 -10  -2   3   13.50    3.30
 -10  -2   3   16.40    3.70
 -10  -2   3   15.10    4.00
   2 -10   3   22.60    2.70
   2 -10   3   10.90    2.70
   2 -10   3   11.10    2.20
  -1  10  -3   15.60    2.20
 -10  -1  -3   13.60    2.60
  10   1  -3    8.80    2.90
 -10  -1  -3   11.90    2.50
 -10  -1  -3    9.30    3.30
  10   1  -3    7.50    3.40
 -10  -1  -3   10.50    3.30
   1 -10  -3   21.30    5.50
   1 -10   3   12.00    2.60
   1 -10   3   10.90    2.00
   1 -10   3    9.40    1.80
   1 -10   3   10.00    2.70
 -10  -1   3    6.70    2.70
 -10  -1   3   17.80    4.50
 -10  -1   3   16.20    3.70
 -10  -1   3   10.20    3.10
 -10   0  -3    1.50    1.30
 -10   0  -3    5.40    2.00
   0 -10  -3    1.40    1.30
  10   0  -3    2.70    2.80
  10   0  -3    3.30    3.10
  10   0  -3   14.80    3.50
   0  10  -3    0.00    0.90
 -10   0  -3    0.60    2.00
   0 -10  -3    5.30    3.30
 -10   0  -3    1.20    1.70
   0 -10  -3    0.00    0.80
   0 -10   3    1.80    1.40
 -10   0   3    3.30    2.30
 -10   0   3    0.30    2.00
   0 -10   3    3.10    1.60
   0 -10   3    2.10    1.10
 -10   0   3    2.30    2.30
 -10   0   3    0.70    1.70
   0 -10   3    2.30    1.10
 -10   1  -3    6.70    2.70
 -10   1  -3   12.50    2.80
 -10   1  -3   13.10    2.60
  -1 -10  -3    9.00    2.30
  -1 -10  -3   13.60    4.40
   1  10  -3    9.90    2.00
 -10   1  -3   10.50    3.80
  10  -1  -3    4.50    2.50
  -1 -10  -3   11.00    1.90
  10  -1  -3   12.60    4.30
  10  -1  -3   13.20    4.20
 -10   1   3    7.00    3.30
  -1 -10   3    8.10    2.30
  -1 -10   3   12.50    2.00
 -10   1   3    8.50    3.20
  -1 -10   3   10.30    2.40
 -10   1   3   10.10    3.30
 -10   1   3    6.60    2.80
  -1 -10   3    8.70    1.60
 -10   2  -3   11.00    3.60
  10  -2  -3   11.10    3.80
  10  -2  -3   11.30    3.40
   2  10  -3   13.90    2.40
 -10   2  -3    9.10    3.70
 -10   2  -3   13.40    3.10
 -10   2  -3   17.00    3.10
  -2 -10  -3   11.90    4.00
  -2 -10  -3   12.00    2.60
  10  -2  -3   12.90    4.40
  -2 -10  -3   15.40    2.00
 -10   2   3   10.60    3.60
  -2 -10   3   10.20    2.30
  -2 -10   3   15.50    3.10
 -10   2   3   10.00    3.00
  -2 -10   3   14.20    2.20
 -10   2   3   13.50    4.10
 -10   2   3   11.10    3.60
  -2 -10   3   17.40    1.90
  10  -3  -3  626.34   52.19
  -3 -10  -3  707.83   51.19
  -3 -10  -3  706.13   49.99
 -10   3  -3  793.32   52.49
 -10   3  -3  762.72   53.09
  10  -3  -3  631.44   52.29
   3  10  -3  686.93   50.59
 -10   3  -3  756.52   51.39
  10  -3  -3  645.74   53.39
 -10   3   3  692.83   52.39
 -10   3   3  562.84   52.49
 -10   3   3  621.74   52.29
  -3 -10   3  652.23   51.09
  -3 -10   3  724.13   51.09
  -3 -10   3  768.32   50.49
   4  10  -3  419.76   30.30
  -4 -10  -3  414.06   29.60
 -10   4  -3  338.07   32.90
  10  -4  -3  366.76   32.80
  10  -4  -3  363.56   32.00
 -10   4  -3  424.16   32.50
  10  -4  -3  394.46   31.80
 -10   4  -3  462.55   31.60
 -10   4  -3  457.35   32.20
  -4 -10  -3  441.46   30.90
  -4 -10   3  409.26   30.90
  -4 -10   3  431.46   30.80
  -4 -10   3  453.55   30.20
 -10   4   3  344.87   31.80
 -10   4   3  331.57   32.30
 -10   4   3  400.26   32.20
  10  -4   3  372.86   30.90
  10  -5  -3  429.56   34.00
 -10   5  -3  462.45   34.80
 -10   5  -3  497.75   35.50
  -5 -10  -3  455.05   32.20
  -5 -10  -3  464.85   33.50
  10  -5  -3  411.46   34.80
   5  10  -3  426.76   32.90
 -10   5  -3  502.45   34.50
 -10   5  -3  398.96   35.90
 -10   5   3  352.36   35.50
 -10   5   3  443.86   35.00
  10  -5   3  418.16   33.50
 -10   5   3  377.76   34.40
  -5 -10   3  475.15   33.50
  10  -5   3  460.65   33.70
  -5 -10   3  420.96   33.40
  -5 -10   3  470.25   32.80
 -10   5   3  425.46   35.60
  10  -6  -3   39.40    5.40
  10  -6  -3   32.80    6.20
 -10   6  -3   43.10    6.30
 -10   6  -3   39.70    6.50
  -6 -10  -3   40.90    3.90
 -10   6  -3   38.60    6.20
 -10   6  -3   36.50    7.40
  -6 -10  -3   41.90    5.00
  10  -6  -3   32.10    5.40
   6  10  -3   33.80    4.40
 -10   6   3   40.70    6.00
 -10   6   3   32.70    6.60
  -6 -10   3   41.20    4.50
 -10   6   3   33.80    6.90
  10  -6   3   41.80    5.30
  -6 -10   3   33.50    4.80
  10  -6   3   44.70    5.10
 -10   6   3   34.80    7.50
  -6 -10   3   41.90    4.90
 -10   7  -3  899.71   62.89
  10  -7  -3  763.42   61.09
  -7 -10  -3  875.71   61.29
  10  -7  -3  723.13   61.89
   7  10  -3  789.72   60.69
 -10   7  -3  766.52   63.49
  10  -7  -3  909.61   68.19
  -7 -10  -3  868.21   59.79
 -10   7  -3  833.62   61.99
  10  -7  -3  773.22   60.39
 -10   7  -3  828.02   62.49
  -7 -10   3  822.92   61.19
  -7 -10   3  865.41   60.39
 -10   7   3  741.03   63.69
  10  -7   3  865.11   60.69
  -7 -10   3  846.42   60.89
  10  -7   3  818.72   60.79
 -10   7   3  808.42   63.49
  10  -8  -3    9.60    2.50
  10  -8  -3    5.50    3.10
  10  -8  -3    8.80    2.80
  -8 -10  -3    9.40    2.10
 -10   8  -3   10.20    4.00
  10  -8  -3    8.80    5.30
 -10   8  -3    8.80    3.90
   8  10  -3   11.10    3.00
  -8 -10  -3    9.40    3.10
 -10   8  -3   14.80    4.70
  10  -8   3    9.10    2.50
  -8 -10   3    6.20    2.80
  -8 -10   3    9.80    2.50
 -10   8   3    8.10    3.40
  10  -8   3   12.80    3.10
  -8 -10   3   10.50    3.00
 -10   8   3    6.30    3.90
  10  -9  -3  243.38   22.90
  -9 -10  -3  273.37   22.50
  10  -9  -3  260.57   26.50
  -9 -10  -3  248.88   20.80
 -10   9  -3  298.47   24.40
  10  -9  -3  292.87   22.00
   9  10  -3  253.67   22.40
  10  -9  -3  273.37   21.00
  10  -9   3  298.87   21.70
  10  -9   3  286.37   21.80
  -9 -10   3  287.27   23.00
  -9 -10   3  287.17   22.40
 -10   9   3  238.68   24.60
  10  10  -3   63.69    7.90
  10 -10  -3   66.99    6.80
 -10  10  -3   72.99    9.50
  10 -10  -3   56.59    6.00
  10 -10  -3   58.99   12.20
 -10 -10  -3   63.09    6.10
 -10 -10  -3   59.59    7.50
  10 -10  -3   66.69    8.30
 -10  10   3   62.29    9.80
 -10 -10   3   59.99    7.40
  10 -10   3   72.69    7.30
  10 -10   3   69.09    7.00
 -10 -10   3   66.89    8.00
  10 -11  -3  139.19   18.00
 -11 -10  -3  136.59   13.80
 -11 -10  -3  139.79   12.10
 -10  11  -3  155.68   15.90
  10 -11  -3  167.18   12.90
  10 -11  -3  142.49   11.70
  11  10  -3  143.59   14.70
  10 -11  -3  133.39   14.00
  10 -11   3  160.28   13.00
 -11 -10   3  152.78   14.00
 -11 -10   3  159.38   14.70
  10 -11   3  164.38   13.20
 -11  -9  -3    3.80    2.50
  -9  11  -3   10.30    4.70
  11   9  -3    3.70    3.30
   9 -11  -3    8.00    3.30
   9 -11  -3    4.50    1.50
   9 -11  -3    7.80    2.20
   9 -11  -3    2.90    5.20
 -11  -9  -3    7.90    1.90
   9 -11   3    8.60    2.50
  11   9   3    1.00    3.20
 -11  -9   3    4.10    2.70
 -11  -9   3   13.50    3.70
   9 -11   3    8.20    4.90
   9 -11   3    3.20    2.30
  11   8  -3   70.59    8.90
 -11  -8  -3   74.39    6.70
 -11  -8  -3   67.79    8.10
   8 -11  -3   64.49    5.70
  -8  11  -3   87.29   10.80
   8 -11  -3   60.89   12.20
   8 -11  -3   75.39    6.70
   8 -11  -3   64.99    7.70
 -11  -8   3   69.59    8.20
 -11  -8   3   74.49    8.60
   8 -11   3   75.69    7.10
   8 -11   3   93.69   12.30
 -11  -8   3   66.79    7.40
   8 -11   3   76.59    7.10
  11   8   3   53.59   10.50
   7 -11  -3    9.80    2.10
  -7  11  -3   12.00    5.20
 -11  -7  -3    9.90    3.40
  11   7  -3    9.80    3.70
   7 -11  -3   10.10    6.00
   7 -11  -3    6.60    2.70
 -11  -7  -3    9.10    2.20
 -11  -7   3   13.90    4.20
   7 -11   3    8.40    2.40
 -11  -7   3   10.30    3.40
   7 -11   3   10.60    2.50
  11   7   3    9.70    4.50
 -11  -7   3    6.30    2.60
   7 -11   3    8.40    5.10
  11   6  -3    2.50    3.10
 -11  -6  -3    1.70    2.30
   6 -11  -3    2.40    4.30
   6 -11  -3    5.30    2.10
 -11  -6  -3    1.30    1.30
  11   6   3    2.10    3.60
   6 -11   3    2.10    1.70
   6 -11   3   10.20    4.90
 -11  -6   3    3.10    2.30
 -11  -6   3    1.90    2.00
   6 -11   3    4.50    1.80
 -11  -6   3    5.80    2.90
 -11  -5  -3  179.78   14.60
   5 -11  -3  135.09   17.20
  11   5  -3  162.18   15.60
   5 -11  -3  173.38   15.80
   5 -11  -3  163.98   12.20
 -11  -5  -3  158.08   12.80
 -11  -5  -3  171.78   14.80
   5 -11   3  157.28   12.80
 -11  -5   3  160.48   14.90
   5 -11   3  180.88   18.50
 -11  -5   3  135.89   13.90
  11   5   3  124.49   16.20
   5 -11   3  158.78   12.60
 -11  -5   3  131.19   14.00
 -11  -5   3  154.98   12.60
 -11  -5   3  161.28   14.30
   4 -11  -3   10.10    5.00
  11   4  -3   19.20    5.20
 -11  -4  -3   11.10    3.50
 -11  -4  -3    8.60    2.20
   4 -11  -3    9.60    1.60
 -11  -4  -3   14.50    3.70
 -11  -4   3    9.50    3.10
 -11  -4   3    8.80    3.30
   4 -11   3    5.60    1.90
 -11  -4   3   10.90    3.80
 -11  -4   3   15.50    3.90
   4 -11   3    7.00    4.70
   4 -11   3   10.80    2.20
  11   4   3    9.70    4.50
 -11  -4   3    8.80    2.50
 -11  -3  -3  297.37   22.90
   3 -11  -3  297.67   20.00
 -11  -3  -3  273.27   21.00
  11   3  -3  257.07   23.90
   3 -11  -3  260.27   25.60
 -11  -3  -3  314.77   23.50
   3 -11   3  241.28   25.10
   3 -11   3  259.87   20.80
 -11  -3   3  226.88   22.30
 -11  -3   3  268.87   21.70
 -11  -3   3  306.07   23.70
 -11  -3   3  230.18   22.40
   3 -11   3  277.67   20.50
 -11  -3   3  278.87   22.50
   3 -11   3  269.37   22.10
 -11  -2  -3   64.99    7.80
   2 -11  -3   69.59   11.40
  -2  11  -3   62.49    5.50
 -11  -2  -3   51.79    5.50
  11   2  -3   59.29    8.30
 -11  -2  -3   55.09    5.30
 -11  -2  -3   58.09    7.10
  11   2  -3   48.40    6.40
 -11  -2   3   65.29    8.00
   2 -11   3   52.39    5.30
 -11  -2   3   53.39    6.70
   2 -11   3   57.69    6.40
   2 -11   3   57.19    5.10
 -11  -2   3   58.69   10.60
 -11  -2   3   44.20    6.70
 -11  -2   3   47.30    6.80
   1 -11  -3   15.40    2.90
  -1  11  -3   17.90    2.50
 -11  -1  -3   14.40    2.80
 -11  -1  -3   16.50    2.90
  11   1  -3   15.20    5.00
  11   1  -3   10.40    3.30
 -11  -1  -3   16.90    4.60
 -11  -1  -3   14.50    3.80
   1 -11  -3   14.20    5.10
   1 -11   3   12.70    3.20
 -11  -1   3   15.20    4.50
 -11  -1   3   12.40    3.80
   1 -11   3   16.10    3.20
   1 -11   3   12.60    2.30
 -11  -1   3   16.10    3.90
   1 -11   3   16.10    2.30
 -11  -1   3   10.30    3.50
   0 -11  -3  141.59   13.00
   0  11  -3  166.38   12.40
 -11   0  -3  175.58   15.50
   0 -11  -3  163.08   16.00
  11   0  -3  145.19   15.60
   0 -11  -3  152.58   12.40
 -11   0  -3  153.08   12.70
  11   0  -3  124.09   13.50
 -11   0  -3  171.68   13.20
 -11   0  -3  172.08   14.70
 -11   0   3  128.79   14.10
   0 -11   3  160.58   11.70
 -11   0   3  130.69   13.90
 -11   0   3  150.98   14.90
   0 -11   3  167.18   12.30
   0 -11   3  137.19   13.20
 -11   0   3  161.98   14.10
   0 -11   3  161.68   13.20
  -1 -11  -3   14.70    2.40
  11  -1  -3   33.00    6.70
  -1 -11  -3   24.10    5.80
  -1 -11  -3   19.10    3.50
  11  -1  -3   16.30    4.20
   1  11  -3   13.20    2.40
 -11   1  -3   15.00    4.00
 -11   1  -3   13.20    4.30
  11  -1  -3   37.90    6.70
 -11   1  -3   14.70    2.90
  -1 -11   3   16.50    1.90
  -1 -11   3   13.50    2.90
 -11   1   3   13.30    4.00
 -11   1   3   21.30    4.60
  -1 -11   3   12.30    2.30
  -1 -11   3   15.70    3.30
 -11   1   3   12.10    4.10
 -11   1   3   15.40    4.10
  -2 -11  -3   62.89    9.40
  11  -2  -3   53.49    9.20
  -2 -11  -3   63.49    5.10
   2  11  -3   54.89    5.30
  11  -2  -3   49.90    7.00
 -11   2  -3   49.80    6.90
  11  -2  -3   52.39    7.70
 -11   2  -3   61.79    6.60
  -2 -11  -3   51.29    5.90
 -11   2  -3   59.09    5.90
 -11   2  -3   52.89    8.00
 -11   2   3   57.89    8.10
 -11   2   3   49.00    8.20
  -2 -11   3   47.60    5.70
 -11   2   3   59.09    7.70
  -2 -11   3   54.09    6.00
  -2 -11   3   55.09    5.10
 -11   2   3   38.50    6.40
 -11   3  -3  234.48   23.50
  11  -3  -3  229.38   22.30
 -11   3  -3  274.77   22.00
  -3 -11  -3  305.77   23.50
  -3 -11  -3  272.57   20.00
  11  -3  -3  250.67   23.70
   3  11  -3  284.57   20.60
  -3 -11  -3  278.07   21.30
  11  -3  -3  249.78   22.60
 -11   3  -3  292.97   23.00
 -11   3   3  276.67   22.80
 -11   3   3  221.58   23.10
  -3 -11   3  295.37   20.40
  -3 -11   3  266.77   21.40
 -11   3   3  244.08   22.90
  -3 -11   3  275.37   21.10
  -4 -11  -3   14.30    3.00
 -11   4  -3   12.30    4.00
  11  -4  -3    4.90    3.00
  11  -4  -3    3.70    3.50
   4  11  -3    6.60    2.00
  -4 -11  -3   10.30    1.70
  -4 -11  -3   13.40    4.20
  11  -4  -3    8.60    3.40
 -11   4  -3    6.10    3.40
 -11   4  -3   13.30    3.60
 -11   4   3    6.60    3.50
 -11   4   3    7.30    3.70
  -4 -11   3    9.60    2.10
 -11   4   3    6.20    3.50
  -4 -11   3    6.70    2.20
  -4 -11   3    9.40    2.60
 -11   4   3    9.60    3.60
 -11   5  -3  120.59   15.20
  -5 -11  -3  158.08   12.10
  -5 -11  -3  161.88   13.50
 -11   5  -3  176.08   15.30
   5  11  -3  156.38   12.90
  11  -5  -3  163.28   14.40
  11  -5  -3  136.89   14.80
 -11   5  -3  166.58   14.60
  -5 -11   3  175.08   12.80
 -11   5   3  148.49   15.40
  11  -5   3  150.38   13.50
  -5 -11   3  170.08   13.50
 -11   5   3  129.29   14.40
  -5 -11   3  159.38   13.50
 -11   5   3  147.69   15.20
   6  11  -3    2.80    1.80
 -11   6  -3    2.80    3.10
 -11   6  -3   10.00    3.70
  11  -6  -3    4.70    2.90
  11  -6  -3    3.20    2.40
 -11   6  -3    2.30    2.50
  -6 -11  -3    3.20    1.30
  11  -6  -3    2.40    2.00
  -6 -11  -3    3.50    2.10
 -11   6   3    2.70    3.50
  -6 -11   3    1.00    1.60
  -6 -11   3    1.60    1.40
  -6 -11   3    2.60    1.80
  11  -6   3    4.00    2.50
  11  -6   3    2.60    1.90
 -11   6   3    1.70    2.30
 -11   6   3    3.50    3.20
 -11   6   3    2.40    3.10
 -11   7  -3    8.30    4.10
 -11   7  -3   11.70    4.10
  11  -7  -3    8.60    3.80
  11  -7  -3   13.30    3.70
  -7 -11  -3   11.60    3.20
   7  11  -3   14.30    3.30
  11  -7  -3   11.30    3.20
 -11   7  -3    6.20    3.50
  -7 -11  -3    9.50    2.10
  11  -7   3    6.90    2.50
 -11   7   3   18.00    5.60
 -11   7   3    9.40    3.70
 -11   7   3   13.50    4.80
  -7 -11   3    8.00    2.70
 -11   7   3   10.10    4.60
  11  -7   3    9.80    3.00
  11  -8  -3   85.09    9.80
 -11   8  -3   96.49   10.10
  -8 -11  -3   83.19    8.40
  11  -8  -3   68.69    8.00
  11  -8  -3   70.59    7.60
  -8 -11  -3   80.79    6.90
 -11   8  -3   78.49   10.50
   8  11  -3   77.89    8.00
 -11   8  -3   68.49    9.20
  11  -8   3   91.79    8.40
  -8 -11   3   71.89    8.20
  -8 -11   3   82.49    8.20
 -11   8   3   62.69   10.50
 -11   8   3   60.69   10.10
 -11   8   3   57.99    8.60
  11  -8   3   70.69    7.70
  -9 -11  -3    5.30    2.70
  11  -9  -3    7.50    3.80
  -9 -11  -3    9.40    2.10
  11  -9  -3    6.30    2.30
 -11   9  -3    4.20    3.50
  11  -9  -3    3.70    2.30
   9  11  -3   21.80    4.60
 -11   9  -3    0.30    2.80
 -11   9   3    3.20    3.70
  11  -9   3    9.80    3.20
  11  -9   3    7.90    2.80
 -11   9   3   11.60    4.20
  -9 -11   3    5.50    3.00
  -9 -11   3    6.70    2.70
  10  11  -3  140.89   13.90
 -10 -11  -3  124.69   13.40
 -10 -11  -3  141.19   11.80
  11 -10  -3  152.08   12.10
 -11  10  -3  157.38   15.40
  11 -10  -3  124.79   14.00
  11 -10  -3  169.68   13.30
 -11  10  -3  126.89   15.50
 -10 -11   3  152.98   14.30
  11 -10   3  163.68   13.20
 -11  10   3  127.69   15.90
  11 -10   3  170.18   13.20
 -10 -11   3  146.19   13.60
 -11  11  -3   56.69    9.70
 -11  11  -3   79.39   10.20
  11 -11  -3   85.09    7.60
  11 -11  -3   64.99    9.80
  11  11  -3   72.09    8.80
 -11 -11  -3   67.29    6.30
  11 -11  -3   61.59    6.20
 -11 -11  -3   53.59    7.80
 -11 -11   3   73.59    9.00
  11 -11   3   83.29    7.90
 -11 -11   3   69.99    8.20
 -11  11   3   66.69   10.50
 -12 -10  -3   38.00    6.40
  10 -12  -3   46.00   12.20
  10 -12  -3   38.40    6.80
  10 -12  -3   51.69    5.50
 -12 -10  -3   46.60    4.90
  12  10  -3   45.60    8.30
 -10  12  -3   60.69   10.50
 -12 -10   3   49.60    7.40
 -12 -10   3   48.20    7.40
  10 -12   3   55.99    6.00
  10 -12   3   49.30    6.00
  -9  12  -3   33.80    8.40
   9 -12  -3   24.20    5.00
 -12  -9  -3   17.90    4.60
  12   9  -3   19.40    5.90
   9 -12  -3   18.70    7.60
   9 -12  -3   27.40    3.60
 -12  -9  -3   17.50    3.10
 -12  -9   3   21.50    4.80
 -12  -9   3   18.10    4.80
   9 -12   3   27.80    4.20
  12   9   3   16.90    6.00
   9 -12   3   14.60    6.60
   9 -12   3   25.10    4.00
 -12  -8  -3  333.87   25.50
   8 -12  -3  340.37   25.50
   8 -12  -3  279.07   26.30
  12   8  -3  297.97   28.30
 -12  -8  -3  331.47   27.40
   8 -12  -3  341.87   32.60
   8 -12   3  368.46   26.10
   8 -12   3  356.16   25.70
 -12  -8   3  377.76   27.90
 -12  -8   3  324.47   27.80
   8 -12   3  343.97   31.60
   7 -12  -3   51.69    4.90
  12   7  -3   36.60    7.60
 -12  -7  -3   54.79    7.00
 -12  -7  -3   48.10    5.10
   7 -12  -3   43.60   11.00
  12   7   3   38.90    9.00
   7 -12   3   42.40   10.00
 -12  -7   3   51.59    6.90
   7 -12   3   48.10    5.40
   7 -12   3   46.30    5.40
 -12  -7   3   47.40    6.20
 -12  -7   3   47.00    6.90
   6 -12  -3    0.30    1.10
   6 -12  -3    2.70    4.60
  12   6  -3    2.00    3.40
 -12  -6  -3    6.10    1.90
 -12  -6  -3    0.20    2.30
 -12  -6   3    4.90    2.60
 -12  -6   3    0.70    2.60
   6 -12   3    2.10    1.90
 -12  -6   3    3.60    2.60
   6 -12   3    4.70    4.90
  12   6   3   -0.70    3.20
  12   5  -3    6.60    4.30
 -12  -5  -3   12.40    3.70
 -12  -5  -3    8.00    2.20
 -12  -5  -3   13.50    4.00
   5 -12  -3    8.10    1.60
   5 -12  -3    7.50    5.00
   5 -12   3    7.10    2.10
 -12  -5   3    8.10    3.20
 -12  -5   3    4.90    3.10
 -12  -5   3    7.40    3.30
  12   5   3    5.50    4.00
   5 -12   3    3.60    1.80
   5 -12   3   13.90    6.10
 -12  -5   3   20.40    4.40
 -12  -4  -3    2.10    1.50
 -12  -4  -3    3.20    2.80
  12   4  -3    3.00    3.70
 -12  -4  -3    1.80    2.40
   4 -12  -3    7.00    5.20
   4 -12  -3    3.70    1.10
 -12  -4   3    6.70    2.30
  12   4   3    3.70    3.90
 -12  -4   3    1.10    2.10
 -12  -4   3    0.70    2.10
 -12  -4   3    4.00    2.50
   4 -12   3    4.60    1.80
 -12  -4   3    1.70    2.60
   4 -12   3    5.60    1.90
   4 -12   3    5.60    4.50
   3 -12  -3  260.17   27.70
 -12  -3  -3  327.97   23.40
 -12  -3  -3  344.97   25.90
 -12  -3  -3  341.37   25.40
  12   3  -3  284.57   26.70
 -12  -3   3  287.17   23.70
 -12  -3   3  314.47   25.90
 -12  -3   3  243.88   24.60
   3 -12   3  265.17   27.80
 -12  -3   3  302.57   24.70
   3 -12   3  311.07   23.20
   3 -12   3  304.87   22.60
   2 -12  -3    3.50    4.10
   2 -12  -3    2.60    1.70
 -12  -2  -3    3.10    2.30
 -12  -2  -3    2.00    1.60
  12   2  -3    0.10    3.20
 -12  -2  -3    1.40    2.70
 -12  -2  -3    4.60    1.60
 -12  -2   3    1.80    2.30
   2 -12   3    3.20    1.40
  12   2   3    4.10    3.90
 -12  -2   3    1.40    2.50
   2 -12   3    3.60    2.20
   2 -12   3    2.60    3.50
 -12  -2   3    1.60    2.30
   2 -12   3    1.40    1.30
 -12  -2   3    0.80    2.10
 -12  -1  -3  499.95   39.10
 -12  -1  -3  488.05   37.20
  12   1  -3  471.85   38.60
   1 -12  -3  525.85   37.40
 -12  -1  -3  512.25   37.30
 -12  -1  -3  531.95   40.10
  12   1  -3  454.65   40.70
   1 -12  -3  480.85   41.30
   1 -12   3  512.75   36.10
 -12  -1   3  542.95   40.20
   1 -12   3  529.65   38.10
 -12  -1   3  447.46   39.10
   1 -12   3  398.26   40.50
 -12  -1   3  485.75   38.20
   1 -12   3  515.15   36.90
  12   0  -3   -0.90    2.00
 -12   0  -3    1.70    1.70
 -12   0  -3    1.70    1.60
   0 -12  -3    0.50    1.40
 -12   0  -3   -0.10    2.20
   0 -12  -3    3.20    3.20
   0 -12  -3    1.60    1.30
 -12   0  -3    1.00    2.90
  12   0  -3    1.70    3.40
 -12   0   3    0.70    2.40
   0 -12   3    3.60    2.10
 -12   0   3    2.10    2.70
   0 -12   3    2.50    1.80
 -12   0   3    2.30    2.40
   0 -12   3    2.80    3.40
 -12   0   3   -2.10    2.00
 -12   1  -3  546.65   40.10
  12  -1  -3  437.86   37.90
 -12   1  -3  499.05   37.00
 -12   1  -3  530.65   36.60
  -1 -12  -3  494.95   39.70
  12  -1  -3  498.65   38.90
 -12   1  -3  529.05   38.60
  -1 -12  -3  529.15   36.00
   1  12  -3  501.25   36.30
  12  -1  -3  425.26   39.70
  -1 -12  -3  438.86   36.80
 -12   1   3  392.36   37.80
 -12   1   3  480.05   37.90
  -1 -12   3  542.45   36.00
  -1 -12   3  490.45   36.80
  -1 -12   3  439.96   37.10
 -12   1   3  404.86   38.10
 -12   1   3  506.95   39.50
 -12   2  -3    3.60    3.30
 -12   2  -3    2.40    2.10
 -12   2  -3    1.50    1.70
  -2 -12  -3    0.70    1.60
   2  12  -3    3.00    1.50
  12  -2  -3    1.30    2.40
  12  -2  -3   15.00    4.60
 -12   2  -3    2.20    2.30
  -2 -12  -3    2.80    3.20
  12  -2  -3    1.70    3.20
  -2 -12  -3    2.70    1.30
 -12   2   3    2.00    3.00
 -12   2   3    1.60    2.80
 -12   2   3    2.00    2.40
  -2 -12   3    1.70    1.60
 -12   2   3    0.70    2.30
  -2 -12   3    1.70    1.40
  -2 -12   3    3.60    2.10
  -3 -12  -3  303.47   21.90
  12  -3  -3  285.27   26.30
 -12   3  -3  293.67   23.80
 -12   3  -3  268.27   25.80
  12  -3  -3  262.27   24.50
 -12   3  -3  314.17   25.00
   3  12  -3  291.67   22.40
  -3 -12  -3  282.87   23.20
  -3 -12  -3  349.27   25.90
  12  -3  -3  323.77   25.20
  -3 -12   3  312.97   22.20
 -12   3   3  287.97   26.00
 -12   3   3  238.98   24.30
  -3 -12   3  320.17   23.20
 -12   3   3  295.87   24.70
 -12   3   3  255.67   24.80
  -3 -12   3  269.17   23.20
   4  12  -3    6.40    2.10
  12  -4  -3    6.00    3.50
 -12   4  -3    4.10    3.40
 -12   4  -3    2.50    2.80
 -12   4  -3    1.00    2.20
  -4 -12  -3    2.60    1.20
  12  -4  -3    7.40    3.60
  -4 -12  -3    6.50    2.40
  12  -4  -3    0.70    3.40
 -12   4   3    7.70    4.00
  -4 -12   3    7.10    2.50
  -4 -12   3    1.50    1.80
 -12   4   3    2.80    2.80
 -12   4   3    2.10    2.40
 -12   4   3    1.00    3.40
  -4 -12   3    0.60    2.80
  -4 -12   3    5.90    1.80
 -12   5  -3    9.40    3.70
  -5 -12  -3    7.20    1.70
 -12   5  -3    9.90    3.60
  -5 -12  -3   10.30    3.00
 -12   5  -3    4.70    3.60
  12  -5  -3    7.40    3.10
   5  12  -3    6.20    2.20
  12  -5  -3    4.80    3.40
  12  -5  -3   15.40    4.30
  -5 -12   3    8.40    2.80
 -12   5   3   10.00    4.30
  -5 -12   3    8.20    2.30
 -12   5   3    6.50    3.70
 -12   5   3    8.00    4.40
  -5 -12   3    7.70    2.50
 -12   5   3    7.30    3.30
  -5 -12   3    9.40    4.00
  12  -6  -3    3.20    2.50
 -12   6  -3    2.60    2.70
 -12   6  -3    0.80    2.90
  -6 -12  -3    1.90    1.20
  -6 -12  -3    3.60    2.20
  12  -6  -3    2.40    2.70
 -12   6  -3    3.60    2.70
   6  12  -3    3.30    2.00
  12  -6   3    1.20    1.80
  12  -6   3    2.20    2.50
 -12   6   3   -0.50    2.30
 -12   6   3    7.70    4.20
 -12   6   3    0.80    3.00
 -12   6   3    1.10    2.80
  -6 -12   3    6.60    2.50
  -6 -12   3    3.70    2.30
   7  12  -3   52.29    6.00
  12  -7  -3   48.50    6.60
  12  -7  -3   49.20    6.80
 -12   7  -3   55.59    7.90
  -7 -12  -3   50.79    4.90
  12  -7  -3   45.30    8.50
 -12   7  -3   44.20    9.00
 -12   7  -3   55.09    7.50
  -7 -12  -3   53.49    6.40
  12  -7   3   49.20    6.50
 -12   7   3   52.19    9.00
 -12   7   3   31.20    7.00
 -12   7   3   37.60    8.50
  12  -7   3   50.59    6.10
 -12   7   3   58.29   10.00
  -7 -12   3   47.00    6.00
  -7 -12   3   51.29    6.50
 -12   8  -3  388.66   28.90
 -12   8  -3  324.17   27.80
  12  -8  -3  360.46   27.20
  -8 -12  -3  332.37   27.00
 -12   8  -3  262.47   28.70
   8  12  -3  345.07   26.60
  12  -8  -3  336.97   26.10
  12  -8  -3  309.57   28.20
  -8 -12  -3  331.77   25.10
  12  -8   3  351.76   26.50
  12  -8   3  388.46   26.80
 -12   8   3  266.27   27.50
  -8 -12   3  323.37   27.10
 -12   8   3  349.17   30.20
 -12   8   3  338.87   29.30
  -8 -12   3  317.37   26.40
  12  -9  -3   18.20    5.50
  -9 -12  -3   24.40    5.10
 -12   9  -3   17.80    6.10
  12  -9  -3   24.00    4.10
  12  -9  -3   23.20    4.70
  -9 -12  -3   17.80    3.00
 -12   9  -3   26.50    6.10
   9  12  -3   23.20    4.90
  -9 -12   3   19.50    4.40
  12  -9   3   27.80    4.90
  12  -9   3   28.20    4.70
  -9 -12   3   19.20    4.70
 -12   9   3   20.10    6.30
 -12   9   3   18.30    5.50
 -10 -12  -3   50.99    6.90
 -10 -12  -3   46.90    4.80
  12 -10  -3   52.69    6.40
  10  12  -3   52.99    7.20
 -12  10  -3   67.89    9.70
 -12  10  -3   37.70    8.60
  12 -10  -3   34.20    7.30
  12 -10  -3   53.49    5.80
 -10 -12   3   46.70    6.50
 -12  10   3   40.30    9.00
  12 -10   3   49.70    6.90
  12 -10   3   53.59    6.20
 -10 -12   3   47.90    6.90
   9 -13  -3   72.19    6.80
   9 -13  -3   78.89   15.00
 -13  -9  -3   73.59    8.70
 -13  -9  -3   66.59    6.60
  13   9  -3   65.69   10.00
   9 -13   3   74.09    7.30
  13   9   3   51.09   10.60
   9 -13   3   76.79    7.50
   9 -13   3   82.49   14.50
   9 -13   3   70.09   14.10
 -13  -9   3   72.19    8.70
 -13  -9   3   67.19    9.00
 -13  -8  -3    2.10    2.60
  13   8  -3    9.60    4.60
   8 -13  -3   24.50    9.00
   8 -13  -3    2.10    1.50
 -13  -8  -3    2.00    1.60
   8 -13   3    0.10    1.70
   8 -13   3    1.00    2.00
  13   8   3   -2.40    3.00
 -13  -8   3    4.30    2.90
 -13  -8   3    3.70    3.10
   8 -13   3    0.30    4.30
   7 -13  -3  299.67   31.90
 -13  -7  -3  327.77   25.00
  13   7  -3  305.47   28.60
 -13  -7  -3  337.77   27.10
   7 -13  -3  331.77   24.60
 -13  -7   3  329.57   27.50
   7 -13   3  356.66   25.50
   7 -13   3  335.57   24.80
 -13  -7   3  313.27   26.90
 -13  -7   3  293.47   25.90
   7 -13   3  355.66   32.10
 -13  -6  -3  132.29   11.40
 -13  -6  -3  161.38   13.90
   6 -13  -3  135.79   10.80
   6 -13  -3  126.89   20.60
  13   6  -3  132.79   15.20
   6 -13   3  140.99   11.20
   6 -13   3  135.49   17.40
 -13  -6   3  146.09   13.50
 -13  -6   3  108.49   12.30
   6 -13   3  140.69   11.70
  13   6   3  106.29   15.20
 -13  -6   3  150.48   14.10
   5 -13  -3   39.70   10.60
  13   5  -3   51.29    9.50
 -13  -5  -3   57.59    7.30
 -13  -5  -3   56.29    7.40
 -13  -5  -3   48.50    5.30
   5 -13   3   44.00    5.30
 -13  -5   3   65.89    7.40
  13   5   3   38.20    9.30
 -13  -5   3   52.09    7.30
 -13  -5   3   52.99    7.40
   5 -13   3   46.50    5.10
   5 -13   3   40.70   10.20
 -13  -5   3   43.20    6.90
 -13  -4  -3   19.50    3.40
 -13  -4  -3   21.00    5.00
 -13  -4  -3   27.80    5.40
  13   4  -3   23.90    6.70
   4 -13  -3   25.00    8.20
 -13  -4   3   25.70    5.60
 -13  -4   3   26.60    3.70
   4 -13   3   20.00    7.50
 -13  -4   3   15.60    4.70
 -13  -4   3   21.90    4.60
 -13  -4   3   24.10    5.20
   4 -13   3   21.00    3.00
   4 -13   3   21.40    3.50
  13   4   3   23.10    7.40
 -13  -3  -3   79.49    9.00
 -13  -3  -3   94.19   10.00
  13   3  -3   68.39   11.80
 -13  -3  -3   79.79    7.30
   3 -13  -3   61.39   12.30
   3 -13  -3   74.69    7.90
  13   3   3   54.19   12.00
 -13  -3   3   62.29    8.60
 -13  -3   3   61.39    8.80
 -13  -3   3   74.09    7.80
   3 -13   3   81.19    6.50
   3 -13   3   70.79    7.00
   3 -13   3   60.39   12.00
   3 -13   3   82.19    8.60
 -13  -3   3   90.19    9.90
 -13  -2  -3  114.79   10.00
   2 -13  -3  119.29   14.70
   2 -13  -3  115.39   10.40
 -13  -2  -3   96.69   11.30
 -13  -2  -3  136.29   13.00
 -13  -2  -3  118.99    9.50
  13   2  -3  104.89   13.80
   2 -13   3  129.79   11.30
  13   2   3   89.59   13.90
 -13  -2   3  114.39   10.90
 -13  -2   3   95.89   11.60
   2 -13   3  119.69    8.80
 -13  -2   3  121.19   12.60
   2 -13   3  102.49   14.20
   2 -13   3  114.99    9.70
 -13  -2   3   87.99   11.20
 -13  -1  -3  275.57   23.50
   1 -13  -3  272.77   25.90
  13   1  -3  260.57   25.60
 -13  -1  -3  274.87   21.50
   1 -13  -3  259.17   21.60
 -13  -1  -3  280.57   21.60
 -13  -1  -3  304.57   24.70
   1 -13   3  321.17   22.90
 -13  -1   3  293.97   24.50
   1 -13   3  263.27   21.20
 -13  -1   3  270.27   22.60
   1 -13   3  227.88   25.10
 -13   0  -3  217.78   17.20
 -13   0  -3  244.08   19.50
 -13   0  -3  246.68   20.60
  13   0  -3  193.98   21.10
   0 -13  -3  209.18   20.90
  13   0  -3  212.88   19.20
   0 -13  -3  228.38   17.10
 -13   0  -3  225.98   17.50
   0 -13   3  223.18   18.00
   0 -13   3  235.08   16.80
 -13   0   3  172.28   18.70
 -13   0   3  187.08   19.00
 -13   0   3  195.88   18.40
   0 -13   3  168.78   17.70
   0 -13   3  188.78   20.70
 -13   0   3  251.17   20.60
 -13   1  -3  278.37   22.70
  -1 -13  -3  269.27   20.00
  -1 -13  -3  270.67   23.90
  13  -1  -3  237.78   22.30
  -1 -13  -3  221.68   20.90
 -13   1  -3  278.67   21.10
  13  -1  -3  252.97   24.70
 -13   1  -3  301.57   24.30
 -13   1  -3  273.17   20.60
 -13   1   3  210.18   22.00
  -1 -13   3  239.78   23.80
  -1 -13   3  220.88   21.10
 -13   1   3  267.57   23.60
  -1 -13   3  289.37   21.20
 -13   1   3  246.78   21.90
  -1 -13   3  280.27   20.00
 -13   2  -3  118.59   13.40
  -2 -13  -3  100.19   10.40
 -13   2  -3  121.19   12.20
  13  -2  -3  104.49   12.00
  -2 -13  -3  118.89    9.30
  13  -2  -3  135.69   13.00
 -13   2  -3  138.09   11.10
  -2 -13  -3  127.39   13.20
  13  -2  -3  109.89   13.80
 -13   2   3   81.99   11.30
 -13   2   3  101.99   11.80
 -13   2   3  110.09   12.90
  -2 -13   3   92.99   12.50
  -2 -13   3  116.79   10.50
 -13   2   3   87.29   11.60
  -2 -13   3   98.19   10.50
  -2 -13   3  122.39    9.50
 -13   3  -3   70.39   10.20
 -13   3  -3   64.49    9.10
  -3 -13  -3  112.99   11.10
  13  -3  -3   79.49   10.00
 -13   3  -3   89.49    8.70
  13  -3  -3   67.39    9.50
  -3 -13  -3   77.39    6.70
  -3 -13  -3   73.19    8.10
  13  -3  -3   74.69   11.10
  -3 -13   3   83.59    8.10
  -3 -13   3   64.29    7.80
  -3 -13   3   70.29   11.30
  -3 -13   3   88.79    7.00
 -13   3   3   72.59   10.40
 -13   3   3   68.89    9.50
 -13   3   3   53.59    8.80
 -13   3   3   84.09   10.10
  -4 -13  -3   21.80    2.80
 -13   4  -3   26.60    5.10
 -13   4  -3   20.00    6.00
  13  -4  -3   19.20    5.20
 -13   4  -3   26.90    5.80
  -4 -13  -3   22.10    4.40
  13  -4  -3   22.00    5.70
 -13   4   3   17.70    5.30
  -4 -13   3   25.70    6.60
 -13   4   3    8.40    4.90
  -4 -13   3   25.20    4.50
  -4 -13   3   22.70    4.40
 -13   4   3   16.80    5.30
 -13   4   3   18.60    5.40
  13  -5  -3   58.69    7.90
 -13   5  -3   53.99    7.80
  13  -5  -3   50.19    8.90
 -13   5  -3   47.60    7.30
 -13   5  -3   39.20    8.60
  -5 -13  -3   47.70    4.60
  -5 -13  -3   52.99    6.40
  13  -5  -3   51.29    7.70
 -13   5   3   35.50    7.30
 -13   5   3   33.10    8.00
 -13   5   3   45.00    8.60
  -5 -13   3   47.50    6.10
  -5 -13   3   50.69    6.00
 -13   5   3   41.40    7.90
  13  -6  -3  148.29   13.90
 -13   6  -3  157.48   14.90
  13  -6  -3  148.99   13.80
  -6 -13  -3  134.69   11.30
  13  -6  -3  129.29   14.80
  -6 -13  -3  148.59   13.40
 -13   6  -3  153.48   14.00
   6  13  -3  168.58   12.70
  13  -6   3  154.68   13.20
 -13   6   3  139.89   15.30
  -6 -13   3  142.89   12.80
 -13   6   3  112.89   15.30
 -13   6   3  118.69   14.20
 -13   6   3  142.39   15.10
  -6 -13   3  128.59   13.10
 -13   7  -3  312.87   27.50
  13  -7  -3  311.27   28.60
 -13   7  -3  389.16   29.00
  13  -7  -3  351.26   27.00
  -7 -13  -3  324.97   27.00
   7  13  -3  341.57   26.40
  -7 -13  -3  328.27   25.00
  13  -7  -3  372.76   27.80
  -7 -13   3  294.47   26.90
 -13   7   3  315.27   28.80
 -13   7   3  338.97   29.00
 -13   7   3  253.57   27.60
  13  -7   3  362.36   26.80
  13  -7   3  379.46   27.00
  -7 -13   3  326.77   26.50
 -13   8  -3   -0.20    2.80
  -8 -13  -3    1.60    1.30
  13  -8  -3    4.70    2.70
 -13   8  -3    0.50    2.60
  13  -8  -3    2.80    3.40
  -8 -13  -3    1.40    2.20
   8  13  -3    2.50    2.50
  13  -8  -3   -0.10    2.50
 -13   8  -3    2.60    3.20
  13  -8   3    1.30    2.90
  -8 -13   3    3.80    2.80
  13  -8   3    2.10    2.30
  -8 -13   3    4.70    2.60
 -13   8   3    3.00    3.70
 -13   8   3    3.40    4.40
 -13   8   3    1.70    3.10
 -13   8   3    1.40    3.40
  13  -9  -3   54.89    9.90
 -13   9  -3   69.39    9.30
  13  -9  -3   85.89    8.10
   9  13  -3   68.09    8.30
 -13   9  -3   47.20   10.00
  -9 -13  -3   65.79    6.30
  -9 -13  -3   70.29    8.50
 -13   9   3  106.89   20.10
 -13   9   3   65.69    9.50
  -9 -13   3   74.09    8.20
  -9 -13   3   68.59    8.50
  13  -9   3   91.19    8.40
  13  -9   3   83.29    8.80
 -14  -7  -3   67.59    6.80
   7 -14  -3   57.69   13.60
 -14  -7  -3   73.89    8.90
  14   7  -3   69.99   11.80
 -14  -7   3   78.09    9.40
   7 -14   3   67.59    6.70
   7 -14   3   67.39   13.30
 -14  -7   3   74.39    8.90
   7 -14   3   80.49    7.40
  14   7   3   52.29   11.20
  14   6  -3  154.28   17.60
 -14  -6  -3  194.38   16.10
   6 -14  -3  148.59   20.10
   6 -14  -3  162.18   15.00
 -14  -6  -3  157.88   13.30
 -14  -6   3  142.99   14.30
 -14  -6   3  185.08   16.30
   6 -14   3  174.68   13.70
   6 -14   3  167.88   12.80
   6 -14   3  161.18   19.80
  14   6   3  112.29   17.10
 -14  -6   3  145.39   14.90
   5 -14  -3  287.97   22.20
 -14  -5  -3  298.57   22.90
 -14  -5  -3  308.87   23.40
   5 -14  -3  233.18   26.90
 -14  -5  -3  248.48   20.50
  14   5  -3  234.98   24.60
   5 -14   3  264.27   20.60
   5 -14   3  246.18   26.60
  14   5   3  194.08   24.60
 -14  -5   3  222.68   21.70
 -14  -5   3  250.27   22.10
   5 -14   3  261.67   19.60
 -14  -5   3  318.37   23.90
   4 -14  -3   63.89    7.40
 -14  -4  -3   80.59    8.90
   4 -14  -3   56.39   11.90
  14   4  -3   70.69   12.20
 -14  -4  -3   62.69    6.60
 -14  -4  -3   77.19    9.20
 -14  -4   3   56.59    7.90
   4 -14   3   62.49    6.60
  14   4   3   47.80   11.20
   4 -14   3   53.29   11.90
 -14  -4   3   78.89    9.20
 -14  -4   3   63.29    8.80
 -14  -3  -3    4.60    3.20
   3 -14  -3    3.20    4.60
  14   3  -3    0.20    4.10
   3 -14  -3    1.70    1.90
 -14  -3  -3    0.50    2.50
 -14  -3  -3    3.20    1.90
 -14  -3   3    0.80    2.30
  14   3   3    1.00    4.00
 -14  -3   3    4.50    2.30
   3 -14   3    3.20    4.10
   3 -14   3    4.60    2.00
 -14  -3   3    5.30    3.70
 -14  -3   3   -1.90    2.40
   2 -14  -3  316.27   24.30
 -14  -2  -3  284.37   23.70
  14   2  -3  287.37   28.30
 -14  -2  -3  344.77   26.30
   2 -14  -3  261.37   28.20
 -14  -2  -3  345.27   27.00
 -14  -2   3  241.08   25.60
   2 -14   3  337.37   23.70
   2 -14   3  307.87   25.10
 -14  -2   3  316.77   24.30
 -14  -2   3  336.97   26.90
   2 -14   3  259.27   28.10
  14   1  -3   10.00    5.60
   1 -14  -3    9.30    5.00
 -14  -1  -3    8.50    2.50
 -14  -1  -3   10.40    4.40
 -14  -1  -3    9.20    3.80
 -14  -1  -3    8.70    2.30
   1 -14  -3    9.80    2.70
   1 -14   3    7.90    5.00
 -14  -1   3    5.80    3.40
 -14  -1   3   10.20    4.50
   1 -14   3    5.70    2.80
   1 -14   3   10.70    2.40
  14   1   3    3.70    4.60
 -14  -1   3   10.10    3.70
 -14  -1   3    4.40    3.10
   0 -14  -3    4.60    4.40
 -14   0  -3   -0.80    2.40
  14   0  -3    4.20    4.40
 -14   0  -3    1.10    3.30
   0 -14  -3   -0.60    1.30
  14   0  -3   -0.10    2.70
 -14   0  -3    0.10    1.60
 -14   0  -3    2.90    1.90
 -14   0   3    0.80    3.00
   0 -14   3   -0.30    3.10
   0 -14   3   -0.70    1.80
 -14   0   3    1.10    2.90
   0 -14   3    1.40    1.40
 -14   0   3   -1.80    1.90
 -14   0   3    1.20    3.10
  14   0   3    3.60    4.70
 -14   1  -3    6.00    2.30
  -1 -14  -3    7.40    4.30
  -1 -14  -3    7.60    2.20
  14  -1  -3    4.90    3.70
 -14   1  -3   10.30    4.10
 -14   1  -3    7.50    4.50
 -14   1  -3    6.50    2.50
  14  -1  -3    5.10    5.00
 -14   1   3   10.00    4.80
  -1 -14   3    3.80    4.30
  -1 -14   3    5.70    2.70
 -14   1   3    4.90    3.60
 -14   1   3   11.50    4.30
  -1 -14   3    8.20    2.10
 -14   1   3    8.80    4.20
  -1 -14   3    8.80    2.90
  -2 -14  -3  250.87   24.00
  14  -2  -3  337.57   27.30
  14  -2  -3  271.97   27.60
 -14   2  -3  328.77   24.30
  14  -2  -3  290.77   25.90
  -2 -14  -3  300.57   22.80
 -14   2  -3  332.47   27.70
 -14   2  -3  314.17   25.90
  -2 -14  -3  330.97   27.10
 -14   2   3  318.47   25.40
 -14   2   3  278.07   25.80
 -14   2   3  243.58   25.30
  -2 -14   3  291.67   27.20
 -14   2   3  317.07   27.20
  -2 -14   3  296.67   24.10
  14  -3  -3    0.70    3.50
  14  -3  -3    3.10    3.50
  -3 -14  -3    5.60    3.80
  -3 -14  -3    3.40    1.50
 -14   3  -3    1.10    2.20
  -3 -14  -3    6.90    2.90
 -14   3  -3    4.40    4.00
  14  -3  -3    2.40    4.60
 -14   3  -3    0.80    3.00
 -14   3   3    5.80    3.70
  -3 -14   3    2.90    3.50
 -14   3   3    2.50    3.50
  -3 -14   3    3.40    2.40
  -3 -14   3    1.30    2.10
 -14   3   3    2.10    3.70
 -14   3   3   -1.20    2.50
  -4 -14  -3   67.49    7.90
 -14   4  -3   68.99    8.00
  14  -4  -3   71.19   11.00
  14  -4  -3   73.69    9.60
 -14   4  -3   62.79   10.10
 -14   4  -3   76.79    9.40
  -4 -14  -3   64.49    6.00
  -4 -14   3   63.09    7.70
  -4 -14   3   86.79   11.00
 -14   4   3   55.49    9.70
 -14   4   3   50.99   10.00
  -4 -14   3   73.79    7.70
 -14   4   3   63.69    9.60
 -14   4   3   66.29    9.40
  14  -5  -3  229.58   21.80
  14  -5  -3  272.47   21.10
 -14   5  -3  291.97   22.40
 -14   5  -3  209.98   22.50
 -14   5  -3  259.97   20.70
  -5 -14  -3  242.28   18.10
  -5 -14  -3  239.28   20.40
 -14   5   3  223.28   22.90
 -14   5   3  207.88   21.40
  -5 -14   3  247.78   19.80
 -14   5   3  194.48   21.20
  -5 -14   3  209.28   19.90
 -14   5   3  256.37   21.90
 -14   6  -3  147.09   14.50
 -14   6  -3  164.58   15.70
  14  -6  -3  173.68   15.00
  14  -6  -3  189.38   15.30
  -6 -14  -3  158.48   14.40
  14  -6  -3  148.79   15.90
  -6 -14  -3  152.98   12.10
 -14   6   3  121.29   15.00
 -14   6   3  128.39   16.40
 -14   6   3  154.68   16.10
  -6 -14   3  156.78   13.70
  -6 -14   3  130.39   13.90
 -14   6   3  148.39   15.80
  -7 -14  -3   70.59    8.40
  14  -7  -3   79.49    9.00
  -7 -14  -3   72.39    6.30
  14  -7  -3   66.09   11.00
  14  -7  -3   86.59    9.20
 -14   7  -3   56.19   11.10
 -14   7  -3   65.19    8.60
  14  -7   3   75.89    8.00
 -14   7   3   75.99   10.80
  -7 -14   3   57.09    8.10
  -7 -14   3   68.89    7.80
 -14   7   3   51.59    9.50
  14  -7   3   88.09    9.70
 -14   7   3   46.90   10.30
 -14   7   3   70.89   11.10
   5 -15  -3   15.50    4.00
 -15  -5  -3   14.40    4.80
  15   5  -3    6.10    4.90
   5 -15  -3   16.40    8.00
 -15  -5  -3   11.50    2.80
   5 -15   3    6.50    6.00
  15   5   3    6.30    5.60
   5 -15   3   12.50    3.00
 -15  -5   3   11.20    3.90
 -15  -5   3   14.40    4.90
   4 -15  -3   30.50    9.90
   4 -15  -3   36.90    6.00
  15   4  -3   40.10    9.20
 -15  -4  -3   44.70    7.60
 -15  -4  -3   27.80    4.40
 -15  -4  -3   36.10    6.80
  15   4   3   28.90    8.90
 -15  -4   3   27.60    6.70
   4 -15   3   31.90    4.50
 -15  -4   3   32.90    6.30
 -15  -4   3   34.40    7.10
   4 -15   3   28.90    9.60
   3 -15  -3   99.89    9.70
 -15  -3  -3  119.89   12.20
   3 -15  -3   77.29   14.60
  15   3  -3   89.79   13.80
 -15  -3  -3   92.39    8.90
 -15  -3  -3  101.79   11.20
 -15  -3   3   88.09   11.30
   3 -15   3   98.89    8.90
  15   3   3   67.59   13.90
   3 -15   3  104.19   16.50
 -15  -3   3  107.39   11.90
 -15  -3   3   96.49   10.80
  15   2  -3  156.48   18.20
   2 -15  -3  129.39   17.70
 -15  -2  -3  174.48   15.90
 -15  -2  -3  152.78   13.40
   2 -15  -3  149.88   13.70
 -15  -2   3  194.48   17.00
   2 -15   3  148.89   18.20
 -15  -2   3  176.88   13.60
  15   2   3  107.29   17.50
   2 -15   3  164.28   14.90
 -15  -2   3  147.59   15.80
   2 -15   3  170.58   13.20
 -15  -2   3  147.59   15.20
 -15  -1  -3    1.60    3.60
   1 -15  -3    5.90    4.20
 -15  -1  -3    0.80    1.80
  15   1  -3    4.60    4.70
 -15  -1  -3    2.60    3.10
   1 -15  -3    3.90    2.10
   1 -15   3    3.60    1.90
   1 -15   3    0.30    2.20
  15   1   3   -0.70    3.40
 -15  -1   3    5.50    4.10
 -15  -1   3    6.00    3.50
 -15  -1   3    3.00    2.80
 -15  -1   3    1.00    3.00
   1 -15   3    2.30    4.60
 -15   0  -3    5.20    4.20
   0 -15  -3    7.00    4.60
   0 -15  -3    5.80    2.20
 -15   0  -3    4.80    2.20
 -15   0  -3    7.90    2.50
 -15   0  -3    7.70    3.70
  15   0  -3    1.90    4.60
 -15   0   3    4.90    3.80
  15   0   3    4.40    4.60
   0 -15   3    0.50    3.90
 -15   0   3    2.80    3.00
   0 -15   3    6.50    2.90
 -15   0   3    6.80    3.70
 -15   0   3    7.50    3.50
  15  -1  -3   -1.70    3.90
 -15   1  -3    4.60    4.30
 -15   1  -3    0.60    1.90
  -1 -15  -3    7.80    4.70
 -15   1  -3    3.90    3.50
  15  -1  -3    1.20    3.60
  -1 -15  -3    2.00    1.60
 -15   1   3    4.50    3.60
  -1 -15   3    4.80    2.60
 -15   1   3   -0.30    2.80
  -1 -15   3    2.70    4.00
 -15   1   3    5.90    4.40
 -15   1   3    0.90    3.30
  15  -1   3    3.20    3.50
  15  -1   3    1.80    4.00
  -1 -15   3    0.00    1.40
  -2 -15  -3  169.78   17.10
  -2 -15  -3  135.39   14.10
 -15   2  -3  175.78   15.90
 -15   2  -3  193.08   17.90
  15  -2  -3  166.68   16.20
  15  -2  -3  169.88   18.40
  -2 -15  -3  154.78   12.60
 -15   2  -3  160.78   13.80
 -15   2   3  152.78   15.00
 -15   2   3  126.49   15.30
  -2 -15   3  168.68   14.30
  15  -2   3  145.19   15.90
 -15   2   3  140.49   15.40
 -15   2   3  179.88   17.40
  -2 -15   3  146.89   16.80
  -2 -15   3  117.19   13.70
 -15   3  -3  114.79   13.30
  15  -3  -3   95.59   11.70
  -3 -15  -3   86.69    8.00
 -15   3  -3  104.09   11.50
  -3 -15  -3   80.59    9.70
 -15   3  -3   95.09    9.60
  15  -3  -3  114.29   12.10
 -15   3   3   67.89   10.60
 -15   3   3  101.29   12.70
  -3 -15   3   69.29    9.40
  -3 -15   3   92.59   13.90
  15  -3   3  105.69   12.00
 -15   3   3  102.29   11.40
  -3 -15   3   99.49    9.80
 -15   3   3   92.09   11.30
  -4 -15  -3   38.60    4.00
  15  -4  -3   28.80    5.80
  -4 -15  -3   30.00    5.90
 -15   4  -3   39.00    7.70
 -15   4  -3   40.30    6.30
  15  -4  -3   38.90    7.20
 -15   4  -3   40.60    9.10
  15  -4  -3   30.30    7.60
  -4 -15   3   27.10    5.30
  15  -4   3   39.60    8.20
 -15   4   3   22.30    6.20
 -15   4   3   34.20    7.00
  -4 -15   3   27.20    7.80
 -15   4   3   31.60    7.10
  -4 -15   3   29.00    5.90
 -15   4   3   27.70    7.60
  -5 -15  -3   13.50    4.10
  -5 -15  -3    8.30    2.10
  15  -5  -3   11.50    5.20
 -15   5  -3    9.90    5.20
  15  -5  -3   13.50    4.20
 -15   5  -3   11.60    3.70
  15  -5  -3   16.30    5.30
 -15   5  -3   18.60    5.90
 -15   5   3   19.40    5.90
  -5 -15   3   17.00    3.90
  15  -5   3   18.30    5.80
 -15   5   3   12.50    6.00
  -5 -15   3   10.30    3.50
 -15   5   3   16.20    5.50
 -15   5   3   13.10    5.40
 -16  -1  -3   32.30    6.90
  16   1  -3   25.10    8.50
   1 -16  -3   21.20    3.90
 -16  -1  -3   27.00    6.50
 -16  -1  -3   21.10    3.70
   1 -16  -3   17.00    7.50
   1 -16   3    6.40    5.90
   1 -16   3   16.70    4.50
 -16  -1   3   13.10    4.60
 -16  -1   3   24.60    4.30
  16   1   3   14.60    7.20
 -16  -1   3   16.70    5.40
 -16  -1   3   33.20    7.50
 -16   0  -3    1.10    2.10
 -16   0  -3   -0.60    3.50
   0 -16  -3   -3.60    3.50
 -16   0  -3    2.50    4.10
   0 -16  -3    0.30    1.60
  16   0  -3    2.40    5.10
 -16   0  -3    2.50    2.10
 -16   0   3    2.10    2.90
  16   0   3    2.40    4.80
 -16   0   3    3.30    4.00
   0 -16   3    0.40    4.20
 -16   0   3   -1.00    2.90
 -16   0   3    4.10    3.10
   0 -16   3   -0.20    2.00
 -16   1  -3   24.00    7.00
 -16   1  -3   24.20    6.10
  -1 -16  -3   19.00    6.80
  -1 -16  -3   21.80    3.70
 -16   1  -3   20.30    3.90
  16  -1  -3   16.80    7.20
 -16   1   3   21.30    5.90
 -16   1   3   12.40    5.10
 -16   1   3   21.20    6.50
 -16   1   3   28.30    5.30
  -1 -16   3   17.20    6.70
  16  -1   3   14.10    6.90
  -1 -16   3   20.90    4.70
   0   0  -4 9999.00  710.53
   0   0  -4 9878.31  711.73
   1   0  -4    0.50    0.70
   1   0  -4    6.80    1.70
  -1   0  -4    1.80    0.70
   0   1  -4    3.50    1.40
  -1   0  -4    1.10    0.50
   1   0  -4    1.50    0.60
  -1   0  -4    1.20    0.80
   0  -1  -4    1.30    0.50
   0   1  -4    1.50    0.60
   0  -1  -4    0.50    1.40
   0   1  -4    2.00    0.60
   1   1  -4   31.00    3.60
  -1   1  -4   23.10    2.40
   1  -1  -4   25.20    2.20
   1   1  -4   23.30    2.20
  -1   1  -4   23.60    2.30
   1   1  -4   20.90    2.10
   1  -1  -4   23.30    4.00
   1  -1  -4   24.00    2.60
   1   1  -4   32.40    2.90
   1  -2  -4 2117.59  146.39
   2   1  -4 1997.50  144.69
   1  -2  -4 2103.19  144.69
   2   1  -4 2039.00  145.99
   2   1  -4 2050.89  145.39
  -1   2  -4 2010.80  144.99
   2   1  -4 2103.99  144.69
  -1   2  -4 2048.10  144.89
  -1   2  -4 1944.21  144.69
  -2  -1  -4 2105.79  144.69
  -2  -1  -4 1981.20  144.79
  -2  -1   4 1783.22  144.99
   0  -2  -4 3599.44  246.88
  -2   0  -4 3381.86  246.48
   2   0  -4 3426.76  245.88
  -2   0  -4 3626.64  246.88
   0  -2  -4 3762.42  247.38
   0   2  -4 3339.77  246.38
   2   0  -4 3476.55  246.98
  -2   0  -4 3468.35  245.98
   0   2  -4 2935.71  246.08
   0   2  -4 3346.17  246.28
  -2   0  -4 3541.55  246.18
   1   2  -4 1838.62  140.49
   1   2  -4 1948.61  140.09
   1   2  -4 1853.61  140.09
   2  -1  -4 1793.22  140.69
  -2   1  -4 2086.39  140.29
   2  -1  -4 1784.92  141.89
   2  -1  -4 2076.19  140.19
  -2   1  -4 1991.60  140.39
  -1  -2  -4 2095.69  140.09
  -2   1  -4 2043.60  140.39
  -1  -2   4 2023.60  140.09
   2  -2  -4 1196.48   91.99
  -2  -2  -4 1108.59   89.89
   2   2  -4 1295.87   90.39
  -2  -2  -4 1371.76   90.29
  -2   2  -4 1322.17   90.49
   2  -2  -4 1351.36   90.39
   2   2  -4 1253.17   90.89
   2   2  -4 1173.48   90.19
  -2   2  -4 1259.47   90.59
  -2   2  -4 1248.78   90.69
   2  -2  -4 1385.46   90.39
  -2  -2   4 1246.98   90.29
  -2   2   4 1223.78   90.49
  -2  -2   4 1186.18   90.19
  -2  -2   4 1264.07   90.59
  -3  -2  -4  170.58   13.30
  -2   3  -4  182.68   14.20
   2  -3  -4  184.48   15.60
   2  -3  -4  201.48   13.80
  -3  -2  -4  193.28   13.70
   3   2  -4  186.78   15.20
   3   2  -4  172.98   13.50
   3   2  -4  183.88   13.80
   3   2  -4  207.78   14.50
   2  -3  -4  184.98   13.30
  -2   3  -4  179.38   14.00
  -2   3  -4  188.78   13.70
   2  -3   4  166.78   13.70
  -3  -2   4  188.68   13.80
  -3  -2   4  169.58   13.80
  -2   3   4  185.28   13.60
   2  -3   4  160.38   13.50
  -3  -2   4  186.78   13.60
   3   1  -4 2263.87  154.38
   1  -3  -4 2449.16  154.38
  -3  -1  -4 1966.20  154.08
  -1   3  -4 2014.80  154.78
   3   1  -4 2089.19  155.18
  -1   3  -4 2196.38  154.58
  -3  -1  -4 2483.85  154.18
   3   1  -4 2344.67  154.58
   3   1  -4 2112.49  155.88
  -1   3  -4 2019.00  154.38
   1  -3  -4 2274.57  156.28
  -3  -1  -4 2278.87  154.48
  -3  -1   4 1891.61  154.58
  -3  -1   4 2346.27  154.68
   1  -3   4 2122.49  154.28
  -3  -1   4 2110.09  154.38
   1  -3   4 1977.90  154.28
  -3  -1   4 2185.08  154.58
   1  -3   4 1892.71  154.38
  -3   0  -4    0.60    0.50
  -3   0  -4    1.80    0.70
   3   0  -4    5.30    1.00
   0  -3  -4    2.80    0.80
  -3   0  -4    1.80    0.50
   3   0  -4    0.30    1.40
   3   0  -4    1.60    1.80
   3   0  -4    1.00    0.60
   0   3  -4    2.90    0.80
   0   3  -4    6.20    1.30
   0   3  -4    0.70    0.50
  -3   0  -4    2.30    0.80
   0  -3  -4    1.60    1.40
   0  -3   4    1.90    0.60
   0  -3   4    0.80    0.60
   0  -3   4    0.40    0.40
  -3   0   4    1.00    0.70
   1   3  -4 2095.59  163.68
  -3   1  -4 2230.08  163.98
  -1  -3  -4 2404.56  163.58
  -3   1  -4 2249.18  164.08
   3  -1  -4 2487.25  163.78
   3  -1  -4 2405.86  163.88
   1   3  -4 2188.28  164.18
  -3   1  -4 2192.48  163.98
  -1  -3  -4 2601.14  163.78
   1   3  -4 2168.58  163.68
  -1  -3  -4 2574.14  165.08
  -1  -3   4 2156.88  163.68
  -1  -3   4 2333.17  164.18
  -3   1   4 2152.98  163.78
  -1  -3   4 2125.69  163.58
  -2  -3  -4  183.88   13.40
   3  -2  -4  168.28   15.70
   3  -2  -4  203.28   14.40
   3  -2  -4  202.38   14.10
   2   3  -4  184.28   14.00
  -3   2  -4  203.38   14.20
   2   3  -4  174.78   13.80
  -2  -3  -4  199.08   13.80
   2   3  -4  179.78   14.40
  -3   2  -4  184.68   14.40
  -2  -3  -4  211.28   15.00
  -3   2  -4  176.88   14.40
  -2  -3   4  191.88   14.00
  -2  -3   4  169.68   13.80
  -3   2   4  161.68   14.60
  -2  -3   4  181.58   13.90
  -3   2   4  193.18   14.00
  -3  -3  -4 2858.01  236.58
   3   3  -4 3296.07  236.68
  -3  -3  -4 3537.45  236.78
  -3   3  -4 3113.39  237.58
   3  -3  -4 3597.54  237.08
   3   3  -4 3374.46  237.58
   3  -3  -4 3311.97  237.28
   3  -3  -4 3063.89  239.08
  -3   3  -4 3349.06  237.08
  -3  -3  -4 3452.25  236.88
   3   3  -4 3501.25  237.08
   3   3  -4 3668.03  238.48
  -3  -3   4 3406.86  236.98
  -3  -3   4 3301.77  236.98
  -3   3   4 3291.77  237.58
   3  -3   4 3080.59  236.78
   3  -3   4 3334.97  236.88
  -3  -3   4 3127.29  237.18
   3  -4  -4  617.04   48.70
   4   3  -4  593.94   46.90
   3  -4  -4  616.94   45.80
  -3   4  -4  649.74   47.20
   4   3  -4  606.54   46.00
  -3   4  -4  654.43   46.40
   4   3  -4  661.53   46.50
  -4  -3  -4  614.64   45.90
  -4  -3  -4  679.23   46.20
  -4  -3  -4  640.14   46.50
   3  -4  -4  696.83   46.40
  -4  -3   4  708.23   46.30
  -4  -3   4  644.34   46.20
   3  -4   4  579.64   46.10
  -4  -3   4  634.64   46.50
  -4  -3   4  608.84   46.50
  -3   4   4  675.43   46.30
   3  -4   4  592.24   46.10
   4   2  -4   21.40    4.10
  -2   4  -4   19.20    3.00
   4   2  -4   25.20    3.10
   2  -4  -4   14.80    3.70
   2  -4  -4   18.90    2.00
   2  -4  -4   19.60    2.10
   4   2  -4   18.10    2.00
  -4  -2  -4   20.20    1.90
  -2   4  -4   18.20    2.80
  -4  -2  -4   19.90    2.20
  -2   4  -4   19.50    2.10
  -4  -2   4   15.00    2.30
  -4  -2   4   18.50    2.30
  -4  -2   4   23.10    2.20
  -4  -2   4   19.90    2.40
   2  -4   4   16.60    2.00
   2  -4   4   19.30    2.20
  -2   4   4   19.20    2.00
  -1   4  -4 3126.39  232.88
  -1   4  -4 2830.82  232.28
   1  -4  -4 3126.99  232.18
   1  -4  -4 3409.56  234.38
   4   1  -4 3409.96  232.38
  -4  -1  -4 3332.47  232.58
  -4  -1  -4 3139.79  232.28
  -1   4  -4 3307.47  232.68
  -4  -1  -4 3305.87  232.28
   1  -4  -4 3718.23  232.88
   4   1  -4 3389.16  232.58
   1  -4   4 3048.40  232.18
  -4  -1   4 3435.26  232.48
  -4  -1   4 3213.78  232.38
   1  -4   4 3253.27  233.28
  -4  -1   4 2903.01  232.88
  -1   4   4 3397.96  233.68
   1  -4   4 3185.48  232.48
  -4  -1   4 3266.67  232.68
   4   0  -4    2.80    2.10
   0   4  -4    8.90    1.70
   4   0  -4    7.80    1.40
  -4   0  -4    4.50    1.00
   4   0  -4    1.10    1.70
   0  -4  -4    5.50    1.00
   4   0  -4    2.40    0.90
   0   4  -4    2.70    0.90
  -4   0  -4    2.90    0.80
  -4   0  -4    1.10    0.90
   0  -4  -4    7.00    2.20
   0   4  -4    3.30    0.80
   0  -4   4    2.40    0.70
  -4   0   4    4.30    1.10
  -4   0   4    1.70    0.90
   0  -4   4    2.80    0.80
   0  -4   4    1.80    0.70
  -4   0   4    3.90    1.20
  -4   0   4    0.20    0.80
  -1  -4  -4 3083.39  239.08
   1   4  -4 3225.38  238.98
   1   4  -4 2909.21  239.28
  -1  -4  -4 3571.24  238.78
   1   4  -4 3213.08  238.98
   4  -1  -4 3599.24  239.18
  -4   1  -4 3289.77  239.08
  -4   1  -4 3254.57  239.38
  -1  -4  -4 3640.04  240.38
  -1  -4   4 3213.58  239.78
  -1  -4   4 3398.76  239.48
  -4   1   4 3445.36  239.58
  -1  -4   4 3400.26  239.58
  -4   1   4 3467.45  239.08
  -4   1   4 3463.55  239.18
   4  -2  -4   21.40    3.00
   2   4  -4   21.10    2.20
   2   4  -4   19.10    2.10
  -2  -4  -4   23.70    3.60
  -4   2  -4   23.60    2.90
   4  -2  -4   17.60    2.30
   4  -2  -4   21.60    2.20
  -2  -4  -4   18.40    1.90
   2   4  -4   16.90    2.40
   4  -2  -4   16.30    3.80
  -4   2  -4   22.90    2.60
  -2  -4  -4   22.80    2.10
  -4   2  -4   21.80    2.30
   4  -2   4   16.20    2.10
  -4   2   4   13.10    2.80
  -2  -4   4   24.80    2.30
  -4   2   4   19.30    2.30
  -4   2   4   20.10    2.70
  -2  -4   4   16.70    2.10
  -2  -4   4   18.60    2.10
  -4   3  -4  599.94   47.40
   4  -3  -4  652.43   46.80
  -4   3  -4  671.63   46.80
  -3  -4  -4  696.63   46.30
   3   4  -4  645.14   46.60
   4  -3  -4  569.24   48.90
   3   4  -4  634.74   46.30
   3   4  -4  643.34   47.10
  -4   3  -4  687.73   46.90
   4  -3  -4  686.33   46.80
  -3  -4  -4  634.74   46.50
  -4   3   4  682.33   46.80
  -3  -4   4  640.74   46.60
  -3  -4   4  649.74   46.70
   4  -3   4  556.54   46.50
   4  -3   4  642.24   46.60
  -3  -4   4  629.14   46.40
  -4   3   4  605.34   47.30
  -4   4  -4   66.89    5.60
   4  -4  -4   71.19    5.70
   4   4  -4   58.29    5.50
   4  -4  -4   51.19    7.50
   4   4  -4   60.29    5.10
   4   4  -4   69.59    7.30
   4   4  -4   58.29    6.00
  -4   4  -4   58.29    6.30
  -4  -4  -4   61.09    5.50
  -4  -4  -4   81.09    6.10
  -4  -4  -4   53.29    4.80
   4  -4  -4   66.49    5.40
  -4  -4  -4   67.29    5.20
  -4  -4   4   63.99    5.60
  -4   4   4   70.49    5.60
  -4  -4   4   70.59    5.70
   4  -4   4   61.09    5.40
   4  -4   4   57.69    5.30
  -4  -4   4   67.49    5.40
  -4   4   4   58.69    6.30
  -4  -4   4   57.89    5.30
  -4  -4   4   58.69    5.70
   4  -5  -4  280.07   22.50
  -5  -4  -4  290.57   22.10
   4  -5  -4  296.07   22.10
  -4   5  -4  314.57   22.70
  -5  -4  -4  309.97   22.90
   4  -5  -4  333.77   22.90
   5   4  -4  318.77   24.50
   4  -5  -4  281.87   25.40
   5   4  -4  308.07   22.90
   5   4  -4  308.67   22.20
  -4   5  -4  292.67   23.90
  -5  -4   4  309.77   23.00
   4  -5   4  276.07   22.40
  -5  -4   4  328.37   22.80
  -4   5   4  315.67   22.70
  -5  -4   4  302.87   22.80
  -5  -4   4  317.17   23.10
  -4   5   4  270.37   24.60
   4  -5   4  289.67   22.50
  -5  -4   4  288.87   22.40
  -3   5  -4 5169.38  398.36
  -3   5  -4 5754.32  399.66
   5   3  -4 5861.01  399.96
  -5  -3  -4 5701.03  398.96
  -5  -3  -4 4709.03  398.36
   3  -5  -4 5102.99  400.96
   5   3  -4 6008.90  399.46
   3  -5  -4 5396.16  398.66
   5   3  -4 5785.82  399.86
   3  -5  -4 5907.21  399.36
   3  -5   4 5490.65  399.66
   3  -5   4 4963.50  398.26
  -5  -3   4 5912.71  400.36
  -5  -3   4 6209.38  400.26
  -5  -3   4 5489.55  399.46
  -3   5   4 5775.22  398.96
  -5  -3   4 5528.15  398.96
  -5  -3   4 5687.13  398.86
   2  -5  -4  157.68   15.60
   5   2  -4  173.08   13.40
   5   2  -4  180.98   15.60
  -5  -2  -4  177.18   13.50
   2  -5  -4  203.38   13.60
   5   2  -4  183.68   14.00
  -2   5  -4  167.98   14.30
   2  -5  -4  174.28   13.20
  -2   5  -4  173.08   13.50
  -5  -2   4  198.78   13.90
  -5  -2   4  179.78   14.40
  -2   5   4  188.68   13.50
   2  -5   4  168.78   13.40
  -5  -2   4  184.68   14.10
   2  -5   4  163.48   13.40
  -5  -2   4  169.38   13.60
   1  -5  -4  186.68   12.10
   5   1  -4  120.79   13.70
   5   1  -4  171.08   12.20
   1  -5  -4  176.08   14.40
   5   1  -4  160.38   12.50
  -5  -1  -4  165.98   12.20
   1  -5  -4  154.38   11.40
  -1   5  -4  156.68   12.80
  -1   5  -4  162.88   12.60
  -1   5  -4  156.38   12.10
  -5  -1  -4  153.48   11.90
  -1   5   4  160.58   11.90
   1  -5   4  155.08   12.00
   1  -5   4  149.29   12.30
  -5  -1   4  174.38   12.50
  -5  -1   4  164.38   12.30
  -5  -1   4  158.98   12.70
  -5  -1   4  125.69   12.80
   5   0  -4    2.30    0.90
   5   0  -4    3.20    2.10
   5   0  -4    2.60    2.20
   5   0  -4    2.00    1.10
   0   5  -4    5.10    1.30
   0   5  -4    3.20    0.90
  -5   0  -4    2.70    0.90
  -5   0  -4    2.00    0.80
   0   5  -4    0.90    0.80
  -5   0  -4    1.00    1.30
   0  -5  -4    2.30    0.70
  -5   0  -4    1.20    1.00
   0  -5  -4    4.00    1.90
   0  -5  -4    1.60    0.80
   0  -5   4    2.30    0.80
  -5   0   4    2.20    1.10
   0  -5   4    2.10    0.90
  -5   0   4    2.10    0.90
  -5   0   4    2.90    1.20
   0  -5   4    1.20    0.70
  -5   0   4    1.20    1.20
  -1  -5  -4  180.38   14.40
   5  -1  -4  179.48   13.20
   5  -1  -4  161.98   13.10
  -5   1  -4  174.18   13.20
   1   5  -4  170.08   13.00
  -5   1  -4  187.08   14.70
   1   5  -4  167.98   12.90
  -5   1  -4  160.18   13.40
   1   5  -4  152.68   13.20
  -1  -5  -4  178.78   12.80
  -1  -5  -4  150.38   12.80
  -1  -5  -4  181.88   12.60
  -1  -5   4  175.68   12.80
  -5   1   4  167.28   13.20
  -5   1   4  169.08   13.10
  -1  -5   4  186.08   13.10
  -1  -5   4  156.28   12.60
  -5   1   4  150.88   13.50
   2   5  -4  171.88   13.90
   2   5  -4  177.18   13.40
   2   5  -4  176.28   13.50
   5  -2  -4  182.38   13.90
  -2  -5  -4  217.48   15.00
  -5   2  -4  174.48   14.30
  -5   2  -4  176.88   14.90
  -2  -5  -4  198.68   13.20
   5  -2  -4  193.08   13.80
   5  -2  -4  149.59   15.50
   5  -2  -4  145.39   14.30
  -2  -5  -4  181.88   13.40
  -5   2  -4  197.28   13.90
  -2  -5   4  163.48   13.30
  -5   2   4  164.88   14.30
   5  -2   4  169.48   13.60
  -5   2   4  172.38   13.80
  -5   2   4  190.48   13.90
  -2  -5   4  162.38   13.70
  -2  -5   4  185.08   13.60
  -2  -5   4  169.68   13.40
  -5   3  -4 6295.37  408.26
   3   5  -4 5681.43  407.56
   3   5  -4 5586.04  406.06
   3   5  -4 5165.38  406.66
   5  -3  -4 4955.60  408.76
   5  -3  -4 5894.01  406.66
  -3  -5  -4 5541.15  407.36
  -5   3  -4 5534.15  406.66
  -3  -5  -4 6086.49  406.66
  -5   3  -4 5334.97  407.26
   5  -3  -4 5202.78  406.66
   5  -3  -4 6614.74  406.56
  -5   3  -4 6111.19  406.66
  -5   3   4 5364.36  406.46
   5  -3   4 5351.26  406.36
   3   5   4 6572.54  407.26
  -3  -5   4 5690.03  409.06
  -5   3   4 5140.59  407.66
  -5   3   4 5422.56  407.36
   5  -3   4 5860.51  406.46
  -3  -5   4 5793.92  407.86
  -3  -5   4 5849.02  406.26
  -3  -5   4 5528.35  406.56
  -5   3   4 5957.00  407.66
  -5   4  -4  363.66   25.30
   5  -4  -4  259.37   25.90
  -4  -5  -4  314.37   23.30
  -5   4  -4  328.57   23.70
   4   5  -4  353.76   25.20
   4   5  -4  302.67   23.90
  -5   4  -4  313.37   24.60
  -4  -5  -4  364.66   24.10
   5  -4  -4  318.37   23.30
   5  -4  -4  310.47   23.60
   5  -4  -4  306.07   23.40
   4   5  -4  345.97   23.60
   4   5  -4  298.17   22.90
  -4  -5  -4  333.67   23.00
  -4  -5  -4  306.57   22.60
  -4  -5   4  298.27   23.60
  -5   4   4  281.37   24.50
  -5   4   4  321.27   23.60
  -4  -5   4  304.57   23.30
  -4  -5   4  311.57   23.50
  -4  -5   4  280.37   23.00
  -5   4   4  280.07   23.70
   5  -4   4  296.57   23.30
  -5   5  -4 3000.70  219.78
   5   5  -4 3157.78  217.88
   5  -5  -4 3237.28  218.68
  -5  -5  -4 3156.78  217.68
   5  -5  -4 2781.72  217.98
   5   5  -4 3068.99  218.58
  -5  -5  -4 3297.07  218.58
  -5   5  -4 2895.31  218.48
   5   5  -4 2881.81  218.98
   5  -5  -4 2714.93  221.48
  -5   5  -4 3328.07  218.78
  -5   5   4 3148.98  218.68
  -5  -5   4 3250.27  218.38
  -5  -5   4 2998.00  218.48
  -5  -5   4 2916.61  218.68
   5  -5   4 3062.79  218.18
  -5  -5   4 3078.39  218.68
  -5  -5   4 2979.20  218.08
   5  -5   4 2923.11  218.28
   6   5  -4   93.29    9.00
  -6  -5  -4   92.59    7.60
   5  -6  -4   88.89    7.60
  -6  -5  -4   98.79    8.60
   5  -6  -4   87.49   11.20
   5  -6  -4  112.99    8.70
   5  -6  -4  106.99    8.30
  -5   6  -4  104.29    8.40
   6   5  -4   93.09    8.40
  -6  -5   4   98.99    8.70
  -6  -5   4   90.99    8.40
   5  -6   4   91.59    8.00
  -6  -5   4   96.19    8.10
   5  -6   4  106.69    8.20
  -6  -5   4   96.19    8.60
  -6  -5   4   88.29    8.30
  -5   6   4   98.49    8.50
   6   4  -4  107.69    9.70
  -6  -4  -4  103.49    9.30
   6   4  -4  118.59    8.50
  -6  -4  -4  102.09    8.30
  -4   6  -4  111.89    8.80
   4  -6  -4   98.09    8.00
   4  -6  -4  105.19    8.60
   4  -6  -4   90.59   11.40
   4  -6  -4  117.49    9.00
   6   4  -4  112.19    9.20
  -6  -4   4  110.29    9.20
   4  -6   4  103.29    8.60
  -4   6   4  110.09    8.90
  -6  -4   4  115.39    9.50
  -6  -4   4  116.69    9.20
   4  -6   4   90.19    8.50
  -6  -4   4  105.79    9.30
  -6  -4   4  102.79    8.80
   6   3  -4   -0.20    1.90
  -3   6  -4    4.50    1.20
   3  -6  -4    3.10    0.90
   3  -6  -4    4.60    2.80
   6   3  -4    8.20    2.10
  -6  -3  -4    5.10    1.10
  -6  -3  -4    3.90    1.60
  -3   6  -4    2.40    1.60
   6   3  -4    1.70    1.00
  -6  -3   4    3.70    1.30
  -3   6   4    2.20    1.00
  -6  -3   4    2.90    1.50
  -6  -3   4   10.40    2.20
   3  -6   4    3.40    1.10
  -6  -3   4    4.50    1.70
   3  -6   4    4.20    1.30
  -6  -3   4    2.50    1.30
   6   2  -4 1120.79   79.29
   2  -6  -4 1237.08   79.29
  -2   6  -4 1099.59   79.29
  -2   6  -4 1130.59   80.49
  -6  -2  -4 1028.10   78.59
  -6  -2  -4 1055.39   79.29
   2  -6  -4 1040.10   81.89
   2  -6  -4 1081.09   78.69
   6   2  -4 1176.18   79.99
   6   2  -4  947.11   81.19
  -6  -2   4 1002.80   80.29
  -2   6   4 1205.68   79.19
  -6  -2   4 1178.38   79.89
  -6  -2   4 1145.59   80.29
   2  -6   4 1025.30   79.09
  -6  -2   4 1101.89   79.49
  -6  -2   4 1156.48   80.09
   2  -6   4 1054.99   79.19
  -1   6  -4  391.36   29.50
   1  -6  -4  451.65   29.50
   1  -6  -4  396.86   31.90
  -6  -1  -4  336.17   30.40
  -6  -1  -4  369.06   29.40
  -1   6  -4  400.96   30.40
  -6  -1  -4  391.76   29.70
   6   1  -4  416.06   29.70
   6   1  -4  437.26   30.30
  -6  -1  -4  440.86   31.50
   1  -6   4  375.36   29.30
  -6  -1   4  379.96   30.30
  -6  -1   4  420.96   30.10
  -1   6   4  419.76   29.30
   1  -6   4  365.66   29.90
  -6  -1   4  447.56   30.00
   0  -6  -4 1140.49   82.89
   0   6  -4  957.50   81.09
  -6   0  -4 1145.79   81.09
   0   6  -4 1082.09   80.79
  -6   0  -4  928.01   81.89
   0  -6  -4 1272.47   80.59
  -6   0  -4 1090.29   81.09
   0   6  -4 1034.20   81.39
  -6   0  -4 1182.68   82.79
   6   0  -4 1148.89   81.09
   0  -6  -4 1187.78   81.09
   6   0  -4 1228.98   81.59
   0  -6   4 1102.59   81.09
   0  -6   4 1112.69   80.59
   0  -6   4 1177.48   81.29
  -6   0   4 1101.39   81.19
   0  -6   4 1097.29   80.69
   0   6   4 1141.09   80.49
  -6   0   4 1176.88   81.39
  -6   0   4 1128.69   81.79
  -1  -6  -4  448.56   28.90
  -1  -6  -4  345.27   29.00
   6  -1  -4  420.46   29.70
   1   6  -4  353.16   29.70
   1   6  -4  403.06   29.30
  -6   1  -4  450.85   29.80
   6  -1  -4  428.86   30.00
  -1  -6  -4  423.06   29.40
  -1  -6  -4  435.96   31.20
   1   6  -4  376.06   29.40
  -6   1  -4  423.96   31.30
  -6   1  -4  374.66   29.90
  -6   1   4  379.86   30.30
  -1  -6   4  356.06   29.00
  -1  -6   4  381.46   29.20
  -1  -6   4  430.66   29.70
  -1  -6   4  386.56   29.50
  -6   1   4  406.96   29.70
   6  -1   4  356.36   29.60
  -6   1   4  400.86   29.80
   1   6   4  398.56   29.20
   2   6  -4 1054.49   80.09
  -6   2  -4  989.20   81.69
  -2  -6  -4 1127.59   80.09
  -6   2  -4 1256.57   80.79
   6  -2  -4 1144.19   80.69
  -6   2  -4 1069.99   81.09
  -2  -6  -4 1248.28   79.69
   6  -2  -4 1209.48   80.79
  -6   2  -4 1141.39   82.09
   2   6  -4 1150.08   80.19
  -2  -6  -4 1015.70   79.49
   2   6  -4 1072.79   80.69
  -2  -6   4 1102.39   80.39
  -2  -6   4 1086.99   79.89
  -6   2   4 1086.89   80.59
   6  -2   4 1107.79   80.49
  -2  -6   4 1103.59   80.09
  -2  -6   4 1117.29   80.39
  -6   2   4 1137.49   80.79
  -6   2   4 1003.80   81.19
   6  -3  -4    3.60    1.50
   6  -3  -4    2.90    1.60
   3   6  -4    2.80    1.20
  -3  -6  -4    4.80    1.20
   6  -3  -4    6.60    3.30
   3   6  -4    3.40    1.50
   6  -3  -4    3.40    1.50
  -3  -6  -4   14.80    2.90
  -6   3  -4    8.60    2.00
  -6   3  -4    1.40    1.50
  -6   3  -4    2.60    1.50
  -3  -6   4    2.80    1.10
   6  -3   4    5.70    1.60
  -3  -6   4    2.60    1.10
  -6   3   4    3.30    2.00
  -3  -6   4    2.50    1.00
   6  -3   4    8.10    1.70
  -6   3   4    2.80    1.50
  -6   3   4    4.70    2.00
   3   6   4    8.60    1.90
  -3  -6   4    9.80    2.00
   6  -4  -4  114.79    9.30
  -4  -6  -4  114.89    8.10
   6  -4  -4  106.29    9.40
   6  -4  -4  103.09    9.30
   4   6  -4  106.49    9.50
  -4  -6  -4  115.19    9.00
  -4  -6  -4  107.79    8.00
  -4  -6  -4  135.69   10.10
  -6   4  -4  107.29   10.20
   4   6  -4  104.29    9.00
   6  -4  -4  101.29   12.00
  -6   4  -4  112.69   10.70
  -4  -6   4  106.99    9.20
   4   6   4  125.19   10.00
  -6   4   4  114.89   10.90
  -6   4   4  118.49    9.60
  -4  -6   4  104.59    8.90
  -6   4   4  115.09    9.70
  -4  -6   4  103.69    8.70
  -6   4   4   80.29    9.90
  -4  -6   4  113.29    9.20
   6  -4   4  104.29    9.10
   6  -4   4  112.19    9.20
  -6   5  -4   99.49    9.60
  -5  -6  -4   96.39    7.40
   6  -5  -4  115.09    8.30
  -5  -6  -4  115.49    8.40
   5   6  -4   92.49    8.20
   6  -5  -4   71.69   10.70
   6  -5  -4   91.49    8.50
   5   6  -4   99.49    8.90
  -6   5  -4  103.89    9.90
  -5  -6   4   90.69    8.10
   6  -5   4   94.19    8.10
   6  -5   4   99.89    8.20
   5   6   4   89.29    9.30
  -5  -6   4   89.89    7.80
  -5  -6   4   97.19    8.30
  -5  -6   4   88.79    8.30
  -6   5   4   92.49    8.50
  -6   5   4   76.09    9.40
   6  -6  -4  864.81   66.29
  -6   6  -4  882.71   66.99
  -6  -6  -4  967.00   67.19
   6  -6  -4  867.31   70.79
  -6   6  -4  923.41   68.69
  -6   6  -4 1084.09   69.19
  -6  -6  -4  906.81   66.09
   6   6  -4  912.41   67.09
   6  -6  -4  835.72   66.89
   6  -6  -4  909.11   67.19
  -6  -6   4  960.60   67.29
  -6  -6   4  971.80   67.09
  -6  -6   4  935.31   67.29
   6   6   4  785.32   68.39
  -6  -6   4  910.81   66.49
   6  -6   4  905.71   66.59
  -6   6   4  936.41   67.39
   6  -6   4  964.40   66.89
  -7  -6  -4 1112.69   78.39
   6  -7  -4 1011.60   78.29
   6  -7  -4 1088.79   78.99
  -7  -6  -4 1166.98   79.79
   7   6  -4 1068.69   79.49
  -6   7  -4 1048.60   79.19
   6  -7  -4 1044.00   79.39
   6  -7  -4  974.60   83.09
  -6   7  -4 1096.29   81.19
  -7  -6   4 1098.99   78.79
  -7  -6   4 1177.78   79.89
   6  -7   4 1095.09   78.89
   6  -7   4 1104.59   78.99
  -7  -6   4 1143.39   79.79
  -6   7   4 1055.29   79.59
  -7  -6   4 1110.09   79.59
   7   5  -4  543.65   41.40
   5  -7  -4  525.85   37.80
   5  -7  -4  404.46   41.10
  -7  -5  -4  518.35   37.50
   5  -7  -4  553.74   38.40
   7   5  -4  511.35   38.60
  -7  -5  -4  543.35   38.80
  -5   7  -4  539.85   40.20
  -5   7  -4  505.65   38.10
   5  -7  -4  455.05   37.10
  -7  -5   4  573.54   39.10
  -7  -5   4  516.95   38.60
  -7  -5   4  494.75   38.50
  -7  -5   4  502.75   38.70
   5  -7   4  515.65   37.80
  -5   7   4  530.55   38.40
  -7  -5   4  504.15   37.90
   4  -7  -4 3744.13  252.07
  -7  -4  -4 3425.46  252.77
   4  -7  -4 3273.97  251.47
  -4   7  -4 3782.92  253.97
   4  -7  -4 3051.29  250.87
  -7  -4  -4 3494.55  251.57
   7   4  -4 3563.84  252.67
   7   4  -4 3627.64  251.57
  -4   7  -4 3537.55  251.97
  -7  -4   4 3669.73  251.97
   4  -7   4 3451.85  251.77
  -4   7   4 3521.35  252.07
  -7  -4   4 3639.74  252.67
  -7  -4   4 3695.73  252.57
  -7  -4   4 3775.22  253.17
   4  -7   4 2996.70  251.47
  -7  -4   4 3602.44  252.67
   3  -7  -4  150.18   16.10
   3  -7  -4  183.08   13.40
   7   3  -4  160.28   15.60
   7   3  -4  176.18   13.20
   7   3  -4  173.18   14.10
  -7  -3  -4  194.88   15.10
   3  -7  -4  156.58   12.70
  -7  -3  -4  164.28   13.10
  -3   7  -4  170.68   13.30
  -3   7  -4  181.28   14.90
  -7  -3   4  164.38   13.90
  -7  -3   4  178.28   14.60
  -7  -3   4  179.18   13.60
  -7  -3   4  164.38   14.10
   3  -7   4  160.98   13.10
  -7  -3   4  170.08   14.10
   3  -7   4  156.58   13.10
  -3   7   4  181.78   13.30
  -7  -2  -4  715.03   58.29
   7   2  -4  878.81   59.99
   2  -7  -4  760.62   61.79
  -2   7  -4  829.32   60.29
  -7  -2  -4  895.41   60.99
  -2   7  -4  802.82   58.89
   7   2  -4  865.01   59.09
   2  -7  -4  926.01   58.99
   2  -7  -4  772.72   58.19
  -7  -2  -4  805.52   58.99
  -7  -2  -4  718.33   59.99
   2  -7   4  760.02   58.69
  -2   7   4  890.21   58.89
  -7  -2   4  808.92   59.99
   2  -7   4  808.22   58.89
  -7  -2   4  850.61   59.39
  -7  -2   4  724.03   60.19
  -7  -2   4  848.92   59.79
   2  -7   4  771.52   59.49
  -7  -2   4  832.62   60.09
   1  -7  -4  411.26   32.60
  -7  -1  -4  391.76   29.70
   7   1  -4  423.46   30.80
  -1   7  -4  417.66   30.90
  -7  -1  -4  378.86   31.10
  -7  -1  -4  400.36   30.00
  -7  -1  -4  445.06   31.90
  -1   7  -4  405.46   29.80
   7   1  -4  425.56   30.10
  -7  -1   4  411.26   30.60
   1  -7   4  358.06   30.20
  -1   7   4  423.06   29.60
   1  -7   4  420.56   30.30
   1  -7   4  400.56   29.70
  -7  -1   4  422.96   31.10
  -7  -1   4  397.76   30.90
   1  -7   4  379.46   29.60
  -7  -1   4  383.56   30.20
  -7   0  -4    0.20    1.40
   0  -7  -4    3.30    0.90
  -7   0  -4    1.20    1.50
   0  -7  -4    2.80    1.10
   0   7  -4    3.00    1.50
   7   0  -4    0.30    1.10
  -7   0  -4    1.20    0.90
  -7   0  -4    1.50    1.10
   0   7  -4    1.50    0.90
   0  -7  -4    1.80    2.20
   7   0  -4    0.40    2.20
   7   0  -4    0.20    1.40
  -7   0   4    3.70    2.00
   0  -7   4    0.30    0.90
  -7   0   4    1.50    1.50
   0  -7   4    1.00    1.00
  -7   0   4    0.90    1.10
   0   7   4    2.40    0.80
  -7   0   4    0.10    1.20
   0  -7   4    6.00    1.50
   0  -7   4    2.60    1.00
  -7   1  -4  422.26   31.40
  -7   1  -4  419.16   31.10
   7  -1  -4  409.76   31.20
   7  -1  -4  440.46   31.70
  -1  -7  -4  450.85   32.90
  -1  -7  -4  442.46   30.90
  -7   1  -4  450.45   32.90
   1   7  -4  387.76   31.20
   1   7  -4  417.86   30.70
  -1  -7  -4  367.46   30.40
  -1  -7   4  471.35   30.70
  -7   1   4  380.26   31.20
  -1  -7   4  401.56   31.00
  -1  -7   4  381.36   30.30
  -7   1   4  377.86   31.90
  -1  -7   4  455.95   31.20
  -7   1   4  416.76   31.50
  -2  -7  -4  779.72   59.19
  -2  -7  -4  842.32   59.09
   7  -2  -4  708.03   62.09
   2   7  -4  739.83   60.19
  -7   2  -4  858.21   60.39
  -2  -7  -4  955.60   61.89
   7  -2  -4  845.92   60.49
   7  -2  -4  870.31   60.79
   2   7  -4  824.02   59.79
  -7   2  -4  830.72   60.79
  -2  -7  -4  818.32   59.79
  -7   2  -4  859.11   61.89
  -7   2   4  775.32   61.19
  -2  -7   4  835.22   59.49
  -7   2   4  822.82   60.59
  -2  -7   4  860.41   60.19
  -7   2   4  812.12   60.49
   7  -2   4  764.22   60.09
  -2  -7   4  859.71   59.69
  -7   3  -4  172.08   15.40
  -3  -7  -4  176.58   13.30
   3   7  -4  164.78   13.80
   7  -3  -4  159.88   13.90
  -7   3  -4  190.58   14.00
   7  -3  -4  143.89   14.20
  -3  -7  -4  167.48   12.40
   3   7  -4  174.68   13.30
  -3  -7  -4  202.58   14.90
   7  -3  -4  173.38   14.10
  -7   3  -4  170.78   14.50
   7  -3  -4  166.28   16.30
  -7   3  -4  188.78   15.40
  -3  -7  -4  167.78   12.40
  -7   3   4  172.78   14.10
  -3  -7   4  194.08   13.30
   7  -3   4  145.69   13.40
  -7   3   4  139.19   14.50
  -7   3   4  164.48   14.10
  -3  -7   4  162.88   12.90
  -3  -7   4  179.88   13.70
  -3  -7   4  177.28   13.50
  -7   4  -4 4096.39  255.07
  -7   4  -4 3426.56  255.57
  -4  -7  -4 3049.99  253.17
  -4  -7  -4 3850.81  253.27
  -4  -7  -4 3667.13  254.27
   7  -4  -4 3705.83  255.07
   7  -4  -4 3394.26  257.97
   4   7  -4 3486.95  254.27
   7  -4  -4 3548.94  254.97
  -7   4  -4 3643.64  256.27
   7  -4  -4 3177.58  254.67
  -4  -7   4 3744.53  254.27
  -4  -7   4 3538.65  254.57
  -7   4   4 3212.08  256.27
  -4  -7   4 3698.03  253.87
  -7   4   4 3459.55  255.07
  -7   4   4 3590.14  255.07
   7  -4   4 3586.64  254.47
  -4  -7   4 3614.54  254.47
   7  -4   4 3515.75  254.47
  -7   5  -4  534.55   41.00
  -5  -7  -4  549.65   39.20
   7  -5  -4  515.65   39.70
  -5  -7  -4  532.75   37.90
   5   7  -4  503.55   39.10
   7  -5  -4  502.75   39.20
  -5  -7  -4  528.55   38.20
  -7   5  -4  513.15   40.60
   7  -5  -4  558.84   43.60
  -5  -7   4  524.75   39.10
  -7   5   4  499.75   39.80
  -5  -7   4  534.95   39.30
  -7   5   4  561.24   41.70
   7  -5   4  504.65   39.20
  -5  -7   4  518.25   39.40
   5   7   4  584.84   40.30
  -5  -7   4  531.45   38.60
   7  -5   4  536.25   39.20
   7  -6  -4 1046.80   82.49
   7  -6  -4 1072.19   78.69
  -6  -7  -4 1203.48   78.59
  -7   6  -4 1037.90   79.79
   7  -6  -4 1037.10   77.79
  -7   6  -4 1123.69   80.19
   6   7  -4 1067.29   78.29
   7  -6  -4  952.60   78.29
  -6  -7  -4 1063.09   77.29
  -6  -7   4 1111.79   77.69
   7  -6   4 1154.98   78.29
   6   7   4 1064.09   79.69
   7  -6   4 1101.29   78.09
  -7   6   4  902.61   80.39
  -6  -7   4 1141.59   78.59
  -6  -7   4 1097.99   78.49
  -7   6   4  989.80   78.79
  -6  -7   4 1141.09   78.29
  -7  -7  -4  107.39    8.70
  -7   7  -4  112.89   11.40
  -7  -7  -4  121.69   10.10
   7   7  -4  103.29    9.80
  -7   7  -4  129.29   11.80
   7  -7  -4  108.49   13.70
   7  -7  -4  101.69    8.90
   7  -7  -4  105.99   10.10
   7  -7  -4  112.79    9.70
   7   7   4   98.39   11.20
  -7  -7   4  110.19   10.10
   7  -7   4  118.49    9.60
  -7  -7   4  109.59    9.20
  -7  -7   4  114.69    9.90
   7  -7   4  112.99    9.60
  -7  -7   4  121.19   10.20
  -7   7   4  104.89   10.20
   8   7  -4   72.79    7.50
  -7   8  -4   69.99    8.70
  -8  -7  -4   67.79    7.20
  -8  -7  -4   69.19    6.00
   7  -8  -4   68.49    6.60
   7  -8  -4   70.19    6.00
   7  -8  -4   77.09   13.00
   7  -8  -4   66.29    7.20
   8   7   4   54.19    8.50
  -8  -7   4   76.89    7.40
   7  -8   4   71.49    9.70
  -7   8   4   60.59    7.30
  -8  -7   4   77.09    7.70
   7  -8   4   75.79    6.80
   7  -8   4   79.09    6.90
  -8  -7   4   77.49    7.60
  -8  -7   4   72.49    6.50
  -6   8  -4 1148.29   84.09
   6  -8  -4 1116.99   81.99
   6  -8  -4 1108.69   81.29
  -8  -6  -4 1131.69   82.39
  -6   8  -4 1090.19   81.69
  -8  -6  -4 1140.39   80.99
   6  -8  -4  983.30   85.79
   6  -8  -4  977.50   80.49
   8   6  -4 1127.09   82.39
  -8  -6   4 1169.98   82.39
   6  -8   4 1157.18   81.39
  -8  -6   4 1095.49   81.39
   6  -8   4 1232.38   81.69
  -6   8   4 1042.70   82.19
  -8  -6   4 1221.78   82.59
  -8  -6   4 1214.48   82.79
  -8  -5  -4   65.89    5.90
   5  -8  -4   53.49   10.10
   8   5  -4   78.59    7.40
   5  -8  -4   70.79    6.00
  -8  -5  -4   63.49    7.00
  -5   8  -4   70.69    8.30
   5  -8  -4   67.79    6.60
   5  -8  -4   68.49    5.30
  -5   8  -4   75.89    6.50
  -8  -5   4   66.79    6.60
  -8  -5   4   73.79    7.30
   8   5   4   43.20    8.80
   5  -8   4   71.09    6.30
  -8  -5   4   85.09    7.50
  -5   8   4   65.09    6.70
   5  -8   4   71.19    6.40
  -8  -5   4   76.09    7.60
  -8  -5   4   62.49    6.90
   4  -8  -4   69.79    6.00
  -4   8  -4   68.29    5.90
   4  -8  -4   65.29    5.30
  -8  -4  -4   57.19    6.60
  -4   8  -4   62.39    7.60
  -8  -4  -4   63.09    5.50
   8   4  -4   55.79    6.60
   4  -8  -4   50.49    9.80
  -8  -4   4   56.79    6.40
   4  -8   4   61.39    5.70
  -8  -4   4   63.49    6.70
  -8  -4   4   66.39    7.10
  -4   8   4   66.39    6.10
  -8  -4   4   62.79    6.30
   4  -8   4   55.89    5.60
  -8  -4   4   62.89    6.70
  -3   8  -4  253.97   19.90
   3  -8  -4  182.58   20.60
  -3   8  -4  249.28   17.90
  -8  -3  -4  236.28   17.80
   8   3  -4  237.38   17.90
   8   3  -4  240.68   19.00
  -8  -3  -4  258.27   19.70
   3  -8  -4  229.48   17.10
   3  -8  -4  260.67   18.00
  -8  -3  -4  201.18   18.80
  -8  -3   4  228.58   18.90
   3  -8   4  227.18   17.80
   3  -8   4  209.88   17.60
  -8  -3   4  240.78   18.90
  -8  -3   4  240.28   18.40
  -8  -3   4  221.68   19.30
  -8  -3   4  245.38   19.10
  -8  -2  -4 1889.31  136.09
  -2   8  -4 1831.42  134.49
   8   2  -4 1912.81  135.79
  -8  -2  -4 2080.89  136.69
  -2   8  -4 1918.01  136.09
   2  -8  -4 2084.69  134.39
  -8  -2  -4 1726.03  133.89
   2  -8  -4 1699.23  137.59
   8   2  -4 1934.91  134.79
   2  -8  -4 1801.32  133.59
  -8  -2  -4 1833.92  134.49
  -8  -2   4 1861.51  135.49
   2  -8   4 1842.52  134.29
  -8  -2   4 1950.10  135.89
  -8  -2   4 1944.01  135.09
  -8  -2   4 1802.42  135.79
   2  -8   4 1904.41  134.49
  -8  -2   4 1670.63  135.99
  -1   8  -4   26.50    3.10
  -1   8  -4   22.40    4.10
  -8  -1  -4   26.80    4.30
   1  -8  -4   32.90    3.00
  -8  -1  -4   29.20    3.30
   8   1  -4   26.20    3.50
  -8  -1  -4   30.40    3.20
   8   1  -4   30.50    4.40
   8   1  -4   22.50    5.40
   1  -8  -4   18.90    4.90
  -8  -1  -4   35.30    5.60
  -8  -1   4   20.20    4.40
   1  -8   4   25.50    3.50
   1  -8   4   30.10    3.20
   1  -8   4   29.30    3.10
  -8  -1   4   36.60    4.30
  -8  -1   4   21.10    4.20
   1  -8   4   29.30    3.70
  -8  -1   4   28.50    3.90
  -8   0  -4 4440.16  329.17
   0  -8  -4 4430.26  329.77
  -8   0  -4 4787.42  327.77
   8   0  -4 4763.02  327.97
  -8   0  -4 4812.42  327.67
   0  -8  -4 4086.09  327.47
  -8   0  -4 5173.68  329.67
   8   0  -4 4887.11  328.77
   0   8  -4 4347.77  328.17
   0   8  -4 4582.44  327.17
  -8   0   4 4406.86  328.27
  -8   0   4 4527.55  328.87
  -8   0   4 4198.08  329.17
   0  -8   4 4568.14  327.97
   0  -8   4 4834.82  327.27
   0  -8   4 4641.34  327.47
  -8   0   4 4345.17  327.97
  -1  -8  -4   25.50    5.10
   8  -1  -4   33.80    4.50
   1   8  -4   25.70    3.00
   8  -1  -4   21.50    5.20
  -8   1  -4   27.80    5.20
  -1  -8  -4   25.00    2.90
  -1  -8  -4   31.70    3.40
  -8   1  -4   25.30    4.00
   1   8  -4   29.00    3.80
   8  -1  -4   25.70    5.50
  -8   1  -4   25.30    3.40
  -8   1  -4   25.40    4.90
   8  -1  -4   40.30    4.20
  -1  -8   4   30.00    3.10
  -8   1   4   20.70    4.40
  -8   1   4   24.70    3.70
  -8   1   4   20.80    4.70
  -1  -8   4   32.70    3.70
  -8   1   4   31.00    4.40
  -1  -8   4   26.50    3.40
  -1  -8   4   25.90    3.00
   8  -2  -4 1932.01  136.39
   2   8  -4 1935.61  136.69
  -8   2  -4 1876.01  135.99
  -8   2  -4 1909.51  135.49
  -8   2  -4 1946.51  137.19
  -2  -8  -4 1813.62  134.49
  -2  -8  -4 1892.01  134.29
  -2  -8  -4 1842.02  135.09
   2   8  -4 1952.50  134.99
   8  -2  -4 1867.51  135.79
  -2  -8   4 1831.62  135.29
  -2  -8   4 1956.10  134.89
  -8   2   4 1644.84  136.49
  -2  -8   4 1931.61  134.59
  -8   2   4 1848.12  136.09
  -2  -8   4 1903.51  135.39
  -8   2   4 1830.12  135.89
  -3  -8  -4  235.78   17.10
   8  -3  -4  229.18   18.70
  -3  -8  -4  240.58   18.00
  -8   3  -4  238.48   19.10
   8  -3  -4  205.88   19.10
  -8   3  -4  260.27   18.70
  -3  -8  -4  285.97   20.00
   3   8  -4  239.08   17.90
  -8   3  -4  199.78   19.90
   8  -3  -4  243.48   19.10
  -8   3  -4  247.48   20.00
  -3  -8  -4  234.58   17.00
   8  -3  -4  218.58   20.80
  -3  -8   4  238.28   17.50
   8  -3   4  219.68   18.20
  -8   3   4  227.58   18.90
  -3  -8   4  239.58   18.20
  -3  -8   4  244.08   17.80
  -8   3   4  187.28   19.30
  -8   3   4  228.28   19.00
  -3  -8   4  228.28   18.20
   8  -4  -4   76.89    9.90
  -8   4  -4   70.09    7.70
  -4  -8  -4   74.79    7.40
   4   8  -4   59.99    5.90
  -8   4  -4   59.49    7.90
   8  -4  -4   66.79    7.00
  -8   4  -4   57.29    7.00
   8  -4  -4   73.39    7.10
   8  -4  -4   69.39    9.30
  -4  -8  -4   67.69    6.10
  -8   4  -4   62.99    6.50
  -4  -8  -4   69.49    5.00
  -4  -8  -4   60.69    4.90
  -4  -8   4   64.69    6.20
  -4  -8   4   67.99    5.60
  -8   4   4   64.59    6.90
  -4  -8   4   68.69    5.90
   8  -4   4   50.89    6.00
  -8   4   4   64.99    7.30
  -8   4   4   56.39    7.50
  -4  -8   4   64.99    6.30
  -8   4   4   51.99    7.60
  -5  -8  -4   73.39    5.80
   8  -5  -4   72.29    7.20
  -8   5  -4   82.79    8.70
  -5  -8  -4   82.19    7.00
   8  -5  -4   61.89    7.30
  -8   5  -4   70.69    8.00
  -5  -8  -4   66.69    5.50
   8  -5  -4   89.89   11.10
   5   8  -4   75.29    6.80
  -8   5   4   68.19    8.80
  -8   5   4   66.79    7.50
  -5  -8   4   69.99    6.20
   8  -5   4   94.99    7.40
  -8   5   4   53.29    8.00
  -8   5   4   77.49    8.60
  -5  -8   4   80.29    7.20
  -5  -8   4   70.69    6.90
   8  -5   4   79.99    7.10
  -5  -8   4   69.29    6.60
   8  -6  -4  992.90   82.69
   8  -6  -4  961.30   82.39
  -6  -8  -4 1205.78   82.39
   6   8  -4 1090.49   82.09
  -8   6  -4 1280.67   84.59
  -8   6  -4 1225.38   84.09
   8  -6  -4 1134.89   86.99
  -6  -8  -4 1132.59   80.79
  -6  -8  -4 1102.09   81.09
   8  -6  -4 1061.59   81.89
  -6  -8   4 1131.09   81.39
  -8   6   4 1136.39   85.09
  -6  -8   4 1159.78   82.59
  -6  -8   4 1173.78   82.19
   8  -6   4 1145.19   82.29
   8  -6   4 1190.08   82.09
  -6  -8   4 1183.78   82.49
   8  -6   4 1107.09   84.49
  -8   6   4 1047.90   82.99
   8  -7  -4   68.29   12.30
  -7  -8  -4   68.29    5.90
   7   8  -4   71.99    7.10
   8  -7  -4   71.49    7.10
  -7  -8  -4   69.39    7.10
   8  -7  -4   73.79    7.60
  -8   7  -4   69.89    8.40
   8  -7  -4   71.99    6.60
  -8   7  -4   87.69    9.10
  -7  -8   4   70.09    7.00
  -7  -8   4   61.99    7.10
  -7  -8   4   72.19    6.20
   8  -7   4   73.09    9.40
   8  -7   4   78.39    7.00
   8  -7   4   70.69    7.00
  -7  -8   4   76.69    7.40
  -8   7   4   61.79    7.50
  -8  -8  -4 2062.69  142.99
  -8  -8  -4 2031.80  141.39
  -8   8  -4 2085.69  144.89
   8  -8  -4 1910.21  147.59
   8  -8  -4 1917.71  141.49
   8  -8  -4 1954.90  142.39
   8  -8  -4 1876.31  142.99
   8   8  -4 1860.61  142.79
   8  -8   4 2160.88  142.29
  -8  -8   4 2082.89  143.29
   8   8   4 1728.83  144.19
   8  -8   4 2200.48  142.49
  -8  -8   4 2024.10  143.09
  -8  -8   4 2109.19  142.89
  -8   8   4 1674.93  143.09
  -8  -8   4 1781.32  141.09
   8  -8   4 2048.10  146.09
  -9  -8  -4    7.60    1.60
   8  -9  -4    7.70    5.50
   9   8  -4    4.30    2.60
   8  -9  -4    8.20    2.20
  -8   9  -4    6.30    3.30
  -9  -8  -4    5.30    2.40
   8  -9  -4    5.10    1.50
  -9  -8   4   10.30    3.30
  -9  -8   4    4.70    2.50
   8  -9   4    4.80    2.00
  -9  -8   4    4.40    2.30
   8  -9   4   15.60    5.50
   9   8   4    3.20    3.30
   7  -9  -4   35.40    8.80
   7  -9  -4   26.70    2.90
  -9  -7  -4   29.90    3.30
   9   7  -4   31.50    5.40
  -9  -7  -4   29.80    4.40
  -7   9  -4   33.60    6.40
   7  -9  -4   27.60    4.40
   7  -9  -4   35.10    3.80
  -9  -7   4   37.70    5.40
   7  -9   4   33.30    4.20
   7  -9   4   24.10    6.80
  -9  -7   4   27.90    4.70
  -9  -7   4   30.90    3.70
  -9  -7   4   33.30    4.90
   9   7   4   17.00    5.40
   7  -9   4   29.90    3.90
  -9  -6  -4  128.49   10.30
  -6   9  -4  144.39   11.30
   6  -9  -4  126.79   15.30
   6  -9  -4  108.99   11.00
   9   6  -4  127.49   11.90
   6  -9  -4  116.59    9.60
  -6   9  -4  130.39   13.40
   6  -9  -4  136.79   10.50
  -9  -6  -4  115.89   11.60
   6  -9   4  131.59   10.80
  -9  -6   4  139.79   12.00
   6  -9   4  131.09   10.90
  -9  -6   4  154.78   12.60
  -9  -6   4  135.29   12.00
  -9  -6   4  133.99   11.00
   9   5  -4  500.75   36.80
  -9  -5  -4  430.66   36.20
   5  -9  -4  491.15   35.50
  -9  -5  -4  477.15   34.90
  -5   9  -4  536.75   38.40
   5  -9  -4  417.46   39.60
  -5   9  -4  522.45   35.60
   5  -9  -4  456.65   34.70
   5  -9   4  470.65   35.00
  -9  -5   4  501.15   36.60
  -9  -5   4  490.65   36.50
  -9  -5   4  458.95   35.40
  -9  -5   4  484.45   36.90
  -9  -5   4  393.86   36.00
   5  -9   4  479.95   35.20
  -9  -4  -4 1667.63  106.19
   4  -9  -4 1470.65  104.29
  -4   9  -4 1668.63  107.29
   4  -9  -4 1316.47  103.39
  -9  -4  -4 1400.06  105.49
  -4   9  -4 1507.05  104.29
   9   4  -4 1375.96  105.49
  -9  -4  -4 1380.06  103.89
   4  -9   4 1305.27  103.79
   4  -9   4 1416.26  104.09
  -9  -4   4 1429.96  105.89
  -9  -4   4 1315.07  105.29
  -9  -4   4 1507.65  105.49
  -9  -4   4 1418.46  105.49
  -9  -4   4 1517.25  104.69
  -9  -3  -4    9.40    3.10
  -3   9  -4   12.20    2.30
  -3   9  -4   14.50    3.90
   9   3  -4   18.90    3.00
   3  -9  -4   12.40    1.50
   9   3  -4   10.90    3.30
  -9  -3  -4   17.90    2.50
  -9  -3  -4   20.30    4.20
   3  -9  -4   12.70    5.00
  -9  -3   4    8.00    2.80
  -9  -3   4   11.10    3.20
   3  -9   4   12.40    2.30
   3  -9   4   11.60    2.20
  -9  -3   4   13.00    3.60
  -9  -3   4   21.00    3.60
  -2   9  -4  994.40   70.89
  -9  -2  -4  943.41   68.39
  -9  -2  -4  978.80   69.09
   9   2  -4  928.71   70.59
   2  -9  -4  862.71   72.29
   9   2  -4  948.31   69.39
  -9  -2  -4  981.90   70.79
  -9  -2  -4 1062.09   71.19
   2  -9  -4 1046.50   68.79
  -2   9  -4  989.90   68.99
  -9  -2   4  965.30   69.69
  -9  -2   4  907.31   70.49
   2  -9   4  940.71   69.69
   2  -9   4  923.91   68.89
  -9  -2   4  871.11   70.79
  -9  -2   4  894.81   70.19
   2  -9   4  896.41   68.59
   1  -9  -4  176.68   16.80
   9   1  -4  185.28   15.60
   9   1  -4  172.18   14.40
  -9  -1  -4  174.08   15.60
  -9  -1  -4  195.68   15.90
  -9  -1  -4  203.18   13.90
  -1   9  -4  180.88   13.70
  -1   9  -4  166.28   15.00
  -9  -1  -4  184.68   14.00
  -9  -1   4  160.18   15.60
  -9  -1   4  161.58   14.90
   1  -9   4  170.98   13.70
  -9  -1   4  176.18   14.70
   1  -9   4  160.58   14.40
  -9  -1   4  171.28   15.40
   1  -9   4  170.08   13.50
  -9   0  -4    3.40    1.60
   9   0  -4    1.50    1.60
   9   0  -4    4.00    2.30
   0   9  -4    0.50    0.90
  -9   0  -4    1.40    1.80
  -9   0  -4    3.80    1.50
   0   9  -4    0.50    2.60
   0  -9  -4    6.50    1.80
   9   0  -4    2.50    2.90
   0  -9  -4   -0.70    2.10
  -9   0  -4    5.90    2.70
   0  -9   4    2.90    1.30
  -9   0   4    2.30    2.00
  -9   0   4    4.40    2.30
   0  -9   4    0.30    1.20
  -9   0   4   12.10    2.90
   0  -9   4    1.00    1.30
  -9   0   4    0.80    2.00
  -1  -9  -4  178.98   13.50
   9  -1  -4  146.39   14.50
   9  -1  -4  175.48   15.50
  -1  -9  -4  188.38   14.30
  -9   1  -4  175.78   14.50
  -9   1  -4  194.78   16.10
   1   9  -4  178.98   13.80
  -1  -9  -4  212.38   16.80
  -9   1  -4  148.29   15.60
   9  -1  -4  140.19   15.80
  -9   1  -4  203.78   14.40
  -9   1   4  176.38   15.80
  -1  -9   4  188.08   14.60
  -9   1   4  165.88   15.90
  -1  -9   4  180.98   14.30
  -9   1   4  178.48   15.10
  -9   1   4  161.98   15.00
  -1  -9   4  173.68   13.40
  -1  -9   4  181.18   13.70
  -2  -9  -4  955.40   68.59
   9  -2  -4  938.41   70.09
   2   9  -4  962.60   68.29
  -9   2  -4 1022.70   70.69
   9  -2  -4  799.32   69.99
  -9   2  -4 1004.60   69.39
  -9   2  -4  908.01   68.69
  -2  -9  -4 1094.19   71.09
  -2  -9  -4  973.70   67.59
   9  -2  -4  920.11   69.39
  -2  -9   4 1001.60   68.19
  -9   2   4  792.72   70.39
  -2  -9   4  910.41   68.59
  -9   2   4  975.40   69.59
  -2  -9   4  932.81   68.79
  -2  -9   4  998.00   67.89
  -9   2   4  875.31   69.59
  -9   2   4  854.71   70.19
   9  -3  -4   11.10    3.00
   9  -3  -4   19.10    4.10
  -3  -9  -4   15.30    3.90
  -3  -9  -4   12.40    1.60
  -9   3  -4    6.00    3.00
   9  -3  -4    8.10    3.10
  -9   3  -4   12.70    2.70
   3   9  -4   12.00    2.40
  -3  -9  -4   13.60    1.50
  -9   3  -4   15.40    4.10
  -9   3  -4   21.70    3.70
  -3  -9   4   12.70    2.30
  -9   3   4   12.70    3.20
  -9   3   4    8.20    3.40
  -9   3   4   15.10    3.80
  -3  -9   4   13.60    2.60
  -9   3   4   10.50    3.60
  -3  -9   4   13.40    2.00
  -3  -9   4   17.10    3.00
  -9   4  -4 1463.85  101.09
   9  -4  -4 1246.08   99.69
  -4  -9  -4 1463.65   97.79
  -9   4  -4 1297.77  101.59
   4   9  -4 1377.16   98.69
  -4  -9  -4 1323.07   97.69
  -9   4  -4 1447.86  100.29
  -4  -9  -4 1450.35   99.09
   9  -4  -4 1306.27   99.89
   9  -4  -4 1379.16  102.69
  -4  -9   4 1473.55   98.69
   9  -4   4 1276.97   99.09
  -9   4   4 1134.19  100.59
  -4  -9   4 1378.96   99.19
  -9   4   4 1378.66  100.29
  -4  -9   4 1385.86   99.19
  -4  -9   4 1475.25   98.09
  -9   4   4 1276.87  100.09
  -9   5  -4  449.36   38.20
  -5  -9  -4  461.45   34.30
  -5  -9  -4  520.35   35.90
  -9   5  -4  478.75   37.10
   9  -5  -4  448.36   36.60
   9  -5  -4  481.25   39.90
   5   9  -4  487.75   35.60
  -9   5  -4  539.25   38.00
  -5  -9  -4  508.25   34.50
   9  -5  -4  435.96   36.10
  -5  -9   4  518.15   36.10
   9  -5   4  497.05   36.20
  -9   5   4  388.56   37.80
  -5  -9   4  472.15   34.70
   9  -5   4  471.15   35.90
  -5  -9   4  502.95   35.50
  -9   5   4  461.35   37.10
  -5  -9   4  465.05   35.80
  -9   5   4  443.26   36.80
  -9   6  -4  133.09   13.50
   9  -6  -4  109.29   11.70
  -6  -9  -4  123.99    9.60
  -6  -9  -4  137.59   10.00
   9  -6  -4  123.89   15.30
  -9   6  -4  139.39   12.70
   9  -6  -4  110.59   11.40
   9  -6  -4  119.79   11.10
  -6  -9  -4  144.09   11.40
   6   9  -4  131.39   11.10
  -9   6   4  119.79   13.30
  -6  -9   4  132.49   11.30
   9  -6   4  140.19   11.30
  -6  -9   4  129.09   10.90
   9  -6   4  134.79   11.20
  -6  -9   4  127.29    9.90
  -6  -9   4  141.59   11.50
  -9   6   4  112.99   13.20
  -9   6   4  118.19   12.00
   7   9  -4   29.40    4.30
  -9   7  -4   36.50    6.70
   9  -7  -4   23.40    4.50
   9  -7  -4   55.39    6.00
   9  -7  -4   27.00    4.10
   9  -7  -4   38.80    9.50
  -7  -9  -4   34.10    4.60
  -7  -9  -4   40.60    3.50
  -9   7  -4   33.40    6.20
  -9   7   4   30.10    6.70
  -9   7   4   25.50    5.10
  -7  -9   4   39.20    4.60
   9  -7   4   37.60    4.50
  -7  -9   4   37.90    5.30
  -7  -9   4   34.90    4.80
   9  -7   4   35.60    4.80
   9  -8  -4   10.40    5.40
  -8  -9  -4    8.40    2.60
   9  -8  -4    4.80    2.00
   8   9  -4    6.20    2.60
   9  -8  -4    7.10    2.00
  -9   8  -4    8.20    3.70
  -9   8  -4   10.20    3.90
  -8  -9  -4    4.80    1.30
   9  -8  -4    4.20    2.70
  -8  -9   4    3.70    2.40
   9  -8   4    5.00    2.10
  -8  -9   4    5.00    2.20
  -8  -9   4    2.60    2.20
  -9   8   4    7.20    4.00
   9  -8   4    7.30    2.40
  -9   8   4    8.90    3.10
   9   9  -4   17.30    4.00
  -9  -9  -4   17.40    3.90
   9  -9  -4   27.60    3.20
  -9   9  -4   14.20    4.50
   9  -9  -4   18.20    7.00
   9  -9  -4   12.20    3.60
  -9  -9  -4   15.40    2.40
   9  -9  -4   18.30    3.40
  -9   9   4   13.50    4.10
  -9  -9   4   18.20    3.90
   9  -9   4   20.00    3.60
   9  -9   4   20.90    3.60
  -9  -9   4   21.30    4.50
  -9  -9   4   24.00    4.50
   9  -9   4   22.10    6.80
   9 -10  -4  589.24   47.10
  10   9  -4  642.44   49.80
   9 -10  -4  560.94   49.00
 -10  -9  -4  631.94   47.40
   9 -10  -4  620.64   54.29
   9 -10  -4  678.63   48.40
 -10  -9  -4  615.64   49.20
  -9  10  -4  698.93   51.59
   9 -10   4  740.23   48.80
   9 -10   4  732.93   48.50
   9 -10   4  673.23   52.89
 -10  -9   4  655.63   49.70
 -10  -9   4  599.84   48.90
 -10  -9   4  686.53   50.09
   8 -10  -4  765.12   67.39
  10   8  -4  803.42   63.09
 -10  -8  -4  791.52   62.59
   8 -10  -4  875.51   61.49
 -10  -8  -4  801.52   60.89
  -8  10  -4  910.31   65.19
   8 -10  -4  729.43   60.29
   8 -10  -4  760.82   62.29
 -10  -8   4  893.01   63.19
   8 -10   4  946.91   61.69
 -10  -8   4  784.92   62.49
 -10  -8   4  897.01   63.49
   8 -10   4  912.81   66.69
   8 -10   4  915.31   61.99
   7 -10  -4  693.23   49.00
 -10  -7  -4  594.94   50.19
   7 -10  -4  637.54   49.90
  10   7  -4  672.63   51.09
   7 -10  -4  574.54   54.59
  -7  10  -4  672.73   52.59
 -10  -7  -4  650.33   48.80
   7 -10   4  692.83   49.20
 -10  -7   4  723.33   51.29
   7 -10   4  681.53   54.39
 -10  -7   4  656.23   50.49
   7 -10   4  697.53   49.50
 -10  -7   4  716.23   50.89
 -10  -6  -4   91.19    7.70
  -6  10  -4  103.39   11.40
  10   6  -4   91.79    9.70
   6 -10  -4   81.69   14.00
  -6  10  -4   97.69    8.50
 -10  -6  -4   76.49    8.90
   6 -10  -4   91.59    8.50
   6 -10  -4   91.59    7.60
  10   6   4   65.09   11.90
   6 -10   4  106.39   12.90
 -10  -6   4   93.19    9.50
   6 -10   4   93.89    8.20
 -10  -6   4   93.09    9.70
 -10  -6   4   90.19    8.20
 -10  -6   4   90.79    9.40
   6 -10   4   95.59    8.30
  -5  10  -4  358.06   25.30
  10   5  -4  323.37   26.70
 -10  -5  -4  292.47   26.00
   5 -10  -4  286.07   29.60
   5 -10  -4  323.57   25.10
 -10  -5  -4  324.97   24.60
  -5  10  -4  373.06   28.50
   5 -10  -4  320.07   24.20
 -10  -5   4  324.87   26.40
   5 -10   4  322.47   24.90
 -10  -5   4  334.57   25.30
 -10  -5   4  353.96   27.00
 -10  -5   4  332.17   26.40
   5 -10   4  320.47   24.70
   4 -10  -4   70.69    6.40
  -4  10  -4   68.49    8.60
 -10  -4  -4   68.19    6.10
   4 -10  -4   62.39   11.70
 -10  -4  -4   69.69    7.70
  10   4  -4   65.29    7.90
   4 -10  -4   64.89    5.40
  -4  10  -4   73.19    6.40
 -10  -4  -4   70.79    7.80
   4 -10   4   75.19    6.40
 -10  -4   4   74.39    7.90
 -10  -4   4   62.99    7.40
 -10  -4   4   65.69    7.10
   4 -10   4   61.49    6.20
 -10  -4   4   55.79    7.20
  10   4   4   40.80    9.20
 -10  -4   4   65.19    7.90
 -10  -3  -4   90.19    7.80
 -10  -3  -4   98.89    9.60
  -3  10  -4   96.59    8.00
  10   3  -4   89.29    9.60
   3 -10  -4   79.29   11.40
   3 -10  -4   87.69    6.90
  -3  10  -4   98.89   10.30
 -10  -3  -4  112.59   10.00
 -10  -3   4   96.19    9.70
 -10  -3   4   80.89    9.10
   3 -10   4   83.59    7.70
 -10  -3   4   89.39    8.90
 -10  -3   4   88.39    9.50
 -10  -3   4   84.29    9.60
   3 -10   4   86.59    7.80
 -10  -2  -4  148.49   13.40
  -2  10  -4  146.99   11.50
 -10  -2  -4  150.48   13.40
   2 -10  -4  134.49   15.10
 -10  -2  -4  141.99   10.90
 -10  -2  -4  150.28   11.50
  10   2  -4  146.09   13.60
  10   2  -4  142.99   12.10
 -10  -2   4  125.29   12.70
 -10  -2   4  129.09   13.30
 -10  -2   4  137.39   12.50
 -10  -2   4  157.68   13.60
   2 -10   4  130.49   11.30
   2 -10   4  133.99   11.20
  -1  10  -4  997.20   68.39
   1 -10  -4  936.41   71.99
  10   1  -4  928.91   69.19
 -10  -1  -4  900.01   68.39
 -10  -1  -4 1037.30   70.89
  10   1  -4  932.81   70.59
 -10  -1  -4 1071.29   70.79
 -10  -1  -4  990.00   68.29
   1 -10   4  996.40   67.99
   1 -10   4  895.61   68.99
 -10  -1   4  954.10   70.79
 -10  -1   4  968.20   69.49
 -10  -1   4  867.71   69.79
 -10  -1   4  833.62   70.09
   1 -10   4  951.90   68.29
   1 -10   4  776.72   68.99
 -10   0  -4 1614.94  111.79
  10   0  -4 1534.95  112.59
  10   0  -4 1542.45  113.79
 -10   0  -4 1751.32  113.99
   0 -10  -4 1399.46  111.89
 -10   0  -4 1670.23  114.29
   0 -10  -4 1625.14  114.99
   0  10  -4 1621.64  111.39
  10   0  -4 1310.17  113.79
 -10   0  -4 1672.63  111.89
 -10   0   4 1459.65  113.79
 -10   0   4 1448.85  112.99
   0 -10   4 1689.83  111.09
 -10   0   4 1384.26  113.39
   0 -10   4 1460.45  111.99
   0 -10   4 1485.55  112.39
 -10   0   4 1586.44  112.79
  -1 -10  -4  981.70   67.49
  10  -1  -4  829.22   70.19
  10  -1  -4  847.22   68.89
 -10   1  -4  989.80   70.19
  10  -1  -4  944.41   70.19
   1  10  -4  971.10   67.79
  -1 -10  -4 1030.60   71.19
 -10   1  -4  927.11   68.49
  -1 -10  -4  901.11   68.39
 -10   1  -4  994.60   68.29
 -10   1  -4  899.61   70.49
 -10   1   4 1025.00   69.49
  -1 -10   4  922.01   68.69
  -1 -10   4  967.80   67.79
  -1 -10   4  985.70   67.39
 -10   1   4  851.31   69.39
 -10   1   4  805.92   69.79
  -1 -10   4  917.21   68.39
 -10   1   4  918.81   70.59
 -10   2  -4  146.09   11.90
 -10   2  -4  123.69   13.80
   2  10  -4  133.49   11.30
  -2 -10  -4  141.69   11.90
  10  -2  -4  155.48   13.10
 -10   2  -4  144.89   13.50
  10  -2  -4  122.79   13.60
  -2 -10  -4  142.49   10.80
  10  -2  -4  139.69   13.60
  -2 -10  -4  153.98   14.10
 -10   2  -4  149.29   12.40
 -10   2   4  132.49   12.90
  -2 -10   4  137.09   11.90
 -10   2   4  139.89   13.10
 -10   2   4  118.39   13.20
 -10   2   4  126.99   13.70
  -2 -10   4  159.68   12.40
  -2 -10   4  143.29   10.90
  -2 -10   4  147.89   11.40
  10  -3  -4   76.99    9.60
  -3 -10  -4   92.99    7.00
 -10   3  -4  103.39   10.20
  -3 -10  -4  110.69   10.50
  10  -3  -4   84.09    9.70
 -10   3  -4   84.49    8.80
  10  -3  -4   87.79    9.10
   3  10  -4   91.29    7.80
 -10   3  -4   88.79    8.40
 -10   3  -4   69.59    9.80
  -3 -10  -4   94.89    8.30
  -3 -10   4   86.19    8.30
 -10   3   4   66.79    9.30
 -10   3   4  101.59   10.00
  -3 -10   4   93.99    7.30
 -10   3   4   77.19   10.10
  -3 -10   4  108.39    8.00
  -3 -10   4   82.59    8.30
 -10   3   4   81.49    9.20
  -4 -10  -4   71.19    5.50
  10  -4  -4   62.39    7.90
   4  10  -4   65.49    6.30
  -4 -10  -4   91.19    8.70
 -10   4  -4   54.39    8.50
  -4 -10  -4   71.59    6.80
 -10   4  -4   72.19    8.40
 -10   4  -4   66.79    7.50
  10  -4  -4   55.59    7.50
  -4 -10   4   78.39    6.50
  -4 -10   4   62.59    6.70
 -10   4   4   66.19    7.90
  -4 -10   4   66.09    6.80
 -10   4   4   66.39    8.30
 -10   4   4   61.39    8.40
 -10   4   4   57.49    8.50
  -4 -10   4   67.49    5.60
   5  10  -4  316.67   24.40
 -10   5  -4  339.47   26.10
  -5 -10  -4  355.06   23.40
 -10   5  -4  370.86   27.10
  -5 -10  -4  342.07   24.90
 -10   5  -4  289.57   27.20
  10  -5  -4  316.97   25.40
  10  -5  -4  279.67   25.60
 -10   5   4  289.77   25.90
  -5 -10   4  333.07   24.40
 -10   5   4  266.07   26.50
  -5 -10   4  329.07   25.00
 -10   5   4  304.17   26.30
  -5 -10   4  296.27   24.70
  10  -5   4  325.37   24.90
  10  -6  -4   89.89    8.90
   6  10  -4   89.49    8.40
  10  -6  -4   85.19    9.50
  10  -6  -4   84.09    9.10
 -10   6  -4  102.59   10.60
 -10   6  -4   86.19   10.90
  -6 -10  -4   95.19    7.30
 -10   6  -4  101.39   10.10
  -6 -10  -4  100.69    8.80
  10  -6   4   84.29    8.50
  -6 -10   4   86.39    8.80
  -6 -10   4   94.39    8.40
 -10   6   4  100.39   10.10
 -10   6   4   73.19   10.50
 -10   6   4   78.69   10.60
  -6 -10   4   86.89    8.70
  10  -6   4   94.59    8.80
 -10   6   4   90.79   11.10
  10  -7  -4  626.14   49.20
  10  -7  -4  685.43   54.79
 -10   7  -4  720.13   51.49
 -10   7  -4  653.43   52.49
  10  -7  -4  621.14   50.69
   7  10  -4  653.83   49.60
  -7 -10  -4  706.73   49.99
  10  -7  -4  668.43   50.29
  -7 -10  -4  651.13   48.30
  10  -7   4  659.53   49.60
  -7 -10   4  696.53   50.09
  10  -7   4  772.32   49.80
  -7 -10   4  674.03   50.09
 -10   7   4  627.54   52.49
  -7 -10   4  728.13   49.70
 -10   7   4  569.54   50.69
 -10   7   4  580.24   52.49
 -10   8  -4  944.81   65.39
  10  -8  -4  799.02   62.39
  10  -8  -4  867.21   63.59
   8  10  -4  804.92   63.29
  -8 -10  -4  864.21   63.59
  10  -8  -4  748.93   63.99
 -10   8  -4  827.62   66.09
  10  -8  -4  828.22   68.29
  -8 -10  -4  852.01   61.79
  -8 -10   4  880.61   63.79
  10  -8   4  985.70   63.29
  10  -8   4  948.51   63.39
  -8 -10   4  830.22   63.09
 -10   8   4  776.92   66.39
  -8 -10   4  848.62   63.79
  10  -9  -4  613.84   47.50
  -9 -10  -4  634.44   49.20
 -10   9  -4  693.43   50.99
  10  -9  -4  626.04   49.70
  10  -9  -4  669.63   54.49
  -9 -10  -4  638.64   47.20
   9  10  -4  636.44   49.20
  10  -9  -4  707.33   49.00
  10  -9   4  736.03   48.90
  -9 -10   4  675.93   49.70
 -10   9   4  580.14   51.79
  -9 -10   4  626.14   48.70
  -9 -10   4  622.24   49.30
 -10  10  -4   86.79   10.70
  10 -10  -4   80.79    9.40
 -10 -10  -4   73.89    8.80
 -10 -10  -4   78.09    7.00
  10 -10  -4   93.69    8.40
  10 -10  -4   82.19    7.30
  10  10  -4   81.29    9.20
  10 -10  -4   98.99   16.70
 -10 -10   4   89.39    9.50
 -10 -10   4   81.49   11.10
 -10  10   4   84.09   11.50
 -10 -10   4   86.09    9.30
  10 -10   4   95.39    8.60
  10 -10   4   98.19    8.80
  10 -11  -4   76.39    6.60
  10 -11  -4   88.79   15.80
  10 -11  -4   81.69    7.80
  10 -11  -4   73.39    9.00
  11  10  -4   76.49    9.30
 -11 -10  -4   77.29    6.70
 -11 -10  -4   71.59    8.60
 -10  11  -4   81.09   10.60
  10 -11   4  102.79    8.60
 -11 -10   4   79.09    9.20
 -10  11   4   78.59   11.30
  10 -11   4   89.29    8.40
 -11 -10   4   81.99    9.50
 -11  -9  -4   60.09    7.60
   9 -11  -4   63.99    7.90
 -11  -9  -4   66.49    6.00
   9 -11  -4   54.49   12.70
  11   9  -4   65.79    8.70
  -9  11  -4   78.09   10.20
   9 -11  -4   70.79    6.70
 -11  -9   4   69.59    7.60
   9 -11   4   72.89    7.40
   9 -11   4   68.49    7.10
   9 -11   4   67.79   12.00
 -11  -9   4   79.19    8.80
 -11  -9   4   69.49    8.30
   8 -11  -4    5.50    2.70
   8 -11  -4    7.70    2.00
  -8  11  -4    9.70    4.50
 -11  -8  -4    7.00    2.90
   8 -11  -4    7.90    6.30
 -11  -8  -4    6.40    1.70
  11   8  -4   10.90    4.10
   8 -11   4    7.60    5.00
 -11  -8   4    7.60    3.00
 -11  -8   4    7.10    3.30
 -11  -8   4    6.80    3.10
   8 -11   4    9.30    2.60
   8 -11   4   11.20    2.80
  11   8   4    0.80    3.40
   7 -11  -4  709.73   51.69
 -11  -7  -4  636.74   53.19
 -11  -7  -4  698.93   51.59
   7 -11  -4  665.13   52.59
  -7  11  -4  774.32   56.29
  11   7  -4  707.83   54.39
   7 -11  -4  612.04   57.89
 -11  -7   4  709.53   53.89
   7 -11   4  772.12   52.49
   7 -11   4  761.62   52.09
 -11  -7   4  639.04   53.29
 -11  -7   4  728.53   54.19
   7 -11   4  783.42   58.09
  11   6  -4   10.30    3.70
 -11  -6  -4    8.70    3.10
 -11  -6  -4    9.10    2.00
  -6  11  -4   31.30    7.00
   6 -11  -4    9.50    2.70
   6 -11  -4    6.20    4.80
   6 -11  -4    8.90    1.80
   6 -11   4    9.70    2.40
   6 -11   4    8.90    2.50
 -11  -6   4    8.50    3.20
 -11  -6   4   21.60    4.50
  11   6   4    9.10    4.80
 -11  -6   4   10.30    2.40
   6 -11   4    6.40    4.30
 -11  -6   4    8.60    3.50
  11   5  -4  667.43   51.69
   5 -11  -4  568.64   54.39
   5 -11  -4  650.63   48.50
 -11  -5  -4  704.23   49.10
  -5  11  -4  699.53   49.60
 -11  -5  -4  703.83   50.99
 -11  -5   4  659.93   50.99
 -11  -5   4  650.23   49.50
 -11  -5   4  716.33   51.19
   5 -11   4  660.33   49.00
   5 -11   4  696.83   54.99
 -11  -5   4  690.53   51.49
   5 -11   4  714.43   49.40
 -11  -5   4  551.34   50.59
  11   4  -4   77.79    9.20
 -11  -4  -4   88.39    7.00
  -4  11  -4   83.19    7.30
   4 -11  -4   74.59    6.20
   4 -11  -4   66.59   12.60
 -11  -4  -4   86.19    8.90
 -11  -4  -4   92.89    9.00
   4 -11   4   73.39    7.00
 -11  -4   4   72.99    8.90
 -11  -4   4   63.29    8.30
   4 -11   4   67.49    6.90
 -11  -4   4   77.89    8.00
 -11  -4   4   78.09    8.60
 -11  -4   4   66.59    8.50
  11   4   4   49.90   10.40
 -11  -3  -4 2269.27  166.68
 -11  -3  -4 2585.94  169.18
 -11  -3  -4 2631.04  169.18
  11   3  -4 2215.58  169.38
   3 -11  -4 1950.80  171.08
  -3  11  -4 2427.06  166.88
 -11  -3   4 2318.07  167.68
 -11  -3   4 2122.29  168.68
   3 -11   4 2190.28  166.38
   3 -11   4 2319.57  166.88
 -11  -3   4 2450.35  169.48
 -11  -2  -4   18.00    3.00
  11   2  -4   24.40    5.70
  -2  11  -4   28.50    3.30
 -11  -2  -4   19.00    2.50
   2 -11  -4   55.19    9.20
  11   2  -4   18.90    4.10
 -11  -2  -4   22.20    4.90
 -11  -2  -4   30.10    5.50
 -11  -2   4   18.70    4.20
 -11  -2   4   21.70    5.00
   2 -11   4   22.60    3.30
 -11  -2   4   21.60    5.00
 -11  -2   4   12.80    3.90
   2 -11   4   19.90    3.90
   2 -11   4   26.40    3.30
  -1  11  -4  225.08   16.80
 -11  -1  -4  268.37   19.90
 -11  -1  -4  218.38   17.00
   1 -11  -4  220.98   20.80
 -11  -1  -4  237.38   19.10
  11   1  -4  204.78   17.90
 -11  -1  -4  218.98   16.70
  11   1  -4  202.18   19.30
 -11  -1   4  171.58   18.20
   1 -11   4  192.28   17.50
 -11  -1   4  207.88   18.20
 -11  -1   4  182.98   18.60
   1 -11   4  215.58   16.40
   1 -11   4  235.98   16.90
 -11  -1   4  218.58   19.40
 -11   0  -4    0.70    2.40
 -11   0  -4    5.90    2.00
 -11   0  -4    0.30    1.20
  11   0  -4    0.20    3.10
   0 -11  -4   -0.30    2.40
  11   0  -4    0.60    2.20
   0  11  -4    1.90    1.30
   0 -11  -4    0.50    1.00
 -11   0  -4    4.90    2.70
   0 -11  -4    0.80    1.30
  11   0  -4    4.70    2.60
 -11   0   4    2.50    2.70
   0 -11   4    3.70    1.80
   0 -11   4    4.40    2.00
   0 -11   4    1.70    1.30
   0 -11   4    1.50    1.30
 -11   0   4    0.00    2.30
 -11   0   4    0.80    1.90
 -11   0   4    0.80    2.20
 -11   1  -4  235.28   18.90
  11  -1  -4  190.18   17.70
 -11   1  -4  207.48   19.20
  11  -1  -4  198.08   19.10
  11  -1  -4  202.98   19.00
  -1 -11  -4  194.68   19.20
   1  11  -4  210.98   16.30
 -11   1  -4  212.08   16.70
  -1 -11  -4  191.08   16.90
  -1 -11  -4  212.48   16.00
 -11   1  -4  220.38   17.10
  -1 -11   4  215.98   15.80
 -11   1   4  208.48   18.20
  -1 -11   4  212.38   17.10
 -11   1   4  199.08   19.00
  -1 -11   4  185.28   17.10
 -11   1   4  239.08   18.80
  -1 -11   4  223.18   16.40
   2  11  -4   25.30    3.20
 -11   2  -4   19.20    5.20
  -2 -11  -4   23.80    2.60
 -11   2  -4   20.20    3.90
  -2 -11  -4   29.00    6.20
  11  -2  -4   22.80    5.60
  11  -2  -4   18.70    4.30
  -2 -11  -4   18.10    3.50
  11  -2  -4   20.90    5.50
 -11   2  -4   24.10    3.80
 -11   2  -4   22.90    5.20
 -11   2   4   18.40    4.60
  -2 -11   4   22.50    3.10
 -11   2   4   20.20    5.20
  -2 -11   4   22.10    2.60
  -2 -11   4   16.10    3.60
 -11   2   4   23.10    5.70
  -2 -11   4   21.90    3.90
 -11   2   4   14.70    4.00
  -3 -11  -4 2196.18  155.18
   3  11  -4 2279.77  156.08
  11  -3  -4 2060.99  158.08
 -11   3  -4 2377.56  156.78
  11  -3  -4 1972.60  157.68
 -11   3  -4 2319.57  157.38
  11  -3  -4 2124.09  158.78
 -11   3  -4 1899.21  159.08
  -3 -11  -4 2186.78  156.78
 -11   3  -4 2471.35  158.98
  -3 -11   4 2059.29  156.78
 -11   3   4 1861.71  158.38
 -11   3   4 2004.30  158.08
  -3 -11   4 2392.96  156.08
 -11   3   4 2304.17  158.28
 -11   3   4 2005.70  159.28
  -3 -11   4 2283.87  156.88
  -3 -11   4 2193.48  154.88
  11  -4  -4   65.59    8.40
 -11   4  -4   59.39    9.30
  -4 -11  -4   83.09    7.70
  -4 -11  -4   75.79    6.10
  11  -4  -4   71.29    8.90
 -11   4  -4   78.79    8.20
 -11   4  -4   81.39    9.10
   4  11  -4   82.19    7.10
  -4 -11   4   68.29    7.60
 -11   4   4   64.29    8.40
  -4 -11   4   83.99    7.10
  -4 -11   4   73.19    7.50
 -11   4   4   67.69    9.70
 -11   4   4   69.49    9.30
 -11   4   4   85.79    9.90
  -5 -11  -4  720.53   47.20
 -11   5  -4  715.63   49.99
 -11   5  -4  528.45   50.99
  11  -5  -4  592.84   49.90
  11  -5  -4  620.84   49.40
   5  11  -4  678.13   48.30
  -5 -11  -4  726.43   49.10
 -11   5   4  561.04   49.90
 -11   5   4  664.73   50.59
 -11   5   4  568.94   50.69
  -5 -11   4  693.23   49.00
  -5 -11   4  638.54   48.90
  -5 -11   4  708.53   48.30
 -11   6  -4    6.40    3.80
  11  -6  -4   10.20    3.40
  -6 -11  -4   10.90    3.00
  -6 -11  -4   11.40    1.80
 -11   6  -4   15.10    4.00
   6  11  -4    9.90    2.60
 -11   6  -4   10.40    4.00
  11  -6  -4   11.00    4.00
  11  -6  -4   10.60    3.30
  11  -6   4   10.40    2.80
  -6 -11   4   13.20    2.80
 -11   6   4    8.20    4.20
  -6 -11   4    9.60    3.00
 -11   6   4    8.60    4.10
 -11   6   4    4.00    3.30
  -6 -11   4   10.60    3.00
 -11   6   4    8.10    3.60
   7  11  -4  698.33   52.89
  11  -7  -4  674.73   52.69
  -7 -11  -4  714.33   53.29
  -7 -11  -4  679.63   51.39
  11  -7  -4  737.83   53.99
 -11   7  -4  831.92   55.69
 -11   7  -4  738.03   54.49
 -11   7  -4  595.44   55.39
  11  -7  -4  616.64   54.09
  11  -7   4  809.32   53.19
  11  -7   4  760.72   53.19
 -11   7   4  670.23   55.79
  -7 -11   4  748.33   52.79
  -7 -11   4  682.73   53.19
  -7 -11   4  692.03   53.39
   8  11  -4    9.10    3.00
  -8 -11  -4    7.10    2.80
 -11   8  -4    7.00    4.00
  11  -8  -4   10.30    3.20
  11  -8  -4    7.50    2.50
  11  -8  -4    5.30    3.20
 -11   8  -4    5.30    3.50
  -8 -11  -4    7.00    1.40
 -11   8  -4   11.60    4.40
  -8 -11   4    7.00    2.50
  -8 -11   4    6.90    2.80
  -8 -11   4    7.90    3.00
  11  -8   4    9.30    3.10
 -11   8   4    4.00    3.10
 -11   8   4    8.70    4.30
  11  -8   4   13.30    3.10
  11  -9  -4   51.79    8.60
  11  -9  -4   78.39    7.80
  11  -9  -4   63.99    6.60
  -9 -11  -4   66.09    7.70
 -11   9  -4   62.19    9.50
  -9 -11  -4   65.09    5.60
   9  11  -4   63.99    7.70
 -11   9  -4   76.89    9.40
  -9 -11   4   70.99    8.00
  -9 -11   4   70.79    8.20
 -11   9   4   52.59    9.20
 -11   9   4   57.39    9.70
  11  -9   4   87.09    7.80
  11  -9   4   74.49    7.80
  11 -10  -4   75.39    9.50
  10  11  -4   88.89    9.30
  11 -10  -4   99.59    8.60
 -10 -11  -4   77.99    8.80
  11 -10  -4   75.79    7.20
 -10 -11  -4   68.79    6.40
 -11  10  -4   68.09   10.50
 -11  10  -4   97.39   10.70
 -10 -11   4   83.89    9.20
  11 -10   4   97.69    8.60
  11 -10   4   92.39    8.80
 -11  10   4   52.99   10.90
 -10 -11   4   84.89    9.40
 -11  11  -4  491.85   45.10
  11  11  -4  572.54   43.60
  11 -11  -4  549.25   40.30
  11 -11  -4  628.34   42.10
 -11 -11  -4  494.35   42.50
 -11 -11  -4  542.55   40.20
  11 -11  -4  537.25   57.49
  11 -11  -4  526.55   43.20
 -11  11  -4  626.94   45.00
 -11 -11   4  562.64   43.60
 -11 -11   4  565.94   43.30
  11 -11   4  644.54   42.40
 -11  11   4  459.15   45.20
 -10  12  -4    3.20    4.00
 -12 -10  -4    2.60    2.60
 -12 -10  -4    5.00    1.50
  10 -12  -4    6.10    3.20
  10 -12  -4    3.70    1.90
  12  10  -4    7.40    3.90
  10 -12  -4    3.70    5.40
  10 -12   4    7.40    3.00
 -10  12   4    6.70    4.30
  10 -12   4    6.50    2.70
 -12 -10   4    4.50    3.10
 -12 -10   4    3.70    3.10
   9 -12  -4 1011.00   82.89
   9 -12  -4  890.61   76.29
 -12  -9  -4  920.61   76.69
   9 -12  -4 1114.09   75.39
 -12  -9  -4  982.40   74.79
  -9  12  -4 1065.19   79.59
  12   9  -4  950.90   77.99
 -12  -9   4 1054.19   77.69
   9 -12   4 1207.68   76.29
   9 -12   4 1123.79   75.69
   9 -12   4 1123.59   81.79
 -12  -9   4  987.70   77.59
   8 -12  -4   26.90    4.80
   8 -12  -4   35.90    3.80
  -8  12  -4   35.60    8.20
   8 -12  -4   27.70    9.60
  12   8  -4   30.60    6.60
 -12  -8  -4   26.80    5.40
 -12  -8  -4   35.40    3.70
 -12  -8   4   31.90    6.00
 -12  -8   4   25.60    5.20
   8 -12   4   33.30    4.80
  12   8   4   15.70    6.00
 -12  -8   4   25.30    5.60
   8 -12   4   40.40    9.50
   8 -12   4   33.00    4.60
   7 -12  -4 1095.79   76.19
  12   7  -4  992.30   79.49
   7 -12  -4 1055.49   84.39
 -12  -7  -4 1016.70   78.19
 -12  -7  -4 1039.50   76.39
 -12  -7   4 1037.70   78.99
   7 -12   4 1140.29   76.79
   7 -12   4 1107.69   77.09
 -12  -7   4  882.01   77.89
 -12  -7   4 1097.19   78.99
   7 -12   4 1121.89   83.19
  12   6  -4   21.10    5.80
   6 -12  -4   34.50    3.30
 -12  -6  -4   28.10    5.30
   6 -12  -4   31.50    9.70
 -12  -6  -4   31.30    3.60
 -12  -6   4   22.60    5.20
   6 -12   4   27.90    4.00
  12   6   4   23.50    7.60
 -12  -6   4   22.90    5.00
   6 -12   4   26.10    8.00
 -12  -6   4   23.00    5.10
   6 -12   4   30.70    4.10
 -12  -5  -4  184.48   15.70
   5 -12  -4  145.39   19.00
 -12  -5  -4  181.48   13.70
  12   5  -4  173.28   16.70
 -12  -5   4  177.18   14.10
  12   5   4  125.59   17.20
 -12  -5   4  156.38   15.40
   5 -12   4  161.88   13.60
 -12  -5   4  160.18   15.70
   5 -12   4  160.68   19.00
 -12  -5   4  184.38   15.90
 -12  -5   4  169.68   16.00
   5 -12   4  186.68   14.10
   4 -12  -4   40.60    9.80
 -12  -4  -4   47.60    6.50
 -12  -4  -4   43.40    6.30
  12   4  -4   37.80    7.70
 -12  -4  -4   45.70    4.70
  12   4   4   32.00    8.30
 -12  -4   4   45.60    5.90
 -12  -4   4   33.00    6.50
 -12  -4   4   33.30    6.30
   4 -12   4   40.20    4.80
   4 -12   4   48.40    5.00
   4 -12   4   47.10   10.40
 -12  -4   4   42.90    6.70
 -12  -3  -4   82.89    8.70
 -12  -3  -4   73.49    6.60
  12   3  -4   71.49    9.60
   3 -12  -4   54.69   11.60
 -12  -3  -4   94.09    9.00
 -12  -3   4   79.89    9.10
   3 -12   4   70.59    6.70
 -12  -3   4   52.29    7.90
   3 -12   4   64.59    6.30
 -12  -3   4   70.89    7.90
 -12  -3   4   46.70    8.10
   3 -12   4   76.59   13.30
  12   3   4   45.20   10.30
  -2  12  -4   12.90    2.80
 -12  -2  -4    5.10    1.90
 -12  -2  -4    7.20    3.30
   2 -12  -4    5.80    4.40
  12   2  -4    3.90    3.50
 -12  -2  -4    7.70    3.70
 -12  -2   4    7.40    3.30
   2 -12   4    6.30    2.00
   2 -12   4    5.90    2.00
 -12  -2   4    6.70    3.30
 -12  -2   4    8.00    3.30
 -12  -2   4    1.50    2.40
 -12  -1  -4 1926.51  128.89
 -12  -1  -4 1757.02  125.49
   1 -12  -4 1685.93  130.19
  12   1  -4 1547.85  126.99
 -12  -1  -4 1758.72  125.89
  -1  12  -4 1723.43  125.69
   1 -12  -4 1689.83  125.89
  12   1  -4 1566.44  128.79
 -12  -1  -4 1946.61  128.39
   1 -12   4 1783.72  125.19
 -12  -1   4 1860.21  128.99
 -12  -1   4 1698.03  127.09
   1 -12   4 1767.92  125.79
   1 -12   4 1675.93  126.79
 -12   0  -4   39.10    4.60
 -12   0  -4   43.30    4.80
  12   0  -4   40.00    6.90
 -12   0  -4   44.70    6.90
  12   0  -4   42.30    8.30
  12   0  -4   32.30    7.20
 -12   0  -4   36.40    6.50
   0 -12  -4   43.50    8.60
   0  12  -4   45.30    4.60
   0 -12  -4   39.80    4.40
 -12   0   4   37.60    6.40
   0 -12   4   43.20    4.10
   0 -12   4   32.10    5.00
   0 -12   4   43.70    4.60
   0 -12   4   45.90    5.60
 -12   0   4   34.00    6.90
 -12   0   4   24.90    5.70
 -12   0   4   44.40    7.20
   1  12  -4 1629.64  121.59
  -1 -12  -4 1701.53  121.39
  12  -1  -4 1681.93  124.69
  12  -1  -4 1542.25  124.79
 -12   1  -4 1722.83  121.99
  -1 -12  -4 1464.85  122.39
 -12   1  -4 1848.42  125.59
  -1 -12  -4 1777.42  125.59
 -12   1  -4 1911.11  124.59
  12  -1  -4 1454.65  123.29
 -12   1  -4 1812.42  122.39
 -12   1   4 1797.22  125.39
  -1 -12   4 1717.73  122.59
  -1 -12   4 1428.16  122.59
  -1 -12   4 1797.62  121.69
  -1 -12   4 1729.73  120.69
 -12   1   4 1678.93  123.59
  12  -2  -4    8.20    4.20
  -2 -12  -4    4.80    3.60
 -12   2  -4    5.60    2.20
  -2 -12  -4    7.80    2.50
   2  12  -4    6.00    1.90
 -12   2  -4   10.50    3.80
 -12   2  -4    5.10    3.60
 -12   2  -4   10.00    2.90
  12  -2  -4    5.10    3.80
  -2 -12  -4    6.40    1.60
  12  -2  -4    5.50    2.90
  -2 -12   4    8.10    2.60
 -12   2   4    6.50    3.80
  -2 -12   4    4.60    1.80
 -12   2   4    9.60    4.00
  -2 -12   4    4.00    2.30
 -12   2   4    8.80    3.30
 -12   2   4    4.00    3.20
  -3 -12  -4   74.49    7.80
  -3 -12  -4   71.39    6.20
  12  -3  -4   66.89    8.80
   3  12  -4   76.59    7.10
  12  -3  -4   67.39    9.70
  -3 -12  -4   88.89   10.00
  12  -3  -4   65.49    9.40
 -12   3  -4   88.09    9.60
 -12   3  -4   85.59    8.20
 -12   3  -4   64.69    9.80
  -3 -12   4   79.99    8.00
 -12   3   4   73.39    9.00
 -12   3   4   49.70    9.20
 -12   3   4   68.09    9.80
 -12   3   4   73.49    9.70
  -3 -12   4   95.89    7.30
  -3 -12   4   70.59    7.80
 -12   4  -4   37.00    7.80
   4  12  -4   45.40    4.90
  12  -4  -4   41.00    7.40
  -4 -12  -4   43.10    5.50
 -12   4  -4   43.10    5.80
  -4 -12  -4   42.50    3.90
  12  -4  -4   41.80    7.10
 -12   4  -4   46.90    7.70
  -4 -12   4   49.10    4.90
  -4 -12   4   37.60    5.20
 -12   4   4   38.50    8.00
 -12   4   4   33.70    7.00
 -12   4   4   27.20    6.20
  -4 -12   4   47.80    5.70
 -12   4   4   42.00    7.60
  12  -5  -4  169.28   16.20
  -5 -12  -4  179.48   13.00
 -12   5  -4  217.88   17.20
  -5 -12  -4  178.38   14.90
 -12   5  -4  125.89   16.40
   5  12  -4  171.18   14.10
  12  -5  -4  179.38   15.90
 -12   5  -4  187.88   15.60
 -12   5   4  151.58   16.60
 -12   5   4  136.99   15.70
 -12   5   4  136.19   16.90
 -12   5   4  170.68   16.80
  -5 -12   4  180.58   14.90
  -5 -12   4  169.38   14.90
  -5 -12   4  185.18   14.10
 -12   6  -4   35.80    6.70
   6  12  -4   28.00    4.40
  -6 -12  -4   39.20    5.00
 -12   6  -4   15.90    5.70
  -6 -12  -4   30.70    3.00
 -12   6  -4   30.00    5.70
  12  -6  -4   30.60    6.60
  12  -6  -4   26.50    5.20
  12  -6  -4   29.20    5.80
 -12   6   4   15.60    5.80
 -12   6   4   26.90    6.40
 -12   6   4   19.00    5.20
 -12   6   4   20.10    5.90
  -6 -12   4   33.80    4.20
  -6 -12   4   25.90    4.80
  -6 -12   4   25.90    4.80
  12  -7  -4 1127.09   78.29
  -7 -12  -4 1034.80   75.19
 -12   7  -4 1105.89   78.39
  12  -7  -4 1039.60   76.89
  12  -7  -4  924.31   78.39
   7  12  -4 1051.19   76.79
  -7 -12  -4 1014.70   77.29
  12  -7   4 1101.89   77.09
 -12   7   4 1001.20   79.79
 -12   7   4  995.90   79.19
  -7 -12   4  991.00   77.39
  12  -7   4 1165.88   77.29
  -7 -12   4 1008.70   77.19
 -12   8  -4   31.90    6.00
  12  -8  -4   28.60    6.40
  12  -8  -4   25.60    4.50
   8  12  -4   32.60    5.20
  -8 -12  -4   28.00    2.80
  -8 -12  -4   34.30    5.10
 -12   8  -4   32.70    6.90
  12  -8  -4   31.30    5.40
 -12   8  -4   27.30    7.20
  -8 -12   4   33.10    5.30
 -12   8   4   17.80    5.30
  12  -8   4   34.40    5.20
 -12   8   4   19.50    6.50
  12  -8   4   32.10    5.20
  -8 -12   4   28.20    5.00
  12  -9  -4 1137.89   75.89
  -9 -12  -4  976.90   72.89
 -12   9  -4 1084.49   76.99
  12  -9  -4  903.61   76.49
  12  -9  -4 1019.20   74.19
   9  12  -4 1020.00   75.59
  -9 -12  -4  917.91   75.49
  -9 -12   4 1013.80   75.79
  -9 -12   4  989.40   76.09
  12  -9   4 1119.79   75.29
 -12  10  -4    9.60    4.20
 -12  10  -4    5.80    3.90
 -10 -12  -4    5.80    3.00
  12 -10  -4    6.40    2.90
  10  12  -4    4.90    3.20
  12 -10  -4    5.10    3.60
  12 -10  -4    3.30    2.10
  12 -10   4    8.50    3.40
 -10 -12   4    5.20    3.20
  12 -10   4    3.00    2.60
 -10 -12   4    6.10    3.10
 -12  10   4    1.00    3.60
 -13  -9  -4   29.90    5.70
   9 -13  -4   40.70   11.40
  13   9  -4   27.50    6.90
 -13  -9  -4   30.60    3.70
   9 -13  -4   36.50    4.20
   9 -13   4   39.00    5.30
 -13  -9   4   33.60    6.30
   9 -13   4   37.80   10.10
   9 -13   4   37.70    5.00
 -13  -9   4   38.10    7.00
  13   8  -4    0.10    3.10
 -13  -8  -4    2.40    1.40
   8 -13  -4    0.90    5.20
 -13  -8  -4    2.40    2.60
   8 -13  -4    4.30    1.60
   8 -13   4    1.90    2.30
   8 -13   4    7.10    5.80
  13   8   4    3.10    4.20
 -13  -8   4    6.40    3.30
 -13  -8   4    4.80    3.10
   8 -13   4    1.20    1.90
 -13  -8   4   -0.60    2.30
 -13  -7  -4   28.70    5.40
  13   7  -4   29.80    7.00
 -13  -7  -4   28.50    3.60
   7 -13  -4   29.30   10.00
 -13  -7   4   38.50    6.60
  13   7   4   18.00    6.70
   7 -13   4   49.99   11.20
 -13  -7   4   28.70    5.70
   7 -13   4   29.60    4.30
   7 -13   4   31.70    4.40
 -13  -7   4   32.90    6.40
 -13  -6  -4   86.29    9.00
   6 -13  -4   57.19   13.20
 -13  -6  -4   67.79    6.60
  13   6  -4   85.09   10.70
 -13  -6   4   56.59    8.00
   6 -13   4   73.19    7.00
   6 -13   4   75.29   13.40
 -13  -6   4   66.49    8.90
   6 -13   4   75.69    7.30
  13   6   4   56.19   11.80
 -13  -6   4   81.19    9.20
   5 -13  -4  822.52   76.89
  13   5  -4  901.21   74.39
 -13  -5  -4 1082.79   73.29
 -13  -5  -4  965.10   70.69
 -13  -5   4 1072.99   73.89
   5 -13   4 1000.20   70.59
   5 -13   4 1003.10   71.19
   5 -13   4  997.20   77.59
 -13  -5   4  804.82   76.59
  13   4  -4   28.80    7.10
   4 -13  -4   21.50    7.90
 -13  -4  -4   24.20    3.70
 -13  -4  -4   24.10    5.40
 -13  -4  -4   31.20    5.90
  13   4   4   19.80    7.10
 -13  -4   4   29.20    6.20
   4 -13   4   26.90    4.10
 -13  -4   4   33.40    6.60
 -13  -4   4   19.40    5.00
   4 -13   4   38.90    9.60
 -13  -4   4   30.60    4.60
   3 -13  -4  503.85   37.80
   3 -13  -4  487.35   42.90
 -13  -3  -4  504.75   37.00
  13   3  -4  506.45   41.00
   3 -13   4  514.45   36.50
 -13  -3   4  506.05   38.00
 -13  -3   4  414.06   39.00
   3 -13   4  461.35   42.50
   3 -13   4  497.65   37.10
 -13  -3   4  585.64   40.40
 -13  -3   4  437.86   39.10
 -13  -2  -4  346.17   26.20
 -13  -2  -4  293.87   23.60
  13   2  -4  282.87   27.00
   2 -13  -4  316.47   24.10
 -13  -2  -4  357.16   26.70
   2 -13  -4  288.37   28.40
 -13  -2   4  240.88   25.40
   2 -13   4  335.27   23.00
   2 -13   4  321.47   23.70
 -13  -2   4  356.66   27.00
 -13  -2   4  248.88   25.50
   2 -13   4  275.47   28.40
 -13  -2   4  290.97   24.80
 -13  -1  -4  208.48   16.70
  13   1  -4  197.98   20.60
 -13  -1  -4  260.77   20.00
 -13  -1  -4  270.67   20.70
 -13  -1  -4  215.58   17.30
   1 -13  -4  221.48   17.40
  13   1  -4  207.28   22.70
   1 -13  -4  199.38   21.30
   1 -13   4  221.08   17.20
   1 -13   4  180.38   21.10
   1 -13   4  226.68   16.30
   1 -13   4  233.78   18.60
 -13  -1   4  177.88   19.20
 -13  -1   4  211.88   18.70
 -13  -1   4  237.78   20.40
 -13  -1   4  166.18   18.80
 -13   0  -4    4.10    2.90
   0 -13  -4    0.30    1.20
   0 -13  -4   -0.10    3.20
 -13   0  -4    0.90    1.50
  13   0  -4    2.10    2.60
  13   0  -4    2.40    3.40
 -13   0  -4    1.80    1.60
 -13   0  -4    2.00    3.30
 -13   0   4    2.10    2.90
 -13   0   4    0.30    2.20
 -13   0   4    2.80    3.30
   0 -13   4    2.00    1.60
 -13   0   4    4.70    3.30
   0 -13   4    7.80    2.80
   0 -13   4    0.30    2.10
   0 -13   4   -0.20    3.40
  13  -1  -4  182.28   19.00
 -13   1  -4  236.38   17.60
  -1 -13  -4  224.78   17.00
  -1 -13  -4  194.58   18.10
  -1 -13  -4  221.58   21.00
  13  -1  -4  223.58   20.30
 -13   1  -4  218.08   17.70
 -13   1  -4  250.97   21.30
 -13   1  -4  251.87   20.20
  13  -1  -4  211.88   20.90
 -13   1   4  202.48   19.90
  -1 -13   4  175.78   18.10
  -1 -13   4  245.48   17.40
 -13   1   4  209.68   19.30
  -1 -13   4  222.18   18.30
 -13   1   4  228.68   20.60
  -2 -13  -4  300.57   22.70
  -2 -13  -4  283.87   24.30
 -13   2  -4  364.36   26.50
  -2 -13  -4  326.57   27.10
  13  -2  -4  257.07   25.30
 -13   2  -4  323.27   23.80
 -13   2  -4  317.17   24.20
  13  -2  -4  283.97   26.90
  13  -2  -4  326.27   26.50
   2  13  -4  299.97   23.90
 -13   2  -4  326.97   27.50
 -13   2   4  234.48   25.20
  -2 -13   4  343.97   23.50
 -13   2   4  304.07   26.90
 -13   2   4  306.47   25.80
  -2 -13   4  314.17   24.40
 -13   2   4  236.68   25.50
 -13   3  -4  600.14   41.70
   3  13  -4  535.75   38.60
  13  -3  -4  530.25   41.20
  -3 -13  -4  493.25   39.60
  -3 -13  -4  546.85   41.80
  -3 -13  -4  493.85   37.60
 -13   3  -4  515.45   42.60
 -13   3  -4  529.15   39.50
  13  -3  -4  457.55   40.60
 -13   3   4  441.56   41.10
 -13   3   4  491.35   40.80
  -3 -13   4  566.54   38.50
  -3 -13   4  549.95   39.70
 -13   3   4  502.15   42.30
  -3 -13   4  473.05   39.60
  -4 -13  -4   26.20    2.90
  -4 -13  -4   26.60    4.80
   4  13  -4   27.60    4.20
 -13   4  -4   29.30    5.10
  13  -4  -4   24.70    5.80
 -13   4  -4   29.10    6.20
 -13   4  -4   27.90    6.90
  13  -4  -4   14.60    4.90
  -4 -13   4   22.90    4.40
  -4 -13   4   28.90    3.90
 -13   4   4   27.40    6.30
 -13   4   4   18.90    5.10
 -13   4   4   27.20    7.00
  -4 -13   4   23.20    4.70
 -13   4   4   27.50    6.40
  -5 -13  -4  959.20   71.09
 -13   5  -4 1089.79   73.09
 -13   5  -4 1004.90   71.39
  13  -5  -4 1036.50   71.99
  -5 -13  -4  939.31   68.79
   5  13  -4  974.90   70.09
  13  -5  -4  956.30   71.79
  13  -5  -4  840.12   72.09
 -13   5   4  845.72   72.79
  -5 -13   4 1100.59   77.99
 -13   5   4  967.90   72.79
 -13   5   4  854.51   73.79
  -5 -13   4  834.72   70.79
  -5 -13   4 1000.30   70.99
  13  -6  -4   79.29    9.10
 -13   6  -4   78.09    8.80
  -6 -13  -4   77.19    6.10
 -13   6  -4   54.89    9.40
  13  -6  -4   59.39   10.00
  13  -6  -4   80.59    9.10
   6  13  -4   69.99    7.50
 -13   6  -4   97.09   10.40
  -6 -13  -4   81.59    8.50
 -13   6   4   65.59   10.40
 -13   6   4   59.89    9.10
  -6 -13   4   80.69    8.40
 -13   6   4   79.69   11.10
  -6 -13   4   63.49    7.90
 -13   6   4   65.79   10.90
  -7 -13  -4   26.90    5.10
  13  -7  -4   21.80    6.10
  13  -7  -4   32.90    5.70
   7  13  -4   30.80    4.90
 -13   7  -4   33.80    6.90
 -13   7  -4   22.80    6.50
  13  -7  -4   30.20    5.90
 -13   7  -4   30.10    5.90
  13  -7   4   28.90    4.90
 -13   7   4   12.30    5.60
  -7 -13   4   26.50    5.20
 -13   7   4   26.30    6.80
  -7 -13   4   32.60    5.30
 -13   7   4   29.20    6.80
 -13   7   4   28.40    7.20
 -13   8  -4    2.70    3.50
  13  -8  -4    4.00    2.70
 -13   8  -4    4.00    3.20
  13  -8  -4    0.20    2.40
   8  13  -4    2.00    2.50
  13  -8  -4    1.50    3.10
  -8 -13  -4    4.40    2.60
 -13   8  -4    3.40    3.70
 -13   8   4    0.40    3.20
 -13   8   4    5.50    3.90
  13  -8   4    2.40    3.10
 -13   8   4    4.00    4.20
  -8 -13   4    3.70    2.50
  -8 -13   4    6.10    2.90
  13  -8   4    3.60    2.40
  13  -9  -4   38.90    6.30
  -9 -13  -4   29.10    5.50
   9  13  -4   33.80    5.80
 -13   9  -4   26.80    6.00
 -13   9  -4   23.60    6.70
  13  -9  -4   26.90    4.50
  13  -9  -4   28.20    6.90
 -13   9   4   25.90    6.80
  13  -9   4   40.30    6.10
  -9 -13   4   27.30    5.30
 -13   9   4   17.80    6.30
  13  -9   4   40.70    5.40
  -9 -13   4   38.20    6.70
  14   7  -4  414.66   37.40
 -14  -7  -4  497.65   35.70
   7 -14  -4  392.96   40.70
 -14  -7  -4  413.16   33.10
 -14  -7   4  374.86   34.50
   7 -14   4  487.75   41.20
   7 -14   4  468.75   33.30
   7 -14   4  484.75   34.10
 -14  -7   4  430.96   35.70
 -14  -7   4  472.45   36.20
   6 -14  -4  205.88   25.10
  14   6  -4  228.28   22.40
 -14  -6  -4  216.48   17.90
 -14  -6  -4  266.37   20.60
  14   6   4  172.48   22.20
   6 -14   4  233.38   17.90
   6 -14   4  248.98   25.30
 -14  -6   4  189.98   19.40
 -14  -6   4  262.37   21.20
   6 -14   4  257.97   18.80
 -14  -5  -4   69.49    8.30
  14   5  -4   65.29   10.80
 -14  -5  -4   56.19    5.90
   5 -14  -4   60.09   13.50
 -14  -5   4   53.59    7.70
  14   5   4   42.40   10.50
   5 -14   4   46.90   11.20
 -14  -5   4   67.79    8.50
   5 -14   4   62.19    6.00
   5 -14   4   58.99    6.40
  14   4  -4    5.90    4.40
 -14  -4  -4   12.60    4.30
 -14  -4  -4    2.80    1.80
   4 -14  -4    6.30    2.60
   4 -14  -4   11.70    6.80
 -14  -4   4    7.00    2.50
   4 -14   4    6.00    2.00
 -14  -4   4    3.70    3.10
   4 -14   4    4.70    5.20
 -14  -4   4    7.80    4.00
 -14  -4   4    2.60    2.80
   4 -14   4    4.20    2.10
  14   4   4   22.10    7.60
  14   3  -4   13.90    5.80
   3 -14  -4   14.00    6.80
 -14  -3  -4   24.50    5.60
 -14  -3  -4   21.80    5.30
   3 -14  -4   12.70    3.40
 -14  -3  -4   15.70    3.00
 -14  -3   4   16.60    4.90
   3 -14   4   17.00    6.90
   3 -14   4   18.50    2.70
 -14  -3   4   13.40    4.70
 -14  -3   4   16.70    3.90
  14   3   4   10.90    5.80
   3 -14   4   16.70    3.30
 -14  -3   4   11.50    4.10
   2 -14  -4  248.18   26.00
 -14  -2  -4  311.17   23.90
 -14  -2  -4  283.57   21.20
   2 -14  -4  278.27   21.60
  14   2  -4  273.37   25.40
 -14  -2   4  318.17   24.60
 -14  -2   4  227.08   23.30
   2 -14   4  238.58   26.10
   2 -14   4  289.47   21.30
 -14  -2   4  219.88   23.00
 -14  -2   4  254.77   22.10
 -14  -1  -4  117.89   10.10
 -14  -1  -4  149.59   13.60
   1 -14  -4   94.19   13.90
  14   1  -4  114.49   14.20
 -14  -1  -4  130.09   12.70
   1 -14  -4  113.09   10.20
 -14  -1   4  125.29   11.90
 -14  -1   4   86.49   11.70
 -14  -1   4  132.19   13.40
  14   1   4   88.39   14.00
   1 -14   4  112.29   10.10
 -14  -1   4  104.19   12.30
   1 -14   4   96.79   14.10
   1 -14   4  124.59   11.60
   0 -14  -4  734.13   52.99
  14   0  -4  668.63   55.29
 -14   0  -4  701.03   53.09
  14   0  -4  689.63   57.39
 -14   0  -4  827.72   56.19
   0 -14  -4  696.33   57.49
 -14   0  -4  735.43   52.99
   0 -14   4  773.82   54.59
 -14   0   4  594.24   55.29
   0 -14   4  618.14   57.29
 -14   0   4  672.93   54.59
 -14   0   4  783.92   56.89
   0 -14   4  800.02   53.19
 -14   1  -4  119.59   12.50
 -14   1  -4  140.99   14.30
  -1 -14  -4  108.69    9.70
 -14   1  -4  122.89   10.50
  -1 -14  -4  105.79   13.60
 -14   1  -4  120.09   10.50
  14  -1  -4   99.19   13.60
  -1 -14   4   98.59   13.90
 -14   1   4  104.99   12.30
  -1 -14   4  123.29   11.40
 -14   1   4  137.29   14.00
 -14   1   4   96.49   12.10
  -1 -14   4  123.49   10.20
  -2 -14  -4  281.47   24.80
 -14   2  -4  313.67   24.20
  14  -2  -4  253.47   23.50
 -14   2  -4  304.27   25.50
  -2 -14  -4  267.77   20.30
  -2 -14  -4  240.78   22.00
 -14   2  -4  294.67   21.80
  14  -2  -4  283.87   24.10
  14  -2  -4  252.27   24.90
  -2 -14   4  299.57   22.50
 -14   2   4  275.37   23.50
 -14   2   4  205.78   23.00
 -14   2   4  242.28   23.80
  -2 -14   4  252.97   25.00
 -14   2   4  286.47   25.00
  -2 -14   4  300.57   21.00
  -2 -14   4  214.78   21.90
  14  -3  -4   18.20    5.50
 -14   3  -4   20.20    6.00
 -14   3  -4   18.30    5.20
 -14   3  -4   18.40    4.00
  14  -3  -4   22.10    5.70
  -3 -14  -4   16.10    2.50
  -3 -14  -4   14.60    3.90
 -14   3   4    4.70    3.80
 -14   3   4   27.30    6.10
  -3 -14   4   14.70    4.00
  -3 -14   4   15.80    3.90
 -14   3   4   19.20    6.20
  -3 -14   4   10.10    5.20
  -3 -14   4   18.10    3.30
 -14   3   4   14.70    4.80
 -14   4  -4    1.00    3.10
  -4 -14  -4    2.50    2.30
  -4 -14  -4    5.20    1.40
 -14   4  -4    5.00    4.20
  14  -4  -4    1.80    3.70
  14  -4  -4    4.90    3.70
 -14   4  -4    4.00    2.60
 -14   4   4    6.10    4.20
  -4 -14   4    1.40    2.00
 -14   4   4    4.80    3.70
 -14   4   4    1.80    3.30
  -4 -14   4   10.30    5.30
  -4 -14   4    7.50    3.10
 -14   4   4    7.00    4.40
  -5 -14  -4   59.19    5.30
 -14   5  -4   72.59    9.20
  14  -5  -4   74.89    9.40
 -14   5  -4   47.90    9.60
  14  -5  -4   64.69   10.10
  14  -5  -4   70.59    8.40
 -14   5  -4   68.79    7.80
  -5 -14  -4   67.39    7.80
 -14   5   4   60.19   10.10
 -14   5   4   47.20    9.70
  -5 -14   4   67.99    7.60
 -14   5   4   54.09    9.40
 -14   5   4   46.10    8.80
  -5 -14   4   53.89    7.30
 -14   6  -4  295.97   22.30
  14  -6  -4  259.47   20.60
  -6 -14  -4  241.08   17.20
  14  -6  -4  258.77   20.80
 -14   6  -4  238.68   20.10
 -14   6  -4  177.18   21.50
  14  -6  -4  208.98   21.20
  -6 -14  -4  245.98   20.20
  -6 -14   4  209.88   19.80
 -14   6   4  243.18   22.10
 -14   6   4  186.98   20.80
  -6 -14   4  239.68   19.70
 -14   6   4  210.28   22.60
 -14   6   4  216.18   21.60
 -14   7  -4  409.66   34.30
  -7 -14  -4  435.86   34.50
 -14   7  -4  516.85   36.50
  14  -7  -4  408.66   35.80
  14  -7  -4  499.05   34.40
 -14   7   4  420.36   36.10
 -14   7   4  352.26   36.70
 -14   7   4  427.86   36.50
  -7 -14   4  391.96   34.30
  -7 -14   4  458.15   34.20
  15   5  -4   53.19   10.40
   5 -15  -4   56.89    7.00
 -15  -5  -4   53.09    5.50
 -15  -5  -4   62.39    8.10
   5 -15  -4   38.10   10.90
 -15  -5   4   40.80    7.20
 -15  -5   4   47.00    7.50
   5 -15   4   55.19   12.90
  15   5   4   32.00    9.40
   5 -15   4   57.39    6.10
  15   4  -4 1049.30   83.09
   4 -15  -4  939.51   84.39
 -15  -4  -4 1052.09   77.99
   4 -15  -4 1083.69   79.29
 -15  -4   4 1018.80   81.19
   4 -15   4 1107.39   78.39
 -15  -4   4 1259.87   81.79
   4 -15   4  992.00   84.59
   3 -15  -4  159.08   19.40
  15   3  -4  157.48   18.40
 -15  -3  -4  203.48   16.90
 -15  -3  -4  152.98   13.70
   3 -15  -4  173.58   14.70
 -15  -3  -4  201.88   17.10
 -15  -3   4  183.58   14.20
  15   3   4  123.99   18.10
 -15  -3   4  186.18   17.00
   3 -15   4  141.79   18.90
 -15  -3   4  142.89   15.70
 -15  -3   4  150.88   16.50
   3 -15   4  170.08   14.10
   2 -15  -4  444.76   35.10
   2 -15  -4  424.06   40.10
 -15  -2  -4  487.15   34.80
  15   2  -4  509.65   40.40
   2 -15   4  488.05   34.90
 -15  -2   4  518.75   35.60
 -15  -2   4  413.76   37.00
   2 -15   4  391.26   39.70
 -15  -2   4  416.36   37.50
   1 -15  -4   51.89    6.00
 -15  -1  -4   69.99    8.90
 -15  -1  -4   50.29    5.90
 -15  -1  -4   70.89    9.40
  15   1  -4   54.49   10.60
   1 -15  -4   59.79   11.50
 -15  -1   4   40.20    8.40
 -15  -1   4   57.39    7.80
   1 -15   4   63.29    6.20
 -15  -1   4   48.60    8.80
 -15  -1   4   60.19    8.90
  15   1   4   43.90   10.70
   1 -15   4   59.79    7.60
   1 -15   4   53.39   11.30
   0 -15  -4    2.80    1.70
 -15   0  -4    3.10    3.90
   0 -15  -4    2.90    4.00
  15   0  -4    0.80    4.40
 -15   0  -4    0.60    3.10
 -15   0  -4    0.20    1.70
   0 -15   4    2.50    4.30
   0 -15   4    1.90    1.80
 -15   0   4    0.80    3.30
 -15   0   4    0.80    3.00
 -15   0   4    1.00    3.30
 -15   0   4   -2.10    2.30
  15   0   4    1.70    3.70
   0 -15   4    1.10    2.30
 -15   1  -4   52.79    6.20
  -1 -15  -4   57.39    5.80
 -15   1  -4   58.89    6.40
  15  -1  -4   51.69    9.30
  15  -1  -4   67.59   11.60
  -1 -15  -4   64.99   11.30
 -15   1  -4   62.99    9.70
 -15   1  -4   69.19    9.00
 -15   1   4   40.80    8.60
  -1 -15   4   54.79   10.70
  -1 -15   4   63.49    6.30
 -15   1   4   63.09    9.60
 -15   1   4   57.89    8.70
  -1 -15   4   61.59    7.60
 -15   1   4   51.19    9.40
  -2 -15  -4  451.55   37.00
  15  -2  -4  471.05   40.40
  15  -2  -4  556.34   41.00
  -2 -15  -4  504.65   41.60
  15  -2  -4  491.05   43.30
 -15   2  -4  513.55   38.20
 -15   2  -4  566.84   41.00
 -15   2  -4  570.44   42.60
 -15   2   4  433.36   40.40
  -2 -15   4  469.85   42.00
  -2 -15   4  506.45   39.20
 -15   2   4  524.25   42.00
 -15   2   4  476.75   39.70
 -15   3  -4  160.98   14.10
  -3 -15  -4  152.98   12.40
 -15   3  -4  172.18   17.70
  15  -3  -4  148.69   16.20
 -15   3  -4  191.38   16.70
  -3 -15  -4  155.48   14.90
  15  -3  -4  182.58   16.60
  -3 -15   4  130.99   14.40
 -15   3   4  165.38   16.20
  -3 -15   4  173.18   14.90
 -15   3   4  149.09   16.20
 -15   3   4  118.89   15.50
  -3 -15   4  160.88   17.70
 -15   3   4  183.88   18.00
  15  -4  -4 1064.49   81.49
  15  -4  -4 1010.30   80.09
  -4 -15  -4 1022.90   77.19
 -15   4  -4 1212.28   81.79
  -4 -15  -4  960.80   79.79
  15  -4  -4 1217.98   81.09
 -15   4  -4 1075.29   82.89
 -15   4  -4 1030.90   79.19
  -4 -15   4 1106.29   79.79
 -15   4   4 1119.69   83.29
 -15   4   4 1028.30   81.59
 -15   4   4  999.30   80.59
  -4 -15   4 1108.59   82.79
  15  -5  -4   66.09    9.00
 -15   5  -4   60.19    9.50
 -15   5  -4   45.70    9.40
  15  -5  -4   55.49    8.50
 -15   5  -4   52.09    6.80
  -5 -15  -4   49.90    4.40
  -5 -15  -4   42.80    6.80
  15  -5  -4   73.99   10.90
 -15   5   4   53.79    9.20
 -15   5   4   36.70    8.50
  -5 -15   4   36.40    7.00
 -15   5   4   42.90    9.70
 -15   5   4   43.60    8.90
  -5 -15   4   55.79    7.00
   0   0  -5    0.80    0.70
   0   0  -5    1.90    0.70
   0   0  -5    1.10    1.00
   0  -1  -5  646.74   45.30
  -1   0  -5  567.74   43.20
   1   0  -5  626.24   43.70
  -1   0  -5  586.54   43.00
  -1   0  -5  567.34   42.80
   0  -1  -5  646.44   42.90
   0   1  -5  620.64   43.50
   1   0  -5  604.84   43.00
   0   1  -5  565.64   43.00
   1   0  -5  554.24   42.80
  -1   0  -5  633.84   43.10
   0   1  -5  540.95   43.80
   0  -1  -5  611.04   43.00
   0   1  -5  568.64   42.90
  -1   0  -5  624.14   43.30
   0  -1  -5  587.74   43.00
  -1   0   5  580.24   43.00
   1  -1  -5    6.70    1.40
  -1   1  -5    3.30    1.00
  -1  -1  -5    6.00    1.10
  -1   1  -5    4.10    1.00
   1   1  -5    4.90    1.30
  -1  -1  -5    5.30    2.30
   1  -1  -5    4.10    0.90
  -1   1  -5    7.60    1.20
   1  -1  -5    4.10    2.40
  -1  -1  -5    3.40    0.90
   1  -1  -5    8.10    1.20
   1   1  -5    5.50    2.00
   1   1  -5    3.10    0.90
  -1   1  -5    9.50    2.00
  -1  -1   5    5.00    1.00
  -1   1   5    5.10    1.00
   2   1  -5  821.02   60.39
  -2  -1  -5  913.61   60.39
  -1   2  -5  843.92   60.59
   2   1  -5  791.72   61.79
   2   1  -5  836.52   60.39
   1  -2  -5  910.91   60.49
   2   1  -5  849.72   61.19
   1  -2  -5  895.51   62.59
  -1   2  -5  812.82   60.79
  -1   2  -5  817.32   60.39
  -2  -1  -5  763.42   60.09
  -2  -1  -5  901.41   60.49
  -2  -1  -5  881.51   60.59
  -1   2   5  806.42   60.39
  -2  -1   5  873.11   60.49
   1  -2   5  738.33   60.29
  -2  -1   5  815.72   60.39
  -2   0  -5    2.70    0.80
   0  -2  -5   10.10    2.70
  -2   0  -5    2.80    0.80
   2   0  -5    2.90    1.70
   0  -2  -5    4.30    0.80
   0  -2  -5    5.50    1.10
   0   2  -5    2.00    1.00
   2   0  -5    1.70    0.60
   2   0  -5    0.40    0.60
   0   2  -5   10.10    2.40
  -2   0  -5    2.90    0.90
   0  -2   5    2.50    0.70
  -2   0   5    3.50    0.80
  -2   1  -5  909.81   60.09
  -2   1  -5  784.12   60.29
  -2   1  -5  741.13   59.69
   1   2  -5  871.11   60.59
  -1  -2  -5  913.31   59.89
   2  -1  -5  823.82   62.29
  -2   1  -5  884.81   60.09
  -2   1  -5  818.82   60.09
   1   2  -5  825.12   61.09
   2  -1  -5  750.12   60.39
  -1  -2  -5  900.21   59.59
   1   2  -5  800.92   59.89
   2  -1  -5  886.61   59.99
   2  -1  -5  847.32   59.69
   1   2  -5  798.92   59.79
  -1  -2   5  799.92   59.79
  -1  -2   5  724.93   59.79
  -2   1   5  856.61   59.89
  -1  -2   5  862.11   59.89
  -2   2  -5 1585.04  113.19
   2  -2  -5 1564.94  115.39
   2   2  -5 1491.75  114.49
   2   2  -5 1498.55  113.09
  -2  -2  -5 1659.43  113.09
   2  -2  -5 1572.64  113.09
  -2   2  -5 1571.24  113.39
  -2  -2  -5 1427.96  112.69
   2   2  -5 1542.45  113.79
  -2  -2  -5 1827.02  114.79
  -2   2  -5 1589.94  113.49
   2  -2  -5 1730.23  113.19
  -2  -2   5 1592.04  112.99
  -2  -2   5 1443.06  112.99
  -2  -2   5 1556.94  113.19
  -2  -2   5 1657.63  112.99
  -2   2   5 1535.65  113.09
   3   2  -5  224.08   15.70
  -2   3  -5  208.28   15.60
  -3  -2  -5  229.08   15.60
  -2   3  -5  209.18   15.90
   3   2  -5  219.28   17.40
   3   2  -5  204.98   16.40
   2  -3  -5  214.58   15.60
  -3  -2  -5  188.58   15.10
   3   2  -5  213.58   15.50
   2  -3  -5  209.08   15.00
  -2   3  -5  199.98   16.10
  -3  -2   5  204.68   15.60
  -3  -2   5  200.78   15.50
  -2   3   5  217.28   15.50
   2  -3   5  184.68   15.30
   2  -3   5  188.88   15.40
  -3  -2   5  202.58   15.70
  -3  -2   5  223.48   15.50
   1  -3  -5  348.87   23.30
  -3  -1  -5  335.27   23.40
  -1   3  -5  305.47   23.20
   1  -3  -5  343.87   25.40
  -1   3  -5  323.27   23.50
   3   1  -5  307.77   24.10
   3   1  -5  303.47   23.20
  -3  -1  -5  344.17   23.00
   3   1  -5  257.47   24.60
  -1   3  -5  321.37   23.80
   3   1  -5  343.37   23.30
  -3  -1  -5  287.87   22.90
  -1   3   5  324.37   23.20
  -3  -1   5  327.37   23.20
  -3  -1   5  322.57   23.20
  -3  -1   5  311.07   23.40
   1  -3   5  311.97   23.10
   1  -3   5  290.57   23.10
  -3  -1   5  296.17   23.30
   3   0  -5 1654.13  112.49
  -3   0  -5 1363.46  112.29
   0  -3  -5 1672.13  112.49
   0  -3  -5 1720.43  114.49
   3   0  -5 1523.65  112.59
  -3   0  -5 1664.73  112.59
   0   3  -5 1558.54  112.69
   0   3  -5 1481.45  112.49
  -3   0  -5 1575.34  112.89
   0   3  -5 1570.04  113.09
  -3   0  -5 1604.24  112.79
   0  -3   5 1517.45  112.49
   0  -3   5 1534.75  112.39
  -3   0   5 1604.04  112.59
   0  -3   5 1519.15  112.49
  -3   0   5 1578.84  112.79
   1   3  -5  316.77   23.70
   1   3  -5  306.17   24.20
  -3   1  -5  312.57   23.60
  -1  -3  -5  334.07   23.60
  -3   1  -5  306.07   23.90
  -3   1  -5  322.67   24.00
  -1  -3  -5  334.87   25.10
   3  -1  -5  341.37   23.50
   1   3  -5  294.57   23.70
   3  -1  -5  331.87   23.80
  -3   1  -5  356.46   24.10
  -1  -3  -5  352.06   23.30
  -3   1   5  316.57   23.70
  -1  -3   5  301.67   23.60
  -3   1   5  311.47   23.90
  -1  -3   5  307.07   23.50
  -1  -3   5  335.37   23.60
   3  -2  -5  219.28   16.50
  -3   2  -5  218.88   16.60
   2   3  -5  227.48   17.80
   3  -2  -5  186.68   18.20
   3  -2  -5  226.68   16.20
   2   3  -5  199.98   16.00
   2   3  -5  212.18   16.10
  -3   2  -5  214.38   16.60
   2   3  -5  212.88   16.80
  -2  -3  -5  240.98   17.50
  -2  -3  -5  228.98   15.60
  -3   2  -5  188.48   16.00
  -3   2  -5  224.68   16.40
  -2  -3  -5  233.08   16.00
  -2  -3   5  194.88   16.00
  -2  -3   5  223.58   16.20
  -2  -3   5  232.18   16.10
  -2  -3   5  215.58   15.90
  -3   2   5  219.38   16.20
   3  -2   5  193.88   16.00
   3  -3  -5 2603.04  178.48
   3  -3  -5 2250.17  180.88
  -3  -3  -5 2650.83  178.38
   3   3  -5 2390.26  178.38
  -3  -3  -5 2779.42  178.48
   3   3  -5 2583.74  178.68
   3  -3  -5 2643.64  178.68
   3   3  -5 2442.96  179.38
  -3   3  -5 2477.55  179.08
  -3   3  -5 2502.05  178.68
  -3   3  -5 2557.24  179.28
  -3  -3  -5 2271.67  178.18
  -3   3  -5 2390.36  178.48
  -3   3   5 2503.35  178.58
  -3  -3   5 2582.94  178.68
   3  -3   5 2287.57  178.38
  -3  -3   5 2448.75  178.48
   3  -3   5 2358.06  178.48
  -3  -3   5 2473.45  178.58
  -3  -3   5 2680.53  178.48
  -4  -3  -5  170.78   12.40
  -4  -3  -5  162.68   12.40
  -4  -3  -5  160.38   11.80
  -3   4  -5  158.58   12.50
   4   3  -5  169.08   14.40
   3  -4  -5  171.58   12.50
   3  -4  -5  145.29   14.70
  -3   4  -5  153.48   13.10
  -4  -3  -5  185.78   13.40
  -3   4  -5  168.68   12.50
   4   3  -5  166.48   12.50
   4   3  -5  160.68   13.20
   4   3  -5  152.58   12.10
   3  -4  -5  153.68   11.80
  -3   4   5  167.48   12.40
   3  -4   5  147.09   12.20
  -4  -3   5  146.89   12.20
  -4  -3   5  170.58   12.30
   3  -4   5  144.29   12.20
  -4  -3   5  152.78   12.40
  -4  -3   5  168.98   12.60
  -2   4  -5    5.10    1.70
  -4  -2  -5    6.00    1.40
   4   2  -5    5.60    1.80
   4   2  -5    3.20    1.00
   2  -4  -5    5.80    1.30
   4   2  -5    2.10    2.10
  -4  -2  -5    7.00    1.00
  -2   4  -5    3.40    1.30
   4   2  -5    4.60    1.30
   2  -4  -5    2.10    2.00
  -4  -2  -5    4.30    1.30
  -2   4  -5    5.80    1.30
  -4  -2   5    9.70    1.80
   2  -4   5    6.00    1.10
  -4  -2   5    7.00    1.30
   2  -4   5    7.40    1.40
  -4  -2   5    2.60    1.10
  -2   4   5    5.90    1.20
  -4  -2   5    3.50    1.20
   1  -4  -5   66.09    4.80
  -1   4  -5   68.29    5.70
   1  -4  -5   73.49    7.60
   4   1  -5   65.29    5.40
  -1   4  -5   62.19    5.90
   4   1  -5   71.29    5.60
  -4  -1  -5   67.79    5.20
   1  -4  -5   73.59    5.40
  -4  -1  -5   69.89    5.10
   4   1  -5   49.30    7.00
  -4  -1  -5   70.29    5.70
  -1   4  -5   61.79    5.30
  -4  -1   5   57.39    5.70
   1  -4   5   63.49    5.30
  -4  -1   5   65.89    5.70
  -1   4   5   60.99    5.20
  -4  -1   5   59.89    5.40
  -4  -1   5   67.89    5.50
   1  -4   5   57.19    5.20
   1  -4   5   54.49    5.30
   4   0  -5    0.10    1.50
   0   4  -5    3.20    1.10
   0   4  -5    0.70    0.70
   0  -4  -5    0.40    0.70
  -4   0  -5    2.10    1.00
   0  -4  -5   11.00    2.90
   4   0  -5    2.10    2.50
   4   0  -5    1.20    0.80
  -4   0  -5    0.30    0.80
   0   4  -5    1.70    1.10
   4   0  -5    3.00    1.00
  -4   0  -5    1.00    0.60
  -4   0   5    2.10    1.10
  -4   0   5    0.80    0.80
   0  -4   5    1.60    0.80
  -4   0   5    5.50    1.40
   0   4   5    3.10    0.80
  -4   0   5    4.40    1.10
   0  -4   5    3.30    0.90
   0  -4   5    1.20    0.70
   4  -1  -5   47.60    6.50
  -1  -4  -5   68.29    5.30
   1   4  -5   60.49    5.50
  -4   1  -5   64.09    5.90
  -4   1  -5   62.29    5.70
  -1  -4  -5   70.49    5.40
  -4   1  -5   66.89    6.00
   1   4  -5   62.29    6.00
   4  -1  -5   46.80    8.30
  -4   1  -5   67.89    5.50
   4  -1  -5   65.59    5.60
  -1  -4  -5   70.69    7.00
   4  -1  -5   69.89    5.50
   1   4  -5   77.59    5.60
  -4   1   5   62.29    5.90
  -4   1   5   66.39    5.70
  -1  -4   5   63.39    5.50
  -1  -4   5   74.19    5.60
  -4   1   5   80.59    5.80
  -1  -4   5   60.89    5.40
   2   4  -5    4.30    1.20
   2   4  -5    4.40    1.20
   4  -2  -5    6.20    1.80
  -2  -4  -5   11.30    2.60
  -2  -4  -5    4.10    1.00
   4  -2  -5    8.00    1.30
  -2  -4  -5    4.40    0.60
  -4   2  -5    3.60    1.00
  -2  -4  -5    4.60    0.60
  -2  -4  -5    5.80    1.00
   2   4  -5    4.30    1.50
   4  -2  -5    3.60    1.20
  -4   2  -5    5.20    1.60
   4  -2  -5    4.50    2.70
  -4   2   5    4.60    1.20
  -2  -4   5    3.70    1.10
  -2  -4   5    3.70    1.00
  -2  -4   5    4.90    1.20
  -4   2   5    2.70    1.40
  -4   2   5    4.00    1.50
   3   4  -5  161.98   13.20
   4  -3  -5  136.59   14.80
  -3  -4  -5  182.78   12.40
  -3  -4  -5  162.78   11.70
  -3  -4  -5  166.58   12.30
  -4   3  -5  158.78   13.30
   3   4  -5  147.79   12.30
   4  -3  -5  159.28   12.80
  -4   3  -5  165.18   12.60
   4  -3  -5  175.98   12.70
  -4   3  -5  181.08   12.90
   4  -3  -5  159.78   12.70
  -3  -4  -5  174.38   13.50
   3   4  -5  162.28   12.60
   3   4  -5  178.38   14.50
  -4   3   5  149.49   13.20
   4  -3   5  164.08   12.50
  -3  -4   5  155.08   12.60
   4  -3   5  138.89   12.40
  -4   3   5  174.38   12.70
  -4   3   5  145.99   13.50
  -3  -4   5  165.18   12.60
  -3  -4   5  174.38   12.40
  -4   4  -5  829.62   55.59
  -4   4  -5  783.42   56.39
  -4  -4  -5  721.23   54.49
   4   4  -5  760.62   55.09
  -4  -4  -5  860.51   55.19
   4  -4  -5  762.82   55.09
   4  -4  -5  785.22   55.49
   4  -4  -5  686.93   58.19
  -4   4  -5  759.62   55.49
  -4  -4  -5  801.92   55.29
   4   4  -5  785.12   57.29
   4   4  -5  750.52   56.19
   4   4  -5  748.53   55.39
  -4  -4   5  717.13   55.39
  -4   4   5  710.23   56.29
  -4  -4   5  731.83   55.49
  -4  -4   5  849.72   55.29
  -4  -4   5  714.63   55.19
   4  -4   5  710.23   55.19
  -4   4   5  792.52   55.49
   4  -4   5  736.43   55.29
  -4  -4   5  763.12   55.89
  -5  -4  -5   53.79    4.20
  -4   5  -5   57.09    5.00
  -5  -4  -5   57.29    4.80
   4  -5  -5   52.89    4.90
   5   4  -5   51.49    5.00
  -4   5  -5   55.09    5.00
   5   4  -5   47.60    5.60
   4  -5  -5   47.70    4.20
  -4   5  -5   52.19    5.90
  -5  -4  -5   52.29    4.90
   5   4  -5   50.39    4.50
   4  -5  -5   45.60    8.20
   4  -5   5   50.79    4.90
   4  -5   5   46.30    4.60
  -5  -4   5   53.49    4.90
  -5  -4   5   55.29    4.90
  -5  -4   5   48.20    5.00
  -4   5   5   52.79    4.90
  -5  -4   5   55.69    5.50
  -5  -4   5   51.19    5.00
  -3   5  -5  276.37   21.00
   5   3  -5  283.07   22.00
   3  -5  -5  306.77   21.10
  -5  -3  -5  307.47   21.10
  -5  -3  -5  265.67   21.20
   5   3  -5  291.27   23.30
   3  -5  -5  270.97   23.80
  -5  -3  -5  268.97   20.50
   3  -5  -5  281.47   20.80
  -3   5  -5  296.37   22.20
   5   3  -5  285.67   21.30
   5   3  -5  269.97   20.80
  -5  -3   5  298.47   21.10
  -5  -3   5  270.17   21.60
   3  -5   5  263.27   20.80
   3  -5   5  260.67   20.80
  -5  -3   5  273.17   21.30
  -5  -3   5  268.17   20.90
  -3   5   5  290.07   21.00
  -5  -3   5  283.67   21.40
  -2   5  -5  377.86   28.90
   5   2  -5  350.16   30.90
   5   2  -5  407.96   29.20
  -2   5  -5  387.16   29.50
  -5  -2  -5  445.76   29.20
   2  -5  -5  375.96   31.30
   5   2  -5  371.66   28.70
   2  -5  -5  406.36   28.40
  -5  -2  -5  393.36   28.60
   2  -5  -5  426.86   28.90
  -2   5  -5  383.16   29.70
   2  -5   5  345.77   28.70
  -5  -2   5  425.66   29.10
  -2   5   5  411.86   28.80
  -5  -2   5  404.96   29.40
  -5  -2   5  399.16   29.00
   2  -5   5  371.66   28.70
  -5  -2   5  362.16   29.30
  -5  -1  -5  683.73   49.20
   5   1  -5  677.23   49.60
  -1   5  -5  701.33   50.09
   1  -5  -5  673.23   51.79
  -1   5  -5  662.33   50.29
  -5  -1  -5  723.63   49.99
  -1   5  -5  639.44   49.50
  -5  -1  -5  706.73   49.50
   5   1  -5  735.43   49.90
   1  -5  -5  770.72   49.50
  -5  -1   5  605.84   50.19
   1  -5   5  621.74   49.70
   1  -5   5  636.84   49.40
  -5  -1   5  710.53   49.80
  -5  -1   5  727.93   50.19
  -1   5   5  688.33   49.40
   1  -5   5  666.33   49.50
  -5  -1   5  671.93   49.70
   0  -5  -5 3643.94  241.88
  -5   0  -5 3330.07  242.08
   0   5  -5 3214.08  242.68
   5   0  -5 3649.53  242.38
   0   5  -5 3122.79  241.98
   5   0  -5 3392.46  242.18
  -5   0  -5 3337.47  242.08
   0  -5  -5 3723.03  244.38
   0   5  -5 3348.17  242.38
   0  -5  -5 3276.87  242.08
   0  -5   5 3319.67  242.28
   0   5   5 3318.97  241.88
   0  -5   5 3251.07  241.98
  -5   0   5 3445.66  242.28
  -5   0   5 3591.54  242.38
  -5   0   5 3462.25  242.78
   0  -5   5 3156.98  241.88
  -1  -5  -5  692.13   50.89
  -5   1  -5  673.83   51.69
   1   5  -5  648.74   51.89
  -5   1  -5  751.82   51.49
  -1  -5  -5  750.82   53.19
  -1  -5  -5  759.92   51.29
   1   5  -5  679.63   51.29
  -1  -5  -5  776.92   51.09
   5  -1  -5  768.92   51.49
   1   5  -5  689.13   51.49
   5  -1  -5  701.33   51.49
  -5   1   5  698.63   51.59
  -5   1   5  698.93   51.49
  -5   1   5  652.23   51.99
  -1  -5   5  777.82   51.59
  -1  -5   5  643.04   51.09
  -1  -5   5  677.63   51.29
   5  -2  -5  345.27   30.00
  -5   2  -5  360.46   30.30
  -2  -5  -5  451.55   28.90
  -5   2  -5  447.36   29.50
  -2  -5  -5  409.66   29.00
   5  -2  -5  442.06   29.20
   2   5  -5  364.96   29.70
  -2  -5  -5  391.56   28.40
   2   5  -5  385.56   29.10
  -5   2  -5  393.46   29.90
   2   5  -5  397.96   29.20
   5  -2  -5  389.16   29.40
  -5   2  -5  408.76   29.70
  -2  -5  -5  454.25   30.80
  -5   2   5  356.56   29.90
  -2  -5   5  364.26   28.90
   5  -2   5  363.06   29.20
  -2  -5   5  375.56   29.10
  -5   2   5  400.86   29.40
  -2  -5   5  431.46   29.30
  -5   2   5  394.46   29.40
  -2  -5   5  389.96   29.70
  -5   3  -5  275.97   22.30
  -3  -5  -5  320.87   22.60
  -3  -5  -5  300.47   21.30
   5  -3  -5  238.48   24.00
  -3  -5  -5  315.37   21.10
   5  -3  -5  300.37   21.20
  -5   3  -5  298.87   21.90
   3   5  -5  268.97   22.10
   3   5  -5  285.47   21.30
   5  -3  -5  274.17   21.90
   3   5  -5  275.67   21.50
  -5   3  -5  311.07   21.80
   5  -3  -5  294.47   21.70
  -3  -5   5  276.97   21.80
   5  -3   5  279.47   21.50
  -5   3   5  286.27   21.70
   5  -3   5  284.87   21.50
  -3  -5   5  265.57   21.40
  -5   3   5  270.67   21.80
  -3  -5   5  316.97   21.20
  -3  -5   5  264.37   21.20
  -5   3   5  268.17   22.40
  -3  -5   5  295.57   21.50
   5  -4  -5   52.79    5.10
  -4  -5  -5   55.39    4.80
   4   5  -5   53.79    5.00
   5  -4  -5   44.20    8.50
  -5   4  -5   51.09    5.90
   4   5  -5   61.49    7.30
  -4  -5  -5   64.89    5.90
   5  -4  -5   56.49    5.10
  -5   4  -5   53.09    5.20
   4   5  -5   61.29    5.90
  -4  -5  -5   53.89    4.70
   4   5  -5   50.19    4.70
  -5   4  -5   64.09    5.30
  -4  -5   5   49.70    5.00
   5  -4   5   45.30    4.80
  -4  -5   5   50.99    4.80
  -5   4   5   50.09    6.00
  -5   4   5   52.29    5.10
  -4  -5   5   57.79    4.80
   5  -4   5   50.49    5.00
  -4  -5   5   54.29    5.00
  -5   5  -5   71.59    6.40
   5  -5  -5   62.59    5.70
  -5  -5  -5   68.99    6.10
   5  -5  -5   70.29    6.40
   5   5  -5   61.89    8.10
   5   5  -5   68.89    5.80
   5  -5  -5   48.40    9.40
  -5   5  -5   83.19    6.60
  -5   5  -5   66.59    7.30
   5   5  -5   63.29    6.20
   5   5  -5   66.39    6.90
  -5  -5  -5   65.39    5.20
  -5  -5   5   63.99    6.20
  -5  -5   5   77.29    6.20
  -5  -5   5   73.79    6.40
  -5  -5   5   61.89    6.00
   5  -5   5   83.29    6.30
  -5  -5   5   67.29    6.60
   5  -5   5   62.99    6.00
  -5   5   5   71.49    6.40
   5  -6  -5  220.98   17.70
   5  -6  -5  210.08   17.00
  -6  -5  -5  212.28   17.00
   5  -6  -5  194.68   21.00
   5  -6  -5  232.78   18.00
  -5   6  -5  242.58   19.50
  -5   6  -5  231.08   18.00
  -6  -5  -5  249.38   18.10
   6   5  -5  253.47   19.10
   6   5  -5  225.68   18.10
   5  -6   5  214.28   17.60
   5  -6   5  231.08   17.70
  -6  -5   5  223.68   17.70
  -6  -5   5  254.67   18.20
  -6  -5   5  238.48   18.20
  -6  -5   5  242.38   18.20
  -5   6   5  238.68   18.10
  -6  -5   5  252.17   18.60
   6   4  -5  147.29   12.50
  -4   6  -5  135.79   11.40
   6   4  -5  150.68   11.80
   4  -6  -5  155.08   11.30
  -6  -4  -5  148.89   11.80
   4  -6  -5  157.08   11.60
  -6  -4  -5  129.69   10.80
   6   4  -5  148.59   13.90
   6   4  -5  147.59   11.20
   4  -6  -5  135.79   14.60
   4  -6  -5  126.69   10.40
  -4   6  -5  156.58   13.00
  -6  -4   5  149.09   12.00
  -6  -4   5  144.99   11.90
   4  -6   5  134.09   11.30
  -4   6   5  148.59   11.50
  -6  -4   5  142.49   12.10
  -6  -4   5  129.69   11.40
   4  -6   5  135.09   11.30
  -6  -4   5  162.28   11.80
   3  -6  -5   94.09    7.10
   6   3  -5   90.99    7.50
   3  -6  -5   80.99    6.60
  -6  -3  -5   79.29    6.60
  -3   6  -5   78.89    7.00
  -3   6  -5   92.69    8.40
   6   3  -5   82.69    9.50
   6   3  -5   89.29    6.90
   3  -6  -5   70.59    9.50
  -6  -3  -5   74.09    7.40
  -6  -3   5   87.59    7.70
  -6  -3   5   86.79    7.30
  -6  -3   5   81.99    7.80
  -6  -3   5   85.19    7.70
   3  -6   5   76.99    6.90
  -3   6   5   88.59    7.00
  -6  -3   5   79.19    7.20
   3  -6   5   74.69    6.90
  -2   6  -5  729.93   54.69
  -2   6  -5  745.43   55.79
   6   2  -5  772.42   54.69
   2  -6  -5  743.63   57.59
   2  -6  -5  754.82   53.99
   6   2  -5  660.03   56.89
  -6  -2  -5  713.63   54.49
   6   2  -5  793.72   55.19
   2  -6  -5  868.31   54.79
  -6  -2   5  716.73   54.79
  -6  -2   5  788.32   55.49
   2  -6   5  720.83   54.49
   2  -6   5  706.63   54.59
  -2   6   5  815.12   54.69
  -6  -2   5  722.83   55.59
  -6  -2   5  793.12   55.09
   6   1  -5   35.80    6.70
  -1   6  -5   42.30    4.70
  -1   6  -5   62.29    5.50
   6   1  -5   49.40    4.40
  -6  -1  -5   41.40    3.80
   1  -6  -5   45.80    7.10
  -1   6  -5   44.60    4.10
  -6  -1  -5   39.50    4.90
   1  -6  -5   56.39    4.20
   6   1  -5   44.90    4.60
  -6  -1  -5   48.20    4.20
   1  -6   5   37.80    4.30
  -6  -1   5   49.20    5.00
   1  -6   5   46.30    4.20
   1  -6   5   42.90    4.10
  -6  -1   5   45.50    4.60
  -6  -1   5   44.70    4.60
  -6  -1   5   36.50    4.90
  -1   6   5   47.60    4.00
   0  -6  -5    2.90    1.00
   0   6  -5    1.00    1.10
   0  -6  -5    1.90    1.00
   6   0  -5   -0.50    1.90
   6   0  -5    0.50    1.00
  -6   0  -5    2.90    1.00
  -6   0  -5    1.00    1.30
   6   0  -5    4.10    1.50
  -6   0  -5    4.70    1.20
   0  -6  -5    2.50    2.10
   0   6  -5   -0.10    0.70
   0   6  -5    4.00    1.50
   0  -6   5    1.00    0.90
   0  -6   5    0.70    0.70
   0  -6   5    2.30    1.10
  -6   0   5    1.60    1.10
  -6   0   5    4.40    1.70
   0  -6   5    0.00    0.70
  -6   0   5    0.80    1.20
  -6   0   5    0.40    1.30
   6  -1  -5   46.70    4.50
   1   6  -5   43.30    4.20
   6  -1  -5   34.80    6.80
   1   6  -5   43.00    4.40
   6  -1  -5   47.40    4.60
  -1  -6  -5   38.80    5.60
  -6   1  -5   33.40    4.90
   1   6  -5   45.50    4.90
  -6   1  -5   38.20    4.40
  -1  -6  -5   43.20    3.90
  -6   1  -5   54.09    4.60
  -1  -6  -5   48.80    3.90
   6  -1  -5   29.70    5.80
  -1  -6  -5   53.89    4.30
  -6   1   5   50.19    4.70
  -6   1   5   45.10    4.70
  -6   1   5   35.00    5.10
  -1  -6   5   47.50    4.60
  -1  -6   5   56.49    4.30
  -6   1   5   37.60    4.80
   1   6   5   46.80    3.90
  -1  -6   5   47.40    4.20
  -6   2  -5  636.04   56.89
   6  -2  -5  654.53   58.39
  -6   2  -5  742.63   56.39
   6  -2  -5  825.42   55.89
  -6   2  -5  828.52   56.09
  -2  -6  -5  854.21   57.39
   2   6  -5  784.12   55.79
  -2  -6  -5  787.22   55.59
   2   6  -5  771.12   55.69
  -2  -6  -5  733.53   54.89
   2   6  -5  736.53   56.29
  -2  -6  -5  875.11   55.29
   6  -2  -5  769.32   55.99
  -6   2   5  740.53   56.79
  -2  -6   5  735.53   55.59
  -2  -6   5  746.33   55.39
  -6   2   5  796.12   56.19
  -6   2   5  756.22   55.99
  -2  -6   5  815.02   55.89
   6  -2   5  716.53   55.79
  -2  -6   5  772.02   56.09
  -6   3  -5   94.89    7.50
   6  -3  -5  102.99    7.20
   6  -3  -5   67.99    9.60
  -3  -6  -5   95.79    8.40
  -6   3  -5   94.99    8.90
  -3  -6  -5   84.59    6.80
  -6   3  -5   81.29    7.90
   3   6  -5   79.99    7.00
   6  -3  -5   86.09    7.40
   3   6  -5   82.59    6.90
   3   6  -5   76.29    7.60
   6  -3  -5   74.39    7.70
  -3  -6   5   86.89    7.10
  -3  -6   5   82.49    7.40
  -3  -6   5   79.29    6.80
   6  -3   5   79.79    7.10
  -6   3   5   70.69    8.00
  -6   3   5   81.79    7.40
  -6   3   5   62.29    8.00
  -3  -6   5   75.59    6.90
  -4  -6  -5  174.38   12.90
  -4  -6  -5  142.99   11.60
   6  -4  -5  144.09   12.00
   6  -4  -5  146.29   12.10
   4   6  -5  150.08   11.90
  -6   4  -5  171.98   13.30
   6  -4  -5  134.59   15.00
  -6   4  -5  169.08   12.30
   4   6  -5  143.29   12.50
  -6   4   5  127.09   13.00
  -4  -6   5  151.28   11.90
  -4  -6   5  140.79   11.50
  -4  -6   5  143.29   11.80
  -6   4   5  149.39   12.20
  -4  -6   5  138.09   12.10
  -6   4   5  145.19   13.50
   6  -4   5  148.19   11.80
   6  -5  -5  240.68   18.40
  -6   5  -5  221.58   19.30
   6  -5  -5  222.08   17.80
   5   6  -5  229.58   18.10
   5   6  -5  223.28   18.80
   6  -5  -5  233.48   22.20
  -6   5  -5  285.27   18.90
  -6   5  -5  249.48   18.50
  -5  -6  -5  242.98   18.00
  -5  -6   5  226.08   18.50
  -6   5   5  224.28   18.40
  -5  -6   5  241.58   18.20
   6  -5   5  223.38   18.00
   5   6   5  202.38   19.30
  -5  -6   5  228.18   17.70
  -5  -6   5  237.68   18.20
   6  -5   5  244.98   18.10
  -6  -6  -5 1746.93  131.99
  -6  -6  -5 2004.10  133.29
  -6   6  -5 1863.91  134.79
   6   6  -5 1849.02  134.09
   6  -6  -5 1659.03  137.19
   6  -6  -5 1848.02  133.39
   6  -6  -5 1702.23  133.09
   6   6  -5 1828.62  133.29
  -6   6  -5 1880.31  133.39
   6  -6  -5 1719.03  132.39
   6  -6   5 1919.11  132.99
  -6  -6   5 1834.82  133.29
  -6  -6   5 1926.41  133.69
  -6  -6   5 1910.71  133.39
  -6  -6   5 1895.11  132.79
   6  -6   5 1848.32  132.99
  -6   6   5 1939.41  133.59
   6  -7  -5   28.20    7.50
  -7  -6  -5   34.90    4.30
   6  -7  -5   30.90    4.30
  -7  -6  -5   34.50    3.20
   6  -7  -5   36.20    4.00
   6  -7  -5   36.20    3.40
  -6   7  -5   28.00    5.40
  -7  -6  -5   41.70    3.40
   7   6  -5   31.90    4.40
  -6   7  -5   37.80    4.40
   6  -7   5   36.90    4.40
  -7  -6   5   39.50    4.80
  -7  -6   5   41.90    4.40
   7   6   5   25.60    6.10
  -7  -6   5   45.90    4.90
  -6   7   5   33.50    4.40
   6  -7   5   32.60    3.90
  -7  -6   5   38.40    4.50
   7   5  -5   79.49    7.70
   5  -7  -5   86.49    7.50
   5  -7  -5   85.49    7.10
  -7  -5  -5   81.49    7.70
   5  -7  -5   70.09   12.00
  -5   7  -5   87.29    9.10
  -5   7  -5   86.39    7.50
  -7  -5  -5   80.29    6.60
   5  -7  -5   73.69    6.20
   7   5  -5   84.49    8.50
  -7  -5   5   83.09    7.90
  -7  -5   5   85.59    7.90
   5  -7   5   88.09    7.30
  -7  -5   5   84.29    7.80
   5  -7   5   86.59    7.30
  -5   7   5   82.29    7.60
  -7  -5   5   81.79    8.10
  -7  -5   5   81.19    7.40
   4  -7  -5   22.80    6.30
   7   4  -5   25.50    2.90
   4  -7  -5   21.20    2.50
  -7  -4  -5   22.10    2.50
  -4   7  -5   19.00    4.20
   7   4  -5   21.20    5.30
  -7  -4  -5   21.30    3.30
  -4   7  -5   32.50    3.30
   7   4  -5   25.30    3.60
   4  -7  -5   24.40    3.20
  -4   7   5   26.20    3.10
  -7  -4   5   23.40    3.50
  -7  -4   5   26.00    3.70
  -7  -4   5   27.00    3.60
   4  -7   5   23.10    3.20
  -7  -4   5   21.90    3.70
   4  -7   5   22.60    2.90
  -7  -4   5   31.50    4.00
   3  -7  -5   90.29    7.40
   7   3  -5   98.49    8.10
  -3   7  -5   97.59    8.20
  -3   7  -5   99.19    9.60
  -7  -3  -5   90.59    7.80
  -7  -3  -5   81.19    8.60
   3  -7  -5  110.59    8.20
   7   3  -5   97.99    8.70
   3  -7  -5  107.49   11.60
   7   3  -5  106.99   11.10
   3  -7   5   87.59    8.00
  -7  -3   5   99.29    8.50
   3  -7   5   92.49    8.00
  -7  -3   5   98.29    9.10
  -7  -3   5  100.99    9.10
  -3   7   5  109.19    8.20
  -7  -3   5   96.99    9.10
  -7  -3   5  105.09    8.80
  -2   7  -5  281.17   20.30
  -2   7  -5  266.87   21.40
   7   2  -5  229.58   22.60
   2  -7  -5  310.97   20.20
   2  -7  -5  262.27   19.20
   2  -7  -5  260.07   23.10
   7   2  -5  281.07   20.90
   7   2  -5  275.17   20.30
  -7  -2  -5  247.78   20.00
  -7  -2  -5  220.88   20.90
  -2   7   5  290.77   20.10
  -7  -2   5  296.17   21.00
   2  -7   5  251.77   20.00
   2  -7   5  258.17   20.10
  -7  -2   5  274.47   20.60
  -7  -2   5  259.57   21.40
  -7  -2   5  269.67   21.20
  -7  -1  -5  237.98   18.80
   1  -7  -5  300.77   19.10
  -7  -1  -5  232.98   19.10
  -7  -1  -5  243.88   20.30
   7   1  -5  282.27   19.50
   1  -7  -5  260.47   21.90
  -1   7  -5  272.27   20.40
   7   1  -5  271.77   19.90
   7   1  -5  221.08   21.50
  -1   7  -5  258.77   19.20
  -7  -1   5  204.48   20.20
   1  -7   5  249.68   19.00
  -7  -1   5  268.77   19.70
   1  -7   5  228.58   19.60
  -7  -1   5  265.67   19.90
   1  -7   5  232.08   19.90
  -1   7   5  262.47   19.00
  -7  -1   5  264.67   20.40
   1  -7   5  263.27   19.20
  -7   0  -5    6.70    1.60
   7   0  -5    5.50    1.70
  -7   0  -5    5.10    2.10
   0  -7  -5   10.00    1.90
   7   0  -5    7.50    3.50
   0   7  -5    7.10    1.60
  -7   0  -5    8.20    1.80
   7   0  -5    8.30    2.20
   0  -7  -5    9.40    3.30
   0  -7  -5   13.10    1.70
  -7   0  -5    8.70    3.10
   0   7  -5    6.00    2.00
   0  -7   5    9.10    1.70
   0  -7   5    7.30    1.60
   0  -7   5    5.10    1.80
  -7   0   5    7.60    2.40
   0  -7   5    5.80    1.70
  -7   0   5    8.00    2.10
   0   7   5   10.80    1.60
  -7   0   5   11.60    2.50
   1   7  -5  268.97   20.20
  -1  -7  -5  280.27   20.40
   1   7  -5  239.08   20.80
  -1  -7  -5  245.18   19.90
  -1  -7  -5  290.97   22.40
   7  -1  -5  270.77   20.60
   7  -1  -5  310.77   21.00
  -7   1  -5  293.67   22.60
  -7   1  -5  256.17   20.60
  -1  -7  -5  297.97   19.80
   1   7  -5  239.88   20.40
  -7   1  -5  262.07   20.50
  -7   1   5  212.08   21.40
  -7   1   5  281.67   21.00
   1   7   5  260.57   19.80
  -1  -7   5  277.77   20.00
  -1  -7   5  290.17   20.70
  -1  -7   5  261.37   20.10
  -7   1   5  291.07   20.90
  -7   1   5  255.77   21.50
  -1  -7   5  250.57   20.50
   7  -2  -5  295.97   21.10
   7  -2  -5  228.88   23.20
  -7   2  -5  284.67   21.00
   2   7  -5  271.47   20.50
  -2  -7  -5  307.47   20.60
  -2  -7  -5  251.07   19.80
  -7   2  -5  277.27   21.30
  -7   2  -5  311.57   23.00
  -7   2  -5  219.88   21.80
   7  -2  -5  274.87   21.00
   2   7  -5  264.87   21.20
  -2  -7   5  258.47   20.40
  -7   2   5  285.37   21.30
  -7   2   5  277.37   21.20
  -2  -7   5  273.47   20.20
  -7   2   5  246.38   21.80
  -2  -7   5  246.98   20.80
  -2  -7   5  296.17   20.90
  -7   3  -5   86.29    8.90
  -3  -7  -5  124.29    9.90
  -7   3  -5  105.99   10.30
   7  -3  -5   96.69    8.60
   7  -3  -5  103.49    8.50
   3   7  -5   89.99    8.70
  -7   3  -5   89.29    9.80
   7  -3  -5  102.29   11.70
   3   7  -5  103.29    8.20
  -7   3  -5  103.79    8.60
   7  -3  -5   75.39    8.90
  -3  -7  -5  100.09    8.10
  -3  -7   5   94.89    7.90
   7  -3   5   93.59    8.30
  -7   3   5   96.79    8.90
  -3  -7   5   98.39    8.30
  -3  -7   5   91.59    8.00
  -7   3   5   77.99    9.20
  -7   3   5  104.09    8.90
  -3  -7   5   95.59    8.50
   4   7  -5   27.10    4.20
   7  -4  -5   28.70    4.00
   4   7  -5   24.50    3.10
  -7   4  -5   32.40    3.70
  -4  -7  -5   31.30    4.80
  -7   4  -5   25.30    4.40
   7  -4  -5   19.70    3.50
  -4  -7  -5   23.70    2.90
  -7   4  -5   29.60    5.40
   7  -4  -5   23.20    6.40
  -7   4  -5   28.70    5.20
  -4  -7   5   21.40    3.00
  -7   4   5   26.20    3.60
  -4  -7   5   23.90    3.10
  -7   4   5   24.80    5.00
   7  -4   5   19.00    2.90
  -4  -7   5   23.70    3.10
  -4  -7   5   25.60    3.50
  -7   4   5   20.50    4.60
   7  -5  -5   79.29    7.40
  -7   5  -5   96.49    9.60
   7  -5  -5   94.89   11.70
   5   7  -5   81.99    7.30
  -5  -7  -5   87.79    7.30
  -7   5  -5   77.59    8.50
   7  -5  -5   86.69    7.80
  -5  -7   5   76.09    7.30
  -7   5   5   99.69    9.80
  -5  -7   5   84.09    7.80
  -7   5   5   69.29    7.70
  -7   5   5   63.29    8.50
  -5  -7   5   79.29    7.00
   7  -5   5   81.09    7.40
  -5  -7   5   80.29    7.40
   7  -5   5   85.69    7.40
   7  -6  -5   30.80    4.80
   7  -6  -5   30.00    4.20
  -7   6  -5   33.30    5.70
   6   7  -5   33.40    4.10
  -6  -7  -5   38.30    2.80
  -6  -7  -5   37.20    4.20
   7  -6  -5   41.10    9.10
   7  -6  -5   35.40    3.90
  -6  -7   5   32.20    4.50
  -7   6   5   37.40    6.00
   7  -6   5   35.40    4.30
   7  -6   5   36.70    4.10
  -7   6   5   34.10    4.60
  -6  -7   5   38.70    4.10
  -6  -7   5   36.30    4.30
  -6  -7   5   34.00    4.30
   7  -7  -5    8.00    4.70
   7  -7  -5    4.80    1.40
  -7  -7  -5    5.30    0.90
   7  -7  -5    3.50    2.00
   7  -7  -5    4.20    1.70
  -7  -7  -5    5.30    1.00
   7   7  -5    2.20    1.80
  -7  -7  -5    2.70    1.60
  -7   7  -5    3.00    2.30
  -7  -7   5    3.30    1.80
  -7   7   5    5.90    2.30
   7  -7   5    6.60    2.10
   7  -7   5    5.40    1.70
  -7  -7   5    2.90    1.80
  -7  -7   5    3.30    2.00
   7   7   5    2.80    2.80
  -7  -7   5   12.50    2.40
   7  -8  -5  210.48   17.00
  -8  -7  -5  236.08   18.60
   8   7  -5  214.28   18.60
  -7   8  -5  235.18   20.30
   7  -8  -5  220.28   18.40
   7  -8  -5  229.38   18.00
  -8  -7  -5  224.98   17.00
   7  -8  -5  203.48   22.60
  -8  -7   5  249.38   19.00
  -8  -7   5  228.18   18.70
  -7   8   5  213.18   18.80
   7  -8   5  241.58   18.20
   7  -8   5  256.37   18.20
  -8  -7   5  233.98   19.10
  -8  -7   5  234.38   17.90
  -6   8  -5   21.50    4.90
  -6   8  -5   20.70    3.50
   6  -8  -5   24.60    2.90
   6  -8  -5   26.40    7.70
   6  -8  -5   17.00    2.00
  -8  -6  -5   20.20    2.30
  -8  -6  -5   20.40    3.40
   6  -8  -5   20.10    3.50
   8   6  -5   24.70    4.10
   6  -8   5   24.10    3.50
  -6   8   5   33.60    4.10
  -8  -6   5   19.90    3.90
  -8  -6   5   22.20    3.50
  -8  -6   5   22.80    4.10
  -8  -6   5   16.00    3.50
   6  -8   5   22.30    3.30
   8   6   5   15.00    5.00
   8   5  -5  223.38   18.20
  -5   8  -5  227.68   19.60
  -8  -5  -5  208.38   18.00
  -5   8  -5  235.38   17.80
   5  -8  -5  233.78   17.70
   5  -8  -5  190.28   21.20
  -8  -5  -5  230.18   16.90
   5  -8  -5  214.78   17.00
  -8  -5   5  233.78   18.40
  -8  -5   5  221.88   17.70
   5  -8   5  213.58   17.30
  -8  -5   5  235.98   18.60
   5  -8   5  233.78   17.50
  -5   8   5  217.78   17.90
  -8  -5   5  237.08   18.60
  -8  -5   5  224.48   18.40
  -8  -4  -5  502.75   43.90
   8   4  -5  602.44   44.20
   4  -8  -5  642.74   43.50
   4  -8  -5  470.45   46.70
  -4   8  -5  608.54   43.50
   4  -8  -5  568.74   42.70
  -8  -4  -5  585.94   42.90
  -4   8  -5  663.53   45.80
   4  -8   5  559.64   43.30
  -8  -4   5  572.84   43.60
  -8  -4   5  573.94   44.50
  -8  -4   5  626.54   44.60
  -4   8   5  615.94   43.60
  -8  -4   5  637.24   44.50
  -8  -4   5  609.84   44.60
   4  -8   5  580.94   43.20
   3  -8  -5  513.15   34.90
  -3   8  -5  512.15   36.90
   3  -8  -5  417.66   38.20
   8   3  -5  481.85   34.90
  -3   8  -5  492.05   35.00
   8   3  -5  493.15   35.80
   3  -8  -5  433.26   34.00
  -8  -3  -5  461.55   34.60
   8   3  -5  427.26   37.60
  -8  -3   5  465.85   36.10
  -8  -3   5  482.85   35.30
  -8  -3   5  469.55   36.20
   3  -8   5  477.45   34.90
  -3   8   5  465.05   34.90
   3  -8   5  457.05   34.70
  -8  -3   5  477.85   35.80
   8   2  -5  284.47   21.60
   2  -8  -5  316.77   20.60
  -2   8  -5  270.87   20.60
  -8  -2  -5  261.67   20.50
   2  -8  -5  248.78   23.70
  -8  -2  -5  259.17   21.70
   8   2  -5  240.68   23.30
  -2   8  -5  276.57   22.20
   8   2  -5  308.47   21.00
   2  -8   5  264.37   20.50
  -8  -2   5  261.57   21.90
  -8  -2   5  287.87   21.70
  -8  -2   5  233.98   21.80
  -8  -2   5  275.57   21.20
   2  -8   5  270.87   20.60
   8   1  -5   65.49    8.70
   1  -8  -5   74.29    5.60
  -1   8  -5   65.79    7.00
  -8  -1  -5   63.09    5.40
  -8  -1  -5   65.59    7.00
  -8  -1  -5   68.89    7.70
   1  -8  -5   67.69    8.50
   8   1  -5   65.09    6.10
  -1   8  -5   64.69    5.80
   8   1  -5   68.39    6.70
  -8  -1  -5   59.79    5.70
  -8  -1   5   59.49    6.90
   1  -8   5   55.39    6.20
   1  -8   5   55.79    5.60
  -8  -1   5   47.90    6.80
   1  -8   5   74.89    5.90
  -8  -1   5   76.09    6.80
  -8   0  -5    6.60    1.70
  -8   0  -5    2.00    2.10
   8   0  -5    4.40    1.90
   0  -8  -5    1.10    1.10
   8   0  -5    6.60    3.30
  -8   0  -5    0.50    1.60
   0   8  -5    0.90    1.00
   8   0  -5    3.30    1.50
   0  -8  -5    5.10    3.00
  -8   0  -5    3.00    1.30
  -8   0   5    1.00    1.40
   0  -8   5    2.40    1.20
   0  -8   5    1.90    1.20
  -8   0   5    0.00    1.50
  -8   0   5    1.10    1.60
   0  -8   5    1.30    1.00
  -8   0   5    1.10    1.60
   0  -8   5    2.00    1.40
  -8   1  -5   75.89    8.00
   8  -1  -5   48.10    7.80
   8  -1  -5   44.10    8.50
   8  -1  -5   59.09    6.20
  -1  -8  -5   69.69    7.90
   1   8  -5   63.89    6.60
  -8   1  -5   61.59    6.00
   8  -1  -5   68.79    6.60
  -8   1  -5   56.49    7.10
  -8   1  -5   68.99    6.20
  -1  -8  -5   66.79    5.90
  -1  -8  -5   55.89    5.40
   1   8  -5   64.49    5.70
  -1  -8   5   66.59    6.20
  -1  -8   5   63.69    5.60
  -8   1   5   64.89    7.10
  -1  -8   5   65.69    6.20
  -8   1   5   63.49    6.60
  -1  -8   5   65.79    5.70
  -8   1   5   51.79    7.10
  -8   1   5   62.19    6.60
   8  -2  -5  297.27   21.90
   2   8  -5  279.57   21.10
   8  -2  -5  246.08   24.00
  -8   2  -5  289.97   21.60
  -2  -8  -5  272.77   20.30
   8  -2  -5  300.27   22.00
  -8   2  -5  277.57   21.90
  -2  -8  -5  306.77   23.30
   2   8  -5  249.97   21.70
  -8   2  -5  306.87   23.60
  -2  -8  -5  261.77   20.50
  -2  -8  -5  292.27   21.30
  -8   2   5  281.97   22.00
  -8   2   5  220.28   22.60
  -2  -8   5  287.17   21.10
  -2  -8   5  279.17   21.50
  -2  -8   5  281.87   20.80
  -8   2   5  250.67   22.60
  -8   2   5  290.37   22.20
  -2  -8   5  290.97   21.60
  -8   3  -5  548.95   37.40
  -8   3  -5  515.85   35.30
   3   8  -5  472.85   34.60
   8  -3  -5  510.75   35.30
  -8   3  -5  465.25   35.60
   8  -3  -5  395.46   35.60
   8  -3  -5  417.06   38.00
   8  -3  -5  463.85   35.30
  -3  -8  -5  484.15   34.70
  -8   3  -5  424.96   36.70
   3   8  -5  434.96   35.30
  -3  -8   5  487.55   34.30
  -3  -8   5  463.55   34.90
  -8   3   5  489.25   35.70
  -3  -8   5  471.45   34.60
  -8   3   5  478.25   35.60
  -8   3   5  383.26   36.00
  -3  -8   5  464.35   35.00
  -8   4  -5  591.04   45.00
   8  -4  -5  585.44   44.50
   8  -4  -5  520.45   44.40
   8  -4  -5  585.64   48.10
  -4  -8  -5  630.64   43.90
  -8   4  -5  679.93   44.60
  -8   4  -5  581.54   46.30
   4   8  -5  603.84   43.80
  -4  -8   5  609.94   43.40
  -8   4   5  489.65   45.40
  -4  -8   5  607.64   43.80
  -4  -8   5  628.34   44.10
  -4  -8   5  551.74   44.20
  -8   4   5  626.54   45.00
   8  -4   5  598.14   44.10
   8  -5  -5  221.28   22.00
   5   8  -5  220.88   17.50
  -5  -8  -5  233.58   17.60
   8  -5  -5  198.18   17.70
  -8   5  -5  226.08   18.90
  -8   5  -5  264.57   20.30
  -8   5  -5  239.68   20.20
   8  -5  -5  217.38   18.20
  -8   5   5  180.38   19.20
  -5  -8   5  229.28   17.10
   8  -5   5  269.17   18.00
  -5  -8   5  213.98   18.00
  -5  -8   5  231.78   17.80
  -8   5   5  232.98   18.60
  -5  -8   5  221.88   17.60
  -8   5   5  180.68   19.40
  -8   6  -5   22.40    4.90
   8  -6  -5   31.40    3.80
   8  -6  -5   16.50    3.60
  -6  -8  -5   22.30    3.40
  -8   6  -5   33.10    6.10
   8  -6  -5   20.50    4.00
   6   8  -5   22.00    3.70
   8  -6  -5   14.50    6.30
  -6  -8   5   20.50    4.00
   8  -6   5   23.80    3.90
   8  -6   5   34.40    3.80
  -6  -8   5   29.80    3.50
  -6  -8   5   30.00    3.70
  -8   6   5   22.10    4.20
  -8   6   5   17.60    5.10
  -6  -8   5   22.50    3.70
  -8   7  -5  221.78   19.80
  -7  -8  -5  242.18   18.50
   8  -7  -5  232.08   23.40
   8  -7  -5  216.18   18.40
  -7  -8  -5  231.78   16.70
  -7  -8  -5  227.28   16.60
   8  -7  -5  212.08   18.60
   7   8  -5  215.28   18.30
   8  -7  -5  211.68   17.50
   8  -7   5  243.78   18.20
  -7  -8   5  236.08   18.60
  -7  -8   5  241.88   19.00
  -8   7   5  233.48   21.10
   8  -7   5  241.78   18.30
  -7  -8   5  238.38   18.60
  -7  -8   5  234.18   17.70
  -8   7   5  218.88   19.10
   8  -8  -5    4.20    2.30
  -8  -8  -5    3.00    0.90
  -8   8  -5    3.80    2.90
   8  -8  -5    6.20    5.10
   8  -8  -5    3.20    1.40
  -8  -8  -5    6.50    2.30
   8  -8  -5   -0.70    1.10
   8   8  -5    3.80    2.30
  -8  -8   5    1.70    1.80
  -8  -8   5    0.90    1.90
   8  -8   5    2.20    3.00
   8  -8   5    3.40    1.70
  -8  -8   5    1.60    1.80
  -8  -8   5    5.20    1.90
  -8   8   5    2.80    2.20
   8  -8   5    4.10    2.00
   8  -9  -5  338.87   25.50
   9   8  -5  316.97   26.40
   8  -9  -5  297.47   24.30
  -9  -8  -5  307.77   26.00
   8  -9  -5  330.57   31.50
  -9  -8  -5  322.97   24.30
   8  -9  -5  299.87   26.00
  -8   9  -5  354.26   28.30
  -9  -8   5  326.37   26.40
   8  -9   5  375.46   30.10
   8  -9   5  375.16   25.90
  -9  -8   5  361.16   27.00
   8  -9   5  360.06   25.70
  -8   9   5  291.17   26.60
  -9  -8   5  364.96   26.80
  -9  -8   5  336.37   25.00
   7  -9  -5   81.29   14.00
  -9  -7  -5   94.19    7.50
   7  -9  -5  102.09    8.20
   9   7  -5   88.19    9.20
  -7   9  -5   91.89   10.70
   7  -9  -5   87.59    7.00
   7  -9  -5   88.19    8.80
  -9  -7  -5   86.59    8.90
  -9  -7   5  103.59    8.70
  -9  -7   5  102.59    9.80
  -9  -7   5  102.39    9.50
   7  -9   5  103.59    8.70
   9   7   5   62.99   10.30
  -9  -7   5   92.19    9.40
   7  -9   5  106.69    8.70
   6  -9  -5  156.98   13.60
  -9  -6  -5  160.28   12.60
  -6   9  -5  158.38   13.60
  -9  -6  -5  144.59   13.80
   9   6  -5  154.48   14.20
  -6   9  -5  195.08   16.40
   6  -9  -5  165.78   12.90
   6  -9  -5  134.59   17.60
  -9  -6   5  168.58   14.70
   6  -9   5  181.68   13.40
  -9  -6   5  164.28   14.50
   6  -9   5  163.28   13.40
  -9  -6   5  176.08   14.60
  -9  -6   5  171.28   13.70
  -9  -5  -5  183.38   16.90
   9   5  -5  200.08   17.30
   5  -9  -5  215.98   16.50
  -9  -5  -5  206.88   15.80
   5  -9  -5  195.78   15.60
   5  -9  -5  181.88   20.60
  -5   9  -5  245.48   19.40
  -5   9  -5  211.88   16.60
  -9  -5   5  205.58   17.60
  -9  -5   5  199.18   17.40
  -9  -5   5  193.08   17.40
  -9  -5   5  217.18   17.70
  -9  -5   5  209.28   16.70
   5  -9   5  233.38   16.40
   5  -9   5  213.38   16.40
  -9  -4  -5  213.98   17.00
   4  -9  -5  175.98   20.80
  -9  -4  -5  203.68   18.20
  -4   9  -5  244.38   17.70
   9   4  -5  229.08   18.60
   4  -9  -5  245.18   17.50
   4  -9  -5  201.98   16.50
  -4   9  -5  225.88   19.70
  -9  -4   5  230.58   18.90
  -9  -4   5  237.18   19.00
   4  -9   5  217.18   17.40
   4  -9   5  226.78   17.30
  -9  -4   5  244.48   18.10
  -9  -4   5  229.78   18.70
   3  -9  -5  168.58   12.20
  -9  -3  -5  141.19   11.80
   9   3  -5  150.68   12.30
   3  -9  -5  153.98   16.00
  -3   9  -5  173.58   14.50
  -9  -3  -5  130.89   13.00
  -3   9  -5  158.58   12.30
   9   3  -5  155.78   13.30
  -9  -3   5  153.48   13.30
  -9  -3   5  141.49   13.50
   3  -9   5  152.58   12.20
  -9  -3   5  146.19   12.80
   3  -9   5  144.09   12.00
  -9  -3   5  148.89   13.60
   9   2  -5   43.60    8.20
  -2   9  -5   69.89    7.40
   2  -9  -5   68.19    5.50
   9   2  -5   56.89    5.90
  -2   9  -5   64.49    5.70
   9   2  -5   58.49    6.60
  -9  -2  -5   60.49    6.80
  -9  -2  -5   56.49    5.40
   2  -9  -5   58.39    9.60
   2  -9   5   57.69    5.60
  -9  -2   5   49.00    6.80
  -9  -2   5   61.39    6.60
  -9  -2   5   62.79    7.20
   2  -9   5   56.69    5.60
  -9  -2   5   57.59    6.60
   9   1  -5  101.09    9.70
   9   1  -5  125.59    9.40
  -9  -1  -5   99.59    8.10
  -1   9  -5   99.39    8.50
   9   1  -5   84.19   11.30
  -9  -1  -5  116.99   10.80
  -9  -1  -5  106.49   10.10
   1  -9  -5   97.89   11.40
  -9  -1  -5   95.99    8.50
  -1   9  -5  100.59    9.80
   1  -9   5  101.39    8.50
  -9  -1   5   91.99   10.10
   1  -9   5   86.09    9.00
  -9  -1   5   96.39   10.10
   1  -9   5  105.39    8.50
  -9  -1   5  104.09    9.60
  -9  -1   5   99.09    9.60
   0   9  -5 1237.48   87.39
   9   0  -5 1020.50   89.79
  -9   0  -5 1223.48   87.59
   0  -9  -5 1155.08   87.79
  -9   0  -5 1418.36   90.29
   9   0  -5 1246.68   88.09
   0   9  -5 1139.49   88.59
   9   0  -5 1215.28   88.69
  -9   0  -5 1252.97   89.49
   0  -9  -5 1297.17   90.69
  -9   0  -5 1272.27   87.49
   0  -9   5 1183.98   88.29
  -9   0   5 1155.48   89.29
  -9   0   5 1258.17   88.39
   0  -9   5 1232.38   87.39
   0  -9   5 1083.49   87.89
  -9   0   5 1173.98   88.59
  -9   0   5 1170.38   89.59
   0  -9   5 1235.28   87.19
  -9   1  -5   97.39    8.80
   1   9  -5  107.19    8.50
   9  -1  -5  104.09    9.30
   9  -1  -5  104.69    9.70
  -9   1  -5  124.09   11.10
  -9   1  -5   92.49   10.20
  -1  -9  -5  117.39    9.00
   1   9  -5   91.29    9.30
  -1  -9  -5  110.19   11.10
   9  -1  -5   79.19   10.60
  -9   1  -5   95.19    8.70
  -1  -9   5   94.69    8.90
  -9   1   5   95.59    9.60
  -9   1   5   99.19   10.50
  -1  -9   5   97.09    8.20
  -9   1   5   87.89   10.00
  -9   1   5  102.89    9.70
  -1  -9   5   94.99    8.40
   9  -2  -5   58.09    6.50
   2   9  -5   64.69    5.80
  -2  -9  -5   64.39    7.80
  -2  -9  -5   55.49    5.10
   9  -2  -5   48.90    8.30
  -2  -9  -5   70.79    6.10
  -9   2  -5   63.99    6.50
  -2  -9  -5   64.69    4.90
  -9   2  -5   72.79    8.10
  -9   2  -5   49.90    7.30
   9  -2  -5   59.79    6.70
  -9   2  -5   60.09    6.10
  -2  -9   5   59.89    5.60
  -9   2   5   56.89    6.80
  -9   2   5   50.09    7.10
  -9   2   5   64.59    7.20
  -9   2   5   50.79    7.30
  -2  -9   5   59.89    5.70
  -2  -9   5   69.59    6.40
  -2  -9   5   63.59    6.30
  -3  -9  -5  149.79   11.00
  -3  -9  -5  147.29   10.80
  -9   3  -5  154.18   14.20
   9  -3  -5  154.88   13.10
  -3  -9  -5  165.38   12.30
   9  -3  -5  136.49   12.70
  -9   3  -5  122.19   13.90
   9  -3  -5  132.09   15.40
  -3  -9  -5  175.88   14.30
  -9   3  -5  149.69   12.40
   9  -3  -5  114.69   13.10
  -9   3  -5  150.88   12.90
   3   9  -5  153.28   11.90
  -3  -9   5  154.08   12.00
  -9   3   5  124.09   13.90
  -3  -9   5  150.18   12.50
  -3  -9   5  158.28   11.60
  -3  -9   5  147.09   12.30
  -9   3   5  125.99   13.70
  -9   3   5  152.18   13.40
  -9   3   5  143.39   13.10
  -4  -9  -5  270.87   19.60
   9  -4  -5  209.08   18.30
  -9   4  -5  231.68   18.70
   9  -4  -5  210.88   18.60
   9  -4  -5  235.78   22.10
  -4  -9  -5  231.68   17.70
  -9   4  -5  186.68   19.60
  -9   4  -5  260.07   20.20
   4   9  -5  226.58   17.50
  -9   4   5  208.58   18.70
  -4  -9   5  224.38   17.80
  -4  -9   5  228.88   17.10
  -9   4   5  174.38   19.10
  -4  -9   5  229.68   18.10
  -4  -9   5  231.48   17.50
  -9   4   5  230.28   19.10
   5   9  -5  187.28   15.80
   9  -5  -5  230.98   21.20
   9  -5  -5  184.08   16.40
   9  -5  -5  177.08   16.50
  -9   5  -5  205.78   17.20
  -9   5  -5  206.28   18.70
  -9   5  -5  237.48   18.80
  -5  -9  -5  219.78   16.20
  -5  -9   5  193.28   16.40
  -9   5   5  201.28   17.20
  -5  -9   5  209.38   16.00
  -9   5   5  169.58   18.10
  -5  -9   5  206.78   16.20
  -5  -9   5  208.88   15.40
   9  -5   5  203.28   16.20
  -9   5   5  157.88   17.70
  -6  -9  -5  175.08   14.10
   6   9  -5  155.08   13.80
   9  -6  -5  182.38   19.10
   9  -6  -5  145.79   14.40
  -9   6  -5  211.48   16.90
   9  -6  -5  158.88   14.60
  -9   6  -5  173.28   16.50
   9  -6  -5  144.49   13.70
  -9   6  -5  168.78   15.30
  -6  -9   5  159.68   14.30
  -9   6   5  143.39   16.10
  -6  -9   5  170.18   14.10
   9  -6   5  184.48   14.50
   9  -6   5  199.18   14.30
  -6  -9   5  182.28   14.10
  -9   6   5  149.59   14.80
  -6  -9   5  182.68   13.30
   9  -7  -5   78.99   14.10
   9  -7  -5   85.99    9.20
  -9   7  -5   98.49   10.40
   7   9  -5   93.09    9.00
  -7  -9  -5   98.49    9.10
   9  -7  -5   88.19    8.40
  -9   7  -5  108.69   11.40
   9  -7  -5   99.49    9.80
  -7  -9   5  100.09    8.20
  -9   7   5   99.29   10.10
  -7  -9   5   97.69    9.10
  -9   7   5   86.19   11.30
  -7  -9   5  101.39    9.60
  -7  -9   5   92.19    9.10
   9  -7   5  105.19    9.10
   9  -7   5  110.69    9.30
   9  -8  -5  335.27   25.80
  -8  -9  -5  295.07   23.80
   9  -8  -5  293.77   26.00
  -8  -9  -5  336.97   25.80
   8   9  -5  326.57   25.80
  -9   8  -5  329.17   27.30
  -8  -9  -5  328.17   23.80
   9  -8  -5  303.87   24.50
   9  -8  -5  319.67   31.00
  -8  -9   5  336.97   25.90
   9  -8   5  371.06   25.60
  -8  -9   5  342.67   26.20
   9  -8   5  370.76   25.70
  -9   8   5  301.27   28.40
  -9   8   5  296.87   26.60
  -8  -9   5  373.16   26.70
   9  -9  -5  233.78   17.70
   9  -9  -5  194.98   22.90
   9  -9  -5  208.28   16.40
   9  -9  -5  188.88   18.10
  -9  -9  -5  208.28   16.00
  -9   9  -5  233.28   20.00
  -9  -9  -5  211.48   18.00
   9   9  -5  200.28   18.10
  -9   9   5  221.88   21.00
  -9  -9   5  217.78   18.70
   9  -9   5  253.57   18.00
   9  -9   5  252.77   17.90
  -9  -9   5  211.58   18.20
  -9   9   5  195.78   18.80
  -9  -9   5  220.08   18.50
   9 -10  -5   30.70    5.50
  10   9  -5   35.50    6.00
  -9  10  -5   39.70    7.50
   9 -10  -5   30.40    3.30
   9 -10  -5   32.00    9.40
   9 -10  -5   35.30    4.30
 -10  -9  -5   31.40    3.10
 -10  -9  -5   32.60    4.90
   9 -10   5   43.20    5.00
 -10  -9   5   29.40    5.20
   9 -10   5   27.50    8.00
   9 -10   5   40.90    5.30
 -10  -9   5   36.80    5.40
 -10  -9   5   41.00    6.30
 -10  -8  -5   33.30    5.10
  -8  10  -5   45.10    7.90
   8 -10  -5   43.90    4.50
   8 -10  -5   34.00    5.40
  10   8  -5   36.00    6.10
   8 -10  -5   24.40    8.50
 -10  -8  -5   41.60    3.70
   8 -10   5   54.19   10.30
 -10  -8   5   35.80    5.90
 -10  -8   5   43.90    5.80
   8 -10   5   43.20    5.30
   8 -10   5   41.70    5.10
 -10  -8   5   41.10    6.60
   7 -10  -5  620.24   54.79
   7 -10  -5  684.13   48.20
  -7  10  -5  673.33   51.79
 -10  -7  -5  647.94   47.80
  10   7  -5  651.03   50.09
   7 -10  -5  622.74   49.00
 -10  -7  -5  567.64   49.20
 -10  -7   5  661.13   50.29
 -10  -7   5  670.33   50.19
 -10  -7   5  635.14   49.99
 -10  -7   5  670.43   48.60
   7 -10   5  701.33   53.89
   7 -10   5  681.13   48.60
   7 -10   5  730.73   49.00
 -10  -6  -5    3.20    2.20
  -6  10  -5    1.90    2.70
   6 -10  -5    8.00    2.40
   6 -10  -5    6.70    5.20
  -6  10  -5    4.80    2.10
   6 -10  -5    3.10    1.20
  10   6  -5    0.90    2.10
 -10  -6   5    2.50    2.20
 -10  -6   5    1.00    2.10
   6 -10   5    3.30    1.80
  10   6   5    1.60    3.20
 -10  -6   5    2.80    2.10
 -10  -6   5    3.40    2.40
   6 -10   5    3.00    1.90
  -5  10  -5   25.90    5.90
   5 -10  -5   25.50    2.80
   5 -10  -5   29.00    3.80
 -10  -5  -5   26.70    3.10
 -10  -5  -5   27.10    4.70
  -5  10  -5   29.10    3.90
   5 -10  -5   26.50    8.10
  10   5  -5   23.10    4.80
 -10  -5   5   26.90    4.40
   5 -10   5   29.60    3.80
 -10  -5   5   23.40    4.80
  10   5   5   21.60    6.40
   5 -10   5   26.10    4.00
 -10  -5   5   41.10    5.50
 -10  -5   5   25.60    4.90
  -4  10  -5   98.79   10.70
  -4  10  -5   97.49    8.30
  10   4  -5   87.59    9.40
 -10  -4  -5   90.89    7.70
 -10  -4  -5   85.19    9.00
   4 -10  -5   90.49    7.20
   4 -10  -5   93.49    8.10
 -10  -4   5   85.69    9.50
   4 -10   5   96.49    8.20
 -10  -4   5   91.99    8.90
 -10  -4   5   92.59    9.70
 -10  -4   5   89.79    9.50
   4 -10   5   86.69    8.10
  -3  10  -5   53.99    5.30
  -3  10  -5   54.59    7.40
 -10  -3  -5   48.40    6.30
 -10  -3  -5   57.29    5.10
  10   3  -5   49.90    6.60
   3 -10  -5   38.90    8.40
 -10  -3   5   54.49    6.40
 -10  -3   5   54.39    6.60
 -10  -3   5   47.00    6.60
   3 -10   5   51.39    5.20
   3 -10   5   44.80    5.20
 -10  -3   5   55.89    6.90
 -10  -2  -5   11.40    2.20
   2 -10  -5   12.80    4.90
 -10  -2  -5   14.50    3.90
  -2  10  -5   16.10    4.10
  10   2  -5   12.70    3.60
  -2  10  -5   12.50    2.50
  10   2  -5    8.60    4.40
 -10  -2  -5   14.20    3.50
 -10  -2   5   11.60    3.60
 -10  -2   5   14.40    4.00
   2 -10   5   12.00    2.50
   2 -10   5   16.70    2.80
 -10  -2   5    9.40    3.00
 -10  -2   5   12.70    3.40
  10   1  -5  551.94   41.80
  -1  10  -5  558.14   43.20
  10   1  -5  470.15   43.70
  -1  10  -5  586.34   41.20
 -10  -1  -5  581.24   43.10
  10   1  -5  553.34   42.70
 -10  -1  -5  542.85   41.00
   1 -10  -5  558.14   44.70
 -10  -1  -5  560.04   40.60
 -10  -1   5  540.35   43.10
 -10  -1   5  581.44   42.30
 -10  -1   5  520.15   42.50
 -10  -1   5  548.45   43.30
   1 -10   5  580.54   40.90
   1 -10   5  585.94   41.20
  10   0  -5    3.80    2.20
  10   0  -5    1.60    1.80
  10   0  -5    0.10    3.00
   0 -10  -5    2.80    3.00
   0  10  -5    6.10    1.80
 -10   0  -5    0.10    1.90
 -10   0  -5    0.50    1.10
 -10   0  -5    2.30    2.50
 -10   0  -5    0.60    1.00
 -10   0   5    0.90    2.30
   0 -10   5    0.80    1.20
   0 -10   5    3.10    1.80
 -10   0   5    0.20    1.50
   0 -10   5    0.80    1.40
 -10   0   5    0.10    2.10
 -10   0   5    2.20    2.40
   0 -10   5    1.50    1.40
  -1 -10  -5  548.25   41.70
 -10   1  -5  541.15   43.70
  -1 -10  -5  572.34   40.80
   1  10  -5  585.24   41.30
 -10   1  -5  656.23   44.20
  -1 -10  -5  607.84   44.40
  10  -1  -5  505.95   42.10
  10  -1  -5  562.34   42.90
 -10   1  -5  566.44   41.60
 -10   1  -5  555.34   41.50
  10  -1  -5  503.05   43.70
  -1 -10   5  596.64   40.90
  -1 -10   5  562.74   42.20
  -1 -10   5  572.44   41.30
  -1 -10   5  523.05   41.80
 -10   1   5  555.74   43.90
 -10   1   5  581.74   42.70
 -10   1   5  514.95   42.70
 -10   1   5  494.45   43.30
  10  -2  -5   10.20    3.10
 -10   2  -5    8.00    3.50
   2  10  -5    9.70    2.20
  -2 -10  -5   17.00    3.00
 -10   2  -5   11.70    4.00
  -2 -10  -5   16.30    4.40
  10  -2  -5    9.10    3.20
 -10   2  -5   13.10    2.90
  10  -2  -5    9.00    3.90
 -10   2  -5   12.70    2.70
  -2 -10   5   13.40    3.00
 -10   2   5   16.00    3.70
  -2 -10   5   16.30    3.20
  -2 -10   5   10.20    2.20
 -10   2   5    9.70    3.60
 -10   2   5    8.70    3.50
 -10   2   5   14.60    4.00
  -3 -10  -5   50.39    4.50
 -10   3  -5   43.30    7.30
  -3 -10  -5   55.69    7.30
  10  -3  -5   51.49    6.30
 -10   3  -5   51.39    6.10
   3  10  -5   55.69    5.40
 -10   3  -5   66.89    7.90
  -3 -10  -5   51.29    4.20
 -10   3  -5   55.79    5.90
  10  -3  -5   42.90    7.50
  -3 -10  -5   56.09    5.70
 -10   3   5   49.60    7.60
  -3 -10   5   53.69    6.00
  -3 -10   5   67.99    6.20
 -10   3   5   51.19    6.70
 -10   3   5   42.20    7.60
  -3 -10   5   51.39    5.30
  -3 -10   5   53.39    5.10
 -10   3   5   54.69    7.30
 -10   4  -5  102.39   10.30
  10  -4  -5   77.39    9.10
 -10   4  -5   85.39    8.80
 -10   4  -5   61.69    9.50
   4  10  -5   89.69    7.80
  10  -4  -5   82.49    8.80
  -4 -10   5   88.49    7.30
 -10   4   5   87.89    9.80
  -4 -10   5  101.49    8.00
  -4 -10   5   96.69    8.60
 -10   4   5   91.19    9.40
  -4 -10   5   89.49    8.30
 -10   4   5   77.09    9.90
 -10   4   5   64.39    9.60
 -10   5  -5   30.10    6.00
  10  -5  -5   25.80    4.80
  -5 -10  -5   26.00    3.80
   5  10  -5   25.60    3.70
 -10   5  -5   29.80    5.10
  10  -5  -5   25.20    4.80
 -10   5  -5   23.20    5.80
  -5 -10   5   26.90    3.70
 -10   5   5   18.90    4.60
 -10   5   5   25.10    6.20
 -10   5   5   28.80    5.70
  -5 -10   5   27.90    3.30
  -5 -10   5   29.00    3.90
 -10   5   5   18.20    5.20
  -5 -10   5   29.20    4.70
 -10   6  -5    4.70    3.40
  10  -6  -5    1.60    2.00
  10  -6  -5    2.70    4.50
 -10   6  -5    1.30    2.20
  10  -6  -5    4.20    2.30
   6  10  -5    1.80    1.80
  -6 -10  -5    6.30    2.20
 -10   6  -5    6.50    3.50
  10  -6  -5    5.80    2.70
  -6 -10   5    2.70    2.00
  10  -6   5    2.30    1.80
 -10   6   5    6.30    2.90
 -10   6   5    5.70    3.40
  -6 -10   5    3.40    1.30
  -6 -10   5    3.10    1.90
 -10   6   5    2.20    2.50
  -6 -10   5    4.80    2.10
 -10   7  -5  695.53   50.39
  10  -7  -5  618.54   49.40
   7  10  -5  610.34   48.60
 -10   7  -5  593.04   51.19
  10  -7  -5  624.24   48.20
  10  -7  -5  618.24   49.60
  10  -7  -5  643.14   54.09
  -7 -10  -5  718.73   49.10
  -7 -10   5  672.73   49.20
 -10   7   5  594.44   49.99
  -7 -10   5  676.93   48.80
  10  -7   5  694.53   48.90
  -7 -10   5  713.63   49.60
   8  10  -5   38.70    5.40
  10  -8  -5   36.10    9.70
  10  -8  -5   35.80    6.10
  -8 -10  -5   46.00    5.50
  10  -8  -5   33.80    4.50
  10  -8  -5   46.00    5.70
 -10   8  -5   36.00    7.50
 -10   8  -5   39.80    7.00
  -8 -10   5   36.30    5.90
  10  -8   5   51.39    5.90
 -10   8   5   37.50    6.70
  10  -8   5   48.80    5.40
  -8 -10   5   39.50    5.50
  -8 -10   5   39.30    5.30
 -10   8   5   38.20    8.00
  10  -9  -5   29.30    3.80
   9  10  -5   36.80    5.40
  10  -9  -5   31.00    5.70
 -10   9  -5   36.10    6.70
  10  -9  -5   37.00    4.80
  10  -9  -5   39.70   10.30
  -9 -10  -5   34.00    4.90
  10  -9   5   40.40    5.50
  -9 -10   5   35.00    5.40
 -10   9   5   24.70    5.90
  -9 -10   5   34.70    5.80
  -9 -10   5   40.80    5.80
 -10   9   5   24.50    6.80
  10  -9   5   38.50    4.90
  10 -10  -5   33.70    9.90
  10  10  -5   32.40    5.70
 -10  10  -5   32.70    6.80
  10 -10  -5   23.50    3.00
  10 -10  -5   26.90    4.30
  10 -10  -5   26.30    5.40
 -10 -10  -5   28.70    2.50
 -10 -10  -5   24.90    4.80
  10 -10   5   30.70    4.80
 -10  10   5   31.80    7.50
  10 -10   5   30.90    4.80
 -10 -10   5   35.30    6.00
 -10 -10   5   26.00    5.30
 -10 -10   5   30.00    5.20
 -11 -10  -5   24.80    2.50
 -10  11  -5   24.70    6.10
 -11 -10  -5   20.50    4.50
  10 -11  -5   33.60    4.20
  10 -11  -5   28.40    5.50
  11  10  -5   28.20    5.70
  10 -11  -5   18.80    8.10
 -11 -10   5   22.90    4.70
  10 -11   5   34.40    5.10
 -11 -10   5   29.30    5.90
 -10  11   5   30.00    7.80
 -11 -10   5   36.60    6.40
  10 -11   5   35.40    5.10
   9 -11  -5  125.79   17.10
   9 -11  -5  118.69   10.30
  11   9  -5  131.99   12.70
   9 -11  -5  103.19   11.20
 -11  -9  -5  106.99   11.30
 -11  -9  -5  114.19    9.40
  -9  11  -5  136.39   13.90
   9 -11   5  121.09   15.20
 -11  -9   5  128.99   12.60
   9 -11   5  133.19   11.10
 -11  -9   5  102.29   11.40
   9 -11   5  150.68   11.40
 -11  -9   5  128.69   12.30
  -8  11  -5   12.60    4.70
   8 -11  -5    4.80    4.90
 -11  -8  -5    6.30    2.60
   8 -11  -5    5.70    2.70
  11   8  -5    7.50    3.70
   8 -11  -5    8.90    2.10
 -11  -8  -5   10.70    1.80
   8 -11   5    7.90    2.80
   8 -11   5   14.10    5.70
   8 -11   5   12.10    2.90
  11   8   5    5.60    4.40
 -11  -8   5   12.30    3.80
 -11  -8   5   12.30    3.60
 -11  -8   5   10.10    3.40
 -11  -7  -5   10.20    1.90
   7 -11  -5   11.30    3.00
   7 -11  -5    8.10    1.90
  11   7  -5   10.60    3.90
   7 -11  -5    2.80    5.10
  -7  11  -5   10.30    4.50
 -11  -7  -5    8.80    3.00
  11   7   5   12.90    5.60
 -11  -7   5    8.30    3.30
 -11  -7   5   12.70    3.90
 -11  -7   5   10.50    2.40
 -11  -7   5    6.70    3.00
   7 -11   5   10.10    2.80
   7 -11   5    9.10    2.70
   7 -11   5   18.40    6.80
 -11  -6  -5   29.10    3.30
   6 -11  -5   32.70    4.30
   6 -11  -5   28.10    3.10
 -11  -6  -5   29.00    5.10
  11   6  -5   28.50    5.90
  -6  11  -5   28.10    6.70
   6 -11  -5   26.80    8.30
  -6  11  -5   28.40    4.50
   6 -11   5   28.70    8.30
 -11  -6   5   28.70    4.50
  11   6   5   15.90    6.00
 -11  -6   5   30.30    5.70
   6 -11   5   37.80    4.40
   6 -11   5   31.10    4.50
 -11  -6   5   24.40    5.10
 -11  -5  -5   56.59    7.10
 -11  -5  -5   66.49    5.80
  -5  11  -5   63.39    6.50
  -5  11  -5   85.69   10.00
  11   5  -5   62.79    7.90
   5 -11  -5   44.80   10.40
 -11  -5   5   66.59    7.80
 -11  -5   5   58.19    7.70
   5 -11   5   66.59    6.40
   5 -11   5   71.69    6.60
  11   5   5   39.20    9.10
 -11  -5   5   51.79    7.50
 -11  -5   5   72.19    7.40
   4 -11  -5  293.37   31.10
 -11  -4  -5  353.46   26.20
  11   4  -5  348.27   28.60
  -4  11  -5  386.76   27.00
 -11  -4  -5  378.26   28.20
 -11  -4   5  305.87   28.20
 -11  -4   5  311.47   28.20
 -11  -4   5  352.56   27.50
   4 -11   5  369.76   26.80
 -11  -4   5  362.16   28.70
   4 -11   5  346.97   26.40
 -11  -3  -5  315.37   23.20
 -11  -3  -5  330.37   25.20
  -3  11  -5  318.27   23.60
  11   3  -5  304.77   25.40
   3 -11  -5  274.67   27.70
   3 -11   5  283.67   23.10
 -11  -3   5  322.47   24.60
 -11  -3   5  302.97   25.50
 -11  -3   5  301.57   25.50
 -11  -3   5  289.47   25.20
   3 -11   5  303.07   23.50
 -11  -2  -5   57.79    7.40
  11   2  -5   52.99    7.60
  -2  11  -5   68.49    6.10
 -11  -2  -5   57.19    5.70
  11   2  -5   56.89    6.60
   2 -11  -5   53.99   10.40
 -11  -2  -5   75.09    8.30
 -11  -2   5   58.89    7.60
   2 -11   5   57.19    5.80
 -11  -2   5   52.09    7.20
 -11  -2   5   74.19    8.30
   2 -11   5   56.39    5.90
 -11  -2   5   59.89    7.40
  11   1  -5   91.89   12.30
 -11  -1  -5  111.99    8.60
   1 -11  -5  108.09   12.60
 -11  -1  -5  130.09   11.80
 -11  -1  -5  123.79   11.50
 -11  -1  -5  101.19    9.10
  -1  11  -5  112.39    9.30
  11   1  -5   97.99   10.00
  11   1  -5   97.19   10.80
   1 -11   5  116.09    9.30
 -11  -1   5   90.39   10.50
 -11  -1   5  105.29   11.30
   1 -11   5  102.79    9.00
 -11  -1   5  100.19   11.20
 -11  -1   5   98.49   10.60
 -11   0  -5   87.39    9.80
   0  11  -5   88.29    7.70
   0 -11  -5   81.89    7.40
 -11   0  -5   99.09    7.90
  11   0  -5   79.49    8.70
  11   0  -5   76.29   10.70
   0 -11  -5   76.99   10.40
 -11   0  -5   90.09    9.90
 -11   0  -5   83.59    7.50
  11   0  -5   78.89    9.40
 -11   0   5   86.49    9.90
   0 -11   5   88.79    7.70
 -11   0   5   85.59    9.50
 -11   0   5   72.99    9.50
   0 -11   5   93.79    7.50
   0 -11   5   77.09    8.40
 -11   0   5   70.79    8.90
   0 -11   5   84.79    8.50
  11  -1  -5   95.69   12.10
  11  -1  -5   91.79   10.20
  11  -1  -5  110.59   11.30
  -1 -11  -5  108.19    9.90
 -11   1  -5  118.19   11.70
 -11   1  -5  103.49    9.40
 -11   1  -5  109.29   11.80
 -11   1  -5  103.69    9.40
  -1 -11  -5  116.59   12.30
   1  11  -5  102.19    9.20
  -1 -11  -5  118.09    8.80
  -1 -11   5  130.59    9.50
  -1 -11   5  109.09   10.00
  -1 -11   5   90.59    9.90
  -1 -11   5  116.19    9.00
 -11   1   5  101.89   11.60
 -11   1   5   84.49   11.00
 -11   1   5  119.99   11.30
 -11   1   5   97.39   10.80
  11  -2  -5   53.79    7.20
  -2 -11  -5   65.59    6.60
  11  -2  -5   69.49    9.10
 -11   2  -5   63.99    6.40
 -11   2  -5   54.89    8.30
 -11   2  -5   64.79    8.20
 -11   2  -5   62.69    6.60
  -2 -11  -5   63.69    5.20
  11  -2  -5   62.49    8.00
   2  11  -5   66.89    6.10
  -2 -11  -5   61.99    8.50
 -11   2   5   47.30    8.40
  -2 -11   5   57.39    6.60
  -2 -11   5   68.69    5.80
  -2 -11   5   66.39    6.20
 -11   2   5   54.59    8.20
  -2 -11   5   58.19    6.60
 -11   2   5   56.79    7.50
 -11   2   5   50.59    7.90
  11  -3  -5  274.57   25.10
 -11   3  -5  323.37   24.80
  11  -3  -5  296.87   26.00
  -3 -11  -5  325.67   24.60
 -11   3  -5  281.27   26.80
  -3 -11  -5  300.97   22.80
   3  11  -5  301.57   23.90
 -11   3  -5  384.86   27.10
  -3 -11  -5  362.46   26.90
 -11   3  -5  341.27   24.50
  -3 -11   5  330.47   23.30
  -3 -11   5  293.47   24.60
  -3 -11   5  323.77   24.00
 -11   3   5  340.47   26.30
 -11   3   5  261.17   26.10
  -3 -11   5  317.57   24.80
 -11   3   5  295.57   26.90
 -11   3   5  274.67   25.60
  -4 -11  -5  344.47   25.30
  -4 -11  -5  396.46   27.40
 -11   4  -5  377.76   27.80
   4  11  -5  344.77   26.60
  11  -4  -5  320.77   28.10
  11  -4  -5  316.47   27.90
 -11   4  -5  284.27   29.10
 -11   4   5  313.27   29.20
  -4 -11   5  329.57   27.20
 -11   4   5  319.47   29.70
  -4 -11   5  380.86   25.70
  -4 -11   5  389.66   26.80
  -4 -11   5  384.16   27.70
 -11   4   5  318.87   28.40
 -11   4   5  374.36   29.10
  11  -5  -5   54.99    7.50
  -5 -11  -5   63.89    6.60
   5  11  -5   69.59    6.40
 -11   5  -5   78.09    9.00
 -11   5  -5   36.70    8.20
  11  -5  -5   53.19    7.30
 -11   5  -5   62.69    7.30
  -5 -11   5   60.79    6.60
 -11   5   5   62.69    8.90
 -11   5   5   56.79    8.80
 -11   5   5   49.99    7.40
  -5 -11   5   64.39    7.00
  -5 -11   5   58.59    6.20
 -11   5   5   56.99    9.70
  11  -6  -5   29.30    5.60
   6  11  -5   31.00    4.30
 -11   6  -5   33.60    5.80
  11  -6  -5   27.70    5.50
 -11   6  -5   37.90    7.00
  -6 -11  -5   38.00    4.70
 -11   6  -5   17.70    5.50
  11  -6  -5   25.80    4.80
 -11   6   5   26.40    6.90
  -6 -11   5   27.30    4.90
  -6 -11   5   25.10    4.60
 -11   6   5   29.10    6.10
  -6 -11   5   29.00    4.40
 -11   6   5   21.90    5.90
 -11   7  -5   11.20    4.60
 -11   7  -5    5.00    3.90
  11  -7  -5   16.40    4.00
  11  -7  -5    7.80    3.70
   7  11  -5    8.30    2.70
 -11   7  -5    9.20    3.60
  11  -7  -5    9.60    3.00
  -7 -11  -5   12.30    3.10
  -7 -11   5    9.80    2.80
  -7 -11   5   10.20    2.90
 -11   7   5    5.90    3.20
 -11   7   5    6.10    3.70
  11  -7   5   17.50    3.50
  -7 -11   5    4.90    2.60
  -8 -11  -5   11.90    3.20
   8  11  -5   11.60    3.40
 -11   8  -5   16.10    4.70
  11  -8  -5    9.80    2.60
 -11   8  -5    4.80    3.80
  11  -8  -5   12.10    3.50
  11  -8  -5    6.20    3.30
  11  -8   5    9.70    3.20
  -8 -11   5    9.10    3.20
 -11   8   5    8.30    3.50
 -11   8   5    8.90    4.30
  -8 -11   5    8.80    2.90
  -8 -11   5   14.00    3.70
  11  -8   5   11.00    3.10
  11  -9  -5  116.29    9.80
  -9 -11  -5  111.39   11.00
 -11   9  -5  141.29   13.00
   9  11  -5  120.69   11.40
  11  -9  -5  122.39   11.10
  11  -9  -5  106.79   11.80
 -11   9  -5   95.59   12.80
  11  -9   5  137.19   11.20
  -9 -11   5  122.59   11.10
  -9 -11   5  115.79   11.50
  11  -9   5  144.19   11.50
 -11   9   5   82.99   11.60
  -9 -11   5  117.59   11.70
 -11   9   5   92.89   13.20
 -10 -11  -5   28.10    5.00
  11 -10  -5   35.50    4.70
  10  11  -5   32.80    5.80
 -11  10  -5   31.70    6.80
  11 -10  -5   26.80    3.30
  11 -10  -5   22.10    5.10
  11 -10  -5   28.70   13.70
 -11  10  -5   24.60    6.50
 -10 -11   5   31.30    5.80
  11 -10   5   32.60    5.10
 -10 -11   5   25.30    5.10
  11 -10   5   25.20    4.50
 -11  10   5   12.10    5.50
  11  11  -5  247.78   20.10
  11 -11  -5  239.08   18.10
  11 -11  -5  246.98   25.20
 -11  11  -5  169.98   20.50
 -11 -11  -5  185.88   18.50
  11 -11  -5  199.68   19.20
 -11  11   5  166.88   21.00
 -11 -11   5  219.08   19.60
  11 -11   5  271.47   18.90
 -11 -11   5  237.28   20.00
  11 -11   5  272.27   18.80
   9 -12  -5  127.19   12.20
 -12  -9  -5  109.39   12.00
   9 -12  -5  125.79   20.90
  -9  12  -5  140.19   14.90
 -12  -9  -5  118.89   10.10
  12   9  -5  136.69   13.90
   9 -12  -5  141.39   11.00
 -12  -9   5  140.29   13.60
   9 -12   5  148.39   17.10
   9 -12   5  151.58   12.00
 -12  -9   5  125.49   12.50
   9 -12   5  143.89   12.00
 -12  -9   5  132.89   13.20
  -8  12  -5   14.50    5.50
   8 -12  -5    7.90    6.10
   8 -12  -5   11.50    2.20
 -12  -8  -5   12.00    3.50
  12   8  -5   14.00    4.90
 -12  -8  -5   12.30    2.00
   8 -12  -5   11.70    3.40
 -12  -8   5    8.90    3.90
   8 -12   5   10.50    3.10
 -12  -8   5    8.70    3.40
 -12  -8   5   13.70    3.90
   8 -12   5   10.00    2.90
   8 -12   5   10.60    5.80
  12   8   5    4.90    4.40
   7 -12  -5    6.10    5.70
  -7  12  -5    4.60    3.90
  12   7  -5    4.00    3.40
 -12  -7  -5    2.50    1.20
 -12  -7  -5    1.10    2.10
   7 -12  -5    7.30    1.60
 -12  -7   5    4.20    3.00
  12   7   5   -0.60    3.20
   7 -12   5    3.90    2.10
   7 -12   5    3.50    5.10
 -12  -7   5    2.20    2.40
   7 -12   5    3.50    2.40
 -12  -6  -5   21.60    4.50
  12   6  -5   22.20    5.30
   6 -12  -5   15.80    7.40
  -6  12  -5   24.90    6.70
 -12  -6  -5   20.40    2.90
 -12  -6   5   20.20    5.00
   6 -12   5   24.90    7.80
   6 -12   5   25.70    4.00
 -12  -6   5   23.00    5.00
  12   6   5   11.00    5.70
 -12  -6   5   24.20    3.90
   6 -12   5   25.40    4.00
 -12  -5  -5   72.19    8.10
   5 -12  -5   56.19   12.30
 -12  -5  -5   62.59    6.10
  12   5  -5   63.09    8.60
 -12  -5   5   66.79    8.20
 -12  -5   5   68.09    7.60
   5 -12   5   94.99   15.10
  12   5   5   49.20   10.60
 -12  -5   5   59.99    8.60
   5 -12   5   70.29    6.90
 -12  -5   5   65.89    8.40
   5 -12   5   77.59    7.00
  -4  12  -5  132.39   10.30
   4 -12  -5  102.89   14.50
  12   4  -5  110.19   12.00
 -12  -4  -5  126.79   11.60
 -12  -4  -5  108.89    9.40
 -12  -4   5  113.89   11.00
   4 -12   5  113.19    9.80
 -12  -4   5   97.69   11.50
   4 -12   5  120.79   10.10
 -12  -4   5   99.19   11.50
 -12  -4   5  122.39   12.10
  12   4   5   69.59   13.80
  -3  12  -5  376.26   27.30
 -12  -3  -5  346.77   26.70
 -12  -3  -5  423.16   29.40
  12   3  -5  336.77   29.40
   3 -12  -5  316.07   31.70
   3 -12   5  343.67   26.70
 -12  -3   5  316.97   28.90
 -12  -3   5  291.67   28.80
 -12  -3   5  373.36   28.40
 -12  -3   5  408.16   29.90
   3 -12   5  351.66   27.20
 -12  -2  -5   16.90    4.40
  -2  12  -5   13.90    2.80
  12   2  -5    5.40    3.60
 -12  -2  -5   15.70    4.40
 -12  -2  -5    9.60    2.30
   2 -12  -5    8.70    4.80
   2 -12   5    8.00    2.30
 -12  -2   5   10.30    4.10
 -12  -2   5   10.70    3.90
 -12  -2   5   10.80    3.80
   2 -12   5   12.50    2.60
 -12  -2   5   10.10    3.70
  12   1  -5   12.70    3.90
  12   1  -5   38.80   11.60
   1 -12  -5   18.40    3.20
 -12  -1  -5   19.70    3.10
  12   1  -5   14.10    4.60
 -12  -1  -5   19.80    4.90
  -1  12  -5   18.80    3.20
   1 -12  -5   15.40    5.70
 -12  -1  -5   23.70    5.20
 -12  -1   5   13.40    4.20
 -12  -1   5   10.50    3.80
   1 -12   5   21.80    3.10
 -12  -1   5   20.00    5.20
 -12  -1   5   14.40    4.50
   1 -12   5   20.90    3.40
 -12   0  -5   -0.70    1.10
  12   0  -5    3.90    3.10
 -12   0  -5   -0.70    2.00
   0  12  -5    1.10    1.40
 -12   0  -5    1.60    2.70
   0 -12  -5    2.00    3.10
  12   0  -5    1.20    3.60
   0 -12  -5    1.60    1.20
 -12   0  -5    0.80    1.40
  12   0  -5    1.80    2.30
 -12   0   5   -0.60    2.70
   0 -12   5    1.60    1.50
   0 -12   5    1.70    3.30
   0 -12   5   -0.20    1.50
 -12   0   5    3.10    2.60
 -12   0   5    2.60    3.00
 -12   0   5    3.10    3.00
   0 -12   5   -0.30    1.30
  12  -1  -5    9.70    3.80
 -12   1  -5   15.20    4.80
  12  -1  -5   18.40    5.00
  -1 -12  -5   17.50    2.50
 -12   1  -5   16.80    3.20
  -1 -12  -5   17.50    5.50
 -12   1  -5   21.50    5.10
   1  12  -5   18.70    3.20
 -12   1  -5   20.40    3.40
  -1 -12  -5   16.70    3.60
  12  -1  -5   15.40    5.30
 -12   1   5   20.10    5.10
 -12   1   5    9.50    4.10
 -12   1   5   17.80    5.20
  -1 -12   5   24.60    4.40
  -1 -12   5   18.60    3.20
  -1 -12   5   18.60    3.90
  -1 -12   5   18.90    2.80
 -12   1   5   16.20    4.40
 -12   2  -5   11.40    4.50
  12  -2  -5   20.80    5.30
  -2 -12  -5   15.50    5.00
   2  12  -5   12.30    2.70
  -2 -12  -5   11.50    1.80
  -2 -12  -5   10.20    2.90
 -12   2  -5   22.10    3.50
 -12   2  -5   11.60    2.90
  12  -2  -5   14.30    4.50
  12  -2  -5    9.30    3.40
 -12   2  -5   18.70    4.90
 -12   2   5    8.40    4.00
 -12   2   5    5.80    3.10
 -12   2   5   10.40    4.30
  -2 -12   5    8.80    3.00
  -2 -12   5   11.80    2.00
  -2 -12   5    8.80    2.90
  -2 -12   5    9.60    2.40
 -12   2   5   13.60    4.50
 -12   3  -5  394.36   27.80
  -3 -12  -5  347.07   26.10
 -12   3  -5  352.76   30.80
 -12   3  -5  434.86   30.50
  -3 -12  -5  404.76   30.50
  12  -3  -5  320.97   28.90
   3  12  -5  369.26   27.30
  12  -3  -5  368.36   29.80
  -3 -12  -5  359.36   28.10
 -12   3  -5  382.86   28.10
 -12   3   5  304.67   29.20
 -12   3   5  359.86   29.70
 -12   3   5  351.06   30.70
  -3 -12   5  356.06   28.20
  -3 -12   5  353.66   27.30
  -3 -12   5  339.27   28.20
 -12   3   5  291.57   29.60
 -12   4  -5  102.59   13.00
 -12   4  -5  147.69   13.10
 -12   4  -5  124.69   11.20
   4  12  -5  120.09   10.20
  12  -4  -5  103.19   11.70
  12  -4  -5  117.39   12.30
  -4 -12  -5  120.39   10.90
  -4 -12  -5  122.29    8.80
  -4 -12   5   97.99   10.60
  -4 -12   5  120.59   10.30
  -4 -12   5  118.39   11.10
 -12   4   5  110.49   13.30
 -12   4   5  112.29   12.80
 -12   4   5  107.39   12.20
 -12   4   5  100.09   12.60
  -5 -12  -5   76.39    7.50
 -12   5  -5   77.29    7.90
  12  -5  -5   63.89    8.20
 -12   5  -5   82.79    9.50
  12  -5  -5   60.29    8.20
 -12   5  -5   46.80    9.30
   5  12  -5   63.79    6.60
 -12   5   5   58.09    9.30
 -12   5   5   50.79    8.10
  -5 -12   5   73.69    6.90
 -12   5   5   66.49    9.80
  -5 -12   5   52.99    6.90
  -5 -12   5   69.39    7.60
 -12   5   5   51.89    9.30
  12  -6  -5   26.30    5.50
 -12   6  -5   42.50    7.50
   6  12  -5   26.70    4.20
  12  -6  -5   30.90    6.30
 -12   6  -5   22.70    5.00
 -12   6  -5   18.90    5.80
  12  -6  -5   22.90    4.80
  -6 -12  -5   28.10    4.80
 -12   6   5   20.00    5.40
  -6 -12   5   26.90    4.80
  -6 -12   5   28.40    4.30
 -12   6   5   12.60    5.10
 -12   6   5   19.60    6.20
 -12   6   5   24.50    6.30
  -6 -12   5   23.90    4.50
  12  -7  -5    3.10    3.10
   7  12  -5    3.20    2.10
 -12   7  -5    4.90    3.10
  12  -7  -5    3.10    2.70
 -12   7  -5    0.20    2.80
  -7 -12  -5    6.10    2.60
 -12   7  -5   -0.40    2.90
  12  -7  -5    2.20    2.50
  -7 -12   5    0.50    2.10
 -12   7   5    4.10    3.10
  -7 -12   5    2.40    2.00
  -7 -12   5    8.00    2.60
 -12   7   5   11.90    5.30
  12  -8  -5    4.50    3.60
  12  -8  -5   10.80    3.70
  12  -8  -5    9.10    2.90
  -8 -12  -5   12.30    3.40
 -12   8  -5    8.60    3.80
   8  12  -5   10.90    3.30
 -12   8  -5    6.70    3.90
  -8 -12   5   12.30    3.50
  12  -8   5   13.60    3.80
 -12   8   5    5.80    3.60
 -12   8   5    8.20    4.30
  12  -8   5   12.60    3.40
  -8 -12   5   10.30    3.50
  -9 -12  -5  118.89   11.90
  12  -9  -5  130.29   13.10
   9  12  -5  129.69   12.20
  12  -9  -5  131.09   10.70
 -12   9  -5   97.19   13.50
 -12   9  -5  148.79   13.50
  12  -9  -5  132.99   12.20
  -9 -12   5  143.39   12.90
  -9 -12   5  126.39   12.40
 -12   9   5   95.99   12.80
  12  -9   5  136.09   11.80
   8 -13  -5    6.00    6.20
  -8  13  -5    5.90    5.10
  13   8  -5    0.10    3.50
 -13  -8  -5    7.10    1.60
   8 -13   5    9.80    3.00
 -13  -8   5    9.00    3.80
   8 -13   5    5.90    2.60
   8 -13   5   11.40    6.20
  13   8   5    6.20    4.60
 -13  -8   5    7.40    3.40
 -13  -7  -5   52.19    5.20
  13   7  -5   50.79    9.10
 -13  -7  -5   57.39    7.10
   7 -13  -5   55.69   14.10
 -13  -7   5   45.80    7.70
   7 -13   5   63.89    6.50
   7 -13   5   53.29   11.60
  13   7   5   38.00    9.70
   7 -13   5   68.49    6.70
 -13  -7   5   57.39    7.80
 -13  -6  -5  121.59   11.60
 -13  -6  -5  120.89    9.70
  13   6  -5  104.69   12.90
   6 -13  -5   90.49   16.80
 -13  -6   5  126.99   12.50
   6 -13   5  119.29   10.40
   6 -13   5  131.19   16.40
 -13  -6   5   96.59   11.60
   6 -13   5  126.39   10.70
  13   5  -5  168.28   16.80
   5 -13  -5  142.89   19.20
 -13  -5  -5  182.58   15.40
 -13  -5  -5  151.98   13.10
 -13  -5   5  181.98   16.10
   5 -13   5  167.68   14.00
   5 -13   5  169.28   19.80
 -13  -5   5  146.19   15.50
   5 -13   5  170.18   13.60
 -13  -5   5  164.88   14.20
   4 -13  -5   12.20    6.10
 -13  -4  -5   11.20    2.40
 -13  -4  -5   13.90    4.00
  13   4  -5   11.70    4.80
 -13  -4   5    6.90    3.50
  13   4   5    6.70    4.70
   4 -13   5   14.00    2.90
 -13  -4   5   10.10    4.10
 -13  -4   5   14.40    3.80
   4 -13   5   10.10    2.80
 -13  -4   5   13.40    4.20
   4 -13   5   13.40    6.90
 -13  -3  -5   23.20    5.00
  13   3  -5   21.20    5.70
 -13  -3  -5   15.70    2.80
   3 -13  -5   27.10    8.10
   3 -13   5   17.60    3.20
 -13  -3   5   19.40    4.60
  13   3   5   16.80    6.30
 -13  -3   5   10.70    4.00
 -13  -3   5   18.00    4.70
   3 -13   5   18.00    3.40
   3 -13   5   23.90    7.80
 -13  -3   5   13.10    4.80
  13   2  -5   22.70    6.00
   2 -13  -5   20.30    3.80
 -13  -2  -5   22.00    3.40
 -13  -2  -5   25.70    5.50
   2 -13  -5   32.00    8.30
 -13  -2   5   13.40    4.30
 -13  -2   5   15.20    4.90
 -13  -2   5   28.80    6.00
   2 -13   5   23.10    3.40
   2 -13   5   23.80    3.80
 -13  -2   5   16.30    4.70
  13   1  -5  490.25   40.40
   1 -13  -5  470.35   35.60
  13   1  -5  430.16   38.30
   1 -13  -5  468.15   40.10
 -13  -1  -5  555.64   38.80
 -13  -1  -5  475.95   35.40
  -1  13  -5  476.95   36.20
   1 -13   5  464.85   35.60
 -13  -1   5  490.85   38.50
 -13  -1   5  391.66   37.80
   1 -13   5  496.65   35.00
 -13  -1   5  456.75   37.10
 -13   0  -5   48.30    5.10
 -13   0  -5   57.79    7.90
  13   0  -5   47.80    9.10
 -13   0  -5   66.89    8.60
  13   0  -5   52.49    9.00
   0 -13  -5   45.00    9.20
 -13   0  -5   51.59    5.50
   0 -13  -5   47.40    5.10
   0  13  -5   52.19    5.60
  13   0  -5   51.89    8.10
 -13   0   5   45.40    7.50
 -13   0   5   35.90    7.30
   0 -13   5   55.09    5.00
 -13   0   5   49.60    7.70
 -13   0   5   43.00    8.10
   0 -13   5   51.99    5.60
  -1 -13  -5  479.05   34.50
  -1 -13  -5  496.25   39.10
 -13   1  -5  473.55   35.20
  13  -1  -5  428.26   36.80
 -13   1  -5  548.95   38.30
   1  13  -5  474.15   35.10
 -13   1  -5  484.65   35.10
  13  -1  -5  473.55   38.20
  13  -1  -5  442.56   37.90
 -13   1   5  472.75   37.30
 -13   1   5  511.15   38.80
 -13   1   5  374.56   37.00
 -13   1   5  370.46   37.40
  -1 -13   5  507.35   35.30
  -1 -13   5  451.95   36.10
  13  -2  -5   17.70    4.80
  -2 -13  -5   22.50    2.60
 -13   2  -5   31.80    4.20
 -13   2  -5   18.90    3.60
  -2 -13  -5   27.80    6.50
  13  -2  -5   17.70    5.50
  -2 -13  -5   22.20    4.30
 -13   2  -5   24.10    6.40
 -13   2  -5   23.50    5.50
  13  -2  -5   22.80    6.30
   2  13  -5   20.90    3.50
 -13   2   5   19.80    5.20
 -13   2   5   29.50    6.70
 -13   2   5   10.50    4.50
 -13   2   5   22.80    5.70
  -2 -13   5   16.00    4.00
  -2 -13   5   32.90    5.30
  -2 -13   5   24.80    3.90
  -3 -13  -5   18.90    5.60
  -3 -13  -5   18.50    4.00
  13  -3  -5   13.60    4.70
 -13   3  -5   21.50    4.00
  -3 -13  -5   20.10    2.30
  13  -3  -5   22.20    6.00
   3  13  -5   25.40    3.90
 -13   3  -5   12.60    5.20
 -13   3  -5   21.60    5.40
  -3 -13   5   21.10    3.60
 -13   3   5   20.80    5.60
  -3 -13   5   26.10    4.90
 -13   3   5   24.70    6.30
 -13   3   5   19.00    5.60
 -13   3   5   22.10    6.40
  -3 -13   5   13.30    3.60
 -13   4  -5   15.60    3.80
   4  13  -5   14.60    3.10
 -13   4  -5    8.40    4.60
 -13   4  -5   13.90    4.80
  13  -4  -5    6.60    3.70
  -4 -13  -5   13.50    3.60
  13  -4  -5   14.00    4.80
  -4 -13   5   15.10    3.20
 -13   4   5    8.90    4.70
 -13   4   5   12.30    4.70
  -4 -13   5   18.40    4.20
  -4 -13   5   10.40    3.20
 -13   4   5   13.40    4.60
 -13   4   5   15.40    5.20
   5  13  -5  175.38   13.80
 -13   5  -5  166.98   14.50
 -13   5  -5  139.59   16.50
 -13   5  -5  205.48   16.90
  13  -5  -5  170.28   15.40
  -5 -13  -5  168.88   14.60
  13  -5  -5  135.39   15.10
 -13   5   5  145.59   16.90
 -13   5   5  126.49   15.90
  -5 -13   5  170.08   14.70
 -13   5   5  163.78   16.70
  -5 -13   5  150.78   14.30
 -13   5   5  123.59   15.30
  -5 -13   5  181.68   13.80
  13  -6  -5   98.99   12.30
  13  -6  -5  127.09   12.00
  -6 -13  -5  126.99   11.60
 -13   6  -5   80.29   12.60
 -13   6  -5  120.79   11.60
  13  -6  -5  123.69   12.30
 -13   6  -5  157.78   14.10
   6  13  -5  129.69   10.90
  -6 -13   5  127.99   10.80
 -13   6   5  106.89   13.40
 -13   6   5   92.69   12.30
 -13   6   5  119.89   14.00
  -6 -13   5  102.99   11.10
  -6 -13   5  128.49   11.80
 -13   6   5  102.39   13.70
  -7 -13  -5   66.39    7.40
  13  -7  -5   64.99    7.90
 -13   7  -5   83.49    9.70
  13  -7  -5   47.50    8.30
 -13   7  -5   39.80    8.70
  13  -7  -5   54.19    7.20
   7  13  -5   57.49    6.70
 -13   7  -5   44.70    7.20
 -13   7   5   48.70    9.00
  -7 -13   5   64.09    7.50
  -7 -13   5   46.20    6.70
 -13   7   5   63.69   11.00
 -13   7   5   40.80    9.40
 -13   7   5   60.59   10.60
  13  -8  -5    4.20    3.70
   8  13  -5    7.30    3.00
  -8 -13  -5    8.40    3.20
 -13   8  -5    3.10    2.90
 -13   8  -5    3.40    3.50
  13  -8  -5    5.90    2.80
  13  -8  -5   10.20    3.80
 -13   8   5   10.40    5.40
  -8 -13   5    7.20    3.40
  13  -8   5    7.10    3.00
 -13   8   5    6.70    3.90
  -8 -13   5    6.20    3.00
   6 -14  -5  539.25   52.29
 -14  -6  -5  656.73   46.90
 -14  -6  -5  567.34   44.40
  14   6  -5  593.24   48.80
   6 -14   5  647.34   52.49
 -14  -6   5  500.75   46.60
   6 -14   5  639.64   45.60
 -14  -6   5  640.04   47.70
   6 -14   5  648.24   44.90
   5 -14  -5   15.30    7.60
 -14  -5  -5   17.40    4.60
  14   5  -5   15.40    5.80
 -14  -5  -5   17.10    2.80
   5 -14   5   27.20    9.20
 -14  -5   5   19.60    4.80
 -14  -5   5    7.30    3.50
   5 -14   5   19.50    3.70
   5 -14   5   13.80    3.10
   4 -14  -5  131.79   12.40
 -14  -4  -5  132.69   11.20
  14   4  -5  126.39   14.90
   4 -14  -5  112.19   19.00
 -14  -4  -5  157.68   13.90
 -14  -4   5  118.19   14.00
   4 -14   5  134.19   11.20
 -14  -4   5  143.59   14.10
 -14  -4   5  136.99   12.40
 -14  -4   5  113.59   13.40
   4 -14   5  156.78   18.40
   4 -14   5  150.48   12.10
   3 -14  -5   72.69    7.20
   3 -14  -5   58.29   12.00
 -14  -3  -5   55.79    6.00
  14   3  -5   68.29   10.80
 -14  -3  -5   79.79    8.90
 -14  -3   5   57.89    7.90
   3 -14   5   72.99    6.30
 -14  -3   5   47.10    9.00
  14   3   5   40.10   10.00
 -14  -3   5   57.99    9.40
   3 -14   5   61.69    6.60
   3 -14   5   55.19   12.20
 -14  -3   5   61.89    8.70
   2 -14  -5  103.39    9.40
  14   2  -5   94.69   12.30
 -14  -2  -5  116.69   11.80
 -14  -2  -5  101.49    8.90
   2 -14  -5   95.49   15.20
 -14  -2   5   79.29   10.90
 -14  -2   5   84.19   11.20
   2 -14   5  106.69    9.40
 -14  -2   5   95.39   10.60
 -14  -2   5  108.59   11.70
  14   2   5   65.39   13.60
   2 -14   5  108.99    8.50
   2 -14   5   87.79   15.50
 -14  -1  -5    4.30    2.00
  14   1  -5    5.50    4.10
 -14  -1  -5    5.80    3.90
 -14  -1  -5    4.00    3.10
   1 -14  -5   10.60    5.50
   1 -14  -5    5.70    2.10
   1 -14   5    7.10    5.30
 -14  -1   5    2.10    3.30
 -14  -1   5    5.30    3.20
 -14  -1   5    8.40    4.40
   1 -14   5    5.70    2.30
 -14  -1   5    3.60    3.40
 -14   0  -5    0.60    3.10
 -14   0  -5    1.40    2.90
  14   0  -5    4.10    3.30
  14   0  -5   15.10    5.60
   0 -14  -5    4.40    1.80
   0 -14  -5    2.70    4.10
 -14   0  -5    2.20    1.80
 -14   0   5   -0.60    3.20
 -14   0   5    3.20    3.30
   0 -14   5    3.70    2.00
   0 -14   5   -3.00    3.30
 -14   0   5    2.60    3.10
 -14   0   5    0.00    2.90
  -1 -14  -5    6.00    1.70
 -14   1  -5    8.50    4.30
  14  -1  -5   12.40    5.40
  -1 -14  -5    8.40    4.60
 -14   1  -5    7.90    4.10
  14  -1  -5    1.80    3.10
 -14   1  -5    3.00    2.00
  14  -1  -5    3.10    4.00
 -14   1  -5    7.10    2.30
 -14   1   5    4.70    3.90
 -14   1   5    2.90    3.70
  -1 -14   5    8.10    2.60
  -1 -14   5    1.00    1.90
  -1 -14   5    1.80    2.50
  -1 -14   5    7.00    4.80
 -14   1   5    5.80    3.80
 -14   1   5    3.00    3.10
 -14   2  -5  113.69   11.90
 -14   2  -5  102.09    9.10
 -14   2  -5  107.39    9.20
  14  -2  -5   96.89   12.00
  -2 -14  -5  108.79   12.70
 -14   2  -5  111.59   12.70
  -2 -14  -5   92.09    7.90
  14  -2  -5   83.69   10.90
 -14   2   5  107.59   12.50
  -2 -14   5  105.99    9.10
  -2 -14   5   78.99    9.70
 -14   2   5   81.09   11.30
 -14   2   5   98.89   11.80
 -14   2   5   67.49   10.50
  -2 -14   5  108.49   10.50
 -14   3  -5   80.99   10.70
  14  -3  -5   77.99   10.20
 -14   3  -5   67.29    7.20
 -14   3  -5   83.89    9.90
  -3 -14  -5   69.09    7.90
  -3 -14  -5   61.39    5.50
  14  -3  -5   49.90    8.80
  -3 -14   5   68.29    8.10
 -14   3   5   73.69   10.30
 -14   3   5   43.50    8.90
 -14   3   5   68.29   10.00
  -3 -14   5   78.19    7.10
  -3 -14   5   67.39   11.40
  -3 -14   5   57.19    7.50
 -14   3   5   46.10    9.00
  14  -4  -5  127.49   14.00
   4  14  -5  142.19   12.20
 -14   4  -5  141.89   12.50
  14  -4  -5  160.48   14.60
 -14   4  -5  166.78   15.10
 -14   4  -5  137.19   15.40
  -4 -14  -5  137.69   13.10
 -14   4   5  121.29   14.60
  -4 -14   5  148.69   13.30
 -14   4   5  141.69   15.10
  -4 -14   5  143.39   11.90
 -14   4   5  136.89   15.50
  -4 -14   5  106.69   12.40
  -4 -14   5  136.99   15.90
 -14   4   5   96.99   13.50
  -5 -14  -5   19.10    4.50
  14  -5  -5   20.20    5.30
  14  -5  -5   26.50    6.00
   5  14  -5   18.50    3.80
 -14   5  -5   12.50    3.90
  14  -5  -5   21.30    5.90
 -14   5  -5   21.70    6.00
 -14   5  -5   11.90    5.20
 -14   5   5   14.40    5.40
 -14   5   5   14.40    5.90
  -5 -14   5   12.90    3.80
 -14   5   5   18.40    5.80
 -14   5   5   12.80    5.70
  -5 -14   5   19.80    4.50
  14  -6  -5  668.03   46.90
  14  -6  -5  699.03   47.90
  -6 -14  -5  612.04   46.80
  14  -6  -5  568.44   47.80
   6  14  -5  630.24   45.80
 -14   6  -5  586.74   46.30
  -6 -14   5  638.54   46.80
 -14   6   5  609.94   48.60
 -14   6   5  562.34   49.50
 -14   6   5  544.55   48.50
  -6 -14   5  533.15   46.40
   4 -15  -5   12.90    3.60
  15   4  -5    0.60    4.00
 -15  -4  -5    2.00    2.90
   4 -15  -5   -1.30    4.30
 -15  -4  -5    1.40    1.50
 -15  -4   5   -2.90    2.90
 -15  -4   5    1.80    3.00
  15   4   5   -1.00    3.50
   4 -15   5    2.10    5.20
 -15  -4   5    2.70    3.10
   4 -15   5   -0.70    1.90
   3 -15  -5   37.70    5.20
   3 -15  -5   29.60    8.90
  15   3  -5   41.90    9.00
 -15  -3  -5   36.70    4.60
 -15  -3  -5   49.99    7.30
 -15  -3   5   42.10    7.70
 -15  -3   5   51.49    6.60
 -15  -3   5   34.10    7.40
   3 -15   5   40.20   10.70
   3 -15   5   38.50    5.20
 -15  -3   5   31.00    6.70
  15   3   5   29.00    8.90
   2 -15  -5  226.08   23.90
 -15  -2  -5  247.08   18.40
   2 -15  -5  245.68   18.90
  15   2  -5  237.38   22.90
 -15  -2   5  215.78   21.30
  15   2   5  170.38   22.90
   2 -15   5  235.38   24.80
 -15  -2   5  218.38   21.20
 -15  -2   5  242.58   19.90
   2 -15   5  245.58   18.90
 -15  -1  -5   46.40    5.40
   1 -15  -5   52.29    5.60
  15   1  -5   59.09   10.20
 -15  -1  -5   61.89    8.70
   1 -15  -5   47.50   10.20
   1 -15   5   56.79    6.00
 -15  -1   5   35.90    7.50
 -15  -1   5   36.90    7.80
 -15  -1   5   51.69    7.80
   1 -15   5   33.50    9.30
  15   1   5   39.40    9.70
 -15  -1   5   56.29    8.50
   0 -15  -5  120.89   14.80
 -15   0  -5  152.38   14.50
 -15   0  -5  114.99   10.40
  15   0  -5  125.59   14.60
 -15   0  -5  141.79   13.70
   0 -15  -5  121.99   10.20
 -15   0   5   87.99   12.40
   0 -15   5  122.09   10.70
 -15   0   5   93.89   12.70
 -15   0   5  106.79   12.40
   0 -15   5  107.49   17.00
 -15   0   5  126.79   13.60
  15  -1  -5   51.69    9.30
 -15   1  -5   55.29    8.90
  15  -1  -5   50.79    9.50
  -1 -15  -5   62.99   11.00
 -15   1  -5   60.99    7.10
 -15   1  -5   48.60    5.80
 -15   1  -5   65.69    9.50
  15  -1  -5   49.20    8.60
  -1 -15  -5   51.79    5.10
  -1 -15   5   51.69   10.90
 -15   1   5   41.20    8.70
  -1 -15   5   50.19    7.90
  -1 -15   5   54.19    6.00
 -15   1   5   50.99    8.20
 -15   1   5   55.79    8.90
 -15   1   5   37.40    8.00
  15  -2  -5  246.48   23.70
  -2 -15  -5  249.48   20.20
 -15   2  -5  320.67   24.80
 -15   2  -5  312.97   25.80
 -15   2  -5  269.17   21.30
  -2 -15  -5  270.07   25.00
  15  -2  -5  303.17   24.60
 -15   2   5  253.57   23.60
 -15   2   5  274.27   25.10
  -2 -15   5  238.88   25.60
  -2 -15   5  255.27   22.70
  -2 -15   5  287.47   21.50
 -15   2   5  228.18   24.00
  15  -3  -5   50.39    8.50
  -3 -15  -5   39.90    3.70
  -3 -15  -5   33.10    6.20
 -15   3  -5   41.70    5.40
 -15   3  -5   52.89    8.50
  15  -3  -5   42.30    8.00
 -15   3  -5   51.99    9.70
  -3 -15   5   32.10    6.20
  -3 -15   5   52.19   10.30
  -3 -15   5   45.20    7.10
 -15   3   5   48.10    9.50
 -15   3   5   26.70    7.00
 -15   3   5   40.40    7.80
 -15   3   5   28.20    6.80
  15  -4  -5    0.40    3.40
 -15   4  -5   -0.30    3.40
  15  -4  -5    2.60    4.20
  -4 -15  -5    1.00    2.30
 -15   4  -5    6.20    4.80
 -15   4  -5    0.80    2.00
 -15   4   5    3.10    4.30
  -4 -15   5    4.80    2.60
 -15   4   5    0.90    3.90
  -4 -15   5    0.30    2.30
  -4 -15   5    0.00    4.00
 -15   4   5    0.50    2.90
 -15   4   5    1.50    3.40
   0   0  -6 1388.16   97.69
   0   0  -6 1478.75   98.29
   0   0  -6 1317.47   97.49
   0   0  -6 1213.98   97.99
   0   0  -6 1404.76   97.49
   1   0  -6    7.90    1.30
   0  -1  -6    5.80    1.10
   0   1  -6    4.30    1.10
   0  -1  -6    6.40    1.00
   1   0  -6    2.80    1.20
  -1   0  -6    2.40    1.10
   0   1  -6   12.60    2.10
   0  -1  -6    1.70    2.30
   0   1  -6    9.90    1.20
   1   0  -6    4.00    1.70
  -1   0  -6    5.10    1.30
   0   1  -6    5.30    1.90
  -1   0   6    2.70    0.90
   1  -1  -6   93.29    6.90
   1   1  -6   86.69    6.70
  -1  -1  -6   80.19    6.60
   1  -1  -6   85.69    6.60
   1   1  -6   66.69    7.70
   1   1  -6   79.29    6.60
  -1   1  -6   84.29    7.10
  -1   1  -6   74.59    6.40
  -1   1  -6   78.79    7.40
  -1   1  -6   81.99    6.70
   1   1  -6   95.09    7.50
   1   1  -6   77.29    6.50
   1  -1  -6   83.39    6.70
   1  -1  -6   84.59    6.40
   1  -1  -6   90.49    9.30
  -1  -1  -6   91.89    6.70
  -1   1  -6   78.09    6.60
  -1  -1  -6   81.39    6.40
  -1  -1   6   85.69    6.60
  -1  -1   6   83.09    6.60
  -1   1   6   79.69    6.60
  -1   2  -6  668.83   51.69
   1  -2  -6  754.22   50.79
   2   1  -6  757.02   50.89
  -1   2  -6  685.83   51.19
   2   1  -6  588.54   51.89
   2   1  -6  749.82   51.79
  -2  -1  -6  722.73   50.79
  -2  -1  -6  665.03   50.69
   1  -2  -6  742.73   50.79
  -1   2  -6  691.83   50.59
  -2  -1  -6  778.02   50.99
  -2  -1  -6  683.83   50.39
   1  -2  -6  755.62   53.39
  -1   2  -6  708.33   50.89
   2   1  -6  678.23   50.69
  -1   2  -6  672.43   50.69
   2   1  -6  695.03   50.59
  -2  -1   6  697.63   50.79
  -2  -1   6  681.83   50.59
   1  -2   6  663.93   50.59
  -2  -1   6  716.43   50.69
  -1   2   6  680.53   50.69
   0  -2  -6 1860.41  130.29
  -2   0  -6 1977.20  130.59
   0  -2  -6 1921.71  130.19
   0  -2  -6 2035.10  132.89
   2   0  -6 1755.42  130.29
   0   2  -6 1864.11  130.99
   2   0  -6 1734.63  130.09
   0   2  -6 1660.83  130.19
   0   2  -6 1708.13  130.39
   2   0  -6 1865.91  130.49
   0   2  -6 1739.33  130.19
   0  -2  -6 1889.21  130.19
  -2   0  -6 1681.23  129.99
  -2   0  -6 1854.81  130.49
   0   2  -6 1700.73  131.39
  -2   0  -6 1932.21  130.49
  -2   0   6 1810.12  130.39
   0  -2   6 1776.62  130.19
  -2   0   6 1813.72  130.29
  -2   1  -6  648.94   50.99
  -1  -2  -6  759.62   51.19
  -2   1  -6  617.54   51.49
   1   2  -6  693.93   51.19
   2  -1  -6  707.43   50.89
   1   2  -6  675.73   51.09
   2  -1  -6  674.53   51.69
   2  -1  -6  726.63   51.29
   1   2  -6  686.03   52.49
   1   2  -6  732.93   51.99
   2  -1  -6  602.14   53.69
  -2   1  -6  744.03   51.59
  -1  -2  -6  713.73   50.89
  -1  -2  -6  816.52   53.59
  -1  -2  -6  759.02   51.19
  -2   1  -6  715.13   51.39
  -2   1  -6  773.12   51.39
   2  -1  -6  711.03   51.19
  -2   1   6  711.33   51.19
  -1  -2   6  678.33   51.09
  -1  -2   6  673.43   50.99
  -1  -2   6  749.82   51.19
   2  -2  -6  181.08   12.50
  -2  -2  -6  169.48   12.60
   2   2  -6  187.38   13.60
   2   2  -6  153.68   14.10
   2   2  -6  156.08   12.50
  -2   2  -6  158.68   12.70
   2  -2  -6  166.88   12.20
  -2  -2  -6  207.58   14.90
  -2   2  -6  169.98   13.10
  -2   2  -6  158.08   12.80
  -2  -2  -6  157.18   12.20
   2  -2  -6  158.88   15.10
   2   2  -6  158.18   12.50
   2  -2  -6  168.58   12.70
  -2   2  -6  155.68   12.40
  -2  -2   6  185.28   12.50
  -2   2   6  163.98   12.60
   2  -2   6  139.49   12.30
  -2  -2   6  159.98   12.70
  -2  -2   6  191.28   12.60
  -2  -2   6  154.48   12.50
  -2   3  -6 1051.09   73.19
  -3  -2  -6  953.10   71.99
   3   2  -6 1034.20   72.49
  -2   3  -6 1045.30   72.89
  -2   3  -6  976.00   72.39
   3   2  -6  988.10   74.39
   3   2  -6  993.30   72.39
   2  -3  -6  972.20   75.19
   3   2  -6 1011.80   73.49
  -3  -2  -6 1080.89   72.59
   2  -3  -6 1030.00   72.49
  -2   3  -6 1002.90   72.59
  -3  -2   6  959.30   72.39
  -3  -2   6 1047.30   72.49
   2  -3   6  959.80   72.29
  -3  -2   6  990.80   72.69
   2  -3   6  916.01   72.29
  -2   3   6 1048.60   72.49
  -3  -2   6 1042.60   72.39
  -3  -1  -6  226.58   16.10
   3   1  -6  217.48   16.20
  -1   3  -6  208.58   16.10
  -1   3  -6  225.28   16.60
  -1   3  -6  207.38   16.20
   3   1  -6  218.78   17.30
   1  -3  -6  247.88   16.30
   1  -3  -6  222.48   18.60
  -1   3  -6  214.88   16.90
   3   1  -6  175.08   17.70
  -3  -1  -6  208.38   15.90
  -3  -1  -6  229.78   16.50
   3   1  -6  212.48   16.20
   3   1  -6  226.08   16.60
  -1   3   6  210.98   16.20
  -3  -1   6  223.78   16.30
  -3  -1   6  221.88   16.20
  -3  -1   6  221.88   16.50
   1  -3   6  197.78   16.10
   1  -3   6  219.88   16.10
  -3  -1   6  212.08   16.20
   3   0  -6    2.20    1.80
   0   3  -6    4.20    1.10
   0  -3  -6    1.30    0.80
   0   3  -6    7.70    1.80
   3   0  -6    3.20    0.90
  -3   0  -6    0.60    0.80
   0  -3  -6    0.00    1.50
  -3   0  -6    2.30    1.00
   0   3  -6    5.00    1.10
  -3   0  -6    1.50    0.80
   3   0  -6    2.40    1.00
  -3   0   6    1.30    0.90
  -3   0   6    1.00    0.80
   0  -3   6    0.80    0.50
   0  -3   6    1.80    0.90
  -3   0   6    1.70    0.80
  -3   0   6    1.10    0.90
   0  -3   6    3.10    0.90
   0   3   6    3.70    1.00
   3  -1  -6  192.38   17.10
   1   3  -6  212.38   16.90
  -1  -3  -6  242.18   18.30
  -3   1  -6  223.18   16.60
   3  -1  -6  221.98   16.00
  -1  -3  -6  227.38   15.90
  -1  -3  -6  231.68   16.20
   1   3  -6  201.68   16.20
   1   3  -6  209.68   16.20
  -3   1  -6  218.98   16.50
  -3   1  -6  201.98   16.00
  -3   1  -6  201.18   16.40
  -1  -3   6  206.98   16.10
  -1  -3   6  236.18   16.10
  -1  -3   6  210.78   16.20
  -3   1   6  219.48   16.50
  -1  -3   6  226.08   16.10
  -3   1   6  214.28   16.30
   2   3  -6  996.80   74.99
   2   3  -6  994.20   75.09
  -3   2  -6  914.51   74.89
  -2  -3  -6 1197.68   76.99
   3  -2  -6 1057.29   75.39
   2   3  -6 1017.80   75.89
   3  -2  -6 1026.50   74.69
   2   3  -6 1019.20   76.79
  -3   2  -6 1015.20   75.59
   3  -2  -6 1046.30   75.19
  -3   2  -6 1051.99   75.49
  -2  -3  -6 1112.49   74.59
  -3   2  -6 1053.39   75.29
   3  -2  -6  950.30   77.89
  -2  -3  -6 1105.59   75.09
  -2  -3   6  982.60   74.99
  -2  -3   6 1143.89   74.99
  -3   2   6 1070.49   75.69
  -3   2   6 1056.99   75.19
  -2  -3   6 1013.60   75.09
  -2  -3   6 1056.19   74.99
   3   3  -6  224.18   18.10
  -3  -3  -6  264.97   18.80
   3   3  -6  217.88   17.00
  -3   3  -6  220.28   17.10
  -3  -3  -6  228.98   16.50
  -3  -3  -6  230.48   16.60
   3  -3  -6  251.87   16.90
   3   3  -6  217.68   17.10
  -3   3  -6  246.68   17.90
   3  -3  -6  210.28   19.90
   3  -3  -6  243.98   17.30
  -3  -3  -6  233.38   16.80
  -3   3  -6  229.98   17.70
  -3  -3  -6  254.27   17.20
   3   3  -6  227.38   19.10
  -3   3  -6  227.78   17.30
  -3  -3   6  208.28   17.00
  -3  -3   6  242.38   17.10
  -3  -3   6  223.18   17.30
  -3   3   6  187.48   17.60
  -3   3   6  225.28   17.20
   3  -3   6  188.88   16.90
   3  -3   6  219.48   17.00
  -3  -3   6  242.98   17.10
  -4  -3  -6  119.19    9.30
  -4  -3  -6  140.59   10.00
   4   3  -6  122.29    9.80
   4   3  -6  133.29   12.30
   4   3  -6  116.89   10.80
  -4  -3  -6  124.19    9.70
   4   3  -6  125.29   10.00
  -3   4  -6  119.49    9.90
  -3   4  -6  138.29   10.90
   3  -4  -6  122.79   12.80
  -3   4  -6  136.39   10.70
  -3   4  -6  124.49   10.00
   3  -4  -6  132.69   10.00
  -4  -3   6  132.19    9.90
  -4  -3   6  117.09    9.90
  -3   4   6  126.59   10.00
  -4  -3   6  128.29   10.20
   3  -4   6  108.99    9.70
  -4  -3   6  124.19    9.90
  -4  -2  -6  236.08   18.80
  -4  -2  -6  237.68   18.40
  -2   4  -6  243.18   18.90
   2  -4  -6  241.08   21.40
   4   2  -6  258.17   20.10
   4   2  -6  259.57   18.90
   4   2  -6  266.97   19.00
  -4  -2  -6  270.97   19.10
  -2   4  -6  250.67   19.70
   4   2  -6  267.67   21.30
  -2   4  -6  267.67   19.50
  -2   4  -6  237.68   18.90
   2  -4  -6  278.87   19.00
  -4  -2   6  258.37   19.00
  -4  -2   6  256.47   19.00
  -2   4   6  258.97   18.90
   2  -4   6  229.58   18.70
  -4  -2   6  243.58   18.90
  -4  -2   6  253.57   19.30
   2  -4   6  244.18   18.80
  -4  -1  -6 1579.84  122.09
   4   1  -6 1654.83  122.39
   4   1  -6 1779.62  122.49
   1  -4  -6 1769.72  124.89
  -1   4  -6 1730.93  122.79
  -4  -1  -6 1917.61  122.79
   4   1  -6 1433.26  124.09
   1  -4  -6 1838.22  122.39
  -4  -1  -6 1762.02  121.99
  -1   4  -6 1553.54  122.29
  -1   4  -6 1728.73  123.19
   1  -4  -6 1846.62  121.79
   1  -4   6 1610.54  122.29
  -1   4   6 1676.33  122.29
  -4  -1   6 1615.64  122.59
   1  -4   6 1679.03  122.29
  -4  -1   6 1733.23  122.49
  -4  -1   6 1793.42  122.49
  -4  -1   6 1701.53  122.79
   0   4  -6  483.25   36.90
  -4   0  -6  473.45   36.40
   0   4  -6  472.25   36.60
   0   4  -6  461.85   37.30
   0  -4  -6  558.04   36.60
  -4   0  -6  527.65   37.10
  -4   0  -6  507.05   36.70
   4   0  -6  530.45   36.70
   0  -4  -6  533.55   38.90
   4   0  -6  482.65   36.70
   0  -4   6  504.65   36.70
  -4   0   6  518.45   36.80
   0  -4   6  492.35   36.60
  -4   0   6  514.25   37.20
  -4   0   6  505.35   36.80
   0  -4   6  494.05   36.50
   0   4   6  492.25   36.60
  -1  -4  -6 1691.13  126.79
  -1  -4  -6 1907.21  129.19
   4  -1  -6 1794.42  127.09
   1   4  -6 1606.64  127.19
  -4   1  -6 1694.33  127.09
   1   4  -6 1652.93  127.89
  -1  -4  -6 1877.31  127.09
   1   4  -6 1624.84  127.29
  -4   1  -6 1772.92  127.69
   4  -1  -6 1771.22  127.29
  -4   1  -6 1685.13  127.39
  -4   1  -6 1873.31  127.79
  -4   1  -6 1965.30  127.39
  -4   1   6 1836.32  127.29
  -1  -4   6 1771.62  127.29
  -1  -4   6 1674.73  127.09
  -4   1   6 1730.43  127.69
  -1  -4   6 1895.41  127.09
  -1  -4   6 1879.81  127.29
  -4   1   6 1775.12  127.39
  -2  -4  -6  253.27   18.90
   4  -2  -6  270.47   19.30
  -2  -4  -6  283.57   19.00
   2   4  -6  242.58   19.50
   4  -2  -6  274.07   19.70
  -2  -4  -6  296.77   21.30
   4  -2  -6  247.58   20.20
  -4   2  -6  271.77   20.00
  -2  -4  -6  265.17   19.20
   2   4  -6  265.57   21.60
  -2  -4  -6  277.87   19.40
   2   4  -6  263.67   20.40
  -4   2  -6  245.88   20.00
  -4   2  -6  258.97   19.50
   2   4  -6  254.67   19.60
  -4   2  -6  246.88   20.10
  -4   2  -6  252.07   20.40
  -2  -4   6  289.87   19.60
  -2  -4   6  240.88   19.60
  -2  -4   6  270.87   19.40
  -4   2   6  254.57   19.70
  -2  -4   6  236.48   19.40
  -4   2   6  256.67   20.10
   3   4  -6  124.59   10.00
  -3  -4  -6  125.89    9.40
   3   4  -6  125.39   10.90
   3   4  -6  135.99   12.40
  -4   3  -6  131.29   10.80
   4  -3  -6  132.49   10.20
  -3  -4  -6  136.89    9.30
  -4   3  -6  124.29   10.70
   4  -3  -6  104.89   12.60
   3   4  -6  120.89   10.10
  -4   3  -6  130.19   10.40
  -3  -4  -6  161.08   11.70
  -3  -4  -6  139.79   10.00
  -4   3  -6  132.59   10.10
  -3  -4  -6  128.19    9.70
   4  -3  -6  134.19   10.20
   4  -3   6  113.39    9.90
  -3  -4   6  129.79   10.00
  -3  -4   6  122.79   10.00
  -3  -4   6  115.89   10.10
  -4   3   6  124.59   10.20
   4  -3   6  110.09   10.90
  -4   3   6  117.29   10.70
   4  -4  -6  620.04   48.00
   4   4  -6  661.53   48.50
  -4   4  -6  669.93   48.70
   4   4  -6  674.13   49.50
   4   4  -6  633.84   48.20
   4  -4  -6  602.94   51.59
   4   4  -6  644.14   50.49
  -4   4  -6  673.03   49.50
  -4  -4  -6  646.04   47.60
  -4   4  -6  667.33   48.50
   4  -4  -6  665.63   48.50
  -4  -4  -6  660.03   48.20
  -4  -4  -6  732.13   48.40
  -4  -4  -6  760.62   49.70
  -4  -4   6  718.43   48.40
   4  -4   6  659.23   48.40
  -4   4   6  678.43   48.60
  -4  -4   6  665.23   48.40
  -4  -4   6  619.54   48.30
  -4  -4   6  636.44   48.60
  -5  -4  -6  364.66   24.30
  -4   5  -6  345.27   25.50
  -4   5  -6  352.56   24.40
  -5  -4  -6  314.77   23.30
   5   4  -6  308.47   25.20
   5   4  -6  335.07   26.70
  -4   5  -6  320.87   24.30
   4  -5  -6  353.46   24.30
   5   4  -6  325.97   24.30
  -5  -4  -6  326.37   24.10
   4  -5  -6  281.47   23.20
   5   4  -6  320.47   24.00
   4  -5  -6  294.47   27.40
  -5  -4   6  352.66   24.30
  -4   5   6  332.67   24.30
  -5  -4   6  325.97   24.30
  -5  -4   6  302.17   24.10
  -5  -4   6  310.27   24.50
   4  -5   6  283.67   24.00
   4  -5   6  310.87   24.10
   5   3  -6  602.24   43.90
  -5  -3  -6  606.94   43.10
   5   3  -6  584.34   43.50
  -3   5  -6  580.34   43.70
  -5  -3  -6  656.63   43.90
   3  -5  -6  616.04   43.50
   3  -5  -6  567.64   46.80
   3  -5  -6  629.64   43.70
  -3   5  -6  638.44   44.90
   5   3  -6  616.34   46.20
  -5  -3  -6  572.04   43.70
   5   3  -6  554.64   44.70
  -5  -3   6  667.53   43.90
  -3   5   6  606.54   43.70
   3  -5   6  563.74   43.50
  -5  -3   6  556.64   43.60
  -5  -3   6  601.64   44.10
   3  -5   6  530.85   43.50
  -5  -3   6  605.24   43.90
   2  -5  -6  178.38   12.50
   5   2  -6  167.78   12.70
  -5  -2  -6  171.88   12.80
  -2   5  -6  171.08   12.50
   5   2  -6  150.18   12.30
   2  -5  -6  158.58   15.10
  -2   5  -6  169.48   13.50
  -2   5  -6  169.98   13.20
   2  -5  -6  168.48   11.90
   5   2  -6  156.48   14.90
  -5  -2  -6  141.29   12.50
  -5  -2  -6  157.18   12.00
  -2   5  -6  152.28   12.40
  -5  -2   6  159.58   12.80
  -5  -2   6  164.88   12.60
  -5  -2   6  158.48   12.90
   2  -5   6  140.29   12.30
  -2   5   6  166.08   12.40
   2  -5   6  152.88   12.30
  -5  -2   6  157.08   12.60
   5   1  -6  341.87   26.20
   5   1  -6  369.56   26.40
  -5  -1  -6  367.36   26.70
  -5  -1  -6  349.96   25.70
  -1   5  -6  330.27   26.20
   1  -5  -6  377.86   29.00
  -1   5  -6  361.86   27.10
  -1   5  -6  358.76   26.80
   5   1  -6  304.47   28.30
   1  -5  -6  394.56   26.20
  -5  -1  -6  376.46   26.10
   1  -5   6  334.07   26.20
  -5  -1   6  368.26   26.50
  -5  -1   6  395.66   27.00
  -1   5   6  343.57   26.10
   1  -5   6  338.97   26.10
  -5  -1   6  373.06   26.40
  -5  -1   6  305.57   26.60
   0   5  -6    1.60    0.90
   0  -5  -6    5.00    1.20
   0  -5  -6    0.10    1.70
  -5   0  -6   -0.30    0.90
   5   0  -6    1.90    1.10
   0  -5  -6    1.80    0.80
  -5   0  -6    1.60    1.20
   0   5  -6    2.80    1.30
   0   5  -6    5.00    1.80
  -5   0  -6    4.20    1.10
   5   0  -6    2.50    1.10
   5   0  -6    0.80    2.00
  -5   0   6    3.70    1.40
   0  -5   6    3.20    1.20
  -5   0   6    2.40    1.00
  -5   0   6    3.10    1.50
   0  -5   6    1.90    0.90
   0  -5   6    0.10    0.70
  -5   0   6    0.10    0.90
   0   5   6    1.30    0.80
   1   5  -6  360.26   27.40
  -5   1  -6  376.96   27.40
   5  -1  -6  358.16   27.50
  -1  -5  -6  388.06   27.30
  -5   1  -6  352.76   27.60
   1   5  -6  373.26   27.60
   5  -1  -6  391.36   27.40
   1   5  -6  344.57   28.10
  -1  -5  -6  401.36   29.40
  -5   1  -6  373.46   28.00
  -1  -5  -6  366.26   26.90
  -1  -5  -6  387.46   27.20
  -1  -5   6  401.36   27.20
  -1  -5   6  353.56   27.40
  -1  -5   6  402.46   27.60
  -5   1   6  370.06   27.60
  -5   1   6  358.56   27.60
  -1  -5   6  336.47   27.20
  -5   1   6  352.76   28.10
   2   5  -6  161.78   12.80
  -2  -5  -6  165.08   12.10
  -5   2  -6  135.69   13.60
  -2  -5  -6  193.08   12.70
   5  -2  -6  148.99   13.70
  -2  -5  -6  175.58   12.60
   5  -2  -6  136.09   15.70
   5  -2  -6  173.98   12.70
  -5   2  -6  168.08   12.90
   5  -2  -6  159.98   13.00
  -5   2  -6  184.08   13.50
   2   5  -6  153.78   13.60
  -5   2  -6  153.88   13.30
   2   5  -6  159.38   12.90
  -2  -5  -6  185.58   14.50
  -2  -5   6  137.99   12.60
  -5   2   6  174.08   13.20
  -5   2   6  164.88   13.20
  -2  -5   6  192.08   12.60
  -2  -5   6  180.48   13.00
  -5   2   6  160.18   13.60
  -2  -5   6  159.18   12.90
  -3  -5  -6  662.43   46.70
  -5   3  -6  606.14   46.10
   3   5  -6  603.14   45.20
  -5   3  -6  632.64   45.80
   5  -3  -6  624.64   45.70
  -3  -5  -6  690.13   45.10
   3   5  -6  562.04   46.10
  -3  -5  -6  604.04   45.00
   3   5  -6  682.93   47.80
   3   5  -6  584.24   45.30
   5  -3  -6  616.14   45.50
  -5   3  -6  656.23   45.50
  -3  -5   6  649.14   45.40
   5  -3   6  571.04   45.20
  -3  -5   6  672.93   45.10
  -3  -5   6  592.84   45.10
  -3  -5   6  608.04   45.40
  -5   3   6  586.34   46.30
  -5   3   6  598.34   45.50
   4   5  -6  281.77   25.30
  -5   4  -6  340.47   25.70
   4   5  -6  323.87   26.80
   4   5  -6  318.07   24.40
  -4  -5  -6  325.87   24.30
  -5   4  -6  373.26   25.00
   5  -4  -6  321.17   24.70
   4   5  -6  327.47   24.70
  -5   4  -6  330.17   25.00
   5  -4  -6  318.47   24.40
  -4  -5  -6  383.56   25.90
  -4  -5  -6  365.86   24.40
   5  -4  -6  271.27   27.70
  -4  -5   6  342.17   24.70
  -5   4   6  278.47   25.80
   5  -4   6  336.77   24.80
  -4  -5   6  320.97   24.70
   5  -4   6  312.67   24.50
  -4  -5   6  369.56   24.50
  -5   4   6  322.17   24.80
  -4  -5   6  313.37   24.40
   5   5  -6   40.90    6.40
   5   5  -6   29.40    3.40
   5  -5  -6   27.00    3.30
   5  -5  -6   20.10    5.90
  -5   5  -6   30.10    4.80
  -5  -5  -6   27.50    2.20
   5   5  -6   31.00    3.20
  -5  -5  -6   29.50    3.20
   5  -5  -6   25.30    2.80
  -5   5  -6   26.20    3.50
   5   5  -6   26.70    4.50
  -5   5  -6   27.00    3.50
  -5  -5   6   30.10    3.40
  -5  -5   6   22.10    3.30
  -5  -5   6   25.70    3.50
  -5  -5   6   27.30    3.20
   5  -5   6   31.30    3.20
  -5   5   6   25.70    3.30
   5  -6  -6   77.19    6.40
   5  -6  -6   78.19    7.50
  -6  -5  -6   86.49    6.40
   6   5  -6   84.69    7.70
   5  -6  -6   85.29    7.40
  -6  -5  -6   87.29    7.50
   6   5  -6   78.29    8.40
   6   5  -6   87.09   10.20
  -5   6  -6   89.09    8.90
   5  -6  -6   78.79   11.20
  -5   6  -6   86.29    7.60
   5  -6   6   82.39    7.30
  -6  -5   6   82.29    7.80
   5  -6   6   84.59    7.40
  -6  -5   6   85.79    7.60
  -5   6   6   85.79    7.60
  -6  -5   6   82.59    7.50
  -6  -5   6   94.89    7.70
   4  -6  -6  858.41   58.39
   4  -6  -6  807.32   57.99
  -6  -4  -6  771.82   57.49
   6   4  -6  795.72   60.89
  -4   6  -6  901.91   60.09
  -6  -4  -6  794.42   58.39
  -4   6  -6  776.42   58.39
   4  -6  -6  734.83   61.99
   6   4  -6  733.63   59.39
   6   4  -6  826.42   58.09
   6   4  -6  769.22   58.49
  -6  -4   6  848.42   58.99
   4  -6   6  736.43   58.09
  -4   6   6  826.62   58.39
  -6  -4   6  880.51   58.69
  -6  -4   6  780.42   58.29
  -6  -4   6  794.32   58.59
   4  -6   6  763.52   58.09
   3  -6  -6  196.28   18.70
   3  -6  -6  208.38   15.30
   6   3  -6  188.28   15.10
  -3   6  -6  216.58   16.70
   6   3  -6  177.78   17.70
  -6  -3  -6  194.98   14.70
   6   3  -6  197.18   15.60
  -3   6  -6  202.28   15.40
   3  -6  -6  206.48   14.70
  -6  -3  -6  173.68   15.40
  -6  -3   6  197.98   15.40
  -6  -3   6  200.88   15.70
  -6  -3   6  201.88   16.00
   3  -6   6  180.38   15.10
   3  -6   6  187.18   15.10
  -6  -3   6  207.98   15.60
  -3   6   6  217.08   15.30
  -2   6  -6  843.22   65.69
   6   2  -6  840.92   68.29
   6   2  -6  894.61   65.69
   2  -6  -6  895.51   68.89
  -2   6  -6  945.91   66.99
   2  -6  -6  875.81   64.79
  -6  -2  -6  885.21   65.39
   2  -6  -6 1021.60   65.79
   6   2  -6  946.71   66.09
  -6  -2   6  921.61   66.59
  -2   6   6  919.31   65.69
   2  -6   6  911.61   65.69
  -6  -2   6  906.41   65.89
  -6  -2   6  984.50   66.19
   2  -6   6  850.61   65.69
  -6  -2   6  870.21   66.39
  -6  -1  -6 1068.29   81.49
  -1   6  -6 1191.08   82.89
   6   1  -6 1193.28   82.39
  -1   6  -6 1090.79   82.09
   1  -6  -6 1155.08   84.89
   1  -6  -6 1269.57   81.99
   6   1  -6  970.00   84.29
   6   1  -6 1159.88   82.19
  -1   6  -6 1153.48   83.19
  -6  -1  -6 1233.68   81.99
   1  -6   6 1119.19   81.89
  -6  -1   6  967.70   82.69
  -1   6   6 1162.98   81.89
  -6  -1   6 1191.08   82.49
   1  -6   6 1173.28   82.09
   1  -6   6 1035.80   82.29
  -6  -1   6 1160.98   82.29
  -6  -1   6 1166.18   82.99
   0   6  -6  271.87   20.60
  -6   0  -6  258.77   20.50
  -6   0  -6  240.98   21.30
  -6   0  -6  277.17   20.70
   0  -6  -6  287.57   20.50
   6   0  -6  275.67   20.80
   0   6  -6  268.17   21.50
   0   6  -6  294.67   21.30
   6   0  -6  297.77   20.90
   0  -6  -6  305.67   23.30
   0   6   6  283.27   20.50
  -6   0   6  276.07   21.60
   0  -6   6  264.47   20.90
   0  -6   6  265.27   20.60
  -6   0   6  269.67   21.00
   0  -6   6  270.67   20.50
   0  -6   6  302.87   20.50
  -6   0   6  225.38   21.40
  -6   0   6  298.87   21.10
  -1  -6  -6 1243.08   86.19
  -6   1  -6 1268.07   86.39
  -6   1  -6 1142.29   86.39
  -1  -6  -6 1180.48   85.69
   1   6  -6 1111.79   86.09
  -1  -6  -6 1281.27   85.89
  -1  -6  -6 1314.17   88.49
   6  -1  -6 1251.17   86.29
   1   6  -6 1206.18   86.49
   1   6  -6 1098.29   86.89
   6  -1  -6 1167.18   86.39
  -6   1   6 1254.57   86.69
  -1  -6   6 1141.89   86.19
  -6   1   6 1182.38   86.49
  -6   1   6 1088.79   87.09
  -1  -6   6 1137.19   85.99
   1   6   6 1152.48   85.89
  -1  -6   6 1293.07   86.59
   2   6  -6  922.71   69.29
   2   6  -6  861.51   70.09
  -2  -6  -6  938.81   68.49
   6  -2  -6  996.70   69.29
  -2  -6  -6 1061.39   71.29
  -2  -6  -6  981.90   69.19
  -2  -6  -6 1041.50   68.99
   2   6  -6  932.41   69.49
  -6   2  -6 1000.30   69.59
  -6   2  -6  924.31   69.89
   6  -2  -6  941.01   69.59
  -2  -6   6  895.21   69.09
  -6   2   6  977.70   69.79
  -6   2   6  904.01   70.49
  -2  -6   6 1040.00   69.59
  -2  -6   6  914.81   69.29
  -6   2   6  947.61   69.69
   6  -3  -6  166.68   15.80
  -6   3  -6  214.38   16.30
   6  -3  -6  196.68   15.60
  -3  -6  -6  212.78   15.10
  -6   3  -6  216.18   15.70
   6  -3  -6  169.88   18.70
  -6   3  -6  185.48   16.80
   3   6  -6  215.28   15.50
   3   6  -6  181.88   16.10
  -3  -6  -6  224.68   16.90
   3   6  -6  189.98   15.30
  -6   3   6  204.18   15.80
  -3  -6   6  190.88   15.80
   6  -3   6  195.08   15.90
  -3  -6   6  195.98   15.40
  -3  -6   6  218.38   15.50
  -3  -6   6  192.98   15.10
  -6   3   6  177.68   16.40
   4   6  -6  751.12   59.39
  -6   4  -6  790.72   59.59
   4   6  -6  795.22   58.69
  -4  -6  -6  917.01   59.79
  -6   4  -6  785.12   58.99
   6  -4  -6  756.52   58.59
  -4  -6  -6  844.62   58.29
   6  -4  -6  701.23   62.29
  -6   4  -6  896.91   58.99
   4   6  -6  855.81   61.09
   4   6  -6  784.02   58.49
   6  -4  -6  805.52   58.79
  -4  -6   6  835.02   58.59
  -4  -6   6  776.22   59.09
   6  -4   6  747.23   58.39
  -6   4   6  832.12   58.99
  -4  -6   6  765.62   58.19
  -4  -6   6  803.12   58.69
  -6   5  -6   91.99    8.90
  -6   5  -6   88.69    8.00
   5   6  -6   91.19    7.80
   5   6  -6   78.39    8.30
   6  -5  -6   80.29   12.90
   5   6  -6   97.49   10.60
   6  -5  -6   79.99    7.20
   6  -5  -6   90.09    7.90
  -5  -6  -6   90.09    7.50
  -6   5  -6   98.09    8.10
  -5  -6   6   83.09    8.10
  -6   5   6   82.89    7.90
  -6   5   6   87.49    9.40
   6  -5   6   91.39    7.70
  -5  -6   6   83.59    7.80
  -5  -6   6   84.29    7.50
   6  -5   6   77.19    7.40
  -5  -6   6   85.49    7.60
   6   6  -6   11.10    3.10
   6  -6  -6   11.50    2.50
   6  -6  -6   13.20    2.50
   6  -6  -6   12.30    5.30
  -6   6  -6   13.20    3.40
  -6  -6  -6   10.90    2.20
   6   6  -6    8.30    2.20
   6  -6  -6    9.80    1.70
  -6   6  -6   14.00    2.70
  -6  -6   6   12.00    3.10
   6  -6   6    9.00    2.10
   6  -6   6    9.30    2.30
  -6  -6   6   14.60    2.60
  -6  -6   6   19.50    3.30
  -6  -6   6   12.10    2.40
  -7  -6  -6  349.17   24.80
   6  -7  -6  301.67   30.40
   6  -7  -6  347.47   25.80
   6  -7  -6  330.27   26.00
   6  -7  -6  309.87   24.70
  -6   7  -6  328.87   26.20
   7   6  -6  332.17   26.20
   7   6  -6  343.17   27.30
  -6   7  -6  352.06   27.80
  -7  -6  -6  343.87   26.10
  -7  -6   6  361.56   26.40
  -6   7   6  364.36   26.60
  -7  -6   6  330.67   25.80
  -7  -6   6  347.17   26.60
   6  -7   6  347.37   25.90
   6  -7   6  360.76   25.90
  -5   7  -6  254.47   19.90
   7   5  -6  218.08   19.10
   5  -7  -6  228.38   22.40
   7   5  -6  227.68   22.20
   5  -7  -6  235.68   18.00
   7   5  -6  223.48   18.20
  -7  -5  -6  219.78   16.90
   5  -7  -6  227.68   17.50
  -5   7  -6  230.28   18.10
  -7  -5  -6  222.98   18.00
  -7  -5   6  242.58   18.40
   5  -7   6  222.58   17.80
  -7  -5   6  227.18   18.50
   5  -7   6  215.08   17.70
  -7  -5   6  247.38   18.50
  -7  -5   6  235.98   17.90
  -5   7   6  231.28   18.10
   7   4  -6  511.35   40.40
  -7  -4  -6  470.85   37.60
   7   4  -6  498.65   37.80
   7   4  -6  515.65   37.30
   4  -7  -6  558.64   37.50
  -4   7  -6  508.25   37.50
   4  -7  -6  520.25   36.90
  -4   7  -6  581.44   39.50
  -7  -4  -6  477.15   36.70
   4  -7  -6  413.76   40.70
  -7  -4   6  548.05   38.10
  -4   7   6  521.05   37.60
  -7  -4   6  510.45   38.30
   4  -7   6  494.65   37.20
  -7  -4   6  484.05   37.50
   4  -7   6  459.75   37.20
  -7  -4   6  516.85   38.00
  -3   7  -6   19.70    2.70
  -7  -3  -6   17.10    2.20
   3  -7  -6   23.60    6.10
   7   3  -6   15.70    2.60
  -3   7  -6   22.30    4.20
  -7  -3  -6   13.80    2.90
   7   3  -6   23.90    3.60
   3  -7  -6   17.10    1.80
   7   3  -6   21.10    5.30
   3  -7  -6   20.30    2.70
  -7  -3   6   17.80    3.10
   3  -7   6   22.90    2.70
   3  -7   6   27.80    3.20
  -3   7   6   21.90    2.70
  -7  -3   6   23.10    3.90
  -7  -3   6   18.70    3.40
  -7  -3   6   21.70    3.20
   7   2  -6  946.41   70.29
  -2   7  -6  919.21   70.29
  -2   7  -6 1002.00   71.79
   2  -7  -6 1060.59   70.19
   2  -7  -6  997.30   73.79
   7   2  -6  861.81   72.89
   7   2  -6  995.10   70.79
  -7  -2  -6  922.01   70.09
   2  -7   6  941.11   70.19
  -2   7   6 1016.70   70.29
  -7  -2   6  977.10   70.59
  -7  -2   6 1013.10   71.49
   2  -7   6 1007.90   70.39
  -7  -2   6  974.60   70.89
  -7  -2   6  913.81   71.19
   1  -7  -6   42.10    3.60
   7   1  -6   34.10    3.80
  -7  -1  -6   29.20    2.90
  -1   7  -6   35.30    4.60
  -7  -1  -6   36.00    4.40
   7   1  -6   35.30    4.00
  -1   7  -6   34.10    3.60
   7   1  -6   33.70    6.60
   1  -7  -6   41.60    7.10
  -7  -1  -6   33.20    3.50
  -1   7   6   32.80    3.40
   1  -7   6   36.40    3.70
   1  -7   6   32.30    3.70
  -7  -1   6   45.80    5.00
   1  -7   6   28.20    3.80
  -7  -1   6   36.80    4.20
  -7  -1   6   31.40    4.40
  -7  -1   6   38.10    4.40
   0   7  -6    2.40    1.70
  -7   0  -6    1.60    0.90
   0  -7  -6    0.70    2.00
   7   0  -6    2.60    1.40
   0   7  -6    1.40    1.40
   7   0  -6    2.60    1.40
   7   0  -6   -0.70    2.20
  -7   0  -6    0.30    1.20
   0   7  -6    1.40    1.00
   0  -7  -6    1.90    1.00
  -7   0   6    1.10    1.60
  -7   0   6    0.50    1.40
  -7   0   6    4.10    1.80
   0  -7   6    1.90    1.10
   0  -7   6    0.50    1.00
   0   7   6    2.10    0.90
   7  -1  -6   32.60    4.10
  -7   1  -6   34.20    3.90
  -1  -7  -6   39.40    3.50
  -7   1  -6   29.10    4.60
  -7   1  -6   39.90    4.00
   1   7  -6   36.00    4.20
   1   7  -6   33.00    4.40
   7  -1  -6   31.40    3.90
   7  -1  -6   27.40    7.10
  -1  -7  -6   31.90    5.70
   7  -1  -6   30.10    5.90
  -1  -7  -6   37.10    3.30
  -1  -7  -6   45.90    4.00
   1   7   6   34.50    3.50
  -1  -7   6   34.70    3.80
  -7   1   6   39.80    4.40
  -1  -7   6   46.60    4.40
  -7   1   6   31.50    5.20
  -7   1   6   37.50    4.60
  -7   1   6   30.00    4.80
  -1  -7   6   34.10    3.80
   7  -2  -6 1049.79   70.59
  -7   2  -6  982.00   70.99
  -2  -7  -6 1097.59   72.69
  -2  -7  -6 1033.90   70.39
   2   7  -6  954.00   70.39
   7  -2  -6  787.52   73.59
   2   7  -6  910.61   70.59
   7  -2  -6  940.41   70.69
  -7   2  -6 1010.80   70.79
  -2  -7  -6  986.80   69.49
   2   7  -6  920.91   71.29
  -7   2   6  857.11   71.59
  -2  -7   6 1001.90   70.49
  -7   2   6  965.00   71.09
  -7   2   6  950.60   70.89
   2   7   6  969.60   70.09
  -2  -7   6  966.30   70.19
  -2  -7   6 1046.40   70.79
  -3  -7  -6   19.40    2.60
   7  -3  -6   44.00    8.70
  -7   3  -6   22.70    3.40
  -7   3  -6   19.30    4.20
   3   7  -6   27.20    4.30
   7  -3  -6   17.40    3.20
  -7   3  -6   21.70    3.80
   7  -3  -6   18.80    3.80
  -3  -7  -6   25.80    4.80
  -7   3   6   10.70    3.50
  -3  -7   6   21.80    2.90
  -7   3   6   20.80    3.60
  -3  -7   6   20.70    3.00
  -3  -7   6   24.60    3.00
  -7   3   6   19.10    4.20
  -3  -7   6   25.10    3.80
  -4  -7  -6  571.14   38.50
  -7   4  -6  529.05   39.30
   4   7  -6  481.55   37.90
   7  -4  -6  451.25   37.20
   7  -4  -6  483.45   41.70
  -7   4  -6  482.65   38.00
  -4  -7  -6  518.15   36.90
  -7   4  -6  558.14   37.60
   4   7  -6  510.05   37.00
   7  -4  -6  495.25   37.30
  -4  -7   6  474.85   37.50
  -4  -7   6  501.05   37.10
  -7   4   6  499.85   37.70
   7  -4   6  483.05   37.00
  -7   4   6  440.86   38.60
  -4  -7   6  499.75   37.10
  -4  -7   6  501.95   36.70
   7  -5  -6  231.58   22.60
   5   7  -6  205.08   18.50
  -5  -7  -6  249.88   17.70
   7  -5  -6  227.38   18.00
  -7   5  -6  222.78   18.90
   5   7  -6  231.28   17.70
   7  -5  -6  219.18   17.50
  -5  -7   6  216.68   18.20
  -5  -7   6  227.48   17.40
  -5  -7   6  239.18   17.80
   7  -5   6  210.58   17.60
  -5  -7   6  233.08   17.90
  -7   5   6  195.18   19.50
  -7   5   6  250.67   18.50
   7  -6  -6  338.67   30.90
   6   7  -6  324.17   25.70
  -6  -7  -6  356.56   25.70
   7  -6  -6  308.07   25.00
  -7   6  -6  345.87   27.30
   7  -6  -6  295.27   25.90
   7  -6  -6  326.87   25.90
   7  -6   6  335.87   25.70
   7  -6   6  366.66   25.80
  -7   6   6  335.37   28.10
  -6  -7   6  344.07   26.50
  -6  -7   6  350.56   25.90
  -7   6   6  355.06   26.50
  -6  -7   6  347.47   26.00
  -6  -7   6  333.17   25.40
   7  -7  -6    1.70    3.90
   7  -7  -6    2.50    1.10
  -7   7  -6    1.00    2.00
   7   7  -6    2.70    1.80
   7  -7  -6    0.80    1.30
  -7  -7  -6    3.80    1.70
   7  -7  -6    6.20    2.30
  -7  -7   6    3.60    1.80
   7  -7   6    2.10    1.80
  -7  -7   6    3.70    1.90
   7  -7   6   11.20    2.40
  -7  -7   6    1.20    1.60
  -7   7   6    8.00    2.70
  -7  -7   6    0.80    1.90
  -7   8  -6   25.70    5.40
  -8  -7  -6   30.30    2.50
   8   7  -6   23.10    4.00
   7  -8  -6   21.80    3.40
  -8  -7  -6   23.50    3.70
  -8  -7  -6   20.40    2.20
  -7   8  -6   25.60    4.20
   7  -8  -6   24.70    4.10
   7  -8  -6   21.50    2.20
   7  -8  -6   27.60    8.30
  -8  -7   6   23.70    3.90
  -7   8   6   25.80    4.50
  -8  -7   6   22.50    4.30
  -8  -7   6   23.80    3.80
   7  -8   6   25.00    3.80
   7  -8   6   28.30    4.10
   6  -8  -6 1130.59   80.39
  -8  -6  -6 1029.00   79.69
  -6   8  -6 1076.89   81.09
  -6   8  -6 1160.38   83.09
   8   6  -6 1041.70   81.19
   6  -8  -6 1113.99   80.89
  -8  -6  -6 1083.19   81.09
   6  -8  -6  976.30   85.79
  -6   8   6 1145.49   81.49
  -8  -6   6 1116.19   81.69
   6  -8   6 1241.58   80.79
  -8  -6   6 1110.99   81.39
   6  -8   6 1175.28   80.89
  -8  -6   6 1116.89   80.79
  -8  -5  -6   22.60    3.60
  -5   8  -6   32.10    5.60
  -5   8  -6   30.90    3.70
  -8  -5  -6   24.70    2.70
   8   5  -6   28.40    4.10
   5  -8  -6   27.50    3.60
   5  -8  -6   34.50    8.60
   5  -8  -6   29.10    3.00
  -8  -5   6   26.50    4.50
  -8  -5   6   23.30    3.80
  -5   8   6   38.10    4.10
  -8  -5   6   27.50    4.00
   5  -8   6   25.70    3.50
   5  -8   6   25.60    3.70
  -8  -5   6   26.60    4.70
   8   4  -6   50.59    8.80
   4  -8  -6   41.40    8.70
   8   4  -6   47.20    5.60
   4  -8  -6   49.80    5.00
  -8  -4  -6   45.40    4.30
  -4   8  -6   48.90    5.00
  -4   8  -6   52.89    6.80
   4  -8  -6   48.70    4.10
  -8  -4  -6   39.80    5.10
  -4   8   6   50.49    5.10
  -8  -4   6   46.90    5.60
  -8  -4   6   50.39    5.60
  -8  -4   6   49.90    5.70
   4  -8   6   57.79    5.10
   4  -8   6   47.90    5.10
  -8  -4   6   52.39    6.00
   3  -8  -6  172.38   12.90
  -3   8  -6  160.08   13.00
   8   3  -6  139.89   15.80
   8   3  -6  172.98   13.70
   3  -8  -6  144.29   16.20
  -8  -3  -6  132.19   13.30
  -3   8  -6  180.48   14.90
  -8  -3  -6  146.89   12.50
   8   3  -6  167.88   13.00
   3  -8   6  167.28   13.00
  -8  -3   6  165.98   13.80
  -8  -3   6  158.88   14.10
  -8  -3   6  169.38   13.50
   3  -8   6  158.58   12.90
  -3   8   6  184.08   13.10
  -8  -3   6  168.08   14.10
   8   2  -6   11.70    2.50
  -8  -2  -6   16.00    3.30
   8   2  -6   22.60    3.60
  -2   8  -6   18.40    3.90
   8   2  -6   11.50    4.40
   2  -8  -6   17.90    2.50
  -2   8  -6   10.90    2.30
   2  -8  -6   12.60    4.70
  -8  -2  -6   13.70    2.30
   2  -8   6   12.10    2.40
  -8  -2   6   14.30    3.40
  -8  -2   6   24.20    3.60
   2  -8   6   17.60    2.80
  -8  -2   6   15.40    3.50
  -8  -2   6   15.40    3.20
  -8  -1  -6   39.20    4.30
   1  -8  -6   52.09    4.30
   1  -8  -6   46.30    8.20
   8   1  -6   50.69    8.40
  -8  -1  -6   50.49    5.60
  -1   8  -6   53.39    4.70
   8   1  -6   45.70    5.10
   8   1  -6   43.50    4.80
  -8  -1  -6   41.20    3.80
  -1   8  -6   51.09    5.90
  -8  -1   6   47.00    5.30
   1  -8   6   36.40    4.80
   1  -8   6   46.30    4.70
  -8  -1   6   50.79    5.50
   1  -8   6   41.60    4.40
  -8  -1   6   37.20    5.40
  -8  -1   6   44.70    5.70
   8   0  -6 1076.89   91.79
   0  -8  -6 1283.57   92.19
  -8   0  -6 1219.28   89.09
   0   8  -6 1226.88   90.59
  -8   0  -6 1216.48   90.69
   0   8  -6 1257.47   89.39
  -8   0  -6 1184.58   89.39
   8   0  -6 1314.47   89.99
   8   0  -6 1288.97   89.79
  -8   0   6 1061.49   90.69
   0  -8   6 1326.57   90.19
  -8   0   6 1286.87   90.29
  -8   0   6 1195.88   90.89
  -8   0   6 1271.87   89.99
   0  -8   6 1249.57   89.19
   0  -8   6 1300.37   89.49
   8  -1  -6   48.20    5.00
  -1  -8  -6   49.70    4.70
  -1  -8  -6   49.20    7.50
   8  -1  -6   49.20    5.10
  -8   1  -6   39.30    4.50
  -8   1  -6   31.90    5.30
  -1  -8  -6   41.00    4.00
   8  -1  -6   34.40    6.90
  -8   1  -6   44.40    4.70
   1   8  -6   47.10    4.50
   8  -1  -6   34.00    8.00
   1   8  -6   44.50    5.40
  -8   1   6   48.60    5.60
  -1  -8   6   43.10    4.50
  -8   1   6   44.10    5.90
  -1  -8   6   50.79    4.60
  -8   1   6   39.40    5.80
  -8   1   6   43.70    5.20
  -1  -8   6   47.50    5.00
  -2  -8  -6   22.60    2.70
  -2  -8  -6   13.00    4.00
  -2  -8  -6   14.30    1.50
  -2  -8  -6   14.00    1.50
  -8   2  -6   16.90    2.80
  -8   2  -6   12.50    2.80
  -8   2  -6    7.50    2.90
   8  -2  -6   15.50    5.60
   8  -2  -6   11.00    2.60
   8  -2  -6   18.60    3.10
   8  -2  -6   30.90    5.40
   2   8  -6   14.70    3.30
   2   8  -6   14.70    2.50
  -2  -8   6   11.90    2.40
  -8   2   6    8.60    3.10
  -8   2   6   20.80    3.60
  -2  -8   6   14.50    2.40
  -8   2   6   16.70    3.40
  -8   2   6    7.60    3.00
  -8   3  -6  126.79   14.30
   3   8  -6  149.59   13.70
  -8   3  -6  188.88   13.60
   3   8  -6  163.58   12.90
  -3  -8  -6  174.28   13.00
   8  -3  -6  161.08   13.40
  -8   3  -6  163.58   13.70
  -3  -8  -6  203.68   15.20
   8  -3  -6  156.28   16.90
   8  -3  -6  139.29   14.00
  -3  -8   6  172.28   13.30
  -8   3   6  155.48   14.70
  -8   3   6  170.08   14.00
  -8   3   6  127.99   14.40
  -8   3   6  159.58   13.80
  -3  -8   6  169.88   12.80
  -3  -8   6  160.88   13.00
  -3  -8   6  154.28   13.40
   8  -4  -6   53.49    5.60
  -8   4  -6   45.90    6.80
  -8   4  -6   56.69    5.70
   4   8  -6   43.30    5.00
   8  -4  -6   58.49   11.00
  -4  -8  -6   52.99    5.00
  -8   4  -6   49.60    5.90
  -4  -8  -6   62.69    6.90
   8  -4  -6   44.80    5.80
   4   8  -6   49.20    6.00
  -8   4   6   44.70    7.50
  -4  -8   6   54.19    5.30
  -4  -8   6   48.80    5.60
  -4  -8   6   46.00    4.90
  -8   4   6   37.30    7.10
  -4  -8   6   52.89    5.20
  -8   4   6   47.20    5.80
   8  -5  -6   22.40    7.00
   8  -5  -6   27.10    4.40
  -8   5  -6   27.70    5.70
   5   8  -6   30.20    3.70
  -8   5  -6   24.80    4.70
  -5  -8  -6   36.30    3.80
   8  -5  -6   27.30    4.00
  -8   5   6   33.40    4.60
  -5  -8   6   32.80    4.00
   8  -5   6   27.00    3.60
  -8   5   6   20.90    5.20
  -5  -8   6   28.80    3.80
  -5  -8   6   28.10    4.40
  -5  -8   6   27.50    3.70
   6   8  -6 1080.79   79.09
   8  -6  -6  972.70   78.49
  -6  -8  -6 1208.08   79.29
  -8   6  -6 1088.49   80.49
   8  -6  -6 1115.79   85.09
   8  -6  -6 1037.40   79.49
   8  -6  -6  957.20   79.49
  -6  -8   6 1102.59   79.29
  -6  -8   6 1123.89   78.69
  -6  -8   6 1130.59   79.89
  -8   6   6 1079.79   80.09
   8  -6   6 1222.08   79.39
  -8   6   6 1000.40   81.69
  -6  -8   6 1070.29   79.29
   8  -7  -6   22.20    3.10
  -8   7  -6   22.20    5.00
   8  -7  -6   19.00    7.00
   7   8  -6   25.60    3.80
   8  -7  -6   21.90    3.90
   8  -7  -6   20.80    4.10
  -7  -8  -6   26.30    3.70
  -7  -8   6   26.50    4.70
  -7  -8   6   23.90    4.10
   8  -7   6   28.40    4.10
  -8   7   6   22.90    5.70
  -8   7   6   22.20    4.50
   8  -7   6   28.70    4.20
  -7  -8   6   34.90    4.10
  -7  -8   6   28.00    3.90
   8  -8  -6  248.48   25.00
   8  -8  -6  231.18   17.70
  -8  -8  -6  239.88   19.20
   8  -8  -6  237.78   18.90
  -8   8  -6  236.18   20.80
   8  -8  -6  218.18   19.20
   8   8  -6  235.48   19.30
   8  -8   6  257.87   19.10
  -8  -8   6  226.88   20.00
   8  -8   6  279.97   19.20
  -8  -8   6  219.38   19.40
  -8   8   6  218.48   19.80
  -8   8   6  242.08   22.00
  -8  -8   6  243.58   19.50
  -8  -8   6  236.58   18.70
  -8   9  -6    9.00    3.80
  -9  -8  -6    5.50    2.90
  -9  -8  -6    8.50    1.10
   9   8  -6    7.40    2.90
   8  -9  -6   10.80    2.40
   8  -9  -6   11.40    6.40
   8  -9  -6    7.40    2.80
   8  -9   6    8.50    2.60
  -9  -8   6    7.50    2.80
  -9  -8   6    6.00    2.80
   8  -9   6   10.10    2.90
  -8   9   6    6.70    3.00
   8  -9   6   10.10    4.90
  -9  -8   6    6.70    2.40
  -7   9  -6    3.40    3.00
   7  -9  -6    5.30    2.30
  -7   9  -6    4.80    2.30
   7  -9  -6    3.00    4.80
  -9  -7  -6    5.60    1.10
  -9  -7  -6    2.30    1.80
   9   7  -6    4.00    2.20
   7  -9  -6    7.70    1.80
  -9  -7   6    4.00    2.30
  -9  -7   6    3.20    2.30
   7  -9   6    4.40    2.20
   7  -9   6    3.90    2.00
  -7   9   6    2.50    2.20
  -9  -7   6    3.00    2.10
  -6   9  -6  666.93   48.00
   6  -9  -6  587.14   45.30
   9   6  -6  584.24   45.90
  -6   9  -6  631.04   45.60
   6  -9  -6  516.75   49.99
  -9  -6  -6  585.64   44.10
   6  -9  -6  621.54   44.50
  -9  -6  -6  542.05   45.40
  -9  -6   6  606.64   46.40
   6  -9   6  654.13   45.40
  -9  -6   6  636.94   45.40
   6  -9   6  625.74   45.10
  -9  -6   6  647.64   46.30
   5  -9  -6  289.57   21.50
   9   5  -6  286.97   23.20
  -9  -5  -6  254.37   22.70
  -9  -5  -6  283.57   21.50
  -5   9  -6  302.37   22.70
   5  -9  -6  292.47   22.40
   5  -9  -6  227.18   26.10
  -5   9  -6  319.07   25.10
   5  -9   6  309.67   22.40
  -9  -5   6  305.77   23.50
  -9  -5   6  279.37   23.60
  -9  -5   6  292.67   22.70
  -9  -5   6  298.67   23.70
   5  -9   6  308.27   22.50
   4  -9  -6 1016.60   70.59
   4  -9  -6  899.51   69.59
  -9  -4  -6  922.41   69.99
   4  -9  -6  861.61   74.89
   9   4  -6 1003.20   71.69
  -4   9  -6 1004.10   70.89
  -9  -4  -6  831.22   70.99
  -4   9  -6 1082.69   73.39
   4  -9   6  987.60   70.69
  -9  -4   6 1007.60   71.09
   4  -9   6  893.01   70.39
  -9  -4   6 1021.30   71.99
  -9  -4   6 1027.80   72.29
  -9  -4   6 1037.30   72.09
  -9  -3  -6  231.98   18.00
   9   3  -6  226.98   18.50
   9   3  -6  243.18   19.40
  -3   9  -6  244.68   18.60
   3  -9  -6  264.37   18.40
  -9  -3  -6  214.28   19.10
  -3   9  -6  280.17   21.00
   3  -9  -6  214.88   22.10
  -9  -3   6  237.78   20.00
  -9  -3   6  213.88   19.50
  -9  -3   6  239.68   19.10
   3  -9   6  245.08   18.50
  -9  -3   6  242.28   19.60
   3  -9   6  233.88   18.40
   9   2  -6  257.87   19.50
  -2   9  -6  263.17   21.10
  -9  -2  -6  232.08   18.80
   9   2  -6  234.48   22.20
   9   2  -6  255.87   20.10
   2  -9  -6  271.07   19.00
   2  -9  -6  231.08   22.50
  -9  -2  -6  219.68   19.90
  -2   9  -6  262.17   19.20
  -9  -2   6  267.27   20.40
  -9  -2   6  252.87   19.90
   2  -9   6  251.77   19.00
   2  -9   6  242.88   19.20
  -9  -2   6  251.67   20.80
  -9  -2   6  220.58   20.40
   9   1  -6  242.78   18.70
   1  -9  -6  240.88   21.10
  -9  -1  -6  213.88   18.90
  -9  -1  -6  228.68   16.90
   9   1  -6  217.08   20.90
  -1   9  -6  240.28   19.40
   9   1  -6  243.68   18.30
  -9  -1  -6  221.58   17.60
  -1   9  -6  236.18   17.80
   1  -9   6  236.08   17.80
  -9  -1   6  243.98   18.70
  -9  -1   6  199.08   19.10
  -9  -1   6  217.88   18.80
   1  -9   6  225.48   17.60
  -9  -1   6  232.58   19.60
   0  -9  -6    2.40    2.80
   9   0  -6    3.30    1.90
  -9   0  -6    0.90    1.80
  -9   0  -6    3.40    1.40
  -9   0  -6   -0.40    0.80
   0   9  -6    0.90    1.80
   0   9  -6    2.70    1.40
   9   0  -6    1.00    3.00
   9   0  -6    1.20    1.40
  -9   0   6    0.30    1.40
  -9   0   6    0.90    1.90
  -9   0   6    0.10    1.90
   0  -9   6   -0.60    1.30
  -9   0   6    9.10    3.00
   0  -9   6    6.50    1.80
   0  -9   6   -0.40    1.10
  -1  -9  -6  236.58   18.00
   9  -1  -6  235.08   18.40
  -9   1  -6  214.98   19.30
   9  -1  -6  222.58   18.20
   1   9  -6  207.68   18.70
  -9   1  -6  234.38   17.80
  -1  -9  -6  252.07   20.50
   1   9  -6  247.38   17.70
   9  -1  -6  209.38   20.20
  -9   1  -6  222.48   17.80
  -1  -9   6  220.48   17.60
  -9   1   6  227.28   18.80
  -9   1   6  228.58   18.70
  -9   1   6  223.48   19.70
  -1  -9   6  243.28   17.50
  -1  -9   6  223.08   18.30
  -9   1   6  203.18   19.30
  -9   2  -6  272.77   20.00
   2   9  -6  261.67   20.90
  -2  -9  -6  262.17   21.80
   2   9  -6  255.47   19.60
   9  -2  -6  229.48   20.10
  -2  -9  -6  274.57   19.90
  -2  -9  -6  244.88   18.70
  -9   2  -6  277.47   20.20
   9  -2  -6  268.67   20.30
   9  -2  -6  214.68   21.30
  -9   2  -6  223.78   21.40
  -2  -9  -6  266.67   18.50
   9  -2  -6  195.78   22.50
  -9   2   6  231.48   21.50
  -9   2   6  272.67   20.90
  -2  -9   6  258.57   19.70
  -2  -9   6  261.07   19.40
  -9   2   6  243.28   21.80
  -9   2   6  250.17   20.80
  -2  -9   6  273.67   20.30
  -9   3  -6  181.78   19.60
  -3  -9  -6  258.27   18.20
   9  -3  -6  212.28   18.50
   9  -3  -6  183.08   19.00
  -9   3  -6  257.07   18.80
  -9   3  -6  250.87   18.40
   9  -3  -6  217.18   22.10
   3   9  -6  237.88   17.90
  -9   3   6  201.18   20.00
  -9   3   6  232.58   19.20
  -3  -9   6  244.28   17.70
  -3  -9   6  248.48   18.40
  -9   3   6  202.48   19.80
  -9   3   6  227.28   19.10
  -3  -9   6  238.28   18.60
  -3  -9   6  237.68   18.00
  -9   4  -6 1094.39   71.89
  -9   4  -6 1120.19   72.49
   4   9  -6  929.31   71.09
  -4  -9  -6 1036.40   71.39
   9  -4  -6  968.40   76.39
  -9   4  -6  814.62   73.29
   9  -4  -6  857.11   71.89
   9  -4  -6  929.21   71.79
  -9   4   6  959.40   72.49
  -4  -9   6 1027.00   71.39
  -4  -9   6 1025.90   71.59
  -4  -9   6 1050.89   70.89
  -9   4   6  850.21   73.29
  -4  -9   6  978.30   71.89
  -9   5  -6  285.67   25.00
  -5  -9  -6  328.67   22.60
   9  -5  -6  273.37   23.00
   9  -5  -6  273.57   27.60
   9  -5  -6  253.47   22.50
   5   9  -6  279.07   22.30
  -9   5  -6  317.07   23.70
  -5  -9   6  289.67   23.10
  -5  -9   6  283.17   22.60
  -5  -9   6  306.37   22.60
  -5  -9   6  297.17   22.00
  -9   5   6  249.97   26.30
  -9   5   6  295.47   23.70
   9  -6  -6  642.74   51.39
  -6  -9  -6  686.43   45.40
  -9   6  -6  669.33   46.70
   9  -6  -6  538.25   45.50
  -9   6  -6  588.64   47.70
   9  -6  -6  542.05   44.70
   6   9  -6  600.94   45.10
   9  -6  -6  527.25   45.70
  -9   6   6  589.64   46.40
  -6  -9   6  632.74   45.40
  -6  -9   6  594.24   45.30
  -6  -9   6  633.44   44.60
   9  -6   6  631.64   45.30
  -6  -9   6  626.64   46.00
   9  -7  -6    3.70    2.20
  -9   7  -6    3.20    2.60
   9  -7  -6    6.10    2.60
  -9   7  -6    2.60    2.90
   9  -7  -6    2.40    1.60
  -7  -9  -6    3.20    2.00
   9  -7  -6    1.40    4.20
   7   9  -6    4.00    2.10
  -7  -9   6    8.10    2.20
  -7  -9   6    7.50    2.90
  -7  -9   6    5.00    2.20
  -9   7   6    4.70    2.80
  -9   7   6    3.30    3.20
   9  -7   6    5.20    2.50
  -7  -9   6    4.40    2.00
   9  -7   6    4.80    2.00
   9  -8  -6    9.30    6.10
   9  -8  -6   12.40    3.50
   8   9  -6    7.60    2.70
   9  -8  -6   10.10    2.70
   9  -8  -6    7.60    1.80
  -9   8  -6    5.50    3.00
  -8  -9   6   11.30    3.60
  -8  -9   6    6.20    2.60
  -9   8   6    5.60    3.60
  -8  -9   6    7.50    2.60
  -8  -9   6    8.70    2.40
   9  -8   6   10.40    2.80
  -9   8   6    4.60    2.80
   9  -8   6    7.80    2.70
   9  -9  -6    5.30    2.60
  -9   9  -6    3.60    3.00
   9   9  -6    0.70    2.10
   9  -9  -6    2.20    1.10
   9  -9  -6    2.00    1.60
   9  -9  -6    3.40    5.50
   9  -9   6    7.20    2.70
  -9  -9   6    5.60    2.60
  -9  -9   6    5.20    2.90
  -9  -9   6    3.20    1.80
  -9  -9   6    4.30    2.60
   9  -9   6   17.30    3.40
  -9   9   6    0.40    2.30
  -9   9   6    5.10    3.70
   9 -10  -6  267.07   20.30
  10   9  -6  244.68   21.50
  -9  10  -6  285.07   23.40
   9 -10  -6  224.88   26.40
   9 -10  -6  222.88   20.90
   9 -10   6  279.37   20.80
 -10  -9   6  251.37   21.70
   9 -10   6  290.77   21.10
 -10  -9   6  272.77   21.80
  -9  10   6  233.88   23.80
   8 -10  -6  385.56   33.10
  10   8  -6  423.86   34.00
  -8  10  -6  460.55   35.90
   8 -10  -6  440.96   32.40
   8 -10  -6  406.66   39.40
 -10  -8  -6  402.86   31.40
 -10  -8   6  423.46   34.20
 -10  -8   6  446.56   34.20
   8 -10   6  457.05   37.80
 -10  -8   6  431.06   32.70
   8 -10   6  456.85   33.30
   8 -10   6  485.95   33.10
   7 -10  -6  280.97   24.10
  -7  10  -6  305.07   24.40
   7 -10  -6  266.87   29.70
   7 -10  -6  321.37   23.30
  10   7  -6  302.17   25.10
 -10  -7  -6  313.47   22.80
  -7  10  -6  313.97   26.80
 -10  -7  -6  260.67   24.30
 -10  -7   6  328.87   24.30
   7 -10   6  349.37   24.10
 -10  -7   6  314.97   25.20
   7 -10   6  345.67   24.40
 -10  -7   6  303.27   25.30
  10   6  -6   71.99    8.20
   6 -10  -6   65.09   12.70
   6 -10  -6   73.69    7.40
 -10  -6  -6   73.89    6.30
 -10  -6  -6   66.49    7.60
  -6  10  -6   84.09   10.10
   6 -10  -6   80.69    6.50
  -6  10  -6   87.69    7.90
 -10  -6   6   78.59    8.30
 -10  -6   6   78.89    8.70
   6 -10   6   86.99    7.70
   6 -10   6   81.09    7.50
  10   6   6   49.00   10.50
 -10  -6   6   78.89    8.00
  -5  10  -6   33.80    4.40
   5 -10  -6   22.60    7.60
 -10  -5  -6   30.20    3.20
  -5  10  -6   41.20    7.20
 -10  -5  -6   33.90    4.60
   5 -10  -6   32.50    4.10
  10   5  -6   34.50    5.10
 -10  -5   6   28.10    5.40
  10   5   6   16.60    5.90
 -10  -5   6   32.90    5.00
   5 -10   6   30.40    4.10
 -10  -5   6   30.60    5.70
   5 -10   6   28.50    4.20
 -10  -5   6   31.90    5.00
  10   4  -6   42.30    5.60
   4 -10  -6   29.00    7.90
 -10  -4  -6   37.60    5.10
  -4  10  -6   38.90    4.60
   4 -10  -6   40.20    4.40
  -4  10  -6   42.80    7.30
 -10  -4  -6   42.50    4.00
 -10  -4   6   45.10    5.90
 -10  -4   6   40.40    5.80
 -10  -4   6   31.00    5.80
   4 -10   6   35.60    4.80
   4 -10   6   39.70    4.60
 -10  -4   6   37.60    5.60
  10   3  -6  116.59   11.30
 -10  -3  -6  113.19   11.00
  -3  10  -6  130.79   12.60
   3 -10  -6  109.39   14.10
  -3  10  -6  120.19   10.20
 -10  -3  -6  117.99    9.70
  10   3  -6  113.79   14.20
   3 -10   6  123.89   10.30
 -10  -3   6  112.99   11.50
 -10  -3   6  129.79   12.10
 -10  -3   6  119.69   11.50
   3 -10   6  118.79   10.10
 -10  -3   6  118.59   11.10
  -2  10  -6  839.42   58.19
  10   2  -6  718.63   56.79
 -10  -2  -6  760.02   56.99
  -2  10  -6  806.12   55.89
   2 -10  -6  704.33   59.59
  10   2  -6  758.22   59.19
  10   2  -6  777.42   56.29
 -10  -2  -6  754.12   55.49
   2 -10   6  745.03   55.49
 -10  -2   6  750.62   57.19
 -10  -2   6  700.53   57.29
 -10  -2   6  827.02   56.79
 -10  -2   6  746.63   57.79
   2 -10   6  745.43   55.79
  10   1  -6  395.46   31.10
  -1  10  -6  414.66   30.60
 -10  -1  -6  417.96   30.40
  -1  10  -6  431.16   32.50
 -10  -1  -6  410.76   32.00
  10   1  -6  371.86   33.50
  10   1  -6  404.16   31.70
   1 -10  -6  417.66   34.30
 -10  -1   6  377.06   32.30
 -10  -1   6  392.06   31.90
   1 -10   6  411.66   30.30
 -10  -1   6  430.06   31.70
   1 -10   6  402.76   30.60
 -10  -1   6  406.46   32.70
  10   0  -6   41.70    5.50
  10   0  -6   63.29    9.40
 -10   0  -6   41.20    6.00
 -10   0  -6   39.10    4.40
  10   0  -6   40.30    5.20
 -10   0  -6   39.80    4.10
   0 -10  -6   38.20    7.40
   0  10  -6   34.00    5.90
   0 -10   6   37.00    5.00
 -10   0   6   39.50    6.20
 -10   0   6   39.10    6.70
 -10   0   6   35.80    5.50
   0 -10   6   51.39    4.80
 -10   0   6   40.30    6.10
  10  -1  -6  413.26   31.80
 -10   1  -6  399.86   30.90
  -1 -10  -6  409.76   30.10
 -10   1  -6  413.76   30.80
  10  -1  -6  387.86   31.50
  10  -1  -6  408.56   33.60
   1  10  -6  422.86   30.80
  -1 -10  -6  416.26   31.30
 -10   1  -6  421.96   33.00
  -1 -10  -6  463.35   34.10
 -10   1   6  400.96   33.10
  -1 -10   6  392.66   31.60
 -10   1   6  416.66   32.10
  -1 -10   6  417.36   30.50
 -10   1   6  370.16   32.80
  -1 -10   6  432.16   30.90
 -10   1   6  380.46   32.10
 -10   2  -6  843.92   57.79
 -10   2  -6  737.13   59.69
  -2 -10  -6  799.22   56.19
  -2 -10  -6  736.73   56.59
  10  -2  -6  821.72   58.39
   2  10  -6  802.22   57.29
  -2 -10  -6  855.71   60.19
 -10   2  -6  805.02   57.59
  10  -2  -6  720.53   57.99
  -2 -10  -6  820.02   57.79
  10  -2  -6  718.73   59.39
  -2 -10   6  813.02   57.39
 -10   2   6  685.03   59.39
  -2 -10   6  824.12   56.99
 -10   2   6  790.62   58.69
 -10   2   6  742.83   58.79
  -2 -10   6  764.82   57.99
 -10   2   6  773.42   59.99
  10  -3  -6  115.99   11.10
 -10   3  -6   91.39   11.90
  -3 -10  -6  131.49   10.70
  -3 -10  -6  156.18   13.10
   3  10  -6  108.89   10.10
  10  -3  -6   86.79   11.50
 -10   3  -6  137.79   11.10
 -10   3  -6  143.79   10.90
 -10   3   6  107.99   12.50
 -10   3   6  122.69   12.80
  -3 -10   6  129.69   10.00
 -10   3   6  122.79   12.00
  -3 -10   6  112.99   10.20
  -3 -10   6  136.49   11.30
  -3 -10   6  117.69   10.70
 -10   3   6  111.39   11.60
 -10   4  -6   48.00    5.60
  10  -4  -6   33.50    6.00
  10  -4  -6   40.20    6.10
 -10   4  -6   41.20    5.00
  -4 -10  -6   44.20    4.90
   4  10  -6   40.00    4.70
 -10   4  -6   30.90    6.80
 -10   4   6   39.60    6.70
  -4 -10   6   39.00    4.80
 -10   4   6   32.90    7.10
  -4 -10   6   41.50    4.90
  -4 -10   6   45.70    4.70
  -4 -10   6   41.70    5.40
 -10   4   6   35.70    7.00
 -10   4   6   40.60    6.00
  -5 -10  -6   36.50    4.80
  10  -5  -6   34.60    5.60
 -10   5  -6   22.90    4.60
  10  -5  -6   26.60    8.50
 -10   5  -6   24.50    6.10
  10  -5  -6   25.80    4.80
   5  10  -6   30.90    4.10
 -10   5   6   21.80    5.90
 -10   5   6   22.80    5.90
  -5 -10   6   29.80    3.90
  -5 -10   6   30.80    4.20
  -5 -10   6   30.90    5.10
 -10   5   6   33.60    5.70
  -5 -10   6   32.90    4.30
 -10   6  -6   60.79    9.30
 -10   6  -6   83.39    8.70
  10  -6  -6   62.29    8.10
   6  10  -6   80.39    7.60
  10  -6  -6   78.89    7.80
  10  -6  -6   87.79   15.20
  10  -6  -6   67.19    8.10
  -6 -10   6   81.39    7.80
  -6 -10   6   88.49    8.00
  -6 -10   6   86.39    7.20
 -10   6   6   78.19    9.00
 -10   6   6   55.79    9.30
  -6 -10   6   90.29    8.60
  10  -7  -6  286.57   24.90
  10  -7  -6  289.57   23.50
  10  -7  -6  304.87   25.00
   7  10  -6  283.37   24.10
 -10   7  -6  351.26   25.90
 -10   7  -6  273.97   26.50
  10  -7  -6  334.17   30.60
  10  -7   6  352.76   24.50
 -10   7   6  241.58   26.50
  -7 -10   6  328.27   24.60
  -7 -10   6  339.17   25.30
  -7 -10   6  311.77   24.50
  -7 -10   6  338.07   23.30
 -10   7   6  296.57   25.70
   8  10  -6  399.26   31.40
 -10   8  -6  443.16   33.00
  10  -8  -6  383.06   31.90
 -10   8  -6  359.86   33.60
  10  -8  -6  403.76   31.70
  10  -8  -6  396.86   30.10
  10  -8  -6  427.56   37.90
  -8 -10   6  432.16   31.90
 -10   8   6  382.56   32.70
  -8 -10   6  421.66   31.80
  -8 -10   6  436.86   32.50
 -10   8   6  324.97   33.80
  10  -8   6  477.95   31.70
  10  -9  -6  262.77   26.60
   9  10  -6  247.08   20.50
 -10   9  -6  230.58   22.50
  10  -9  -6  248.18   18.50
 -10   9  -6  268.87   22.00
  10  -9  -6  252.57   20.10
  10  -9  -6  222.18   20.50
  -9 -10   6  246.38   20.60
  -9 -10   6  244.88   21.20
  10  -9   6  296.27   20.50
 -10   9   6  206.78   22.70
 -10   9   6  223.48   21.50
  -9 -10   6  266.77   20.90
  10 -10  -6    5.90    2.10
 -10  10  -6    2.20    3.20
  10 -10  -6    5.60    2.90
  10 -10  -6    2.70    5.20
  10  10  -6    6.60    3.30
 -10 -10   6    4.70    2.80
 -10 -10   6    2.10    2.90
  10 -10   6    5.00    2.90
 -10  10   6    2.40    3.60
  10 -10   6    3.00    2.20
 -10 -10   6    2.50    2.40
  10 -11  -6    3.00    5.30
 -10  11  -6    3.20    3.60
  10 -11  -6    9.10    3.40
  11  10  -6    6.90    3.40
  10 -11  -6    5.10    2.00
 -10  11   6    6.00    4.30
  10 -11   6    5.60    2.70
 -11 -10   6    5.50    2.80
  10 -11   6    4.80    2.90
 -11 -10   6    3.40    2.80
 -11  -9  -6  470.95   35.30
   9 -11  -6  447.86   37.50
   9 -11  -6  493.75   44.60
  11   9  -6  533.45   38.90
   9 -11  -6  516.65   36.50
  -9  11  -6  515.55   40.20
 -11  -9   6  487.35   38.50
  -9  11   6  452.05   40.70
 -11  -9   6  508.65   38.60
  -8  11  -6   -2.40    2.60
  11   8  -6    1.10    2.40
   8 -11  -6    5.90    6.10
   8 -11  -6   -0.10    1.90
   8 -11  -6    0.30    1.10
 -11  -8  -6    1.70    0.80
   8 -11   6    1.70    2.00
   8 -11   6    2.20    2.40
 -11  -8   6    1.50    2.40
 -11  -8   6    1.20    2.30
   8 -11   6   -0.20    3.70
   7 -11  -6   23.30    2.80
  -7  11  -6   24.80    6.40
   7 -11  -6   33.10   10.30
   7 -11  -6   21.00    4.00
 -11  -7  -6   24.90    2.70
  11   7  -6   21.30    5.10
  11   7   6   11.00    5.20
 -11  -7   6   29.40    4.40
   7 -11   6   25.90    4.20
 -11  -7   6   27.40    5.30
 -11  -7   6   23.70    5.00
   7 -11   6   26.00    8.00
   7 -11   6   24.30    4.10
  -6  11  -6  195.88   17.20
  -6  11  -6  153.18   13.60
 -11  -6  -6  151.58   12.30
   6 -11  -6  153.88   13.30
 -11  -6  -6  137.29   13.70
  11   6  -6  151.08   14.80
   6 -11  -6  145.59   18.70
 -11  -6   6  152.98   14.90
   6 -11   6  181.08   13.60
 -11  -6   6  172.58   14.00
 -11  -6   6  162.18   14.70
   6 -11   6  170.08   13.60
  -5  11  -6  446.56   32.70
 -11  -5  -6  423.06   31.50
  11   5  -6  432.46   34.00
  -5  11  -6  513.65   36.40
 -11  -5  -6  392.96   32.90
   5 -11  -6  340.17   37.00
   5 -11   6  432.86   32.50
   5 -11   6  455.55   32.20
 -11  -5   6  410.86   34.10
 -11  -5   6  431.46   33.00
 -11  -5   6  409.66   34.10
 -11  -5   6  422.76   33.80
  11   4  -6  137.89   12.50
  -4  11  -6  133.49   11.10
  -4  11  -6  141.59   14.10
   4 -11  -6  109.79   15.30
 -11  -4  -6  128.79   11.80
 -11  -4  -6  122.69   10.20
 -11  -4   6  124.79   11.90
   4 -11   6  124.49   10.80
 -11  -4   6  126.69   12.40
 -11  -4   6  113.99   12.50
   4 -11   6  121.69   11.00
 -11  -4   6  132.69   12.80
  11   3  -6  653.23   50.89
   3 -11  -6  648.94   54.29
 -11  -3  -6  681.33   50.59
  -3  11  -6  711.93   49.50
 -11  -3  -6  686.33   48.90
   3 -11   6  630.94   49.00
 -11  -3   6  696.13   50.39
 -11  -3   6  640.64   51.09
 -11  -3   6  639.24   51.39
 -11  -3   6  633.74   50.99
   3 -11   6  701.73   49.50
 -11  -2  -6   76.39    8.40
  11   2  -6   76.49    7.80
  11   2  -6   72.69   10.80
  11   2  -6   83.49    8.80
 -11  -2  -6   74.09    6.70
   2 -11  -6   59.29   11.30
  -2  11  -6   75.79    7.10
  -2  11  -6   91.19    9.80
 -11  -2   6   71.99    8.40
   2 -11   6   73.59    7.10
 -11  -2   6   61.79    8.60
   2 -11   6   69.29    6.90
 -11  -2   6   64.89    8.40
 -11  -2   6   71.39    8.40
  11   1  -6    4.50    2.80
  11   1  -6    9.60    5.00
  -1  11  -6   12.50    2.60
 -11  -1  -6   11.70    3.60
  11   1  -6    6.70    2.70
   1 -11  -6    5.70    4.10
 -11  -1  -6    7.00    1.90
   1 -11   6    7.40    2.30
 -11  -1   6    7.90    3.40
 -11  -1   6   10.10    3.90
 -11  -1   6    7.70    3.30
   1 -11   6    5.40    2.00
 -11  -1   6    4.10    2.60
 -11   0  -6    1.70    1.10
 -11   0  -6    4.80    2.90
  11   0  -6    1.30    2.00
 -11   0  -6    1.30    1.50
  11   0  -6   -0.50    2.90
   0 -11  -6    0.40    3.10
   0  11  -6    0.80    1.40
  11   0  -6    0.60    2.20
 -11   0   6   -0.70    2.20
   0 -11   6    1.50    1.70
 -11   0   6   -0.40    1.70
   0 -11   6    1.80    1.60
   0 -11   6    2.90    1.80
 -11   0   6    3.60    2.90
 -11   0   6    1.10    2.30
   1  11  -6   19.40    3.10
  -1 -11  -6    8.00    1.60
 -11   1  -6    5.60    1.90
  11  -1  -6    9.60    3.20
 -11   1  -6    9.80    2.30
  11  -1  -6    8.90    3.00
 -11   1  -6   11.30    3.90
  -1 -11  -6   14.90    4.90
  11  -1  -6    7.00    4.40
  -1 -11   6    9.40    2.40
 -11   1   6    5.30    3.40
  -1 -11   6    7.80    2.60
 -11   1   6    4.20    3.20
 -11   1   6    2.80    2.40
  -1 -11   6    9.20    2.30
 -11   1   6    7.30    3.90
 -11   2  -6   82.29    7.30
   2  11  -6   70.49    7.00
 -11   2  -6   80.49    7.30
  -2 -11  -6   80.49    9.90
 -11   2  -6   80.09    9.50
  -2 -11  -6   75.99    7.60
  11  -2  -6   78.69    9.90
  11  -2  -6   76.09    8.20
  -2 -11  -6   74.29    5.80
  -2 -11   6   66.89    7.60
 -11   2   6   58.29    8.00
  -2 -11   6   78.39    7.20
 -11   2   6   62.79    9.10
 -11   2   6   63.19    9.10
  -2 -11   6   74.79    6.80
 -11   2   6   75.69    9.10
  -3 -11  -6  721.43   51.59
 -11   3  -6  613.14   52.69
 -11   3  -6  722.43   50.49
  11  -3  -6  620.84   51.79
 -11   3  -6  752.02   50.79
   3  11  -6  670.73   49.99
  11  -3  -6  589.84   50.89
  -3 -11  -6  762.52   52.89
  -3 -11   6  678.53   51.19
 -11   3   6  590.34   52.49
  -3 -11   6  735.53   50.29
 -11   3   6  678.53   53.29
  -3 -11   6  655.83   50.79
 -11   3   6  683.63   51.99
  -3 -11   6  718.33   49.60
 -11   3   6  620.34   51.79
  11  -4  -6   99.79   11.90
 -11   4  -6  133.29   11.50
   4  11  -6  128.49   10.70
 -11   4  -6  118.59   13.40
  11  -4  -6  110.89   11.60
  -4 -11   6  137.19   10.30
 -11   4   6  112.69   12.20
 -11   4   6  105.09   13.00
 -11   4   6  134.29   13.40
  -4 -11   6  133.79   11.00
  -4 -11   6  128.59   11.70
  -4 -11   6  119.89   11.20
 -11   4   6  121.99   13.60
  11  -5  -6  368.06   32.80
   5  11  -6  441.66   32.00
  11  -5  -6  408.46   32.70
 -11   5  -6  467.85   33.10
  -5 -11   6  460.75   31.20
 -11   5   6  358.76   34.80
 -11   5   6  369.66   34.60
  -5 -11   6  445.96   32.20
  -5 -11   6  413.56   32.40
  -5 -11   6  442.26   33.00
 -11   5   6  410.26   33.90
 -11   6  -6  124.49   15.10
  11  -6  -6  143.39   14.20
 -11   6  -6  164.88   14.20
   6  11  -6  158.08   13.10
  11  -6  -6  148.29   14.20
  11  -6  -6  156.08   13.40
  -6 -11   6  144.99   13.30
 -11   6   6  132.89   15.80
  -6 -11   6  168.58   14.20
 -11   6   6  153.98   14.90
  -6 -11   6  173.58   13.50
  11  -7  -6   24.70    4.00
  11  -7  -6   17.70    4.60
 -11   7  -6   20.20    5.70
 -11   7  -6   24.60    5.00
   7  11  -6   22.10    4.10
  11  -7  -6   16.40    4.20
 -11   7   6   19.70    5.10
  -7 -11   6   22.10    4.50
  -7 -11   6   26.30    4.40
 -11   7   6   15.20    5.60
  -7 -11   6   25.10    4.50
   8  11  -6    2.60    2.20
  11  -8  -6    1.80    2.50
  11  -8  -6    2.00    1.70
 -11   8  -6    0.60    2.70
 -11   8  -6    1.00    2.60
  11  -8  -6   -0.30    1.90
 -11   8   6   -0.80    2.20
  -8 -11   6    2.80    2.30
 -11   8   6    0.90    2.70
  11  -8   6    1.90    2.70
  -8 -11   6    2.90    2.20
  11  -8   6    2.40    2.10
  -8 -11   6    2.60    2.60
  11  -9  -6  500.65   36.40
  11  -9  -6  505.55   38.10
 -11   9  -6  538.95   39.70
   9  11  -6  483.85   38.30
 -11   9  -6  422.66   40.20
  11  -9  -6  476.15   38.80
  -9 -11   6  517.95   39.30
 -11   9   6  409.46   39.20
  -9 -11   6  502.45   38.60
  -9 -11   6  513.85   38.50
  11  -9   6  581.64   38.30
 -11  10  -6    1.60    3.00
  10  11  -6    5.60    2.90
  11 -10  -6    2.50    3.00
 -11  10  -6    7.50    4.20
  11 -10  -6    1.50    2.00
  11 -10  -6    1.50    5.30
 -11  10   6   -0.50    3.00
 -10 -11   6    2.70    2.60
  11 -10   6    5.20    3.10
 -10 -11   6    3.90    3.00
 -10 -11   6    2.10    2.30
  11 -10   6    4.90    2.70
   9 -12  -6  199.88   15.80
  -9  12  -6  237.48   20.30
  12   9  -6  212.78   18.80
   9 -12  -6  196.58   23.70
   9 -12  -6  172.58   16.90
 -12  -9  -6  194.18   14.80
  -9  12   6  158.78   21.50
   9 -12   6  224.18   17.20
 -12  -9   6  205.88   18.20
   9 -12   6  239.48   17.20
 -12  -9   6  177.58   17.70
   9 -12   6  226.48   22.40
  12   8  -6  224.08   20.60
 -12  -8  -6  222.08   17.20
   8 -12  -6  205.18   19.20
   8 -12  -6  245.18   26.50
  -8  12  -6  237.28   22.10
   8 -12   6  251.97   18.90
   8 -12   6  283.77   19.40
   8 -12   6  247.28   24.20
 -12  -8   6  223.68   20.10
 -12  -8   6  201.48   19.90
   7 -12  -6  515.55   50.89
  12   7  -6  559.44   46.20
 -12  -7  -6  544.05   43.10
  -7  12  -6  661.13   48.60
 -12  -7   6  524.35   45.90
   7 -12   6  631.54   44.40
   7 -12   6  648.44   50.89
 -12  -7   6  623.74   44.30
   7 -12   6  647.64   44.80
 -12  -7   6  587.74   46.00
  -6  12  -6    1.80    2.00
  12   6  -6    3.50    3.40
   6 -12  -6    2.60    4.40
 -12  -6  -6    1.80    1.10
  -6  12  -6    1.40    3.20
 -12  -6   6    2.50    2.60
  12   6   6    0.50    3.30
   6 -12   6    1.70    2.00
 -12  -6   6    3.50    2.50
 -12  -6   6    3.30    2.90
   6 -12   6    0.50    2.10
   6 -12   6    2.90    4.90
 -12  -5  -6   69.89    6.80
  12   5  -6   84.79    9.60
  -5  12  -6  106.29   11.90
  -5  12  -6   89.79    8.20
   5 -12  -6   59.89   13.20
 -12  -5  -6   91.09    8.90
  12   5   6   52.59   11.10
   5 -12   6   77.89    7.90
   5 -12   6   83.89    7.90
 -12  -5   6   82.89    9.20
 -12  -5   6   69.09    9.30
 -12  -5   6   87.79    8.90
  12   4  -6   31.70    6.10
  -4  12  -6   32.10    8.80
  -4  12  -6   26.80    4.30
   4 -12  -6   26.30    8.10
 -12  -4  -6   26.10    3.30
 -12  -4  -6   31.80    5.00
  12   4   6   15.00    6.10
   4 -12   6   30.40    4.40
   4 -12   6   28.10    4.20
 -12  -4   6   28.30    5.70
 -12  -4   6   34.50    6.50
 -12  -4   6   28.50    5.20
 -12  -4   6   33.10    6.40
 -12  -3  -6  197.88   15.60
  12   3  -6  159.78   15.60
 -12  -3  -6  173.18   13.40
   3 -12  -6  161.78   18.80
  -3  12  -6  167.38   14.00
 -12  -3   6  170.88   15.30
   3 -12   6  156.68   13.60
 -12  -3   6  167.78   15.80
   3 -12   6  175.38   14.10
 -12  -3   6  152.68   15.60
 -12  -3   6  153.48   15.90
   2 -12  -6  159.88   17.70
  -2  12  -6  165.18   13.30
  12   2  -6  150.48   15.00
 -12  -2  -6  178.08   15.00
 -12  -2  -6  154.58   12.70
   2 -12   6  160.28   13.00
 -12  -2   6  142.19   15.30
 -12  -2   6  138.59   14.80
 -12  -2   6  163.38   15.40
 -12  -2   6  166.08   14.80
   2 -12   6  155.48   13.30
  12   1  -6  461.15   36.60
   1 -12  -6  423.16   36.90
  -1  12  -6  431.86   32.70
 -12  -1  -6  451.35   32.50
  12   1  -6  429.96   34.70
  12   1  -6  423.46   33.80
 -12  -1  -6  483.25   35.00
 -12  -1   6  444.16   35.20
   1 -12   6  450.15   32.40
   1 -12   6  433.26   32.80
 -12  -1   6  378.36   35.00
 -12  -1   6  364.06   34.30
 -12  -1   6  441.66   34.30
   0  12  -6   18.20    3.10
   0 -12  -6   19.50    2.90
   0 -12  -6   16.30    5.60
  12   0  -6   13.40    3.90
  12   0  -6   17.70    5.80
 -12   0  -6   18.10    2.60
 -12   0  -6   25.00    5.40
 -12   0  -6   16.70    2.90
  12   0  -6   15.60    4.50
   0 -12   6   14.20    3.00
 -12   0   6   23.20    5.40
 -12   0   6   11.30    3.90
 -12   0   6   20.80    5.60
 -12   0   6   16.50    4.80
   0 -12   6   16.90    3.10
   1  12  -6  429.16   32.80
  -1 -12  -6  440.56   32.00
  12  -1  -6  398.76   34.40
  12  -1  -6  497.25   36.40
  12  -1  -6  385.76   33.90
  -1 -12  -6  467.65   36.60
 -12   1  -6  486.75   32.70
 -12   1  -6  482.85   35.90
 -12   1  -6  458.95   32.90
  -1 -12   6  469.25   33.10
 -12   1   6  412.86   34.70
  -1 -12   6  376.86   33.70
  -1 -12   6  459.55   32.40
 -12   1   6  376.26   34.60
 -12   1   6  354.06   35.10
 -12   1   6  459.05   36.00
  12  -2  -6  150.08   14.50
  -2 -12  -6  152.28   11.90
 -12   2  -6  178.58   13.50
 -12   2  -6  169.38   13.40
  12  -2  -6  163.58   16.00
   2  12  -6  161.88   13.20
  -2 -12  -6  176.28   16.60
 -12   2  -6  157.78   16.00
 -12   2   6  168.08   16.30
  -2 -12   6  140.59   14.00
 -12   2   6  158.18   15.50
 -12   2   6  122.19   15.20
 -12   2   6  139.19   14.90
  -2 -12   6  168.98   13.40
  -2 -12   6  169.98   12.80
 -12   3  -6  179.78   14.40
  12  -3  -6  170.38   16.40
  12  -3  -6  153.18   15.30
  -3 -12  -6  165.48   16.60
 -12   3  -6  175.58   14.50
   3  12  -6  182.68   14.20
 -12   3  -6  167.48   17.10
 -12   3   6  187.08   16.90
  -3 -12   6  150.78   14.70
  -3 -12   6  191.18   13.50
  -3 -12   6  169.88   14.20
 -12   3   6  172.18   17.20
 -12   3   6  148.69   15.90
 -12   3   6  149.49   16.60
  12  -4  -6   31.70    6.50
 -12   4  -6   28.90    4.80
  12  -4  -6   24.40    5.30
 -12   4  -6   24.60    6.40
   4  12  -6   32.80    4.30
 -12   4   6   22.60    6.30
 -12   4   6   29.50    7.20
  -4 -12   6   36.40    3.60
  -4 -12   6   31.60    4.40
  -4 -12   6   24.70    4.80
  -4 -12   6   28.80    5.40
 -12   4   6   27.10    6.10
 -12   4   6   34.50    6.90
  12  -5  -6   82.99    9.30
 -12   5  -6   91.19    8.90
   5  12  -6   86.19    8.10
 -12   5  -6   67.69   10.30
  12  -5  -6   82.59    9.40
  -5 -12   6   85.19    9.00
  -5 -12   6  104.39    8.60
 -12   5   6   79.09   10.90
 -12   5   6   55.59   10.40
  -5 -12   6   78.39    8.50
 -12   5   6   85.39   11.00
 -12   5   6   69.19    9.60
  12  -6  -6    1.60    2.30
  12  -6  -6    0.80    2.70
   6  12  -6    2.00    2.00
 -12   6  -6   -1.50    2.20
 -12   6  -6    2.40    2.40
  12  -6  -6    2.60    2.60
 -12   6   6    2.90    3.10
 -12   6   6    9.50    4.40
 -12   6   6    0.10    3.00
  -6 -12   6    2.80    2.40
  -6 -12   6    3.30    2.20
  -6 -12   6    1.70    1.70
   7  12  -6  568.14   43.50
  12  -7  -6  607.24   45.00
  12  -7  -6  531.35   44.70
  12  -7  -6  609.34   43.30
 -12   7  -6  668.63   44.90
  -7 -12   6  563.34   44.10
  -7 -12   6  628.74   43.90
  -7 -12   6  620.04   44.80
 -12   7   6  468.55   46.40
 -12   7   6  488.45   45.20
  12  -8  -6  218.48   19.50
 -12   8  -6  233.28   19.30
  12  -8  -6  226.98   17.20
  12  -8  -6  236.08   19.10
   8  12  -6  235.68   18.40
 -12   8  -6  174.38   20.20
  -8 -12   6  225.88   18.80
 -12   8   6  172.68   19.40
  -8 -12   6  252.37   18.70
 -12   8   6  173.58   20.70
  -8 -12   6  223.68   19.20
 -12   9  -6  149.09   18.40
 -12   9  -6  197.68   17.80
  12  -9  -6  194.38   15.10
   9  12  -6  204.18   17.10
  12  -9  -6  188.78   17.80
  12  -9  -6  205.28   17.00
  -9 -12   6  198.98   19.30
  -9 -12   6  203.08   17.90
  12  -9   6  207.38   16.70
  -9 -12   6  192.78   17.20
  12  -9   6  233.58   17.20
 -12   9   6  150.18   17.70
  13   7  -6    6.10    3.90
  -7  13  -6    5.60    4.70
 -13  -7  -6    2.90    1.20
   7 -13  -6    6.30    7.10
 -13  -7   6    1.40    2.50
 -13  -7   6    2.20    2.90
   7 -13   6    2.90    2.60
   7 -13   6    1.60    4.50
  13   7   6    1.50    3.70
   7 -13   6    5.50    2.70
 -13  -6  -6   88.59    7.70
  13   6  -6   85.09   11.00
   6 -13  -6   72.39   15.50
 -13  -6   6   77.29   10.20
   6 -13   6  114.39   17.60
 -13  -6   6  103.39    9.20
 -13  -6   6   95.59   10.40
   6 -13   6   97.99    9.10
   6 -13   6   94.79    8.90
 -13  -5  -6  434.66   33.90
   5 -13  -6  391.66   40.60
  13   5  -6  457.45   37.40
   5 -13   6  488.05   34.70
   5 -13   6  488.15   41.80
 -13  -5   6  419.96   36.90
 -13  -5   6  475.95   36.90
 -13  -5   6  464.75   35.50
   5 -13   6  496.45   35.20
 -13  -4  -6  324.97   24.90
  13   4  -6  302.47   26.00
   4 -13  -6  281.47   29.20
 -13  -4  -6  298.57   22.80
   4 -13   6  299.27   23.20
 -13  -4   6  302.27   24.50
   4 -13   6  322.67   23.80
 -13  -4   6  259.77   25.50
 -13  -4   6  329.67   25.80
 -13  -4   6  263.67   25.50
   4 -13   6  296.67   29.50
 -13  -3  -6  245.58   19.20
  -3  13  -6  277.97   20.20
   3 -13  -6  230.08   24.90
 -13  -3  -6  287.87   21.70
  13   3  -6  255.07   22.40
 -13  -3   6  207.28   21.60
 -13  -3   6  277.37   22.30
 -13  -3   6  221.18   22.00
 -13  -3   6  230.18   20.90
   3 -13   6  249.58   19.50
   3 -13   6  244.48   19.90
   2 -13  -6   10.70    2.80
  -2  13  -6   13.10    3.10
 -13  -2  -6   12.80    4.00
   2 -13  -6   14.20    6.50
 -13  -2  -6   13.90    2.60
  13   2  -6    7.40    3.90
 -13  -2   6   13.10    4.50
 -13  -2   6   10.60    4.20
 -13  -2   6   16.60    4.70
 -13  -2   6    8.50    4.10
   2 -13   6   11.00    2.70
   2 -13   6   15.30    3.20
   1 -13  -6  179.48   14.80
   1 -13  -6  183.28   19.40
 -13  -1  -6  186.28   14.80
  13   1  -6  193.58   18.20
  13   1  -6  164.18   17.10
  13   1  -6  220.18   19.50
  -1  13  -6  178.38   15.10
 -13  -1  -6  212.38   17.50
 -13  -1   6  164.08   17.50
 -13  -1   6  179.38   16.90
   1 -13   6  189.98   14.70
 -13  -1   6  156.88   16.80
   1 -13   6  179.48   15.20
 -13  -1   6  189.98   17.60
  13   0  -6    0.00    2.90
  13   0  -6    0.60    2.40
  13   0  -6    6.10    4.60
   0 -13  -6    1.10    3.20
   0 -13  -6    2.20    1.30
 -13   0  -6    0.70    2.80
 -13   0  -6   -0.40    1.40
   0  13  -6    1.40    1.50
   0 -13   6    3.50    1.90
 -13   0   6    0.40    2.50
   0 -13   6    1.60    1.90
 -13   0   6    0.10    3.30
 -13   0   6    0.70    2.90
 -13   0   6    2.50    2.90
 -13   1  -6  186.58   15.00
  13  -1  -6  195.58   18.30
  13  -1  -6  169.08   17.00
   1  13  -6  188.78   15.10
 -13   1  -6  198.98   14.80
  -1 -13  -6  189.68   14.20
  -1 -13  -6  172.68   18.40
  13  -1  -6  156.58   16.40
 -13   1  -6  213.88   18.40
 -13   1   6  180.98   17.90
  -1 -13   6  198.28   14.50
  -1 -13   6  202.38   15.50
 -13   1   6  153.88   16.90
  -1 -13   6  157.98   16.00
 -13   1   6  190.48   17.60
 -13   1   6  159.78   17.60
  -2 -13  -6   19.00    5.90
  -2 -13  -6   11.30    1.70
  13  -2  -6   14.70    5.20
 -13   2  -6   18.70    3.30
 -13   2  -6   18.10    5.50
  13  -2  -6   10.60    3.80
 -13   2  -6   15.60    3.20
   2  13  -6   16.20    3.30
 -13   2   6    8.70    4.70
  -2 -13   6   12.30    2.30
 -13   2   6   10.50    4.60
  -2 -13   6   12.10    3.00
 -13   2   6   12.20    5.00
 -13   2   6   11.90    4.20
  -2 -13   6   13.40    3.60
 -13   3  -6  276.17   20.60
 -13   3  -6  277.87   23.90
 -13   3  -6  281.87   20.50
  13  -3  -6  265.87   22.80
   3  13  -6  267.57   20.30
  13  -3  -6  215.78   21.60
 -13   3   6  261.77   23.10
 -13   3   6  216.88   22.20
  -3 -13   6  229.78   21.10
 -13   3   6  206.48   22.70
  -3 -13   6  265.37   20.40
 -13   3   6  275.07   24.00
   4  13  -6  308.07   23.20
  13  -4  -6  278.97   24.80
 -13   4  -6  308.17   23.60
  13  -4  -6  333.57   25.40
 -13   4  -6  289.97   26.50
 -13   4   6  231.78   25.50
 -13   4   6  291.97   26.70
  -4 -13   6  276.07   23.90
 -13   4   6  296.67   26.00
 -13   4   6  240.68   25.00
  -4 -13   6  331.27   23.50
  -4 -13   6  317.17   24.50
 -13   5  -6  484.45   34.70
  13  -5  -6  504.75   35.60
  13  -5  -6  401.86   35.50
   5  13  -6  458.95   34.00
 -13   5  -6  400.96   37.10
 -13   5   6  431.66   37.80
 -13   5   6  381.56   36.70
  -5 -13   6  486.15   35.50
  -5 -13   6  507.15   34.40
  -5 -13   6  424.06   34.80
 -13   5   6  377.66   36.00
 -13   5   6  450.15   36.90
 -13   6  -6   72.99   11.00
   6  13  -6   88.89    8.80
 -13   6  -6  103.89    9.60
  13  -6  -6   81.99   10.40
  13  -6  -6   95.99    9.80
  13  -6  -6   95.19   10.40
 -13   6   6   73.69   10.50
  -6 -13   6   98.79   10.00
  -6 -13   6   76.79    9.10
  -6 -13   6   93.99    9.00
 -13   6   6   91.29   12.00
 -13   6   6   93.19   12.70
 -13   6   6   88.99   12.10
  13  -7  -6    3.90    3.00
   7  13  -6    7.80    3.00
  13  -7  -6    3.50    3.70
 -13   7  -6    6.10    3.10
  13  -7  -6    2.10    2.70
 -13   7  -6    3.50    3.60
 -13   7   6    3.80    3.40
  -7 -13   6    5.20    3.10
  -7 -13   6   13.70    3.50
  -7 -13   6    1.70    2.30
 -13   7   6    3.60    4.20
  13  -8  -6   15.20    3.30
 -13   8   6   15.30    5.10
   6 -14  -6  411.96   45.60
  14   6  -6  517.25   42.70
 -14  -6   6  537.15   41.70
   6 -14   6  578.84   47.10
   6 -14   6  552.24   39.30
   5 -14  -6   15.20    7.60
  14   5  -6   37.80    7.90
 -14  -5  -6   32.20    3.70
  14   5   6   14.10    6.30
   5 -14   6   35.70    4.90
   5 -14   6   35.50   10.20
 -14  -5   6   39.10    5.70
 -14  -5   6   19.20    5.30
   5 -14   6   36.80    4.90
 -14  -5   6   35.90    6.80
   4 -14  -6   21.50    7.60
 -14  -4  -6   26.10    3.50
  14   4  -6   34.20    7.40
 -14  -4   6   30.50    6.60
   4 -14   6   29.50    9.40
   4 -14   6   31.90    4.80
 -14  -4   6   26.40    6.00
 -14  -4   6   29.40    5.30
   4 -14   6   30.80    4.50
  14   4   6   15.10    6.90
 -14  -4   6   26.40    6.40
  14   3  -6   46.90    8.50
 -14  -3  -6   35.40    4.30
 -14  -3  -6   42.10    7.20
   3 -14  -6   40.90    5.10
   3 -14  -6   26.70    9.00
   3 -14   6   38.90    5.10
 -14  -3   6   39.40    7.60
  14   3   6   27.30    8.20
 -14  -3   6   39.90    6.40
   3 -14   6   38.30   10.10
 -14  -3   6   26.30    6.40
   3 -14   6   35.20    4.80
 -14  -3   6   44.10    7.10
   2 -14  -6   27.90    8.40
  14   2  -6   37.10    7.60
   2 -14  -6   43.40    5.10
 -14  -2  -6   45.60    7.10
 -14  -2  -6   43.80    4.70
   2 -14   6   38.00    5.20
 -14  -2   6   28.80    6.90
 -14  -2   6   45.90    7.10
   2 -14   6   45.40   10.80
 -14  -2   6   56.59    7.60
   2 -14   6   42.00    4.90
 -14  -2   6   29.20    6.90
   1 -14  -6  352.46   27.30
 -14  -1  -6  342.17   27.20
  14   1  -6  350.86   30.40
   1 -14  -6  356.76   32.40
 -14  -1  -6  422.16   30.60
   1 -14   6  364.16   27.80
   1 -14   6  384.66   26.90
 -14  -1   6  299.17   30.00
 -14  -1   6  421.96   31.00
 -14  -1   6  347.97   29.30
 -14  -1   6  283.37   29.50
   0 -14  -6  649.93   50.79
 -14   0  -6  691.83   51.29
  14   0  -6  656.93   54.19
  14   0  -6  767.82   55.29
 -14   0  -6  804.12   54.99
   0 -14  -6  665.43   55.79
  14   0  -6  636.44   53.39
   0 -14   6  681.03   51.79
 -14   0   6  614.44   53.19
 -14   0   6  733.73   54.89
   0 -14   6  745.83   51.09
   1  14  -6  361.76   28.30
  -1 -14  -6  348.07   31.90
  14  -1  -6  415.66   31.80
  14  -1  -6  351.06   30.30
  -1 -14  -6  353.66   27.20
 -14   1  -6  441.56   32.10
 -14   1  -6  357.06   28.10
 -14   1   6  344.77   30.40
 -14   1   6  298.67   30.80
  -1 -14   6  381.76   28.60
 -14   1   6  397.76   31.90
   2  14  -6   48.00    5.50
  14  -2  -6   59.69    9.30
 -14   2  -6   48.20    5.20
  -2 -14  -6   37.60    8.10
  14  -2  -6   37.70    7.30
 -14   2  -6   44.90    5.30
  -2 -14  -6   40.00    3.80
 -14   2  -6   50.99    9.20
 -14   2   6   38.30    7.60
 -14   2   6   34.50    7.80
  -2 -14   6   43.50    5.50
  -2 -14   6   37.00    5.90
 -14   2   6   34.60    7.70
 -14   2   6   52.89    9.30
 -14   3  -6   44.00    8.50
  14  -3  -6   47.90    8.20
 -14   3  -6   46.20    5.40
   3  14  -6   55.19    5.70
  14  -3  -6   31.60    7.00
 -14   3   6   35.30    7.70
 -14   3   6   42.10    8.10
  -3 -14   6   42.50    5.50
 -14   3   6   56.39    9.80
  -3 -14   6   29.50    6.10
 -14   3   6   31.90    7.60
 -14   4  -6   25.50    4.50
 -14   4  -6   29.70    7.40
  14  -4  -6   35.50    6.90
  14  -4  -6   26.80    6.00
   4  14  -6   24.70    4.30
 -14   4   6   26.30    6.90
  -4 -14   6   28.20    5.50
 -14   4   6   26.40    7.10
 -14   4   6   35.60    7.30
  -4 -14   6   38.70    4.90
 -14   4   6   22.00    6.50
  -4 -14   6   22.20    4.80
 -14   5  -6   33.00    5.20
 -14   5  -6   24.00    7.00
  14  -5  -6   36.90    6.60
  14  -5  -6   30.10    6.70
   5  14  -6   35.70    4.90
  14  -5  -6   35.00    6.50
  -5 -14   6   26.60    5.50
  -5 -14   6   36.90    6.40
 -14   5   6   30.10    7.80
 -14   5   6   21.20    6.40
 -14   5   6   28.70    7.40
  -5 -14   6   39.70    5.20
 -14   5   6   32.50    7.50
 -14   6  -6  394.26   37.90
   6  14  -6  531.45   35.50
  14  -6  -6  480.75   37.40
 -14   6   6  371.76   37.10
  -6 -14   6  420.26   35.80
 -14   6   6  505.25   38.70
 -14   6   6  492.85   39.70
  15   2  -6  233.98   21.50
   2 -15  -6  227.88   17.90
 -15  -2  -6  225.58   17.40
   2 -15  -6  197.98   22.70
 -15  -2   6  167.78   19.80
 -15  -2   6  197.28   20.40
 -15  -2   6  268.57   21.20
   2 -15   6  229.88   18.20
   2 -15   6  233.08   24.50
 -15  -2   6  207.28   19.30
  15   1  -6    1.80    4.10
 -15  -1  -6    7.90    4.40
   1 -15  -6   14.00    6.20
   1 -15  -6    9.30    2.40
 -15  -1  -6    6.60    2.20
 -15  -1   6   11.20    4.70
 -15  -1   6    7.40    4.10
 -15  -1   6    7.10    4.20
   1 -15   6   11.00    3.00
   1 -15   6    5.90    5.60
 -15  -1   6    8.40    4.00
 -15   0  -6    0.70    1.60
  15   0  -6    1.20    3.90
   0 -15  -6    1.80    1.40
  15   0  -6    3.40    4.20
   0 -15  -6    0.40    3.90
 -15   0  -6    2.50    3.50
 -15   0   6   -0.10    2.90
   0 -15   6    2.10    2.20
 -15   0   6   -0.70    2.80
   0 -15   6   -1.30    3.90
 -15   0   6    3.50    3.60
 -15   0   6    4.00    3.90
 -15   1  -6    8.10    4.50
  -1 -15  -6   15.90    5.90
  15  -1  -6    2.10    3.60
  -1 -15  -6    8.90    1.80
 -15   1  -6    6.90    2.40
  15  -1  -6    8.60    5.20
 -15   1   6   14.70    5.20
 -15   1   6    3.50    3.50
  -1 -15   6    4.60    5.30
 -15   1   6    7.30    4.40
  -1 -15   6    9.60    3.00
 -15   1   6    7.20    4.50
  -2 -15  -6  215.48   17.00
  15  -2  -6  260.97   22.00
  -2 -15  -6  224.98   23.00
 -15   2  -6  230.28   18.50
 -15   2  -6  265.87   19.40
  15  -2  -6  205.88   20.80
 -15   2  -6  278.67   22.80
 -15   2   6  192.38   20.70
 -15   2   6  254.17   22.50
  -2 -15   6  250.77   19.00
  -2 -15   6  212.28   23.30
 -15   2   6  169.48   20.50
   0   0  -7    2.70    1.10
   0   0  -7    2.40    1.20
   0   0  -7    1.20    1.20
   0   0  -7    1.40    0.70
   0   0  -7    4.10    1.00
   0  -1  -7  881.91   62.39
   0   1  -7  934.81   63.19
  -1   0  -7  846.52   62.19
   0   1  -7  832.02   62.39
   1   0  -7  758.62   62.99
  -1   0  -7  912.01   62.49
   0   1  -7  816.62   62.29
  -1   0  -7  954.50   62.39
   1   0  -7  906.01   62.49
   0   1  -7  881.51   62.29
   0  -1  -7  880.11   62.29
   1   0  -7  852.61   62.19
   0   1  -7  745.13   63.09
  -1   0  -7  910.81   62.89
   0  -1  -7  905.11   62.29
   1   0  -7  826.42   63.19
   1   0  -7  850.31   62.39
  -1   0  -7  875.91   62.49
  -1   0   7  849.91   62.39
  -1   0   7  888.51   62.39
   0  -1   7  825.32   62.19
   1   1  -7    6.40    2.40
   1  -1  -7    7.70    1.50
  -1   1  -7   10.00    1.80
   1  -1  -7   10.10    1.60
  -1   1  -7    9.30    1.40
  -1   1  -7    7.30    2.10
   1   1  -7    7.40    2.00
   1   1  -7    7.60    1.40
  -1   1  -7    8.50    1.50
  -1  -1  -7    6.60    1.40
   1   1  -7    5.30    1.20
   1  -1  -7    9.40    3.70
   1  -1  -7    7.40    1.30
  -1  -1  -7    7.80    1.20
  -1   1  -7    5.90    1.70
   1   1  -7    7.60    1.50
  -1  -1   7    6.90    1.40
   1  -1   7    7.60    1.60
  -1  -1   7    9.00    1.60
  -1   1   7    9.10    1.60
  -1   2  -7  853.51   69.69
  -2  -1  -7 1027.10   69.09
  -1   2  -7  958.20   69.49
   1  -2  -7 1024.30   68.89
   1  -2  -7  981.70   71.99
   1  -2  -7  990.20   68.89
   2   1  -7 1022.60   69.99
  -2  -1  -7  982.00   68.99
   2   1  -7  930.61   68.79
  -1   2  -7  875.11   68.79
   1  -2  -7  998.50   68.59
  -1   2  -7  885.61   68.69
  -1   2  -7  908.61   68.99
   2   1  -7  942.11   68.69
   2   1  -7 1029.10   68.99
  -2  -1  -7  916.81   68.49
  -2  -1   7  975.40   68.89
  -2  -1   7  941.01   68.69
  -2  -1   7  932.11   68.79
   1  -2   7  912.01   68.69
   0   2  -7    0.80    1.60
  -2   0  -7    1.30    0.90
   0  -2  -7    6.40    1.20
   2   0  -7    5.90    1.40
  -2   0  -7    0.00    0.80
  -2   0  -7    2.60    0.70
   2   0  -7    2.90    0.90
   0  -2  -7    0.30    0.80
   2   0  -7    2.40    1.60
   0  -2  -7    1.20    2.20
   0   2  -7    1.70    1.20
   2   0  -7    0.40    0.70
   0   2  -7    0.70    0.80
   0   2  -7    2.00    0.90
   0  -2  -7    5.70    1.10
  -2   0   7    0.90    0.80
  -2   0   7    3.50    1.10
   0  -2   7    3.40    1.00
   0  -2   7    2.00    0.90
   2  -1  -7  944.91   69.69
   2  -1  -7  970.50   68.99
   2  -1  -7  938.21   72.89
  -2   1  -7  925.61   69.59
  -2   1  -7  931.51   69.49
  -2   1  -7 1001.80   69.39
  -1  -2  -7 1086.59   72.09
   2  -1  -7  936.11   69.29
   2  -1  -7  974.60   69.39
  -1  -2  -7 1016.50   69.29
  -2   1  -7 1000.20   69.69
  -2   1  -7  904.21   68.99
  -1  -2  -7 1025.00   69.29
   1   2  -7  930.41   70.09
  -1  -2  -7 1020.00   68.99
   1   2  -7  853.41   70.49
   1   2  -7  904.61   69.09
   1   2  -7 1031.80   69.39
  -1  -2   7  978.60   69.19
  -2   1   7  881.81   69.19
  -2   1   7  897.91   69.29
  -1  -2   7  960.00   69.09
  -1  -2   7  969.70   69.29
   2  -2  -7  254.07   18.10
   2  -2  -7  240.68   17.60
  -2   2  -7  228.38   18.50
   2   2  -7  253.67   19.10
  -2   2  -7  236.98   18.10
  -2  -2  -7  249.88   18.10
   2   2  -7  256.07   18.20
   2  -2  -7  272.67   17.70
   2   2  -7  238.08   17.90
   2  -2  -7  232.68   21.10
   2   2  -7  235.28   19.70
  -2  -2  -7  234.18   17.60
  -2  -2  -7  242.08   18.10
  -2   2  -7  232.78   18.30
  -2   2  -7  225.98   17.80
  -2   2  -7  230.78   18.80
   2   2  -7  220.58   17.90
  -2   2   7  226.68   18.00
  -2  -2   7  238.88   18.10
  -2  -2   7  236.98   17.90
  -2   3  -7 1740.03  127.99
   3   2  -7 1912.71  128.49
   2  -3  -7 1907.71  128.19
   3   2  -7 1827.62  129.39
   3   2  -7 1723.03  128.09
  -2   3  -7 1725.73  128.19
  -2   3  -7 1905.81  128.99
   3   2  -7 1806.12  128.09
   3   2  -7 1608.64  129.89
  -3  -2  -7 1906.81  128.29
  -2   3  -7 1816.52  128.49
   2  -3  -7 1721.63  131.19
  -3  -2  -7 1685.83  127.59
   2  -3   7 1676.43  127.89
   2  -3   7 1655.93  127.89
  -3  -2   7 1832.62  128.09
  -2   3   7 1803.02  128.19
  -3  -2   7 1946.81  127.99
  -3  -2   7 1765.52  128.09
  -3  -2   7 1718.53  128.29
  -3  -1  -7  638.94   43.80
   3   1  -7  492.85   44.80
   1  -3  -7  642.84   46.40
   3   1  -7  651.23   43.80
  -3  -1  -7  600.54   43.10
   1  -3  -7  646.74   43.40
  -1   3  -7  573.44   43.30
   3   1  -7  605.54   43.40
  -3  -1  -7  639.24   43.60
   3   1  -7  571.34   44.50
   3   1  -7  604.54   43.30
  -3  -1  -7  589.14   43.00
  -1   3  -7  596.34   43.60
  -1   3  -7  563.54   43.30
  -1   3  -7  610.04   44.20
  -3  -1   7  566.64   43.30
  -3  -1   7  585.34   43.30
   1  -3   7  589.64   43.20
  -1   3   7  576.94   43.30
  -3  -1   7  595.54   43.60
   1  -3   7  572.04   43.20
   0   3  -7   21.60    4.40
   3   0  -7   22.00    2.40
   0  -3  -7   23.50    2.40
   3   0  -7   19.50    3.90
   0  -3  -7   16.90    4.10
  -3   0  -7   23.50    2.80
   0   3  -7   28.30    3.50
   3   0  -7   23.20    2.60
  -3   0  -7   27.10    2.40
   0   3  -7   17.60    2.30
   0  -3  -7   21.00    2.60
   0   3  -7   19.20    2.70
   0   3  -7   20.40    2.50
  -3   0  -7   29.30    2.80
  -3   0  -7   24.40    2.90
   0  -3   7   23.20    2.60
  -3   0   7   23.30    2.80
   0   3   7   22.90    2.60
   0  -3   7   20.70    2.50
  -3   0   7   23.40    2.80
   1   3  -7  615.04   44.10
   3  -1  -7  516.65   44.70
  -3   1  -7  644.74   44.50
  -3   1  -7  651.03   44.40
  -1  -3  -7  645.64   44.00
  -3   1  -7  603.84   44.40
   1   3  -7  570.24   43.90
   3  -1  -7  614.24   43.70
  -1  -3  -7  704.63   46.70
  -1  -3  -7  661.83   43.80
   1   3  -7  604.74   44.10
   1   3  -7  579.14   44.90
   3  -1  -7  602.84   44.10
   1   3  -7  586.64   45.70
   3  -1  -7  522.15   47.40
  -3   1  -7  568.44   43.80
  -1  -3   7  642.04   44.00
  -1  -3   7  616.84   44.50
  -3   1   7  586.84   44.10
  -1  -3   7  609.94   43.90
  -1  -3   7  574.54   44.00
  -3   1   7  582.14   44.30
  -2  -3  -7 2052.39  132.59
  -3   2  -7 1655.73  130.79
  -3   2  -7 1672.73  130.09
   2   3  -7 1761.02  131.29
   3  -2  -7 1557.94  133.39
   3  -2  -7 1886.51  130.39
   3  -2  -7 1842.52  130.39
  -2  -3  -7 1800.52  129.79
   2   3  -7 1734.73  130.29
  -3   2  -7 1823.22  130.79
   3  -2  -7 1795.32  129.79
   2   3  -7 1903.41  130.49
  -2  -3  -7 1972.60  130.29
  -3   2  -7 1936.81  130.79
  -3   2  -7 1847.82  130.49
   2   3  -7 1725.63  132.09
  -2  -3  -7 1945.31  129.79
   2   3  -7 1711.93  130.19
  -2  -3   7 1841.92  130.19
  -2  -3   7 1856.11  130.39
  -2  -3   7 1755.52  130.19
  -3   2   7 1821.72  130.39
  -2  -3   7 2084.59  130.19
   3  -2   7 1556.64  129.99
  -3  -3  -7   97.09    9.30
   3   3  -7   92.19    8.50
  -3  -3  -7   85.19    6.90
  -3   3  -7   83.19    7.30
   3  -3  -7   88.79   10.70
  -3  -3  -7   98.19    7.50
   3   3  -7   82.79    7.30
  -3   3  -7   88.79    8.10
   3   3  -7   90.59    7.40
   3  -3  -7   89.99    6.90
  -3  -3  -7   91.49    6.80
  -3   3  -7   91.89    7.90
   3   3  -7   73.59    9.20
   3   3  -7  104.79    8.10
  -3   3  -7   93.19    7.60
   3  -3   7   72.09    7.10
  -3  -3   7   87.19    7.30
  -3  -3   7   84.79    7.50
  -3  -3   7   85.69    7.40
  -3  -3   7   96.19    7.30
  -3   3   7   95.29    7.50
  -3   4  -7   82.59    7.70
   4   3  -7   83.99    9.30
   4   3  -7   78.69    6.80
   4   3  -7   82.39    7.90
  -4  -3  -7   75.19    6.00
   4   3  -7   73.59    6.60
  -3   4  -7   77.69    6.80
  -3   4  -7   84.79    6.80
   3  -4  -7   77.79    6.80
  -4  -3  -7   81.89    6.80
   3  -4  -7   76.19    9.90
  -3   4  -7   77.09    7.40
  -4  -3   7   83.79    6.70
  -4  -3   7   83.69    6.70
  -4  -3   7   74.39    7.00
   3  -4   7   74.69    6.70
  -3   4   7   75.59    6.70
  -4  -3   7   77.79    6.80
   3  -4   7   77.19    6.60
  -2   4  -7  613.94   47.90
  -2   4  -7  671.03   48.90
  -2   4  -7  649.43   47.90
   4   2  -7  644.74   47.90
  -4  -2  -7  751.82   48.30
  -4  -2  -7  632.44   47.40
   4   2  -7  610.84   50.09
   4   2  -7  688.83   49.40
   4   2  -7  667.33   48.40
   2  -4  -7  701.03   48.00
   4   2  -7  666.43   48.00
   2  -4  -7  703.43   51.39
  -2   4  -7  659.43   48.50
   2  -4   7  581.44   47.80
  -2   4   7  645.04   47.90
  -4  -2   7  684.63   48.00
  -4  -2   7  658.43   48.00
  -4  -2   7  649.74   48.30
  -4  -2   7  652.23   47.80
   1  -4  -7  573.54   43.20
   4   1  -7  451.15   42.00
  -1   4  -7  499.15   40.20
  -1   4  -7  579.74   40.80
  -4  -1  -7  551.74   39.90
  -4  -1  -7  592.74   40.70
  -4  -1  -7  601.84   39.90
   1  -4  -7  597.74   40.40
  -1   4  -7  520.65   40.30
   4   1  -7  537.15   40.30
   4   1  -7  566.24   40.30
   1  -4  -7  620.74   39.60
  -1   4  -7  542.55   41.20
  -4  -1   7  544.75   40.70
  -4  -1   7  531.65   40.30
  -1   4   7  542.05   40.30
  -4  -1   7  528.45   40.20
   1  -4   7  520.15   40.20
   1  -4   7  555.24   40.20
  -4  -1   7  569.24   40.50
   4   0  -7    1.30    1.00
   4   0  -7   -0.10    1.70
   0   4  -7    0.10    1.10
  -4   0  -7    3.10    1.30
   0  -4  -7    0.80    0.90
  -4   0  -7    1.80    0.70
   0  -4  -7    1.70    2.30
   4   0  -7    3.70    1.10
  -4   0  -7    1.60    1.20
  -4   0  -7    0.90    0.80
   0   4  -7    0.90    0.90
  -4   0   7    6.60    1.70
   0   4   7    2.70    1.00
   0  -4   7    3.80    1.10
  -4   0   7    1.10    1.00
  -4   0   7    2.00    1.20
   0  -4   7    2.10    1.00
   0  -4   7    2.60    1.20
   4  -1  -7  582.24   40.70
  -1  -4  -7  546.65   40.50
  -1  -4  -7  604.74   40.80
  -1  -4  -7  629.14   43.40
  -4   1  -7  560.64   41.40
   4  -1  -7  476.45   41.80
  -4   1  -7  575.64   40.80
   1   4  -7  522.45   40.80
   4  -1  -7  565.74   41.00
  -4   1  -7  525.15   41.10
  -4   1  -7  593.14   41.50
   1   4  -7  595.34   43.20
   1   4  -7  508.05   40.90
   1   4  -7  548.75   41.80
   1   4  -7  597.34   41.00
  -4   1   7  539.45   41.40
  -4   1   7  542.65   41.00
  -1  -4   7  527.75   40.80
  -1  -4   7  533.25   40.90
  -1  -4   7  643.44   41.00
  -4   2  -7  659.63   49.80
  -2  -4  -7  655.43   49.30
   2   4  -7  685.33   50.99
  -2  -4  -7  735.43   49.90
  -2  -4  -7  764.52   51.99
   4  -2  -7  631.54   50.29
  -4   2  -7  701.33   50.39
  -2  -4  -7  732.63   49.40
  -4   2  -7  718.53   50.49
   2   4  -7  663.43   49.90
   4  -2  -7  684.23   49.50
   2   4  -7  648.74   49.90
  -4   2  -7  650.73   50.39
   2   4  -7  690.53   52.09
   4  -2  -7  676.93   49.99
  -4   2  -7  700.83   50.59
  -2  -4   7  688.03   49.99
  -4   2   7  660.03   50.49
  -2  -4   7  631.64   49.80
  -4   2   7  668.73   50.09
  -2  -4   7  763.92   49.90
  -2  -4   7  698.43   49.80
   3   4  -7   79.69    6.80
  -4   3  -7   78.59    6.80
   4  -3  -7   80.89    7.00
  -3  -4  -7   76.59    6.20
   4  -3  -7   78.29    6.80
   3   4  -7   77.19    9.30
  -4   3  -7   91.69    7.80
  -3  -4  -7   90.19    6.20
   3   4  -7   78.09    7.80
   4  -3  -7   74.09   10.00
  -3  -4  -7   96.29    8.70
  -4   3  -7   76.49    7.40
  -4   3  -7   88.69    7.20
  -3  -4  -7   90.49    6.90
   3   4  -7   78.39    6.80
  -3  -4   7   83.99    6.70
  -3  -4   7   73.09    6.80
  -3  -4   7   68.59    6.90
   4  -3   7   70.59    6.60
  -4   3   7   82.19    7.00
  -3  -4   7   83.19    6.80
  -4  -4  -7  247.28   17.60
  -4   4  -7  258.47   19.50
   4   4  -7  215.68   19.30
   4   4  -7  242.48   18.30
   4  -4  -7  245.78   18.50
  -4  -4  -7  273.07   18.50
  -4   4  -7  236.08   18.60
   4   4  -7  220.28   20.70
  -4  -4  -7  285.07   20.20
  -4   4  -7  241.48   18.50
   4  -4  -7  221.58   17.70
   4  -4  -7  222.58   22.00
   4   4  -7  235.68   18.50
  -4  -4   7  257.37   18.40
  -4   4   7  230.88   18.50
  -4  -4   7  245.78   18.80
  -4  -4   7  276.47   18.50
  -4  -4   7  228.28   18.30
   4  -4   7  214.48   18.20
   5   4  -7   14.10    3.30
  -4   5  -7   14.30    2.50
  -5  -4  -7   14.00    2.50
   4  -5  -7   18.20    5.40
  -4   5  -7   12.90    3.10
  -4   5  -7   14.10    2.50
   4  -5  -7   15.30    2.60
   5   4  -7   17.20    2.50
  -5  -4  -7   16.20    1.50
   5   4  -7   14.00    2.60
   5   4  -7   13.60    4.50
   4  -5   7   12.90    2.50
  -5  -4   7   14.30    2.80
  -4   5   7   13.00    2.50
  -5  -4   7   15.60    2.60
  -5  -4   7   14.10    2.20
   4  -5   7   13.10    2.20
  -5  -4   7   21.10    2.90
   5   3  -7  132.29   13.00
  -3   5  -7  141.39   10.30
   5   3  -7  110.09   11.10
  -5  -3  -7  141.79   10.40
  -5  -3  -7  123.39    9.40
   3  -5  -7  122.69    9.80
  -3   5  -7  122.99   10.90
  -3   5  -7  119.69   10.20
   5   3  -7  125.09   10.00
  -3   5  -7  135.39   11.40
   5   3  -7  125.79   10.20
   3  -5  -7  129.89   10.20
   3  -5  -7  122.39   13.30
  -5  -3   7  128.69   10.20
   3  -5   7  128.69   10.10
  -5  -3   7  124.59   10.10
  -5  -3   7  121.09   10.20
  -3   5   7  126.19   10.20
   3  -5   7  101.89    9.80
  -5  -3   7  125.39   10.60
  -2   5  -7  818.32   55.79
  -2   5  -7  757.02   55.19
  -2   5  -7  694.33   54.49
  -5  -2  -7  721.43   53.99
   5   2  -7  765.02   54.59
  -5  -2  -7  843.72   54.89
   5   2  -7  766.82   54.49
   2  -5  -7  745.23   57.59
   2  -5  -7  787.02   53.79
  -2   5  -7  748.13   54.49
   2  -5  -7  791.12   54.49
  -2   5   7  743.03   54.39
   2  -5   7  657.23   54.29
  -5  -2   7  712.63   54.99
  -5  -2   7  783.42   54.69
  -5  -2   7  736.03   54.59
   2  -5   7  676.63   54.29
   5   1  -7  902.71   75.59
   1  -5  -7 1128.79   73.49
   5   1  -7 1067.09   73.59
  -1   5  -7 1007.80   74.49
  -5  -1  -7 1089.79   73.99
   1  -5  -7 1082.19   76.49
   5   1  -7  987.30   73.49
  -5  -1  -7  998.90   73.09
  -1   5  -7 1031.50   73.99
  -1   5  -7  964.00   73.49
  -5  -1  -7 1120.99   72.89
  -5  -1   7 1009.00   74.09
  -5  -1   7 1025.90   73.69
   1  -5   7 1010.70   73.39
   1  -5   7  936.71   73.39
  -1   5   7  985.40   73.39
  -5  -1   7  935.01   73.59
  -5  -1   7 1010.50   73.59
  -5   0  -7 1639.84  112.69
   0  -5  -7 1635.54  111.89
   0   5  -7 1555.54  112.39
   5   0  -7 1621.34  111.99
   0  -5  -7 1631.24  114.59
  -5   0  -7 1529.35  111.79
   5   0  -7 1571.94  112.09
   0   5  -7 1432.46  111.99
  -5   0  -7 1478.35  111.79
   0   5  -7 1588.54  113.09
   0  -5   7 1537.75  111.99
   0  -5   7 1532.15  111.89
  -5   0   7 1605.44  112.29
   0   5   7 1482.65  111.89
  -5   0   7 1547.85  112.79
   0  -5   7 1505.05  112.09
  -5   0   7 1601.84  112.19
   1   5  -7  983.80   74.59
   1   5  -7 1033.10   75.39
  -5   1  -7 1039.70   75.09
  -5   1  -7 1045.30   74.29
  -1  -5  -7 1055.39   73.89
  -1  -5  -7 1112.09   76.79
   1   5  -7  981.70   74.39
   5  -1  -7 1071.59   74.19
  -1  -5  -7 1101.39   74.19
   5  -1  -7 1007.10   74.49
   5  -1  -7  852.01   75.49
  -5   1  -7 1024.20   74.59
  -1  -5   7 1121.09   74.19
  -1  -5   7  997.70   74.39
  -5   1   7 1006.30   74.69
  -5   1   7 1023.10   74.69
  -1  -5   7 1102.09   74.59
  -5   1   7 1001.70   75.19
   1   5   7  988.60   74.29
  -5   2  -7  755.82   55.89
   2   5  -7  725.13   55.89
  -5   2  -7  773.72   56.39
  -2  -5  -7  814.32   55.69
   2   5  -7  743.93   55.79
   2   5  -7  802.92   58.49
   5  -2  -7  752.32   55.99
   2   5  -7  732.43   56.79
  -2  -5  -7  758.92   55.09
   5  -2  -7  775.62   55.49
  -5   2  -7  780.02   56.59
  -2  -5  -7  877.51   58.09
   5  -2  -7  684.43   56.49
  -5   2  -7  774.72   56.39
  -5   2   7  729.73   56.69
  -2  -5   7  831.12   55.99
  -2  -5   7  822.12   55.69
  -5   2   7  759.42   56.09
  -2  -5   7  726.83   55.89
  -2  -5   7  759.22   55.69
  -5   3  -7  133.19   11.50
  -3  -5  -7  140.09   10.10
  -5   3  -7  126.49   10.90
   5  -3  -7  132.59   10.40
   5  -3  -7  114.79   10.40
   5  -3  -7  105.29   13.60
  -5   3  -7  134.49   10.40
   3   5  -7  118.99   10.20
   3   5  -7  109.29   11.00
   3   5  -7  119.39   10.20
  -5   3  -7  132.09   10.70
  -3  -5  -7  122.09    9.30
  -3  -5  -7  139.79   11.90
  -3  -5   7  136.19   10.30
  -3  -5   7  137.09   10.10
  -3  -5   7  126.09   10.40
  -5   3   7  129.89   10.50
  -3  -5   7  113.99   10.10
   4   5  -7   15.00    3.50
   4   5  -7   13.90    2.40
   4   5  -7    9.30    4.00
  -4  -5  -7   16.90    3.90
   5  -4  -7   16.20    2.40
  -4  -5  -7   17.30    1.50
  -5   4  -7   19.10    2.80
  -5   4  -7   21.80    2.80
   5  -4  -7   16.90    2.70
   4   5  -7   13.90    2.50
  -4  -5  -7   21.80    2.60
   5  -4  -7   11.70    4.90
  -5   4  -7   29.10    4.30
  -4  -5   7   23.70    2.60
  -4  -5   7   10.50    2.30
  -5   4   7   14.30    2.70
  -4  -5   7   15.60    2.30
  -4  -5   7   13.50    2.60
   5   5  -7    3.70    1.40
   5   5  -7    2.50    1.80
   5   5  -7    1.20    2.80
   5  -5  -7    3.60    0.90
   5   5  -7    1.60    1.30
   5  -5  -7    1.50    1.20
  -5  -5  -7    3.10    0.50
  -5   5  -7    1.80    1.40
  -5   5  -7    2.70    2.00
   5  -5  -7    4.00    3.70
  -5   5  -7    3.80    1.40
  -5  -5   7    0.50    1.40
  -5  -5   7    1.20    1.40
  -5   5   7    1.30    1.30
  -5  -5   7    3.90    1.50
  -5  -5   7    2.90    1.30
   5  -5   7    3.30    1.30
   5  -6  -7  468.95   37.40
  -5   6  -7  516.65   39.20
   6   5  -7  504.25   39.00
   6   5  -7  515.95   37.50
   6   5  -7  548.25   40.90
  -5   6  -7  494.65   37.80
   5  -6  -7  440.76   41.60
   6   5  -7  494.15   37.70
   5  -6  -7  492.15   37.60
  -6  -5  -7  506.85   36.40
  -6  -5   7  564.44   38.00
  -5   6   7  528.55   37.90
   5  -6   7  492.95   37.50
  -6  -5   7  529.15   37.80
  -6  -5   7  496.35   37.50
   5  -6   7  504.75   37.60
  -6  -5   7  507.65   38.20
  -6  -4  -7   31.30    2.90
   4  -6  -7   33.10    3.90
   6   4  -7   28.00    5.00
  -4   6  -7   34.10    3.90
   4  -6  -7   34.30    3.50
   6   4  -7   55.19    7.70
  -6  -4  -7   43.20    4.30
   6   4  -7   34.40    4.00
   6   4  -7   29.30    3.60
  -4   6  -7   34.70    5.50
   4  -6  -7   30.20    7.10
  -6  -4   7   37.10    4.00
  -6  -4   7   29.90    4.00
  -6  -4   7   35.00    4.40
  -6  -4   7   37.30    4.10
  -4   6   7   36.80    4.00
   4  -6   7   31.00    4.00
   4  -6   7   31.10    3.70
   3  -6  -7  386.36   28.10
   6   3  -7  372.16   28.30
   6   3  -7  345.97   30.70
   3  -6  -7  375.16   31.80
  -6  -3  -7  407.56   28.50
  -3   6  -7  350.66   28.10
  -3   6  -7  419.56   29.80
   6   3  -7  379.96   28.00
  -6  -3  -7  381.86   27.50
   3  -6  -7  385.16   27.40
  -6  -3   7  399.36   28.40
  -6  -3   7  393.26   28.90
   3  -6   7  352.56   27.90
  -6  -3   7  362.86   28.20
  -3   6   7  382.76   28.10
   3  -6   7  332.47   27.90
  -6  -3   7  377.76   28.30
  -6  -2  -7 1106.09   75.19
   6   2  -7 1088.79   74.89
  -2   6  -7  943.61   74.59
   6   2  -7 1025.50   74.69
   6   2  -7  932.11   77.19
  -2   6  -7 1093.99   76.09
  -6  -2  -7 1046.40   74.29
   2  -6  -7 1064.39   74.59
   2  -6  -7 1081.89   78.29
  -2   6  -7 1016.30   75.49
  -6  -2   7 1008.50   74.79
  -2   6   7 1036.40   74.59
  -6  -2   7  994.20   74.99
   2  -6   7  969.90   74.59
  -6  -2   7 1028.00   75.49
   2  -6   7  977.10   74.49
  -6  -2   7 1124.29   75.09
  -6  -1  -7  691.73   48.90
  -6  -1  -7  735.53   48.30
  -1   6  -7  677.23   50.29
   6   1  -7  614.74   51.49
   1  -6  -7  746.33   49.00
   1  -6  -7  697.83   52.19
   6   1  -7  709.93   49.30
   6   1  -7  693.43   49.20
  -1   6  -7  665.03   49.80
  -1   6  -7  606.04   49.00
  -6  -1   7  687.43   49.50
  -6  -1   7  669.33   49.40
   1  -6   7  656.63   49.10
  -1   6   7  666.23   49.00
  -6  -1   7  656.73   49.99
  -6  -1   7  578.74   49.50
   1  -6   7  675.63   49.00
   0  -6  -7    4.50    2.70
   0   6  -7    6.20    2.10
   0  -6  -7    3.80    1.20
   0   6  -7    1.90    1.40
   6   0  -7    1.30    1.10
   6   0  -7   -0.40    2.20
   6   0  -7    4.10    1.50
  -6   0  -7    2.00    0.90
   0   6  -7    5.60    1.40
  -6   0  -7    0.40    0.80
  -6   0   7    5.30    1.90
   0  -6   7   -0.10    0.80
   0  -6   7    0.80    0.80
  -6   0   7    2.80    1.60
   0  -6   7    1.50    1.00
   0  -6   7    0.80    1.30
  -6   0   7    3.80    1.90
  -6   0   7    2.60    1.30
  -1  -6  -7  731.03   51.49
  -1  -6  -7  741.43   48.80
   6  -1  -7  695.63   49.00
   1   6  -7  680.03   49.40
  -6   1  -7  598.94   49.00
   1   6  -7  675.13   49.10
   6  -1  -7  688.13   49.30
   6  -1  -7  544.65   50.39
  -1  -6  -7  671.73   48.40
  -6   1  -7  719.53   49.10
   1   6  -7  685.23   50.19
  -6   1   7  649.64   50.09
   1   6   7  662.23   48.90
  -1  -6   7  680.23   48.90
  -6   1   7  665.03   49.40
  -1  -6   7  760.52   49.50
  -1  -6   7  568.84   48.90
   6  -2  -7  894.51   76.59
  -6   2  -7 1106.29   75.99
   2   6  -7 1059.49   75.99
   2   6  -7 1009.50   76.79
   2   6  -7 1038.90   75.79
  -2  -6  -7 1006.30   74.79
  -2  -6  -7 1131.69   75.49
  -2  -6  -7 1153.78   77.89
   6  -2  -7 1043.60   76.79
  -6   2  -7  994.40   76.09
   6  -2  -7 1036.20   75.99
  -2  -6   7 1043.60   75.89
  -6   2   7 1026.30   76.99
  -2  -6   7  990.70   75.59
  -2  -6   7 1173.68   76.09
  -6   2   7 1037.10   76.19
   3   6  -7  369.86   28.20
  -3  -6  -7  422.06   28.30
  -6   3  -7  390.36   29.00
   6  -3  -7  310.87   32.00
   6  -3  -7  360.46   28.70
  -6   3  -7  337.47   29.40
   6  -3  -7  366.96   28.40
  -6   3  -7  409.36   28.60
  -3  -6  -7  438.46   30.20
   3   6  -7  360.06   28.30
   3   6  -7  356.76   29.20
  -3  -6   7  373.06   28.40
  -3  -6   7  380.36   28.10
  -6   3   7  331.17   32.50
  -3  -6   7  400.66   28.40
  -6   3   7  400.36   28.70
   4   6  -7   36.60    4.00
   4   6  -7   32.00    5.20
   6  -4  -7   30.90    7.90
  -6   4  -7   28.80    4.70
  -6   4  -7   41.30    4.50
   4   6  -7   32.20    6.60
   6  -4  -7   28.10    3.80
   4   6  -7   37.30    3.90
  -6   4  -7   44.00    4.40
   6  -4  -7   29.60    3.80
  -4  -6  -7   37.90    5.70
  -6   4   7   33.80    4.20
  -4  -6   7   42.90    4.30
  -6   4   7   22.10    5.70
  -4  -6   7   28.10    3.90
  -4  -6   7   34.60    3.80
   5   6  -7  522.75   39.90
   5   6  -7  497.25   36.90
   6  -5  -7  470.15   36.90
   6  -5  -7  467.45   36.20
  -6   5  -7  496.75   38.10
   5   6  -7  485.25   38.10
   6  -5  -7  432.36   41.30
  -6   5  -7  574.54   37.50
  -6   5  -7  507.15   37.30
  -5  -6   7  513.15   36.90
   6  -5   7  478.65   36.80
  -5  -6   7  480.15   37.10
  -6   5   7  506.45   37.30
  -5  -6   7  498.95   36.70
   6   6  -7  904.01   65.79
   6  -6  -7  829.12   63.09
   6  -6  -7  785.42   64.19
  -6   6  -7  855.81   64.59
   6  -6  -7  788.92   69.09
  -6   6  -7  907.41   65.89
   6   6  -7  837.52   64.29
   6  -6  -7  903.71   64.39
   6   6  -7  874.61   67.19
  -6   6   7  917.71   64.79
  -6  -6   7  914.21   64.39
  -6  -6   7  876.21   64.09
  -6  -6   7  894.21   64.79
   6  -6   7  883.01   64.19
   6  -6   7  996.90   64.39
  -6   7  -7  183.68   15.80
   6  -7  -7  184.88   15.70
  -6   7  -7  203.28   17.40
   6  -7  -7  199.38   15.40
   7   6  -7  183.28   16.90
   6  -7  -7  170.18   20.20
  -7  -6  -7  202.58   14.20
   7   6  -7  175.28   15.70
  -6   7   7  194.58   16.10
   6  -7   7  201.88   15.60
  -7  -6   7  209.48   16.50
  -7  -6   7  199.38   15.70
  -7  -6   7  188.78   15.70
   6  -7   7  219.28   15.80
  -5   7  -7  363.86   26.30
   5  -7  -7  311.97   24.10
  -5   7  -7  311.77   24.30
   5  -7  -7  334.87   23.70
   7   5  -7  328.37   27.40
   5  -7  -7  262.37   28.10
   7   5  -7  314.27   24.40
  -7  -5  -7  308.77   23.00
   7   5  -7  277.57   25.30
  -7  -5   7  356.76   24.80
  -7  -5   7  287.97   24.10
  -5   7   7  323.97   24.40
  -7  -5   7  325.67   24.40
   5  -7   7  311.57   24.10
  -7  -5   7  328.27   25.00
   5  -7   7  304.97   24.00
   7   4  -7   22.90    5.50
   4  -7  -7    9.10    4.70
   7   4  -7    1.60    1.50
   7   4  -7    3.60    1.50
  -4   7  -7    3.40    1.50
  -4   7  -7   16.50    3.80
   4  -7  -7    5.80    1.20
   4  -7  -7    2.10    1.30
  -7  -4   7    4.90    1.80
  -7  -4   7   10.60    2.50
  -7  -4   7    3.50    1.80
  -7  -4   7    1.50    1.70
   4  -7   7    4.90    1.80
   4  -7   7    2.70    1.30
  -4   7   7    2.50    1.40
   3  -7  -7   21.80    6.30
   7   3  -7   18.40    5.40
  -3   7  -7   24.30    4.60
   7   3  -7   22.30    3.60
   3  -7  -7   27.40    3.20
  -7  -3  -7   24.00    2.60
  -3   7  -7   21.60    3.00
   7   3  -7   21.60    3.30
  -3   7   7   24.80    3.10
   3  -7   7   20.50    3.20
  -7  -3   7   29.80    3.70
  -7  -3   7   21.40    4.00
  -7  -3   7   17.00    3.30
   3  -7   7   30.60    3.60
  -7  -3   7   27.80    3.60
  -7  -2  -7 1562.74  113.39
   7   2  -7 1567.24  113.99
   2  -7  -7 1708.73  113.59
   7   2  -7 1607.04  113.79
  -2   7  -7 1742.53  115.49
  -2   7  -7 1448.26  113.69
   7   2  -7 1528.05  116.69
   2  -7  -7 1581.94  117.39
  -7  -2   7 1510.95  114.29
  -7  -2   7 1595.34  114.29
  -2   7   7 1621.84  113.69
  -7  -2   7 1579.94  114.79
   2  -7   7 1601.84  113.69
   2  -7   7 1522.45  113.69
  -7  -2   7 1496.75  113.99
   7   1  -7  112.79    9.10
   7   1  -7  104.29   11.90
  -7  -1  -7  107.09    8.70
   1  -7  -7  120.09   12.10
   7   1  -7  106.39    9.20
  -1   7  -7  107.09   10.20
  -1   7  -7  100.39    8.80
   1  -7  -7  123.19    8.80
  -1   7  -7  101.69    9.70
  -7  -1   7  101.09    9.40
  -7  -1   7   89.49    9.40
  -7  -1   7  114.49   10.10
  -7  -1   7  117.39    9.50
   1  -7   7   98.79    8.90
  -1   7   7  107.89    8.80
   1  -7   7  107.29    9.00
   7   0  -7    6.20    1.80
   7   0  -7    1.70    2.70
   0   7  -7    2.70    1.80
  -7   0  -7    4.80    1.40
   0  -7  -7    2.10    1.20
   0   7  -7    6.50    2.30
   0   7  -7    7.40    1.70
   0  -7  -7    2.60    2.50
  -7   0  -7    2.40    1.00
   0  -7   7    1.50    1.20
   0   7   7    2.90    1.10
  -7   0   7    3.20    1.90
  -7   0   7    5.30    2.10
  -7   0   7    3.20    1.90
   0  -7   7    8.20    1.80
  -7   0   7    3.70    1.70
   7  -1  -7  105.29    9.20
   7  -1  -7   87.59   10.70
  -1  -7  -7  109.99    8.60
   1   7  -7  114.39    9.70
  -1  -7  -7  110.69   11.20
   1   7  -7  114.39   10.10
  -7   1  -7  117.49    9.10
  -1  -7  -7  108.09    8.30
   7  -1  -7  106.29    9.00
  -7   1  -7   90.29    8.80
   1   7  -7   99.39    8.90
  -1  -7   7  100.29    8.90
  -7   1   7   99.59   10.10
  -7   1   7  108.49    9.60
  -1  -7   7  122.49    9.50
  -1  -7   7  109.19    9.10
   1   7   7  114.29    8.80
  -7   1   7  112.79    9.60
  -7   2  -7 1757.12  116.69
   7  -2  -7 1580.34  116.69
  -7   2  -7 1565.84  116.69
   2   7  -7 1536.05  117.49
   7  -2  -7 1329.27  117.39
  -2  -7  -7 1654.23  115.29
   2   7  -7 1568.94  116.79
  -2  -7  -7 1758.22  118.69
   2   7  -7 1587.84  116.39
  -2  -7   7 1628.24  116.19
  -2  -7   7 1688.03  116.59
  -2  -7   7 1821.42  116.89
  -7   2   7 1429.96  117.69
   2   7   7 1640.74  116.19
  -7   2   7 1665.03  117.09
   7  -3  -7   18.10    3.70
   3   7  -7   21.70    3.10
  -7   3  -7   21.50    3.80
   7  -3  -7   31.40    7.60
  -7   3  -7   22.90    3.40
  -7   3  -7   19.10    4.30
   7  -3  -7   24.20    3.70
   3   7  -7   36.60    7.20
   3   7  -7   21.10    4.20
  -3  -7  -7   24.00    4.80
  -7   3   7   22.60    4.50
  -3  -7   7   23.80    3.40
  -3  -7   7   27.90    3.30
  -7   3   7   17.10    4.20
  -7   3   7   23.00    3.80
  -3  -7   7   23.00    3.20
   4   7  -7    3.20    2.10
  -7   4  -7    2.70    1.60
  -7   4  -7    2.50    1.90
  -4  -7  -7    4.70    2.70
   7  -4  -7    3.30    1.70
   7  -4  -7    2.30    1.70
   7  -4  -7    9.60    5.20
  -7   4  -7    2.70    2.30
   4   7  -7    3.50    3.40
   4   7  -7    3.40    1.50
  -4  -7   7    3.40    1.50
  -4  -7   7    9.30    2.20
  -7   4   7    2.90    2.30
  -4  -7   7    2.40    1.50
  -7   4   7    4.20    1.90
   5   7  -7  310.17   25.50
   5   7  -7  317.37   24.30
  -7   5  -7  324.47   25.50
   7  -5  -7  307.87   24.50
   7  -5  -7  283.77   23.80
   7  -5  -7  296.77   29.60
  -7   5  -7  376.36   25.40
  -5  -7   7  328.17   24.40
   7  -5   7  327.87   25.20
  -5  -7   7  317.07   24.10
  -7   5   7  332.07   25.00
  -5  -7   7  302.27   24.50
   7  -6  -7  190.48   15.40
   6   7  -7  187.78   15.30
   7  -6  -7  175.68   14.30
   7  -6  -7  162.88   15.30
   7  -6  -7  182.08   20.50
  -7   6  -7  192.78   16.60
   6   7  -7  193.18   16.60
  -6  -7   7  195.18   15.70
  -6  -7   7  202.88   15.40
  -7   6   7  192.08   15.90
  -6  -7   7  198.78   15.10
  -7   6   7  176.88   20.70
   7  -6   7  200.58   15.30
  -7   7  -7   23.80    5.10
   7  -7  -7   18.70    2.10
   7  -7  -7   24.90    3.70
  -7   7  -7   18.00    3.60
   7  -7  -7   20.10    7.10
   7  -7  -7   16.70    3.40
   7   7  -7   22.60    3.80
  -7  -7   7   22.50    3.40
  -7   7   7   22.60    4.20
  -7  -7   7   17.80    3.30
   7  -7   7   22.50    3.50
  -7  -7   7   18.90    3.80
   7  -7   7   28.10    4.00
  -7   8  -7  142.69   12.70
   7  -8  -7  122.99   17.20
  -7   8  -7  139.89   14.10
   7  -8  -7  123.89   12.20
   8   7  -7  144.09   12.60
   7  -8  -7  153.88   12.10
  -8  -7   7  143.89   12.40
  -8  -7   7  159.88   13.40
  -7   8   7  146.39   13.10
  -8  -7   7  145.69   12.70
   7  -8   7  161.48   12.60
   7  -8   7  156.58   12.50
  -6   8  -7   11.70    3.90
   8   6  -7    4.50    2.10
   6  -8  -7    5.10    2.00
  -8  -6  -7    4.80    0.90
   6  -8  -7    4.40    4.80
   6  -8  -7    4.20    1.40
  -6   8  -7    4.00    2.10
  -6   8   7   15.20    3.20
  -8  -6   7    5.00    2.40
   6  -8   7    6.80    2.30
  -8  -6   7    5.60    2.20
   6  -8   7    9.80    2.30
   8   5  -7   56.79   10.00
   5  -8  -7   49.60    5.30
  -8  -5  -7   50.49    4.40
   5  -8  -7   45.10   10.20
  -5   8  -7   47.10    5.50
   5  -8  -7   47.40    4.50
   8   5  -7   53.39    5.90
  -5   8  -7   56.69    7.30
  -8  -5   7   61.69    6.00
   5  -8   7   48.70    5.60
  -5   8   7   54.59    5.70
   5  -8   7   54.29    5.50
  -8  -5   7   56.49    6.30
  -8  -5   7   45.30    6.20
  -8  -5   7   57.09    6.00
  -4   8  -7  197.28   16.70
  -4   8  -7  234.38   18.90
   8   4  -7  211.78   17.20
  -8  -4  -7  200.08   15.90
   4  -8  -7  201.78   21.00
   4  -8  -7  192.68   15.50
   4  -8  -7  228.98   16.70
   8   4  -7  220.78   16.90
  -4   8   7  210.48   16.80
  -8  -4   7  222.08   17.10
  -8  -4   7  228.58   17.60
  -8  -4   7  210.88   17.80
  -8  -4   7  224.68   17.40
   4  -8   7  213.88   16.70
   4  -8   7  199.18   16.60
   8   3  -7  185.38   14.50
  -3   8  -7  204.18   16.50
   8   3  -7  173.18   17.80
  -8  -3  -7  175.08   13.90
   8   3  -7  167.78   14.80
   3  -8  -7  200.68   14.40
   3  -8  -7  156.78   17.90
  -3   8  -7  171.08   14.40
   3  -8   7  179.08   14.50
  -8  -3   7  177.28   15.10
  -8  -3   7  183.38   14.90
  -8  -3   7  167.98   15.50
  -3   8   7  189.58   14.50
   3  -8   7  177.78   14.40
  -8  -3   7  204.08   15.40
   2  -8  -7   85.59   10.80
   8   2  -7   94.69    8.30
  -8  -2  -7   81.49    7.30
   2  -8  -7   92.29    7.60
  -2   8  -7   80.19    7.70
   8   2  -7   84.39    7.80
   8   2  -7  107.59   11.70
  -2   8  -7   90.09    9.30
   2  -8   7   83.39    7.70
   2  -8   7   86.89    7.80
  -2   8   7   83.99    7.60
  -8  -2   7  109.89    8.70
  -8  -2   7   80.39    8.90
  -8  -2   7   80.59    8.50
  -8  -2   7  100.89    8.70
   8   1  -7  144.59   15.30
   1  -8  -7  155.08   15.40
   8   1  -7  148.59   12.30
   1  -8  -7  167.78   11.90
  -1   8  -7  144.79   12.10
   8   1  -7  156.28   12.60
  -1   8  -7  150.58   13.60
  -8  -1  -7  138.39   11.90
   1  -8   7  144.89   12.10
  -1   8   7  143.09   11.90
  -8  -1   7  120.39   12.80
  -8  -1   7  157.18   13.70
  -8  -1   7  156.88   12.90
   1  -8   7  169.58   12.30
  -8  -1   7  162.08   12.90
  -8   0  -7    0.90    1.00
  -8   0  -7    1.90    1.00
   0   8  -7    3.40    2.20
   8   0  -7    4.00    1.70
   8   0  -7    0.70    3.00
   8   0  -7    5.40    1.90
   0   8  -7    8.90    2.00
   0  -8  -7    1.90    2.70
  -8   0   7    0.80    1.60
  -8   0   7    6.20    2.40
   0  -8   7    3.40    1.60
   0  -8   7    1.60    1.50
  -8   0   7    3.20    2.00
  -8   0   7    7.60    2.30
   0  -8   7    0.90    1.20
   1   8  -7  147.69   13.00
   1   8  -7  147.89   11.80
   8  -1  -7  145.89   12.10
   8  -1  -7  154.78   12.00
  -8   1  -7  137.79   11.60
  -8   1  -7  146.89   11.90
  -1  -8  -7  143.19   11.00
  -8   1  -7  130.99   13.60
   8  -1  -7  118.29   13.70
  -1  -8  -7  168.48   14.70
  -8   1   7  130.59   13.00
  -8   1   7  146.59   12.60
  -1  -8   7  147.19   12.30
  -8   1   7  149.49   12.60
  -1  -8   7  156.98   11.90
  -8   1   7  135.79   13.20
  -1  -8   7  149.49   11.70
  -2  -8  -7   88.09    6.40
  -2  -8  -7   94.29    9.80
   2   8  -7   88.69    8.80
  -8   2  -7   91.39    7.90
  -8   2  -7   68.29    8.60
   8  -2  -7   71.09   12.50
  -8   2  -7   92.59    7.90
   8  -2  -7   77.69    7.90
   2   8  -7   85.09    7.60
   8  -2  -7   79.39    9.20
  -8   2   7   73.09    8.90
  -2  -8   7   84.39    7.60
  -2  -8   7   92.59    7.80
  -8   2   7   86.09    9.30
  -8   2   7   92.29    8.70
  -2  -8   7   89.19    8.00
  -8   2   7   88.09    8.30
   3   8  -7  191.88   14.40
  -8   3  -7  185.68   14.90
   8  -3  -7  170.28   14.60
   3   8  -7  162.68   15.30
  -8   3  -7  194.68   14.70
  -3  -8  -7  204.08   16.50
   8  -3  -7  170.18   19.00
   8  -3  -7  153.78   15.10
  -8   3   7  178.28   15.10
  -3  -8   7  179.28   14.40
  -8   3   7  145.29   15.70
  -8   3   7  171.48   16.10
  -3  -8   7  185.38   14.20
  -3  -8   7  197.88   14.70
  -8   4  -7  167.08   17.90
   4   8  -7  210.18   16.50
   8  -4  -7  210.08   21.90
  -8   4  -7  237.18   17.10
   4   8  -7  214.68   17.80
  -8   4  -7  217.78   17.40
   8  -4  -7  179.38   16.70
   8  -4  -7  209.48   16.90
  -4  -8   7  217.38   16.40
  -4  -8   7  222.08   16.70
  -8   4   7  214.08   17.40
  -4  -8   7  205.18   16.70
   8  -5  -7   48.40   10.70
  -8   5  -7   53.39    6.30
   8  -5  -7   44.20    5.20
  -8   5  -7   51.99    7.10
   8  -5  -7   49.30    5.70
   5   8  -7   48.30    5.20
   5   8  -7   47.90    6.40
  -5  -8   7   49.70    5.30
  -8   5   7   39.10    7.40
  -5  -8   7   54.39    5.60
  -8   5   7   54.69    6.20
   8  -6  -7    6.00    2.40
   8  -6  -7    7.90    1.90
   8  -6  -7    2.60    4.70
   6   8  -7    6.70    2.20
  -8   6  -7    7.10    2.80
  -8   6  -7    1.80    2.50
  -8   6   7    5.20    3.10
  -6  -8   7    5.60    2.20
  -6  -8   7    5.00    2.00
  -8   6   7    4.20    2.30
   8  -6   7    4.00    1.80
  -6  -8   7    6.50    2.10
   8  -7  -7  146.29   12.70
   8  -7  -7  137.79   11.10
   7   8  -7  139.69   12.40
   8  -7  -7  132.19   12.40
  -8   7  -7  159.18   14.00
   8  -7  -7  137.39   17.80
  -7  -8   7  144.29   12.20
   8  -7   7  154.58   12.50
  -8   7   7  149.29   13.40
  -7  -8   7  151.08   12.50
  -7  -8   7  150.68   12.90
   8  -8  -7  203.78   16.60
   8  -8  -7  191.38   16.90
   8  -8  -7  209.98   23.00
   8   8  -7  188.98   16.80
  -8   8  -7  205.68   18.50
  -8  -8   7  191.78   16.50
   8  -8   7  242.38   17.10
   8  -8   7  225.08   16.90
  -8  -8   7  205.48   17.00
  -8   8   7  201.88   17.70
  -8  -8   7  197.48   17.40
   8  -9  -7  431.86   41.50
  -8   9  -7  457.85   37.20
   9   8  -7  431.86   35.50
   8  -9  -7  391.46   35.10
   8  -9  -7  460.45   34.60
  -9  -8   7  483.95   35.10
  -9  -8   7  469.85   36.20
   8  -9   7  517.85   35.30
   8  -9   7  542.95   35.60
  -9  -8   7  468.35   35.70
  -8   9   7  422.16   36.20
   7  -9  -7  235.48   20.20
   7  -9  -7  230.88   25.90
  -9  -7  -7  240.08   18.50
  -7   9  -7  244.18   20.50
   7  -9  -7  254.57   19.50
   9   7  -7  252.67   20.80
  -7   9  -7  266.67   22.50
  -9  -7   7  247.48   20.70
  -9  -7   7  251.07   21.30
  -9  -7   7  260.17   20.40
  -7   9   7  249.78   21.10
   7  -9   7  289.37   20.40
   7  -9   7  295.07   20.60
   6  -9  -7  103.39    8.10
   6  -9  -7   87.09   15.50
   9   6  -7   94.59    9.50
  -6   9  -7   99.89   11.10
  -9  -6  -7   94.69    7.70
   6  -9  -7   99.69    9.00
  -6   9  -7   97.89    9.30
  -9  -6   7  102.69    9.50
  -9  -6   7  100.79   10.10
  -6   9   7   85.59    9.80
   6  -9   7  108.69    9.20
   6  -9   7  100.69    9.10
  -9  -6   7  102.59    9.60
   5  -9  -7  280.37   30.20
  -9  -5  -7  310.77   24.60
  -5   9  -7  386.26   28.50
   9   5  -7  322.67   26.20
   5  -9  -7  344.27   25.60
   5  -9  -7  305.57   24.60
  -5   9  -7  330.57   25.90
  -9  -5   7  363.56   27.10
   5  -9   7  358.36   25.70
  -9  -5   7  334.47   26.00
  -9  -5   7  337.27   27.10
   5  -9   7  357.86   25.90
  -9  -5   7  330.67   26.40
   9   4  -7   -0.20    1.50
  -4   9  -7    4.60    3.20
   9   4  -7   -3.80    2.90
   4  -9  -7    1.00    1.30
  -9  -4  -7    2.00    0.90
   4  -9  -7    3.50    3.80
  -4   9  -7    3.40    1.80
  -9  -4   7    2.10    2.10
  -9  -4   7    0.40    1.60
   4  -9   7    8.30    2.30
   4  -9   7    2.20    1.60
  -9  -4   7    0.90    1.90
  -9  -4   7   -0.50    1.70
   9   3  -7  347.97   25.50
   3  -9  -7  360.86   25.10
  -3   9  -7  385.06   27.90
   9   3  -7  298.47   28.40
  -9  -3  -7  316.97   24.70
  -3   9  -7  320.17   25.30
   9   3  -7  338.87   26.00
   3  -9  -7  308.57   29.40
  -9  -3   7  343.97   26.40
   3  -9   7  332.97   25.20
  -9  -3   7  350.36   25.90
  -9  -3   7  310.47   26.10
  -9  -3   7  326.27   26.80
   3  -9   7  302.97   25.20
   2  -9  -7  359.16   24.20
   9   2  -7  310.77   25.00
  -9  -2  -7  297.87   23.90
   2  -9  -7  302.17   28.00
   9   2  -7  314.97   27.80
   9   2  -7  315.77   24.60
  -2   9  -7  368.06   26.80
  -2   9  -7  316.17   24.40
  -9  -2   7  335.27   26.20
   2  -9   7  294.97   24.40
   2  -9   7  327.67   24.30
  -9  -2   7  330.77   25.50
  -9  -2   7  294.97   25.40
  -9  -2   7  320.07   25.10
  -9  -1  -7   82.19    7.10
  -1   9  -7   86.59    9.00
   9   1  -7  101.19   11.40
   9   1  -7   77.69    7.60
   1  -9  -7   82.39   10.50
   9   1  -7   80.19    7.90
  -1   9  -7   84.59    7.40
  -9  -1   7   71.19    8.60
   1  -9   7   82.79    7.50
   1  -9   7   82.19    7.40
  -9  -1   7   79.89    8.30
  -9  -1   7   66.89    8.30
  -9  -1   7   82.79    8.30
   0   9  -7  721.03   53.09
   9   0  -7  705.23   51.89
   9   0  -7  735.13   51.99
   0   9  -7  698.83   51.39
   9   0  -7  767.72   54.79
  -9   0  -7  657.03   51.19
   0  -9  -7  750.72   54.89
  -9   0  -7  705.73   50.79
   0  -9   7  659.03   52.09
  -9   0   7  610.54   52.69
  -9   0   7  705.03   52.19
  -9   0   7  728.53   52.59
   0  -9   7  753.82   51.59
  -9   0   7  658.63   53.19
   0  -9   7  667.43   51.19
   9  -1  -7   78.99    7.80
  -9   1  -7   83.49    7.40
  -9   1  -7   77.99    7.10
  -1  -9  -7   81.29    9.80
   9  -1  -7   77.09    9.90
   9  -1  -7   91.89    7.90
   1   9  -7   86.09    8.80
   1   9  -7   79.69    7.20
  -9   1  -7   66.39    8.40
  -9   1   7   85.39    8.60
  -9   1   7   76.19    9.10
  -9   1   7   78.69    8.90
  -1  -9   7   82.39    7.40
  -9   1   7   77.39    8.20
  -1  -9   7   76.79    7.90
  -1  -9   7   86.29    7.50
  -9   2  -7  314.57   24.20
   9  -2  -7  276.67   25.60
   9  -2  -7  300.97   24.50
   2   9  -7  285.77   25.10
  -9   2  -7  283.47   25.60
   2   9  -7  329.57   24.00
  -9   2  -7  329.27   24.20
  -2  -9  -7  349.27   26.70
   9  -2  -7  259.87   28.00
  -2  -9  -7  327.47   22.70
  -9   2   7  283.87   25.80
  -9   2   7  323.07   25.10
  -2  -9   7  344.77   24.80
  -9   2   7  314.87   25.10
  -2  -9   7  341.67   23.90
  -2  -9   7  336.37   24.20
  -9   2   7  286.67   25.90
   9  -3  -7  307.37   26.30
   9  -3  -7  314.57   25.60
   3   9  -7  320.17   26.40
   3   9  -7  327.97   25.00
  -9   3  -7  343.87   25.40
  -9   3  -7  356.66   25.70
  -3  -9  -7  382.46   27.60
   9  -3  -7  293.07   29.80
  -3  -9   7  334.57   25.30
  -9   3   7  343.67   26.40
  -3  -9   7  345.17   25.60
  -3  -9   7  332.37   24.80
  -9   3   7  287.57   27.00
  -9   3   7  288.07   27.00
   4   9  -7    1.40    1.50
   9  -4  -7    1.80    1.80
  -9   4  -7    0.70    2.20
  -9   4  -7    1.60    1.90
   9  -4  -7    1.10    2.00
  -9   4  -7   -0.90    1.40
   9  -4  -7    0.80    4.10
  -4  -9   7    1.40    1.70
  -9   4   7    2.40    2.70
  -9   4   7    0.50    2.40
  -4  -9   7    0.80    1.30
  -9   4   7    4.60    2.50
  -4  -9   7    2.10    1.70
   9  -5  -7  304.67   25.50
  -9   5  -7  362.86   26.30
   5   9  -7  342.07   25.10
   9  -5  -7  303.07   25.10
  -9   5  -7  269.37   27.00
   9  -5  -7  342.37   31.60
  -5  -9   7  344.37   24.90
  -5  -9   7  317.77   25.30
  -5  -9   7  331.97   25.30
  -9   5   7  350.26   26.50
   9  -6  -7   86.79    8.30
  -9   6  -7  103.69   10.10
   6   9  -7   99.89    8.80
   9  -6  -7   89.69    9.20
  -9   6  -7   92.19   10.90
  -6  -9   7  106.69    9.10
  -9   6   7   68.29   10.50
  -6  -9   7  103.89    8.70
  -9   6   7   95.09    9.90
  -6  -9   7  103.29    9.30
   9  -7  -7  265.57   27.10
   7   9  -7  244.58   20.50
  -9   7  -7  251.17   22.90
   9  -7  -7  232.48   20.70
   9  -7  -7  254.17   19.40
   9  -7  -7  255.27   21.00
  -9   7  -7  274.17   22.00
  -9   7   7  258.17   21.80
  -7  -9   7  274.77   21.10
  -7  -9   7  263.37   20.20
  -7  -9   7  252.37   20.60
   9  -7   7  272.77   20.60
  -9   8  -7  476.35   36.50
   9  -8  -7  433.46   33.20
   9  -8  -7  406.06   35.00
   8   9  -7  430.66   34.90
   9  -8  -7  417.86   40.90
   9  -8  -7  440.46   34.80
  -8  -9   7  467.75   35.20
  -8  -9   7  453.55   34.40
  -9   8   7  457.85   36.20
   9  -8   7  497.75   35.00
  -8  -9   7  449.56   35.40
   9  -8   7  542.35   35.10
   9  -9  -7   82.39    9.30
  -9   9  -7   92.19   10.70
   9  -9  -7   91.99   16.30
   9  -9  -7   90.49    8.70
   9   9  -7  101.49    9.60
  -9   9   7   86.39   10.20
  -9  -9   7  102.29    9.70
  -9  -9   7   98.19    9.00
  -9  -9   7   91.99    9.80
   9  -9   7  110.79    9.60
   9 -10  -7   46.60    6.60
   9 -10  -7   52.09    5.70
   9 -10  -7   57.89   13.70
  -9  10  -7   61.89    9.50
  10   9  -7   54.09    7.20
 -10  -9   7   61.89    6.50
   9 -10   7   65.79    6.90
   9 -10   7   70.49    7.30
 -10  -9   7   59.69    7.10
 -10  -9   7   58.49    7.60
   8 -10  -7    1.70    1.30
   8 -10  -7    3.00    4.80
  10   8  -7    2.30    2.40
  -8  10  -7    0.80    2.80
   8 -10  -7    2.30    2.20
 -10  -8   7    2.80    2.10
 -10  -8   7    4.50    2.50
   8 -10   7   -0.40    2.20
 -10  -8   7    1.30    2.30
   8 -10   7    2.30    2.10
  10   7  -7  244.08   20.80
   7 -10  -7  234.58   20.00
  -7  10  -7  240.28   22.40
  -7  10  -7  230.18   20.30
 -10  -7  -7  232.78   18.40
   7 -10  -7  249.58   19.00
   7 -10  -7  237.98   26.30
 -10  -7   7  248.18   21.40
 -10  -7   7  253.37   20.90
   7 -10   7  287.67   20.20
 -10  -7   7  267.67   20.40
   7 -10   7  297.57   20.50
   6 -10  -7  121.29   10.70
  10   6  -7  119.29   11.50
  -6  10  -7  123.89   13.30
  -6  10  -7  115.49   11.10
 -10  -6  -7  114.29    9.50
   6 -10  -7  106.29   18.00
 -10  -6   7  126.79   12.30
   6 -10   7  134.09   11.10
 -10  -6   7  123.89   11.60
 -10  -6   7  131.89   11.50
   6 -10   7  132.29   11.00
  -5  10  -7 1167.28   87.99
  -5  10  -7 1372.76   91.19
   5 -10  -7 1048.90   92.99
 -10  -5  -7 1155.18   86.69
   5 -10  -7 1231.58   87.69
  10   5  -7 1132.29   88.59
 -10  -5   7 1192.18   88.19
 -10  -5   7 1238.28   89.49
 -10  -5   7 1189.18   89.49
   5 -10   7 1273.17   87.69
   5 -10   7 1273.57   87.99
 -10  -5   7 1181.38   88.79
  -4  10  -7  526.35   38.80
  10   4  -7  469.65   36.70
   4 -10  -7  495.35   35.60
   4 -10  -7  436.36   40.70
 -10  -4  -7  443.86   34.90
  -4  10  -7  461.55   35.90
   4 -10   7  505.05   36.00
 -10  -4   7  489.65   37.40
 -10  -4   7  476.75   37.00
   4 -10   7  479.05   35.70
 -10  -4   7  488.05   36.50
 -10  -4   7  450.65   37.50
  10   3  -7  269.27   23.60
  -3  10  -7  237.38   19.60
   3 -10  -7  233.78   23.90
 -10  -3  -7  233.68   18.90
  10   3  -7  236.68   20.40
  -3  10  -7  292.57   22.60
   3 -10   7  243.08   19.50
 -10  -3   7  253.77   21.00
   3 -10   7  261.37   19.80
 -10  -3   7  245.68   20.80
 -10  -3   7  245.38   21.40
 -10  -3   7  266.27   20.50
 -10  -2  -7   74.69    6.50
  -2  10  -7   79.49    9.10
  10   2  -7   68.79    7.50
  10   2  -7   73.09    7.30
   2 -10  -7   54.89   10.50
  -2  10  -7   72.59    6.90
  10   2  -7   84.99   11.10
 -10  -2   7   68.99    8.00
 -10  -2   7   76.39    8.80
 -10  -2   7   65.99    8.00
   2 -10   7   68.09    7.00
   2 -10   7   72.39    7.00
 -10  -2   7   75.99    8.20
 -10  -1  -7  294.77   24.10
   1 -10  -7  309.47   28.00
  -1  10  -7  347.47   26.70
  10   1  -7  310.47   25.20
  -1  10  -7  318.07   24.50
  10   1  -7  325.27   25.00
  10   1  -7  361.36   28.50
 -10  -1   7  268.27   25.70
   1 -10   7  331.17   24.70
 -10  -1   7  314.87   26.60
 -10  -1   7  337.47   25.60
   1 -10   7  353.76   24.50
 -10  -1   7  300.67   25.70
  10   0  -7    0.40    1.60
   0  10  -7   -0.50    1.80
  10   0  -7    2.30    3.50
 -10   0  -7    2.70    1.40
   0  10  -7    1.20    1.50
  10   0  -7    0.60    1.90
 -10   0  -7    0.90    0.90
   0 -10  -7    3.50    3.00
   0 -10   7    0.80    1.50
   0 -10   7    1.40    1.60
   0 -10   7    0.50    1.70
 -10   0   7    1.90    2.10
 -10   0   7   -1.10    1.80
 -10   0   7    0.40    2.30
 -10   0   7    1.40    2.40
  10  -1  -7  297.47   25.00
  -1 -10  -7  341.47   27.60
   1  10  -7  324.67   24.40
  10  -1  -7  306.07   24.90
 -10   1  -7  329.27   24.10
   1  10  -7  304.57   25.90
  10  -1  -7  338.07   27.40
 -10   1  -7  291.37   28.30
 -10   1  -7  312.17   24.40
  -1 -10   7  331.07   24.30
 -10   1   7  285.47   26.20
  -1 -10   7  321.07   25.30
 -10   1   7  318.97   26.80
 -10   1   7  308.37   25.70
 -10   1   7  359.06   26.00
  -1 -10   7  328.47   24.60
   2  10  -7   76.39    7.00
 -10   2  -7   73.79    7.00
 -10   2  -7   73.59    7.10
  10  -2  -7   63.59    9.10
  -2 -10  -7   78.89    9.50
 -10   2  -7   61.69    8.50
  10  -2  -7   66.19    7.60
 -10   2   7   75.69    9.10
  -2 -10   7   78.89    7.20
 -10   2   7   63.59    8.90
 -10   2   7   67.59    8.70
 -10   2   7   70.29    8.00
  -2 -10   7   77.69    7.10
  -2 -10   7   82.19    7.80
 -10   3  -7  258.47   19.90
  10  -3  -7  232.68   21.10
 -10   3  -7  267.87   20.10
  -3 -10  -7  295.27   22.40
   3  10  -7  241.48   19.50
 -10   3  -7  216.68   21.50
  10  -3  -7  224.88   20.20
  -3 -10   7  254.07   19.80
 -10   3   7  237.08   22.10
 -10   3   7  246.98   21.10
  -3 -10   7  259.37   20.20
  -3 -10   7  258.97   19.40
 -10   3   7  223.98   21.80
 -10   3   7  279.17   21.50
  10  -4  -7  433.16   35.50
 -10   4  -7  505.75   35.60
  10  -4  -7  440.66   35.70
  10  -4  -7  446.46   40.70
 -10   4  -7  480.65   35.20
   4  10  -7  464.95   34.80
  -4 -10   7  451.15   35.20
  -4 -10   7  499.35   34.60
 -10   4   7  414.66   37.30
  -4 -10   7  488.85   35.20
 -10   4   7  465.25   36.40
 -10   4   7  428.36   37.40
  10  -5  -7 1188.18   91.29
  10  -5  -7 1081.59   84.59
   5  10  -7 1172.78   84.49
 -10   5  -7 1305.37   85.69
  10  -5  -7 1042.80   85.09
  -5 -10   7 1152.68   84.89
 -10   5   7 1137.09   86.09
 -10   5   7  987.30   87.09
  -5 -10   7 1215.48   84.89
  -5 -10   7 1296.67   84.19
   6  10  -7  111.99   10.20
 -10   6  -7  131.09   11.50
  10  -6  -7  123.49   10.20
 -10   6  -7  110.79   12.60
  10  -6  -7   98.79   10.90
  10  -6  -7  121.49   16.60
  10  -6  -7  113.69   11.00
  -6 -10   7  121.59   10.00
 -10   6   7   84.79   12.20
  -6 -10   7  117.59   10.70
  -6 -10   7  114.49   10.50
 -10   6   7  114.29   11.80
 -10   7  -7  279.87   21.10
  10  -7  -7  237.28   20.30
  10  -7  -7  242.88   18.70
 -10   7  -7  211.78   21.70
  10  -7  -7  250.07   26.50
   7  10  -7  248.68   19.70
  10  -7  -7  223.88   20.10
  -7 -10   7  271.77   19.20
  -7 -10   7  252.87   20.10
 -10   7   7  179.48   26.50
  -7 -10   7  242.58   19.80
 -10   7   7  240.78   21.10
 -10   8  -7    0.10    2.30
 -10   8  -7    3.70    3.20
   8  10  -7    1.40    2.00
  10  -8  -7   -2.00    1.90
  10  -8  -7    0.40    1.80
  10  -8  -7    3.10    1.40
  10  -8  -7    3.00    5.30
  -8 -10   7    1.30    2.00
  -8 -10   7    1.90    1.90
  10  -8   7    0.90    2.00
 -10   8   7    3.40    2.80
  -8 -10   7    1.90    1.90
  10  -9  -7   53.29    7.30
   9  10  -7   63.49    7.30
  10  -9  -7   60.69    6.60
 -10   9  -7   54.79    8.70
  10  -9  -7   59.19   13.10
 -10   9  -7   63.79    8.20
 -10   9   7   52.99    8.00
  -9 -10   7   61.29    7.60
  10  -9   7   70.19    7.20
  10  -9   7   73.29    7.70
  -9 -10   7   59.69    7.10
  10 -10  -7   66.19   15.10
 -10  10  -7   66.79   10.30
  10  10  -7   81.29    8.90
  10 -10  -7   82.99    7.80
 -10  10  -7   83.19   10.00
  10 -10  -7   64.09    8.50
  10 -10   7   91.09    8.70
 -10 -10   7   80.49    9.30
 -10 -10   7   83.49    8.90
  10 -10   7  103.19    9.10
   9 -11  -7   27.10    5.20
  -9  11  -7   34.90    6.90
  11   9  -7   31.00    6.00
   9 -11  -7   30.00    3.70
   9 -11  -7   33.80   10.50
   9 -11   7   33.90    5.20
 -11  -9   7   30.50    6.00
 -11  -9   7   34.10    5.50
   9 -11   7   41.30    5.90
  -8  11  -7   19.40    5.80
   8 -11  -7   19.50    4.10
  11   8  -7   25.10    5.10
   8 -11  -7   14.70    7.60
   8 -11   7   22.90    4.10
   8 -11   7   24.50    8.10
 -11  -8   7   22.40    4.00
   8 -11   7   20.60    4.00
 -11  -8   7   18.50    4.30
 -11  -8   7   16.40    4.60
 -11  -7  -7    5.10    1.10
  -7  11  -7    6.00    2.60
   7 -11  -7    8.40    5.90
  11   7  -7    9.30    3.40
   7 -11  -7    6.30    2.50
  -7  11  -7    9.70    4.60
 -11  -7   7    2.20    2.70
   7 -11   7    8.80    3.00
 -11  -7   7   10.50    3.30
   7 -11   7    5.40    2.60
 -11  -7   7    7.60    3.00
 -11  -6  -7  239.08   18.50
  11   6  -7  235.28   20.90
  -6  11  -7  254.87   22.90
   6 -11  -7  228.68   19.60
   6 -11  -7  204.18   24.80
  -6  11  -7  246.28   20.20
 -11  -6   7  250.07   20.90
 -11  -6   7  251.67   20.40
   6 -11   7  279.57   20.20
   6 -11   7  274.77   19.90
 -11  -6   7  245.68   21.60
  -5  11  -7  193.08   15.60
  11   5  -7  178.08   16.30
   5 -11  -7  163.68   20.40
 -11  -5  -7  182.48   14.20
  -5  11  -7  223.38   19.00
 -11  -5   7  177.38   16.30
   5 -11   7  193.58   15.30
   5 -11   7  203.48   15.60
 -11  -5   7  158.98   16.70
 -11  -5   7  181.78   16.00
  -4  11  -7   98.19   10.80
  -4  11  -7   83.89    7.70
  11   4  -7   77.19    8.60
   4 -11  -7   62.79   13.00
 -11  -4  -7   72.89    6.50
 -11  -4   7   73.39    8.80
 -11  -4   7   70.29    9.00
   4 -11   7   70.39    7.40
 -11  -4   7   70.09    8.30
   4 -11   7   75.39    7.50
 -11  -4   7   71.59    8.40
   3 -11  -7  225.98   23.70
  11   3  -7  235.48   20.20
  11   3  -7  276.27   23.60
 -11  -3  -7  235.58   18.40
  -3  11  -7  238.78   19.20
 -11  -3   7  234.28   20.50
 -11  -3   7  239.98   21.30
   3 -11   7  247.08   19.30
 -11  -3   7  242.98   20.90
   3 -11   7  238.98   19.00
 -11  -3   7  245.78   20.20
  11   2  -7    8.10    2.80
 -11  -2  -7    3.80    1.50
   2 -11  -7    3.30    3.80
  -2  11  -7    5.30    3.30
  11   2  -7    3.10    4.20
  11   2  -7    2.10    2.50
  -2  11  -7    6.30    2.20
 -11  -2   7    0.70    2.60
   2 -11   7    1.70    2.10
 -11  -2   7    6.20    2.90
 -11  -2   7    4.50    2.90
 -11  -2   7    2.10    2.80
   2 -11   7    4.20    2.00
  -1  11  -7   37.40    6.70
  -1  11  -7   22.10    3.80
  11   1  -7   34.10    7.50
   1 -11  -7   28.90    7.20
  11   1  -7   32.40    5.20
  11   1  -7   25.20    4.70
   1 -11   7   25.60    4.20
 -11  -1   7   27.10    5.30
 -11  -1   7   25.40    5.80
 -11  -1   7   22.80    5.20
 -11  -1   7   22.80    5.00
   1 -11   7   27.10    4.00
   0  11  -7   73.29    6.70
   0 -11  -7   64.29   10.70
 -11   0  -7   66.89    6.40
  11   0  -7   73.59    7.70
  11   0  -7   68.19   10.70
  11   0  -7   66.09    7.60
 -11   0   7   68.29    8.90
 -11   0   7   57.49    7.80
 -11   0   7   72.49    8.70
   0 -11   7   67.19    6.80
 -11   0   7   62.89    8.40
   0 -11   7   67.19    6.70
  11  -1  -7   33.10    5.10
   1  11  -7   25.90    3.60
 -11   1  -7   21.40    3.50
  -1 -11  -7   27.30    2.80
  11  -1  -7   20.60    4.30
  -1 -11  -7   27.90    6.60
 -11   1   7   30.30    5.70
  -1 -11   7   31.60    4.30
 -11   1   7   23.60    5.60
 -11   1   7   20.20    4.90
  -1 -11   7   27.40    4.10
  -1 -11   7   20.80    4.40
 -11   1   7   57.69    8.70
  -2 -11  -7    6.00    3.70
 -11   2  -7    6.30    2.10
  11  -2  -7   -0.80    3.10
 -11   2  -7    1.10    2.70
  11  -2  -7    2.50    2.30
   2  11  -7    1.90    1.70
 -11   2  -7    4.40    1.90
  -2 -11   7    5.60    2.20
 -11   2   7    3.70    3.20
 -11   2   7    1.90    2.40
  -2 -11   7    0.30    1.70
  -2 -11   7    5.10    2.20
 -11   2   7    2.90    3.10
 -11   2   7    5.60    3.30
 -11   3  -7  261.37   20.00
 -11   3  -7  257.57   20.00
 -11   3  -7  220.88   21.90
   3  11  -7  257.57   19.80
  11  -3  -7  247.18   21.60
  11  -3  -7  215.88   20.50
  -3 -11  -7  289.17   22.90
  -3 -11   7  269.87   19.50
 -11   3   7  247.98   21.60
  -3 -11   7  261.67   20.10
 -11   3   7  210.38   22.00
 -11   3   7  237.98   22.40
  -3 -11   7  241.88   20.40
 -11   3   7  274.17   22.00
   4  11  -7   73.79    7.40
 -11   4  -7   87.19    8.10
 -11   4  -7   82.59    7.90
 -11   4  -7   66.09    9.50
  11  -4  -7   69.39    8.40
  11  -4  -7   84.39    9.20
 -11   4   7   71.49    9.90
  -4 -11   7   76.19    7.70
 -11   4   7   60.89   10.50
  -4 -11   7   85.29    7.40
 -11   4   7   80.59    9.30
 -11   4   7   83.69   11.70
  -4 -11   7   72.29    7.90
  11  -5  -7  158.48   16.00
  11  -5  -7  196.08   16.00
   5  11  -7  188.68   15.30
 -11   5  -7  192.68   16.00
  -5 -11   7  199.88   14.80
 -11   5   7  166.58   16.80
  -5 -11   7  201.18   15.70
 -11   5   7  162.28   17.90
  -5 -11   7  177.18   15.60
  11  -6  -7  229.18   18.90
   6  11  -7  237.28   19.00
  11  -6  -7  227.38   20.30
 -11   6  -7  255.57   20.10
  11  -6  -7  210.88   19.80
 -11   6   7  230.08   20.90
  -6 -11   7  249.28   19.50
 -11   6   7  211.18   21.90
  -6 -11   7  268.77   18.50
  -6 -11   7  225.38   19.30
  11  -7  -7    5.50    2.10
  11  -7  -7    1.80    2.40
 -11   7  -7   10.20    4.40
   7  11  -7    5.30    2.30
  11  -7  -7    4.30    2.60
 -11   7  -7    2.90    2.50
 -11   7   7    5.10    3.40
  -7 -11   7    7.30    2.60
  -7 -11   7    5.50    2.60
   8  11  -7   27.40    4.60
 -11   8  -7   16.10    5.30
  11  -8  -7   21.30    3.00
  11  -8  -7   20.10    4.40
 -11   8  -7   20.90    4.80
  11  -8  -7   20.90    4.90
  -8 -11   7   18.90    4.30
 -11   8   7   21.10    5.60
  -8 -11   7   18.30    4.30
 -11   9  -7   25.60    6.70
 -11   9  -7   35.10    6.70
   9  11  -7   35.30    5.70
  11  -9  -7   30.40    5.00
  11  -9  -7   26.00    5.50
  11  -9  -7   32.20   11.30
  11  -9   7   38.70    5.80
  -9 -11   7   37.70    6.20
 -11   9   7   31.20    6.80
  11  -9   7   30.90    5.20
  -9 -11   7   31.90    5.60
  -8  12  -7  233.48   21.20
   8 -12  -7  178.78   24.20
  12   8  -7  213.38   19.30
 -12  -8  -7  189.08   15.90
   8 -12   7  261.97   18.30
 -12  -8   7  190.48   19.20
 -12  -8   7  211.48   19.00
   8 -12   7  261.67   18.60
   8 -12   7  239.38   23.80
   7 -12  -7    3.90    5.70
  12   7  -7    7.10    3.40
  -7  12  -7    7.90    4.80
 -12  -7  -7    7.00    1.40
 -12  -7   7    7.50    3.10
   7 -12   7    9.50    5.90
   7 -12   7    8.30    3.00
 -12  -7   7    7.40    3.10
 -12  -7   7    3.80    3.10
   7 -12   7   10.80    3.30
   6 -12  -7   17.30    8.30
  12   6  -7   22.40    5.30
 -12  -6  -7   23.00    2.70
  -6  12  -7   27.60    6.80
  -6  12  -7   21.50    4.30
 -12  -6   7   25.50    5.30
 -12  -6   7   18.80    5.10
  12   6   7   13.10    5.70
 -12  -6   7   29.60    5.00
   6 -12   7   20.60    4.00
   6 -12   7   23.50    4.20
  12   5  -7  145.39   14.60
  -5  12  -7  159.18   13.70
  -5  12  -7  185.98   17.40
   5 -12  -7  132.29   18.50
 -12  -5  -7  155.68   12.20
 -12  -5   7  147.09   14.50
 -12  -5   7  167.68   14.50
   5 -12   7  168.98   13.70
 -12  -5   7  144.59   15.10
   5 -12   7  158.18   13.30
  -4  12  -7   77.89    8.00
   4 -12  -7   68.89   13.40
  -4  12  -7   99.89   11.60
  12   4  -7   87.19    9.40
 -12  -4  -7   77.49    6.90
   4 -12   7   77.89    8.00
 -12  -4   7   72.09    8.90
   4 -12   7   79.49    8.10
 -12  -4   7   87.29   10.10
 -12  -4   7   74.49    9.50
 -12  -4   7   90.79    9.40
  -3  12  -7   38.10    7.90
   3 -12  -7   16.30    6.70
  12   3  -7   29.20    5.70
 -12  -3  -7   29.60    3.50
  -3  12  -7   38.00    4.60
 -12  -3   7   32.60    6.50
 -12  -3   7   28.00    5.70
   3 -12   7   26.30    4.30
 -12  -3   7   26.50    5.70
 -12  -3   7   31.60    5.70
   3 -12   7   32.90    4.50
  12   2  -7   21.90    4.90
  -2  12  -7   29.70    4.10
   2 -12  -7   31.90    8.20
 -12  -2  -7   29.00    3.50
  12   2  -7   25.30    7.00
 -12  -2   7   27.60    5.80
 -12  -2   7   32.80    6.70
 -12  -2   7   21.70    5.20
   2 -12   7   26.60    4.10
   2 -12   7   21.90    3.90
 -12  -2   7   23.10    5.40
   1 -12  -7   77.09   12.60
  -1  12  -7   68.19    7.00
 -12  -1  -7   72.39    6.60
  12   1  -7   74.89   11.10
  12   1  -7   74.69    8.20
  12   1  -7   72.29    8.40
   1 -12   7   70.49    7.20
 -12  -1   7   77.69    9.30
   1 -12   7   67.29    7.00
 -12  -1   7   60.59    8.40
 -12  -1   7   66.49    9.20
 -12  -1   7   70.09    8.90
   0 -12  -7    0.60    1.10
   0  12  -7    1.60    1.70
 -12   0  -7    9.70    2.40
  12   0  -7    1.00    2.30
  12   0  -7    0.20    3.90
   0 -12  -7    3.20    3.90
  12   0  -7    0.40    2.40
 -12   0   7    0.40    2.60
 -12   0   7   -1.30    2.90
   0 -12   7    5.20    2.30
 -12   0   7    2.10    2.50
 -12   0   7    4.40    3.50
   0 -12   7    4.50    2.20
  12  -1  -7   63.59    8.10
 -12   1  -7   73.49    6.50
  -1 -12  -7   66.49   10.80
   1  12  -7   74.39    7.10
 -12   1  -7   69.89    6.80
  -1 -12  -7   72.39    5.90
  12  -1  -7   77.79   10.50
  -1 -12   7   60.99    7.70
  -1 -12   7   76.69    7.10
 -12   1   7   76.39    9.50
  -1 -12   7   70.99    7.30
 -12   1   7   66.19   10.60
 -12   1   7   64.59    8.60
  -2 -12  -7   26.00    6.50
  12  -2  -7   26.80    6.40
 -12   2  -7   24.50    3.80
 -12   2  -7   27.10    3.70
  12  -2  -7   25.90    5.20
 -12   2   7   25.50    6.20
 -12   2   7   20.10    5.00
  -2 -12   7   22.50    4.60
 -12   2   7   16.70    5.40
  -2 -12   7   25.80    4.20
  -2 -12   7   31.70    4.20
 -12   2   7   29.90    6.10
 -12   3  -7   26.50    4.30
 -12   3  -7   36.50    4.50
  12  -3  -7   26.90    5.40
   3  12  -7   31.90    4.30
  12  -3  -7   32.30    6.70
 -12   3  -7   30.50    7.20
 -12   3   7   35.40    7.40
 -12   3   7   26.70    6.20
  -3 -12   7   33.70    5.00
  -3 -12   7   27.80    4.20
 -12   3   7   31.50    6.60
 -12   3   7   26.70    6.50
  -3 -12   7   28.20    5.10
  12  -4  -7   84.59    9.70
 -12   4  -7   70.99   10.20
 -12   4  -7   82.79    8.30
   4  12  -7   88.89    8.10
  12  -4  -7   69.19    9.00
  -4 -12   7   87.59    8.40
 -12   4   7   86.79   11.00
  -4 -12   7   96.99    7.70
 -12   4   7   77.79   10.60
 -12   4   7   67.69   11.60
 -12   4   7   69.39    9.50
  -4 -12   7   75.99    8.40
 -12   5  -7  124.69   15.40
 -12   5  -7  171.48   13.80
   5  12  -7  170.18   13.30
  12  -5  -7  159.88   14.10
  12  -5  -7  130.89   14.00
 -12   5   7  138.39   15.00
  -5 -12   7  150.68   13.70
  -5 -12   7  169.98   12.30
  -5 -12   7  154.48   13.50
 -12   5   7  151.38   16.30
 -12   5   7  124.09   15.70
 -12   6  -7   23.40    4.60
  12  -6  -7   20.60    5.10
   6  12  -7   24.10    4.10
 -12   6  -7   13.00    5.10
  12  -6  -7   22.60    5.10
  12  -6  -7   20.80    4.20
  -6 -12   7   23.90    4.40
 -12   6   7   12.50    4.70
 -12   6   7   20.90    6.50
  -6 -12   7   26.60    4.80
  12  -7  -7    7.40    2.60
   7  12  -7    7.80    2.70
 -12   7  -7    6.60    3.10
 -12   7  -7    3.70    3.40
  12  -7  -7   15.90    4.20
  12  -7  -7    6.80    3.70
 -12   7   7   11.00    4.40
  -7 -12   7    9.20    3.10
  -7 -12   7    8.90    3.10
  12  -8  -7  217.78   18.00
   8  12  -7  206.98   17.30
  12  -8  -7  192.28   18.20
  12  -8  -7  211.38   15.90
 -12   8  -7  218.08   18.20
 -12   8   7  158.18   18.40
  -8 -12   7  228.68   18.00
  -8 -12   7  188.58   17.40
  13   7  -7  314.67   25.90
  -7  13  -7  312.77   27.50
 -13  -7  -7  260.47   21.90
   7 -13  -7  269.07   30.60
   7 -13   7  374.36   31.30
   7 -13   7  315.57   24.00
   7 -13   7  333.87   23.60
 -13  -7   7  296.77   25.00
 -13  -7   7  250.27   25.00
  -6  13  -7   52.59   10.20
 -13  -6  -7   38.40    3.90
  13   6  -7   39.50    7.10
   6 -13  -7   36.30   11.30
 -13  -6   7   42.70    6.40
   6 -13   7   50.29   11.50
 -13  -6   7   39.30    7.40
 -13  -6   7   45.30    6.60
   6 -13   7   49.50    6.00
  13   6   7   24.30    7.60
   6 -13   7   44.60    5.80
  13   5  -7    7.60    3.90
  -5  13  -7   10.90    3.20
 -13  -5  -7    8.60    1.80
   5 -13  -7    6.30    6.10
  -5  13  -7   14.10    5.80
   5 -13   7    8.70    2.90
 -13  -5   7    8.30    3.80
   5 -13   7   10.90    3.20
 -13  -5   7   10.80    3.80
 -13  -5   7    6.50    3.30
  13   5   7    7.60    4.80
   4 -13  -7   22.60    8.50
  -4  13  -7   29.50    4.80
 -13  -4  -7   30.30    3.50
  13   4  -7   35.80    6.60
   4 -13   7   27.10    4.40
  13   4   7   21.50    7.10
 -13  -4   7   30.60    6.00
 -13  -4   7   28.60    5.60
 -13  -4   7   33.70    7.00
   4 -13   7   28.20    4.60
 -13  -4   7   27.40    6.40
  -3  13  -7   98.39    9.10
   3 -13  -7   90.59   15.40
 -13  -3  -7   87.49    7.90
  13   3  -7  104.39   11.00
 -13  -3   7   87.79   10.30
 -13  -3   7   81.59   10.80
   3 -13   7   95.99    8.90
   3 -13   7   99.29    9.10
 -13  -3   7   96.59   10.60
 -13  -3   7   76.99   10.40
  -2  13  -7  573.84   41.20
   2 -13  -7  506.35   45.70
  13   2  -7  524.15   42.80
  13   2  -7  635.44   45.70
 -13  -2  -7  558.94   40.40
 -13  -2   7  460.05   42.80
 -13  -2   7  537.65   42.40
   2 -13   7  549.65   41.20
 -13  -2   7  487.15   43.50
   2 -13   7  556.64   40.70
 -13  -2   7  595.84   43.50
 -13  -1  -7  267.37   20.70
   1 -13  -7  250.67   25.40
   1 -13  -7  263.17   20.70
  -1  13  -7  272.87   21.30
  13   1  -7  286.27   27.00
  13   1  -7  270.57   23.10
 -13  -1   7  228.78   23.70
   1 -13   7  276.87   21.00
 -13  -1   7  285.57   23.80
 -13  -1   7  275.67   23.20
 -13  -1   7  244.48   23.30
   1 -13   7  284.17   21.60
  13   0  -7  134.89   14.00
 -13   0  -7   92.89    9.00
  13   0  -7   92.09   10.90
   0  13  -7  124.39    9.80
   0 -13  -7  108.59   13.40
  13   0  -7   96.19   10.90
   0 -13  -7   97.59    8.50
   0 -13   7  109.99    9.80
 -13   0   7  101.29   11.80
   0 -13   7  106.19    9.30
 -13   0   7  101.29   11.70
 -13   0   7   82.59   11.00
   1  13  -7  291.77   22.40
  -1 -13  -7  273.27   20.90
  13  -1  -7  270.27   23.70
 -13   1  -7  288.07   22.10
  -1 -13  -7  285.67   26.00
  13  -1  -7  324.87   25.80
  -1 -13   7  286.97   21.90
  -1 -13   7  279.97   22.60
 -13   1   7  311.87   25.50
 -13   1   7  278.47   24.60
 -13   1   7  232.18   24.80
  13  -2  -7  495.25   43.50
  -2 -13  -7  627.74   46.20
 -13   2  -7  548.15   42.00
 -13   2  -7  607.24   41.90
   2  13  -7  572.44   42.30
 -13   2   7  627.14   45.90
 -13   2   7  461.55   44.80
 -13   2   7  559.14   44.60
  -2 -13   7  608.44   41.60
  -2 -13   7  611.84   42.70
 -13   2   7  452.25   44.00
  13  -3  -7   91.99   10.60
 -13   3  -7   97.59    9.10
  13  -3  -7  110.09   11.90
 -13   3  -7  104.19    9.10
   3  13  -7   96.29    9.10
  -3 -13   7  109.69    8.50
 -13   3   7  118.49   12.70
 -13   3   7  104.99   12.30
 -13   3   7   83.09   11.00
  -3 -13   7   99.99    9.50
  -3 -13   7   79.19    9.60
 -13   3   7   67.69   11.90
   4  13  -7   27.60    4.50
 -13   4  -7   33.10    4.90
  13  -4  -7   26.70    6.00
  13  -4  -7   33.90    6.40
  -4 -13   7   23.30    4.90
 -13   4   7   28.00    6.90
 -13   4   7   41.60    8.40
  -4 -13   7   25.60    4.50
 -13   4   7   19.70    6.40
 -13   4   7   24.60    6.20
   5  13  -7   11.00    3.10
  13  -5  -7    9.10    3.90
 -13   5  -7    9.20    3.10
 -13   5  -7    7.80    5.60
  13  -5  -7   11.70    4.30
  -5 -13   7   12.90    3.40
 -13   5   7    7.50    4.30
 -13   5   7   10.80    5.30
 -13   5   7   10.20    5.40
 -13   5   7   10.20    5.20
   6  13  -7   39.10    5.50
  13  -6  -7   47.80    7.80
  13  -6  -7   46.30    7.90
  13  -6  -7   43.90    6.40
 -13   6  -7   43.10    6.00
 -13   6  -7   33.90    8.00
 -13   6   7   39.30    8.00
  -6 -13   7   42.90    6.00
  -6 -13   7   44.00    6.00
 -13   7  -7  302.67   24.70
  13  -7  -7  330.57   23.80
   7  13  -7  305.27   24.30
  13  -7  -7  269.57   25.30
  13  -7  -7  337.77   25.90
  -7 -13   7  306.47   24.60
  -7 -13   7  266.57   24.50
  14   4  -7  110.09   12.20
   4 -14  -7   77.49   15.50
 -14  -4  -7  109.09    8.50
 -14  -4   7  104.79   11.30
   4 -14   7  104.59    9.80
 -14  -4   7   88.79   11.40
   4 -14   7   92.69    9.30
 -14  -4   7   85.89   11.50
 -14  -4   7   96.59   10.80
   4 -14   7  117.99   18.40
 -14  -3  -7  144.59   11.20
   3 -14  -7  125.59   17.10
  14   3  -7  135.19   14.40
   3 -14  -7  139.89   12.10
 -14  -3   7  150.88   14.20
 -14  -3   7  114.49   13.90
 -14  -3   7  109.59   14.00
 -14  -3   7  134.49   13.50
   3 -14   7  144.89   11.80
   3 -14   7  134.09   12.20
   2 -14  -7  353.56   27.50
 -14  -2  -7  362.96   27.10
   2 -14  -7  348.37   33.00
  14   2  -7  370.76   30.30
  -2  14  -7  368.46   29.00
 -14  -2   7  281.27   29.60
 -14  -2   7  315.97   30.30
   2 -14   7  371.96   28.10
 -14  -2   7  406.86   30.50
   2 -14   7  387.66   27.40
 -14  -2   7  347.77   29.30
  -1  14  -7   21.70    4.10
   1 -14  -7   20.30    7.00
  14   1  -7   12.90    5.00
  14   1  -7   25.90    7.10
 -14  -1  -7   18.40    3.20
   1 -14  -7   25.90    3.60
 -14  -1   7   13.90    5.30
   1 -14   7   27.40    4.50
 -14  -1   7   19.00    5.40
 -14  -1   7   19.50    5.70
 -14  -1   7   21.10    5.90
   1 -14   7   21.00    3.60
  14   0  -7    1.80    4.40
  14   0  -7    2.90    3.70
   0  14  -7    1.70    2.00
   0 -14  -7    3.60    1.40
 -14   0  -7    6.30    2.20
   0 -14  -7   -3.50    3.40
 -14   0   7    5.20    3.60
 -14   0   7    2.50    3.90
 -14   0   7    2.00    3.20
   0 -14   7    5.00    2.20
   0 -14   7    3.10    2.40
 -14   0   7    2.80    3.40
  -1 -14  -7   20.90    6.50
 -14   1  -7   20.40    3.50
  14  -1  -7   26.30    6.60
  14  -1  -7   25.70    6.00
   1  14  -7   23.80    4.20
  -1 -14  -7   21.60    2.50
 -14   1   7   24.00    6.40
  -1 -14   7   24.40    4.40
  -1 -14   7   29.20    3.80
 -14   1   7   20.40    6.50
 -14   1   7   13.60    5.00
 -14   1   7   19.00    5.90
  14  -2  -7  334.47   30.00
   2  14  -7  386.96   28.50
 -14   2  -7  372.16   28.10
  -2 -14  -7  413.06   32.50
 -14   2   7  369.46   31.10
 -14   2   7  408.66   32.10
  -2 -14   7  398.06   28.90
 -14   2   7  292.07   31.00
 -14   2   7  312.17   30.50
 -14   3  -7  144.19   12.50
  14  -3  -7  176.58   15.60
  14  -3  -7  123.59   14.00
 -14   3  -7  149.69   12.10
   3  14  -7  155.28   12.50
 -14   3   7  139.99   15.40
  -3 -14   7  146.89   12.80
 -14   3   7  121.19   15.20
  -3 -14   7  112.89   12.90
 -14   3   7  169.78   16.30
 -14   3   7  111.29   14.30
   4  14  -7  108.99    9.50
  14  -4  -7  128.39   12.10
 -14   4  -7  109.29    9.40
  14  -4  -7   86.19   10.90
 -14   4   7   65.59   10.60
  -4 -14   7  108.59    9.90
 -14   4   7   96.79   12.60
 -14   4   7   69.59   12.10
  -4 -14   7   79.39    9.80
 -14   4   7   96.09   12.70
   0   0  -8 3164.88  238.18
   0   0  -8 3374.96  239.08
   0   0  -8 3329.17  238.38
   0   0  -8 3544.15  238.48
   0   0  -8 3246.48  238.18
   1   0  -8    1.90    1.00
   0   1  -8    0.70    1.20
   0   1  -8    1.70    1.00
   1   0  -8    1.00    1.00
   1   0  -8    2.60    1.50
  -1   0  -8    1.10    0.60
   0  -1  -8    3.20    1.00
   0   1  -8    2.20    1.00
   1   0  -8    1.60    0.80
  -1   0  -8    1.30    1.10
   0   1  -8    0.70    0.70
  -1   0  -8    3.10    0.90
  -1   0  -8    0.50    0.70
  -1   0  -8    3.80    1.20
   0  -1  -8    3.40    1.20
   0   1  -8    1.00    1.50
  -1   0   8    0.90    0.90
   1   1  -8  157.58   15.60
  -1   1  -8  191.28   14.70
  -1  -1  -8  194.18   14.80
   1  -1  -8  197.88   14.80
  -1   1  -8  206.48   15.50
  -1   1  -8  196.78   15.40
   1   1  -8  189.58   14.60
   1   1  -8  200.18   15.80
  -1  -1  -8  189.38   14.50
  -1  -1  -8  213.78   14.90
  -1   1  -8  182.08   14.80
   1   1  -8  195.48   14.80
   1  -1  -8  202.78   14.50
  -1   1  -8  178.38   14.50
   1   1  -8  194.58   14.80
   1  -1  -8  201.18   14.80
  -1  -1   8  182.28   14.70
  -1   1   8  190.78   14.80
  -1  -1   8  198.28   14.80
  -1   2  -8 1657.43  134.59
   2   1  -8 1881.61  133.79
  -2  -1  -8 1966.90  133.99
   1  -2  -8 2035.50  137.79
  -1   2  -8 1807.42  133.69
  -1   2  -8 1880.21  133.99
  -1   2  -8 1754.42  133.79
   2   1  -8 1612.94  134.99
  -1   2  -8 1893.31  134.59
   2   1  -8 1835.92  133.59
  -2  -1  -8 1904.71  133.49
   1  -2  -8 1998.40  133.89
   1  -2  -8 1914.71  133.89
  -2  -1  -8 2001.00  134.09
   2   1  -8 1788.22  134.89
   1  -2  -8 1935.81  133.59
  -2  -1   8 1982.00  133.99
  -2  -1   8 1931.31  133.89
   1  -2   8 1660.73  133.59
  -1   2   8 1849.91  133.79
   0   2  -8 1529.65  111.09
  -2   0  -8 1536.55  111.19
   0   2  -8 1587.94  111.89
   0   2  -8 1301.87  111.79
  -2   0  -8 1514.05  110.69
   2   0  -8 1474.45  110.89
   0  -2  -8 1683.63  110.89
   0  -2  -8 1612.04  110.79
   2   0  -8 1515.65  110.69
   2   0  -8 1522.85  111.09
   2   0  -8 1555.04  111.89
   0  -2  -8 1650.93  110.99
   0   2  -8 1501.85  110.89
  -2   0  -8 1550.04  111.09
   0   2  -8 1435.76  110.79
   0  -2  -8 1770.12  114.89
  -2   0  -8 1637.44  111.19
  -2   0   8 1475.55  110.99
   0   2   8 1543.15  110.99
   0  -2   8 1493.35  110.79
  -2   0   8 1547.35  110.99
  -1  -2  -8 2012.80  136.69
  -1  -2  -8 1946.91  136.29
   1   2  -8 1857.91  136.69
  -2   1  -8 1741.53  136.29
   1   2  -8 2060.59  137.79
   2  -1  -8 1980.90  136.79
   1   2  -8 1631.54  137.79
   2  -1  -8 1881.91  136.79
  -2   1  -8 1892.71  136.69
   1   2  -8 1853.01  136.49
   2  -1  -8 1943.21  136.29
  -1  -2  -8 2009.60  136.69
  -2   1  -8 1902.61  136.89
   2  -1  -8 1848.52  136.59
  -2   1  -8 1901.51  137.09
   1   2  -8 1948.41  136.69
  -2   1  -8 2130.19  136.89
  -1  -2   8 1815.62  136.49
  -1  -2   8 1846.12  136.59
  -1  -2   8 1965.20  136.59
  -2   1   8 1790.72  136.59
  -2   2  -8 3183.68  244.18
   2   2  -8 3389.46  245.58
  -2  -2  -8 3553.94  243.98
   2   2  -8 3376.66  244.38
  -2  -2  -8 3604.44  244.48
   2  -2  -8 3525.05  248.58
  -2   2  -8 3245.18  244.48
  -2  -2  -8 3452.25  244.58
  -2   2  -8 3246.68  244.98
   2   2  -8 3233.08  244.18
   2   2  -8 3072.99  245.88
   2  -2  -8 3758.72  243.68
  -2   2  -8 3525.75  244.78
   2  -2  -8 3693.13  244.48
  -2   2  -8 3623.54  245.18
  -2  -2   8 3463.25  244.38
  -2  -2   8 3134.09  244.38
  -2  -2   8 3463.85  244.28
  -2   2   8 3349.06  244.38
  -2   3  -8  127.79   10.50
   3   2  -8  104.49   11.80
  -3  -2  -8  129.89   10.20
  -2   3  -8  115.79   10.00
   3   2  -8  123.99   10.00
  -2   3  -8  140.79   11.00
   3   2  -8  131.79   11.30
   3   2  -8  120.89    9.90
  -3  -2  -8  126.69    9.50
   2  -3  -8  129.69   13.60
   2  -3  -8  129.19   10.10
  -2   3  -8  127.69    9.90
  -2   3  -8  111.09   11.20
   3   2  -8  133.29   10.40
  -3  -2   8  124.19   10.30
  -2   3   8  127.79   10.10
  -3  -2   8  135.49   10.10
   2  -3   8  109.79    9.80
  -3  -2   8  127.09   10.00
   1  -3  -8 2030.50  138.39
  -1   3  -8 1799.92  138.19
  -1   3  -8 1903.11  139.19
   3   1  -8 1638.44  139.69
  -1   3  -8 1856.31  138.19
  -1   3  -8 1927.01  138.59
  -3  -1  -8 1904.61  137.89
   3   1  -8 1903.51  138.09
   3   1  -8 1975.50  138.69
  -3  -1  -8 2043.90  138.59
   1  -3  -8 2179.48  142.29
  -3  -1  -8 2086.89  138.79
   3   1  -8 2015.50  138.39
  -1   3  -8 1734.73  139.49
  -3  -1   8 1939.41  138.59
   1  -3   8 1801.42  138.19
  -3  -1   8 1960.60  138.39
  -1   3   8 1929.01  138.29
  -3  -1   8 1997.60  138.39
   0   3  -8    1.20    0.90
  -3   0  -8    0.70    0.70
   0  -3  -8    1.00    0.90
   0  -3  -8    2.40    0.90
   0   3  -8    0.40    0.80
   3   0  -8    1.40    1.80
   0   3  -8    1.50    2.20
  -3   0  -8    0.80    0.90
   0   3  -8    0.30    1.10
  -3   0  -8    1.10    1.10
   3   0  -8    2.80    1.30
   0   3  -8   -0.20    0.90
   0  -3  -8    1.90    2.70
  -3   0  -8    1.60    1.10
  -3   0   8    3.30    1.30
  -3   0   8    7.10    1.60
   0  -3   8    4.90    1.40
   0   3   8    3.50    1.20
   0  -3   8    2.30    1.00
   1   3  -8 1869.51  145.09
  -1  -3  -8 2120.79  143.49
  -3   1  -8 2084.09  143.79
   3  -1  -8 1964.90  143.09
  -3   1  -8 1950.30  143.79
  -3   1  -8 1828.42  143.19
  -1  -3  -8 2167.08  143.19
   1   3  -8 1865.81  143.49
   3  -1  -8 1970.20  144.09
   1   3  -8 1968.40  144.49
  -3   1  -8 2006.20  143.79
   1   3  -8 2067.39  143.59
   1   3  -8 1925.11  143.39
   3  -1  -8 1996.20  143.49
  -1  -3  -8 2184.78  146.49
  -3   1   8 1983.80  143.59
  -1  -3   8 2017.00  143.49
  -1  -3   8 2117.09  143.49
  -1  -3   8 1906.41  143.29
  -3   2  -8  122.89   10.60
   2   3  -8  126.69   10.30
   3  -2  -8  135.39   10.20
  -2  -3  -8  143.29   12.80
  -3   2  -8  134.59   10.50
   2   3  -8  122.59   12.30
  -2  -3  -8  132.69    9.80
   2   3  -8  127.49   10.30
  -3   2  -8  125.09   10.10
  -2  -3  -8  130.99   10.30
   2   3  -8  118.59   10.10
   3  -2  -8  122.89   14.20
   2   3  -8  140.19   11.50
  -3   2  -8  133.59   10.90
   3  -2  -8  131.49   10.30
  -3   2  -8  126.59   10.80
  -2  -3   8  115.69   10.20
  -2  -3   8  126.69   10.10
  -2  -3   8  120.09   10.20
  -3   2   8  128.09   10.30
   3  -3  -8  931.21   63.89
   3   3  -8  878.11   63.69
  -3  -3  -8  903.11   63.19
  -3   3  -8  884.41   63.89
   3   3  -8  831.32   65.89
   3   3  -8  923.11   65.19
  -3   3  -8  857.51   63.59
  -3   3  -8  849.12   64.69
  -3   3  -8  861.61   64.29
  -3   3  -8  887.91   64.59
  -3  -3  -8  955.60   63.79
   3   3  -8  871.91   63.69
  -3   3   8  894.11   63.89
   3  -3   8  770.62   63.59
  -3  -3   8  838.72   63.59
  -3  -3   8  865.41   63.99
  -3  -3   8  925.91   63.69
   4   3  -8  447.86   34.00
  -4  -3  -8  493.65   34.20
   4   3  -8  456.95   35.50
   3  -4  -8  472.85   34.10
  -3   4  -8  421.76   34.10
  -3   4  -8  472.05   34.80
  -3   4  -8  483.05   35.20
   4   3  -8  437.86   36.50
  -3   4  -8  446.46   34.00
  -4  -3  -8  464.35   33.40
   4   3  -8  463.95   34.00
   3  -4  -8  469.35   38.30
  -4  -3   8  452.55   34.40
  -3   4   8  453.05   34.10
  -4  -3   8  481.05   34.10
   4   2  -8   19.50    3.30
   4   2  -8    9.00    2.00
   4   2  -8   15.60    2.40
  -2   4  -8   13.30    2.30
   4   2  -8   11.70    3.10
  -2   4  -8   15.30    3.20
  -4  -2  -8   20.80    2.90
  -2   4  -8   15.00    2.90
  -4  -2  -8   15.50    1.80
   2  -4  -8   17.60    2.60
  -2   4  -8   14.80    2.30
   4   2  -8   13.50    4.10
   2  -4  -8   22.70    5.70
  -4  -2   8   17.00    2.40
   2  -4   8   11.90    2.20
  -2   4   8   17.80    2.30
   2  -4   8   14.50    2.30
  -4  -2   8   19.10    2.90
  -1   4  -8  290.37   22.00
  -1   4  -8  288.07   21.60
   4   1  -8  252.57   23.40
  -1   4  -8  294.27   22.70
  -1   4  -8  266.97   21.50
  -4  -1  -8  279.47   21.20
   1  -4  -8  323.47   21.70
  -4  -1  -8  297.07   22.00
   4   1  -8  298.17   21.50
  -1   4  -8  316.27   23.90
   4   1  -8  282.77   21.60
   1  -4  -8  310.67   25.00
  -1   4   8  292.77   21.60
   1  -4   8  280.67   21.50
  -4  -1   8  290.47   21.70
  -4  -1   8  288.37   22.10
   1  -4   8  251.87   21.40
   0   4  -8  137.99   11.60
   4   0  -8  154.98   11.50
   0  -4  -8  162.88   14.60
   4   0  -8  145.09   11.80
  -4   0  -8  165.18   12.30
  -4   0  -8  141.19   11.60
   0   4  -8  134.19   11.90
   0   4  -8  163.78   14.20
   0  -4  -8  160.88   11.70
   4   0  -8  138.99   13.20
   0   4  -8  148.99   11.80
  -4   0  -8  149.29   11.40
  -4   0  -8  156.88   12.30
   0   4  -8  146.99   12.70
  -4   0   8  145.69   11.90
   0   4   8  149.29   11.70
   0  -4   8  142.49   11.60
  -4   0   8  157.18   12.30
   0  -4   8  140.69   11.70
  -4   1  -8  323.17   22.70
  -4   1  -8  295.77   22.30
  -4   1  -8  318.17   22.60
   1   4  -8  286.17   24.20
   4  -1  -8  277.57   23.00
   1   4  -8  273.57   22.10
  -1  -4  -8  321.77   24.80
  -4   1  -8  282.47   21.90
   4  -1  -8  295.27   21.70
  -1  -4  -8  309.27   22.00
   1   4  -8  285.97   22.00
   1   4  -8  291.27   22.50
   4  -1  -8  280.67   22.10
   1   4  -8  295.17   23.20
  -1  -4   8  291.07   22.00
  -4   1   8  290.97   22.20
  -4   1   8  275.37   22.50
  -1  -4   8  295.87   22.10
  -1  -4   8  301.67   22.00
  -2  -4  -8   15.10    1.90
  -4   2  -8   22.40    2.50
   2   4  -8   16.50    4.50
  -4   2  -8   25.20    3.00
   4  -2  -8   14.60    2.70
   2   4  -8   14.00    2.50
  -4   2  -8   16.70    3.00
  -4   2  -8   20.30    3.10
  -2  -4  -8   13.60    2.30
   2   4  -8   15.90    2.40
  -2  -4  -8   15.70    4.20
   2   4  -8   14.70    3.30
   4  -2  -8   19.70    2.90
   4  -2  -8   14.20    5.50
  -4   2  -8   15.50    2.80
  -2  -4   8   13.80    2.50
  -2  -4   8   15.80    2.60
  -2  -4   8   16.10    2.30
  -4   2   8   13.80    2.50
  -3  -4  -8  528.55   36.90
   3   4  -8  462.85   34.60
   3   4  -8  454.25   34.50
   3   4  -8  479.85   35.90
  -3  -4  -8  478.15   34.50
  -4   3  -8  447.16   35.20
  -4   3  -8  461.05   34.60
   3   4  -8  481.05   37.20
  -4   3  -8  505.95   35.60
  -3  -4  -8  448.86   33.90
   4  -3  -8  447.56   34.60
  -4   3  -8  474.95   35.40
  -4   3  -8  448.36   34.80
   4  -3  -8  481.25   34.20
  -3  -4  -8  508.95   33.90
   4  -3  -8  396.66   38.30
  -3  -4   8  451.45   34.50
  -4   3   8  466.75   34.80
  -3  -4   8  489.05   34.50
  -3  -4   8  437.76   34.70
  -4   4  -8   27.40    4.30
   4   4  -8   34.20    3.50
  -4  -4  -8   30.90    3.40
  -4   4  -8   25.90    3.40
   4   4  -8   20.20    4.20
   4  -4  -8   28.30    3.40
  -4   4  -8   25.80    3.30
  -4   4  -8   26.70    4.40
   4   4  -8   23.80    5.70
   4  -4  -8   25.80    7.10
   4   4  -8   25.90    3.30
  -4  -4  -8   30.40    2.50
  -4   4   8   32.20    3.60
  -4  -4   8   24.40    3.50
  -4  -4   8   30.00    3.70
  -4  -4   8   30.00    3.30
   4  -4   8   21.60    3.00
  -5  -4  -8 1223.78   86.79
  -4   5  -8 1240.88   87.99
   4  -5  -8 1196.88   87.79
  -4   5  -8 1286.97   89.29
   5   4  -8 1209.68   87.69
   4  -5  -8 1171.58   92.49
  -4   5  -8 1145.59   87.89
  -5  -4  -8 1335.77   87.99
   5   4  -8 1199.48   90.69
   5   4  -8 1211.38   89.29
   5   4  -8 1153.08   87.79
   4  -5   8 1117.39   87.59
  -5  -4   8 1229.58   88.39
  -5  -4   8 1290.57   87.89
  -4   5   8 1226.28   87.99
  -5  -4   8 1161.98   87.69
  -3   5  -8 2374.86  160.18
  -5  -3  -8 2260.27  157.88
   5   3  -8 2281.17  158.68
   3  -5  -8 2313.97  158.68
   5   3  -8 2106.89  160.08
   5   3  -8 2155.08  161.38
  -3   5  -8 2059.99  158.68
  -5  -3  -8 2470.95  159.08
  -3   5  -8 2259.97  159.58
  -3   5  -8 2009.60  158.68
   3  -5  -8 2193.48  158.18
   3  -5  -8 2198.98  162.98
   5   3  -8 2249.68  158.68
  -3   5   8 2168.88  158.68
  -5  -3   8 2184.38  159.18
   3  -5   8 2084.79  158.48
   3  -5   8 2077.39  158.48
  -5  -3   8 2149.19  158.68
  -5  -3   8 2370.96  158.88
   2  -5  -8  408.76   31.80
   5   2  -8  375.26   27.70
   2  -5  -8  393.56   27.70
  -5  -2  -8  388.06   27.20
   2  -5  -8  391.26   26.80
  -2   5  -8  375.46   29.00
   5   2  -8  358.16   27.70
  -5  -2  -8  419.06   28.20
   5   2  -8  342.17   30.20
  -2   5  -8  367.96   28.40
  -2   5  -8  350.26   27.70
  -2   5   8  363.26   27.70
  -5  -2   8  364.86   27.80
  -5  -2   8  388.06   27.90
   2  -5   8  340.97   27.60
  -5  -2   8  388.66   28.40
   2  -5   8  316.37   27.50
   1  -5  -8  178.28   13.00
  -1   5  -8  151.48   12.90
  -5  -1  -8  165.98   12.60
  -5  -1  -8  175.08   13.50
  -1   5  -8  194.98   14.50
   1  -5  -8  186.48   16.40
   5   1  -8  175.58   12.90
   5   1  -8  148.29   15.10
   5   1  -8  162.08   13.00
  -1   5  -8  158.78   13.40
  -5  -1   8  166.28   13.20
  -1   5   8  161.38   12.90
   1  -5   8  158.88   12.90
  -5  -1   8  163.58   13.60
  -5  -1   8  161.78   13.10
   1  -5   8  145.89   12.80
  -5   0  -8    0.90    0.80
   0   5  -8    1.60    1.60
   0  -5  -8    0.90    1.00
   5   0  -8    2.50    2.40
   0   5  -8    1.50    1.30
  -5   0  -8    1.40    1.40
   5   0  -8    5.20    1.40
  -5   0  -8    2.70    1.00
   5   0  -8    6.60    1.70
   0  -5  -8    1.20    2.10
   0   5  -8    5.80    3.50
   0  -5   8    5.30    1.60
   0  -5   8    1.40    1.00
  -5   0   8    3.40    1.50
  -5   0   8    1.20    1.40
   0  -5   8    3.00    1.20
  -5   0   8    2.40    1.20
   5  -1  -8  167.18   12.80
  -5   1  -8  170.48   13.70
   1   5  -8  195.98   16.30
   1   5  -8  159.78   13.00
   1   5  -8  150.28   13.30
   5  -1  -8  170.78   13.20
  -1  -5  -8  177.48   13.00
   1   5  -8  160.78   14.10
  -5   1  -8  163.18   12.90
  -5   1  -8  152.28   13.10
   5  -1  -8  152.08   14.30
  -1  -5  -8  199.88   16.00
  -1  -5   8  158.18   13.00
   1   5   8  161.88   13.00
  -1  -5   8  163.68   13.10
  -5   1   8  161.28   13.80
  -5   1   8  160.48   13.30
  -1  -5   8  195.68   13.10
  -5   2  -8  381.06   28.20
   5  -2  -8  380.66   28.40
  -5   2  -8  343.67   28.50
  -2  -5  -8  374.06   27.50
  -2  -5  -8  403.76   28.10
  -5   2  -8  386.06   28.90
   2   5  -8  368.16   28.40
   5  -2  -8  382.76   28.90
   2   5  -8  359.56   28.20
  -5   2  -8  379.46   29.00
   2   5  -8  382.96   29.50
  -2  -5  -8  436.66   30.80
   5  -2  -8  291.57   32.10
   2   5  -8  380.66   31.00
  -2  -5   8  385.46   28.20
  -5   2   8  382.66   28.60
  -2  -5   8  384.36   28.40
  -2  -5   8  401.66   28.10
  -5   3  -8 2220.18  165.18
   5  -3  -8 2246.08  164.78
  -5   3  -8 2412.26  164.88
   3   5  -8 2091.79  165.78
  -5   3  -8 2393.36  165.58
  -3  -5  -8 2454.75  164.58
  -3  -5  -8 2604.34  166.98
   5  -3  -8 2209.58  164.58
  -3  -5  -8 2120.39  163.78
   3   5  -8 2176.88  164.68
   3   5  -8 2231.28  167.38
   3   5  -8 2309.37  164.78
  -5   3   8 2285.17  164.98
  -3  -5   8 2516.55  164.68
  -3  -5   8 2221.28  164.58
  -3  -5   8 2226.38  164.88
   5  -4  -8 1006.40   93.29
   4   5  -8 1221.98   89.09
   4   5  -8 1215.58   90.49
   4   5  -8 1225.98   91.99
  -4  -5  -8 1409.16   88.19
   4   5  -8 1152.58   89.09
   5  -4  -8 1172.38   88.39
  -5   4  -8 1275.97   90.19
   5  -4  -8 1199.38   89.19
  -4  -5  -8 1355.16   91.09
  -5   4  -8 1171.68   89.39
  -4  -5  -8 1340.97   89.09
  -5   4  -8 1276.47   89.29
  -4  -5   8 1300.67   89.09
  -4  -5   8 1192.38   89.39
  -4  -5   8 1182.98   88.99
  -5   4   8 1186.08   89.39
   5  -5  -8 1613.44  138.79
  -5   5  -8 1723.73  134.29
   5  -5  -8 1805.92  134.09
   5   5  -8 1739.83  136.79
   5   5  -8 1791.82  133.99
  -5  -5  -8 2076.89  132.89
   5   5  -8 1790.22  135.39
   5   5  -8 1943.81  133.99
  -5  -5  -8 2059.19  136.19
  -5   5  -8 1892.91  135.39
  -5   5  -8 1939.71  134.39
  -5   5   8 1870.61  134.39
  -5  -5   8 1889.91  133.99
   5  -5   8 1756.62  133.89
  -5  -5   8 1812.72  134.49
  -5  -5   8 2033.30  134.19
  -5  -5   8 1835.72  133.99
  -6  -5  -8  551.34   38.10
  -5   6  -8  512.65   39.50
   6   5  -8  499.75   40.70
   6   5  -8  525.85   39.40
   6   5  -8  543.05   42.70
   5  -6  -8  429.36   43.50
   5  -6  -8  504.85   39.00
   6   5  -8  545.15   39.30
  -5   6  -8  598.54   41.20
   5  -6  -8  532.15   39.30
  -6  -5   8  519.85   39.30
  -6  -5   8  520.05   39.90
  -5   6   8  560.14   39.70
   5  -6   8  484.95   39.10
  -6  -5   8  589.14   39.70
  -6  -5   8  523.35   39.20
   6   4  -8  195.68   15.20
   6   4  -8  186.58   15.30
   4  -6  -8  186.68   15.20
  -4   6  -8  179.78   15.30
   6   4  -8  167.68   16.40
  -6  -4  -8  216.88   15.70
   6   4  -8  193.58   18.50
   4  -6  -8  191.68   14.70
  -4   6  -8  218.18   17.10
   4  -6  -8  176.08   19.30
  -6  -4  -8  189.48   14.30
   4  -6   8  208.88   15.30
   4  -6   8  191.88   15.20
  -6  -4   8  193.38   15.60
  -6  -4   8  206.38   15.60
  -4   6   8  190.28   15.40
  -6  -4   8  185.48   15.30
  -6  -4   8  190.28   15.90
  -3   6  -8  904.41   59.99
   3  -6  -8  809.72   57.19
  -6  -3  -8  799.22   57.39
   6   3  -8  801.72   58.09
   6   3  -8  758.82   60.99
   3  -6  -8  852.31   58.09
   3  -6  -8  783.52   62.19
   6   3  -8  780.62   58.19
  -6  -3  -8  901.51   58.69
  -3   6  -8  728.53   58.09
   3  -6   8  715.73   57.89
  -3   6   8  803.82   58.19
  -6  -3   8  777.02   58.19
  -6  -3   8  752.12   58.79
  -6  -3   8  825.42   58.39
   3  -6   8  749.82   57.89
  -6  -2  -8 1221.28   81.69
   6   2  -8 1135.39   81.09
  -2   6  -8 1024.10   80.99
   2  -6  -8 1194.98   81.09
  -2   6  -8 1141.99   82.09
   6   2  -8 1117.79   81.19
  -2   6  -8 1242.58   82.89
   2  -6  -8 1063.59   84.59
  -6  -2  -8 1115.29   80.59
   6   2  -8 1165.38   84.19
  -6  -2   8 1084.99   81.19
  -6  -2   8 1060.39   81.89
  -6  -2   8 1173.38   81.49
   2  -6   8 1023.70   80.99
   2  -6   8 1074.89   80.99
  -2   6   8 1088.29   80.99
  -1   6  -8  721.33   53.69
  -1   6  -8  735.63   54.39
  -6  -1  -8  759.22   53.59
   1  -6  -8  742.13   56.29
  -1   6  -8  670.13   52.89
   6   1  -8  743.13   52.99
   6   1  -8  676.83   55.39
   6   1  -8  736.23   53.09
  -6  -1  -8  734.93   52.59
   1  -6  -8  794.32   52.89
  -6  -1   8  711.13   53.19
  -1   6   8  696.03   52.79
  -6  -1   8  738.13   53.29
   1  -6   8  700.83   52.89
   1  -6   8  704.03   52.99
  -6  -1   8  743.13   53.99
   6   0  -8 1160.18   92.19
   0   6  -8 1186.18   90.09
   0  -6  -8 1336.57   89.99
  -6   0  -8 1287.17   90.89
   0  -6  -8 1314.47   93.29
  -6   0  -8 1287.47   89.99
   0   6  -8 1284.77   90.89
   6   0  -8 1229.98   90.29
   0   6  -8 1266.07   91.59
   6   0  -8 1240.08   90.09
  -6   0  -8 1153.38   89.69
   0  -6   8 1250.77   90.29
  -6   0   8 1264.97   90.59
  -6   0   8 1222.88   91.19
   0  -6   8 1220.58   90.09
   0   6   8 1188.18   89.99
   0  -6   8 1415.86   90.09
  -6   0   8 1161.08   90.39
   1   6  -8  709.93   54.19
  -1  -6  -8  792.12   53.49
   6  -1  -8  738.53   55.39
   1   6  -8  826.02   57.39
  -6   1  -8  645.34   53.59
  -6   1  -8  766.62   53.69
   6  -1  -8  732.93   53.89
   1   6  -8  720.43   54.99
  -1  -6  -8  810.12   56.59
   1   6  -8  708.93   53.69
   6  -1  -8  727.93   53.49
  -6   1   8  739.23   54.19
  -1  -6   8  735.43   53.89
  -6   1   8  709.53   54.79
  -1  -6   8  736.93   53.69
   1   6   8  714.63   53.59
  -6   2  -8 1043.80   82.39
   6  -2  -8 1041.60   82.19
   6  -2  -8 1119.79   83.09
  -6   2  -8 1199.08   82.29
   2   6  -8 1094.39   82.49
   2   6  -8 1324.67   85.89
  -2  -6  -8 1204.18   81.89
   2   6  -8 1091.79   82.19
  -2  -6  -8 1069.59   81.19
   2   6  -8 1159.78   83.59
  -2  -6  -8 1269.47   84.79
  -2  -6   8 1170.08   82.39
  -2  -6   8 1097.79   82.09
  -6   2   8 1054.99   86.79
  -6   2   8 1120.89   82.59
  -6   3  -8  826.92   59.59
   6  -3  -8  746.03   58.99
  -3  -6  -8  909.91   61.19
   3   6  -8  771.32   58.99
   3   6  -8  802.42   58.89
  -6   3  -8  823.52   59.09
  -6   3  -8  804.52   59.49
   6  -3  -8  786.52   58.99
   3   6  -8  743.33   59.99
  -3  -6  -8  868.81   58.59
   3   6  -8  833.42   62.09
  -3  -6   8  719.03   58.89
  -6   3   8  827.82   59.29
  -3  -6   8  848.42   58.99
  -3  -6   8  797.92   58.69
  -6   4  -8  191.88   16.00
   4   6  -8  188.48   15.00
   6  -4  -8  173.38   14.60
  -6   4  -8  177.58   15.50
   4   6  -8  170.58   16.20
  -4  -6  -8  205.48   16.90
  -6   4  -8  214.68   15.50
   4   6  -8  206.38   18.60
   6  -4  -8  192.08   15.20
   6  -4  -8  172.48   19.90
   4   6  -8  189.68   15.20
  -4  -6   8  191.98   15.40
  -4  -6   8  213.98   15.20
  -6   4   8  186.28   15.40
  -4  -6   8  179.18   15.00
  -6   5  -8  525.75   39.60
   5   6  -8  513.35   38.30
  -6   5  -8  510.45   38.80
   5   6  -8  508.65   39.80
   6  -5  -8  500.95   38.40
   5   6  -8  499.05   41.40
   6  -5  -8  473.15   43.70
   6  -5  -8  499.25   37.30
  -6   5  -8  559.74   38.80
  -5  -6   8  546.95   38.30
  -6   5   8  546.65   38.90
  -5  -6   8  495.35   38.70
  -5  -6   8  500.15   38.20
   6   6  -8  689.13   52.09
  -6   6  -8  727.43   53.59
  -6   6  -8  682.03   52.39
   6   6  -8  764.12   55.69
   6  -6  -8  627.64   51.79
   6  -6  -8  656.23   57.59
   6   6  -8  680.83   53.49
   6  -6  -8  702.83   52.09
  -6  -6   8  751.02   52.09
  -6   6   8  746.23   52.59
   6  -6   8  705.93   51.99
  -6  -6   8  729.03   52.69
  -6  -6   8  710.53   51.99
   6  -7  -8  399.86   39.30
  -6   7  -8  508.45   36.20
   7   6  -8  406.16   34.10
   6  -7  -8  469.75   33.70
  -6   7  -8  432.66   34.40
   7   6  -8  454.95   37.70
   7   6  -8  480.85   36.00
   6  -7  -8  455.65   34.10
   6  -7   8  475.75   34.10
  -7  -6   8  445.26   34.10
  -7  -6   8  431.76   34.80
  -7  -6   8  443.26   34.10
   6  -7   8  457.55   34.10
  -6   7   8  474.05   34.70
   7   5  -8  626.34   51.79
  -7  -5  -8  702.13   49.20
  -5   7  -8  733.13   52.49
   5  -7  -8  626.64   55.39
  -5   7  -8  632.84   50.49
   7   5  -8  668.93   50.59
   5  -7  -8  691.73   49.80
   7   5  -8  725.93   54.19
   5  -7  -8  690.83   50.39
  -7  -5   8  694.73   50.49
  -5   7   8  719.63   50.79
   5  -7   8  699.13   50.29
  -7  -5   8  663.43   51.29
  -7  -5   8  666.33   50.39
  -7  -5   8  724.13   50.99
   5  -7   8  659.43   50.39
   4  -7  -8 1054.19   73.79
  -7  -4  -8 1018.50   72.79
   7   4  -8  977.40   73.89
  -4   7  -8 1122.29   75.99
   4  -7  -8 1013.20   72.79
   7   4  -8 1044.00   73.79
   7   4  -8 1036.00   77.29
  -4   7  -8  928.51   73.79
   4  -7  -8  888.91   77.89
  -7  -4   8  975.50   73.89
   4  -7   8  954.90   73.69
  -4   7   8 1041.80   73.99
   4  -7   8 1015.20   73.69
  -7  -4   8 1089.89   74.99
  -7  -4   8 1050.69   74.29
  -7  -4   8  993.40   73.89
  -3   7  -8  176.08   15.40
   7   3  -8  203.48   15.70
   3  -7  -8  211.88   15.50
   7   3  -8  188.38   18.80
   7   3  -8  191.48   15.50
  -3   7  -8  218.68   17.50
   3  -7  -8  187.18   19.20
   3  -7   8  189.08   15.50
  -7  -3   8  194.28   15.80
  -7  -3   8  197.38   17.40
  -7  -3   8  198.28   16.60
  -3   7   8  190.68   15.50
   3  -7   8  190.18   15.50
  -7  -3   8  216.98   16.10
  -2   7  -8  389.96   29.20
   7   2  -8  371.86   27.60
   7   2  -8  352.46   30.50
   2  -7  -8  385.86   27.30
   2  -7  -8  346.37   30.80
   7   2  -8  353.66   27.40
  -7  -2  -8  373.96   27.00
  -2   7  -8  345.17   27.40
  -7  -2   8  393.56   28.00
  -7  -2   8  389.36   27.90
  -7  -2   8  365.06   28.60
   2  -7   8  337.77   27.30
   2  -7   8  337.77   27.40
  -2   7   8  357.06   27.30
  -7  -1  -8 1114.29   79.19
  -1   7  -8 1013.30   79.39
   7   1  -8 1071.19   79.49
   1  -7  -8 1198.48   79.29
   7   1  -8 1088.39   82.29
   7   1  -8 1108.69   79.49
  -1   7  -8 1132.49   81.09
   1  -7  -8 1116.89   82.89
  -1   7  -8 1093.99   80.49
   1  -7   8 1072.09   79.29
  -7  -1   8 1133.49   79.99
  -7  -1   8 1092.19   80.69
  -1   7   8 1029.50   79.29
  -7  -1   8 1111.79   79.89
   1  -7   8 1061.99   79.49
   0   7  -8    8.00    2.80
  -7   0  -8    2.60    1.00
   0   7  -8    1.80    1.30
  -7   0  -8    0.50    0.90
   7   0  -8    3.70    1.70
   0  -7  -8    2.70    1.30
   0   7  -8    2.00    1.80
   7   0  -8    1.10    1.20
   7   0  -8   13.50    4.50
   0  -7  -8    1.00    2.70
   0   7   8    4.00    1.30
   0  -7   8    1.90    1.30
   0  -7   8    0.40    1.50
  -7   0   8    1.40    1.60
  -7   0   8    0.10    1.30
  -1  -7  -8 1212.98   79.49
  -7   1  -8 1155.38   79.79
  -7   1  -8  972.30   79.49
   1   7  -8 1072.39   80.39
   1   7  -8 1072.99   79.69
   1   7  -8 1054.09   81.09
   7  -1  -8 1081.89   79.59
   7  -1  -8 1050.39   79.89
  -1  -7  -8 1155.28   82.49
   7  -1  -8 1022.50   81.49
  -1  -7   8 1106.19   80.19
  -7   1   8 1279.37   81.79
  -1  -7   8 1117.99   79.89
  -7   1   8 1044.00   80.29
  -1  -7   8 1123.09   79.69
   1   7   8 1099.49   79.59
  -7   1   8 1087.89   81.19
   7  -2  -8  374.56   29.50
   2   7  -8  373.86   28.30
  -7   2  -8  326.67   28.30
   2   7  -8  361.86   28.70
  -7   2  -8  408.56   28.50
  -2  -7  -8  363.86   27.10
   7  -2  -8  322.87   33.10
   7  -2  -8  351.16   28.40
   2   7  -8  461.25   32.70
  -2  -7  -8  451.85   31.20
   2   7  -8  361.66   29.50
  -7   2   8  363.06   28.80
  -2  -7   8  412.16   28.70
  -2  -7   8  385.16   28.50
  -2  -7   8  371.56   28.20
  -7   2   8  372.16   29.80
   2   7   8  363.86   28.00
   3   7  -8  197.28   15.70
  -3  -7  -8  248.78   18.40
  -7   3  -8  185.78   16.20
  -7   3  -8  226.28   16.20
   3   7  -8  184.68   16.90
   7  -3  -8  187.68   21.10
   3   7  -8  239.78   20.00
   7  -3  -8  179.18   15.90
   7  -3  -8  187.68   16.20
  -3  -7   8  210.68   16.00
  -3  -7   8  189.68   15.90
  -7   3   8  206.38   16.40
  -3  -7   8  182.08   15.60
   7  -4  -8  961.60   74.19
  -4  -7  -8 1146.39   77.39
  -7   4  -8 1005.40   75.19
  -7   4  -8 1166.98   74.99
   4   7  -8 1034.10   77.79
   4   7  -8  993.20   74.29
   7  -4  -8  929.31   79.99
   7  -4  -8  948.51   74.49
   4   7  -8  951.80   75.59
  -7   4   8 1042.00   75.09
  -4  -7   8 1014.30   74.69
  -4  -7   8  984.30   74.19
  -4  -7   8 1093.69   74.59
   7  -5  -8  685.43   57.19
   7  -5  -8  654.63   49.90
  -7   5  -8  693.93   51.79
  -7   5  -8  761.92   51.29
   5   7  -8  746.53   54.39
   5   7  -8  666.63   50.59
   7  -5  -8  632.44   50.69
   5   7  -8  685.63   52.09
  -5  -7   8  667.33   50.39
  -5  -7   8  655.23   50.89
  -7   5   8  692.73   51.29
  -5  -7   8  712.63   50.69
   6   7  -8  441.76   34.70
  -7   6  -8  419.06   33.50
   7  -6  -8  396.76   33.20
   7  -6  -8  430.16   33.20
   6   7  -8  433.66   33.10
   7  -6  -8  415.06   39.20
  -7   6  -8  441.26   34.50
   6   7  -8  456.65   37.30
   7  -6  -8  427.46   31.80
  -7   6   8  474.45   34.00
  -6  -7   8  468.75   33.80
  -6  -7   8  437.46   33.00
  -6  -7   8  461.45   33.20
  -7   7  -8  176.18   15.90
   7   7  -8  200.38   17.40
  -7   7  -8  181.78   17.00
   7  -7  -8  190.68   15.50
   7   7  -8  193.28   15.70
   7  -7  -8  188.28   15.70
   7  -7  -8  188.98   21.80
  -7  -7   8  191.98   15.60
   7  -7   8  207.38   15.80
  -7  -7   8  187.48   16.30
  -7   7   8  199.48   16.40
  -7  -7   8  192.78   15.60
  -7   8  -8  311.67   26.40
   7  -8  -8  295.77   24.50
   7  -8  -8  288.17   30.50
   8   7  -8  298.37   24.70
   7  -8  -8  315.57   24.00
  -7   8  -8  294.27   24.90
   7  -8   8  367.56   24.80
  -8  -7   8  317.07   24.70
  -8  -7   8  299.07   25.40
  -7   8   8  322.67   25.40
   7  -8   8  356.86   24.90
  -8  -7   8  306.77   24.50
   8   6  -8  748.53   57.39
   6  -8  -8  787.62   56.29
  -8  -6  -8  779.72   55.59
   6  -8  -8  757.92   57.09
  -6   8  -8  828.02   59.49
   6  -8  -8  667.23   62.49
  -6   8  -8  693.73   57.29
  -8  -6   8  736.43   57.19
  -8  -6   8  748.23   57.19
   6  -8   8  848.82   57.39
   6  -8   8  876.41   57.19
  -6   8   8  796.62   57.79
  -8  -6   8  779.82   58.29
   5  -8  -8   84.29   13.40
   8   5  -8   38.70    8.10
  -5   8  -8   34.80    4.60
   8   5  -8   32.30    4.60
   5  -8  -8   39.40    4.50
  -5   8  -8   33.90    6.20
   5  -8  -8   32.70    3.20
  -8  -5  -8   32.40    3.10
   5  -8   8   31.50    4.30
  -5   8   8   34.80    4.60
  -8  -5   8   27.90    5.00
   5  -8   8   39.30    4.90
  -8  -5   8   30.40    4.40
  -8  -5   8   36.80    5.00
  -8  -5   8   38.30    5.20
   4  -8  -8   30.20    3.90
  -8  -4  -8   32.00    3.00
  -4   8  -8   27.10    5.40
   4  -8  -8   23.60    7.00
   8   4  -8   23.00    6.90
   8   4  -8   25.50    3.90
   8   4  -8   31.90    4.00
  -4   8  -8   32.80    4.00
  -8  -4   8   28.50    5.10
  -8  -4   8   31.50    4.50
   4  -8   8   28.10    3.90
  -4   8   8   25.30    3.80
  -8  -4   8   30.30    4.60
  -8  -4   8   29.80    4.00
   4  -8   8   42.80    4.70
   8   3  -8   50.29    9.00
  -3   8  -8   42.00    5.00
   3  -8  -8   50.49    5.10
   8   3  -8   47.80    5.30
   3  -8  -8   39.30    8.70
  -8  -3  -8   48.70    4.50
  -3   8  -8   51.59    7.00
   8   3  -8   54.59    5.50
  -8  -3   8   51.79    5.90
   3  -8   8   47.40    5.10
   3  -8   8   53.69    5.60
  -8  -3   8   43.40    5.30
  -8  -3   8   51.69    6.50
  -3   8   8   52.49    5.30
  -8  -3   8   56.79    6.00
  -2   8  -8 1004.90   72.59
   8   2  -8  999.50   70.99
  -2   8  -8  925.81   70.59
   8   2  -8  922.01   73.69
   2  -8  -8 1056.39   70.49
   2  -8  -8  954.10   74.49
  -8  -2  -8  958.30   70.09
   8   2  -8  957.70   70.79
  -2   8   8 1000.30   70.59
  -8  -2   8  960.10   72.09
  -8  -2   8  972.20   71.09
   2  -8   8  933.61   70.69
  -8  -2   8  958.80   71.29
   2  -8   8  956.60   70.49
   8   1  -8   65.79    6.60
   8   1  -8   71.09    9.90
   1  -8  -8   58.29    9.80
   1  -8  -8   67.49    6.20
  -1   8  -8   65.89    6.40
  -8  -1  -8   71.89    6.20
  -1   8  -8   68.29    8.00
   8   1  -8   73.09    6.80
   1  -8   8   68.39    6.60
  -1   8   8   60.39    6.20
  -8  -1   8   72.89    8.00
  -8  -1   8   84.09    7.50
  -8  -1   8   67.59    7.20
   1  -8   8   68.09    6.70
  -8   0  -8  784.62   56.59
   8   0  -8  809.12   59.59
   0   8  -8  790.12   56.79
   8   0  -8  795.12   56.89
   0   8  -8  718.03   57.69
   8   0  -8  762.82   56.99
   0   8  -8  866.31   58.69
   0  -8  -8  820.22   59.99
  -8   0  -8  796.52   55.99
  -8   0   8  786.82   57.59
   0  -8   8  731.13   56.79
   0   8   8  752.42   56.49
   0  -8   8  701.83   57.19
  -8   0   8  783.92   57.39
  -8   0   8  724.93   58.29
   0  -8   8  796.62   56.69
   1   8  -8   69.29    6.50
  -8   1  -8   70.39    6.20
   8  -1  -8   66.69    6.80
  -8   1  -8   71.29    6.50
   8  -1  -8   66.19    7.80
   1   8  -8   64.49    7.80
   1   8  -8   63.39    7.20
   8  -1  -8   68.89    8.80
  -1  -8  -8   83.99    9.40
  -8   1   8   73.09    7.50
   1   8   8   61.39    6.30
  -1  -8   8   69.09    6.90
  -8   1   8   72.29    8.00
  -1  -8   8   72.89    6.70
  -8   1   8   76.29    7.40
  -1  -8   8   64.49    6.60
   8  -2  -8  865.81   76.99
  -8   2  -8 1025.60   71.99
  -2  -8  -8 1084.29   74.49
   2   8  -8 1006.20   71.79
   2   8  -8  966.90   73.19
  -8   2  -8 1006.90   71.89
   8  -2  -8  898.31   71.99
   8  -2  -8  948.71   73.09
  -8   2   8  903.81   73.49
  -2  -8   8 1007.80   71.99
  -8   2   8  996.80   72.69
  -2  -8   8 1053.59   72.39
  -2  -8   8 1003.10   71.69
   8  -3  -8   42.60    5.30
   8  -3  -8   40.30    5.90
   3   8  -8   45.30    6.20
  -8   3  -8   51.29    5.40
  -8   3  -8   49.50    5.50
  -3  -8  -8   60.99    7.40
   3   8  -8   49.10    5.10
   3   8  -8   54.79    9.90
   8  -3  -8   49.70   11.40
  -3  -8   8   45.70    5.20
  -3  -8   8   49.70    5.40
  -3  -8   8   42.70    5.20
  -8   3   8   44.60    5.70
   4   8  -8   30.80    3.80
   8  -4  -8   24.50    4.10
  -8   4  -8   34.80    4.40
   8  -4  -8   22.70    4.00
   8  -4  -8   27.50    8.70
  -8   4  -8   33.70    5.00
   4   8  -8   30.90    5.60
   4   8  -8   29.00    7.10
  -4  -8   8   28.20    4.20
  -4  -8   8   26.80    4.30
  -8   4   8   29.50    4.90
  -4  -8   8   31.10    3.90
   8  -5  -8   37.20    4.80
   5   8  -8   30.10    4.10
  -8   5  -8   36.10    5.60
   8  -5  -8   44.90    4.40
   8  -5  -8   27.70    8.80
   5   8  -8   29.10    5.60
  -5  -8   8   35.00    4.30
  -5  -8   8   27.30    4.60
  -8   5   8   38.30    5.20
  -5  -8   8   35.10    4.70
   6   8  -8  753.72   58.29
   8  -6  -8  749.33   55.49
   8  -6  -8  743.03   56.79
   6   8  -8  736.83   56.59
   8  -6  -8  771.72   63.99
  -8   6  -8  806.92   57.99
  -6  -8   8  782.02   56.49
  -6  -8   8  774.32   56.69
  -6  -8   8  772.92   57.19
  -8   6   8  790.82   57.69
   8  -7  -8  331.17   31.40
   8  -7  -8  289.07   23.70
  -8   7  -8  310.37   25.20
   8  -7  -8  277.97   22.10
   8  -7  -8  302.87   23.90
   7   8  -8  309.77   23.80
  -7  -8   8  306.07   23.70
  -8   7   8  311.07   24.80
  -7  -8   8  297.97   23.50
   8  -7   8  339.17   25.10
  -7  -8   8  298.37   24.30
   8   8  -8  534.45   42.60
   8  -8  -8  519.95   49.20
   8  -8  -8  532.65   42.60
   8  -8  -8  543.95   42.10
  -8   8  -8  588.24   44.30
  -8  -8   8  582.34   42.70
   8  -8   8  613.44   42.80
  -8  -8   8  556.24   43.40
  -8  -8   8  596.74   42.50
  -8   8   8  575.54   43.70
   8  -9  -8   11.20    3.20
  -8   9  -8    8.50    3.80
   9   8  -8    6.90    2.80
   8  -9  -8    5.90    5.90
   8  -9  -8   11.70    2.40
  -9  -8   8   12.00    3.20
   8  -9   8   10.20    2.90
  -9  -8   8    9.90    3.00
   8  -9   8   19.10    3.80
  -9  -8   8    7.30    3.20
  -8   9   8    9.40    3.40
   7  -9  -8   17.30    2.60
  -7   9  -8   13.80    4.40
  -7   9  -8   22.50    4.00
   7  -9  -8   11.30    7.00
   7  -9  -8   19.30    3.80
   9   7  -8   22.90    4.30
  -7   9   8   19.20    4.30
  -9  -7   8   12.30    3.80
  -9  -7   8   17.20    3.80
  -9  -7   8   18.20    3.70
   7  -9   8   21.80    3.90
   7  -9   8   17.20    3.50
  -9  -6  -8  393.26   29.30
  -6   9  -8  358.86   31.00
  -6   9  -8  431.16   33.40
   9   6  -8  378.86   31.20
   6  -9  -8  380.36   30.70
   6  -9  -8  333.97   35.90
  -9  -6   8  407.06   31.30
   6  -9   8  470.85   31.10
  -9  -6   8  395.36   32.20
   6  -9   8  454.55   31.30
  -6   9   8  424.46   31.70
  -9  -6   8  413.66   31.20
   5  -9  -8  919.61   83.19
   9   5  -8 1093.99   82.29
   9   5  -8 1039.10   78.69
  -5   9  -8 1209.08   81.19
  -9  -5  -8 1008.40   76.99
  -5   9  -8  989.20   78.39
   5  -9  -8 1097.19   78.09
  -9  -5   8 1032.90   79.69
  -9  -5   8 1018.50   78.59
  -9  -5   8 1108.59   79.59
   5  -9   8 1156.08   78.49
  -5   9   8 1083.79   80.99
   5  -9   8 1173.28   78.29
  -9  -5   8 1065.19   78.49
  -4   9  -8  524.15   36.20
   4  -9  -8  451.85   33.00
   9   4  -8  408.56   33.50
   4  -9  -8  412.16   37.90
   9   4  -8  445.66   37.10
  -4   9  -8  431.16   33.30
  -9  -4  -8  420.66   32.20
  -9  -4   8  433.76   33.60
  -9  -4   8  486.35   34.60
  -9  -4   8  399.26   33.50
   4  -9   8  450.75   33.20
   4  -9   8  449.36   33.30
  -9  -4   8  431.26   34.70
   3  -9  -8  307.17   21.40
   9   3  -8  279.67   21.70
   9   3  -8  267.47   21.90
   9   3  -8  278.87   25.20
  -9  -3  -8  249.38   20.70
  -3   9  -8  304.17   24.00
   3  -9  -8  277.37   26.00
  -3   9  -8  267.67   21.50
  -9  -3   8  281.47   22.10
  -9  -3   8  245.08   21.90
  -9  -3   8  286.27   23.30
  -9  -3   8  292.97   22.70
   3  -9   8  293.47   21.60
   3  -9   8  268.27   21.60
   2  -9  -8 1190.68   83.39
  -2   9  -8 1199.98   84.29
  -9  -2  -8 1047.40   81.29
   9   2  -8 1152.68   82.19
  -2   9  -8 1086.69   81.89
   9   2  -8 1102.49   82.29
   2  -9  -8 1072.29   85.79
  -9  -2   8 1150.88   82.99
  -9  -2   8 1125.19   83.69
   2  -9   8 1167.48   81.79
  -9  -2   8 1041.10   82.79
   2  -9   8 1168.48   82.09
  -9  -2   8 1133.39   82.49
   1  -9  -8   32.10    7.20
  -1   9  -8   27.30    3.80
  -9  -1  -8   31.40    3.50
   9   1  -8   30.50    4.20
  -1   9  -8   40.10    6.60
   9   1  -8   27.30    4.10
   9   1  -8   28.70    6.80
  -9  -1   8   28.90    4.70
  -9  -1   8   28.70    5.50
   1  -9   8   29.70    4.00
   1  -9   8   26.90    4.10
  -9  -1   8   33.30    5.30
  -9   0  -8    1.30    1.20
   9   0  -8    2.10    1.80
   0   9  -8    2.70    1.50
   9   0  -8    5.00    3.80
   9   0  -8    1.10    1.60
   0  -9  -8    2.20    2.90
   0   9  -8    5.20    2.70
   0  -9   8    1.60    1.80
   0  -9   8    0.00    1.40
   0  -9   8    9.00    2.40
  -9   0   8    3.40    2.40
  -9   0   8    6.70    3.00
  -9   0   8    3.60    2.10
   9  -1  -8   26.50    6.00
  -9   1  -8   29.70    3.40
   1   9  -8   32.60    5.60
  -9   1  -8   26.10    3.60
   1   9  -8   25.30    3.70
  -1  -9  -8   27.50    6.50
   9  -1  -8   32.90    4.80
  -1  -9   8   33.10    4.50
  -9   1   8   22.60    4.50
  -1  -9   8   32.90    4.10
  -9   1   8   29.30    5.70
  -9   1   8   24.80    4.90
  -1  -9   8   33.70    4.30
  -2  -9  -8 1272.87   87.19
   2   9  -8 1119.49   85.89
   9  -2  -8 1182.28   85.99
   2   9  -8 1158.88   84.29
   9  -2  -8 1090.69   84.69
  -9   2  -8 1197.08   84.29
  -9   2  -8 1132.19   84.29
  -9   2   8 1045.90   86.29
  -2  -9   8 1224.08   84.19
  -2  -9   8 1218.08   84.59
  -9   2   8 1088.49   85.29
  -2  -9   8 1175.08   84.99
   3   9  -8  278.47   21.60
  -9   3  -8  296.67   22.00
   9  -3  -8  257.27   22.00
   9  -3  -8  253.27   22.50
   9  -3  -8  272.17   27.50
   3   9  -8  287.87   23.30
  -3  -9  -8  306.57   24.10
  -9   3  -8  285.97   21.90
  -3  -9   8  276.17   21.50
  -3  -9   8  294.07   22.00
  -9   3   8  283.57   22.80
  -9   3   8  225.68   23.40
  -3  -9   8  290.97   22.20
   4   9  -8  420.76   34.60
   9  -4  -8  419.56   33.30
  -9   4  -8  486.85   33.60
   9  -4  -8  417.76   39.60
   9  -4  -8  392.66   33.30
   4   9  -8  425.46   33.00
  -9   4  -8  460.45   33.70
  -4  -9   8  457.65   33.50
  -9   4   8  430.96   34.20
  -4  -9   8  446.06   33.40
  -4  -9   8  445.66   32.90
   9  -5  -8 1108.89   85.39
   5   9  -8 1027.30   77.49
   9  -5  -8 1027.80   77.19
   9  -5  -8  978.60   77.89
  -9   5  -8 1179.28   78.69
  -5  -9   8 1020.90   77.69
  -9   5   8 1072.09   78.89
  -5  -9   8 1085.59   77.39
  -5  -9   8 1081.69   77.99
   9  -6  -8  366.56   30.80
   9  -6  -8  393.26   29.70
   6   9  -8  385.36   30.50
  -9   6  -8  441.76   31.90
  -6  -9   8  431.06   30.50
  -6  -9   8  400.16   31.10
  -6  -9   8  379.36   30.60
  -9   6   8  409.06   31.90
   7   9  -8   20.10    3.80
   9  -7  -8   17.40    3.70
   9  -7  -8   15.60    2.40
   9  -7  -8   19.30    8.30
   9  -7  -8   17.60    3.70
  -9   7  -8   15.70    4.30
  -7  -9   8   18.30    3.60
  -7  -9   8   25.10    4.10
  -9   7   8   16.50    4.30
  -7  -9   8   12.70    3.60
   9  -8  -8   14.10    8.10
  -9   8  -8    7.60    3.50
   9  -8  -8    7.80    3.00
   8   9  -8   15.40    3.50
   9  -8  -8   13.30    3.10
   9  -8   8   10.50    3.00
  -8  -9   8   17.10    3.50
  -9   8   8    7.60    3.50
  -8  -9   8   14.30    3.70
  -8  -9   8    9.80    2.80
   9  -9  -8   77.99    8.70
   9   9  -8   79.79    9.00
   9  -9  -8   72.59   15.30
  -9   9  -8   89.19   10.40
   9  -9  -8   92.19    8.30
  -9  -9   8   87.99    9.00
   9  -9   8  105.59    9.50
  -9   9   8   92.99   10.30
   9  -9   8  102.09    9.20
  -9  -9   8   89.19    9.70
  -9  -9   8   88.29    8.90
  10   9  -8  536.85   41.50
   9 -10  -8  541.45   39.80
   9 -10  -8  505.75   48.20
   9 -10  -8  470.05   40.80
  -9  10  -8  572.54   43.10
 -10  -9   8  518.45   41.30
   9 -10   8  655.43   41.60
 -10  -9   8  566.14   40.70
 -10  -9   8  480.25   41.90
   8 -10  -8  393.16   33.60
   8 -10  -8  357.26   39.70
  -8  10  -8  414.46   35.70
   8 -10  -8  453.65   32.90
  10   8  -8  413.16   34.20
 -10  -8   8  417.76   34.10
   8 -10   8  510.55   34.00
   8 -10   8  500.45   34.20
 -10  -8   8  434.76   35.10
 -10  -8   8  460.35   33.90
  10   7  -8  539.85   43.40
  -7  10  -8  526.65   43.20
   7 -10  -8  451.65   48.30
   7 -10  -8  541.75   42.80
  -7  10  -8  590.84   45.60
   7 -10   8  651.23   43.40
 -10  -7   8  569.14   43.40
 -10  -7   8  560.04   44.40
   7 -10   8  671.03   43.10
 -10  -7   8  557.44   43.10
  10   6  -8  245.08   19.70
 -10  -6  -8  213.48   17.30
   6 -10  -8  231.78   18.70
   6 -10  -8  183.68   23.70
  -6  10  -8  249.48   21.70
  -6  10  -8  221.98   19.10
 -10  -6   8  251.17   19.50
 -10  -6   8  231.38   20.50
   6 -10   8  261.27   19.10
   6 -10   8  263.67   19.30
 -10  -6   8  222.58   19.30
 -10  -5  -8   85.89    7.40
   5 -10  -8   96.09    8.60
  -5  10  -8  124.39   12.00
  10   5  -8   84.69    9.20
   5 -10  -8   74.49   14.10
  -5  10  -8   80.79    8.60
 -10  -5   8   97.49    9.30
   5 -10   8   98.79    9.00
   5 -10   8  101.99    9.00
 -10  -5   8   91.69   10.20
 -10  -5   8   86.19    9.40
 -10  -5   8  104.19   12.90
  10   4  -8    6.60    2.80
  -4  10  -8    5.60    2.20
  -4  10  -8    4.70    3.60
   4 -10  -8    4.80    2.10
 -10  -4  -8    8.30    1.60
  10   4  -8    4.50    4.40
   4 -10  -8    6.50    5.00
 -10  -4   8    3.80    2.70
 -10  -4   8    5.30    2.40
 -10  -4   8    0.50    2.50
   4 -10   8    6.50    2.40
   4 -10   8    7.40    2.70
 -10  -4   8    6.90    3.30
  -3  10  -8   51.59    8.20
  -3  10  -8   42.60    5.20
   3 -10  -8   47.40   10.20
  10   3  -8   47.90    6.00
 -10  -3  -8   48.40    4.50
  10   3  -8   53.19    9.70
 -10  -3   8   45.30    6.00
   3 -10   8   43.00    5.30
 -10  -3   8   42.80    6.30
 -10  -3   8   40.70    6.30
 -10  -3   8   50.69    7.70
   3 -10   8   51.19    5.90
   2 -10  -8  891.31   72.99
 -10  -2  -8  873.11   68.19
  10   2  -8  953.40   69.29
  10   2  -8  891.71   69.39
  -2  10  -8  916.81   68.89
  -2  10  -8 1063.19   71.89
  10   2  -8 1116.39   73.39
   2 -10   8  922.61   69.09
 -10  -2   8  945.91   70.29
   2 -10   8  961.60   68.79
 -10  -2   8  967.50   69.79
 -10  -2   8  851.21   69.79
 -10  -2   8  936.21   71.09
   1 -10  -8  929.51   71.59
  10   1  -8  911.21   68.09
  -1  10  -8  898.81   67.59
  -1  10  -8  967.50   69.99
  10   1  -8  918.51   68.09
  10   1  -8 1034.50   71.49
 -10  -1  -8  877.11   67.09
 -10  -1   8  819.42   71.19
 -10  -1   8  887.01   69.79
 -10  -1   8  911.51   68.89
   1 -10   8  936.61   67.79
   1 -10   8  974.00   67.49
 -10  -1   8  946.41   68.59
   0  10  -8 1421.56  102.89
   0  10  -8 1444.06  104.99
  10   0  -8 1575.14  106.29
  10   0  -8 1368.36  103.19
   0 -10  -8 1463.85  106.49
 -10   0  -8 1361.36  102.49
  10   0  -8 1367.66  103.29
 -10   0   8 1408.56  103.89
 -10   0   8 1337.57  104.09
   0 -10   8 1478.05  102.79
   0 -10   8 1487.95  103.19
 -10   0   8 1320.97  105.09
 -10   1  -8  851.31   67.69
   1  10  -8  946.71   69.99
   1  10  -8  963.30   67.99
  10  -1  -8  850.51   68.39
 -10   1  -8  950.10   67.29
  -1 -10  -8  975.30   71.29
  10  -1  -8 1035.10   70.89
  -1 -10   8  890.71   68.79
 -10   1   8  963.50   69.19
 -10   1   8  896.71   70.39
  -1 -10   8  943.01   67.79
  -1 -10   8  908.31   68.09
 -10   1   8  910.41   69.29
   2  10  -8  951.80   70.49
  10  -2  -8  889.51   70.99
  10  -2  -8 1018.30   72.59
 -10   2  -8  970.70   70.59
  -2 -10  -8 1009.20   73.49
   2  10  -8  912.71   72.29
 -10   2  -8 1022.00   70.39
  -2 -10   8  919.91   71.29
  -2 -10   8 1015.10   70.39
 -10   2   8  884.31   72.99
 -10   2   8  981.80   71.89
  -2 -10   8  981.40   70.89
 -10   2   8  965.10   71.99
  10  -3  -8   40.90    6.60
  -3 -10  -8   42.40    7.70
 -10   3  -8   51.49    5.40
  10  -3  -8   36.00   11.10
 -10   3  -8   43.90    5.30
   3  10  -8   48.70    5.30
  10  -3  -8   36.20    5.80
  -3 -10   8   45.50    5.60
  -3 -10   8   50.09    5.60
 -10   3   8   36.70    6.50
  -3 -10   8   49.10    5.60
 -10   3   8   45.50    8.10
   4  10  -8    3.70    1.90
  10  -4  -8   10.40    3.30
 -10   4  -8    5.30    2.40
 -10   4  -8    5.20    2.40
  10  -4  -8    4.40    2.30
  10  -4  -8   12.50    6.90
  -4 -10   8    5.50    2.30
  -4 -10   8    6.70    2.60
  -4 -10   8    6.00    2.40
 -10   4   8    6.10    3.00
  10  -5  -8   86.59    9.30
   5  10  -8   88.19    8.60
  10  -5  -8  116.29   19.00
 -10   5  -8   99.49    9.50
  10  -5  -8   90.69    8.90
  -5 -10   8   90.39    9.10
 -10   5   8   85.99    9.90
  -5 -10   8  101.29    9.10
  -5 -10   8   98.49    8.80
 -10   6  -8  253.17   19.70
  10  -6  -8  238.28   18.00
  10  -6  -8  231.58   26.00
  10  -6  -8  209.48   19.00
   6  10  -8  232.58   18.70
  -6 -10   8  231.58   18.40
  -6 -10   8  224.68   19.10
 -10   6   8  223.28   20.10
  -6 -10   8  228.18   18.80
  10  -7  -8  562.24   40.70
  10  -7  -8  569.44   50.19
  10  -7  -8  507.95   42.40
  10  -7  -8  517.25   42.50
 -10   7  -8  583.34   43.20
   7  10  -8  540.45   42.00
  -7 -10   8  580.34   42.80
 -10   7   8  543.55   43.70
  -7 -10   8  552.64   42.30
  -7 -10   8  618.74   41.80
  10  -8  -8  460.75   41.20
 -10   8  -8  465.95   34.20
  10  -8  -8  401.16   32.70
   8  10  -8  438.46   32.90
  10  -8  -8  398.96   33.10
  -8 -10   8  401.46   32.80
  -8 -10   8  461.15   32.40
  -8 -10   8  417.16   33.50
 -10   8   8  398.26   34.20
   9  10  -8  518.25   42.20
  10  -9  -8  484.05   42.20
  10  -9  -8  589.34   50.69
 -10   9  -8  603.74   43.90
  10  -9  -8  553.74   41.70
  -9 -10   8  518.45   42.30
  10  -9   8  638.74   42.50
 -10   9   8  469.15   43.30
  10  -9   8  630.64   45.70
  -9 -10   8  605.94   41.60
  -9 -10   8  534.35   43.00
  10 -10  -8  706.53   57.39
  10 -10  -8  781.32   56.29
  10 -10  -8  785.62   65.89
  10  10  -8  799.72   57.99
 -10  10  -8  799.12   59.09
 -10 -10   8  770.62   58.49
 -10 -10   8  736.73   57.59
   9 -11  -8   80.69    9.30
  -9  11  -8   94.39   11.50
   9 -11  -8   82.99   17.20
  11   9  -8   93.59   10.30
 -11  -9   8   89.19    9.90
   9 -11   8  111.49   10.10
 -11  -9   8   86.59   10.50
   9 -11   8  112.89   10.00
   8 -11  -8    3.40    2.40
   8 -11  -8    5.20    5.70
  11   8  -8   19.20    4.40
  -8  11  -8    2.70    3.70
   8 -11   8    1.10    3.90
   8 -11   8    2.40    2.40
   8 -11   8    9.10    3.30
 -11  -8   8    4.30    2.90
 -11  -8   8    3.30    2.60
 -11  -8   8    2.50    3.00
   7 -11  -8  110.29   10.40
  -7  11  -8  108.89   10.90
  11   7  -8  122.19   11.60
  -7  11  -8  123.39   13.30
   7 -11  -8   99.29   18.60
 -11  -7  -8  102.19    8.50
   7 -11   8  133.29   11.00
 -11  -7   8  115.89   11.20
 -11  -7   8  128.69   11.30
 -11  -7   8  111.19   12.10
   6 -11  -8  205.18   23.70
  -6  11  -8  219.58   20.60
  11   6  -8  214.68   18.60
 -11  -6  -8  195.68   16.00
  -6  11  -8  210.38   18.00
 -11  -6   8  217.78   18.30
 -11  -6   8  204.38   18.30
   6 -11   8  247.18   18.10
 -11  -6   8  201.18   19.30
   6 -11   8  248.98   17.90
  -5  11  -8  168.48   16.20
   5 -11  -8  119.09   17.60
  11   5  -8  150.78   13.90
  -5  11  -8  148.59   13.20
 -11  -5  -8  136.29   11.60
 -11  -5   8  145.49   14.80
   5 -11   8  168.58   13.40
 -11  -5   8  149.79   13.70
 -11  -5   8  144.79   13.70
   5 -11   8  172.68   13.20
 -11  -4  -8   10.00    1.90
   4 -11  -8    4.10    4.60
  11   4  -8   10.90    3.40
  11   4  -8    5.70    4.70
  -4  11  -8   10.20    2.80
  -4  11  -8    9.40    4.60
 -11  -4   8    3.30    3.20
 -11  -4   8    6.80    3.00
 -11  -4   8   10.30    4.00
   4 -11   8   10.20    3.00
 -11  -4   8    9.40    3.50
   4 -11   8    9.40    2.80
 -11  -3  -8  804.22   60.19
  -3  11  -8  957.80   64.79
   3 -11  -8  725.33   65.59
  11   3  -8  883.41   65.29
  11   3  -8  819.92   61.99
  -3  11  -8  809.22   61.19
 -11  -3   8  814.22   63.49
 -11  -3   8  845.02   62.99
   3 -11   8  870.71   60.99
 -11  -3   8  831.42   61.99
   3 -11   8  832.42   61.29
 -11  -3   8  767.12   62.09
  11   2  -8  251.17   19.50
   2 -11  -8  219.28   22.80
  11   2  -8  282.47   23.30
  -2  11  -8  263.27   21.70
 -11  -2  -8  220.08   18.00
  -2  11  -8  230.08   18.80
  11   2  -8  233.18   19.50
 -11  -2   8  239.78   20.40
 -11  -2   8  225.58   21.00
 -11  -2   8  241.08   20.00
   2 -11   8  245.78   19.00
 -11  -2   8  206.28   19.70
   2 -11   8  223.28   18.60
   1 -11  -8  109.99   12.70
  11   1  -8   90.09    9.20
  -1  11  -8   90.69   10.70
  -1  11  -8   91.69    8.40
 -11  -1  -8   85.89    7.90
  11   1  -8   97.09   12.40
  11   1  -8   88.09    9.10
 -11  -1   8   78.19   10.10
 -11  -1   8   81.79   10.50
 -11  -1   8   81.69    9.70
   1 -11   8   89.89    8.60
 -11  -1   8  115.79   10.60
   1 -11   8   89.39    8.60
 -11   0  -8    6.30    2.00
  11   0  -8    2.50    2.20
   0 -11  -8    3.00    4.10
  11   0  -8    5.50    4.40
   0  11  -8    4.10    3.00
   0  11  -8    1.50    1.60
  11   0  -8    1.20    2.20
 -11   0   8    0.50    2.40
 -11   0   8    1.00    2.90
 -11   0   8    3.40    2.40
   0 -11   8    0.40    1.70
   0 -11   8    9.60    2.80
 -11   1  -8   87.89    8.40
 -11   1  -8  112.09    9.00
  -1 -11  -8   97.29    7.40
   1  11  -8   87.39    8.60
  11  -1  -8   87.19    9.40
  -1 -11  -8   97.69   12.00
  11  -1  -8  107.79   12.10
 -11   1   8  107.49   11.00
 -11   1   8   93.19   11.20
 -11   1   8   90.29   10.10
  -1 -11   8   94.09    8.80
  -1 -11   8   96.69    9.00
  -1 -11   8   79.89    9.30
  -2 -11  -8  250.57   21.70
 -11   2  -8  254.17   18.20
  11  -2  -8  186.68   18.90
  11  -2  -8  286.67   21.40
   2  11  -8  236.58   18.50
 -11   2  -8  223.48   18.30
  -2 -11   8  248.78   19.00
 -11   2   8  221.08   20.10
  -2 -11   8  232.88   18.40
 -11   2   8  241.48   20.40
 -11   2   8  189.08   20.70
  -2 -11   8  212.18   19.20
 -11   3  -8  850.91   61.39
  -3 -11  -8  956.30   67.19
 -11   3  -8  876.31   61.29
  11  -3  -8  903.31   62.99
  11  -3  -8  741.73   61.89
   3  11  -8  853.51   61.29
 -11   3   8  708.73   63.89
  -3 -11   8  854.91   61.09
  -3 -11   8  790.42   61.99
  -3 -11   8  865.71   61.79
 -11   3   8  844.82   63.79
 -11   3   8  754.62   62.89
 -11   4  -8    6.80    2.60
 -11   4  -8   10.20    3.00
  11  -4  -8   10.10    3.60
   4  11  -8    6.50    2.40
  11  -4  -8    4.00    2.70
  -4 -11   8   10.60    2.90
  -4 -11   8    5.30    2.40
  -4 -11   8    9.10    2.90
 -11   4   8    6.10    3.10
  11  -5  -8  169.98   13.60
   5  11  -8  145.09   13.10
 -11   5  -8  167.68   13.80
  11  -5  -8  130.99   13.80
 -11   5   8  143.59   14.80
  -5 -11   8  166.08   13.80
  -5 -11   8  159.18   13.00
  -5 -11   8  147.19   13.50
  11  -6  -8  193.08   18.50
 -11   6  -8  234.18   18.40
   6  11  -8  227.98   17.70
  11  -6  -8  220.08   17.00
  11  -6  -8  174.78   17.90
  -6 -11   8  218.88   18.10
  -6 -11   8  246.18   17.30
 -11   6   8  194.28   19.10
  -6 -11   8  195.38   17.70
  11  -7  -8  112.69   11.20
   7  11  -8  115.59   10.60
  11  -7  -8   99.59   11.00
 -11   7  -8  119.69   11.40
  11  -7  -8  120.29    9.40
  -7 -11   8   96.39   10.40
  -7 -11   8  109.69   11.10
  -7 -11   8  123.69   10.20
 -11   7   8  112.39   12.30
  11  -8  -8    3.10    2.90
   8  11  -8   10.20    3.30
  11  -8  -8    2.80    5.80
 -11   8  -8    1.40    2.70
  11  -8  -8    3.00    1.60
  11  -8  -8    2.90    2.30
  -8 -11   8    2.60    2.20
 -11   8   8    4.80    3.50
  -8 -11   8    2.50    2.70
  11  -9  -8   84.89    9.60
  11  -9  -8   69.19   15.60
   9  11  -8   88.09    9.30
 -11   9  -8   94.09   10.20
  11  -9  -8   87.89    8.70
  -9 -11   8   91.29    9.30
 -11   9   8   77.09   10.50
  -9 -11   8   97.59   10.00
   7 -12  -8  395.76   42.10
  12   7  -8  447.96   36.80
 -12  -7  -8  414.46   33.60
  -7  12  -8  490.15   39.10
 -12  -7   8  433.16   36.40
   7 -12   8  526.65   42.30
 -12  -7   8  420.56   37.30
 -12  -7   8  474.05   36.00
   7 -12   8  548.15   36.30
   7 -12   8  527.05   35.70
  -6  12  -8   47.00    9.30
  -6  12  -8   43.10    5.80
  12   6  -8   35.70    6.50
   6 -12  -8   23.00    9.20
 -12  -6  -8   36.50    3.60
 -12  -6   8   31.00    6.60
   6 -12   8   49.00    5.90
 -12  -6   8   46.30    6.80
   6 -12   8   45.60    6.10
 -12  -6   8   45.50    6.20
 -12  -5  -8  241.08   18.40
  -5  12  -8  250.77   23.30
   5 -12  -8  202.38   25.00
  -5  12  -8  241.38   20.10
  12   5  -8  249.88   21.10
   5 -12   8  266.17   19.90
   5 -12   8  267.77   20.20
 -12  -5   8  223.28   20.60
 -12  -5   8  224.78   21.70
 -12  -5   8  267.37   20.90
   4 -12  -8    4.50    4.90
  12   4  -8    3.60    2.90
  -4  12  -8    6.50    4.20
 -12  -4  -8    2.60    1.30
  -4  12  -8    6.00    2.60
   4 -12   8    1.70    2.10
 -12  -4   8    1.20    2.60
 -12  -4   8    6.00    3.30
   4 -12   8    2.20    2.50
 -12  -4   8    2.70    3.20
 -12  -4   8    2.70    2.50
 -12  -3  -8    5.60    1.70
  12   3  -8    9.60    3.60
  -3  12  -8   12.10    5.10
  12   3  -8   25.70    7.10
   3 -12  -8   10.40    5.90
  -3  12  -8    5.60    2.30
 -12  -3   8    9.10    3.50
 -12  -3   8    3.30    3.20
 -12  -3   8    2.40    2.80
   3 -12   8    2.60    2.50
   3 -12   8    4.10    2.40
 -12  -3   8    4.70    3.50
   2 -12  -8    1.80    3.90
  -2  12  -8    9.70    4.60
  12   2  -8    1.40    4.50
  -2  12  -8    3.90    2.20
  12   2  -8    4.70    2.90
 -12  -2  -8    2.60    1.40
   2 -12   8   10.10    3.00
 -12  -2   8    3.30    3.00
   2 -12   8    2.30    2.10
 -12  -2   8    2.80    2.80
 -12  -2   8    2.90    3.20
 -12  -2   8    2.70    3.20
 -12  -1  -8  484.15   36.80
  12   1  -8  485.25   38.40
  12   1  -8  501.05   38.50
  -1  12  -8  533.35   37.60
   1 -12  -8  511.05   42.00
 -12  -1   8  509.65   39.00
 -12  -1   8  451.35   42.80
   1 -12   8  536.05   37.90
 -12  -1   8  475.85   39.30
 -12  -1   8  465.45   40.20
   1 -12   8  485.55   37.20
  12   0  -8  256.87   22.10
   0 -12  -8  280.67   20.30
  12   0  -8  329.97   25.40
   0  12  -8  271.37   21.20
 -12   0  -8  252.47   20.70
   0 -12  -8  264.17   25.00
 -12   0   8  232.98   23.70
   0 -12   8  267.97   21.50
   0 -12   8  272.37   21.10
 -12   0   8  282.97   23.20
 -12   0   8  245.08   22.90
  12  -1  -8  487.65   38.30
  -1 -12  -8  506.05   35.60
   1  12  -8  529.75   37.30
 -12   1  -8  513.15   36.90
  -1 -12  -8  517.95   40.90
  -1 -12   8  428.46   38.00
  -1 -12   8  495.55   37.50
  -1 -12   8  513.65   37.00
 -12   1   8  446.16   38.90
 -12   1   8  441.86   39.90
 -12   1   8  514.95   39.20
 -12   2  -8    3.50    1.90
  12  -2  -8    2.40    2.40
  -2 -12  -8    3.10    3.70
   2  12  -8    8.10    2.40
 -12   2  -8    6.00    2.00
  12  -2  -8    0.90    3.50
 -12   2   8    2.60    2.80
 -12   2   8    2.40    3.30
  -2 -12   8    2.80    2.20
  -2 -12   8    2.90    2.30
 -12   2   8    3.80    3.80
 -12   3  -8    3.60    2.00
 -12   3  -8    4.00    1.90
  12  -3  -8    2.90    2.60
  12  -3  -8    5.10    3.70
   3  12  -8    6.00    2.40
 -12   3   8    4.20    4.10
  -3 -12   8    5.30    2.40
  -3 -12   8    5.40    2.40
 -12   3   8   10.50    4.60
  -3 -12   8    3.40    2.20
 -12   3   8    8.00    3.50
  12  -4  -8    2.50    3.00
   4  12  -8    2.20    1.90
 -12   4  -8    2.30    1.90
  12  -4  -8    4.10    2.90
  -4 -12   8    3.90    2.30
 -12   4   8    4.00    3.20
  -4 -12   8    6.30    2.50
 -12   4   8   -0.50    3.00
  -4 -12   8    2.50    2.20
   5  12  -8  246.48   20.00
  12  -5  -8  217.78   20.90
 -12   5  -8  276.37   20.50
  12  -5  -8  269.67   20.60
  -5 -12   8  262.07   19.50
 -12   5   8  233.38   22.10
  -5 -12   8  221.98   20.40
  -5 -12   8  254.47   20.60
  12  -6  -8   43.20    7.20
   6  12  -8   43.80    5.60
 -12   6  -8   41.80    5.90
  12  -6  -8   33.80    6.50
  12  -6  -8   47.20    5.70
 -12   6   8   45.20    8.10
  -6 -12   8   38.50    5.60
  -6 -12   8   49.70    6.40
  -6 -12   8   44.80    5.30
  12  -7  -8  479.35   36.20
  12  -7  -8  476.35   33.80
   7  12  -8  474.45   35.10
  12  -7  -8  393.86   35.70
 -12   7  -8  511.75   35.90
 -12   7   8  417.86   37.00
  -7 -12   8  477.75   35.80
  -7 -12   8  404.86   35.20
  13   6  -8  131.89   13.10
  -6  13  -8  124.09   11.90
   6 -13  -8  102.59   18.70
 -13  -6   8  114.99   12.20
   6 -13   8  129.59   11.50
 -13  -6   8  127.59   12.20
   6 -13   8  136.39   17.80
  -5  13  -8  818.02   59.69
 -13  -5  -8  754.12   57.79
   5 -13  -8  676.23   65.19
  13   5  -8  806.72   60.89
 -13  -5   8  752.72   60.39
 -13  -5   8  802.72   60.09
 -13  -5   8  727.33   61.39
   5 -13   8  884.51   59.09
   5 -13   8  909.61   59.89
  13   4  -8  486.85   39.40
 -13  -4  -8  458.75   36.50
   4 -13  -8  468.75   43.80
  -4  13  -8  589.34   42.80
  -4  13  -8  496.45   38.10
   4 -13   8  537.95   38.30
 -13  -4   8  494.45   38.90
 -13  -4   8  484.85   39.20
   4 -13   8  531.65   37.70
 -13  -4   8  451.55   40.10
  -3  13  -8  416.66   31.90
  13   3  -8  520.95   38.40
   3 -13  -8  367.16   36.70
  13   3  -8  413.96   33.30
 -13  -3  -8  382.16   30.60
 -13  -3   8  420.06   33.40
   3 -13   8  443.46   32.20
   3 -13   8  415.36   31.50
 -13  -3   8  435.66   33.20
 -13  -3   8  377.06   33.90
 -13  -3   8  370.36   34.20
 -13  -2  -8  247.18   19.00
   2 -13  -8  221.38   24.20
  -2  13  -8  261.87   20.10
  13   2  -8  256.47   21.40
 -13  -2   8  242.98   22.10
 -13  -2   8  248.88   21.50
 -13  -2   8  211.58   22.20
   2 -13   8  256.77   20.20
 -13  -2   8  232.38   22.60
   2 -13   8  251.67   19.70
  -1  13  -8  285.57   21.80
   1 -13  -8  272.67   20.90
  13   1  -8  336.17   26.10
  13   1  -8  278.57   23.10
 -13  -1  -8  268.67   21.00
   1 -13  -8  278.47   26.20
 -13  -1   8  238.28   23.50
   1 -13   8  284.27   22.10
 -13  -1   8  273.47   23.50
   1 -13   8  261.37   21.40
 -13  -1   8  229.68   24.10
  13   0  -8    0.60    2.60
  13   0  -8    9.00    5.10
   0 -13  -8    1.80    3.80
   0  13  -8    2.90    2.20
   0 -13  -8    4.10    1.30
 -13   0  -8    1.90    1.60
 -13   0   8    0.20    2.30
 -13   0   8    0.60    3.00
 -13   0   8    3.50    3.90
   0 -13   8    1.40    2.10
   0 -13   8   -0.30    2.10
  -1 -13  -8  303.97   26.60
  13  -1  -8  268.47   23.80
 -13   1  -8  294.27   22.20
   1  13  -8  290.57   22.60
  13  -1  -8  345.47   26.00
  -1 -13   8  294.87   22.30
 -13   1   8  304.07   25.10
  -1 -13   8  298.07   23.10
 -13   1   8  234.48   24.30
 -13   1   8  213.88   24.80
   2  13  -8  266.87   20.80
  13  -2  -8  306.67   23.70
  13  -2  -8  237.48   21.90
 -13   2  -8  269.37   20.50
  -2 -13  -8  301.87   24.70
 -13   2   8  248.08   23.10
  -2 -13   8  285.87   21.40
 -13   2   8  224.68   22.50
  -2 -13   8  214.38   21.40
  -2 -13   8  282.87   20.40
 -13   2   8  211.28   23.30
   3  13  -8  438.96   31.90
 -13   3  -8  453.55   31.40
 -13   3  -8  430.26   31.60
  13  -3  -8  397.16   33.20
  -3 -13   8  366.56   32.60
 -13   3   8  367.36   33.90
  -3 -13   8  440.66   31.20
 -13   3   8  422.66   34.50
  -3 -13   8  433.06   32.40
 -13   3   8  350.16   34.70
  13  -4  -8  455.35   40.00
  13  -4  -8  616.04   40.50
   4  13  -8  541.55   39.00
 -13   4  -8  558.84   38.80
 -13   4   8  399.26   41.50
  -4 -13   8  537.35   39.50
 -13   4   8  443.26   40.90
  -4 -13   8  453.45   39.50
 -13   4   8  510.75   41.60
  -4 -13   8  561.04   38.00
 -13   5  -8  874.31   58.29
  13  -5  -8  717.53   59.19
   5  13  -8  852.71   58.19
  -5 -13   8  716.23   58.59
 -13   5   8  692.13   60.19
  -5 -13   8  808.82   58.69
   6  13  -8  135.59   11.50
  13  -6  -8  107.99   12.30
  13  -6  -8  148.29   11.40
 -13   6   8   99.39   12.90
  -6 -13   8  101.19   11.30
  14   3  -8  264.37   23.00
   3 -14  -8  240.38   26.20
  -3  14  -8  277.07   21.40
 -14  -3   8  251.37   22.40
   3 -14   8  285.07   20.90
 -14  -3   8  221.88   23.10
  -2  14  -8  124.69   11.00
 -14  -2  -8  108.79    9.70
   2 -14  -8  110.29   15.30
  14   2  -8  124.99   12.80
  14   2  -8  153.48   15.60
   2 -14  -8  120.49   10.20
   2 -14   8  120.79   10.60
 -14  -2   8  122.39   12.80
   2 -14   8  102.59   10.80
 -14  -2   8  109.09   13.30
 -14  -2   8   92.19   12.50
 -14  -1  -8  327.57   25.30
   1 -14  -8  333.47   25.20
  -1  14  -8  356.26   26.40
   1 -14  -8  333.07   30.90
   1 -14   8  333.87   25.70
 -14  -1   8  305.07   29.10
 -14  -1   8  327.17   28.00
 -14  -1   8  297.57   28.30
   1 -14   8  366.56   26.70
 -14   0  -8  737.43   52.99
   0 -14  -8  732.73   58.19
   0  14  -8  766.72   53.79
  14   0  -8  772.62   55.59
   0 -14  -8  722.03   52.09
   0 -14   8  766.52   53.09
 -14   0   8  609.94   55.69
 -14   0   8  702.33   55.59
   0 -14   8  741.33   54.09
 -14   0   8  609.54   56.49
   1  14  -8  367.16   28.20
  14  -1  -8  353.96   29.80
 -14   1  -8  367.96   27.60
  14  -1  -8  430.46   31.50
  -1 -14  -8  367.26   32.00
 -14   1   8  338.87   30.40
  -1 -14   8  372.46   27.40
 -14   1   8  273.67   30.50
  -1 -14   8  366.86   28.60
 -14   2  -8  114.89   10.20
  14  -2  -8  151.18   14.20
   2  14  -8  121.99   10.80
  14  -2  -8  102.79   12.20
 -14   2   8   88.89   12.30
 -14   2   8  112.49   13.80
  -2 -14   8  116.49   11.10
  -2 -14   8  124.49   10.10
 -14   2   8   99.69   13.50
  14  -3  -8  238.08   21.50
   3  14  -8  284.67   20.10
 -14   3   8  207.58   21.90
  -3 -14   8  210.48   20.50
 -14   3   8  269.17   23.10
   0   0  -9    0.60    1.00
   0   0  -9    1.00    0.80
   0   0  -9    0.90    0.90
   0   0   9    2.20    1.10
  -1   0  -9  787.02   54.99
   0   1  -9  737.43   55.09
   1   0  -9  725.23   54.99
  -1   0  -9  764.82   55.09
   0  -1  -9  767.42   54.79
   0   1  -9  737.73   54.89
   0   1  -9  736.63   54.79
   1   0  -9  703.53   54.89
   0  -1  -9  753.92   54.99
   1   0  -9  776.72   54.79
   1   0  -9  840.32   55.29
  -1   0  -9  771.92   54.79
   0   1  -9  728.43   55.49
  -1   0  -9  705.53   55.29
   0  -1  -9  792.72   54.89
   0   1  -9  783.62   55.89
   0   1   9  720.53   54.89
  -1   0   9  760.92   54.99
   1   1  -9  359.86   26.70
  -1  -1  -9  363.66   26.80
   1   1  -9  371.86   27.80
   1  -1  -9  370.86   26.70
  -1   1  -9  316.07   27.10
  -1   1  -9  345.57   26.50
   1   1  -9  352.76   27.60
  -1   1  -9  344.47   26.80
  -1   1  -9  353.26   26.60
   1  -1  -9  344.87   26.60
   1   1  -9  366.46   26.70
  -1   1  -9  361.86   26.90
   1  -1  -9  369.46   26.40
   1   1  -9  357.46   26.50
  -1  -1  -9  390.56   26.80
  -1  -1  -9  353.96   26.40
  -1  -1   9  354.86   26.70
  -1   1   9  357.66   26.70
  -1   2  -9   42.90    5.70
   1  -2  -9   52.79    4.90
   2   1  -9   64.89    5.10
   2   1  -9   46.90    5.80
  -1   2  -9   59.59    4.80
   2   1  -9   48.30    4.90
  -2  -1  -9   48.80    4.50
   2   1  -9   50.19    4.60
  -2  -1  -9   55.99    5.10
  -1   2  -9   48.50    4.70
  -1   2  -9   40.50    4.90
  -1   2  -9   61.69    5.90
   1  -2  -9   52.19    4.90
   2   1  -9   43.90    6.20
  -2  -1  -9   46.60    4.90
  -1   2   9   48.00    4.80
  -2  -1   9   52.79    5.20
  -2  -1   9   50.39    4.90
   2   0  -9    1.90    0.90
   0   2  -9    3.10    1.10
   0   2  -9    2.50    1.50
  -2   0  -9    3.70    1.50
   0   2  -9    3.60    1.20
  -2   0  -9    3.00    1.00
   2   0  -9    2.40    1.20
   0   2  -9    0.90    1.70
   0  -2  -9    2.70    1.00
   0  -2  -9    6.40    1.60
   0   2  -9    0.80    1.20
  -2   0  -9   -0.10    0.90
   2   0  -9    1.30    1.60
  -2   0  -9    0.40    1.00
   0   2   9    1.40    1.00
  -2   0   9    4.90    1.40
   1   2  -9   47.60    6.50
   2  -1  -9   52.69    5.10
  -1  -2  -9   50.89    5.00
   1   2  -9   59.79    4.90
  -2   1  -9   46.50    5.30
   2  -1  -9   52.59    4.60
  -2   1  -9   45.20    4.70
   2  -1  -9   65.29    5.30
   1   2  -9   49.40    5.00
  -2   1  -9   55.09    5.00
  -2   1  -9   48.50    5.20
  -1  -2  -9   51.19    4.70
  -2   1  -9   57.49    5.20
   1   2  -9   50.09    4.90
   1   2  -9   51.69    5.90
   2  -1  -9   59.39    5.00
  -1  -2  -9   55.29    5.00
  -2   1   9   55.29    5.10
  -1  -2   9   59.49    5.10
  -1  -2   9   47.50    4.90
  -2   2  -9  657.33   44.60
   2   2  -9  598.04   43.90
   2   2  -9  588.04   44.00
   2   2  -9  524.15   45.30
  -2  -2  -9  638.94   44.00
   2   2  -9  594.14   43.70
   2  -2  -9  629.84   44.00
   2  -2  -9  630.04   48.80
  -2  -2  -9  626.04   44.10
  -2   2  -9  577.14   43.70
  -2   2  -9  574.54   44.50
   2   2  -9  597.64   45.10
  -2  -2  -9  605.24   43.50
  -2   2  -9  596.04   44.20
  -2   2  -9  581.34   43.90
  -2  -2   9  574.54   44.00
  -2  -2   9  609.74   43.90
  -2   2   9  578.84   43.90
   2  -3  -9  112.09   12.50
  -2   3  -9   96.59    8.30
  -2   3  -9  106.89    8.90
   3   2  -9   93.69   10.40
   3   2  -9   97.99    8.40
   3   2  -9  114.99   10.00
   2  -3  -9  108.69    8.60
   3   2  -9  101.59    8.70
  -2   3  -9   94.29    8.40
   3   2  -9   97.39    8.30
  -3  -2  -9  106.29    8.70
  -2   3  -9   95.09    9.60
  -3  -2  -9   99.99    7.90
  -2   3  -9  106.39    9.40
  -3  -2   9   97.19    8.40
  -2   3   9  101.99    8.50
  -3  -2   9   94.59    8.70
   3   1  -9   56.39    5.70
   3   1  -9   59.79    5.60
   1  -3  -9   65.09    5.70
   3   1  -9   61.59    5.40
   3   1  -9   55.39    7.20
  -3  -1  -9   60.19    5.20
  -3  -1  -9   74.69    6.10
  -1   3  -9   67.29    5.60
  -1   3  -9   58.69    5.80
   1  -3  -9   65.99    8.90
  -1   3  -9   61.09    6.50
  -1   3  -9   57.39    7.10
  -1   3  -9   61.49    5.50
  -3  -1  -9   67.29    6.00
  -3  -1   9   60.19    5.80
  -3  -1   9   59.49    5.60
   1  -3   9   49.90    5.30
  -1   3   9   59.79    5.60
   0  -3  -9  321.97   25.80
  -3   0  -9  300.77   22.50
   0   3  -9  281.87   23.20
   3   0  -9  294.97   23.20
   0  -3  -9  301.57   22.10
   0  -3  -9  310.87   22.20
  -3   0  -9  266.17   22.00
   3   0  -9  309.87   21.90
  -3   0  -9  324.87   22.60
   0   3  -9  294.57   22.40
  -3   0  -9  282.77   21.80
   3   0  -9  295.67   22.20
   0   3  -9  301.07   22.20
   0   3  -9  288.27   22.00
   0   3  -9  250.07   23.40
   0   3   9  287.07   22.10
   0  -3   9  310.67   22.20
  -3   0   9  291.47   22.20
   0  -3   9  270.77   22.00
   1   3  -9   62.19    6.00
   3  -1  -9   66.99    6.00
   3  -1  -9   74.39    5.60
  -1  -3  -9   69.59    6.00
   3  -1  -9   67.59    6.40
  -3   1  -9   67.19    6.30
   1   3  -9   56.49    7.70
  -1  -3  -9   68.29    5.70
   1   3  -9   63.79    5.80
   1   3  -9   64.99    7.00
  -3   1  -9   62.69    5.60
   1   3  -9   69.99    6.00
  -3   1  -9   59.99    6.20
  -1  -3  -9   63.09    8.60
  -3   1  -9   68.89    6.30
  -1  -3   9   63.09    5.90
  -3   1   9   63.29    6.00
  -1  -3   9   62.89    5.90
   3  -2  -9   93.59    8.40
  -2  -3  -9  102.39    8.40
  -3   2  -9   98.99    8.80
   2   3  -9  102.49    8.50
   2   3  -9   99.09    8.40
   2   3  -9   98.89    8.30
   2   3  -9   96.09   10.50
   2   3  -9   92.39    9.40
  -3   2  -9   92.39    8.20
   3  -2  -9  113.79    8.00
  -3   2  -9   99.89    9.00
   3  -2  -9  111.99   13.20
  -2  -3  -9  110.59    8.00
  -3   2  -9  104.29    8.70
  -2  -3   9   93.19    8.30
  -3   2   9   92.29    8.40
  -2  -3   9  100.79    8.40
  -2  -3   9   94.89    8.50
   3  -3  -9  553.84   40.60
   3   3  -9  543.05   40.40
  -3   3  -9  541.15   41.30
   3   3  -9  585.94   42.10
  -3  -3  -9  569.94   39.90
  -3   3  -9  579.64   41.40
  -3   3  -9  549.95   41.10
  -3   3  -9  520.05   40.60
   3   3  -9  542.55   42.80
   3   3  -9  529.65   40.40
   3  -3  -9  530.45   45.10
  -3  -3  -9  573.44   40.60
  -3   3  -9  538.35   40.40
  -3  -3   9  558.84   40.80
  -3   3   9  546.95   40.60
  -3  -3   9  539.05   40.40
  -3  -3   9  543.75   40.40
  -4  -3  -9  371.06   26.10
   4   3  -9  334.17   27.30
   3  -4  -9  363.66   25.90
  -3   4  -9  345.97   27.30
  -3   4  -9  326.67   26.80
   3  -4  -9  356.86   30.60
  -3   4  -9  342.97   25.80
  -4  -3  -9  350.86   25.10
  -3   4  -9  342.27   26.50
   4   3  -9  337.67   28.50
  -3   4  -9  308.77   25.80
   4   3  -9  332.27   25.80
   4   3  -9  357.36   25.80
  -4  -3   9  336.27   26.20
  -3   4   9  329.27   25.90
  -4  -3   9  354.66   25.90
  -2   4  -9   37.50    6.40
  -4  -2  -9   44.70    4.00
  -2   4  -9   42.20    4.40
   4   2  -9   40.70    4.40
   4   2  -9   49.20    4.40
  -4  -2  -9   50.39    4.90
  -2   4  -9   48.40    5.60
   4   2  -9   42.30    7.20
   2  -4  -9   52.99    9.00
  -2   4  -9   40.90    5.00
   2  -4  -9   48.70    4.70
  -2   4  -9   42.10    4.40
  -4  -2   9   41.70    4.80
  -4  -2   9   41.10    4.70
  -2   4   9   42.60    4.50
   2  -4   9   38.80    4.30
  -4  -2   9   56.19    4.90
   1  -4  -9   17.50    5.20
  -1   4  -9   12.70    2.30
   1  -4  -9   11.90    2.40
  -1   4  -9   15.10    3.40
  -1   4  -9   15.20    2.60
   4   1  -9   11.70    3.70
  -4  -1  -9   17.50    3.00
   4   1  -9   16.20    2.20
   4   1  -9   15.10    2.50
  -4  -1  -9   17.70    2.00
  -1   4  -9   15.70    4.30
  -1   4   9   12.70    2.30
  -4  -1   9   17.30    2.70
  -4  -1   9   13.60    2.70
   1  -4   9   14.40    2.40
   4   0  -9    0.40    2.00
  -4   0  -9    1.20    1.40
  -4   0  -9    3.50    1.10
   0  -4  -9    0.60    1.00
   4   0  -9    1.00    1.30
   0   4  -9    1.20    1.30
   4   0  -9    3.40    1.20
  -4   0  -9    4.50    1.80
   0   4  -9    1.10    2.40
   0  -4  -9    0.90    2.60
   0   4  -9    0.50    0.90
   0   4  -9    1.70    1.70
   0  -4   9    4.20    1.60
  -4   0   9    2.00    1.30
  -4   0   9    0.00    1.10
   0  -4   9    2.00    1.10
   0  -4   9    2.20    1.20
   4  -1  -9   14.30    2.60
  -4   1  -9   14.10    2.50
  -1  -4  -9   23.70    2.70
   1   4  -9   14.90    2.70
   4  -1  -9   16.00    2.60
  -1  -4  -9   25.70    5.50
  -4   1  -9   15.60    2.90
   4  -1  -9   16.30    3.30
   1   4  -9   12.40    2.30
   1   4  -9   30.30    4.50
  -4   1  -9   12.90    2.10
   1   4  -9   13.60    4.20
  -4   1  -9   18.80    3.20
  -4   1   9   15.00    2.70
  -1  -4   9   15.70    2.60
  -1  -4   9   17.70    2.40
   1   4   9   13.60    2.30
  -1  -4   9   14.50    2.50
   4  -2  -9   46.80    4.70
  -2  -4  -9   49.10    7.80
  -4   2  -9   45.20    5.00
  -4   2  -9   44.60    5.20
   2   4  -9   45.60    5.80
  -2  -4  -9   48.40    4.70
   2   4  -9   38.70    4.60
   2   4  -9   42.90    7.20
   4  -2  -9   32.90    8.50
  -4   2  -9   44.30    5.00
  -4   2  -9   45.30    4.50
  -2  -4  -9   48.70    4.20
   4  -2  -9   47.30    4.70
   2   4  -9   47.40    4.50
  -2  -4   9   42.00    4.70
  -2  -4   9   44.00    4.80
  -4   2   9   42.50    4.80
  -2  -4   9   59.69    4.80
  -4   3  -9  343.97   26.90
  -4   3  -9  384.76   26.90
   4  -3  -9  330.37   26.10
   3   4  -9  346.87   26.20
  -4   3  -9  341.57   26.80
   4  -3  -9  371.06   25.30
  -4   3  -9  347.97   26.10
   4  -3  -9  311.57   30.90
  -4   3  -9  330.27   26.40
   3   4  -9  327.17   26.00
   3   4  -9  344.57   27.50
  -3  -4  -9  351.86   26.10
   3   4  -9  334.77   28.70
  -3  -4  -9  380.36   25.50
  -4   3   9  333.47   26.30
  -3  -4   9  359.36   26.10
  -3  -4   9  342.97   26.40
  -3  -4   9  340.07   26.10
   4   4  -9   95.19    8.50
  -4  -4  -9  104.79    7.80
  -4   4  -9   91.19    8.70
   4   4  -9  100.19    8.60
   4   4  -9  110.99   11.80
   4   4  -9   89.99    9.80
  -4   4  -9  101.49    8.70
  -4   4  -9  115.69   10.30
   4  -4  -9   97.49    8.60
  -4  -4  -9  104.09    8.70
  -4   4  -9  114.89    9.90
  -4   4  -9   96.29    9.30
   4  -4  -9   86.39   14.30
  -4  -4   9  106.09    9.10
  -4  -4   9   90.09    8.60
  -4  -4   9  103.09    8.60
  -4   4   9   95.39    8.70
  -4   5  -9  109.99   10.10
   4  -5  -9  124.19   10.10
   5   4  -9  112.39    9.90
  -4   5  -9  124.09   11.40
   4  -5  -9  115.39   14.40
  -5  -4  -9  126.09   10.20
   5   4  -9  115.49   13.20
  -5  -4  -9  119.79    9.10
  -4   5  -9  115.59   10.10
   5   4  -9  113.79   11.40
   5   4  -9  117.39   10.00
  -5  -4   9  118.19   10.20
  -5  -4   9  134.39   10.30
   4  -5   9  108.49   10.00
  -5  -4   9  124.79   10.70
  -4   5   9  115.99   10.20
   3  -5  -9   60.99   10.70
  -3   5  -9   73.09    7.30
  -5  -3  -9   63.89    6.00
  -3   5  -9   58.39    6.70
   3  -5  -9   56.39    4.90
   5   3  -9   58.39    8.60
  -5  -3  -9   54.29    4.80
  -3   5  -9   64.49    5.80
   3  -5  -9   57.49    5.60
   5   3  -9   53.99    5.40
  -3   5  -9   53.09    6.30
   5   3  -9   56.69    5.60
  -3   5   9   55.99    5.70
   3  -5   9   52.19    5.40
  -5  -3   9   60.49    6.00
  -5  -3   9   58.59    6.20
  -5  -3   9   60.19    5.80
   2  -5  -9    5.40    3.70
  -2   5  -9    5.60    1.70
   2  -5  -9    8.00    1.90
   5   2  -9    9.00    2.00
  -2   5  -9    4.20    2.20
  -2   5  -9    3.50    2.00
   5   2  -9    5.60    1.80
  -5  -2  -9   10.80    1.60
  -5  -2  -9    5.60    2.00
   5   2  -9    4.90    3.50
  -2   5  -9    4.00    3.30
  -5  -2   9    3.70    1.80
  -5  -2   9    6.10    1.90
   2  -5   9    3.90    1.50
  -2   5   9    5.50    1.70
  -5  -2   9    3.50    1.90
  -1   5  -9  114.09   11.70
   1  -5  -9  119.29    8.90
   5   1  -9   91.69   10.80
   5   1  -9  105.69    8.60
  -1   5  -9  108.99   10.20
  -5  -1  -9  111.99    8.40
   1  -5  -9  113.79   12.40
  -1   5  -9   98.29    8.70
   5   1  -9   96.69    8.80
  -5  -1  -9  107.69    9.30
  -1   5  -9  102.39    9.30
  -5  -1   9  101.69    9.20
  -5  -1   9  105.79    9.50
  -1   5   9   95.69    8.70
   1  -5   9  100.39    8.80
   1  -5   9   98.69    8.70
  -5  -1   9  109.49    9.10
   0   5  -9   95.99    9.30
   0  -5  -9  100.59    7.90
   0  -5  -9  107.19   11.10
   5   0  -9   88.69    7.60
  -5   0  -9   97.99    7.60
   5   0  -9   91.09    9.70
   0   5  -9   93.09   10.80
   0   5  -9   83.69    8.30
   0   5  -9   87.59    7.90
   5   0  -9   92.99    8.10
  -5   0  -9   95.49    7.70
  -5   0  -9   95.89    8.60
   0  -5   9   87.59    8.00
   0   5   9   92.29    7.90
  -5   0   9   88.29    8.20
  -5   0   9   82.49    8.50
   0  -5   9   82.89    7.90
   0  -5   9  106.59    8.00
  -5   1  -9   91.79    8.80
   1   5  -9  119.59   12.30
   1   5  -9  105.39    9.00
   5  -1  -9  115.79   10.30
  -1  -5  -9  111.29    8.90
   5  -1  -9  107.69    9.10
  -1  -5  -9  103.79   11.60
   1   5  -9  113.79   10.40
  -5   1  -9  107.29    8.90
   1   5  -9   96.19    9.20
  -5   1  -9  105.19    9.70
  -1  -5   9  112.49    9.10
  -5   1   9  106.59    9.30
   1   5   9  110.09    9.00
  -1  -5   9  117.99    9.00
  -1  -5   9   97.39    9.00
  -5   2  -9    7.10    1.60
   5  -2  -9    0.30    3.60
  -2  -5  -9    6.60    3.20
   5  -2  -9    5.20    2.00
  -5   2  -9    4.70    1.60
   2   5  -9   20.00    3.80
   2   5  -9    9.60    2.20
   2   5  -9    2.60    3.20
  -5   2  -9    4.90    1.90
  -5   2  -9    6.40    2.00
   5  -2  -9   10.60    2.30
  -5   2  -9    6.20    2.30
  -2  -5  -9    7.20    1.80
   2   5  -9    5.20    1.70
  -2  -5   9   13.60    2.20
  -2  -5   9    5.30    1.80
  -5   2   9    8.80    2.20
  -2  -5   9    5.00    1.90
   5  -3  -9   62.09    5.40
  -5   3  -9   59.19    5.70
  -5   3  -9   62.29    6.30
   5  -3  -9   54.49    5.70
  -3  -5  -9   61.39    5.50
  -5   3  -9   54.59    5.90
  -3  -5  -9   58.39    7.70
   3   5  -9   53.69    6.80
   5  -3  -9   51.29   10.80
  -5   3  -9   78.39    6.70
   3   5  -9   59.19    9.50
  -5   3  -9   56.89    6.50
   3   5  -9   53.89    5.70
   3   5  -9   56.69    5.50
  -5   3   9   55.59    5.90
  -3  -5   9   56.49    5.80
  -3  -5   9   55.09    5.50
  -3  -5   9   60.39    5.90
   5  -4  -9  104.79   15.00
  -4  -5  -9  140.09    9.40
   4   5  -9  105.89   13.20
   5  -4  -9  116.39    9.10
  -4  -5  -9  153.38   13.00
   4   5  -9  111.79   10.10
  -5   4  -9  112.19   10.50
  -5   4  -9  132.99   10.50
  -4  -5  -9  123.69   10.10
   4   5  -9  115.59   11.50
  -5   4  -9  153.48   11.80
   4   5  -9  123.49   10.30
   5  -4  -9  110.29   10.20
  -5   4  -9  118.89   11.10
  -4  -5   9  129.99   10.30
  -5   4   9  110.09   10.30
  -4  -5   9  115.29   10.30
  -4  -5   9  113.89   10.50
  -5  -5  -9    2.10    0.70
  -5   5  -9    4.90    1.80
   5   5  -9    4.10    1.70
   5  -5  -9    2.90    3.80
  -5   5  -9    2.80    1.80
  -5   5  -9    1.70    2.00
   5   5  -9    0.90    2.10
   5  -5  -9    1.30    1.40
   5   5  -9    6.00    4.00
   5   5  -9    3.80    1.70
  -5  -5   9    3.40    1.90
  -5  -5   9    3.90    1.70
  -5  -5   9    1.20    1.60
  -5   5   9    3.50    1.80
   5  -6  -9  564.34   43.30
   5  -6  -9  578.84   43.80
   6   5  -9  608.64   45.70
  -6  -5  -9  607.14   42.60
   5  -6  -9  535.65   49.10
  -5   6  -9  541.05   44.00
   6   5  -9  557.34   43.80
   6   5  -9  601.54   43.80
  -5   6  -9  652.83   45.80
   6   5  -9  626.94   47.70
  -6  -5   9  590.94   43.90
  -5   6   9  602.54   44.20
   5  -6   9  574.54   43.80
  -6  -5   9  574.44   44.60
  -6  -5   9  649.93   44.30
  -6  -4  -9  322.67   23.20
   4  -6  -9  295.27   29.00
  -6  -4  -9  355.06   24.70
   4  -6  -9  323.77   23.50
  -4   6  -9  283.37   24.20
   6   4  -9  308.97   27.60
   6   4  -9  305.97   24.10
   6   4  -9  316.17   24.20
  -4   6  -9  325.47   25.90
   4  -6  -9  327.67   24.20
  -6  -4   9  335.37   24.60
  -4   6   9  325.77   24.50
  -6  -4   9  320.97   25.10
  -6  -4   9  304.77   24.30
   4  -6   9  294.87   24.10
  -6  -3  -9   15.90    3.20
  -3   6  -9   15.50    4.00
  -3   6  -9   11.30    2.50
   3  -6  -9   14.70    2.70
  -3   6  -9   13.60    3.40
   3  -6  -9    6.90    4.60
   6   3  -9   16.10    2.80
   6   3  -9   17.20    5.50
  -6  -3  -9   15.10    1.90
   6   3  -9   17.70    2.90
   3  -6   9   13.20    2.60
   3  -6   9   24.90    3.40
  -6  -3   9   15.30    3.40
  -6  -3   9   11.50    2.80
  -3   6   9   14.20    2.80
  -6  -3   9   12.50    2.80
  -6  -2  -9  174.08   13.50
  -2   6  -9  143.49   12.70
   6   2  -9  148.29   15.50
  -6  -2  -9  164.98   12.30
   2  -6  -9  178.48   17.20
  -2   6  -9  152.48   13.70
  -2   6  -9  170.78   14.50
   6   2  -9  169.98   12.90
   6   2  -9  157.38   12.90
   2  -6  -9  170.18   12.80
  -6  -2   9  160.48   13.10
  -2   6   9  147.69   12.70
  -6  -2   9  157.68   13.70
   2  -6   9  148.99   12.80
  -6  -2   9  168.48   13.20
   2  -6   9  145.19   12.70
  -6  -1  -9   76.19    6.30
   1  -6  -9   76.59    6.60
   1  -6  -9   85.59   10.30
  -1   6  -9   79.99    8.30
  -1   6  -9   74.89    7.40
  -1   6  -9   70.59    6.60
   6   1  -9   73.59    6.60
   6   1  -9   69.19    6.70
  -6  -1  -9   73.89    7.20
   6   1  -9   74.19    9.30
   1  -6   9   77.29    6.90
  -6  -1   9   68.39    7.50
  -6  -1   9   68.29    6.90
  -1   6   9   72.49    6.60
   1  -6   9   68.79    6.70
  -6  -1   9   66.99    7.00
  -6   0  -9    1.20    1.00
   0   6  -9    4.80    3.90
   0  -6  -9    6.10    1.70
   0   6  -9    0.80    1.30
  -6   0  -9    3.40    2.00
   6   0  -9   -0.30    2.30
   6   0  -9    4.80    1.80
   0   6  -9    2.00    1.70
   0  -6  -9    1.40    2.80
  -6   0  -9    5.60    1.30
   0   6  -9    2.50    2.20
   6   0  -9    4.10    1.50
   0  -6   9    3.00    1.40
  -6   0   9    1.30    1.70
   0  -6   9    2.30    1.70
   0  -6   9    1.60    1.20
   0   6   9    2.70    1.30
  -6   0   9    3.70    1.80
  -1  -6  -9   73.29    9.30
   6  -1  -9   69.69    6.80
  -6   1  -9   77.49    7.50
   1   6  -9   79.39   10.70
  -6   1  -9   58.99    6.30
  -1  -6  -9   79.39    6.50
   6  -1  -9   83.79    8.40
   1   6  -9   74.79    8.10
  -6   1  -9   83.69    6.70
   1   6  -9   70.99    7.10
   1   6  -9   67.89    6.60
  -1  -6   9   80.29    7.60
  -1  -6   9   69.99    6.80
   1   6   9   70.49    6.60
  -1  -6   9   71.39    6.80
  -6   1   9   75.79    7.10
   2   6  -9  154.18   13.10
   2   6  -9  157.18   16.20
  -6   2  -9  145.09   12.80
  -2  -6  -9  178.18   15.50
   6  -2  -9  136.39   17.80
   2   6  -9  154.48   12.70
  -6   2  -9  173.38   12.90
   2   6  -9  157.38   14.20
   6  -2  -9  150.68   12.80
  -2  -6  -9  174.08   12.60
   6  -2  -9  165.88   13.50
  -2  -6   9  155.18   13.00
  -6   2   9  160.08   13.20
   2   6   9  159.18   12.70
  -2  -6   9  146.09   12.70
  -6   3  -9   11.90    2.50
  -6   3  -9   12.40    3.10
  -3  -6  -9   13.60    2.40
   6  -3  -9   15.00    2.70
   6  -3  -9   22.00    3.40
   3   6  -9   19.00    5.90
   3   6  -9   19.30    4.00
  -6   3  -9   13.30    2.90
   3   6  -9   16.10    3.10
   6  -3  -9    4.60    5.10
  -6   3  -9   22.90    3.40
  -3  -6  -9   10.30    3.80
   3   6  -9   11.60    2.60
  -6   3   9   12.60    2.90
  -3  -6   9   19.60    3.30
   4   6  -9  308.77   24.00
   6  -4  -9  256.07   29.30
   6  -4  -9  288.67   24.10
   4   6  -9  339.87   25.80
   6  -4  -9  323.27   23.30
   4   6  -9  329.07   27.80
   4   6  -9  310.37   24.20
  -6   4  -9  342.57   24.40
  -6   4  -9  281.37   24.40
  -4  -6  -9  351.96   26.50
  -6   4  -9  301.37   24.80
  -4  -6   9  326.17   24.50
  -6   4   9  316.47   24.50
  -4  -6   9  318.17   24.10
   6  -5  -9  488.25   48.20
   6  -5  -9  576.24   42.90
   5   6  -9  579.64   44.50
  -6   5  -9  656.53   43.50
  -6   5  -9  565.04   43.30
   5   6  -9  575.44   42.80
   5   6  -9  600.94   46.70
  -6   5  -9  565.94   44.00
  -5  -6   9  550.44   43.30
  -5  -6   9  578.64   42.80
  -6   5   9  580.54   43.30
   6   6  -9  418.66   32.30
   6  -6  -9  340.07   36.00
   6  -6  -9  376.56   30.20
  -6   6  -9  386.06   30.80
   6   6  -9  408.26   30.50
   6   6  -9  433.16   34.60
   6  -6  -9  382.66   30.40
  -6   6  -9  416.76   32.00
  -6  -6   9  415.46   30.50
  -6   6   9  415.56   31.00
  -6  -6   9  413.66   31.30
   7   6  -9   62.19    6.90
   7   6  -9   84.19   11.90
   7   6  -9   64.09    8.30
   6  -7  -9   70.79    6.30
  -6   7  -9   75.79    8.60
   6  -7  -9   65.09    6.90
  -6   7  -9   69.89    7.10
   6  -7  -9   69.59   13.80
   6  -7   9   70.19    6.90
  -6   7   9   68.49    7.30
  -7  -6   9   67.89    7.30
  -7  -6   9   69.59    7.70
   5  -7  -9   48.70    5.40
   5  -7  -9   52.29   11.10
  -5   7  -9   45.20    5.40
   5  -7  -9   48.00    4.50
  -7  -5  -9   48.30    4.00
   7   5  -9   47.70    5.50
  -5   7  -9   49.00    6.90
   7   5  -9   50.39    9.80
  -5   7   9   48.60    5.70
  -7  -5   9   56.39    6.10
  -7  -5   9   52.39    6.30
   5  -7   9   56.89    5.60
  -7  -5   9   48.70    5.90
   7   4  -9  106.19    9.10
   4  -7  -9  101.59    9.00
   4  -7  -9   95.29   13.50
  -7  -4  -9   98.69    7.90
  -4   7  -9   85.39    8.90
   7   4  -9  105.39   13.00
  -4   7  -9  111.09   11.00
   7   4  -9   99.69    9.10
  -7  -4   9  111.89    9.60
   4  -7   9  114.99    9.40
   4  -7   9  103.09    9.10
  -4   7   9   95.79    9.10
  -7  -4   9  108.99    9.50
  -7  -4   9   96.69    9.90
   7   3  -9  184.58   15.00
  -7  -3  -9  194.28   14.20
   3  -7  -9  185.28   14.80
  -3   7  -9  203.98   17.00
   7   3  -9  198.08   18.70
   3  -7  -9  176.18   19.10
  -3   7  -9  174.88   14.90
   7   3  -9  173.48   14.90
  -7  -3   9  192.68   16.20
  -7  -3   9  184.48   15.30
   3  -7   9  184.08   15.00
   3  -7   9  188.48   15.00
  -3   7   9  185.98   15.00
  -7  -3   9  192.38   15.50
  -2   7  -9  147.59   13.20
  -2   7  -9  149.88   13.80
   7   2  -9  139.89   12.10
   7   2  -9  147.09   12.00
   7   2  -9  151.98   15.30
   2  -7  -9  145.59   15.70
  -2   7  -9  127.89   11.90
  -7  -2  -9  156.78   11.50
   2  -7  -9  154.08   12.00
   2  -7   9  139.49   12.10
  -7  -2   9  157.38   12.60
  -7  -2   9  147.79   13.20
  -7  -2   9  148.29   12.50
   2  -7   9  148.09   12.10
  -2   7   9  138.69   11.90
   7   1  -9   16.10    3.10
   7   1  -9   17.50    2.90
  -1   7  -9   20.30    4.50
   7   1  -9   18.90    5.20
   1  -7  -9   17.50    5.20
  -1   7  -9   16.60    3.80
  -7  -1  -9   21.20    2.60
   1  -7  -9   20.90    3.10
  -1   7  -9   18.50    3.10
  -7  -1   9   15.00    3.70
   1  -7   9   28.80    3.80
   1  -7   9   12.30    2.70
  -1   7   9   16.10    2.80
  -7  -1   9   16.60    3.40
  -7  -1   9   17.80    3.50
   0  -7  -9   44.90    7.80
   0   7  -9   38.50    6.20
   0  -7  -9   45.60    4.30
   7   0  -9   37.50    4.20
  -7   0  -9   44.90    4.30
   0   7  -9   33.30    4.20
   7   0  -9   35.50    4.40
   7   0  -9   46.20    7.40
   0   7  -9   44.60    5.40
   0   7   9   36.90    4.20
  -7   0   9   42.60    6.30
   0  -7   9   45.70    4.90
   0  -7   9   37.30    4.50
  -7   0   9   38.20    5.30
  -7   0   9   37.40    4.80
   7  -1  -9   21.70    3.50
  -7   1  -9   15.00    2.70
  -1  -7  -9   23.00    5.60
   1   7  -9   15.50    5.80
   1   7  -9   20.90    4.00
  -7   1  -9   25.70    3.20
  -1  -7  -9   26.80    3.00
   7  -1  -9   21.30    4.70
   1   7  -9   24.10    4.60
  -7   1   9   29.20    5.10
   1   7   9   19.80    2.90
  -1  -7   9   20.20    3.40
  -7   1   9   22.20    3.80
  -1  -7   9   19.30    3.30
   7  -2  -9  138.99   12.40
  -2  -7  -9  134.69   11.00
   2   7  -9  153.98   12.30
  -7   2  -9  133.19   12.10
   7  -2  -9  163.28   13.30
   2   7  -9  137.69   12.70
  -2  -7  -9  174.58   15.20
  -7   2  -9  170.78   12.50
   2   7  -9  146.59   13.70
  -2  -7   9  149.88   12.50
   2   7   9  149.99   12.10
  -2  -7   9  154.98   12.30
  -7   2   9  151.88   12.90
   3   7  -9  211.68   19.60
   7  -3  -9  198.28   15.60
   3   7  -9  183.38   16.80
   7  -3  -9  173.58   15.40
  -7   3  -9  178.18   15.60
   7  -3  -9  155.58   20.60
   3   7  -9  179.18   15.20
  -3  -7  -9  223.58   18.10
   3   7  -9  178.38   18.00
  -7   3  -9  221.48   15.70
  -3  -7   9  192.48   15.40
  -3  -7   9  191.58   15.70
  -7   3   9  199.38   16.00
   4   7  -9  108.19   10.70
   4   7  -9  105.89   13.20
   4   7  -9   94.49    8.80
   7  -4  -9   97.99    8.60
   7  -4  -9   87.49    9.00
  -7   4  -9  118.69    9.50
   7  -4  -9   84.19   15.90
  -7   4  -9   99.19    9.60
  -7   4   9  107.89    9.70
  -4  -7   9  103.69    9.40
  -4  -7   9  103.69    9.20
   7  -5  -9   49.70    4.50
   5   7  -9   56.39    7.10
   7  -5  -9   54.79   13.00
   5   7  -9   47.50    9.30
  -7   5  -9   54.29    6.50
   7  -5  -9   49.90    5.60
   5   7  -9   45.50    5.30
  -7   5  -9   58.79    6.10
  -7   5   9   52.79    6.00
  -5  -7   9   51.29    5.90
  -5  -7   9   51.09    6.00
   6   7  -9   73.99    8.40
   6   7  -9   59.49   10.60
  -7   6  -9   66.59    7.80
  -7   6  -9   54.99    6.80
   7  -6  -9   75.39   15.10
   7  -6  -9   66.79    6.70
   7  -6  -9   53.99    6.40
   6   7  -9   67.19    6.60
  -6  -7   9   67.19    7.30
  -7   6   9   73.09    7.50
  -6  -7   9   70.89    7.00
   7  -7  -9  108.69    9.40
  -7   7  -9  100.89   11.10
   7   7  -9  109.09   11.40
   7  -7  -9  114.29   18.70
   7   7  -9  131.39   15.00
  -7   7  -9   97.39    9.90
   7  -7  -9  100.59    9.60
   7   7  -9  101.59    9.70
  -7  -7   9  108.69   10.00
  -7   7   9  118.39   10.60
  -7  -7   9  114.59   10.70
  -7   8  -9   18.40    4.90
   7  -8  -9   10.00    3.00
   7  -8  -9   13.40    2.40
   7  -8  -9   10.50    6.50
   8   7  -9   15.80    3.50
  -7   8  -9   17.00    3.60
  -8  -7   9   12.00    3.30
  -7   8   9   15.80    3.80
   7  -8   9   12.70    3.00
  -8  -7   9   13.00    3.70
   6  -8  -9    4.80    2.20
   8   6  -9    7.40    4.90
   6  -8  -9    1.80    5.00
   6  -8  -9    3.30    1.30
  -6   8  -9    3.40    2.20
  -6   8  -9    9.40    3.90
   8   6  -9    6.30    2.40
  -8  -6   9    4.30    2.60
   6  -8   9    4.50    2.20
  -6   8   9    5.60    2.50
  -8  -6   9    4.60    2.60
   6  -8   9    3.00    2.40
  -8  -5  -9   48.10    4.00
  -5   8  -9   51.69    8.00
   5  -8  -9   47.10    5.30
  -5   8  -9   37.90    5.30
   8   5  -9   40.90    8.80
   5  -8  -9   55.69   12.10
   8   5  -9   43.40    5.50
  -5   8   9   44.20    5.60
  -8  -5   9   46.20    6.10
   5  -8   9   49.60    5.50
  -8  -5   9   57.89    6.80
  -8  -5   9   54.09    6.40
   5  -8   9   54.29    6.00
  -4   8  -9  103.89   11.10
  -4   8  -9   94.79    9.20
   8   4  -9  116.99   13.60
  -8  -4  -9   95.99    8.00
   8   4  -9  101.89    9.20
   4  -8  -9   83.59   14.10
   8   4  -9   99.79    9.30
   4  -8  -9   99.59    9.00
  -4   8   9  102.69    9.40
  -8  -4   9  116.69   10.10
   4  -8   9  105.19    9.40
  -8  -4   9  103.29    9.60
   4  -8   9  105.19    9.30
  -8  -4   9   97.69   10.30
   3  -8  -9  110.39   14.50
  -3   8  -9  151.38   13.20
  -3   8  -9  112.99   10.60
   3  -8  -9  131.79   10.50
  -8  -3  -9  129.39    9.90
   8   3  -9  113.59   10.70
   8   3  -9  112.99   10.60
   8   3  -9  118.79   14.20
  -8  -3   9  134.79   11.50
  -3   8   9  127.29   10.80
   3  -8   9  121.39   10.80
  -8  -3   9  118.59   11.10
  -8  -3   9  129.19   12.10
   3  -8   9  131.39   10.80
  -2   8  -9  123.39   12.30
  -2   8  -9  106.19   10.10
   8   2  -9  116.79   10.40
  -8  -2  -9  121.59    9.70
   2  -8  -9  114.99   13.90
   8   2  -9  121.69   10.40
   8   2  -9  141.89   14.20
   2  -8  -9  120.79   10.00
  -8  -2   9  116.99   11.60
  -8  -2   9  123.49   11.00
   2  -8   9  122.09   10.40
   2  -8   9  122.19   10.40
  -2   8   9  115.29   10.10
  -8  -2   9  110.69   10.70
   1  -8  -9   21.70    3.20
  -8  -1  -9   20.00    2.90
   8   1  -9   25.20    6.50
  -1   8  -9   21.10    3.40
   1  -8  -9   27.50    6.90
   8   1  -9   22.10    3.60
   8   1  -9   28.30    4.10
  -1   8  -9   21.80    4.80
  -1   8   9   20.50    3.10
  -8  -1   9   20.70    4.00
   1  -8   9   25.00    3.70
  -8  -1   9   17.50    3.70
  -8  -1   9   25.20    4.90
   1  -8   9   28.60    4.00
   0  -8  -9    1.90    3.00
   8   0  -9    0.60    2.90
  -8   0  -9    2.00    1.30
   0   8  -9    0.90    2.20
   0   8  -9    1.20    2.10
   8   0  -9    1.00    1.50
   8   0  -9    3.40    1.90
   0   8  -9    0.70    1.40
  -8   0   9    1.00    2.20
  -8   0   9    1.20    1.70
   0  -8   9    2.50    1.90
   0   8   9    3.00    1.60
  -8   0   9   -0.20    2.00
   0  -8   9   -0.30    1.20
   8  -1  -9   24.60    4.10
   1   8  -9   31.20    8.30
  -8   1  -9   23.50    3.00
   8  -1  -9   29.40    5.60
  -8   1  -9   21.20    3.30
   1   8  -9   28.10    4.70
   1   8  -9   23.40    4.90
  -1  -8  -9   28.90    6.50
   1   8  -9   23.40    3.50
  -1  -8   9   31.60    4.10
  -8   1   9   20.30    4.00
  -8   1   9   21.70    4.80
   1   8   9   22.90    3.20
  -1  -8   9   23.00    3.90
  -8   2  -9  114.09   10.10
   2   8  -9  135.69   15.40
   8  -2  -9  104.79   10.40
  -2  -8  -9  135.69   13.20
   2   8  -9  114.59   10.20
   8  -2  -9  129.69   11.60
  -8   2  -9  133.99   10.50
   2   8  -9  120.69   11.80
  -8   2   9  112.19   10.90
   2   8   9  120.49   10.10
  -2  -8   9  122.19   10.60
  -2  -8   9  112.49   10.40
  -8   3  -9  127.09   11.10
   3   8  -9  144.89   15.70
   3   8  -9  123.29   10.80
   8  -3  -9  112.69   18.60
   8  -3  -9  114.49   10.90
   8  -3  -9  125.79   11.30
  -3  -8  -9  137.89   13.40
  -8   3  -9  134.89   11.10
   3   8  -9  120.49   12.30
  -3  -8   9  125.49   11.20
  -8   3   9  130.59   11.60
  -3  -8   9  124.59   10.90
  -8   4  -9  121.69    9.80
   4   8  -9  102.29   13.70
   8  -4  -9   98.19    9.40
   4   8  -9   96.39    9.00
  -8   4  -9  102.69    9.70
   8  -4  -9   83.69   16.10
   8  -4  -9  103.79    9.00
   4   8  -9  101.99   10.60
  -4  -8   9  102.99    9.30
  -8   4   9   95.19    9.70
  -4  -8   9   96.69    9.50
   8  -5  -9   52.49    4.70
   8  -5  -9   37.60    5.20
   8  -5  -9   63.39   13.40
  -8   5  -9   49.70    6.10
   5   8  -9   39.00    8.90
   5   8  -9   44.10    5.30
   5   8  -9   41.70    7.00
  -5  -8   9   46.30    5.70
  -5  -8   9   45.90    5.70
  -8   5   9   50.49    6.30
   6   8  -9    4.10    3.00
   6   8  -9    4.90    2.10
   8  -6  -9    2.20    5.40
  -8   6  -9    1.90    2.30
   8  -6  -9    8.90    2.80
   8  -6  -9    5.20    1.20
  -6  -8   9    3.90    2.40
  -8   6   9    2.80    2.30
  -6  -8   9    5.00    2.50
   7   8  -9   18.60    4.80
   8  -7  -9    9.70    3.00
   8  -7  -9   10.00    7.40
   8  -7  -9   14.40    3.00
  -8   7  -9   17.70    4.50
   7   8  -9   13.70    3.20
  -7  -8   9   11.70    3.60
  -7  -8   9   16.30    3.50
  -8   7   9   14.30    3.90
   8  -8  -9    9.50    6.70
   8  -8  -9    7.60    2.80
   8   8  -9   10.60    3.10
  -8   8  -9    8.80    3.60
   8  -8  -9    8.50    2.30
  -8  -8   9   11.60    3.20
  -8   8   9    9.80    3.50
  -8  -8   9   12.40    3.80
   8  -9  -9  297.17   22.40
   8  -9  -9  271.17   23.40
   8  -9  -9  289.27   31.20
  -8   9  -9  312.67   25.60
   9   8  -9  300.87   23.90
   8  -9   9  339.87   24.00
  -8   9   9  279.07   24.60
  -9  -8   9  295.27   23.70
  -9  -8   9  288.47   24.80
   7  -9  -9    7.20    6.00
   7  -9  -9   12.80    3.20
  -7   9  -9   10.80    3.10
  -7   9  -9    8.10    4.00
   9   7  -9   10.30    3.10
  -9  -7   9   10.70    3.40
   7  -9   9   12.10    3.20
  -7   9   9   12.60    3.70
   7  -9   9   13.20    3.60
  -9  -7   9    9.60    3.70
   6  -9  -9   38.60    5.40
  -6   9  -9   35.80    5.20
  -9  -6  -9   36.70    3.20
   9   6  -9   41.80    9.30
  -6   9  -9   48.20    7.90
   9   6  -9   41.70    5.40
   6  -9  -9   27.40    9.30
  -9  -6   9   39.30    6.60
  -6   9   9   43.90    5.80
   6  -9   9   46.60    5.80
  -9  -6   9   40.30    5.90
   6  -9   9   42.60    5.30
   9   5  -9   52.89    9.90
   5  -9  -9   44.10    5.30
   5  -9  -9   39.10   10.10
  -5   9  -9   42.10    5.40
  -5   9  -9   67.59    8.30
  -9  -5  -9   43.80    4.00
   9   5  -9   51.19    5.80
  -9  -5   9   47.00    7.80
  -9  -5   9   48.80    7.40
   5  -9   9   46.00    6.00
   5  -9   9   47.40    5.70
  -9  -5   9   50.49    6.40
  -5   9   9   52.19    6.00
  -9  -4  -9   13.90    1.90
   4  -9  -9    5.40    4.60
   4  -9  -9   10.30    2.70
   9   4  -9    9.20    2.80
  -4   9  -9   13.40    4.60
  -4   9  -9    8.40    2.50
   9   4  -9   17.20    6.20
  -9  -4   9    5.50    3.00
  -9  -4   9   12.00    3.30
   4  -9   9   10.00    2.90
   4  -9   9   10.60    3.10
  -9  -4   9   12.50    3.50
   3  -9  -9   26.00    7.40
  -3   9  -9   41.10    7.10
   9   3  -9   35.00    4.80
  -3   9  -9   30.20    4.30
  -9  -3  -9   32.90    3.60
   3  -9  -9   40.30    4.50
   9   3  -9   37.80    4.80
   9   3  -9   42.30    8.50
  -9  -3   9   35.70    6.40
   3  -9   9   40.80    4.70
  -9  -3   9   39.40    5.50
   3  -9   9   37.20    5.20
  -9  -3   9   33.40    5.30
  -2   9  -9  196.18   17.30
  -9  -2  -9  216.58   16.70
   2  -9  -9  198.18   21.00
   9   2  -9  222.68   17.60
   9   2  -9  215.68   17.60
   9   2  -9  247.48   21.50
  -2   9  -9  218.68   19.60
  -9  -2   9  222.38   18.40
  -9  -2   9  235.68   19.50
  -9  -2   9  212.78   18.10
   2  -9   9  219.08   17.50
   2  -9   9  213.48   17.50
  -1   9  -9  259.77   21.50
   9   1  -9  311.67   25.20
   9   1  -9  261.67   21.50
   9   1  -9  262.37   21.80
  -1   9  -9  328.77   24.30
  -9  -1  -9  278.97   21.10
   1  -9  -9  282.37   25.30
  -9  -1   9  280.17   22.60
   1  -9   9  270.37   21.50
  -9  -1   9  255.87   22.20
  -9  -1   9  278.77   23.50
   1  -9   9  286.67   21.80
   0  -9  -9   25.40    6.80
  -9   0  -9   27.40    3.70
   9   0  -9   27.20    5.70
   9   0  -9   40.10    7.50
   0   9  -9   30.30    5.90
   0   9  -9   30.40    3.90
   9   0  -9   27.10    4.50
  -9   0   9   30.90    5.20
  -9   0   9   34.50    5.60
   0  -9   9   33.50    4.80
   0  -9   9   29.40    4.10
  -9   0   9   28.50    5.70
  -9   1  -9  295.47   20.60
  -9   1  -9  279.97   21.20
   1   9  -9  271.37   21.20
   1   9  -9  264.37   23.10
  -1  -9  -9  270.97   24.30
   9  -1  -9  313.97   23.80
   9  -1  -9  234.68   21.40
  -9   1   9  256.37   23.20
  -1  -9   9  262.67   21.50
  -9   1   9  261.27   22.60
  -9   1   9  274.77   22.40
  -1  -9   9  283.77   21.40
  -9   2  -9  220.38   17.20
   9  -2  -9  212.38   18.80
   2   9  -9  205.68   19.10
   2   9  -9  275.57   23.70
   2   9  -9  211.18   17.40
  -9   2  -9  225.38   17.60
  -2  -9  -9  237.18   20.60
   9  -2  -9  209.78   17.80
  -9   2   9  210.78   18.50
  -9   2   9  192.68   19.40
  -2  -9   9  226.08   17.90
  -2  -9   9  227.48   17.60
   3   9  -9   44.30    9.80
  -3  -9  -9   47.70    8.00
  -9   3  -9   39.10    4.90
   9  -3  -9   25.20    4.80
   9  -3  -9   46.80    6.00
   3   9  -9   47.20    4.90
  -9   3  -9   37.80    4.80
   3   9  -9   34.40    6.40
  -9   3   9   32.40    5.80
  -3  -9   9   39.40    5.10
  -3  -9   9   40.20    5.30
   9  -4  -9    7.80    2.90
   4   9  -9   11.10    3.80
   9  -4  -9    8.60    2.70
  -9   4  -9   14.20    3.30
  -9   4  -9   11.10    2.90
  -9   4  -9   16.90    3.00
   4   9  -9    7.10    5.40
   9  -4  -9    6.90    6.30
   4   9  -9    5.60    2.20
  -9   4   9    9.00    3.10
  -4  -9   9    7.40    2.60
  -4  -9   9   13.30    3.40
   9  -5  -9   38.50   11.50
   9  -5  -9   46.60    5.00
   9  -5  -9   39.60    5.50
   5   9  -9   51.39    7.90
  -9   5  -9   52.79    6.20
   5   9  -9   46.00    5.40
  -9   5   9   46.20    6.50
  -5  -9   9   45.70    5.70
  -5  -9   9   45.50    5.90
   9  -6  -9   39.50    5.50
  -9   6  -9   36.70    6.00
   6   9  -9   37.80    4.90
   9  -6  -9   37.60   11.90
   9  -6  -9   38.20    3.90
  -6  -9   9   43.10    5.60
  -9   6   9   43.90    6.90
  -6  -9   9   34.50    5.80
   9  -7  -9   18.90    9.30
   9  -7  -9   10.00    3.10
   9  -7  -9   11.90    3.00
   7   9  -9    9.30    2.80
  -9   7  -9    8.70    3.40
  -7  -9   9    9.40    3.00
  -9   7   9   12.00    3.90
  -7  -9   9   13.10    3.60
   8   9  -9  297.77   23.90
   9  -8  -9  264.07   31.10
   9  -8  -9  281.67   24.00
  -9   8  -9  324.77   25.50
   9  -8  -9  289.07   23.40
  -9   8   9  311.17   25.40
  -8  -9   9  310.17   25.00
  -8  -9   9  314.27   23.90
   9   9  -9  195.68   17.10
   9  -9  -9  214.78   25.40
  -9   9  -9  211.88   18.60
   9  -9  -9  211.38   16.00
   9  -9  -9  180.58   16.70
  -9  -9   9  205.68   18.10
  -9   9   9  185.38   18.10
  -9  -9   9  211.78   17.00
   9 -10  -9    8.10    7.30
  10   9  -9    8.40    3.20
   9 -10  -9    5.90    2.80
  -9  10  -9    6.60    3.90
 -10  -9   9   12.40    4.20
 -10  -9   9   15.60    3.70
   9 -10   9   13.30    3.70
   9 -10   9   10.10    3.70
   8 -10  -9    1.10    2.10
  10   8  -9    2.90    2.60
  -8  10  -9    1.60    3.10
   8 -10  -9    2.50    6.00
   8 -10   9    2.80    2.90
 -10  -8   9    1.10    2.60
   8 -10   9    4.40    2.70
 -10  -8   9    2.50    2.80
   7 -10  -9   12.60    7.90
  -7  10  -9   21.50    4.40
  10   7  -9   19.60    4.30
   7 -10  -9   18.60    3.70
  -7  10  -9   15.90    5.00
   7 -10   9   17.70    3.90
 -10  -7   9   13.90    4.50
 -10  -7   9   11.40    3.70
   7 -10   9   13.80    3.80
  -6  10  -9   44.70    8.00
   6 -10  -9   18.50    7.80
  -6  10  -9   27.50    4.80
 -10  -6  -9   28.80    2.70
  10   6  -9   31.30    5.30
   6 -10  -9   34.60    4.90
   6 -10   9   33.10    5.20
   6 -10   9   33.80    5.10
 -10  -6   9   36.40    5.50
 -10  -6   9   35.80    6.50
  -5  10  -9  101.19   11.30
   5 -10  -9   68.59   14.00
  10   5  -9   82.99    8.60
   5 -10  -9   85.69    8.10
 -10  -5  -9   80.19    6.80
  10   5  -9  103.89   13.30
  -5  10  -9   78.39    8.40
   5 -10   9   95.99    8.80
 -10  -5   9   80.09    9.10
   5 -10   9   97.79    8.80
 -10  -5   9   79.19    9.90
  -4  10  -9   46.20    5.80
 -10  -4  -9   46.60    4.50
  10   4  -9   49.10    6.00
   4 -10  -9   56.39   11.80
  10   4  -9   48.70    9.60
  -4  10  -9   49.90    8.50
   4 -10   9   55.79    6.20
 -10  -4   9   54.49    8.30
   4 -10   9   54.89    6.50
 -10  -4   9   51.89    7.00
 -10  -4   9   48.50    6.80
 -10  -3  -9    7.40    1.80
   3 -10  -9    2.40    4.00
  -3  10  -9   10.30    2.90
  -3  10  -9   10.90    4.30
  10   3  -9   24.70    7.20
  10   3  -9   13.40    3.40
 -10  -3   9    7.80    3.30
 -10  -3   9    5.50    3.40
   3 -10   9    5.40    2.70
   3 -10   9    7.70    2.60
 -10  -3   9    9.30    3.50
  -2  10  -9   79.39    7.30
  10   2  -9   70.49    7.40
  10   2  -9   67.79    7.30
  -2  10  -9   76.99    9.60
  10   2  -9   93.69   11.90
   2 -10  -9   72.99   12.40
 -10  -2  -9   62.69    6.20
   2 -10   9   65.29    7.40
 -10  -2   9   63.79    8.00
 -10  -2   9   72.39    9.00
   2 -10   9   62.89    7.10
 -10  -2   9   65.39    8.20
  10   1  -9  430.76   34.50
  -1  10  -9  460.35   34.40
 -10  -1  -9  440.76   33.80
   1 -10  -9  438.66   38.20
  -1  10  -9  524.25   37.40
  10   1  -9  452.55   34.80
   1 -10   9  459.65   34.60
 -10  -1   9  447.26   35.30
 -10  -1   9  438.56   36.60
 -10  -1   9  447.26   35.60
   1 -10   9  470.15   34.40
   0  10  -9    2.00    3.00
 -10   0  -9    1.10    1.40
  10   0  -9    0.40    1.70
  10   0  -9   -4.60    2.90
   0 -10  -9    2.10    3.50
   0  10  -9    3.70    2.10
   0 -10   9    2.00    2.30
 -10   0   9   -0.50    2.20
 -10   0   9    1.50    2.10
   0 -10   9    0.40    1.70
 -10   0   9   -0.60    2.50
 -10   1  -9  439.06   34.90
  10  -1  -9  520.35   37.80
   1  10  -9  456.65   37.40
  10  -1  -9  436.16   35.60
  -1 -10  -9  494.15   38.70
   1  10  -9  481.55   35.30
  -1 -10   9  485.85   35.60
 -10   1   9  451.75   37.80
 -10   1   9  432.46   36.30
  -1 -10   9  472.45   35.20
 -10   1   9  475.15   36.70
  10  -2  -9   71.19    7.70
   2  10  -9   57.89   12.20
  10  -2  -9  100.99    9.70
   2  10  -9   65.09    8.70
  -2 -10  -9   80.19   10.10
 -10   2  -9   75.49    6.70
   2  10  -9   64.09    6.90
 -10   2  -9   64.29    6.90
  -2 -10   9   72.29    7.40
 -10   2   9   64.49    8.10
 -10   2   9   67.39    9.30
  -2 -10   9   73.29    7.50
   3  10  -9    8.00    3.50
 -10   3  -9    5.10    2.20
  10  -3  -9    3.90    2.50
   3  10  -9    7.40    2.50
  10  -3  -9   11.20    3.60
  -3 -10  -9    7.10    4.00
 -10   3  -9    4.70    2.10
  -3 -10   9   10.40    2.90
  -3 -10   9    8.90    2.90
 -10   3   9   11.30    3.70
  10  -4  -9   47.20    6.40
  10  -4  -9   69.89   15.10
  10  -4  -9   51.29    6.40
 -10   4  -9   60.19    6.30
 -10   4  -9   55.29    6.20
   4  10  -9   55.09    6.00
  -4 -10   9   49.70    6.20
 -10   4   9   53.89    7.30
  -4 -10   9   49.20    6.30
   5  10  -9   88.29    8.50
 -10   5  -9  101.89    9.20
  10  -5  -9   91.59    8.20
  10  -5  -9  109.89   19.60
  10  -5  -9   81.19    8.80
  -5 -10   9   80.39    8.90
  -5 -10   9   93.09    8.70
 -10   5   9   76.79    9.60
 -10   6  -9   34.00    5.50
  10  -6  -9   23.60    4.80
   6  10  -9   37.40    4.80
  10  -6  -9   29.60    3.70
  10  -6  -9   26.30    5.00
  10  -6  -9   36.30   11.50
  -6 -10   9   24.80    4.30
  -6 -10   9   30.90    5.30
 -10   6   9   29.70    5.90
   7  10  -9   19.10    3.90
 -10   7  -9   16.60    4.30
  10  -7  -9   15.40    3.70
  10  -7  -9   13.10    3.60
  10  -7  -9   12.20    8.30
 -10   7   9   13.10    4.40
  -7 -10   9   20.70    3.90
  -7 -10   9   20.20    4.40
 -10   8  -9    1.30    2.60
  10  -8  -9    6.70    3.10
  10  -8  -9    1.40    1.90
  10  -8  -9   -1.00    5.10
   8  10  -9    5.10    2.70
  -8 -10   9    5.30    3.10
  -8 -10   9    5.30    2.70
 -10   8   9    1.40    2.80
  10  -9  -9   10.60    3.50
  10  -9  -9    7.90    7.80
   9  10  -9    9.10    3.40
  10  -9  -9    7.80    2.40
 -10   9  -9    8.50    3.90
  -9 -10   9   13.40    3.50
 -10   9   9   10.30    4.30
  -9 -10   9   12.40    4.10
  11   8  -9   17.40    4.50
   8 -11  -9   14.20    3.70
   8 -11  -9   22.60    9.00
  -8  11  -9   19.30    5.90
   8 -11   9   16.90    4.10
 -11  -8   9    9.80    4.10
 -11  -8   9   16.10    4.10
   8 -11   9   22.00    4.60
  11   7  -9    3.50    2.80
  -7  11  -9    5.30    2.80
   7 -11  -9   12.20    7.10
   7 -11  -9    0.70    2.20
  -7  11  -9    4.40    4.10
   7 -11   9    3.50    3.00
 -11  -7   9    9.30    3.90
   7 -11   9    4.30    2.70
 -11  -7   9    3.50    3.00
  -6  11  -9   81.29    8.70
 -11  -6  -9   75.29    6.40
  -6  11  -9   92.09   11.30
   6 -11  -9   66.09   14.50
  11   6  -9   85.09    9.10
   6 -11   9   94.49    8.90
 -11  -6   9   77.09    9.90
 -11  -6   9   90.79    9.40
   6 -11   9   91.39    8.90
  11   5  -9    8.90    6.00
   5 -11  -9   12.50    6.50
 -11  -5  -9   10.40    1.70
  11   5  -9   11.60    3.40
  -5  11  -9    9.60    3.10
  -5  11  -9    6.50    4.00
   5 -11   9    9.90    3.10
 -11  -5   9   13.00    4.40
 -11  -5   9   10.70    3.80
   5 -11   9   13.00    3.50
  -4  11  -9   26.50    4.40
  11   4  -9   30.30    5.10
  11   4  -9   30.10    8.00
  -4  11  -9   23.90    6.20
 -11  -4  -9   23.50    2.90
   4 -11  -9   19.50    7.50
 -11  -4   9   27.00    6.20
 -11  -4   9   23.10    5.10
   4 -11   9   31.60    4.90
   4 -11   9   25.50    4.50
 -11  -4   9   23.80    5.40
  11   3  -9   41.10    5.90
  -3  11  -9   53.69    8.80
  -3  11  -9   40.30    5.40
 -11  -3  -9   43.40    4.40
  11   3  -9   48.10    9.50
 -11  -3   9   47.00    6.90
 -11  -3   9   43.90    7.90
   3 -11   9   45.10    5.60
 -11  -3   9   45.60    6.90
   3 -11   9   38.00    5.80
  -2  11  -9   21.90    3.90
   2 -11  -9   10.30    5.10
 -11  -2  -9   16.20    2.70
  11   2  -9   16.60    4.00
  -2  11  -9   33.30    6.80
  11   2  -9   18.40    6.60
  11   2  -9   17.00    3.90
   2 -11   9   18.00    3.70
 -11  -2   9   17.40    5.10
   2 -11   9   22.30    4.10
 -11  -2   9   20.00    4.90
 -11  -2   9   20.00    4.80
  11   1  -9   82.49   10.90
  -1  11  -9   74.59    9.30
  11   1  -9   61.19    7.10
  -1  11  -9   56.59    6.20
 -11  -1  -9   58.09    5.70
  11   1  -9   56.69    6.80
   1 -11  -9   60.99   11.10
 -11  -1   9   54.59    9.00
   1 -11   9   46.80    6.60
 -11  -1   9   60.59    8.10
 -11  -1   9   65.59    7.90
   1 -11   9   53.99    6.40
   0  11  -9  217.68   17.70
 -11   0  -9  214.68   17.20
   0  11  -9  221.48   20.30
  11   0  -9  213.48   18.40
  11   0  -9  268.07   21.60
   0 -11  -9  209.68   21.10
   0 -11   9  211.28   18.00
 -11   0   9  212.18   19.20
   0 -11   9  221.68   17.70
 -11   0   9  208.18   20.20
 -11   0   9  219.88   19.30
  11  -1  -9   68.59    9.40
  11  -1  -9   60.69    7.10
 -11   1  -9   57.39    5.90
   1  11  -9   73.09    9.00
   1  11  -9   54.39    6.20
  -1 -11  -9   61.19    9.90
 -11   1   9   61.19    8.30
  -1 -11   9   55.49    6.60
 -11   1   9   46.50    8.60
  -1 -11   9   59.89    6.70
 -11   1   9   43.60    7.60
   2  11  -9   18.60    3.60
  11  -2  -9   19.10    4.30
  11  -2  -9   23.00    5.40
 -11   2  -9   15.00    3.20
  -2 -11  -9   19.70    5.80
 -11   2  -9   25.00    3.40
   2  11  -9   20.90    5.80
  -2 -11   9   21.80    4.00
 -11   2   9   24.90    5.60
 -11   2   9   14.20    4.40
 -11   2   9   23.70    6.00
  -2 -11   9   18.80    4.00
   3  11  -9   46.90    5.60
  11  -3  -9   52.89    6.40
 -11   3  -9   53.39    5.50
 -11   3  -9   50.19    5.70
  11  -3  -9   46.50    7.10
  -3 -11   9   41.80    5.90
 -11   3   9   40.80    7.30
  -3 -11   9   51.29    6.10
   4  11  -9   24.20    4.10
  11  -4  -9   22.70    4.80
 -11   4  -9   29.80    4.50
  11  -4  -9   30.30    5.10
 -11   4  -9   26.90    4.40
  -4 -11   9   24.00    4.70
 -11   4   9   22.30    5.50
  -4 -11   9   28.00    4.40
   5  11  -9   13.50    3.20
 -11   5  -9    9.50    3.00
  11  -5  -9   10.40    3.00
  11  -5  -9   12.70    3.90
 -11   5   9   11.80    4.30
  -5 -11   9    7.10    3.00
  -5 -11   9   11.40    3.20
  11  -6  -9   90.49    7.90
   6  11  -9   93.89    8.80
 -11   6  -9   98.39    9.50
  11  -6  -9   70.59    9.20
  11  -6  -9   79.99    9.40
 -11   6   9   86.19   10.50
  -6 -11   9   87.59    9.50
  -6 -11   9  100.49    9.00
  11  -7  -9    0.20    6.20
  11  -7  -9    0.00    2.50
 -11   7  -9    1.60    2.50
   7  11  -9    2.40    2.50
  11  -7  -9    4.60    2.70
  11  -7  -9    1.90    1.40
  -7 -11   9    8.00    2.90
 -11   7   9    2.30    3.30
  -7 -11   9    2.20    2.50
  11  -8  -9   13.80    4.10
  11  -8  -9   18.80    4.00
 -11   8  -9   10.60    3.90
   8  11  -9   27.20    4.80
  11  -8  -9   20.30    9.60
 -11   8   9   13.10    4.80
  -8 -11   9   18.00    4.60
  -8 -11   9   20.40    3.90
   6 -12  -9   13.60    7.70
  -6  12  -9   21.40    6.40
  12   6  -9   16.60    4.50
  -6  12  -9   22.10    4.50
 -12  -6  -9   17.60    2.10
   6 -12   9   19.40    4.20
 -12  -6   9   25.50    5.00
   6 -12   9   21.00    4.50
 -12  -6   9   22.40    5.70
  12   5  -9   86.59    9.60
   5 -12  -9   75.49   14.80
 -12  -5  -9   83.69    7.00
  -5  12  -9   85.29    8.90
  -5  12  -9   86.89   11.80
 -12  -5   9   84.99   10.80
 -12  -5   9   91.79   10.10
   5 -12   9   90.79    9.10
   5 -12   9   89.09    9.10
 -12  -4  -9   25.70    3.00
   4 -12  -9   24.90    8.30
  -4  12  -9   25.20    4.60
  12   4  -9   23.30    5.10
  -4  12  -9   28.40    7.00
  12   4  -9   33.80    8.80
   4 -12   9   23.00    4.40
 -12  -4   9   27.40    5.50
 -12  -4   9   27.70    6.50
 -12  -4   9   16.30    5.00
   4 -12   9   23.90    4.50
  12   3  -9    3.30    2.70
  -3  12  -9   13.50    5.60
   3 -12  -9    8.70    5.40
  -3  12  -9    6.60    2.70
 -12  -3  -9    3.40    1.40
  12   3  -9   13.30    6.20
 -12  -3   9    3.50    3.40
 -12  -3   9    5.60    3.50
   3 -12   9    4.60    2.50
   3 -12   9    6.90    3.00
 -12  -3   9    2.40    3.20
  12   2  -9  102.79   10.10
  -2  12  -9   92.09    9.20
  -2  12  -9  118.99   13.00
  12   2  -9  114.19   13.70
   2 -12  -9  100.39   13.60
 -12  -2  -9   93.09    8.20
 -12  -2   9   97.29   10.90
   2 -12   9   89.19    9.30
 -12  -2   9   87.89   10.70
 -12  -2   9  100.09   11.90
   2 -12   9   92.19    9.40
  12   1  -9  121.29   13.30
  12   1  -9   92.89    9.80
   1 -12  -9   96.69   12.90
  -1  12  -9  110.29   12.20
 -12  -1  -9   87.69    8.10
  -1  12  -9   94.49    9.00
 -12  -1   9   89.69   10.70
   1 -12   9   93.29    9.10
 -12  -1   9   78.69   11.00
 -12  -1   9   81.29   10.30
   1 -12   9   89.79    9.20
   0  12  -9   -0.30    3.30
   0 -12  -9    1.70    1.10
   0  12  -9    6.30    2.40
  12   0  -9    1.10    4.00
   0 -12  -9   -1.60    3.40
 -12   0  -9    1.90    1.50
  12   0  -9    4.70    3.00
   0 -12   9    6.20    2.60
   0 -12   9    8.50    3.00
 -12   0   9   -0.30    3.40
 -12   0   9    1.60    2.50
 -12   0   9    0.40    3.20
  12  -1  -9   94.69    9.90
   1  12  -9   96.19    8.90
  -1 -12  -9  101.89   12.60
  12  -1  -9  123.59   12.30
 -12   1  -9   87.49    8.40
  -1 -12   9   92.89    9.40
  -1 -12   9   87.39    9.00
 -12   1   9   85.89   10.50
 -12   1   9   87.69   11.10
 -12   1   9   74.49   12.20
 -12   2  -9  100.79    9.20
   2  12  -9  112.19    9.50
  12  -2  -9  114.39   11.90
  -2 -12  -9   97.29   12.50
  12  -2  -9   94.69   10.30
  -2 -12   9   93.89    9.50
 -12   2   9  108.79   12.20
  -2 -12   9   99.99    9.90
 -12   2   9   79.29   11.60
 -12   2   9   92.39   11.10
   3  12  -9    8.60    2.60
 -12   3  -9    4.30    2.30
  12  -3  -9    2.60    2.60
  12  -3  -9   10.10    4.00
 -12   3  -9    6.00    2.20
 -12   3   9    9.80    4.70
 -12   3   9   12.20    4.40
  -3 -12   9    6.70    3.00
  -3 -12   9    7.70    2.90
 -12   4  -9   25.00    4.30
 -12   4  -9   28.00    4.30
   4  12  -9   30.30    4.70
  12  -4  -9   27.80    5.40
  12  -4  -9   33.30    5.60
  -4 -12   9   28.80    4.50
  -4 -12   9   26.20    4.90
 -12   4   9   20.50    5.50
   5  12  -9   95.99    8.90
  12  -5  -9  107.19    9.30
 -12   5  -9   96.29    9.00
  12  -5  -9   72.89    9.60
 -12   5   9   78.59   10.60
  -5 -12   9   92.19    8.80
  -5 -12   9   79.89    9.40
  12  -6  -9   20.20    3.50
  12  -6  -9   24.80    5.30
 -12   6  -9   26.40    4.80
   6  12  -9   26.80    4.50
  12  -6  -9   17.10    4.90
  -6 -12   9   23.40    4.10
 -12   6   9   19.30    5.60
  -6 -12   9   24.90    5.10
  13   4  -9   12.60    4.30
 -13  -4  -9   18.90    2.60
  -4  13  -9   12.60    6.00
   4 -13  -9   16.20    7.60
  13   4  -9   22.60    7.90
  -4  13  -9   20.50    4.30
 -13  -4   9   23.70    6.20
   4 -13   9   24.00    4.60
   4 -13   9   21.30    4.30
 -13  -4   9   18.40    5.60
  13   4   9    9.80    4.80
 -13  -4   9   15.90    4.80
   3 -13  -9    7.30    5.40
  13   3  -9   13.40    6.20
  -3  13  -9    8.60    3.10
 -13  -3  -9    8.90    2.10
  13   3  -9    9.10    3.70
  -3  13  -9   11.10    5.70
 -13  -3   9    6.90    4.20
 -13  -3   9    9.00    4.30
   3 -13   9   11.70    3.40
 -13  -3   9    7.30    4.20
   3 -13   9    8.30    3.30
  13   2  -9  154.58   16.10
 -13  -2  -9  117.69   10.50
   2 -13  -9  128.19   16.10
  -2  13  -9  126.79   11.70
  13   2  -9  135.59   12.80
   2 -13   9  137.89   12.10
 -13  -2   9  122.39   13.30
 -13  -2   9  113.99   13.30
   2 -13   9  135.39   11.80
  -1  13  -9  144.49   11.80
 -13  -1  -9  121.29   10.60
   1 -13  -9  134.49   15.80
   1 -13  -9  131.39   10.50
   1 -13   9  124.89   11.50
 -13  -1   9  138.49   13.90
 -13  -1   9  113.29   14.10
 -13  -1   9  112.29   13.20
   1 -13   9  124.59   11.80
   0 -13  -9   21.90    2.40
   0  13  -9   22.90    4.10
 -13   0  -9   19.20    3.30
  13   0  -9   31.50    6.00
  13   0  -9   30.50    7.40
   0 -13  -9   25.50    7.40
 -13   0   9   26.30    6.10
   0 -13   9   17.30    4.00
 -13   0   9   14.50    5.10
   0 -13   9   18.60    4.00
 -13   0   9   25.80    6.70
   1  13  -9  137.99   11.80
 -13   1  -9  132.59   11.20
  -1 -13  -9  138.09   15.50
  13  -1  -9  137.59   13.30
 -13   1   9  100.19   13.10
 -13   1   9  113.69   14.40
 -13   1   9  138.59   14.50
  -1 -13   9  128.79   12.20
  -1 -13   9  137.19   11.70
  13  -2  -9  155.98   14.40
   2  13  -9  135.49   11.60
  -2 -13  -9  111.79   15.80
  13  -2  -9  120.99   12.70
 -13   2  -9  129.59   11.10
 -13   2   9  147.49   14.90
 -13   2   9   91.39   13.70
  -2 -13   9  126.79   11.40
  -2 -13   9  136.99   12.30
 -13   2   9  105.69   13.20
  13  -3  -9   11.30    4.50
 -13   3  -9   13.50    3.10
   3  13  -9    8.20    2.90
  13  -3  -9    7.60    3.80
  -3 -13   9   11.30    3.00
 -13   3   9    8.10    4.30
  -3 -13   9   12.50    3.70
 -13   3   9   11.20    5.30
 -13   3   9    3.70    3.30
   4  13  -9   17.70    3.90
  13  -4  -9   24.20    5.00
  13  -4  -9   18.50    5.10
 -13   4  -9   22.60    3.80
  -4 -13   9   22.40    3.70
 -13   4   9   13.50    4.90
  -4 -13   9   17.90    4.30
   0   0 -10 1048.00   77.09
   0   0 -10 1054.19   76.89
   0   0 -10 1103.29   76.89
   0   0  10 1042.10   76.99
   0   1 -10    2.60    1.20
   0  -1 -10    1.00    0.90
   0   1 -10    1.70    1.60
  -1   0 -10    1.90    1.00
   0  -1 -10   -0.70    0.90
   1   0 -10    2.60    1.30
   0   1 -10    0.40    0.90
  -1   0 -10    1.40    1.10
   1   0 -10    7.20    1.60
   0   1 -10    1.30    1.20
   0   1 -10    0.00    1.30
  -1   0 -10    3.80    1.70
   1   0 -10    3.30    1.30
  -1   0  10    4.50    1.60
   0  -1  10    1.90    1.20
   0   1  10    1.40    1.10
  -1  -1 -10  311.37   23.30
  -1   1 -10  359.76   23.10
   1   1 -10  315.47   23.00
   1   1 -10  327.07   24.00
  -1  -1 -10  288.97   22.90
  -1   1 -10  321.17   23.30
   1   1 -10  291.87   23.20
  -1   1 -10  302.87   23.40
   1  -1 -10  316.47   23.30
   1   1 -10  293.57   23.20
  -1  -1 -10  321.87   23.30
  -1   1 -10  289.87   23.00
   1  -1 -10  305.07   23.20
  -1   1 -10  290.07   23.80
   1  -1 -10  314.37   23.30
   1   1 -10  265.07   24.00
  -1  -1  10  308.47   23.20
  -1   1  10  294.77   23.20
  -2  -1 -10  493.05   36.40
   1  -2 -10  508.75   36.30
  -2  -1 -10  492.35   35.90
   2   1 -10  507.35   37.30
  -1   2 -10  484.65   36.80
  -1   2 -10  487.75   37.10
   1  -2 -10  483.25   36.30
   2   1 -10  497.95   36.00
  -1   2 -10  494.55   36.20
  -2  -1 -10  549.35   36.60
  -1   2 -10  461.15   36.40
  -1   2 -10  472.75   36.10
   2   1 -10  471.55   36.30
   2   1 -10  473.15   36.20
  -1   2  10  461.05   36.20
  -2  -1  10  494.25   36.30
   0   2 -10  143.59   11.40
   0   2 -10  139.59   12.40
  -2   0 -10  120.49   11.30
  -2   0 -10  136.49   11.10
   0  -2 -10  136.89   11.30
  -2   0 -10  144.19   11.60
   0   2 -10  136.49   11.60
   0   2 -10  147.19   11.30
   2   0 -10  133.69   11.50
   0  -2 -10  145.69   11.50
   2   0 -10  133.59   11.40
   2   0 -10  169.08   12.00
   2   0 -10  150.48   11.10
   0   2 -10  145.59   12.50
  -2   0 -10  134.79   11.60
   0  -2  10  140.39   11.40
   0   2  10  141.69   11.50
  -2   0  10  141.09   11.50
  -2   1 -10  469.45   35.70
  -2   1 -10  502.05   36.10
   1   2 -10  475.55   37.10
  -1  -2 -10  522.65   36.10
   1   2 -10  484.95   36.00
   1   2 -10  472.45   37.10
   2  -1 -10  504.35   36.00
   1   2 -10  483.75   36.00
   1   2 -10  481.35   35.70
  -2   1 -10  452.85   36.10
  -1  -2 -10  485.45   35.70
  -2   1 -10  463.85   36.30
  -1  -2  10  509.25   36.00
  -2   1  10  480.25   36.00
  -2   2 -10  504.65   37.10
   2   2 -10  477.85   37.00
   2   2 -10  464.85   37.00
  -2   2 -10  464.85   37.60
  -2   2 -10  488.35   37.30
  -2   2 -10  531.45   37.30
  -2  -2 -10  522.35   37.20
   2   2 -10  486.25   38.50
   2   2 -10  526.95   36.90
   2  -2 -10  498.85   37.00
   2   2 -10  476.65   38.20
  -2  -2 -10  532.45   36.70
  -2   2 -10  482.15   36.80
  -2   2  10  501.65   37.10
  -2  -2  10  527.05   37.10
   3   2 -10  971.00   74.69
   2  -3 -10 1042.10   73.29
  -3  -2 -10 1048.60   72.79
   3   2 -10 1061.19   73.09
  -2   3 -10  983.60   73.09
  -2   3 -10 1064.69   74.19
  -2   3 -10  994.10   73.69
  -2   3 -10 1006.00   74.19
   3   2 -10  894.91   74.79
   3   2 -10 1038.60   73.59
  -2   3 -10  973.70   73.19
   2  -3 -10 1070.69   78.59
  -3  -2 -10 1024.10   73.39
   3   2 -10  971.60   73.19
  -3  -2  10  957.80   73.49
  -3  -2  10 1063.19   73.39
  -2   3  10  973.30   73.29
  -3  -1 -10    2.60    1.50
   3   1 -10    3.10    1.50
   3   1 -10    4.60    1.60
  -3  -1 -10    8.40    2.10
   3   1 -10    4.00    2.40
  -1   3 -10    3.60    2.40
  -1   3 -10    6.40    2.00
   1  -3 -10   10.50    2.20
  -3  -1 -10    4.90    1.30
   3   1 -10    1.90    1.20
   1  -3 -10    3.60    3.70
  -1   3 -10    3.90    1.50
  -1   3 -10    3.00    1.30
  -3  -1  10    6.20    1.90
  -1   3  10    8.40    1.90
   0   3 -10    1.40    2.20
   3   0 -10    0.60    1.20
   0   3 -10    5.20    1.50
   0   3 -10    1.30    1.30
   0   3 -10    0.00    1.50
   0  -3 -10    1.80    1.20
  -3   0 -10    2.90    1.20
   3   0 -10    1.70    1.10
  -3   0 -10    2.80    1.60
   3   0 -10    2.60    1.90
  -3   0 -10    0.90    1.30
   0   3 -10    3.50    1.40
  -3   0  10    4.60    1.70
   0   3  10    1.80    1.30
   0  -3  10    4.00    1.40
  -3   1 -10    2.80    1.50
   1   3 -10    2.60    1.90
   3  -1 -10    4.40    1.60
   1   3 -10    4.10    1.50
  -1  -3 -10    2.20    1.10
   1   3 -10    1.70    1.20
   1   3 -10    6.30    2.00
  -1  -3 -10    6.30    1.80
   1   3 -10   10.20    3.30
  -3   1 -10    4.90    1.40
  -3   1 -10    4.50    1.80
  -1  -3  10    4.10    1.50
  -1  -3  10    7.80    1.90
   1   3  10    2.40    1.30
  -3   1  10    5.00    1.80
  -2  -3 -10 1050.49   73.49
   2   3 -10  963.50   73.99
  -2  -3 -10 1077.29   73.99
  -3   2 -10 1136.69   73.79
  -3   2 -10  996.30   74.09
   3  -2 -10 1013.60   73.89
  -3   2 -10  965.20   74.39
   2   3 -10 1053.99   75.49
   2   3 -10  894.11   75.49
  -3   2 -10  983.80   74.29
   2   3 -10 1029.40   73.69
   2   3 -10 1021.60   73.99
  -3   2 -10  973.60   73.69
  -2  -3  10 1111.09   73.99
  -2  -3  10  949.01   73.99
  -3   2  10 1036.10   74.09
  -3   3 -10  260.07   20.50
  -3   3 -10  261.87   21.20
   3  -3 -10  267.77   25.60
  -3   3 -10  242.58   20.80
   3   3 -10  256.17   20.40
   3   3 -10  265.67   21.90
  -3   3 -10  312.67   21.30
   3  -3 -10  269.27   20.50
   3   3 -10  261.97   20.20
  -3  -3 -10  283.27   20.60
   3   3 -10  242.58   22.50
  -3   3 -10  255.27   20.30
  -3  -3 -10  285.67   19.90
  -3  -3  10  277.97   20.50
  -3  -3  10  246.38   20.60
  -3   3  10  254.27   20.50
  -3   4 -10   75.29    6.60
   4   3 -10   56.69    7.60
  -3   4 -10   77.89    8.30
  -3   4 -10   70.49    7.60
  -3   4 -10   66.09    6.50
  -4  -3 -10   69.19    6.70
  -3   4 -10   73.39    7.30
   4   3 -10   58.19    8.90
   4   3 -10   79.79    6.50
   3  -4 -10   60.19   11.50
  -4  -3 -10   67.09    5.80
   4   3 -10   69.79    6.50
   3  -4 -10   68.89    6.60
  -3   4  10   70.49    6.60
  -4  -3  10   65.79    6.70
  -4  -3  10   63.89    6.90
  -4  -3  10   72.59    6.60
   4   2 -10   16.50    4.60
   4   2 -10   14.60    2.70
  -4  -2 -10   16.00    2.10
  -2   4 -10   17.80    2.80
   2  -4 -10   14.10    2.70
  -2   4 -10   11.10    2.30
   2  -4 -10   14.40    5.90
  -2   4 -10   17.60    3.70
  -2   4 -10   18.20    3.30
   4   2 -10   12.60    2.40
  -2   4 -10   11.60    3.80
  -4  -2 -10   17.70    3.10
  -4  -2  10   22.30    2.90
  -4  -2  10   18.20    3.20
  -2   4  10   14.30    2.60
   4   1 -10  252.17   19.80
  -4  -1 -10  272.87   19.50
  -1   4 -10  241.98   20.20
  -1   4 -10  243.38   19.80
   4   1 -10  271.87   21.70
  -4  -1 -10  270.87   20.30
  -1   4 -10  222.08   21.30
   1  -4 -10  301.77   24.70
   1  -4 -10  285.57   19.90
  -1   4 -10  249.18   19.80
  -1   4 -10  270.37   21.30
   4   1 -10  264.97   19.60
   1  -4  10  239.58   20.40
  -1   4  10  262.67   19.90
  -4  -1  10  245.98   19.90
   0   4 -10   48.20    5.90
   0  -4 -10   76.89    9.00
   0   4 -10   51.89    5.10
   4   0 -10   43.20    4.50
   4   0 -10   40.50    5.70
   0   4 -10   42.40    7.00
  -4   0 -10   41.60    4.10
  -4   0 -10   36.30    4.80
  -4   0 -10   38.30    4.80
   0   4 -10   41.20    4.30
   0   4 -10   40.30    4.50
   0  -4 -10   42.80    4.50
  -4   0 -10   46.50    4.20
   4   0 -10   43.50    4.10
   0   4  10   40.80    4.50
   0  -4  10   42.30    4.40
  -4   0  10   39.00    4.60
   0  -4  10   36.20    4.30
  -1  -4 -10  303.47   24.30
  -4   1 -10  265.37   20.10
  -4   1 -10  267.97   20.90
  -4   1 -10  273.77   20.90
   1   4 -10  268.77   22.70
   4  -1 -10  244.18   20.30
   1   4 -10  288.47   22.00
   4  -1 -10  311.27   20.80
   1   4 -10  248.38   20.40
   1   4 -10  258.17   20.20
  -4   1 -10  231.98   20.20
  -1  -4 -10  279.97   20.30
  -1  -4  10  254.67   20.40
  -1  -4  10  263.87   20.30
  -4   1  10  260.37   20.50
   1   4  10  249.97   20.30
   4  -2 -10   17.40    2.40
  -4   2 -10   12.00    2.80
  -4   2 -10   17.70    3.50
   2   4 -10   15.30    2.90
  -2  -4 -10   16.20    2.40
   2   4 -10   12.70    2.50
  -4   2 -10   12.10    2.80
   4  -2 -10   16.70    3.00
   2   4 -10   10.80    4.10
   2   4 -10   10.90    3.30
  -4   2 -10   19.60    2.80
  -2  -4  10   24.70    2.90
  -4   2  10   17.70    3.00
  -2  -4  10   12.00    2.60
  -2  -4  10   12.90    2.60
  -4   3 -10   72.89    6.40
   3   4 -10   65.69    9.30
  -4   3 -10   63.89    7.00
   4  -3 -10   66.59    6.40
   3   4 -10   70.19    6.50
  -4   3 -10   65.19    7.00
   3   4 -10   64.79    7.70
  -3  -4 -10   69.19    5.70
  -3  -4 -10   67.79    6.40
  -4   3 -10   63.59    6.60
   4  -3 -10   54.49   12.10
  -3  -4  10   74.79    6.50
  -3  -4  10   66.09    6.60
  -4   3  10   63.49    6.40
  -3  -4  10   68.59    6.70
   4   4 -10   27.80    6.80
   4   4 -10   34.70    4.00
   4  -4 -10   33.00    8.80
   4  -4 -10   31.90    3.90
   4   4 -10   26.70    3.80
  -4   4 -10   30.70    5.00
  -4  -4 -10   32.10    3.10
  -4   4 -10   31.30    4.10
   4   4 -10   25.20    5.00
  -4   4 -10   33.00    4.00
  -4   4 -10   38.00    5.00
  -4   4 -10   39.70    5.70
  -4  -4 -10   32.70    4.10
  -4  -4  10   32.40    4.00
  -4  -4  10   30.30    4.40
  -4   4  10   29.60    3.90
  -4  -4  10   37.40    4.40
   5   4 -10  466.55   39.70
   5   4 -10  486.25   36.50
  -4   5 -10  523.65   38.20
  -4   5 -10  539.55   38.50
   5   4 -10  475.55   36.40
   4  -5 -10  461.55   42.10
   4  -5 -10  487.55   36.50
  -5  -4 -10  550.24   36.90
  -4   5 -10  435.26   36.50
  -5  -4 -10  515.35   35.60
  -4   5 -10  444.66   37.30
   5   4 -10  468.85   38.20
  -5  -4  10  456.75   36.60
  -5  -4  10  509.75   37.40
  -5  -4  10  520.75   36.80
  -4   5  10  481.05   36.80
  -3   5 -10   26.10    3.70
   5   3 -10   30.90    3.80
   5   3 -10   28.20    3.80
   5   3 -10   27.30    6.40
  -3   5 -10   33.50    5.20
  -3   5 -10   40.70    6.70
  -5  -3 -10   30.70    3.10
   3  -5 -10   39.90    9.30
  -5  -3 -10   34.80    4.30
  -3   5 -10   33.60    5.60
   3  -5 -10   29.90    3.90
  -5  -3  10   26.70    4.20
  -5  -3  10   30.20    4.00
  -5  -3  10   30.90    4.70
  -3   5  10   35.30    4.00
   5   2 -10  192.48   15.50
  -2   5 -10  177.48   15.60
   2  -5 -10  199.98   15.70
   2  -5 -10  212.08   20.50
  -2   5 -10  207.58   18.10
  -5  -2 -10  214.08   15.20
  -2   5 -10  222.48   17.60
  -2   5 -10  195.28   16.50
   5   2 -10  186.58   15.70
  -5  -2 -10  214.78   16.30
   5   2 -10  183.68   18.10
   2  -5  10  174.58   15.60
  -2   5  10  200.48   15.80
  -5  -2  10  200.38   16.00
  -5  -2  10  208.38   16.60
  -5  -2  10  219.38   16.80
  -5  -1 -10 1446.46   97.99
   5   1 -10 1341.57   98.39
  -1   5 -10 1305.67   98.29
   5   1 -10 1259.07  100.09
  -5  -1 -10 1417.36   98.99
  -1   5 -10 1264.27   98.89
  -1   5 -10 1472.45  100.29
   1  -5 -10 1476.25  103.09
   1  -5 -10 1423.06   98.29
   5   1 -10 1378.86   98.09
  -1   5 -10 1318.67  100.59
  -1   5  10 1369.56   98.39
   1  -5  10 1255.47   98.29
  -5  -1  10 1298.27   99.09
  -5  -1  10 1391.26   98.69
  -5   0 -10    4.50    2.10
   0   5 -10   -0.90    1.20
  -5   0 -10    1.40    1.10
   0   5 -10   14.10    3.50
   5   0 -10    1.60    1.40
   0   5 -10    0.50    1.10
   5   0 -10    0.80    2.20
  -5   0 -10    1.50    1.00
   0  -5 -10    2.00    3.20
   0   5 -10    0.40    3.00
   5   0 -10    4.40    1.40
   0  -5 -10    1.40    1.40
   0  -5  10    6.80    1.80
   0  -5  10    5.10    1.80
   0   5  10    1.20    1.40
   0  -5  10    3.30    1.90
  -5   0  10    2.50    1.60
   1   5 -10 1427.96  103.69
  -1  -5 -10 1502.55  105.59
   1   5 -10 1345.87  102.19
   5  -1 -10 1506.45  102.59
  -5   1 -10 1434.76  102.69
   5  -1 -10 1338.87  101.99
  -5   1 -10 1321.77  101.69
  -1  -5 -10 1461.35  101.79
   1   5 -10 1348.07  101.79
  -5   1 -10 1454.05  101.79
   1   5 -10 1340.97  104.49
  -1  -5  10 1578.64  101.99
  -5   1  10 1399.16  102.29
  -1  -5  10 1402.16  101.89
   1   5  10 1351.46  101.89
  -1  -5  10 1350.46  101.99
   5  -2 -10  191.08   15.80
  -5   2 -10  189.38   16.50
   2   5 -10  194.88   18.80
   2   5 -10  205.08   16.10
  -5   2 -10  172.68   15.80
  -5   2 -10  191.68   16.20
  -2  -5 -10  229.88   19.10
  -2  -5 -10  218.78   15.70
   2   5 -10  215.58   17.60
   2   5 -10  195.18   15.70
   5  -2 -10  208.88   15.70
  -5   2 -10  207.18   15.70
  -2  -5  10  214.58   15.80
  -2  -5  10  191.68   15.90
   2   5  10  186.08   15.70
  -2  -5  10  194.68   15.80
  -5   2  10  195.28   16.00
   5  -3 -10   20.50    8.10
   5  -3 -10   29.00    4.00
  -3  -5 -10   38.50    4.10
  -3  -5 -10   51.89    7.90
  -5   3 -10   34.70    4.30
   3   5 -10   27.20    4.00
  -5   3 -10   34.30    4.30
   5  -3 -10   34.60    3.30
   3   5 -10   27.70    7.10
  -5   3 -10   33.80    4.10
  -5   3 -10   40.20    5.10
   3   5 -10   26.10    5.10
  -5   3 -10   23.50    4.30
   3   5 -10   30.80    3.90
  -3  -5  10   30.50    4.30
  -3  -5  10   39.40    4.10
  -3  -5  10   39.50    4.50
  -5   3  10   27.50    4.00
  -5   4 -10  522.15   36.70
  -4  -5 -10  517.65   36.40
   4   5 -10  532.05   40.30
   4   5 -10  467.45   36.50
  -4  -5 -10  550.64   35.60
  -5   4 -10  447.36   36.60
   4   5 -10  464.75   36.30
   4   5 -10  477.25   38.10
   5  -4 -10  457.85   36.40
   5  -4 -10  422.06   42.10
  -5   4 -10  454.15   37.20
  -4  -5  10  525.65   36.60
  -4  -5  10  468.95   36.40
  -5   4  10  492.05   36.80
  -4  -5  10  481.05   36.90
   5   5 -10  120.99   10.30
  -5  -5 -10  126.39    9.10
  -5   5 -10  142.49   12.10
  -5   5 -10  123.49   11.50
   5  -5 -10  107.29   17.70
   5   5 -10  110.99   11.70
   5  -5 -10  109.09   10.10
   5   5 -10  110.79   10.00
  -5   5 -10  141.49   10.80
   5   5 -10  126.09   14.30
  -5   5 -10   99.79   10.10
  -5  -5  10  111.19   10.30
  -5  -5  10  122.99   10.40
  -5  -5  10  109.39   10.70
  -5   5  10  102.79   10.20
   6   5 -10  200.38   19.40
  -5   6 -10  239.98   19.70
   6   5 -10  224.68   18.00
   6   5 -10  225.18   17.90
   5  -6 -10  215.78   17.20
   5  -6 -10  228.28   18.00
  -6  -5 -10  242.38   16.70
  -5   6 -10  195.78   17.90
   6   5 -10  242.28   22.20
   5  -6 -10  212.88   23.80
  -6  -5  10  217.98   18.70
  -6  -5  10  221.58   18.10
  -6  -5  10  250.97   18.50
  -5   6  10  229.38   18.30
   4  -6 -10   54.79   11.30
   6   4 -10   53.09    5.70
  -4   6 -10   45.00    5.50
  -4   6 -10   62.79    7.50
  -6  -4 -10   52.19    4.60
  -6  -4 -10   54.09    6.10
   6   4 -10   69.89    6.00
   6   4 -10   44.30    8.80
   4  -6 -10   53.19    5.60
  -4   6  10   53.69    5.80
  -6  -4  10   51.09    6.20
  -6  -4  10   52.39    6.50
  -6  -4  10   57.49    6.00
   6   3 -10  546.65   41.70
   3  -6 -10  533.25   46.60
  -6  -3 -10  576.44   41.00
  -3   6 -10  625.64   44.00
  -3   6 -10  524.85   41.80
   3  -6 -10  577.54   41.80
   6   3 -10  594.54   45.30
   6   3 -10  541.15   41.80
  -6  -3 -10  617.44   42.50
  -3   6 -10  551.34   42.90
  -6  -3  10  580.14   42.20
  -3   6  10  546.75   41.90
  -6  -3  10  567.24   42.90
   3  -6  10  514.25   41.70
  -6  -3  10  568.84   42.20
   6   2 -10  154.18   12.50
   6   2 -10  161.68   15.70
   6   2 -10  143.49   12.60
  -2   6 -10  145.29   12.60
   2  -6 -10  174.18   17.40
  -2   6 -10  158.38   15.80
  -2   6 -10  140.89   13.50
  -6  -2 -10  169.58   12.10
  -2   6 -10  157.88   14.50
  -6  -2 -10  166.68   13.40
  -6  -2  10  153.38   13.70
  -6  -2  10  162.88   13.10
  -6  -2  10  150.38   13.00
  -2   6  10  147.39   12.60
   2  -6  10  145.29   12.60
   6   1 -10  880.31   65.99
   6   1 -10  951.40   68.59
  -6  -1 -10  941.61   67.09
  -1   6 -10  846.42   66.19
   1  -6 -10  967.90   70.69
   6   1 -10  808.92   66.19
  -6  -1 -10  955.50   65.89
   1  -6 -10  956.10   66.19
  -1   6 -10  803.62   66.89
  -1   6 -10  916.51   68.09
  -1   6 -10  993.50   69.79
  -1   6  10  896.71   66.29
  -6  -1  10  907.01   66.69
   1  -6  10  989.90   66.29
   1  -6  10  921.91   66.19
  -6  -1  10  863.11   67.29
   1  -6  10  861.71   66.29
  -6   0 -10  847.52   61.79
   0   6 -10  802.02   60.89
   0   6 -10  845.22   64.29
  -6   0 -10  852.41   60.79
   0  -6 -10  872.51   64.89
   6   0 -10  886.11   62.79
   0   6 -10  864.01   62.89
   0  -6 -10  866.01   60.79
   0   6 -10  754.72   61.49
   6   0 -10  774.92   60.99
   0  -6  10  909.11   60.99
   0  -6  10  834.72   60.99
   0   6  10  790.92   60.89
   0  -6  10  779.82   60.99
  -6   0  10  847.02   61.49
   1   6 -10  945.31   70.69
   1   6 -10  928.91   68.99
  -1  -6 -10  939.91   66.89
  -6   1 -10  898.71   67.89
   6  -1 -10  896.71   67.19
  -1  -6 -10 1044.90   71.09
   6  -1 -10 1023.50   68.19
  -6   1 -10  874.81   66.69
  -6   1 -10  944.11   66.99
   1   6 -10  875.51   66.99
   1   6 -10  846.12   67.49
  -6   1  10  889.41   67.49
  -1  -6  10  929.21   67.09
   1   6  10  916.51   67.09
  -1  -6  10  882.41   67.29
   6  -2 -10  174.78   13.40
   2   6 -10  162.48   13.00
   2   6 -10  158.38   13.50
   2   6 -10  163.38   14.80
  -6   2 -10  172.78   13.10
   2   6 -10  167.68   16.90
  -2  -6 -10  156.08   15.80
  -6   2 -10  137.49   12.90
  -2  -6 -10  158.38   12.80
   6  -2 -10  155.58   13.10
  -2  -6  10  165.48   13.20
  -6   2  10  154.98   13.40
  -2  -6  10  156.08   13.30
   2   6  10  158.08   13.00
   3   6 -10  558.74   44.80
   6  -3 -10  493.25   49.40
  -3  -6 -10  636.74   46.10
   3   6 -10  579.14   43.40
   3   6 -10  595.24   46.90
  -6   3 -10  540.55   43.40
   6  -3 -10  617.14   42.60
   6  -3 -10  555.74   43.20
  -3  -6 -10  607.64   43.00
   3   6 -10  569.04   43.00
  -6   3 -10  638.34   43.40
  -6   3 -10  543.45   43.60
  -6   3  10  572.04   43.60
  -3  -6  10  612.44   43.20
  -3  -6  10  560.54   43.40
   6  -4 -10   43.00   10.90
  -6   4 -10   47.90    5.90
  -6   4 -10   59.29    6.00
   4   6 -10   55.69    5.60
   4   6 -10   51.99    7.10
   6  -4 -10   53.49    4.40
   4   6 -10   69.69   11.20
  -6   4 -10   50.79    6.30
  -6   4 -10   74.39    6.80
   4   6 -10   52.29    5.90
   6  -4 -10   44.10    5.50
  -4  -6  10   50.39    6.00
  -6   4  10   53.59    6.00
  -4  -6  10   54.19    6.00
   5   6 -10  221.48   19.70
  -6   5 -10  212.08   18.20
  -6   5 -10  208.68   18.90
   6  -5 -10  190.18   23.90
   6  -5 -10  220.88   18.00
   5   6 -10  217.88   17.80
  -6   5 -10  256.77   18.60
   5   6 -10  247.68   22.40
  -5  -6  10  232.38   18.20
  -5  -6  10  224.18   18.60
  -6   5  10  235.28   18.50
   6  -6 -10  119.49   10.60
   6  -6 -10  115.99   10.10
   6  -6 -10  112.79   18.90
   6   6 -10  166.48   16.30
  -6   6 -10  133.79   12.20
   6   6 -10  118.19   12.20
   6   6 -10  114.99   10.40
  -6   6 -10  104.79   10.70
  -6   6  10  130.29   11.20
  -6  -6  10  118.39   10.80
  -6  -6  10  115.69   11.30
   6  -7 -10   84.59    8.40
   7   6 -10   87.79    8.60
   7   6 -10  115.59   14.00
   6  -7 -10   98.59    7.70
  -6   7 -10   71.59    8.40
  -6   7 -10   91.39   10.20
   6  -7 -10   93.79   16.60
  -7  -6  10  101.29    9.80
  -6   7  10   96.49    9.20
  -7  -6  10   91.89    9.10
   7   5 -10   22.10    3.70
   5  -7 -10   20.50    3.60
  -7  -5 -10   21.40    2.20
   5  -7 -10   18.40    7.70
  -5   7 -10   21.80    5.00
   7   5 -10   24.50    7.20
  -5   7 -10   17.00    3.60
  -7  -5  10   23.40    4.70
   5  -7  10   21.80    3.90
  -5   7  10   20.70    4.00
  -7  -5  10   26.70    4.50
  -7  -5  10   22.40    4.20
  -4   7 -10   61.69    7.90
   4  -7 -10   55.99    5.80
  -4   7 -10   49.90    5.70
   7   4 -10   61.29   10.50
  -7  -4 -10   53.79    4.70
   7   4 -10   53.59    5.70
   7   4 -10   56.69    6.00
   4  -7 -10   58.59   12.10
  -7  -4  10   57.39    6.40
  -4   7  10   52.59    6.00
   4  -7  10   53.39    5.90
  -7  -4  10   50.29    6.70
  -7  -4  10   55.99    6.40
  -7  -3 -10  108.99    8.60
   3  -7 -10  107.39    9.40
  -3   7 -10   95.69    9.30
   7   3 -10  119.39   13.40
  -3   7 -10  129.39   11.90
   7   3 -10  105.99    9.50
   3  -7 -10  102.29   13.80
   7   3 -10  107.79    9.50
   3  -7  10  105.89    9.60
  -3   7  10  104.89    9.60
  -7  -3  10  112.79   10.00
  -7  -3  10  102.19    9.90
   3  -7  10  102.99    9.50
  -7  -3  10  110.99   10.70
  -2   7 -10  518.05   35.60
   2  -7 -10  429.76   37.50
  -7  -2 -10  444.86   32.40
  -2   7 -10  433.76   34.20
   7   2 -10  446.06   36.00
   7   2 -10  435.86   33.10
   7   2 -10  433.96   32.90
  -2   7 -10  396.86   32.90
   2  -7 -10  462.15   32.90
  -7  -2  10  455.35   33.60
   2  -7  10  402.66   33.00
   2  -7  10  447.86   33.00
  -7  -2  10  429.56   34.30
  -2   7  10  413.76   32.90
  -7  -2  10  446.96   33.40
  -7  -1 -10    2.10    1.30
   7   1 -10    0.70    3.20
  -1   7 -10    2.40    2.50
  -1   7 -10   -2.40    3.70
  -1   7 -10    2.70    1.70
   7   1 -10    1.20    1.70
  -1   7 -10    2.70    2.10
   1  -7 -10    1.90    3.60
   1  -7 -10    1.10    1.40
   7   1 -10    2.20    1.50
  -1   7  10    3.90    1.80
  -7  -1  10    1.10    1.70
  -7  -1  10    2.70    2.10
  -7  -1  10    0.40    2.00
   1  -7  10    7.90    2.10
   1  -7  10    2.30    2.10
   0   7 -10    2.40    2.60
   7   0 -10    1.50    1.60
   0  -7 -10    4.30    3.60
   0   7 -10   -1.00    3.90
   0  -7 -10    1.90    1.50
   7   0 -10    1.20    2.90
  -7   0 -10    2.00    1.30
   0   7 -10    2.40    1.50
   0   7 -10    0.80    1.90
  -7   0  10    1.20    1.80
   0  -7  10    4.80    1.90
  -7   0  10    1.20    2.00
   0   7  10   -0.50    1.20
   0  -7  10    1.00    1.90
  -1  -7 -10    1.60    1.40
   7  -1 -10    3.70    2.80
   7  -1 -10    1.20    1.50
   1   7 -10   -0.20    2.20
   1   7 -10    1.40    4.20
   1   7 -10    3.10    2.20
  -1  -7 -10    1.40    3.20
  -7   1 -10    8.00    2.00
  -7   1 -10    8.60    1.80
  -7   1  10    0.70    1.80
  -1  -7  10   -0.20    1.30
   1   7  10    2.50    1.60
  -1  -7  10    6.20    2.30
  -7   2 -10  494.65   34.00
   7  -2 -10  472.85   34.30
   2   7 -10  480.95   38.30
   7  -2 -10  404.96   33.90
   2   7 -10  439.16   33.80
   2   7 -10  446.86   34.50
  -7   2 -10  447.16   33.70
  -2  -7 -10  495.45   37.20
   2   7 -10  410.16   35.40
  -2  -7  10  438.96   34.10
  -2  -7  10  454.05   33.90
  -7   2  10  439.56   34.50
   2   7  10  449.36   33.80
   7  -3 -10   80.39   16.50
  -7   3 -10  105.79    9.80
   3   7 -10  110.09   11.30
   7  -3 -10  109.39    9.40
  -3  -7 -10  125.89   12.70
  -7   3 -10  123.29    9.90
   3   7 -10  102.99    9.50
   3   7 -10  119.89   14.20
   3   7 -10  105.69   10.10
   7  -3 -10  104.49    9.70
   3   7  10  106.39    9.50
  -3  -7  10  108.39    9.80
  -3  -7  10  103.59    9.90
  -7   3  10  105.89   10.20
  -7   4 -10   59.29    6.50
   4   7 -10   50.19    7.20
   4   7 -10   49.30    5.60
  -7   4 -10   59.79    6.20
   7  -4 -10   55.29    5.00
   4   7 -10   59.99   10.60
   7  -4 -10   55.69    5.90
   7  -4 -10   39.30   11.30
  -4  -7  10   53.59    6.20
  -4  -7  10   49.60    6.10
  -7   4  10   52.19    6.30
   7  -5 -10   20.40    9.40
  -7   5 -10   24.40    4.40
   5   7 -10   20.60    5.10
   7  -5 -10   28.50    4.30
   5   7 -10   22.20    3.80
   5   7 -10   24.60    7.50
  -7   5 -10   21.40    4.40
  -7   5 -10   28.20    4.90
  -5  -7  10   19.00    3.80
  -5  -7  10   20.60    4.10
  -7   5  10   25.50    4.60
   7  -6 -10   95.09    8.80
   6   7 -10   92.19   10.40
   6   7 -10  115.09   14.10
  -7   6 -10   81.09    8.80
   7  -6 -10   76.09    8.10
   6   7 -10   95.69    8.70
   7  -6 -10   83.69   16.90
  -7   6 -10   95.99    9.80
  -7   6  10   90.49    9.20
  -6  -7  10   91.19    8.90
  -6  -7  10  101.79    9.60
   7   7 -10  471.75   36.70
  -7   7 -10  369.26   31.40
   7   7 -10  403.96   31.20
   7  -7 -10  416.16   30.50
   7  -7 -10  400.56   31.20
   7  -7 -10  352.26   38.00
   7   7 -10  396.16   33.10
  -7   7 -10  427.86   32.90
  -7  -7  10  413.16   31.30
  -7   7  10  432.46   32.20
  -7  -7  10  387.26   32.10
   7  -8 -10    3.50    5.90
   8   7 -10    4.20    4.90
   7  -8 -10    0.90    2.00
  -7   8 -10    0.30    2.60
   8   7 -10    4.90    2.40
  -7   8  10    2.30    2.50
  -8  -7  10    1.20    2.40
  -8  -7  10    2.30    2.70
  -6   8 -10  213.08   19.10
   8   6 -10  266.57   24.10
   6  -8 -10  237.98   18.90
  -6   8 -10  279.17   21.60
   8   6 -10  226.98   19.00
   6  -8 -10  201.88   24.90
  -6   8  10  244.38   19.70
   6  -8  10  237.48   19.10
  -8  -6  10  234.68   20.20
  -8  -6  10  222.68   19.20
  -5   8 -10   67.89    7.70
  -8  -5 -10   75.89    6.30
  -5   8 -10   96.69   10.30
   8   5 -10   80.29   12.10
   8   5 -10   77.09    7.90
   5  -8 -10   74.49   15.20
   5  -8 -10   82.79    7.80
  -8  -5  10   80.59    8.50
  -5   8  10   80.89    8.20
  -8  -5  10   84.49    9.20
   5  -8  10   82.59    8.60
   5  -8  10   85.79    8.10
  -8  -5  10   85.89    8.90
  -8  -4 -10  130.69   10.20
   8   4 -10  135.09   11.60
   4  -8 -10  136.39   11.40
   4  -8 -10  120.09   16.30
  -4   8 -10  146.29   13.90
   8   4 -10  128.09   15.30
   8   4 -10  129.89   11.50
  -4   8 -10  117.09   11.40
  -8  -4  10  141.79   13.00
  -4   8  10  131.09   11.70
   4  -8  10  125.39   11.50
  -8  -4  10  138.39   12.10
   4  -8  10  137.69   11.80
  -8  -4  10  139.49   12.30
  -3   8 -10  135.09   12.50
   3  -8 -10  154.58   12.50
  -8  -3 -10  150.98   11.70
   3  -8 -10  138.19   17.10
   8   3 -10  151.08   12.70
   8   3 -10  189.58   17.30
   8   3 -10  149.29   12.80
  -3   8 -10  154.68   14.90
  -8  -3  10  158.38   13.50
  -3   8  10  146.79   12.70
   3  -8  10  142.29   12.70
  -8  -3  10  140.69   13.10
   3  -8  10  161.88   12.90
  -8  -3  10  139.39   13.90
   8   2 -10   69.39    7.00
   2  -8 -10   73.79   12.00
   2  -8 -10   73.39    6.70
   8   2 -10   77.69   10.50
  -8  -2 -10   71.29    6.20
  -2   8 -10   60.09    6.70
  -2   8 -10   81.59    9.30
   8   2 -10   61.69    6.60
   2  -8  10   67.19    6.90
  -8  -2  10   64.59    7.50
  -8  -2  10   58.99    7.80
  -8  -2  10   77.49    7.70
   2  -8  10   65.19    7.10
  -2   8  10   69.69    6.80
   8   1 -10  152.78   14.10
  -1   8 -10  119.99   11.80
  -1   8 -10  111.99   10.40
   1  -8 -10  120.19   14.20
   1  -8 -10  122.99   10.30
  -8  -1 -10  131.39   10.20
   8   1 -10  117.89   10.70
   8   1 -10  122.29   10.50
  -1   8 -10  110.79   12.40
  -1   8  10  123.19   10.50
   1  -8  10  122.79   10.80
   1  -8  10  109.19   10.60
  -8  -1  10  123.39   11.40
  -8  -1  10  112.49   11.90
  -8  -1  10  137.99   11.50
   0  -8 -10   26.00    6.60
   0   8 -10   31.10    8.70
   0   8 -10   32.60    5.60
   0   8 -10   25.90    3.70
  -8   0 -10   27.90    3.60
   8   0 -10   27.60    4.30
   8   0 -10   27.30    5.90
   0   8  10   24.20    3.70
   0  -8  10   25.00    4.20
  -8   0  10   29.70    4.90
  -8   0  10   35.70    6.30
   0  -8  10   26.60    4.10
   1   8 -10  130.79   11.10
  -1  -8 -10  128.29   14.10
   1   8 -10  134.39   13.10
   8  -1 -10  123.79   11.20
   1   8 -10  117.89   12.00
   8  -1 -10  142.49   12.70
  -8   1 -10  132.69   10.90
   1   8 -10  138.19   16.30
   1   8  10  120.89   10.80
  -1  -8  10  132.09   11.30
  -8   1  10  131.79   11.90
  -1  -8  10  117.09   11.10
   2   8 -10   90.69   13.80
   8  -2 -10   59.89    7.10
  -8   2 -10   80.69    7.20
  -2  -8 -10   76.89    9.90
   2   8 -10   75.69    7.10
   8  -2 -10   80.09    8.10
   2   8 -10   71.79    8.70
  -8   2 -10   66.39    6.60
  -2  -8  10   72.89    7.50
   2   8  10   61.59    6.70
  -2  -8  10   66.99    7.20
  -8   2  10   73.69    7.80
  -8   3 -10  157.68   13.00
  -8   3 -10  170.08   13.30
   3   8 -10  146.79   14.70
   8  -3 -10  135.59   13.00
  -3  -8 -10  164.28   15.80
   3   8 -10  163.38   18.10
   3   8 -10  147.89   12.90
   8  -3 -10  167.48   13.10
  -8   3  10  145.59   13.70
  -3  -8  10  153.98   13.20
   3   8  10  155.08   12.90
  -3  -8  10  150.28   13.40
  -8   4 -10  154.88   12.00
   4   8 -10  142.19   16.50
   8  -4 -10  136.19   21.60
   8  -4 -10  118.59   11.40
   4   8 -10  125.29   11.30
   4   8 -10  124.99   13.10
  -8   4 -10  128.99   11.70
   8  -4 -10  138.99   10.70
  -8   4  10  124.09   12.10
  -4  -8  10  135.89   11.70
  -4  -8  10  117.89   11.70
   5   8 -10   74.79    7.60
   8  -5 -10   73.19    7.80
   8  -5 -10   74.99   16.40
   5   8 -10   89.09   13.10
   5   8 -10   78.49    9.40
   8  -5 -10   79.09    6.20
  -8   5 -10   70.49    8.10
  -8   5  10   84.39    8.70
  -5  -8  10   79.99    8.10
  -5  -8  10   70.89    8.10
   8  -6 -10  215.38   18.70
   8  -6 -10  192.68   18.30
  -8   6 -10  258.47   19.90
   6   8 -10  242.48   20.70
   6   8 -10  292.57   24.70
   8  -6 -10  248.58   27.40
   6   8 -10  228.78   18.50
  -6  -8  10  217.08   19.30
  -6  -8  10  231.68   18.70
  -8   6  10  230.08   19.60
   8  -7 -10    1.50    5.70
   7   8 -10    6.50    2.50
  -8   7 -10    1.70    2.50
   7   8 -10    2.20    2.90
   7   8 -10    3.20    5.40
   8  -7 -10    1.00    2.10
   8  -7 -10    2.10    1.60
  -7  -8  10    2.30    2.50
  -8   7  10    8.30    3.30
  -7  -8  10    3.00    2.50
  -8   8 -10  142.49   14.30
   8  -8 -10  148.99   12.00
   8  -8 -10  163.08   25.60
   8  -8 -10  140.59   13.00
   8   8 -10  156.08   13.10
  -8   8  10  150.78   14.10
  -8  -8  10  141.09   13.20
  -8  -8  10  145.39   14.10
  -8   9 -10   35.00    6.80
   8  -9 -10   33.20   11.10
   9   8 -10   35.60    5.70
   8  -9 -10   37.20    5.50
  -9  -8  10   35.60    6.70
  -8   9  10   40.60    6.90
  -9  -8  10   33.70    5.60
   9   7 -10  187.28   16.20
   9   7 -10  233.88   22.80
  -7   9 -10  169.58   16.30
   7  -9 -10  188.48   16.00
   7  -9 -10  172.58   22.90
  -7   9 -10  202.38   18.30
  -9  -7  10  182.88   16.50
   7  -9  10  208.88   16.60
  -7   9  10  198.78   17.20
  -9  -7  10  200.38   17.80
   9   6 -10  749.62   56.39
  -6   9 -10  715.93   53.79
   6  -9 -10  565.84   57.29
  -6   9 -10  616.94   51.39
   6  -9 -10  685.43   51.09
   9   6 -10  670.53   51.39
  -6   9  10  709.53   52.09
  -9  -6  10  679.03   51.59
  -9  -6  10  670.33   52.89
   6  -9  10  792.32   51.89
  -5   9 -10  102.09   10.60
   9   5 -10  114.19   10.70
  -9  -5 -10  116.89    8.90
   9   5 -10  139.59   15.80
   5  -9 -10  116.89   10.40
  -5   9 -10  133.29   13.30
   5  -9 -10   80.89   15.70
   5  -9  10  133.79   11.10
  -9  -5  10  122.49   11.40
  -9  -5  10  112.49   12.00
   5  -9  10  107.29   10.60
  -5   9  10  116.99   11.00
  -4   9 -10  335.97   27.70
   9   4 -10  306.37   25.10
  -4   9 -10  281.97   24.90
  -9  -4 -10  309.97   23.70
   4  -9 -10  329.67   24.80
   4  -9 -10  280.67   29.80
   9   4 -10  382.86   30.00
  -9  -4  10  320.07   25.60
  -4   9  10  311.77   25.30
   4  -9  10  330.27   25.30
  -9  -4  10  335.67   26.30
   4  -9  10  343.57   25.20
  -9  -4  10  325.17   26.90
  -9  -3 -10  910.31   68.19
  -3   9 -10  830.72   69.09
   9   3 -10 1056.29   73.49
   3  -9 -10  979.10   68.99
   9   3 -10  931.21   69.49
  -3   9 -10 1033.40   72.29
   9   3 -10  904.71   69.29
   3  -9 -10  883.41   74.29
  -9  -3  10  918.01   71.09
  -9  -3  10  909.31   69.69
  -9  -3  10  960.20   70.39
   3  -9  10  968.00   69.49
   3  -9  10 1001.80   69.29
  -9  -2 -10  264.67   20.40
   9   2 -10  257.67   21.10
  -2   9 -10  289.67   23.90
   2  -9 -10  277.97   25.90
   9   2 -10  308.17   25.20
   9   2 -10  260.67   21.30
  -2   9 -10  259.37   21.10
   2  -9  10  250.07   21.20
  -9  -2  10  275.97   22.20
  -9  -2  10  263.87   21.90
   2  -9  10  284.47   21.30
  -9  -2  10  249.97   22.90
  -1   9 -10    4.50    2.10
   1  -9 -10    1.10    3.70
   9   1 -10    5.70    2.40
   9   1 -10    6.60    4.40
  -1   9 -10    1.80    2.90
   9   1 -10    1.60    1.90
  -9  -1 -10    5.80    1.80
   1  -9  10    3.70    2.10
  -9  -1  10    1.80    2.50
   1  -9  10    3.50    2.50
  -9  -1  10    1.20    2.60
  -9  -1  10   17.40    4.00
   0   9 -10   -1.60    5.60
   0   9 -10    1.90    2.70
   0   9 -10    1.20    1.60
   9   0 -10    1.20    3.40
  -9   0 -10    1.20    1.40
   0  -9 -10   -0.70    3.10
   9   0 -10    4.00    2.30
  -9   0  10    3.60    2.40
  -9   0  10    4.10    3.00
  -9   0  10    1.10    2.50
   0  -9  10    6.20    2.60
   0  -9  10    0.50    1.70
   9  -1 -10    6.60    3.50
   1   9 -10   -0.40    5.10
   1   9 -10    2.60    1.90
   9  -1 -10    2.30    1.80
  -1  -9 -10    0.70    3.20
  -9   1 -10    3.10    1.70
   1   9 -10    5.70    3.50
  -1  -9  10    1.00    2.30
  -9   1  10    3.00    2.50
  -9   1  10    3.00    2.70
  -9   2 -10  292.57   21.60
  -2  -9 -10  293.37   24.90
   2   9 -10  271.97   23.60
   2   9 -10  293.87   27.20
   2   9 -10  260.97   21.40
   9  -2 -10  296.57   22.60
   9  -2 -10  228.78   21.50
  -9   2 -10  287.87   21.00
  -9   2  10  244.08   22.30
  -2  -9  10  274.17   21.60
  -2  -9  10  280.47   22.00
   9  -3 -10  856.81   70.79
   9  -3 -10 1035.60   70.89
   3   9 -10 1063.19   76.39
  -9   3 -10 1005.50   70.59
   3   9 -10  907.81   72.69
  -3  -9 -10 1048.90   73.99
   3   9 -10  944.61   70.59
  -9   3 -10  984.10   70.89
  -3  -9  10  934.51   71.19
  -3  -9  10  946.51   70.69
  -9   3  10  903.61   71.69
  -9   4 -10  358.56   25.80
  -9   4 -10  344.27   25.70
   9  -4 -10  294.47   25.50
   9  -4 -10  362.76   35.00
   4   9 -10  345.17   30.90
   4   9 -10  303.37   25.20
   4   9 -10  315.07   27.40
   9  -4 -10  346.37   24.90
  -4  -9  10  324.17   25.40
  -9   4  10  311.27   26.50
  -4  -9  10  310.17   25.90
   5   9 -10  116.59   10.70
   5   9 -10  100.59   12.30
   9  -5 -10  123.09    9.70
   9  -5 -10  117.59   11.20
  -9   5 -10  143.39   11.70
   9  -5 -10  107.79   19.60
   5   9 -10  139.19   16.80
  -5  -9  10  121.39   11.20
  -9   5  10  118.19   12.00
  -5  -9  10  122.99   11.60
   6   9 -10  693.83   51.09
   9  -6 -10  590.94   51.09
   9  -6 -10  614.84   51.19
  -9   6 -10  790.52   52.29
   6   9 -10  677.23   53.29
   9  -6 -10  665.23   60.19
  -9   6  10  719.03   52.69
  -6  -9  10  705.03   52.09
  -6  -9  10  710.33   51.19
   9  -7 -10  189.68   24.70
  -9   7 -10  196.28   17.50
   9  -7 -10  178.48   16.60
   7   9 -10  200.68   16.60
   9  -7 -10  211.88   16.50
  -7  -9  10  206.18   16.70
  -9   7  10  199.48   17.90
  -7  -9  10  192.08   17.50
   9  -8 -10   30.60    4.30
   8   9 -10   33.80    5.00
  -9   8 -10   42.00    6.90
   9  -8 -10   35.80   11.80
   9  -8 -10   29.80    5.40
  -8  -9  10   43.50    6.10
  -9   8  10   46.60    7.50
  -8  -9  10   38.80    6.60
  -9   9 -10    4.90    3.40
   9  -9 -10    2.80    6.70
   9  -9 -10    2.80    2.60
   9   9 -10   11.30    3.40
  -9  -9  10    4.80    3.20
  -9   9  10    3.10    3.10
  -9  -9  10    8.10    3.30
  -8  10 -10   50.69    8.50
   8 -10 -10   42.30    6.40
   8 -10 -10   49.50   13.70
  10   8 -10   47.50    6.50
 -10  -8  10   45.40    6.90
   8 -10  10   55.89    6.80
   8 -10  10   54.29    7.50
 -10  -8  10   49.30    8.00
   7 -10 -10  204.58   26.90
  10   7 -10  237.58   20.80
   7 -10 -10  232.78   20.20
  -7  10 -10  225.48   20.70
  -7  10 -10  279.67   23.30
   7 -10  10  300.97   21.10
 -10  -7  10  240.08   22.10
   7 -10  10  281.37   21.10
 -10  -7  10  256.47   21.10
   6 -10 -10  315.97   35.80
  10   6 -10  409.56   34.80
  10   6 -10  358.56   29.90
  -6  10 -10  336.77   29.80
  -6  10 -10  392.96   32.50
   6 -10 -10  369.56   29.50
   6 -10  10  446.76   30.10
   6 -10  10  434.06   30.40
 -10  -6  10  391.56   31.80
 -10  -6  10  367.36   30.20
   5 -10 -10    2.20    2.00
  -5  10 -10    1.50    3.50
 -10  -5 -10    2.20    0.90
   5 -10 -10    0.40    5.20
  10   5 -10    7.80    2.80
  10   5 -10    4.40    5.10
  -5  10 -10    1.00    1.90
 -10  -5  10    4.20    3.20
   5 -10  10    3.90    2.50
 -10  -5  10    9.30    3.60
   5 -10  10    1.70    2.70
  10   4 -10   73.99   11.70
 -10  -4 -10   45.30    4.60
  -4  10 -10   46.50    5.90
   4 -10 -10   44.70   11.10
  10   4 -10   50.79    6.30
  -4  10 -10   56.69    9.30
   4 -10  10   51.09    6.70
   4 -10  10   57.49    6.40
 -10  -4  10   51.69    8.50
 -10  -4  10   60.69    7.50
 -10  -4  10   53.19    7.20
  10   3 -10   69.79   11.60
  -3  10 -10   58.09    9.60
  10   3 -10   54.29    6.40
   3 -10 -10   65.19   12.10
 -10  -3 -10   55.69    5.10
  -3  10 -10   51.19    6.00
   3 -10  10   47.90    6.70
 -10  -3  10   52.19    7.40
 -10  -3  10   59.49    8.20
   3 -10  10   51.99    6.40
 -10  -3  10   56.39    7.50
  10   2 -10  520.25   39.10
  -2  10 -10  480.45   38.60
 -10  -2 -10  500.65   37.80
   2 -10 -10  483.85   43.10
  -2  10 -10  592.54   42.20
  10   2 -10  504.55   38.80
 -10  -2  10  508.95   39.60
   2 -10  10  537.95   38.80
 -10  -2  10  489.85   40.90
   2 -10  10  509.35   38.90
 -10  -2  10  520.25   40.10
   1 -10 -10  298.17   27.60
  10   1 -10  301.27   23.80
  -1  10 -10  292.27   23.40
 -10  -1 -10  286.07   22.70
  10   1 -10  362.66   27.30
  -1  10 -10  344.37   26.70
 -10  -1  10  284.67   24.60
 -10  -1  10  285.47   25.70
   1 -10  10  292.97   23.70
   1 -10  10  277.27   23.30
 -10  -1  10  296.67   24.50
 -10   0 -10   50.09    5.40
  10   0 -10   66.19    6.80
  10   0 -10   57.59    9.10
   0  10 -10   54.89    6.00
   0 -10 -10   54.69   10.20
   0  10 -10   57.89    9.10
 -10   0  10   46.40    6.80
 -10   0  10   53.69    7.70
   0 -10  10   48.60    6.10
 -10   0  10   45.30    8.10
   0 -10  10   48.80    6.40
   1  10 -10  355.06   30.80
 -10   1 -10  282.47   23.00
  -1 -10 -10  332.57   27.50
   1  10 -10  292.47   25.70
   1  10 -10  304.87   23.40
  10  -1 -10  269.97   23.60
  -1 -10  10  298.57   23.70
 -10   1  10  262.07   25.60
 -10   1  10  305.07   24.80
  -1 -10  10  306.67   23.50
  10  -2 -10  475.95   40.10
   2  10 -10  508.75   39.70
 -10   2 -10  517.45   39.70
   2  10 -10  483.25   41.90
  -2 -10 -10  552.94   43.40
  10  -2 -10  593.64   41.20
   2  10 -10  659.43   47.30
  -2 -10  10  542.45   40.40
  -2 -10  10  529.85   39.90
 -10   2  10  487.85   41.00
   3  10 -10   79.99   14.10
 -10   3 -10   59.79    5.90
  10  -3 -10   59.09    7.00
   3  10 -10   51.29    5.90
 -10   3 -10   50.49    6.00
  10  -3 -10   45.90    6.40
   3  10 -10   46.90    8.20
  -3 -10  10   51.69    6.50
 -10   3  10   59.39    7.50
  -3 -10  10   54.59    6.70
   4  10 -10   63.89   14.30
   4  10 -10   58.99    6.30
   4  10 -10   59.29    9.20
  10  -4 -10   50.59    6.60
 -10   4 -10   55.99    6.20
  10  -4 -10   52.69    6.10
 -10   4 -10   53.69    6.30
  -4 -10  10   53.49    6.70
  -4 -10  10   54.19    6.80
 -10   4  10   41.70    7.40
  10  -5 -10    3.80    1.80
  10  -5 -10    3.50    2.40
 -10   5 -10    5.40    2.60
   5  10 -10    2.50    2.20
   5  10 -10    2.70    3.50
  10  -5 -10    1.30    6.60
  -5 -10  10    9.70    3.10
  -5 -10  10    5.30    2.80
 -10   5  10    2.50    3.00
   6  10 -10  378.76   29.10
  10  -6 -10  369.96   38.10
  10  -6 -10  313.37   29.00
 -10   6 -10  432.16   30.00
  10  -6 -10  351.26   29.50
  -6 -10  10  400.76   30.20
  -6 -10  10  388.16   29.10
 -10   6  10  357.96   30.60
 -10   7 -10  283.47   21.30
   7  10 -10  257.37   20.20
  10  -7 -10  250.27   29.30
  10  -7 -10  246.18   20.20
  10  -7 -10  223.48   20.30
 -10   7  10  242.78   21.80
  -7 -10  10  226.88   21.00
  -7 -10  10  249.97   20.20
  10  -8 -10   41.70    6.60
   8  10 -10   49.80    6.10
  10  -8 -10   46.40    5.50
  10  -8 -10   63.29   15.70
 -10   8 -10   54.99    7.30
  -8 -10  10   50.09    7.90
  -8 -10  10   44.30    6.50
 -10   8  10   36.60    7.50
  11   7 -10  105.09   10.80
   7 -11 -10   98.49   10.50
  -7  11 -10   95.09   10.60
   7 -11 -10   95.09   18.60
 -11  -7  10  121.69   11.50
   7 -11  10  125.49   11.10
  11   6 -10  319.67   24.40
  -6  11 -10  268.77   23.80
  11   6 -10  364.16   31.00
 -11  -6 -10  264.07   21.40
   6 -11 -10  218.78   29.10
  -6  11 -10  268.47   26.10
   6 -11  10  349.17   24.00
 -11  -6  10  285.47   25.70
   6 -11  10  340.87   24.40
 -11  -6  10  292.67   24.40
 -11  -5 -10  312.87   25.20
  11   5 -10  416.26   32.50
  11   5 -10  342.07   27.50
   5 -11 -10  302.47   32.90
  -5  11 -10  319.17   27.20
  -5  11 -10  383.56   30.70
 -11  -5  10  335.97   29.30
   5 -11  10  361.96   27.50
   5 -11  10  359.76   27.10
 -11  -5  10  349.07   27.90
  -4  11 -10   42.70    5.90
  11   4 -10   52.89    6.50
   4 -11 -10   41.10   11.00
 -11  -4 -10   44.60    4.40
  -4  11 -10   49.99    9.10
  11   4 -10   52.69   10.50
 -11  -4  10   41.50    7.90
 -11  -4  10   48.90    7.30
   4 -11  10   55.69    6.80
 -11  -4  10   48.80    7.90
   4 -11  10   54.39    6.40
   3 -11 -10   28.50    8.20
  -3  11 -10   38.80    5.00
  11   3 -10   45.20    9.00
 -11  -3 -10   33.00    3.70
  -3  11 -10   41.40    8.30
  11   3 -10   39.10    5.40
 -11  -3  10   24.10    6.30
   3 -11  10   38.00    5.60
 -11  -3  10   27.40    5.70
 -11  -3  10   25.80    5.90
   3 -11  10   34.90    5.40
  11   2 -10  169.18   16.70
 -11  -2 -10  121.99   11.00
   2 -11 -10  120.79   16.00
  11   2 -10  133.39   12.20
  11   2 -10  133.99   12.60
  -2  11 -10  137.49   12.10
  -2  11 -10  156.48   15.50
 -11  -2  10  130.29   13.30
   2 -11  10  133.39   12.20
 -11  -2  10  124.79   14.20
 -11  -2  10  132.49   13.50
   2 -11  10  162.18   12.70
  11   1 -10   63.09    9.90
 -11  -1 -10   49.30    5.10
   1 -11 -10   32.20    8.40
  -1  11 -10   65.49   10.10
  -1  11 -10   47.70    5.70
  11   1 -10   51.89    6.60
 -11  -1  10   50.29    8.00
 -11  -1  10   44.20    7.10
   1 -11  10   46.00    6.00
 -11  -1  10   41.10    8.00
   1 -11  10   44.90    6.40
   0  11 -10    2.70    3.40
   0 -11 -10   -0.50    3.80
  11   0 -10    4.80    2.60
   0  11 -10    1.40    1.80
 -11   0 -10    1.20    1.50
  11   0 -10    4.70    4.20
   0 -11  10    2.40    2.60
 -11   0  10    1.30    3.10
   0 -11  10    1.70    2.10
 -11   0  10    2.20    3.20
 -11   0  10   -0.70    2.30
   1  11 -10   51.09   13.00
   1  11 -10   57.19    9.00
  11  -1 -10   64.59    8.80
 -11   1 -10   48.70    5.40
  11  -1 -10   48.00    6.50
  -1 -11 -10   50.99   10.00
   1  11 -10   53.49    6.00
 -11   1  10   56.69    9.50
 -11   1  10   39.10    7.10
  -1 -11  10   47.60    6.40
 -11   1  10   49.30    7.90
  -1 -11  10   40.70    6.10
   2  11 -10  141.19   12.30
 -11   2 -10  127.59   11.90
   2  11 -10  159.78   20.40
   2  11 -10  146.59   14.90
  -2 -11 -10  146.09   15.90
  11  -2 -10  176.18   14.30
  11  -2 -10  144.99   13.10
  -2 -11  10  136.49   12.80
 -11   2  10  142.89   20.00
  -2 -11  10  130.79   12.40
 -11   2  10  124.59   13.60
  11  -3 -10   33.20    5.80
  11  -3 -10   37.50    5.90
   3  11 -10   25.70    6.30
   3  11 -10   47.60    5.30
 -11   3 -10   32.80    4.40
 -11   3 -10   33.10    4.80
  -3 -11  10   28.00    5.10
 -11   3  10   36.10    6.80
  -3 -11  10   40.50    5.70
 -11   4 -10   58.89    6.10
 -11   4 -10   54.99    6.30
  11  -4 -10   50.99    6.80
  11  -4 -10   53.79    6.40
   4  11 -10   50.69    6.10
  -4 -11  10   47.10    6.60
  -4 -11  10   50.99    6.60
 -11   4  10   39.20    7.40
   5  11 -10  353.56   27.40
 -11   5 -10  383.16   27.60
  11  -5 -10  299.27   27.70
  11  -5 -10  376.96   26.50
  -5 -11  10  354.86   27.40
  -5 -11  10  354.86   28.30
 -11   5  10  312.77   29.00
  11  -6 -10  272.87   24.40
  11  -6 -10  297.47   22.30
  11  -6 -10  291.17   24.70
 -11   6 -10  325.67   24.40
   6  11 -10  314.17   24.10
  -6 -11  10  315.67   24.00
 -11   6  10  290.37   25.90
  -6 -11  10  295.27   24.90
   7  11 -10  116.09   10.90
  11  -7 -10  102.29   11.10
  11  -7 -10  134.19   23.00
 -11   7  10  106.29   12.50
  -7 -11  10  122.19   11.00
  -5  12 -10  104.89   13.60
  12   5 -10  113.99   11.40
  12   5 -10  159.68   17.00
  -5  12 -10  110.39   10.90
 -12  -5 -10   99.09    8.70
   5 -12 -10  120.69   19.80
   5 -12  10  116.59   11.10
   5 -12  10  125.89   11.10
 -12  -5  10   98.89   12.70
 -12  -5  10  116.39   11.90
  12   4 -10   69.99   11.80
  -4  12 -10   51.69    6.30
   4 -12 -10   43.20   11.60
  12   4 -10   56.39    7.00
  -4  12 -10   54.89   10.10
 -12  -4 -10   46.10    4.60
 -12  -4  10   51.09    7.80
   4 -12  10   48.30    6.50
   4 -12  10   52.39    7.00
 -12  -4  10   47.50    8.70
 -12  -4  10   54.59    8.90
  -3  12 -10   86.39   11.70
 -12  -3 -10   79.89    6.90
  12   3 -10  103.79   13.40
  12   3 -10   77.89    8.70
   3 -12 -10   65.09   12.80
  -3  12 -10   77.09    8.30
   3 -12  10   87.69    8.80
 -12  -3  10   78.79    9.90
 -12  -3  10   76.99    9.90
   3 -12  10   69.89    8.30
 -12  -3  10   74.69   10.50
   2 -12 -10    1.50    4.10
  -2  12 -10    2.40    2.30
 -12  -2 -10    1.40    1.30
  12   2 -10    4.90    5.00
  -2  12 -10    3.20    4.00
  12   2 -10    1.30    4.20
 -12  -2  10    1.60    3.00
 -12  -2  10    3.10    3.60
   2 -12  10    3.00    2.50
   2 -12  10    0.20    2.70
 -12  -2  10    0.70    3.50
  12   1 -10  110.49   12.90
  -1  12 -10   92.09    8.90
  -1  12 -10  102.29   12.30
 -12  -1 -10   84.69    7.80
  12   1 -10   88.69    9.60
   1 -12 -10   84.29   14.40
   1 -12  10   89.09    9.20
 -12  -1  10   76.39   11.00
 -12  -1  10   84.39   10.40
 -12  -1  10   84.29   10.70
   1 -12  10   82.49    9.00
   0  12 -10  275.97   21.40
  12   0 -10  282.47   22.40
 -12   0 -10  254.07   20.60
   0  12 -10  279.27   24.80
   0 -12 -10  267.37   19.60
   0 -12 -10  268.87   25.50
   0 -12  10  258.37   21.70
 -12   0  10  269.07   23.30
   0 -12  10  268.07   21.40
 -12   0  10  257.67   23.20
 -12   0  10  236.38   24.00
  12  -1 -10  100.29   11.30
  12  -1 -10   86.79    9.50
   1  12 -10   88.99   11.50
 -12   1 -10   90.99    8.10
  -1 -12 -10   90.79   12.40
   1  12 -10   83.19    8.40
 -12   1  10   85.09   11.10
  -1 -12  10   79.39    8.80
 -12   1  10   70.79   11.70
  -1 -12  10   91.69    9.20
 -12   1  10   77.69   10.10
  -2 -12 -10    3.80    4.30
  12  -2 -10    0.40    3.40
  12  -2 -10    6.90    3.30
   2  12 -10    0.10    1.70
 -12   2 -10    1.10    1.80
 -12   2  10    6.30    4.80
 -12   2  10    1.00    4.10
  -2 -12  10    3.70    2.80
 -12   2  10    0.90    2.80
  -2 -12  10    1.90    2.50
   3  12 -10   80.59    8.20
  12  -3 -10   77.09    9.10
  12  -3 -10   97.49    9.60
 -12   3 -10   82.39    8.00
 -12   3  10   64.79    9.40
  -3 -12  10   73.89    8.40
  -3 -12  10   90.39    9.20
 -12   4 -10   59.99    6.20
  12  -4 -10   54.09    8.00
 -12   4 -10   49.80    6.30
  12  -4 -10   67.49    7.10
   4  12 -10   53.29    6.40
 -12   4  10   49.60    8.60
  -4 -12  10   52.49    6.80
  -4 -12  10   52.69    7.10
 -12   5 -10  118.59   10.50
  12  -5 -10   97.89   11.20
  12  -5 -10  121.59   10.00
   5  12 -10  111.59   10.60
 -12   5  10  100.89   12.40
  -5 -12  10  106.49   11.30
  -5 -12  10  115.99   10.60
   1 -13 -10   45.00   10.00
 -13  -1 -10   42.80    4.60
  13   1 -10   58.39    9.70
  -1  13 -10   39.30    5.60
   1 -13 -10   38.50    4.10
 -13  -1  10   39.20    7.60
   1 -13  10   41.50    6.20
 -13  -1  10   37.90    7.40
  13   0 -10   -0.30    2.70
   0 -13 -10    3.20    4.80
   0  13 -10    2.10    2.30
  13   0 -10    0.30    4.00
 -13   0 -10    0.20    1.50
   0 -13  10    1.60    2.70
 -13   0  10    9.50    5.00
   0 -13  10    1.80    2.50
 -13   0  10    2.90    3.30
 -13   0  10    1.30    3.90
 -13   1 -10   39.50    4.90
  13  -1 -10   46.30    8.00
   1  13 -10   42.20    5.50
  -1 -13 -10   44.10    9.50
  13  -1 -10   45.50    7.50
 -13   1  10   43.20    8.10
 -13   1  10   39.90    7.80
  -1 -13  10   39.60    6.10
   0   0 -11    4.20    1.50
   0   0 -11    3.60    1.30
   0   0 -11    1.60    1.50
   0   0  11    0.70    1.20
   1   0 -11   89.29    7.20
   1   0 -11   87.29    7.40
  -1   0 -11   93.89    7.50
   0  -1 -11   77.09    7.30
  -1   0 -11   78.49    7.10
  -1   0 -11   73.99    7.30
   0  -1 -11   71.09    7.10
   0   1 -11   96.69    7.30
   0   1 -11   89.99    7.30
   0   1 -11   78.29    7.40
   1   0 -11   76.29    7.40
   0   1 -11   63.29    7.70
   0   1 -11   83.19    7.30
   0  -1  11   74.99    7.30
   0   1  11   82.29    7.40
  -1   0  11   79.89    7.40
  -1   1 -11  358.56   27.80
   1  -1 -11  371.06   28.00
   1   1 -11  411.16   28.20
   1   1 -11  360.76   28.00
   1   1 -11  362.36   27.90
  -1   1 -11  321.37   28.20
  -1   1 -11  386.66   28.00
  -1  -1 -11  361.36   27.70
   1   1 -11  393.96   27.80
  -1  -1 -11  375.96   28.10
  -1   1 -11  353.06   28.00
   1  -1 -11  385.76   28.00
  -1   1  11  369.16   28.00
  -1  -1  11  383.86   28.00
   1   1  11  359.06   27.90
   1  -2 -11  119.99    9.80
  -2  -1 -11  106.69    9.70
  -2  -1 -11  123.59   10.00
  -1   2 -11  101.49   10.20
  -1   2 -11  111.09    9.60
  -1   2 -11  105.89    9.50
   2   1 -11  115.29    9.70
  -1   2 -11  125.39   10.10
  -2  -1 -11  116.79    9.40
   2   1 -11  121.09   10.40
   2   1 -11  110.99    9.80
  -1   2 -11  114.99    9.90
  -1   2  11   97.89    9.50
  -2  -1  11  119.39    9.80
   0   2 -11    3.90    1.60
   0   2 -11    2.40    1.90
   2   0 -11    3.10    1.30
   0   2 -11    1.40    1.90
  -2   0 -11    1.30    1.40
   2   0 -11    0.20    1.10
   0   2 -11    1.50    1.20
   0   2 -11    1.30    1.40
  -2   0 -11    4.00    1.70
   2   0 -11    1.90    1.40
   2   0 -11    2.20    1.50
   0  -2 -11    1.30    1.30
   0  -2 -11    0.60    1.10
  -2   0  11    0.90    1.30
   0   2  11    0.30    1.30
   0  -2  11    0.50    1.30
  -2   1 -11  110.79    9.90
   2  -1 -11  106.49    9.50
  -1  -2 -11  114.89    9.70
  -2   1 -11  122.69    9.80
   1   2 -11  115.49   10.70
   1   2 -11  118.79    9.80
   1   2 -11  115.19   10.70
   1   2 -11  113.59    9.40
  -2   1 -11  109.79    9.90
  -2   1 -11  111.29    9.40
  -1  -2 -11  113.39    9.30
   1   2 -11  104.99    9.50
  -1  -2  11  113.39    9.60
   1   2  11  109.49    9.60
  -2   1  11  113.79    9.70
   2   2 -11   24.50    3.40
  -2   2 -11   23.20    3.20
   2   2 -11   22.40    4.50
  -2  -2 -11   21.10    2.90
  -2  -2 -11   21.90    3.60
  -2   2 -11   26.10    3.50
  -2   2 -11   22.10    3.80
   2   2 -11   21.60    3.40
  -2   2 -11   25.10    3.50
   2   2 -11   27.20    5.00
  -2   2 -11   28.70    4.40
   2  -2 -11   26.50    3.40
  -2  -2  11   27.60    3.60
  -2   2  11   25.50    3.50
   2  -3 -11 1006.90   70.69
  -3  -2 -11  996.40   70.89
  -2   3 -11  933.11   71.59
   3   2 -11  898.31   70.89
   3   2 -11  950.60   72.19
  -3  -2 -11 1013.40   70.29
  -2   3 -11  875.61   70.99
   3   2 -11 1012.50   70.49
   3   2 -11  935.61   70.69
  -2   3 -11  980.20   70.69
  -2   3 -11  910.71   70.59
  -2   3 -11 1075.89   71.39
  -3  -2  11 1005.50   70.89
  -2   3  11  972.60   70.79
  -3  -1 -11  124.19   10.50
   3   1 -11  115.29   10.30
   3   1 -11  123.49    9.80
  -1   3 -11  121.79   11.20
   3   1 -11  115.79   10.10
  -3  -1 -11  125.39   10.50
  -1   3 -11  118.29   11.20
  -1   3 -11  105.29   10.20
   1  -3 -11  119.99   10.10
  -1   3 -11  112.09   10.00
  -3  -1 -11  117.19    9.70
   3   1 -11  135.29   11.40
  -1   3 -11  114.89   10.00
  -1   3  11  126.19   10.30
  -3   0 -11 1354.56   94.69
   0  -3 -11 1366.46   94.29
   3   0 -11 1275.67   94.19
   0   3 -11 1296.57   95.39
   0   3 -11 1229.48   94.19
   0   3 -11 1275.77   94.09
  -3   0 -11 1295.57   93.89
   0   3 -11 1225.28   94.39
   3   0 -11 1478.65   94.49
  -3   0 -11 1309.97   94.59
   0   3 -11 1203.88   95.29
  -3   0  11 1212.18   94.29
   0   3  11 1274.87   94.19
   0  -3  11 1400.76   94.29
   1   3 -11  114.09   11.30
   1   3 -11  118.99   11.70
  -3   1 -11  110.59   10.00
   1   3 -11  112.19   10.10
   3  -1 -11  122.89   10.10
   1   3 -11  128.99    9.90
  -3   1 -11  116.49   10.40
   1   3 -11  114.69   10.00
  -3   1 -11  114.89    9.80
  -1  -3 -11  114.39   10.00
  -1  -3 -11  118.59    9.80
  -3   1  11  117.39   10.10
   1   3  11  112.79   10.00
  -1  -3  11  127.19   10.10
  -3   2 -11  865.71   69.89
   2   3 -11  973.00   69.39
   3  -2 -11  942.71   69.59
   2   3 -11  986.20   71.29
  -2  -3 -11  980.50   69.19
   2   3 -11  921.21   69.69
  -3   2 -11  979.60   69.49
  -3   2 -11  908.01   69.99
  -2  -3 -11  974.60   69.69
   2   3 -11  895.61   71.29
  -3   2 -11  931.51   69.79
  -3   2  11  972.10   69.79
  -2  -3  11 1066.49   69.79
   3  -3 -11  121.29   10.60
  -3   3 -11  144.99   11.10
  -3   3 -11  114.89   11.20
   3   3 -11  114.79   12.80
   3   3 -11  127.69   10.70
   3   3 -11  129.89   12.30
  -3  -3 -11  126.09   10.10
  -3   3 -11  118.79   10.50
  -3   3 -11  122.29   10.70
  -3   3 -11  126.39   11.30
  -3  -3 -11  126.79   10.80
   3   3 -11  126.29   10.40
  -3  -3  11  132.59   10.80
  -3   3  11  126.59   10.80
  -3  -3  11  114.49   10.90
  -3   4 -11    9.40    2.40
   4   3 -11   10.50    4.30
  -3   4 -11    8.40    3.10
  -4  -3 -11   16.20    2.10
   4   3 -11    7.10    2.10
  -3   4 -11    8.50    2.90
   4   3 -11   10.10    2.20
  -4  -3 -11    9.00    2.50
  -3   4 -11    8.60    2.30
   3  -4 -11   11.60    2.60
   3  -4 -11   16.80    7.00
  -3   4 -11   19.10    4.00
  -4  -3  11   11.00    2.90
  -3   4  11    6.00    2.20
  -4  -3  11   10.70    2.60
  -2   4 -11  600.14   46.10
  -2   4 -11  589.74   46.60
   4   2 -11  637.24   45.90
  -2   4 -11  589.84   46.10
   2  -4 -11  615.34   46.10
  -2   4 -11  672.53   47.50
  -2   4 -11  651.43   47.60
   2  -4 -11  649.74   51.79
   4   2 -11  595.94   46.10
  -4  -2 -11  624.34   45.60
  -4  -2 -11  658.83   46.50
   4   2 -11  637.94   48.10
  -2   4  11  626.24   46.20
  -4  -2  11  609.04   46.30
   4   1 -11   58.59    6.30
   1  -4 -11   64.89    6.40
  -4  -1 -11   64.89    6.80
   4   1 -11   69.99    6.10
  -1   4 -11   62.69    6.30
  -1   4 -11   71.79    6.90
  -4  -1 -11   66.39    6.00
   1  -4 -11   82.19   12.90
  -1   4 -11   64.49    8.20
  -1   4 -11   72.69    7.80
   4   1 -11   74.69    8.20
  -1   4 -11   69.59    6.50
  -4  -1  11   72.29    6.80
  -1   4  11   60.19    6.30
   1  -4  11   67.99    6.40
   0  -4 -11    3.00    1.60
   0   4 -11    5.40    2.70
   0   4 -11    5.70    1.80
   0   4 -11    1.60    1.80
   0   4 -11    0.70    2.50
   4   0 -11    2.00    1.60
  -4   0 -11    0.00    1.50
   4   0 -11    1.40    2.00
  -4   0 -11    2.20    1.30
   0  -4  11    6.00    1.90
  -4   0  11    3.20    1.70
   0   4  11    1.50    1.30
   4  -1 -11   67.49    6.60
  -4   1 -11   66.99    6.30
  -4   1 -11   65.99    6.90
  -4   1 -11   66.29    7.00
  -1  -4 -11   69.09    6.60
   4  -1 -11   81.59    6.50
   1   4 -11   65.89    6.80
   1   4 -11   57.99    8.50
   1   4 -11   69.29    8.00
  -4   1 -11   61.99    6.30
   1   4 -11   65.49    6.30
  -1  -4  11   81.19    6.70
  -1  -4  11   70.39    6.80
  -4   1  11   63.69    6.70
   1   4  11   63.59    6.50
  -2  -4 -11  630.24   45.20
  -4   2 -11  596.44   45.50
   4  -2 -11  621.44   45.20
   2   4 -11  631.14   47.00
   2   4 -11  612.24   45.00
   2   4 -11  608.44   47.60
  -4   2 -11  597.34   45.80
  -4   2 -11  536.45   45.20
  -4   2 -11  626.44   45.10
   2   4 -11  585.94   45.30
  -2  -4  11  690.53   45.40
  -2  -4  11  603.84   45.40
   2   4  11  595.14   45.20
  -4   2  11  608.64   45.40
  -4   3 -11   14.10    2.70
  -4   3 -11   10.80    2.80
   3   4 -11    6.90    4.10
   3   4 -11   11.00    2.40
   3   4 -11    8.50    3.30
  -3  -4 -11    8.70    1.80
  -4   3 -11   15.70    3.50
   3   4 -11    9.00    2.50
  -4   3 -11    7.90    2.20
  -4   3 -11   10.20    2.80
   4  -3 -11    9.40    2.40
  -3  -4 -11   12.30    2.70
  -4   3  11    5.10    2.00
  -3  -4  11    9.50    2.70
  -3  -4  11    9.00    2.40
   4   4 -11  614.24   45.50
  -4   4 -11  545.05   44.20
  -4   4 -11  566.54   44.50
   4  -4 -11  602.74   43.60
  -4  -4 -11  617.44   42.70
   4  -4 -11  551.14   49.80
   4   4 -11  546.55   43.40
  -4   4 -11  544.15   43.60
   4   4 -11  580.14   46.50
   4   4 -11  612.14   43.40
  -4   4 -11  593.34   43.60
  -4  -4 -11  608.14   43.60
  -4  -4  11  575.64   44.00
  -4  -4  11  630.94   43.70
  -4  -4  11  572.94   43.50
  -4   4  11  578.24   43.70
   5   4 -11    6.50    2.10
  -4   5 -11    3.00    2.30
   4  -5 -11    2.30    1.90
   5   4 -11    7.00    4.50
  -4   5 -11    5.40    2.10
  -5  -4 -11    4.20    1.30
  -5  -4 -11    5.10    2.20
  -4   5 -11    5.30    2.90
   4  -5 -11    2.20    4.70
  -4   5 -11    4.80    3.10
   4  -5 -11    5.90    1.80
   5   4 -11    5.50    2.10
  -5  -4  11    5.40    2.50
  -5  -4  11    4.10    2.40
  -4   5  11    5.80    2.30
  -5  -4  11    5.50    2.20
   5   3 -11    7.00    2.20
   3  -5 -11    6.10    2.20
  -5  -3 -11   16.70    3.40
  -3   5 -11    4.00    3.10
  -3   5 -11    3.40    2.40
   5   3 -11    3.70    3.80
   3  -5 -11    2.90    4.50
  -3   5 -11    5.60    2.90
   5   3 -11    3.60    1.80
  -3   5 -11    5.80    2.10
  -5  -3 -11    7.80    1.60
  -3   5  11    8.00    2.40
  -5  -3  11    4.80    2.50
  -5  -3  11    4.50    2.20
  -2   5 -11  403.16   30.00
  -2   5 -11  338.77   28.00
   5   2 -11  359.26   30.20
  -2   5 -11  374.16   30.00
   5   2 -11  387.46   27.90
   5   2 -11  352.16   28.00
  -5  -2 -11  393.36   28.70
  -5  -2 -11  370.76   27.50
   2  -5 -11  364.66   28.00
  -2   5 -11  348.27   28.80
   2  -5 -11  348.67   32.90
  -5  -2  11  378.56   28.40
  -5  -2  11  366.16   28.90
  -2   5  11  386.96   28.30
   1  -5 -11  132.49   15.00
  -1   5 -11  132.79   12.30
   5   1 -11  114.69   10.30
  -5  -1 -11  124.89   11.00
   1  -5 -11  126.99   10.40
  -1   5 -11  115.69   12.70
   5   1 -11  114.79   10.00
   5   1 -11  132.09   12.30
  -1   5 -11   96.89   10.70
  -5  -1 -11  129.99   10.00
  -1   5 -11  115.79   10.30
  -1   5  11  120.39   10.40
   1  -5  11  134.09   10.50
  -5  -1  11  122.69   10.70
   0   5 -11 2334.97  185.48
  -5   0 -11 2675.33  184.88
   0   5 -11 2384.56  187.28
   0  -5 -11 2613.24  185.08
   0   5 -11 2458.15  185.08
   5   0 -11 2461.25  185.18
   0  -5 -11 2909.81  190.18
  -5   0 -11 2540.75  185.78
   0   5 -11 2643.44  187.08
   5   0 -11 2794.52  186.08
   0   5  11 2573.34  185.18
  -5   0  11 2454.05  185.48
   0  -5  11 2836.72  185.28
   0  -5  11 2421.66  185.18
  -5   1 -11  116.19   11.00
   1   5 -11  126.49   12.20
  -1  -5 -11  123.19   10.30
   1   5 -11  113.49   10.10
   5  -1 -11  114.59   10.40
  -5   1 -11  125.99   10.00
  -1  -5 -11  127.39   14.10
   1   5 -11  115.29   10.70
  -5   1 -11  126.69   10.20
   1   5 -11  107.29   13.10
   5  -1 -11  137.69   10.70
  -1  -5  11  116.09   10.50
   1   5  11  115.69   10.30
  -5   1  11  117.39   10.60
  -1  -5  11  128.29   10.40
  -2  -5 -11  396.76   28.20
   2   5 -11  368.16   30.00
   2   5 -11  344.67   28.40
  -5   2 -11  366.86   28.80
  -5   2 -11  390.46   28.20
  -5   2 -11  319.67   28.10
  -5   2 -11  349.96   29.00
   5  -2 -11  370.36   28.30
   2   5 -11  379.76   31.40
   2   5 -11  366.66   28.10
   5  -2 -11  410.56   27.60
  -2  -5  11  350.66   28.40
   2   5  11  379.16   28.30
  -2  -5  11  410.56   28.40
  -5   2  11  358.66   28.50
  -2  -5  11  373.86   28.30
   3   5 -11    1.80    3.70
  -5   3 -11    4.50    2.20
   3   5 -11    3.70    2.00
  -5   3 -11    7.20    2.20
   3   5 -11    3.00    2.70
   3   5 -11    5.00    1.90
  -5   3 -11    5.70    2.70
  -5   3 -11    3.90    2.10
   5  -3 -11    4.50    2.10
  -3  -5  11    3.40    2.00
  -3  -5  11    4.80    2.00
  -5   3  11    9.30    2.60
  -3  -5  11    9.90    2.90
  -5   4 -11    3.50    2.30
   4   5 -11    4.80    1.80
   4   5 -11    8.30    4.60
  -5   4 -11    5.90    2.60
  -5   4 -11    4.90    2.10
   4   5 -11    4.00    2.00
  -4  -5 -11    4.10    1.90
   5  -4 -11    8.50    5.60
   5  -4 -11    2.80    2.00
   4   5 -11   10.70    3.50
  -5   4  11    5.80    2.20
  -4  -5  11    5.10    2.40
  -4  -5  11    9.20    2.50
  -4  -5  11    3.70    2.40
  -5   5 -11   70.39    7.50
   5   5 -11   51.19    5.60
   5   5 -11   53.89    8.20
  -5  -5 -11   56.39    4.70
  -5   5 -11   44.80    5.70
   5   5 -11   50.39    9.60
   5   5 -11   54.69    5.90
   5  -5 -11   45.90    5.50
   5  -5 -11   41.90   11.70
  -5   5 -11   46.60    6.60
  -5  -5  11   54.09    6.00
  -5   5  11   51.79    5.90
  -5  -5  11   50.29    6.20
  -5  -5  11   52.19    6.40
   5  -6 -11  175.78   21.60
  -5   6 -11  183.78   16.80
   6   5 -11  208.38   19.90
  -6  -5 -11  180.08   13.90
   6   5 -11  189.98   15.20
   6   5 -11  192.88   15.50
   5  -6 -11  183.08   15.20
  -5   6 -11  153.88   15.20
  -6  -5  11  207.98   15.90
  -6  -5  11  185.18   15.70
  -6  -5  11  182.28   16.20
  -5   6  11  196.68   15.80
  -4   6 -11  143.59   13.60
  -6  -4 -11  142.09   10.70
  -6  -4 -11  151.48   12.30
   6   4 -11  140.29   11.90
   4  -6 -11  127.79   11.70
   6   4 -11  152.88   11.80
   6   4 -11  138.19   15.70
  -4   6 -11  115.99   11.60
   4  -6 -11  125.19   16.90
  -6  -4  11  143.69   12.20
  -6  -4  11  133.99   12.70
  -6  -4  11  137.69   12.20
  -4   6  11  127.99   11.90
   6   3 -11  373.66   28.90
   6   3 -11  391.76   32.30
  -3   6 -11  439.66   32.00
  -3   6 -11  394.66   31.20
  -3   6 -11  353.96   29.10
   3  -6 -11  404.06   29.20
   6   3 -11  385.36   29.20
   3  -6 -11  377.16   34.60
  -3   6 -11  366.26   30.20
  -6  -3 -11  414.06   29.80
  -6  -3 -11  386.56   28.30
  -6  -3  11  384.36   29.60
  -3   6  11  356.86   29.20
  -6  -3  11  364.46   29.40
  -6  -3  11  369.66   30.20
  -2   6 -11  154.18   14.20
   6   2 -11  187.18   16.40
  -2   6 -11  167.28   15.30
   2  -6 -11  170.48   13.40
  -2   6 -11  162.78   16.30
  -6  -2 -11  160.98   12.70
   6   2 -11  164.98   13.20
  -6  -2 -11  167.18   14.10
  -2   6 -11  157.58   13.40
   2  -6 -11  162.88   18.30
   6   2 -11  156.58   13.40
   2  -6  11  149.49   13.60
  -6  -2  11  153.88   14.40
  -6  -2  11  176.68   14.00
  -2   6  11  155.48   13.40
  -1   6 -11  266.57   22.10
  -6  -1 -11  247.98   20.70
   1  -6 -11  253.27   24.20
   1  -6 -11  275.37   19.90
   6   1 -11  254.57   20.00
   6   1 -11  253.57   19.70
  -1   6 -11  248.18   22.90
  -1   6 -11  238.48   19.90
   6   1 -11  251.27   21.80
  -6  -1 -11  269.47   19.60
  -1   6 -11  238.68   20.70
   1  -6  11  252.87   20.10
  -1   6  11  248.28   20.00
   1  -6  11  270.77   20.00
  -6  -1  11  254.57   20.40
   6   0 -11    4.90    2.90
  -6   0 -11    3.90    2.30
   0   6 -11    3.10    2.80
   0  -6 -11   -0.10    3.30
   0   6 -11    4.50    4.00
   6   0 -11    2.70    1.80
   0   6 -11    1.60    2.00
   0   6 -11    2.80    1.70
  -6   0 -11    1.90    1.40
   0  -6  11    2.90    1.70
   0   6  11    3.30    1.80
   0  -6  11    7.90    2.60
  -6   0  11    2.50    1.90
   0  -6  11    2.60    1.80
  -6   1 -11  278.47   19.80
   1   6 -11  243.68   20.20
  -6   1 -11  264.17   21.30
   1   6 -11  246.78   20.80
   6  -1 -11  283.77   20.90
  -1  -6 -11  263.57   20.10
  -1  -6 -11  310.17   24.80
   1   6 -11  249.08   22.20
  -6   1 -11  268.67   20.20
   6  -1 -11  225.88   20.20
   1   6 -11  246.78   23.70
  -6   1  11  261.07   20.80
   1   6  11  257.47   20.30
  -1  -6  11  256.77   20.60
  -1  -6  11  261.87   20.50
  -6   2 -11  161.08   13.40
  -6   2 -11  193.18   13.80
   2   6 -11  158.68   15.50
  -2  -6 -11  163.38   13.40
   2   6 -11  157.08   13.50
   6  -2 -11  174.38   13.30
   2   6 -11  168.38   17.50
   2   6 -11  155.18   14.00
  -2  -6 -11  186.68   17.30
   6  -2 -11  155.18   13.70
   2   6  11  166.98   13.70
  -2  -6  11  154.98   13.90
  -2  -6  11  161.78   13.80
  -6   2  11  165.68   14.10
   3   6 -11  421.56   33.90
  -3  -6 -11  394.36   31.50
   3   6 -11  377.56   31.50
  -6   3 -11  427.76   29.90
   6  -3 -11  412.56   28.50
   6  -3 -11  357.16   29.60
   3   6 -11  385.86   29.60
  -6   3 -11  349.57   29.70
   3   6 -11  385.36   30.00
  -3  -6  11  395.76   29.80
  -6   3  11  377.16   30.10
   3   6  11  393.46   29.70
  -3  -6  11  388.46   30.10
  -6   4 -11  131.19   12.30
   4   6 -11  147.69   12.40
  -6   4 -11  152.28   12.30
  -6   4 -11  129.39   12.40
   4   6 -11  139.49   13.80
   4   6 -11  139.09   11.80
   6  -4 -11  145.09   22.40
   4   6 -11  160.58   16.90
   6  -4 -11  124.19   11.80
  -4  -6  11  134.29   12.20
  -6   4  11  143.29   12.50
  -4  -6  11  143.39   12.50
   5   6 -11  212.98   20.50
   5   6 -11  174.68   15.30
   6  -5 -11  186.58   15.60
  -6   5 -11  222.58   18.30
  -6   5 -11  226.68   16.40
   6  -5 -11  165.98   22.10
   5   6 -11  175.38   17.20
  -6   5 -11  189.48   16.60
  -6   5 -11  160.28   15.60
  -5  -6  11  183.18   16.20
  -5  -6  11  187.28   15.80
  -6   5  11  198.68   16.20
   6   6 -11   24.70    7.40
  -6   6 -11   27.00    5.50
   6   6 -11   13.20    4.50
  -6   6 -11   18.60    3.80
   6   6 -11   17.30    3.40
  -6   6 -11   16.40    4.30
   6  -6 -11   19.80    3.70
   6  -6 -11   19.00    8.50
   6  -6 -11   26.10    3.10
  -6  -6  11   20.50    4.50
  -6   6  11   15.10    3.70
  -6  -6  11   15.10    3.80
   6  -7 -11   80.99   16.70
   7   6 -11  100.49   13.80
  -6   7 -11   91.59   10.20
   7   6 -11   87.89    8.50
  -6   7 -11   74.69    8.60
   6  -7 -11   89.89    8.40
  -7  -6  11  103.29   10.00
  -7  -6  11   82.99    9.10
  -6   7  11   85.29    9.00
  -7  -5 -11  108.19    8.70
   5  -7 -11  111.09   10.20
   7   5 -11  110.99   10.20
   7   5 -11  119.29   14.90
  -5   7 -11  132.79   12.50
  -5   7 -11   93.59   10.20
   5  -7 -11   88.99   16.40
  -5   7 -11  150.68   13.80
  -7  -5  11  113.09   10.80
  -7  -5  11  108.59   11.40
  -5   7  11  122.19   10.80
  -7  -5  11  128.39   11.30
  -7  -4 -11    4.50    1.30
  -4   7 -11    2.80    2.10
   4  -7 -11    1.10    1.80
   7   4 -11    9.50    2.70
   7   4 -11    4.60    4.70
   7   4 -11    2.50    1.90
   4  -7 -11    3.20    4.60
  -4   7 -11   -0.10    3.70
  -4   7 -11    0.90    2.60
  -4   7  11   -0.50    1.60
  -7  -4  11    2.20    2.40
  -7  -4  11    1.90    2.40
  -7  -4  11    2.10    2.10
   7   3 -11    5.90    4.50
   7   3 -11    3.30    1.90
  -3   7 -11    6.70    5.00
  -3   7 -11    3.70    1.90
  -7  -3 -11    5.70    1.50
   7   3 -11    7.90    2.40
  -3   7 -11    6.40    3.70
   3  -7 -11    4.20    2.10
   3  -7 -11    2.20    4.10
  -3   7  11    7.20    2.40
   3  -7  11    7.30    2.50
  -7  -3  11    7.30    3.10
  -7  -3  11    4.80    2.70
  -7  -3  11    8.50    2.90
  -2   7 -11  120.19   11.70
  -7  -2 -11  152.28   11.30
  -2   7 -11  133.19   13.00
  -2   7 -11  169.38   14.70
   7   2 -11  137.19   12.00
  -2   7 -11  124.19   15.30
   2  -7 -11  144.59   11.80
   2  -7 -11  142.79   16.60
   7   2 -11  142.79   11.70
   7   2 -11  156.58   15.10
  -2   7  11  140.59   12.00
  -7  -2  11  141.89   12.50
  -7  -2  11  144.19   12.50
   2  -7  11  127.89   11.90
  -7  -2  11  128.59   13.10
  -7  -1 -11  745.33   51.39
  -1   7 -11  640.14   52.69
   7   1 -11  744.13   53.99
  -1   7 -11  737.73   55.69
   1  -7 -11  715.53   51.49
  -1   7 -11  669.33   51.69
  -1   7 -11  726.93   54.19
   1  -7 -11  686.63   56.19
   7   1 -11  660.33   51.79
  -1   7  11  719.03   51.79
   1  -7  11  685.53   51.89
  -7  -1  11  668.73   53.19
  -7  -1  11  691.83   52.39
   1  -7  11  710.33   51.79
   7   0 -11   73.19    7.30
   0   7 -11   64.69    8.00
  -7   0 -11   75.39    7.00
   7   0 -11   79.69    9.10
   0   7 -11   73.39    7.20
   0   7 -11   78.09    9.40
   0  -7 -11   86.99   11.30
   0   7 -11   86.59   12.10
   0  -7  11   69.89    7.40
   0  -7  11   83.59    7.80
  -7   0  11   70.19    7.70
   0   7  11   70.89    7.20
  -1  -7 -11  714.23   52.09
  -7   1 -11  752.82   52.39
   7  -1 -11  784.22   53.19
   1   7 -11  676.33   52.29
   1   7 -11  666.43   54.39
   1   7 -11  758.12   56.89
   1   7 -11  675.63   53.19
   7  -1 -11  643.24   52.39
  -1  -7 -11  710.63   56.19
   1   7  11  725.43   52.49
  -1  -7  11  775.92   52.69
  -7   1  11  646.14   52.89
  -1  -7  11  693.93   52.69
  -2  -7 -11  167.68   16.30
  -7   2 -11  158.68   12.60
   7  -2 -11  141.19   12.70
   2   7 -11  155.08   13.40
   2   7 -11  147.89   17.10
   2   7 -11  148.19   14.60
   2   7 -11  140.99   12.40
  -7   2 -11  151.38   12.20
   7  -2 -11  151.28   12.50
   2   7  11  147.69   12.50
  -2  -7  11  134.69   12.80
  -7   2  11  141.79   13.10
  -2  -7  11  155.38   12.90
   7  -3 -11    4.30    2.20
   7  -3 -11    6.10    1.80
   3   7 -11    8.80    5.40
  -3  -7 -11    6.30    4.20
  -7   3 -11    4.40    2.10
   3   7 -11    7.00    2.20
  -7   3 -11    4.90    2.20
   3   7 -11    4.20    2.50
   3   7 -11    5.20    3.20
  -3  -7  11    1.70    2.30
   3   7  11    6.40    2.30
  -7   3  11    4.70    2.50
  -3  -7  11    8.60    2.80
   7  -4 -11   34.30   11.30
   7  -4 -11    2.10    1.80
   4   7 -11    1.80    2.60
   4   7 -11    7.00    2.30
   4   7 -11   41.50    9.50
  -7   4 -11    2.00    1.90
  -4  -7  11    2.80    2.40
  -4  -7  11    0.40    1.70
  -7   4  11    0.50    1.90
   4   7  11    1.60    1.70
   7  -5 -11  107.39   10.30
   5   7 -11  117.69   10.20
  -7   5 -11  154.58   14.50
   7  -5 -11   91.69   18.10
   5   7 -11  141.19   16.20
   5   7 -11  103.79   11.90
  -7   5 -11  122.29   11.20
  -5  -7  11  109.49   10.60
  -7   5  11   97.39   10.50
  -5  -7  11  109.59   10.90
   7  -6 -11  112.59   20.10
   7  -6 -11   78.39    8.80
   6   7 -11   82.89   10.50
   6   7 -11   95.79    8.90
   7  -6 -11   89.29    8.40
  -7   6 -11  102.89   10.30
   6   7 -11  121.19   15.10
  -6  -7  11   96.29    9.60
  -6  -7  11  100.19   10.00
  -7   6  11   99.39    9.90
  -7   7 -11  220.38   20.50
   7  -7 -11  252.77   20.40
  -7   7 -11  278.77   22.20
   7  -7 -11  238.18   28.30
   7   7 -11  258.67   20.40
   7   7 -11  289.37   26.20
  -7   7  11  266.57   21.40
  -7  -7  11  245.18   21.50
  -7  -7  11  247.98   20.70
  -7   8 -11  224.38   19.60
   7  -8 -11  210.48   17.60
   7  -8 -11  188.38   24.90
   8   7 -11  245.48   23.70
  -7   8 -11  178.38   17.70
   8   7 -11  222.18   17.80
  -7   8  11  222.98   18.80
  -8  -7  11  217.78   19.20
  -8  -7  11  219.28   18.20
   8   6 -11   11.00    6.10
  -6   8 -11    9.30    4.20
   6  -8 -11    4.50    6.30
   6  -8 -11    4.60    2.40
   8   6 -11    5.90    2.60
  -6   8 -11    5.10    2.40
  -8  -6  11    8.00    3.30
  -6   8  11    7.00    3.10
  -8  -6  11    6.60    3.50
  -5   8 -11  550.34   47.10
  -8  -5 -11  620.54   45.50
   8   5 -11  729.13   52.29
   5  -8 -11  644.24   47.00
  -5   8 -11  708.83   49.90
   5  -8 -11  529.85   52.89
   8   5 -11  625.04   47.10
  -8  -5  11  649.43   48.80
  -8  -5  11  594.54   47.40
  -5   8  11  664.83   47.80
  -4   8 -11    6.20    3.90
   8   4 -11   13.40    6.10
  -8  -4 -11   13.90    1.90
  -4   8 -11    5.70    2.40
   4  -8 -11    9.40    2.70
   8   4 -11   10.80    2.90
  -4   8 -11   12.70    6.00
   4  -8 -11   12.30    6.20
  -8  -4  11   10.50    3.50
  -8  -4  11    5.60    3.30
  -8  -4  11    7.80    3.10
  -4   8  11   17.80    3.60
   4  -8  11   15.00    3.50
   8   3 -11  774.92   58.59
   3  -8 -11  790.32   58.19
   8   3 -11  891.11   62.39
  -3   8 -11  874.31   61.49
   8   3 -11  773.42   58.29
  -3   8 -11  938.61   63.19
  -8  -3 -11  761.82   57.39
  -3   8 -11  698.23   58.29
   3  -8 -11  739.33   63.69
  -8  -3  11  729.73   58.79
   3  -8  11  796.32   58.69
  -8  -3  11  772.12   60.09
  -3   8  11  783.12   58.69
   3  -8  11  820.02   58.49
  -8  -3  11  793.32   59.29
  -2   8 -11  104.99   10.30
   2  -8 -11  115.39   15.00
  -2   8 -11  152.18   16.40
   2  -8 -11  123.49   10.30
   8   2 -11  138.79   14.30
   8   2 -11  125.69   10.80
  -8  -2 -11  115.79    9.70
  -2   8 -11  129.89   13.10
   8   2 -11  119.29   10.40
   2  -8  11  114.09   10.80
  -8  -2  11  118.79   12.20
  -2   8  11  119.59   10.60
  -8  -2  11  107.39   11.10
  -8  -2  11  113.59   11.20
   2  -8  11  114.39   10.70
   8   1 -11  152.38   14.30
   8   1 -11  127.59   11.50
  -8  -1 -11  136.69   10.90
   1  -8 -11  133.39   15.60
  -1   8 -11  114.79   12.50
  -1   8 -11  148.19   16.80
  -1   8 -11  147.89   14.20
  -1   8 -11  119.39   11.30
   1  -8 -11  134.29   11.10
   1  -8  11  126.09   11.60
   1  -8  11  127.09   11.60
  -8  -1  11  137.09   13.20
  -1   8  11  125.29   11.30
  -8  -1  11  130.89   12.10
   0   8 -11    0.30    2.80
   0   8 -11   10.20    2.50
  -8   0 -11    2.70    1.60
   8   0 -11   -1.50    2.80
   0   8 -11    1.40    2.40
   0  -8 -11    1.40    3.70
   0   8 -11    1.80    5.00
   8   0 -11   -0.70    1.80
   0  -8  11    0.90    2.30
   0  -8  11    0.20    1.70
  -8   0  11    5.30    2.50
   0   8  11    2.50    1.90
   1   8 -11  131.29   13.50
  -8   1 -11  143.39   11.30
   8  -1 -11  125.09   11.50
   1   8 -11  157.18   17.30
   8  -1 -11  144.19   12.50
   1   8 -11  118.09   12.30
  -1  -8 -11  114.89   14.30
   1   8 -11  129.79   11.30
  -1  -8  11  124.49   11.60
   1   8  11  125.89   11.30
  -8   1  11  124.99   12.00
  -1  -8  11  132.69   11.70
  -8   2 -11  125.49   10.30
   2   8 -11  124.59   13.00
  -2  -8 -11  130.69   14.50
   2   8 -11  130.09   16.30
   2   8 -11  115.39   10.70
   8  -2 -11  130.69   11.20
  -8   2 -11  127.19   10.90
   8  -2 -11  116.59   11.00
   2   8  11  124.89   10.90
  -2  -8  11  125.79   11.40
  -8   2  11  120.29   11.70
  -2  -8  11  121.19   11.30
  -8   3 -11  900.61   60.69
  -3  -8 -11  852.51   63.69
   3   8 -11  753.22   62.29
  -8   3 -11  862.81   60.19
   8  -3 -11  717.73   60.29
   8  -3 -11  854.11   59.69
   3   8 -11  913.21   65.99
   3   8 -11  793.12   60.19
  -3  -8  11  779.22   60.29
  -8   3  11  821.02   61.29
  -3  -8  11  753.32   60.69
   3   8  11  825.12   60.29
   4   8 -11   10.00    4.10
   8  -4 -11   13.80    2.00
   4   8 -11    7.90    5.80
   4   8 -11   11.40    2.90
  -8   4 -11   12.30    3.20
  -8   4 -11    7.70    2.70
   8  -4 -11    6.60    2.60
  -4  -8  11    8.80    3.20
  -4  -8  11    8.00    3.10
  -8   4  11   12.50    3.70
   4   8  11   14.70    3.40
   5   8 -11  742.43   56.29
   8  -5 -11  695.63   60.69
   5   8 -11  682.13   50.59
  -8   5 -11  760.02   51.49
   8  -5 -11  628.64   50.59
   5   8 -11  638.74   52.59
  -5  -8  11  693.63   51.49
  -5  -8  11  640.94   50.59
  -8   5  11  656.93   51.49
   8  -6 -11    7.10    2.40
   8  -6 -11   11.60    3.20
  -8   6 -11    9.90    3.50
   6   8 -11   11.30    6.50
   6   8 -11    7.40    3.80
   8  -6 -11    5.90    6.60
   6   8 -11    4.40    2.20
  -8   6 -11    6.30    3.00
  -6  -8  11    8.40    3.20
  -8   6  11    4.30    2.80
  -6  -8  11    3.10    2.70
   8  -7 -11  207.98   18.30
   7   8 -11  281.07   25.20
   8  -7 -11  237.48   17.70
   7   8 -11  228.58   18.40
   8  -7 -11  221.08   27.20
   7   8 -11  200.78   20.20
  -8   7 -11  236.98   19.70
  -8   7  11  212.38   19.30
  -7  -8  11  213.08   18.60
  -7  -8  11  219.78   19.60
   8  -8 -11   36.60    5.60
   8   8 -11   28.70    5.10
  -8   8 -11   34.00    6.50
   8  -8 -11   27.80   11.20
   8   8 -11   36.30   10.00
  -8   8  11   38.60    6.50
  -8  -8  11   26.70    5.90
  -8  -8  11   37.20    5.70
   9   8 -11   62.99   12.80
   8  -9 -11   29.90   11.40
   8  -9 -11   42.90    5.80
   9   8 -11   52.19    6.10
  -8   9 -11   43.20    7.50
  -9  -8  11   38.80    7.10
  -8   9  11   36.90    7.00
  -9  -8  11   45.10    6.70
   7  -9 -11  492.75   38.50
   7  -9 -11  451.35   46.30
   9   7 -11  592.64   44.80
  -7   9 -11  416.56   38.70
   9   7 -11  514.55   38.90
  -7   9 -11  545.65   41.10
  -9  -7  11  516.95   39.10
  -7   9  11  533.25   40.00
  -9  -7  11  528.95   40.70
  -6   9 -11    2.70    2.30
  -6   9 -11    1.50    3.50
   6  -9 -11   -0.20    4.90
   9   6 -11   17.60    3.60
   9   6 -11    9.20    6.20
   6  -9 -11   18.30    3.60
   6  -9  11    5.10    2.90
  -9  -6  11    4.60    3.40
  -6   9  11    6.60    3.20
  -9  -6  11    5.50    3.30
   5  -9 -11   77.09    7.50
  -5   9 -11   67.49    9.70
   5  -9 -11   84.09   16.10
   9   5 -11   97.09   13.30
  -9  -5 -11   67.79    5.80
  -5   9 -11   62.79    7.60
   9   5 -11   67.59    7.60
  -9  -5  11   67.89    8.50
   5  -9  11   84.39    8.50
  -9  -5  11   83.49    9.60
   5  -9  11   74.39    7.90
  -5   9  11   74.29    8.10
   4  -9 -11   17.10    7.60
  -9  -4 -11   17.50    2.30
   9   4 -11   18.50    3.70
   4  -9 -11   19.80    3.70
  -4   9 -11   24.10    6.30
   9   4 -11   21.40    7.00
  -4   9 -11   18.10    3.90
  -9  -4  11   23.00    4.90
  -9  -4  11   20.60    5.10
  -9  -4  11   25.60    4.80
   4  -9  11   20.90    4.30
  -4   9  11   18.80    4.10
   4  -9  11   18.20    3.90
  -3   9 -11   77.79    8.20
  -3   9 -11   87.99   10.80
  -9  -3 -11   79.79    7.00
   9   3 -11   81.89    8.40
   3  -9 -11   76.49    7.80
   9   3 -11   80.39    8.10
   3  -9 -11   91.69   15.10
   9   3 -11   99.59   12.70
  -9  -3  11   84.89    9.30
   3  -9  11   87.39    8.80
  -3   9  11   84.59    8.70
   3  -9  11   89.59    8.60
  -9  -3  11   72.69    9.50
  -9  -3  11   84.39    9.30
   2  -9 -11   66.09   12.30
   9   2 -11   81.39   10.90
  -2   9 -11   73.79    9.40
   9   2 -11   57.29    6.80
  -9  -2 -11   59.09    5.70
  -2   9 -11   59.39    6.50
   9   2 -11   63.59    6.50
  -9  -2  11   56.39    7.80
  -9  -2  11   58.19    7.40
  -9  -2  11   54.49    8.60
   2  -9  11   61.39    7.40
   2  -9  11   58.09    6.80
  -1   9 -11  211.38   18.30
   9   1 -11  218.08   18.60
  -9  -1 -11  233.98   17.90
   9   1 -11  259.47   21.50
  -1   9 -11  242.18   21.30
   1  -9 -11  236.58   23.00
   1  -9  11  221.88   18.70
   1  -9  11  224.08   18.60
  -9  -1  11  246.48   19.60
  -9  -1  11  202.78   20.20
  -9  -1  11  225.08   19.40
   0   9 -11   56.99   12.20
  -9   0 -11   45.90    5.40
   9   0 -11   53.79    6.20
   9   0 -11   57.09    8.50
   0   9 -11   57.49    9.20
   0  -9 -11   60.19   10.80
   0   9 -11   50.69    5.90
  -9   0  11   55.89    6.90
  -9   0  11   53.29    8.60
   0  -9  11   45.30    6.50
   0  -9  11   52.69    6.20
   9  -1 -11  214.98   18.70
  -9   1 -11  232.18   18.30
   1   9 -11  249.68   24.80
  -1  -9 -11  242.38   22.40
   1   9 -11  221.18   20.90
   9  -1 -11  265.67   19.90
   1   9 -11  223.78   18.50
  -9   1  11  211.98   19.40
  -1  -9  11  229.08   18.80
  -1  -9  11  222.48   18.90
  -9   2 -11   66.09    6.90
   2   9 -11   69.89    7.00
   9  -2 -11   57.99    7.00
   2   9 -11   66.59    9.10
  -2  -9 -11   66.39   10.80
   9  -2 -11   70.59    7.70
   2   9 -11   63.19   12.40
  -9   2  11   61.99    7.80
  -2  -9  11   61.49    7.30
  -2  -9  11   67.29    7.60
   3   9 -11   75.49   10.10
   3   9 -11   83.29    8.20
  -9   3 -11   82.09    8.30
   9  -3 -11   87.69    8.00
   9  -3 -11   74.09    8.30
  -9   3 -11   94.59    8.00
   3   9 -11   82.19   13.90
  -3  -9  11   88.09    8.90
  -9   3  11   71.39    8.90
  -3  -9  11   82.89    8.80
   4   9 -11   24.50    5.80
   4   9 -11   21.00    8.20
   4   9 -11   20.20    3.80
  -9   4 -11   17.10    3.90
   9  -4 -11   17.70    4.10
   9  -4 -11   19.60    2.90
  -9   4 -11   20.90    3.90
  -4  -9  11   20.90    4.20
  -9   4  11   18.70    4.60
  -4  -9  11   21.40    4.50
   5   9 -11   65.99    9.50
  -9   5 -11   85.69    8.30
   9  -5 -11   64.39    7.60
   9  -5 -11   86.69   17.80
   5   9 -11   73.89    7.70
   5   9 -11   60.59   12.50
  -9   5  11   76.19    8.80
  -5  -9  11   68.39    8.40
  -5  -9  11   79.59    8.50
  -9   6 -11    4.40    2.80
   6   9 -11    2.50    3.40
   9  -6 -11    3.30    6.90
   9  -6 -11    3.30    2.40
   6   9 -11   11.30    6.90
   6   9 -11    4.10    2.30
   9  -6 -11    4.80    2.40
  -6  -9  11    7.80    3.20
  -9   6  11    6.20    3.40
  -6  -9  11    4.10    3.00
  -9   7 -11  573.04   41.80
   9  -7 -11  539.15   40.10
   7   9 -11  604.74   47.10
   7   9 -11  525.25   40.60
   7   9 -11  520.15   43.00
   9  -7 -11  497.05   40.60
   9  -7 -11  509.25   50.49
  -7  -9  11  558.94   40.90
  -7  -9  11  507.25   41.80
  -9   7  11  522.85   42.10
   9  -8 -11   62.69   16.60
  -9   8 -11   64.69    8.80
   8   9 -11   53.79    6.50
  -9   8 -11   52.49    8.20
   9  -8 -11   44.20    6.30
  -8  -9  11   45.40    7.70
  -9   8  11   51.89    8.40
  -8  -9  11   49.00    7.10
  10   7 -11    7.30    6.20
  -7  10 -11    2.80    2.60
   7 -10 -11    1.20    2.10
   7 -10 -11    0.00    5.80
  10   7 -11    1.90    2.30
   7 -10  11    4.40    3.50
 -10  -7  11    6.40    3.50
   7 -10  11    0.10    2.60
 -10  -7  11    2.70    3.40
   6 -10 -11  144.59   23.70
  10   6 -11  161.48   18.70
  -6  10 -11  196.08   16.80
  -6  10 -11  130.79   13.50
   6 -10 -11  141.49   13.00
  10   6 -11  137.59   13.40
   6 -10  11  170.98   14.10
 -10  -6  11  150.98   14.20
   6 -10  11  176.08   14.10
 -10  -6  11  126.59   14.80
 -10  -5 -11  351.16   30.10
  -5  10 -11  432.66   35.10
   5 -10 -11  364.16   38.20
  -5  10 -11  370.46   32.10
  10   5 -11  508.45   37.70
  10   5 -11  438.56   32.40
   5 -10 -11  413.26   32.00
 -10  -5  11  390.46   34.10
   5 -10  11  487.85   32.50
 -10  -5  11  378.96   32.60
   5 -10  11  482.55   32.90
 -10  -4 -11  247.28   20.70
  10   4 -11  291.57   22.50
  -4  10 -11  343.37   26.30
  10   4 -11  338.57   27.40
   4 -10 -11  244.28   27.70
  -4  10 -11  240.08   22.20
 -10  -4  11  255.37   23.00
 -10  -4  11  289.57   24.00
   4 -10  11  316.17   22.70
 -10  -4  11  262.57   24.40
   4 -10  11  298.67   22.90
  10   3 -11  289.37   24.30
   3 -10 -11  242.58   25.20
  -3  10 -11  220.68   19.50
  10   3 -11  231.18   19.50
  -3  10 -11  258.37   22.90
 -10  -3 -11  217.88   18.30
 -10  -3  11  260.97   21.30
 -10  -3  11  226.78   20.50
   3 -10  11  254.97   20.10
   3 -10  11  256.27   20.00
 -10  -3  11  247.38   22.00
  -2  10 -11  137.59   14.70
  10   2 -11  130.99   12.10
  10   2 -11  180.98   16.40
  -2  10 -11  140.59   18.80
   2 -10 -11  128.09   16.20
 -10  -2 -11  125.59   10.70
  -2  10 -11  126.89   11.70
 -10  -2  11  117.79   12.70
 -10  -2  11  130.19   13.00
 -10  -2  11  118.09   13.70
   2 -10  11  128.89   12.00
   2 -10  11  133.79   12.10
  -1  10 -11    2.60    2.20
 -10  -1 -11    2.30    1.50
  -1  10 -11    3.80    3.80
   1 -10 -11    5.90    4.40
  10   1 -11    1.70    2.30
  10   1 -11    3.10    4.30
  -1  10 -11    0.20    6.40
   1 -10  11    2.50    2.90
 -10  -1  11    5.40    3.00
 -10  -1  11    4.30    3.40
   1 -10  11    4.00    2.50
 -10  -1  11    2.50    3.30
   0  10 -11    2.90    3.50
   0 -10 -11   -2.40    3.40
   0  10 -11   -4.00    6.10
   0  10 -11    4.50    2.40
 -10   0 -11    1.60    1.60
  10   0 -11    2.90    3.70
  10   0 -11   -0.70    2.00
 -10   0  11    6.60    3.20
   0 -10  11    1.30    2.60
 -10   0  11    5.90    4.00
   0 -10  11    1.70    2.00
   1  10 -11    7.40    4.40
  10  -1 -11    3.60    2.60
  10  -1 -11    3.30    3.20
   1  10 -11    6.60    7.00
  -1 -10 -11    4.40    4.20
 -10   1 -11    2.60    1.90
   1  10 -11    3.00    2.00
  -1 -10  11   10.10    3.30
  -1 -10  11    8.90    3.30
  10  -2 -11  118.39   11.80
   2  10 -11  157.58   19.30
  10  -2 -11  143.49   12.40
  -2 -10 -11  134.09   15.20
   2  10 -11  129.59   14.00
   2  10 -11  122.99   11.40
 -10   2 -11  125.89   11.30
 -10   2  11  126.89   12.80
  -2 -10  11  128.99   11.90
  -2 -10  11  125.89   12.00
   3  10 -11  239.58   19.50
  10  -3 -11  221.18   19.80
   3  10 -11  231.48   21.90
  10  -3 -11  270.47   19.50
   3  10 -11  256.27   26.30
 -10   3 -11  233.78   19.40
 -10   3  11  232.68   20.90
  -3 -10  11  243.28   19.80
  -3 -10  11  237.18   20.20
   4  10 -11  348.97   30.40
 -10   4 -11  292.37   23.10
  10  -4 -11  243.38   23.00
   4  10 -11  293.07   22.90
  10  -4 -11  290.27   22.00
   4  10 -11  314.17   25.90
 -10   4 -11  319.97   22.90
  -4 -10  11  282.17   23.70
 -10   4  11  265.67   24.30
  -4 -10  11  272.37   23.10
 -10   5 -11  476.15   32.90
   5  10 -11  380.16   34.70
   5  10 -11  468.25   39.30
  10  -5 -11  380.26   32.80
   5  10 -11  446.46   32.70
 -10   5  11  398.76   34.10
  -5 -10  11  420.96   32.70
  -5 -10  11  417.16   33.50
   6  10 -11  142.99   15.80
  10  -6 -11  194.18   29.60
  10  -6 -11  143.69   13.70
  10  -6 -11  147.19   13.60
 -10   6 -11  182.48   14.20
   6  10 -11  155.58   13.50
 -10   6  11  151.48   15.10
  -6 -10  11  155.78   14.60
  -6 -10  11  137.39   13.60
  10  -7 -11   -0.40    6.20
   7  10 -11    1.30    2.40
  10  -7 -11    4.70    2.90
  10  -7 -11    3.90    2.20
 -10   7  11    0.60    3.00
  -7 -10  11    4.20    3.10
  -7 -10  11    3.40    3.00
  -5  11 -11   26.40    6.80
  11   5 -11   29.00    8.50
 -11  -5 -11   18.10    2.20
  -5  11 -11   23.00    4.60
  11   5 -11   25.60    4.90
   5 -11 -11   17.70    8.20
 -11  -5  11   23.30    6.10
   5 -11  11   22.10    4.70
 -11  -5  11   21.60    5.20
   5 -11  11   17.80    4.20
  -4  11 -11   77.69    8.30
  11   4 -11   80.49    8.50
 -11  -4 -11   68.49    6.60
   4 -11 -11   80.09   14.90
  -4  11 -11   95.29   11.90
  11   4 -11  107.79   14.00
 -11  -4  11   79.59   10.00
 -11  -4  11   85.39   10.80
   4 -11  11   95.39    9.30
   4 -11  11   82.19    8.80
 -11  -4  11   76.49    9.70
   3 -11 -11    3.20    5.10
  -3  11 -11    2.30    2.40
  -3  11 -11    4.10    4.00
 -11  -3 -11    2.10    1.30
  11   3 -11    4.90    2.60
  11   3 -11    5.10    5.10
   3 -11  11    1.60    2.50
   3 -11  11    1.60    3.00
 -11  -3  11    4.50    3.30
 -11  -3  11    2.60    3.30
 -11  -3  11    0.90    2.90
 -11  -2 -11  233.88   19.10
  -2  11 -11  248.38   20.40
  11   2 -11  253.77   21.00
  11   2 -11  310.57   24.60
  -2  11 -11  272.47   24.00
   2 -11 -11  249.88   25.40
   2 -11  11  264.57   20.60
 -11  -2  11  244.68   21.50
   2 -11  11  249.48   20.70
 -11  -2  11  237.18   21.80
 -11  -2  11  213.08   22.40
   1 -11 -11    8.80    5.40
 -11  -1 -11    7.80    2.20
  11   1 -11   13.60    5.60
  -1  11 -11   11.00    3.20
  -1  11 -11    7.50    4.80
  -1  11 -11   20.90   10.00
  11   1 -11    8.80    3.40
   1 -11  11   10.90    3.60
 -11  -1  11    7.40    4.30
 -11  -1  11   10.90    4.20
   1 -11  11   10.30    3.40
 -11  -1  11    7.50    3.60
   0 -11 -11  405.26   34.00
   0  11 -11  368.96   29.20
 -11   0 -11  367.96   28.50
  11   0 -11  402.66   30.10
   0  11 -11  422.36   33.00
   0 -11  11  362.56   29.60
 -11   0  11  372.36   30.70
 -11   0  11  377.66   30.90
   0 -11  11  368.26   29.30
 -11   0  11  331.67   31.70
   1  11 -11    9.80    8.20
  -1 -11 -11   14.90    5.70
   1  11 -11    7.60    4.30
  11  -1 -11    7.70    3.40
 -11   1 -11    8.80    2.50
  11  -1 -11   17.20    4.80
   1  11 -11    8.70    2.80
  -1 -11  11   10.50    3.50
 -11   1  11    6.20    6.10
 -11   1  11    8.80    4.00
  -1 -11  11    8.60    3.20
   2  11 -11  269.07   28.50
   2  11 -11  269.97   24.10
 -11   2 -11  265.17   20.70
   2  11 -11  270.27   21.10
  -2 -11 -11  270.07   24.80
  11  -2 -11  229.48   21.40
  11  -2 -11  299.27   22.00
 -11   2  11  229.88   22.40
  -2 -11  11  255.87   21.20
  -2 -11  11  255.27   21.70
  11  -3 -11    0.80    2.50
   3  11 -11    4.50    3.70
 -11   3 -11    4.20    2.20
   3  11 -11    3.50    6.70
  11  -3 -11    4.30    2.90
   3  11 -11    1.10    2.20
  -3 -11  11    5.50    3.10
 -11   3  11   -0.10    2.70
  -3 -11  11    3.50    2.60
 -11   4 -11   74.99    8.40
  11  -4 -11   89.19    8.00
   4  11 -11   88.09    8.70
   4  11 -11   63.69   11.00
   4  11 -11   86.59   15.80
  11  -4 -11   74.09    9.00
 -11   4 -11  101.99    8.50
  -4 -11  11   91.79    9.30
 -11   4  11   79.59   10.10
  -4 -11  11   84.59    9.40
   5  11 -11   26.50    4.60
  11  -5 -11   28.30    3.30
 -11   5 -11   27.60    4.60
  11  -5 -11   26.50    5.30
  -5 -11  11   25.10    4.80
  -5 -11  11   20.00    4.90
 -11   5  11   21.20    5.80
   2 -12 -11  136.99   17.40
  -2  12 -11  175.58   17.10
  -2  12 -11  138.59   12.70
 -12  -2 -11  133.89   11.40
  12   2 -11  184.78   17.30
 -12  -2  11  136.49   14.50
   2 -12  11  133.59   13.00
 -12  -2  11  146.89   14.60
 -12  -2  11  119.69   15.10
   2 -12  11  137.09   12.90
  -1  12 -11   13.60    5.60
   1 -12 -11   10.80    6.00
 -12  -1 -11    7.20    2.10
  12   1 -11    6.40    3.60
  -1  12 -11   -4.90    7.70
  -1  12 -11    8.60    3.10
  12   1 -11   10.50    5.40
   1 -12  11    6.00    3.40
 -12  -1  11    7.40    4.20
 -12  -1  11    6.00    3.60
   1 -12  11    7.90    3.10
 -12  -1  11    7.60    4.40
   0  12 -11   -8.50    7.00
  12   0 -11    1.20    3.90
   0  12 -11   -3.80    3.00
 -12   0 -11    2.20    1.70
   0 -12 -11   -0.30    4.20
  12   0 -11    1.80    2.90
   0  12 -11    2.10    2.20
   0 -12  11   -0.30    2.80
 -12   0  11    1.20    2.90
 -12   0  11    3.30    3.90
 -12   0  11    2.20    3.80
   0 -12  11   -1.60    1.90
 -12   1 -11    7.60    2.30
  -1 -12 -11   10.80    5.90
   1  12 -11    6.50    2.70
  12  -1 -11    8.60    4.50
   1  12 -11    3.90    4.10
   1  12 -11    5.60    8.40
  12  -1 -11    3.70    3.10
  -1 -12  11    8.50    3.50
 -12   1  11    8.70    4.80
 -12   1  11    6.40    3.70
  -1 -12  11    6.00    3.00
 -12   1  11   10.00    5.10
  12  -2 -11  137.39   13.80
   2  12 -11  146.49   13.00
  12  -2 -11  177.88   14.40
 -12   2 -11  152.18   12.60
   2  12 -11  187.98   22.80
 -12   2  11  116.99   14.30
  -2 -12  11  137.09   13.60
  -2 -12  11  141.49   13.20
   0   0 -12 2511.35  181.28
   0   0 -12 2512.55  181.08
   0   0  12 2531.05  181.18
   1   0 -12   -1.10    1.10
  -1   0 -12    3.10    1.80
   1   0 -12    0.30    1.60
   0   1 -12    1.40    1.30
   0  -1 -12   10.10    2.50
  -1   0 -12    1.80    1.90
   0   1 -12    1.50    1.70
   0  -1 -12    1.40    1.30
   1   0  12    0.50    1.40
   0  -1  12    5.90    2.00
   0   1  12    4.20    1.90
  -1   0  12    1.40    1.60
  -1   1 -12  447.56   31.50
   1   1 -12  422.46   31.50
  -1  -1 -12  404.66   31.20
   1   1 -12  414.26   31.50
   1   1 -12  454.95   31.30
  -1   1 -12  397.76   31.60
  -1   1 -12  405.56   31.30
   1  -1 -12  416.96   31.50
  -1  -1 -12  409.06   31.50
   1  -1 -12  396.36   31.40
   1   1  12  410.46   31.40
  -1  -1  12  434.56   31.50
   1  -1  12  401.96   31.40
  -1   1  12  409.16   31.40
   1  -2 -12  885.91   64.99
  -1   2 -12  976.40   64.39
   2   1 -12 1013.90   65.09
   2   1 -12  826.62   65.09
  -1   2 -12  818.12   65.09
   2   1 -12  833.02   64.89
  -1   2 -12  886.91   64.89
  -2  -1 -12  896.21   64.69
  -1   2 -12  867.51   64.89
   2   1 -12  936.21   64.69
  -1   2 -12  822.32   65.49
  -2  -1 -12  895.21   65.19
  -1   2  12  884.91   64.99
  -2  -1  12  892.41   65.09
   1  -2  12  853.21   64.89
  -2   0 -12  291.97   22.20
  -2   0 -12  280.67   21.70
  -2   0 -12  274.77   22.20
   0   2 -12  258.57   22.00
   0   2 -12  310.57   22.10
   0   2 -12  283.27   22.00
   2   0 -12  269.67   22.10
   0  -2 -12  292.37   22.00
   0   2 -12  293.67   21.90
   0   2 -12  282.37   22.90
   0  -2 -12  289.27   22.00
   2   0 -12  280.97   22.00
   0  -2  12  279.37   21.90
  -2   0  12  293.87   22.10
   0   2  12  268.17   21.90
  -1  -2 -12  863.51   62.49
  -2   1 -12  850.91   62.49
   2  -1 -12  855.71   62.59
   1   2 -12  885.91   62.99
   1   2 -12  817.02   62.59
   1   2 -12  803.92   62.59
  -2   1 -12  882.71   62.79
   1   2 -12  901.11   62.49
   1   2 -12  779.22   63.59
  -2   1 -12  842.62   62.89
  -1  -2 -12  885.41   62.69
  -1  -2  12  913.51   62.79
   1   2  12  816.92   62.59
  -2   1  12  851.41   62.69
  -2   2 -12 2389.26  176.88
   2   2 -12 2618.54  176.38
  -2   2 -12 2458.45  176.48
  -2  -2 -12 2499.25  176.68
   2  -2 -12 2433.36  176.58
   2   2 -12 2250.67  176.68
  -2   2 -12 2306.27  176.98
   2   2 -12 2550.44  177.38
  -2  -2 -12 2465.55  176.18
   2   2 -12 2310.87  176.58
  -2   2 -12 2466.65  176.68
  -2   2  12 2541.15  176.78
  -2  -2  12 2598.84  176.78
  -3  -2 -12   45.80    5.50
  -3  -2 -12   47.90    4.80
   3   2 -12   47.70    5.20
  -2   3 -12   35.00    5.60
  -2   3 -12   44.40    5.20
   3   2 -12   45.40    4.80
  -2   3 -12   41.90    5.00
   3   2 -12   61.69    7.10
   2  -3 -12   45.90    5.30
  -2   3 -12   43.70    5.80
  -2   3 -12   53.29    5.60
  -3  -2  12   47.00    5.40
  -2   3  12   49.60    5.40
  -1   3 -12  405.56   32.60
  -1   3 -12  378.76   33.10
  -3  -1 -12  414.66   32.60
  -1   3 -12  422.96   32.30
   3   1 -12  396.96   32.20
   1  -3 -12  445.86   32.40
  -1   3 -12  433.46   32.70
   3   1 -12  450.65   32.00
   3   1 -12  487.65   32.90
  -3  -1 -12  432.76   32.00
  -1   3 -12  419.66   32.20
  -3  -1  12  441.36   32.50
   1  -3  12  428.76   32.30
  -1   3  12  432.66   32.40
   3   0 -12    0.90    1.60
   0   3 -12    1.50    1.90
   0   3 -12    0.60    1.30
   0  -3 -12    1.50    1.50
  -3   0 -12    9.20    2.00
   0   3 -12    2.00    1.50
   3   0 -12    1.70    1.60
  -3   0 -12   -0.10    1.80
  -3   0 -12    0.80    1.70
   0   3 -12    1.20    2.40
   0   3 -12    2.40    2.20
  -3   0  12    4.00    1.90
   0  -3  12    3.30    1.70
   0   3  12    0.80    1.50
  -3   1 -12  440.06   31.70
  -3   1 -12  398.46   32.10
  -3   1 -12  434.46   32.10
   1   3 -12  387.96   31.80
   3  -1 -12  411.76   31.70
  -3   1 -12  424.86   31.60
  -1  -3 -12  422.96   31.60
   1   3 -12  439.66   31.60
  -1  -3 -12  421.76   31.80
   1   3 -12  394.86   32.80
   1   3 -12  424.16   32.00
   1   3 -12  402.56   33.10
  -3   1  12  437.26   32.00
  -1  -3  12  449.66   31.90
   1   3  12  411.56   31.80
   2   3 -12   51.99    5.10
  -3   2 -12   40.60    5.30
   2   3 -12   43.80    7.00
  -3   2 -12   44.50    5.10
   2   3 -12   50.09    5.50
  -2  -3 -12   44.60    4.80
  -3   2 -12   46.70    5.40
   3  -2 -12   45.80    5.30
  -2  -3 -12   54.59    5.50
   2   3 -12   56.99    7.60
  -3   2 -12   42.90    5.70
  -3   2  12   44.60    5.20
   2   3  12   40.00    5.20
  -2  -3  12   51.19    5.40
  -3  -3 -12  939.71   65.99
   3  -3 -12  890.01   65.79
   3   3 -12  911.41   65.49
  -3  -3 -12  914.51   65.19
   3   3 -12  839.62   65.79
   3   3 -12  878.11   67.49
  -3   3 -12  836.12   65.79
  -3   3 -12 1024.40   65.19
  -3   3 -12  917.81   65.89
  -3   3 -12  808.52   66.19
  -3   3 -12  797.62   66.19
  -3  -3  12  969.90   66.09
  -3   3  12  914.81   65.99
  -3   4 -12  215.98   18.20
  -4  -3 -12  236.18   18.50
  -3   4 -12  202.58   19.10
   3  -4 -12  227.58   18.20
  -3   4 -12  201.88   18.70
  -4  -3 -12  224.28   17.50
   4   3 -12  227.08   20.50
  -3   4 -12  269.47   18.90
   4   3 -12  243.48   18.10
   4   3 -12  219.28   18.20
  -3   4 -12  242.58   18.50
  -4  -3  12  246.88   18.60
  -3   4  12  216.08   18.30
  -2   4 -12   71.09    7.60
  -2   4 -12   49.90    6.60
   4   2 -12   58.29    7.80
  -2   4 -12   63.39    6.30
   4   2 -12   60.19    5.80
  -4  -2 -12   62.79    5.60
  -2   4 -12   52.19    5.90
   2  -4 -12   55.29    6.00
  -2   4 -12   51.99    7.10
  -4  -2 -12   63.69    6.60
   4   2 -12   53.99    6.10
  -4  -2  12   65.79    6.50
  -2   4  12   65.19    6.40
   4   1 -12  173.28   13.00
  -1   4 -12  135.99   13.30
  -4  -1 -12  143.69   11.30
  -4  -1 -12  132.19   12.10
  -1   4 -12  132.79   12.10
   4   1 -12  122.09   11.60
  -1   4 -12  134.39   13.00
   1  -4 -12  143.09   11.70
  -1   4 -12  128.49   11.50
  -1   4 -12  143.69   13.10
  -1   4  12  135.59   11.70
  -4  -1  12  137.09   11.90
   1  -4  12  136.09   11.70
   0   4 -12    4.10    3.20
   0   4 -12    4.00    1.90
  -4   0 -12   11.50    2.40
  -4   0 -12    3.20    2.30
   0   4 -12    0.90    1.60
   4   0 -12    3.90    2.10
   0  -4 -12   10.20    2.40
   0   4 -12    4.80    2.60
   4   0 -12    8.90    2.50
  -4   0  12    4.20    2.10
   0   4  12    5.00    2.10
   0  -4  12    8.30    2.30
  -4   1 -12  156.18   11.70
   1   4 -12  137.59   13.50
  -4   1 -12  138.49   11.80
  -4   1 -12  137.99   12.40
   1   4 -12  122.59   13.60
   1   4 -12  138.69   11.80
  -4   1 -12  131.09   12.30
  -1  -4 -12  143.09   12.00
   1   4 -12  144.29   12.30
   4  -1 -12  164.38   11.00
   4  -1 -12  130.19   11.80
   1   4  12  130.49   11.90
  -4   1  12  139.59   12.20
  -1  -4  12  148.89   12.00
  -2  -4 -12   58.69    6.10
   2   4 -12   54.69    7.50
   2   4 -12   61.59    6.30
  -4   2 -12   52.29    6.20
   2   4 -12   54.09    8.70
  -4   2 -12   58.49    6.10
  -4   2 -12   58.99    6.00
   2   4 -12   58.99    5.90
   4  -2 -12   57.79    6.00
  -4   2 -12   50.59    6.60
   2   4  12   54.49    6.00
  -2  -4  12   68.99    6.30
  -4   2  12   54.19    6.10
   3   4 -12  256.37   17.70
   3   4 -12  208.08   17.70
  -4   3 -12  205.08   18.30
  -3  -4 -12  231.38   17.80
  -4   3 -12  240.68   17.90
  -3  -4 -12  218.78   17.10
  -4   3 -12  211.28   17.90
   3   4 -12  212.48   19.40
   4  -3 -12  214.18   17.60
   3   4 -12  220.08   20.30
  -4   3 -12  199.58   18.00
  -4   3  12  209.98   17.80
  -3  -4  12  241.98   18.00
  -3  -4  12  215.68   18.30
   4  -4 -12  166.28   14.00
  -4   4 -12  166.48   14.10
  -4  -4 -12  170.78   13.20
   4   4 -12  144.89   16.50
   4   4 -12  170.78   13.80
  -4   4 -12  147.09   14.60
  -4  -4 -12  171.98   14.10
  -4   4 -12  155.88   14.00
  -4   4 -12  198.88   14.10
  -4   4 -12  168.48   14.90
   4   4 -12  160.98   14.00
  -4  -4  12  160.78   14.50
  -4  -4  12  185.68   14.40
  -4   4  12  166.68   14.20
  -4   5 -12  503.45   42.40
   4  -5 -12  545.25   48.80
  -4   5 -12  659.13   42.60
  -5  -4 -12  535.65   40.50
  -4   5 -12  545.85   42.90
   5   4 -12  559.34   44.80
   5   4 -12  520.45   41.60
  -5  -4 -12  565.94   41.90
  -4   5 -12  503.55   41.60
   4  -5 -12  569.04   41.60
   5   4 -12  537.75   41.30
  -5  -4  12  544.15   42.40
  -5  -4  12  615.84   42.20
  -5  -4  12  559.04   42.00
  -4   5  12  558.74   41.90
   5   3 -12  635.94   47.10
  -5  -3 -12  599.04   43.60
   3  -5 -12  582.74   50.79
  -3   5 -12  529.65   44.20
  -5  -3 -12  605.84   44.80
  -3   5 -12  581.44   45.90
   5   3 -12  614.94   44.10
  -3   5 -12  537.65   45.10
   5   3 -12  564.54   44.30
   3  -5 -12  589.74   44.30
  -3   5 -12  703.43   45.90
  -3   5  12  578.94   44.50
  -5  -3  12  626.74   44.80
  -5  -3  12  584.34   45.30
  -2   5 -12  225.58   18.20
   2  -5 -12  204.78   16.30
   5   2 -12  207.38   16.00
  -5  -2 -12  195.28   15.60
   5   2 -12  201.38   18.10
  -2   5 -12  184.58   16.90
   2  -5 -12  195.68   21.80
  -5  -2 -12  206.88   16.90
  -2   5 -12  201.98   18.00
  -2   5 -12  195.98   16.20
   5   2 -12  189.58   16.20
  -5  -2  12  214.68   16.80
  -2   5  12  200.28   16.40
   5   1 -12  288.07   25.30
  -5  -1 -12  335.37   26.20
  -1   5 -12  331.27   27.40
  -1   5 -12  298.27   26.00
   5   1 -12  341.87   26.70
   1  -5 -12  362.76   31.40
   1  -5 -12  343.97   25.50
  -5  -1 -12  340.37   25.20
  -1   5 -12  314.17   25.40
  -1   5 -12  327.27   27.30
  -5  -1  12  336.47   25.90
   1  -5  12  359.16   25.70
  -1   5  12  350.56   25.70
   0   5 -12    3.40    2.20
  -5   0 -12    4.90    2.50
   0   5 -12    0.30    2.20
   0   5 -12    1.60    1.50
   5   0 -12    1.80    2.10
   5   0 -12    0.80    1.70
  -5   0 -12    2.40    1.50
   0  -5 -12    4.60    2.10
   0   5 -12   21.90    5.40
   0  -5  12   -0.60    1.40
  -5   0  12   -1.10    1.60
   0   5  12    5.50    2.20
   1   5 -12  326.57   25.50
   5  -1 -12  306.47   25.60
   1   5 -12  317.27   27.50
   1   5 -12  313.27   28.10
  -5   1 -12  351.06   25.60
   5  -1 -12  377.36   25.20
  -1  -5 -12  336.87   25.60
   1   5 -12  304.27   26.00
  -5   1 -12  317.17   26.40
   1   5  12  324.37   25.70
  -5   1  12  343.47   26.10
  -1  -5  12  368.56   25.90
  -2  -5 -12  204.98   16.00
   5  -2 -12  193.58   16.20
   2   5 -12  191.68   16.40
   2   5 -12  204.48   18.20
   2   5 -12  196.78   15.90
  -5   2 -12  193.08   16.60
  -5   2 -12  227.08   16.30
  -5   2 -12  199.08   15.90
   2   5 -12  190.98   19.00
  -5   2 -12  180.88   16.80
   2   5  12  189.08   16.10
  -2  -5  12  219.88   16.30
  -2  -5  12  186.68   16.40
  -5   2  12  198.48   16.50
  -5   3 -12  543.85   44.60
   3   5 -12  620.94   47.80
  -5   3 -12  638.84   44.60
   3   5 -12  587.04   44.60
   5  -3 -12  546.65   44.30
  -3  -5 -12  602.64   44.30
   3   5 -12  611.64   44.30
  -5   3 -12  588.54   44.70
   3   5 -12  577.34   46.40
  -5   3 -12  556.24   45.20
  -5   3  12  582.14   44.80
   3   5  12  608.84   44.60
  -3  -5  12  583.14   44.90
  -3  -5  12  593.24   46.60
  -3  -5  12  684.93   44.80
   4   5 -12  539.35   41.60
   4   5 -12  541.75   43.50
   4   5 -12  559.24   41.30
  -5   4 -12  610.94   41.90
   5  -4 -12  527.65   41.40
  -5   4 -12  499.35   41.60
  -4  -5 -12  576.64   41.50
  -5   4 -12  514.25   42.00
   4   5 -12  571.04   45.20
  -4  -5  12  513.65   42.00
  -4  -5  12  621.44   41.90
  -5   4  12  561.54   41.90
  -4  -5  12  553.04   41.60
  -5   5 -12 1491.65  115.19
   5   5 -12 1646.64  118.19
  -5   5 -12 1377.26  114.19
   5  -5 -12 1514.75  122.39
   5   5 -12 1632.44  114.49
   5   5 -12 1588.34  114.09
   5  -5 -12 1581.94  114.19
  -5  -5  12 1772.22  114.79
  -5   5  12 1551.94  114.59
  -5  -5  12 1603.54  114.39
  -5  -5  12 1533.05  114.99
  -5   6 -12  273.17   24.00
   5  -6 -12  321.67   32.10
   6   5 -12  304.17   23.80
  -6  -5 -12  302.07   22.60
   6   5 -12  312.57   24.30
   5  -6 -12  303.77   24.00
  -5   6 -12  294.77   25.40
   6   5 -12  334.97   28.60
  -5   6  12  293.07   24.40
  -6  -5  12  304.47   24.30
  -6  -5  12  335.07   24.80
  -6  -5  12  309.97   25.20
  -4   6 -12  348.47   27.50
   6   4 -12  331.37   25.30
   4  -6 -12  323.07   32.20
   4  -6 -12  326.07   25.40
  -6  -4 -12  301.77   24.30
  -4   6 -12  288.27   25.40
   6   4 -12  338.47   25.70
  -6  -4 -12  355.46   26.10
   6   4 -12  348.47   29.30
  -6  -4  12  317.07   26.60
  -6  -4  12  320.17   25.90
  -6  -4  12  355.16   26.20
  -4   6  12  330.07   25.80
   6   3 -12  399.36   30.70
  -3   6 -12  381.16   32.00
  -6  -3 -12  414.16   31.60
   3  -6 -12  425.36   37.50
   6   3 -12  384.76   30.90
  -3   6 -12  477.95   33.40
  -6  -3 -12  387.96   30.00
   3  -6 -12  411.46   30.90
  -3   6 -12  422.46   33.10
   6   3 -12  427.86   33.90
  -3   6 -12  372.16   30.90
  -6  -3  12  389.46   32.10
  -3   6  12  398.56   31.20
  -6  -3  12  426.66   31.60
  -2   6 -12  271.87   21.90
   2  -6 -12  241.68   18.90
  -2   6 -12  218.98   19.90
  -2   6 -12  248.18   21.20
   6   2 -12  236.58   18.70
  -2   6 -12  208.38   18.90
  -6  -2 -12  242.98   19.80
   6   2 -12  253.27   21.30
   6   2 -12  214.88   18.90
  -6  -2 -12  249.28   18.40
   2  -6 -12  247.18   24.60
   2  -6  12  250.67   19.10
  -6  -2  12  234.68   19.50
  -2   6  12  247.88   19.30
  -1   6 -12  355.86   29.20
   1  -6 -12  353.06   31.50
   6   1 -12  379.86   28.00
  -1   6 -12  304.77   27.00
  -6  -1 -12  323.47   27.10
   6   1 -12  334.87   26.50
   1  -6 -12  365.46   26.40
  -1   6 -12  326.77   26.40
  -6  -1 -12  340.27   26.00
  -1   6 -12  335.37   28.50
   1  -6  12  359.96   26.50
  -6  -1  12  344.57   27.00
  -1   6  12  343.97   26.50
   0   6 -12 1037.60   77.19
   0   6 -12  989.20   75.59
  -6   0 -12 1041.60   74.69
   0   6 -12  989.20   74.79
   0  -6 -12 1115.39   80.19
   0  -6 -12 1081.59   74.79
  -6   0 -12 1022.30   75.79
   6   0 -12 1148.29   75.59
   0   6 -12 1003.40   77.69
   6   0 -12  932.11   74.79
   0  -6  12  943.01   74.99
   0   6  12 1033.00   74.99
  -6   0  12 1001.00   75.39
   1   6 -12  328.37   28.20
   1   6 -12  338.27   29.40
  -6   1 -12  322.27   26.80
   6  -1 -12  368.86   25.80
   1   6 -12  332.07   26.60
  -6   1 -12  362.86   26.00
  -1  -6 -12  340.77   25.80
  -1  -6 -12  356.86   30.60
   1   6 -12  322.57   25.90
   6  -1 -12  326.17   26.10
  -1  -6  12  328.27   26.30
  -6   1  12  308.87   26.40
   1   6  12  346.97   26.10
  -2  -6 -12  249.18   19.10
  -6   2 -12  254.77   19.40
   2   6 -12  229.58   19.70
   6  -2 -12  271.57   18.30
  -6   2 -12  274.97   19.10
   2   6 -12  234.28   21.30
   6  -2 -12  221.78   19.30
   2   6 -12  239.58   23.00
   2   6 -12  235.98   19.20
  -6   2  12  237.68   19.80
  -2  -6  12  246.78   19.60
  -2  -6  12  216.78   19.50
   2   6  12  222.58   19.30
   3   6 -12  430.26   31.10
   3   6 -12  389.26   33.20
  -6   3 -12  384.26   31.00
  -6   3 -12  437.76   31.40
   6  -3 -12  386.26   31.10
   3   6 -12  415.06   31.60
   3   6 -12  398.36   34.90
  -6   3  12  387.26   31.60
  -3  -6  12  405.76   31.30
   3   6  12  433.56   31.40
  -3  -6  12  403.46   31.70
  -6   4 -12  338.97   26.50
  -6   4 -12  292.07   26.20
   4   6 -12  347.47   30.40
   4   6 -12  357.46   28.50
   4   6 -12  348.17   25.90
   4   6 -12  330.07   26.40
   6  -4 -12  310.47   25.90
  -6   4 -12  360.56   26.40
  -4  -6  12  341.67   26.30
  -4  -6  12  335.17   26.70
  -6   4  12  328.77   26.50
  -6   5 -12  268.47   24.30
   5   6 -12  306.17   26.40
   5   6 -12  317.87   24.10
   6  -5 -12  302.47   24.20
  -6   5 -12  327.27   25.20
   5   6 -12  342.77   29.30
   6  -5 -12  318.07   33.30
  -5  -6  12  295.07   24.90
  -6   5  12  299.87   24.70
  -5  -6  12  323.07   24.60
  -6   6 -12  792.72   56.19
  -6   6 -12  624.64   54.59
   6   6 -12  798.72   59.69
   6  -6 -12  665.43   62.69
   6   6 -12  775.22   54.59
   6  -6 -12  730.33   54.59
  -6  -6  12  732.43   55.69
  -6   6  12  725.63   55.19
  -6  -6  12  754.82   54.99
   6  -7 -12  209.48   17.80
  -6   7 -12  188.08   17.90
  -6   7 -12  233.08   19.70
   7   6 -12  210.18   17.70
   6  -7 -12  213.28   25.90
   7   6 -12  253.87   23.60
  -7  -6  12  240.58   19.60
  -7  -6  12  225.48   18.50
  -6   7  12  209.68   18.50
   5  -7 -12  106.99   18.30
  -5   7 -12  111.49   10.90
  -5   7 -12  125.89   12.80
  -7  -5 -12  112.39    9.20
  -5   7 -12  160.38   13.80
   7   5 -12  128.99   10.90
   5  -7 -12  106.99   10.60
   7   5 -12  142.89   16.20
  -7  -5  12  105.99   11.40
  -7  -5  12  117.19   12.10
  -5   7  12  122.79   11.40
   4  -7 -12  487.95   44.50
   7   4 -12  515.95   37.90
   7   4 -12  511.35   37.60
  -4   7 -12  442.56   37.60
   7   4 -12  575.44   42.10
   4  -7 -12  489.85   37.50
  -4   7 -12  538.35   40.20
  -7  -4 -12  459.55   36.30
  -4   7  12  474.75   38.00
  -7  -4  12  501.75   39.20
  -7  -4  12  536.45   38.60
  -7  -4  12  483.85   38.10
   7   3 -12  375.66   30.20
   3  -7 -12  339.67   32.90
  -3   7 -12  314.47   26.80
   7   3 -12  343.37   26.60
  -3   7 -12  412.06   30.20
  -7  -3 -12  336.17   25.80
  -3   7 -12  368.96   29.50
   7   3 -12  337.17   27.00
   3  -7 -12  351.86   26.70
  -7  -3  12  359.26   27.70
  -3   7  12  345.97   27.10
  -7  -3  12  316.47   27.20
   7   2 -12  183.88   16.60
  -7  -2 -12  162.78   13.00
  -2   7 -12  166.58   17.10
   2  -7 -12  150.58   18.20
  -2   7 -12  155.58   14.90
  -2   7 -12  191.18   16.60
   7   2 -12  160.38   13.90
   2  -7 -12  172.08   13.60
   7   2 -12  159.88   13.80
  -2   7 -12  150.18   13.60
  -7  -2  12  149.29   15.00
  -7  -2  12  161.68   14.40
  -2   7  12  160.88   13.80
  -1   7 -12  231.38   21.90
  -1   7 -12  246.78   21.00
   1  -7 -12  230.58   18.10
  -7  -1 -12  250.57   17.90
   1  -7 -12  211.28   22.80
  -1   7 -12  196.38   19.10
  -1   7 -12  211.08   18.20
   7   1 -12  248.58   20.20
   7   1 -12  210.48   18.30
   1  -7  12  230.08   18.60
  -1   7  12  231.08   18.40
  -7  -1  12  228.28   19.00
   7   0 -12    2.80    1.90
  -7   0 -12    6.20    2.10
   0  -7 -12    3.50    4.50
   0   7 -12    2.50    1.80
   0   7 -12    8.50    4.20
   0   7 -12    7.20    3.00
   0   7 -12   -2.20    3.80
   7   0 -12    4.10    2.90
   0  -7 -12    8.90    2.40
  -7   0  12    4.90    2.70
   0  -7  12    5.50    2.40
   0  -7  12    1.40    2.40
   0   7  12    1.30    1.90
  -7   1 -12  249.28   18.60
   1   7 -12  242.28   21.20
  -1  -7 -12  234.18   22.60
   7  -1 -12  244.38   18.70
   1   7 -12  222.48   22.70
   7  -1 -12  210.28   18.60
   1   7 -12  225.68   18.50
   1   7 -12  211.88   19.40
   1   7  12  235.78   18.70
  -1  -7  12  235.38   19.10
  -1  -7  12  231.88   18.90
  -7   1  12  239.28   19.40
  -2  -7 -12  184.48   18.60
  -7   2 -12  180.18   14.50
   7  -2 -12  191.38   13.80
   2   7 -12  193.58   17.20
   2   7 -12  167.48   15.20
   7  -2 -12  143.09   14.30
   2   7 -12  184.08   19.30
   2   7 -12  166.18   14.30
  -2  -7  12  167.08   14.70
  -7   2  12  161.58   15.00
   2   7  12  167.98   14.40
  -2  -7  12  181.98   15.10
   3   7 -12  367.06   30.50
   3   7 -12  347.97   27.90
  -7   3 -12  389.36   28.00
   7  -3 -12  341.37   28.10
  -7   3 -12  400.26   28.50
   3   7 -12  377.26   29.60
   3   7 -12  385.86   33.10
  -3  -7  12  342.97   28.60
   3   7  12  368.66   28.20
  -3  -7  12  360.36   28.30
  -7   3  12  332.87   28.70
  -7   4 -12  548.95   39.60
   4   7 -12  495.55   41.40
   4   7 -12  569.94   44.60
   7  -4 -12  485.05   39.20
  -7   4 -12  546.65   39.50
   4   7 -12  512.55   39.10
  -4  -7  12  533.45   39.50
  -7   4  12  489.95   39.90
   4   7  12  542.75   39.50
  -4  -7  12  474.45   39.70
  -7   5 -12  120.49   11.30
   5   7 -12  121.49   16.10
   5   7 -12  109.29   12.60
   7  -5 -12  109.59   10.50
   5   7 -12  114.89   10.40
  -5  -7  12  113.09   11.10
  -5  -7  12  115.79   11.40
  -7   5  12  115.29   11.30
   6   7 -12  197.98   20.20
   6   7 -12  225.98   18.40
   7  -6 -12  229.68   19.40
   7  -6 -12  221.28   18.40
  -7   6 -12  244.88   19.70
   7  -6 -12  227.28   27.60
   6   7 -12  272.47   24.80
  -6  -7  12  218.88   18.80
  -6  -7  12  217.78   19.40
  -7   6  12  212.98   19.10
   7  -7 -12  266.87   22.50
   7   7 -12  311.17   28.50
   7  -7 -12  298.27   32.20
  -7   7 -12  316.07   24.40
   7   7 -12  285.17   22.50
  -7  -7  12  264.77   23.80
  -7   7  12  282.27   23.50
  -7  -7  12  263.87   22.90
   7  -8 -12  171.88   23.40
   8   7 -12  198.88   21.10
   8   7 -12  170.68   14.70
  -7   8 -12  172.98   16.40
   7  -8 -12  157.98   14.60
  -8  -7  12  171.38   16.40
  -7   8  12  169.58   15.80
  -8  -7  12  173.08   15.50
   8   6 -12  200.98   20.70
   6  -8 -12  168.68   22.50
  -6   8 -12  150.18   14.80
  -6   8 -12  200.78   17.30
   8   6 -12  169.18   14.70
   6  -8 -12  161.18   14.60
  -8  -6  12  176.08   15.50
  -8  -6  12  175.18   16.40
  -6   8  12  178.88   15.60
   5  -8 -12    5.80    6.10
  -8  -5 -12    9.30    1.50
  -5   8 -12    7.80    4.10
   5  -8 -12    9.70    3.00
  -5   8 -12   13.20    5.60
  -5   8 -12    5.80    2.70
   8   5 -12    8.10    5.90
   8   5 -12    8.30    2.70
  -5   8  12    8.80    3.30
  -8  -5  12   15.10    4.40
  -8  -5  12    6.90    3.40
  -8  -4 -12  105.39    9.10
   4  -8 -12  109.19   17.90
   8   4 -12  128.29   11.20
   8   4 -12  135.99   10.80
  -4   8 -12   98.49   10.40
   8   4 -12  141.69   15.40
  -4   8 -12  132.39   13.30
   4  -8 -12  121.59   10.60
  -8  -4  12  124.09   12.50
  -4   8  12  106.59   10.90
  -8  -4  12  110.19   11.40
  -8  -4  12  113.39   11.60
   3  -8 -12   46.40    5.50
  -3   8 -12   68.99    9.80
  -8  -3 -12   41.10    4.40
   3  -8 -12   39.00   10.40
   8   3 -12   49.10    9.00
  -3   8 -12   65.49   10.70
  -3   8 -12   41.00    5.60
   8   3 -12   53.09    5.60
   8   3 -12   49.60    6.00
  -8  -3  12   49.00    8.00
  -8  -3  12   47.80    6.80
  -3   8  12   42.10    5.80
   3  -8  12   39.10    5.70
  -8  -3  12   50.19    6.50
  -2   8 -12 1034.60   74.69
  -2   8 -12  896.71   71.49
   2  -8 -12  991.00   71.29
   8   2 -12  933.51   71.69
  -2   8 -12 1065.29   75.79
   2  -8 -12  950.20   77.09
  -8  -2 -12  942.31   70.69
   8   2 -12 1107.19   74.49
  -8  -2  12  989.90   72.59
  -2   8  12  965.80   71.69
  -8  -2  12  893.21   73.29
   2  -8  12  945.41   71.79
   2  -8  12  975.20   72.09
  -1   8 -12   33.00    8.70
  -1   8 -12   36.60    7.30
  -8  -1 -12   38.20    4.20
   8   1 -12   29.60    5.00
   1  -8 -12   31.90    4.90
   1  -8 -12   28.80    7.90
  -1   8 -12   30.20    4.60
  -1   8 -12   35.80    6.40
   8   1 -12   42.90    7.20
   1  -8  12   25.30    4.80
   1  -8  12   40.20    5.70
  -1   8  12   32.80    4.70
  -8  -1  12   29.00    5.20
   8   0 -12  133.59   12.60
   0   8 -12  135.59   12.50
   0   8 -12  136.59   13.80
   0   8 -12  162.88   17.90
   0   8 -12  156.38   15.40
   8   0 -12  180.58   14.20
   0  -8 -12  145.39   16.80
  -8   0 -12  145.69   12.20
   0  -8  12  125.29   12.60
  -8   0  12  139.99   13.30
   0  -8  12  144.79   13.00
   0   8  12  156.48   12.80
   1   8 -12   39.70    6.70
   8  -1 -12   40.40    5.70
  -8   1 -12   44.40    5.00
   8  -1 -12   31.80    5.20
   1   8 -12   36.50    9.40
  -1  -8 -12   36.10    8.30
   1   8 -12   40.90    7.80
   1   8 -12   33.60    4.70
  -1  -8  12   44.50    6.10
  -8   1  12   31.10    5.60
   1   8  12   37.40    5.00
  -1  -8  12   36.10    5.70
   2   8 -12  949.21   74.29
   8  -2 -12  894.11   71.79
   2   8 -12 1078.79   77.39
   2   8 -12  910.21   71.59
  -8   2 -12 1043.10   71.89
  -2  -8 -12 1016.40   75.89
   8  -2 -12 1025.80   71.19
   2   8  12 1019.50   71.89
  -2  -8  12  983.30   71.89
  -8   2  12  935.31   72.59
  -2  -8  12  906.71   72.19
   3   8 -12   50.49   10.90
   8  -3 -12   40.20    5.90
   3   8 -12   47.50    5.70
  -8   3 -12   47.70    6.00
   3   8 -12   55.49    9.10
  -8   3 -12   54.69    5.60
   8  -3 -12   51.29    4.80
   3   8  12   47.60    6.00
  -3  -8  12   47.60    6.70
  -3  -8  12   47.70    6.40
  -8   3  12   58.19    7.00
   4   8 -12  121.59   11.30
  -8   4 -12  137.19   11.60
  -8   4 -12  144.99   12.00
   8  -4 -12  110.69   11.40
   4   8 -12  116.39   13.50
   4   8 -12  145.59   17.90
  -4  -8  12  125.99   12.00
  -4  -8  12  112.09   12.00
  -8   4  12  144.19   12.80
   4   8  12  128.29   11.70
   5   8 -12    5.60    6.30
   8  -5 -12    5.80    2.70
   5   8 -12   11.70    3.00
   5   8 -12    8.90    4.30
  -8   5 -12   10.30    3.30
  -8   5  12   11.40    3.70
  -5  -8  12    8.70    3.50
  -5  -8  12   10.70    3.80
   6   8 -12  194.48   21.60
   8  -6 -12  153.38   15.00
   8  -6 -12  186.78   25.40
   6   8 -12  173.28   17.40
  -8   6 -12  214.58   16.50
   8  -6 -12  174.88   14.60
   6   8 -12  194.98   15.40
  -6  -8  12  170.18   16.30
  -6  -8  12  177.38   15.80
  -8   6  12  172.58   16.30
   7   8 -12  187.38   20.90
   8  -7 -12  158.18   26.80
  -8   7 -12  183.28   15.90
   8  -7 -12  163.28   14.60
   7   8 -12  165.38   14.50
  -7  -8  12  166.18   15.10
  -8   7  12  151.08   15.40
  -7  -8  12  173.48   16.00
   8  -8 -12  446.36   37.80
   8   8 -12  606.14   45.10
   8   8 -12  485.75   38.10
  -8   8  12  499.25   39.50
  -8  -8  12  497.95   38.50
   9   6 -12  301.07   26.40
  -6   9 -12  208.88   20.30
   9   6 -12  249.97   20.40
  -6   9 -12  260.27   22.80
   6  -9 -12  256.07   20.30
  -9  -6  12  257.27   21.20
  -6   9  12  250.37   21.30
  -9  -6  12  243.28   22.20
   5  -9 -12  312.37   23.70
  -5   9 -12  267.87   23.80
  -9  -5 -12  259.87   21.80
   9   5 -12  384.76   29.70
   5  -9 -12  268.67   30.40
   9   5 -12  313.57   23.90
  -5   9 -12  319.57   26.60
  -5   9  12  312.97   24.60
  -9  -5  12  306.37   25.90
  -9  -5  12  297.07   24.50
  -4   9 -12  204.58   19.00
   9   4 -12  242.08   21.00
  -9  -4 -12  171.58   14.30
   9   4 -12  193.58   15.80
  -4   9 -12  167.68   15.90
   4  -9 -12  200.18   15.70
   4  -9 -12  191.58   22.20
  -9  -4  12  199.88   17.30
  -9  -4  12  189.48   16.80
   4  -9  12  193.68   18.10
  -9  -4  12  173.28   17.60
  -4   9  12  181.88   16.30
   4  -9  12  188.38   16.30
   9   3 -12  334.47   27.90
  -3   9 -12  420.26   33.30
   9   3 -12  449.95   32.60
  -3   9 -12  334.47   28.10
   9   3 -12  373.86   28.60
   3  -9 -12  400.96   30.20
   3  -9 -12  321.27   33.50
  -9  -3 -12  313.67   26.80
  -3   9 -12  390.16   31.60
  -9  -3  12  376.26   29.50
  -3   9  12  358.46   28.60
   3  -9  12  398.76   28.60
  -9  -3  12  341.07   30.20
  -9  -3  12  332.17   28.80
   3  -9  12  362.86   28.60
  -2   9 -12  746.23   55.19
   9   2 -12  691.93   50.29
  -2   9 -12  733.43   53.39
   9   2 -12  788.42   53.19
  -9  -2 -12  599.74   48.80
   2  -9 -12  676.93   55.59
  -2   9 -12  609.34   49.80
   2  -9  12  663.23   50.19
   2  -9  12  708.73   50.09
  -9  -2  12  619.54   51.89
  -9  -2  12  620.24   50.49
  -9  -2  12  619.74   50.79
   9   1 -12   12.80    3.40
   9   1 -12   14.60    5.00
  -9  -1 -12   16.20    2.90
  -1   9 -12   10.80    7.10
   1  -9 -12   29.00    8.50
  -1   9 -12   17.00    3.70
  -1   9 -12   15.50    5.40
  -9  -1  12   15.80    4.30
   1  -9  12   17.80    3.90
   1  -9  12   17.40    4.00
  -9  -1  12   11.70    4.50
   0   9 -12    1.50    5.90
   0   9 -12    0.70    1.90
   0  -9 -12    3.50    4.70
   9   0 -12    1.60    2.00
   9   0 -12    6.90    3.70
   0   9 -12    2.10    3.50
  -9   0 -12    6.50    2.20
   0  -9  12    5.80    2.60
  -9   0  12    2.50    2.70
   0  -9  12    2.20    2.80
   9  -1 -12   16.60    3.90
  -9   1 -12   11.30    2.90
   9  -1 -12   22.20    4.50
   1   9 -12   14.50    5.20
   1   9 -12   18.70    8.10
  -1  -9 -12   17.60    6.70
   1   9 -12   16.60    3.60
  -9   1  12   16.90    4.40
  -1  -9  12   13.70    4.00
  -1  -9  12   12.00    3.70
   2   9 -12  657.73   53.59
   9  -2 -12  747.53   50.59
   2   9 -12  757.62   57.39
  -2  -9 -12  671.33   54.79
  -9   2 -12  725.13   50.99
   9  -2 -12  634.34   51.09
   2   9 -12  667.63   50.89
  -9   2  12  637.94   51.99
  -2  -9  12  666.03   51.09
  -2  -9  12  662.23   51.49
   9  -3 -12  388.06   28.10
   3   9 -12  384.66   32.10
   9  -3 -12  339.17   29.30
  -9   3 -12  416.36   29.50
   3   9 -12  363.76   29.10
   3   9 -12  419.36   35.90
  -9   3  12  362.76   30.40
  -3  -9  12  362.36   29.90
  -3  -9  12  372.66   29.50
   4   9 -12  235.58   23.90
   9  -4 -12  166.38   16.50
  -9   4 -12  213.58   17.00
   4   9 -12  178.68   18.70
  -9   4 -12  218.78   16.40
   4   9 -12  197.28   16.50
  -4  -9  12  182.98   17.20
  -9   4  12  196.48   17.80
  -4  -9  12  204.58   17.10
   5   9 -12  297.07   26.80
   9  -5 -12  278.37   24.50
  -9   5 -12  343.97   24.80
   5   9 -12  306.87   24.40
   5   9 -12  347.37   31.40
  -5  -9  12  312.87   24.90
  -5  -9  12  294.57   25.40
  -9   5  12  299.07   25.80
   6   9 -12  311.97   28.50
   9  -6 -12  237.38   21.30
   6   9 -12  271.57   21.30
  -9   6 -12  292.87   22.00
   6   9 -12  235.88   23.40
   9  -6 -12  259.57   20.80
  -6  -9  12  261.97   22.50
  -9   6  12  247.78   22.50
  -6  -9  12  262.27   21.70
  10   5 -12   53.39    6.40
  10   5 -12   53.09   10.40
  -5  10 -12   62.39   11.00
   5 -10 -12   52.69   13.20
 -10  -5 -12   44.60    4.10
  -5  10 -12   59.29    9.90
  -5  10 -12   48.80    6.60
   5 -10  12   53.89    7.00
 -10  -5  12   50.89    8.90
 -10  -5  12   48.40    7.30
   5 -10  12   57.49    7.60
  -4  10 -12   23.40    6.40
  10   4 -12   14.30    6.80
  10   4 -12   18.80    3.90
  -4  10 -12   40.70    9.70
 -10  -4 -12   15.80    2.40
  -4  10 -12   20.70    4.10
   4 -10 -12   21.50    8.50
 -10  -4  12   18.30    5.40
 -10  -4  12   17.70    4.80
 -10  -4  12   19.60    5.30
   4 -10  12   27.00    5.00
   4 -10  12   17.60    4.20
  -3  10 -12   27.50    8.90
   3 -10 -12   10.90    6.90
 -10  -3 -12   18.90    2.80
  -3  10 -12   22.50    6.50
  -3  10 -12   26.40    4.50
  10   3 -12   34.60    8.10
 -10  -3  12   14.40    5.20
 -10  -3  12   21.90    5.30
   3 -10  12   16.90    4.10
 -10  -3  12   21.50    5.30
   3 -10  12   22.20    4.80
  10   2 -12  264.87   22.40
  -2  10 -12  322.17   26.10
 -10  -2 -12  244.08   20.80
  10   2 -12  345.27   25.90
  -2  10 -12  262.27   22.00
   2 -10 -12  236.68   26.50
  -2  10 -12  293.07   28.10
 -10  -2  12  276.87   23.30
   2 -10  12  283.27   22.30
 -10  -2  12  275.17   24.70
   2 -10  12  264.37   22.40
 -10  -2  12  270.67   23.40
 -10  -1 -12  440.96   35.40
  10   1 -12  484.85   36.80
  -1  10 -12  558.44   43.20
  -1  10 -12  559.34   40.50
   1 -10 -12  441.76   40.90
   1 -10  12  447.96   36.70
   1 -10  12  495.85   36.60
 -10  -1  12  454.45   37.50
 -10  -1  12  462.95   39.10
 -10  -1  12  457.85   37.70
   0  10 -12 1268.37   93.59
 -10   0 -12 1190.28   89.39
   0 -10 -12 1214.48   94.69
  10   0 -12 1439.46   91.69
  10   0 -12 1154.68   90.39
   0  10 -12 1351.76   96.69
   0  10 -12 1181.78   89.99
   0 -10  12 1231.08   90.19
 -10   0  12 1157.38   91.39
   0 -10  12 1152.88   90.49
 -10   1 -12  468.15   36.30
  10  -1 -12  450.55   37.10
   1  10 -12  488.55   36.80
  -1 -10 -12  516.95   41.50
  10  -1 -12  537.05   37.50
   1  10 -12  498.85   43.30
   1  10 -12  459.95   39.70
 -10   1  12  445.46   38.00
  -1 -10  12  484.65   37.40
  -1 -10  12  474.75   36.90
  -2 -10 -12  271.87   26.00
  10  -2 -12  251.27   22.20
  10  -2 -12  305.07   22.00
   2  10 -12  281.97   22.00
   2  10 -12  327.77   29.70
   2  10 -12  254.47   24.60
 -10   2 -12  277.37   21.80
 -10   2  12  241.28   23.10
  -2 -10  12  267.77   22.20
  -2 -10  12  268.47   22.60
   3  10 -12   28.90    4.70
   3  10 -12   27.80    6.90
  10  -3 -12   22.20    4.70
 -10   3 -12   23.20    4.30
  10  -3 -12   25.70    3.70
   3  10 -12   20.70    9.00
  -3 -10  12   19.10    4.60
 -10   3  12   16.40    4.90
  -3 -10  12   22.40    5.00
   4  10 -12   26.20    6.30
  10  -4 -12   20.50    4.60
 -10   4 -12   20.80    4.10
   4  10 -12   28.00    9.80
   4  10 -12   16.20    3.80
  -4 -10  12   18.40    4.40
 -10   4  12   17.20    4.90
  -4 -10  12   42.40    6.50
   5  10 -12   57.89    6.70
   5  10 -12   49.99    9.10
 -10   5 -12   69.89    6.90
   5  10 -12   81.89   15.10
  10  -5 -12   47.40    6.60
  -5 -10  12   50.59    7.90
 -10   5  12   47.50    8.20
  -5 -10  12   52.19    7.40
  11   2 -12  144.49   15.00
 -11  -2 -12  106.09    9.80
   2 -11 -12  111.09   17.60
  -2  11 -12  123.49   18.60
  -2  11 -12  117.09   14.50
  11   2 -12  120.19   12.60
  -2  11 -12  122.59   11.30
 -11  -2  12  126.49   13.00
   2 -11  12  125.79   11.90
 -11  -2  12  115.79   12.70
   2 -11  12  119.09   11.70
 -11  -2  12  119.49   13.90
 -11  -1 -12  210.18   16.50
   1 -11 -12  179.48   21.60
  -1  11 -12  201.58   17.50
  -1  11 -12  235.88   21.50
  -1  11 -12  221.28   24.70
  11   1 -12  200.58   18.10
 -11  -1  12  204.08   20.40
   1 -11  12  209.98   18.00
 -11  -1  12  206.58   19.20
   1 -11  12  216.78   17.90
 -11  -1  12  207.28   19.10
   0  11 -12    0.60    2.20
   0 -11 -12    3.40    4.80
 -11   0 -12   -0.20    1.50
   0  11 -12   -0.50    3.60
   0  11 -12    4.50    7.40
  11   0 -12    1.20    3.60
  11   0 -12    1.20    2.50
   0 -11  12    8.20    3.40
   0 -11  12    2.30    3.20
 -11   0  12    0.90    3.00
  11  -1 -12  202.78   18.50
  -1 -11 -12  221.08   22.30
   1  11 -12  253.47   26.40
  11  -1 -12  254.17   19.10
   1  11 -12  225.98   18.10
   1  11 -12  195.48   20.70
 -11   1 -12  213.68   17.40
  -1 -11  12  202.58   18.20
 -11   1  12  209.98   19.60
  -1 -11  12  196.38   18.50
  11  -2 -12  142.49   11.60
   2  11 -12  133.39   11.30
 -11   2 -12  117.09   10.80
  11  -2 -12  113.89   11.70
   2  11 -12  120.29   14.10
   2  11 -12  144.39   19.70
 -11   2  12   94.79   12.20
  -2 -11  12  107.59   11.50
  -2 -11  12  117.79   11.90
   0   0 -13    2.00    1.90
   0   0 -13    1.80    1.50
   0   0  13    5.80    2.20
   0  -1 -13    1.20    2.00
   0  -1 -13    7.20    2.30
   0   1 -13    5.90    2.20
   0   1 -13    5.80    2.00
   1   0 -13    7.40    2.30
  -1   0 -13    3.50    2.20
  -1   0 -13    2.50    1.60
   0   1 -13    9.80    2.60
   1   0 -13    2.30    2.00
   0   1  13   10.20    2.60
   0  -1  13    3.50    2.10
  -1   0  13    5.30    2.00
   1   0  13    2.60    1.80
   1   1 -13  667.23   53.29
  -1   1 -13  780.62   53.39
  -1   1 -13  690.53   53.49
   1  -1 -13  747.43   53.49
  -1  -1 -13  719.33   53.19
  -1   1 -13  729.53   53.29
   1   1 -13  709.83   53.39
  -1  -1 -13  716.13   53.39
  -1   1  13  730.83   53.39
  -1  -1  13  728.73   53.39
   1  -1  13  694.93   53.29
   1   1  13  733.33   53.39
  -2  -1 -13   14.20    3.30
  -2  -1 -13    9.80    2.40
   2   1 -13   20.10    2.80
   1  -2 -13   10.30    2.80
   2   1 -13    9.20    2.70
  -1   2 -13   10.60    2.70
  -1   2 -13   12.40    3.20
  -1   2 -13   11.40    3.20
  -1   2 -13   11.40    2.70
   2   1 -13    9.80    2.80
   2   1  13   10.30    2.60
  -2  -1  13   11.60    2.90
   1  -2  13   13.90    3.10
   2   0 -13    2.60    2.00
   0   2 -13   -1.20    1.40
   0   2 -13    6.40    1.80
  -2   0 -13    1.70    1.80
  -2   0 -13    0.50    1.30
   0   2 -13    3.90    2.10
   0   2 -13    1.00    1.50
   0  -2 -13    2.20    1.90
   0   2  13    2.90    2.00
  -2   0  13    3.10    2.10
   0  -2  13    2.50    1.90
   2   0  13    1.80    1.80
  -2   1 -13   11.50    2.90
   1   2 -13    9.90    2.90
  -2   1 -13    9.50    2.80
   1   2 -13    9.80    2.70
  -1  -2 -13   14.00    3.10
   1   2 -13   13.00    2.80
   2  -1 -13   12.00    3.00
  -2   1 -13    9.80    2.50
  -1  -2 -13    8.90    2.40
   1   2 -13   16.00    3.00
  -2   1  13   11.60    2.80
   2  -1  13   11.30    2.80
   1   2  13   10.20    2.70
  -1  -2  13   12.70    2.90
  -2  -2 -13  177.98   14.30
   2   2 -13  175.18   14.70
  -2  -2 -13  177.58   14.80
  -2   2 -13  170.08   15.00
   2   2 -13  208.08   15.00
  -2   2 -13  175.68   14.60
   2   2 -13  163.78   14.70
   2  -2 -13  171.68   14.50
  -2   2 -13  157.08   14.70
   2   2 -13  188.58   14.30
  -2   2 -13  186.38   14.60
   2  -2  13  166.28   14.60
  -2  -2  13  175.68   14.60
   2   2  13  174.78   14.70
  -2   2  13  175.38   14.70
   3   2 -13   14.20    3.60
  -2   3 -13   16.20    3.70
   3   2 -13   14.20    3.20
  -3  -2 -13   13.70    3.20
   3   2 -13   14.70    2.80
   2  -3 -13   14.00    3.00
  -2   3 -13   12.40    3.30
  -3  -2 -13   14.00    2.70
  -2   3 -13   15.60    3.10
  -2   3 -13   12.90    2.90
  -2   3  13   14.10    3.20
  -3  -2  13   17.60    3.30
   2  -3  13   10.30    2.80
  -1   3 -13    1.90    2.20
  -1   3 -13    1.80    1.70
  -3  -1 -13    2.00    2.10
   3   1 -13    1.70    1.90
  -1   3 -13    3.50    2.10
   3   1 -13    6.00    2.20
  -1   3 -13    7.80    2.20
   1  -3 -13   12.90    3.00
  -3  -1 -13    3.20    1.60
  -1   3 -13    4.10    2.00
  -3  -1  13    1.90    1.90
  -1   3  13    5.20    2.10
   1  -3  13    2.60    1.90
  -3   0 -13  535.05   40.30
   0   3 -13  480.65   40.80
  -3   0 -13  483.75   39.50
   0   3 -13  589.74   40.20
   0   3 -13  555.14   39.80
   3   0 -13  505.65   39.80
   0  -3 -13  535.95   40.00
   0   3 -13  501.25   39.90
   0   3 -13  519.35   40.20
   0   3  13  533.95   40.00
  -3   0  13  562.04   40.20
   0  -3  13  576.84   40.10
  -3   1 -13   -0.10    1.90
   1   3 -13    2.30    2.40
   1   3 -13    2.50    1.80
  -3   1 -13    2.30    1.60
   3  -1 -13    6.80    2.40
   1   3 -13    2.30    2.50
  -1  -3 -13    4.10    2.10
  -3   1 -13    2.80    2.00
   1   3 -13    1.10    1.80
  -1  -3  13    6.40    2.40
  -3   1  13    3.50    2.10
   1   3  13    7.20    2.50
   2   3 -13   13.60    2.90
   2   3 -13   13.80    3.90
  -3   2 -13   16.80    3.20
  -2  -3 -13   14.40    3.30
  -2  -3 -13   12.00    2.60
  -3   2 -13   11.50    3.10
  -3   2 -13   10.90    3.20
  -3   2 -13   10.50    2.80
   2   3 -13   13.20    3.10
   3  -2 -13   18.00    3.40
   2   3  13   20.20    3.60
  -3   2  13    9.70    2.70
  -2  -3  13   12.90    3.10
   3   3 -13   24.40    3.70
   3  -3 -13   29.00    4.40
  -3   3 -13   21.80    4.50
  -3   3 -13   31.30    4.20
   3   3 -13   27.50    4.60
  -3   3 -13   24.60    4.50
  -3  -3 -13   28.20    3.60
  -3  -3 -13   27.00    4.40
  -3   3 -13   31.80    4.60
   3   3 -13   31.50    5.80
  -3   3  13   28.00    4.20
  -3  -3  13   30.50    4.40
  -4  -3 -13   13.40    3.30
   4   3 -13    9.70    2.50
  -3   4 -13    8.40    2.70
   4   3 -13   10.20    4.00
  -3   4 -13    7.60    3.10
   3  -4 -13    8.00    2.60
  -3   4 -13    8.10    3.20
   4   3 -13    8.30    2.70
  -4  -3 -13    7.80    2.00
  -3   4 -13   10.40    2.80
  -3   4 -13   10.70    2.70
  -3   4  13   12.90    3.20
  -4  -3  13    7.90    2.80
   4   2 -13   91.59    9.10
   4   2 -13   78.29    7.80
  -2   4 -13   81.59    8.20
  -4  -2 -13   80.79    7.20
  -2   4 -13   77.49    7.80
  -2   4 -13   80.49    7.80
  -2   4 -13   65.89    8.10
  -2   4 -13   74.49    8.70
   4   2 -13   80.39    7.70
  -4  -2 -13   79.49    8.20
   2  -4 -13   72.89    7.70
   2  -4  13   82.19    7.90
  -4  -2  13   82.29    8.10
  -2   4  13   80.29    8.00
   4   1 -13  213.88   15.60
  -1   4 -13  184.78   15.20
   1  -4 -13  198.18   15.40
   4   1 -13  170.08   15.10
  -4  -1 -13  184.48   15.80
  -1   4 -13  153.18   15.40
  -1   4 -13  184.28   16.00
  -4  -1 -13  186.78   14.90
  -1   4 -13  183.48   16.60
  -1   4  13  180.98   15.30
   1  -4  13  204.78   15.50
  -4  -1  13  178.18   15.50
  -4   0 -13    0.90    1.40
   0  -4 -13    6.00    2.40
   0   4 -13    0.60    1.70
   4   0 -13    2.10    1.80
   4   0 -13    0.40    1.40
   0   4 -13   -0.50    2.00
   0   4 -13    1.30    2.70
   0   4 -13    3.60    2.40
  -4   0 -13    2.60    2.20
   0  -4  13    0.20    1.70
  -4   0  13    1.10    1.90
   0   4  13    5.30    2.30
  -4   1 -13  177.48   15.60
   1   4 -13  204.88   17.10
   1   4 -13  190.18   15.20
   1   4 -13  177.58   15.50
  -1  -4 -13  191.68   15.30
   4  -1 -13  170.88   15.20
   1   4 -13  188.78   17.00
  -4   1 -13  174.38   15.80
  -4   1 -13  187.28   15.20
  -4   1  13  189.48   15.60
   1   4  13  168.78   15.20
  -1  -4  13  210.38   15.60
  -4   2 -13   91.89    7.90
   2   4 -13   61.69    7.80
  -2  -4 -13   85.19    8.00
   2   4 -13   90.79   10.30
  -4   2 -13   80.29    8.70
  -4   2 -13   81.39    8.30
   4  -2 -13   72.19    7.80
   2   4 -13   84.09    7.70
   2   4 -13   73.69    9.30
  -4   2 -13   86.39    8.00
  -2  -4  13   93.39    8.30
  -4   2  13   73.89    8.00
   2   4  13   81.59    8.00
   3   4 -13    8.40    2.40
   4  -3 -13    8.70    2.70
  -4   3 -13   11.00    2.90
   3   4 -13   10.60    4.50
  -4   3 -13    6.60    2.80
  -4   3 -13    9.50    2.80
  -3  -4 -13    7.90    2.70
  -4   3 -13    6.70    2.60
   3   4 -13    8.80    2.70
  -3  -4  13    5.30    2.40
   3   4  13    8.10    2.70
  -4   3  13   10.20    2.90
  -4   4 -13 1177.98   82.29
  -4  -4 -13 1185.28   82.09
   4   4 -13 1069.79   81.89
   4   4 -13 1158.38   81.59
  -4   4 -13 1021.90   82.59
  -4   4 -13 1009.30   81.89
  -4   4 -13 1055.39   82.49
   4  -4 -13 1111.89   81.79
  -4  -4 -13 1071.79   80.99
   4   4 -13 1181.08   84.49
  -4  -4  13 1252.47   82.39
  -4   4  13 1131.49   82.19
  -4   5 -13    0.10    1.90
  -4   5 -13    4.20    2.90
   5   4 -13    0.60    1.80
  -5  -4 -13    0.40    2.00
   5   4 -13    2.60    2.30
  -4   5 -13    9.10    3.10
  -5  -4 -13    2.00    1.20
   4  -5 -13    1.60    2.10
   5   4 -13    2.60    4.00
  -4   5 -13    0.60    2.50
  -5  -4  13    1.50    3.00
  -4   5  13    1.70    2.10
  -5  -4  13    4.90    2.80
   5   3 -13    4.40    2.00
  -3   5 -13    2.50    2.40
   5   3 -13    4.80    3.70
   3  -5 -13    3.60    2.30
  -3   5 -13    6.20    2.30
  -5  -3 -13    1.60    1.30
  -3   5 -13    2.60    2.50
  -5  -3 -13    7.20    2.80
   5   3 -13    0.10    1.90
  -3   5 -13    3.90    2.90
  -5  -3  13    0.90    2.00
  -3   5  13    2.40    1.90
  -5  -2 -13   70.29    6.60
  -2   5 -13   76.99    8.80
  -2   5 -13   73.89    8.20
   2  -5 -13   74.89    7.40
  -2   5 -13   72.29    7.30
   5   2 -13   65.19    7.30
   5   2 -13   69.69    8.70
  -2   5 -13   63.79    8.60
  -5  -2 -13   66.99    7.70
  -5  -2  13   80.29    7.90
  -2   5  13   72.29    7.50
   2  -5  13   71.19    7.40
  -1   5 -13    8.40    3.90
  -1   5 -13    8.40    2.50
  -1   5 -13    6.10    3.40
  -5  -1 -13    6.80    2.10
  -1   5 -13    5.20    2.80
  -5  -1 -13    5.40    2.70
   1  -5 -13    9.30    2.50
   5   1 -13    5.80    2.50
   5   1 -13   11.70    3.30
  -5  -1  13    9.40    2.80
   1  -5  13   10.90    2.80
  -1   5  13    7.60    2.70
   0   5 -13   15.30    4.40
  -5   0 -13   15.90    3.90
  -5   0 -13   15.00    3.00
   0   5 -13   13.20    3.50
   0   5 -13   12.00    4.40
   5   0 -13   13.30    2.80
   0   5 -13   12.10    3.00
   0  -5 -13   13.70    3.10
   5   0 -13   14.30    3.20
   0   5  13   11.00    2.80
   0  -5  13   13.90    3.20
  -5   0  13   18.20    3.70
   1   5 -13    9.40    4.30
  -5   1 -13   11.20    2.80
   1   5 -13    9.00    2.60
   1   5 -13    5.40    2.60
   5  -1 -13   15.90    3.40
  -5   1 -13   12.30    3.60
  -1  -5 -13    7.10    2.50
   1   5 -13    8.70    3.80
  -1  -5  13   16.40    3.30
  -5   1  13    7.50    2.80
   1   5  13    5.30    2.40
   5  -2 -13   65.59    7.10
  -2  -5 -13   71.59    7.30
  -5   2 -13   62.59    8.00
   2   5 -13   68.39    7.60
   2   5 -13   73.19   10.30
  -5   2 -13   75.69    7.40
   2   5 -13   66.59    7.00
   2   5 -13   70.09    9.10
  -5   2 -13   83.49    7.00
   2   5  13   71.09    7.40
  -2  -5  13   77.89    7.60
  -5   2  13   65.89    7.50
  -5   3 -13    6.00    2.70
  -5   3 -13    0.90    1.80
   3   5 -13    3.80    3.20
   5  -3 -13    1.10    1.80
  -3  -5 -13    2.50    2.10
  -5   3 -13    1.50    1.90
   3   5 -13    4.70    2.60
   3   5 -13    4.80    2.20
  -5   3 -13    0.50    2.30
   3   5 -13    2.90    4.00
  -5   3  13    3.20    2.40
   3   5  13    6.60    2.70
  -3  -5  13    6.90    2.70
   4   5 -13    3.10    2.20
  -5   4 -13    2.50    2.30
   4   5 -13    3.00    4.30
  -5   4 -13    2.30    2.20
  -4  -5 -13    3.60    2.30
   5  -4 -13    1.90    2.00
   4   5 -13    5.50    2.30
  -5   4 -13    0.80    2.00
  -4  -5  13   10.40    3.20
  -5   4  13    3.20    2.50
  -4  -5  13    3.50    2.50
  -5   5 -13   21.60    4.20
   5  -5 -13   18.70    3.80
   5   5 -13   19.00    3.60
   5   5 -13   23.10    4.40
   5   5 -13   30.30    7.60
  -5   5 -13   13.40    4.10
  -5  -5  13   22.90    4.50
  -5   5  13   19.10    4.10
  -5  -5  13   14.40    4.10
  -5  -5  13   20.70    4.30
  -5   6 -13   77.09    8.00
   5  -6 -13   70.19    7.60
   6   5 -13   71.09   11.80
  -5   6 -13   76.19    9.00
   6   5 -13   70.59    7.40
   6   5 -13   77.89    8.00
  -5   6 -13   78.29    8.40
   5  -6 -13   63.59   15.40
  -5   6  13   66.69    7.90
  -6  -5  13   74.49    8.80
  -6  -5  13   64.69    8.30
  -4   6 -13  303.07   26.20
  -4   6 -13  271.87   24.50
   4  -6 -13  327.27   32.60
  -6  -4 -13  277.87   23.20
   4  -6 -13  331.97   24.60
   6   4 -13  317.87   24.80
   6   4 -13  334.07   24.40
   6   4 -13  346.27   28.10
  -6  -4  13  338.67   25.40
  -6  -4  13  305.27   25.80
  -4   6  13  311.17   25.00
   6   3 -13  114.79   10.70
   3  -6 -13  133.99   10.80
  -3   6 -13  102.59   10.50
   3  -6 -13  108.69   18.00
  -6  -3 -13  113.79    9.60
  -3   6 -13  107.99   12.10
   6   3 -13  133.69   13.40
   6   3 -13  116.19   10.20
  -3   6 -13   94.39   11.30
  -6  -3 -13  115.99   11.20
  -3   6  13  115.59   10.80
  -6  -3  13  139.39   11.60
  -2   6 -13    9.30    3.80
  -2   6 -13    2.80    2.60
  -6  -2 -13    4.20    1.60
   6   2 -13    3.50    2.30
   2  -6 -13   10.70    6.30
   6   2 -13   18.50    4.90
  -6  -2 -13    4.60    2.60
  -2   6 -13    3.60    2.10
   2  -6 -13    5.20    2.40
  -2   6 -13    3.60    3.80
  -6  -2  13    4.50    2.50
   2  -6  13    4.90    2.20
  -2   6  13    2.90    2.20
  -1   6 -13   36.30    7.00
   6   1 -13   48.70    5.60
  -1   6 -13   41.30    5.30
   1  -6 -13   46.80    5.40
   6   1 -13   50.89    6.70
  -6  -1 -13   40.70    4.80
  -1   6 -13   43.90    6.60
  -1   6 -13   37.80    7.60
  -6  -1 -13   48.40    6.80
  -1   6  13   38.70    5.30
  -6  -1  13   41.20    5.80
   6   0 -13    4.10    2.30
   6   0 -13    0.50    1.90
   0   6 -13    1.70    3.10
   0   6 -13   -1.90    3.20
  -6   0 -13    1.40    2.30
   0   6 -13    5.80    2.40
  -6   0 -13    1.30    1.60
   0   6 -13    2.60    2.60
   0  -6 -13    5.20    2.30
   0   6  13    2.10    2.00
  -6   0  13    2.00    2.10
   1   6 -13   39.60    6.30
   1   6 -13   40.60    5.20
  -6   1 -13   45.30    5.30
  -6   1 -13   44.50    6.80
   1   6 -13   35.30    7.00
  -1  -6 -13   45.30    5.40
   6  -1 -13   43.50    4.50
   6  -1 -13   40.50    5.20
   1   6 -13   42.40    8.60
  -6   1  13   42.00    5.80
   1   6  13   44.50    5.50
   2   6 -13    3.30    2.50
  -6   2 -13    5.50    2.20
   2   6 -13    4.50    4.50
  -2  -6 -13    5.90    2.30
   2   6 -13    5.90    2.40
   2   6 -13    3.90    3.30
   6  -2 -13    1.50    2.10
  -6   2  13    3.00    2.30
   2   6  13    5.50    2.50
  -2  -6  13    5.00    2.40
   3   6 -13  118.29   14.80
   3   6 -13  107.79   11.10
  -6   3 -13  138.99   11.30
   3   6 -13  119.69   10.70
   6  -3 -13  111.89   10.80
  -6   3 -13  121.69   10.60
   3   6 -13  123.49   13.20
   3   6  13  128.59   11.20
  -3  -6  13  119.39   11.50
  -3  -6  13  110.39   11.20
  -6   3  13  114.69   11.30
  -6   4 -13  362.26   26.70
  -6   4 -13  356.66   26.60
   6  -4 -13  329.77   26.30
   4   6 -13  331.17   26.70
   4   6 -13  328.47   26.00
   4   6 -13  325.87   28.50
   4   6 -13  350.86   30.60
  -4  -6  13  328.57   26.50
   4   6  13  341.97   26.60
  -6   4  13  319.17   26.70
  -4  -6  13  316.87   26.90
   5   6 -13   67.79    6.90
  -6   5 -13   71.09    8.00
  -6   5 -13   58.29    7.10
   6  -5 -13   62.39    7.10
   5   6 -13   87.69   13.40
  -5  -6  13   66.29    8.10
  -5  -6  13   66.59    8.10
  -6   5  13   63.29    7.70
   6   6 -13    7.10    6.00
  -6   6 -13    7.70    3.60
   6  -6 -13    6.00    2.60
  -6   6 -13    5.80    2.80
   6   6 -13    5.70    2.50
  -6  -6  13   10.50    4.00
  -6   6  13    7.90    3.30
  -6  -6  13    5.40    3.40
  -6   7 -13    1.60    2.50
  -6   7 -13    1.50    3.00
  -6   7 -13    3.00    3.30
   7   6 -13    4.90    5.90
   6  -7 -13    6.90    7.60
   6  -7 -13    2.00    2.30
   7   6 -13    3.60    2.20
  -7  -6  13    1.40    3.00
  -7  -6  13    9.90    3.80
  -6   7  13    1.30    2.60
  -5   7 -13   10.30    4.30
   5  -7 -13    1.30    6.00
   7   5 -13    8.10    5.80
   5  -7 -13    7.30    2.80
   7   5 -13    7.20    2.60
  -5   7 -13    5.60    2.60
  -5   7 -13    5.00    3.60
  -7  -5  13    9.20    3.90
  -5   7  13    4.80    2.80
  -7  -5  13    6.40    3.40
   7   4 -13    3.40    4.40
  -7  -4 -13    2.10    1.10
  -4   7 -13    1.60    2.20
   7   4 -13    3.50    2.50
   4  -7 -13   -5.20    4.70
  -4   7 -13    6.60    4.10
   7   4 -13    4.30    2.30
   4  -7 -13    2.60    2.30
  -4   7 -13    3.50    3.40
  -7  -4  13    2.30    2.50
  -7  -4  13    5.80    3.30
  -4   7  13    3.40    2.50
  -7  -4  13    3.10    3.10
  -3   7 -13  171.08   15.70
   3  -7 -13  199.48   22.50
  -7  -3 -13  163.08   14.50
   7   3 -13  197.58   15.60
  -3   7 -13  189.08   18.10
   7   3 -13  196.88   16.10
   7   3 -13  208.28   18.80
   3  -7 -13  190.28   15.70
  -3   7 -13  217.58   18.60
  -7  -3  13  175.28   17.80
  -3   7  13  186.88   16.10
  -7  -3  13  201.38   16.70
   7   2 -13  172.08   15.60
  -2   7 -13  229.88   19.10
  -2   7 -13  179.38   16.90
  -2   7 -13  182.68   15.70
   2  -7 -13  193.98   15.50
   2  -7 -13  168.18   20.90
  -2   7 -13  182.68   17.90
   7   2 -13  220.08   18.00
  -7  -2 -13  170.68   14.70
  -2   7  13  183.98   15.80
  -7  -2  13  189.08   16.40
  -1   7 -13  291.37   22.90
  -1   7 -13  312.27   26.20
  -1   7 -13  266.57   23.80
  -1   7 -13  303.97   25.60
   1  -7 -13  297.17   22.60
   7   1 -13  263.27   22.80
  -7  -1 -13  284.27   22.20
   1  -7 -13  266.27   27.90
   7   1 -13  338.87   24.10
  -7  -1  13  265.87   23.40
  -1   7  13  282.07   22.90
   0   7 -13   87.19   10.20
   7   0 -13  116.89    9.80
   0   7 -13  102.79   13.30
  -7   0 -13   97.59    9.00
   0  -7 -13   94.29   15.10
   0   7 -13   90.99   11.50
   0  -7 -13  101.99    9.20
   0   7 -13   93.69    9.30
   7   0 -13   89.19    9.30
   0   7  13  101.99    9.50
   0  -7  13  105.29   11.20
  -7   0  13   94.69   10.00
   1   7 -13  285.77   26.30
   1   7 -13  283.97   23.40
  -7   1 -13  306.47   22.30
   1   7 -13  263.37   24.70
   7  -1 -13  262.97   22.30
   1   7 -13  281.17   22.20
   7  -1 -13  295.27   21.60
   1   7  13  309.47   22.60
  -1  -7  13  270.37   25.20
  -1  -7  13  260.17   22.60
  -7   1  13  257.17   22.90
   2   7 -13  194.98   15.80
   2   7 -13  182.88   16.70
   7  -2 -13  174.98   15.80
   2   7 -13  186.28   20.30
   2   7 -13  181.38   18.20
  -7   2 -13  204.18   16.00
  -2  -7  13  184.08   16.30
  -2  -7  13  195.38   16.20
   2   7  13  202.58   16.10
  -7   2  13  172.78   16.40
   3   7 -13  220.68   21.50
   7  -3 -13  180.38   16.10
   3   7 -13  195.68   15.90
  -7   3 -13  208.78   16.40
   3   7 -13  188.38   18.40
   3   7  13  200.88   16.40
  -3  -7  13  177.98   16.60
  -3  -7  13  187.18   16.50
  -7   3  13  178.58   16.70
   4   7 -13    0.90    3.20
   4   7 -13    9.40    2.80
  -7   4 -13    2.80    2.40
   7  -4 -13    3.90    2.50
   4   7 -13    2.60    5.20
  -7   4 -13    8.70    2.70
  -4  -7  13    2.60    2.50
  -4  -7  13    2.00    3.00
  -7   4  13    2.30    2.60
   4   7  13    3.10    2.40
   5   7 -13   11.80    6.50
  -7   5 -13    9.60    3.30
   7  -5 -13    8.70    3.00
   5   7 -13    4.70    3.50
   5   7 -13    7.20    2.70
  -5  -7  13    7.70    3.50
  -5  -7  13    4.90    3.10
   5   7  13    8.00    3.00
  -7   5  13    4.70    2.80
   6   7 -13    6.00    6.20
   7  -6 -13   -0.50    2.10
   6   7 -13    0.80    2.10
  -7   6 -13   -2.30    2.30
  -6  -7  13    2.10    2.80
  -6  -7  13    3.10    3.10
  -7   6  13    1.80    2.50
   7   7 -13  457.65   36.50
   7  -7 -13  352.36   39.50
  -7   7 -13  425.16   31.40
   7   7 -13  384.86   29.70
   7  -7 -13  346.47   29.60
  -7  -7  13  366.56   31.30
  -7  -7  13  356.66   30.20
  -7   7  13  385.86   30.90
   6  -8 -13    3.00    6.40
  -6   8 -13    6.50    4.10
  -6   8 -13    4.40    2.80
   8   6 -13    7.30    6.20
   8   6 -13    5.10    2.40
   6  -8 -13    6.40    2.80
  -6   8 -13    6.80    4.20
  -8  -6  13    6.40    3.80
  -8  -6  13    4.40    3.40
  -6   8  13    5.60    3.10
   5  -8 -13  321.27   33.80
  -5   8 -13  343.47   28.50
  -5   8 -13  297.17   26.10
  -8  -5 -13  311.87   24.10
   8   5 -13  341.47   26.00
   8   5 -13  414.26   31.50
   5  -8 -13  335.47   25.90
  -8  -5  13  304.27   26.50
  -8  -5  13  339.87   28.00
  -5   8  13  333.37   26.80
   4  -8 -13   16.00    3.50
   4  -8 -13   13.80    7.80
  -8  -4 -13   15.40    2.20
  -4   8 -13   13.70    5.50
   8   4 -13   16.50    6.20
  -4   8 -13   14.50    5.30
  -4   8 -13   16.50    3.80
   8   4 -13   13.80    3.30
  -4   8  13   12.60    3.80
  -8  -4  13   12.50    4.20
  -8  -4  13   14.10    4.30
  -8  -4  13   13.80    4.60
  -3   8 -13  268.97   21.30
  -8  -3 -13  189.18   15.90
   8   3 -13  208.68   17.60
   8   3 -13  238.18   20.60
   3  -8 -13  195.38   23.10
   3  -8 -13  210.88   17.00
  -3   8 -13  193.28   17.20
  -3   8 -13  197.28   19.80
  -8  -3  13  231.38   18.60
  -3   8  13  209.18   17.70
  -8  -3  13  191.98   19.00
  -8  -3  13  193.98   18.10
   2  -8 -13   32.10    9.20
  -8  -2 -13   33.30    4.10
   8   2 -13   41.70    6.00
  -2   8 -13   34.50    5.20
  -2   8 -13   36.90    8.40
   2  -8 -13   35.40    5.10
   8   2 -13   41.90    7.50
  -2   8 -13   55.79    9.30
  -8  -2  13   30.30    5.70
  -2   8  13   39.00    5.40
   1  -8 -13   21.20    8.40
  -1   8 -13   42.10    8.20
   8   1 -13   42.50    6.70
  -1   8 -13   38.10    5.30
  -8  -1 -13   32.10    4.30
  -1   8 -13   33.80    6.80
  -1   8 -13   48.40    9.70
   8   1 -13   44.20    5.60
  -8  -1  13   37.40    6.30
  -1   8  13   37.20    5.30
   1  -8  13   31.40    5.30
   0   8 -13   -1.00    4.60
   0   8 -13    0.80    1.80
   8   0 -13    2.80    2.70
   0   8 -13   16.40    4.50
   0   8 -13    1.10    3.40
   8   0 -13   -1.50    1.90
  -8   0 -13    2.80    2.00
   0  -8 -13   -2.40    3.90
   0   8  13    2.50    2.20
   0  -8  13    0.60    2.10
   0  -8  13   -0.20    2.70
  -8   0  13    0.90    2.40
   1   8 -13   40.30    8.00
   8  -1 -13   41.20    5.20
  -8   1 -13   39.70    5.00
   8  -1 -13   33.00    5.40
   1   8 -13   46.80    8.10
   1   8 -13   36.90    5.20
   1   8 -13   30.90    9.00
  -1  -8 -13   46.00   10.40
  -8   1  13   37.40    6.40
  -1  -8  13   33.90    5.60
   1   8  13   39.20    5.40
  -1  -8  13   43.60    6.40
   2   8 -13   31.10    7.20
   2   8 -13   44.60   10.40
   8  -2 -13   35.40    5.70
  -8   2 -13   32.70    5.10
   8  -2 -13   38.70    4.20
   2   8 -13   42.00    5.30
  -8   2  13   33.40    6.00
  -2  -8  13   38.00    6.00
   2   8  13   41.10    5.40
  -2  -8  13   36.80    5.80
   3   8 -13  258.77   24.30
  -8   3 -13  216.28   17.80
   3   8 -13  214.98   20.40
   8  -3 -13  195.18   17.70
   3   8 -13  221.68   17.70
  -3  -8  13  193.98   18.20
  -8   3  13  186.28   18.30
  -3  -8  13  214.18   18.20
   3   8  13  237.18   18.10
  -8   4 -13   24.40    4.00
   4   8 -13   21.10    8.30
  -8   4 -13   15.40    3.80
   4   8 -13   14.00    3.50
   4   8 -13   16.40    5.30
   8  -4 -13   13.70    3.70
  -8   4  13   18.10    4.60
   4   8  13   16.20    3.90
  -4  -8  13   15.60    4.30
  -4  -8  13   13.90    4.10
   5   8 -13  440.06   34.60
   5   8 -13  322.37   29.50
   8  -5 -13  312.97   27.10
  -8   5 -13  378.86   27.40
   5   8 -13  347.07   27.00
  -5  -8  13  341.57   27.60
  -5  -8  13  331.47   28.20
  -8   5  13  324.97   28.10
   6   8 -13    4.50    2.50
   8  -6 -13    4.80    2.70
   6   8 -13   13.00    7.30
  -8   6 -13    2.30    2.70
  -6  -8  13    6.40    3.50
  -8   6  13    8.10    3.70
  -6  -8  13    4.40    3.40
  -4   9 -13    1.00    2.40
  -9  -4 -13    2.30    1.10
   4  -9 -13    4.20    2.40
   9   4 -13    1.50    4.90
  -4   9 -13    4.90    5.10
  -4   9 -13    3.70    4.30
   4  -9 -13    2.90    5.70
   9   4 -13    5.90    2.60
  -4   9  13    2.90    2.80
  -9  -4  13    3.80    3.50
  -9  -4  13    5.80    3.70
  -9  -4  13    8.10    3.70
  -3   9 -13    8.50    3.10
   9   3 -13    6.40    5.00
   9   3 -13    4.30    3.00
  -3   9 -13    0.80    3.70
  -3   9 -13    5.70    5.20
  -9  -3 -13    2.00    1.30
   3  -9 -13   10.30    6.40
  -3   9  13    2.50    2.60
  -9  -3  13    6.20    3.40
  -9  -3  13    2.10    3.00
  -9  -3  13    3.90    3.50
  -2   9 -13    3.60    2.50
   9   2 -13    7.30    3.00
   2  -9 -13    1.40    4.70
  -2   9 -13    1.40    5.00
  -9  -2 -13    1.90    1.50
   9   2 -13    6.60    4.40
  -2   9 -13    5.20    4.50
   2  -9  13    4.60    3.30
  -9  -2  13    2.50    3.90
  -2   9  13    0.50    3.50
  -9  -2  13    3.00    2.90
   2  -9  13    3.30    2.60
  -1   9 -13  356.66   31.20
  -1   9 -13  365.96   29.90
   1  -9 -13  303.57   31.00
   9   1 -13  332.27   26.40
  -9  -1 -13  313.07   25.20
  -1   9 -13  330.27   26.20
   1  -9  13  321.87   26.60
   1  -9  13  343.67   26.60
  -9  -1  13  326.87   27.30
   0   9 -13    3.70    4.10
   9   0 -13    7.00    2.90
   9   0 -13    5.30    3.20
   0   9 -13   -2.80    4.80
   0   9 -13    2.30    2.20
  -9   0 -13    3.30    2.00
   0  -9 -13    7.40    5.50
   0  -9  13    4.20    2.60
  -9   0  13    4.50    3.10
   0  -9  13    4.90    3.40
  -9   1 -13  346.47   27.20
   9  -1 -13  392.76   27.30
   1   9 -13  366.26   33.20
   1   9 -13  352.46   27.50
   9  -1 -13  315.97   27.60
  -1  -9 -13  366.46   32.50
   1   9 -13  341.37   30.60
  -9   1  13  332.37   28.70
  -1  -9  13  361.26   28.30
  -1  -9  13  342.87   27.80
   2   9 -13   -0.80    6.00
   2   9 -13    3.10    2.40
  -2  -9 -13    1.50    4.80
   9  -2 -13    1.40    1.80
   9  -2 -13    7.60    3.00
  -9   2 -13    3.10    2.20
   2   9 -13    4.70    4.10
  -2  -9  13    2.80    2.50
  -2  -9  13    3.50    3.20
  -9   2  13    4.60    3.00
   3   9 -13    3.30    2.40
  -9   3 -13    0.10    2.10
   9  -3 -13    5.30    2.80
   3   9 -13    1.60    3.30
   3   9 -13    6.00    6.50
  -3  -9  13    4.10    3.30
  -3  -9  13    3.20    2.80
  -9   3  13    2.60    2.90
   4   9 -13    1.90    6.30
   4   9 -13    9.90    3.20
   9  -4 -13    2.20    2.60
   4   9 -13    4.40    3.90
  -9   4 -13    3.10    2.60
  -9   4  13    9.10    3.90
  -4  -9  13    4.40    3.00
  -4  -9  13    4.10    3.40
  10   2 -13  100.09   10.10
  -2  10 -13  103.99   15.40
  10   2 -13  112.99   12.80
  -2  10 -13   84.49    9.30
 -10  -2  13   94.09   10.90
   2 -10  13   96.29   10.30
 -10  -2  13   89.29   11.10
   1 -10 -13    0.80    4.50
  -1  10 -13    4.50    4.40
  10   1 -13   10.70    4.50
 -10  -1 -13   -0.10    1.40
  -1  10 -13    0.70    6.10
  -1  10 -13    1.60    2.40
  10   1 -13    4.10    2.90
   1 -10  13    4.80    2.90
   1 -10  13    3.00    3.30
 -10  -1  13    3.70    3.20
   0  10 -13    4.10    4.50
   0  10 -13    1.90    6.00
   0 -10 -13    0.10    4.60
  10   0 -13    1.30    3.10
   0  10 -13    3.70    2.60
  10   0 -13    3.20    2.70
 -10   0 -13    0.40    1.70
   0 -10  13    1.90    2.70
   0 -10  13    0.20    3.10
 -10   0  13    3.00    3.00
  10  -1 -13    1.00    2.40
   1  10 -13    6.80    4.50
   1  10 -13    1.60    6.60
   1  10 -13    4.70    2.70
 -10   1 -13    3.70    2.20
  10  -1 -13    5.50    2.90
  -1 -10 -13    3.40    5.00
  -1 -10  13    5.60    3.10
 -10   1  13    4.20    3.30
  -1 -10  13    4.10    3.40
   2  10 -13   95.29   16.30
  10  -2 -13   85.09    9.70
   2  10 -13   95.59    9.50
  10  -2 -13  109.49    8.80
 -10   2  13   76.69   10.30
  -2 -10  13   99.99   10.40
   0   0 -14  226.68   17.90
   0   0 -14  203.68   17.70
   0   0  14  222.68   17.80
   0  -1 -14    1.90    1.70
   1   0 -14   -0.90    1.40
   0  -1 -14    2.20    2.10
   0   1 -14    4.00    1.90
  -1   0 -14    1.70    2.20
   0   1 -14    2.70    2.00
   1   0 -14    0.90    1.90
  -1   0 -14    0.50    1.50
   1   0  14    1.90    1.90
   0   1  14    6.40    2.40
  -1   0  14    1.00    1.80
   0  -1  14    1.70    1.90
   1   1 -14   18.30    3.60
  -1   1 -14   13.60    3.10
  -1  -1 -14   14.70    3.10
  -1  -1 -14   13.10    3.30
   1  -1 -14   15.90    3.30
  -1   1 -14   14.40    3.60
   1   1 -14   14.30    3.40
  -1   1  14   17.90    3.70
   1  -1  14   13.40    3.30
   1   1  14   24.20    3.90
  -1  -1  14   15.30    3.50
   1  -2 -14  113.59    9.60
   2   1 -14   97.89    9.40
  -2  -1 -14   92.99    9.50
  -1   2 -14   92.49    9.40
  -2  -1 -14   93.89    9.00
  -1   2 -14  106.99    9.30
  -1   2 -14   96.89    9.30
   1  -2  14   93.99    9.20
  -1   2  14  101.19    9.40
  -2  -1  14   98.79    9.40
   2   1  14  101.99    9.50
   2   0 -14  113.59    9.00
   0   2 -14   81.59    8.70
  -2   0 -14   80.49    8.20
   0  -2 -14   93.39    8.80
   0   2 -14   84.59    8.50
  -2   0 -14   82.59    8.80
   0   2 -14   96.89    8.50
   0   2  14   81.59    8.40
   0  -2  14   93.49    8.70
  -2   0  14   86.09    8.60
   2   0  14   82.49    8.50
   2  -1 -14  101.79    9.40
   1   2 -14   95.69    9.20
  -1  -2 -14   97.39    9.00
   1   2 -14   86.49    9.20
  -2   1 -14   94.29    9.00
  -1  -2 -14  105.39    9.50
  -2   1 -14  102.89    9.70
  -1  -2  14   98.49    9.30
  -2   1  14  106.29    9.50
   2  -1  14   91.39    9.10
   1   2  14   90.89    9.00
  -2  -2 -14    8.90    3.00
  -2  -2 -14    6.00    2.20
   2   2 -14    9.70    3.00
   2  -2 -14    6.20    2.40
  -2   2 -14    6.50    2.50
  -2   2 -14    4.20    2.20
   2   2 -14    9.90    2.30
  -2   2 -14    6.40    2.90
   2   2 -14   18.70    4.20
   2  -2  14    7.60    2.60
  -2  -2  14    7.30    2.80
  -2   2  14    4.40    2.40
   2   2  14    8.60    2.80
  -2   3 -14  269.67   20.60
  -3  -2 -14  258.07   20.60
   3   2 -14  289.57   20.10
  -3  -2 -14  239.98   19.70
   2  -3 -14  262.87   20.40
  -2   3 -14  237.38   20.70
  -2   3 -14  221.38   20.50
   3   2 -14  249.28   20.40
  -2   3 -14  247.08   20.30
  -2   3  14  243.88   20.40
   3   2  14  253.97   20.60
  -3  -2  14  269.07   20.60
   2  -3  14  243.38   20.30
  -3  -1 -14    9.30    3.10
  -3  -1 -14    4.40    1.90
  -1   3 -14    8.60    3.10
   1  -3 -14    7.20    2.80
  -1   3 -14    5.90    2.60
  -1   3 -14    5.10    2.40
  -1   3 -14    2.50    2.20
   3   1 -14    8.20    2.80
   3   1  14    6.30    2.60
  -3  -1  14    5.00    2.30
  -1   3  14    4.60    2.50
   1  -3  14    6.00    2.40
   3   0 -14    1.20    1.90
  -3   0 -14    0.50    1.50
   0   3 -14    1.10    2.10
   0   3 -14    3.10    2.10
   0  -3 -14    0.60    1.80
   0   3 -14    0.90    1.80
  -3   0 -14    6.40    2.90
   0   3 -14    2.30    2.00
  -3   0  14    9.20    2.90
   0   3  14    0.00    1.80
   1   3 -14    5.90    2.50
   1   3 -14    7.80    2.40
   1   3 -14    7.40    2.70
  -3   1 -14    5.40    2.20
  -3   1 -14    5.80    2.80
   3  -1 -14    7.60    2.60
  -3   1 -14    4.90    2.80
  -1  -3 -14    5.20    2.30
  -1  -3  14    6.60    2.60
  -3   1  14    7.90    2.80
   1   3  14    7.60    2.80
  -3   2 -14  259.47   20.60
  -2  -3 -14  245.58   20.40
   2   3 -14  261.77   20.10
   3  -2 -14  244.48   20.30
  -3   2 -14  253.27   21.00
   2   3 -14  234.88   20.40
  -3   2 -14  250.57   20.30
   2   3 -14  276.27   20.60
  -2  -3  14  269.87   20.60
  -3   2  14  246.98   20.50
   2   3  14  242.08   20.40
  -3  -3 -14  105.79   10.00
  -3  -3 -14   97.59    9.10
   3   3 -14   93.69    9.70
   3   3 -14  111.59    9.50
  -3   3 -14  101.19    9.80
  -3   3 -14  107.99   10.00
  -3   3 -14  100.19    9.90
   3  -3 -14  102.89    9.80
   3   3 -14  113.09   10.70
  -3   3 -14   98.89   10.20
  -3   3  14  100.39    9.90
  -3  -3  14  116.39   10.20
   3   3  14  101.29    9.90
  -3   4 -14   16.50    3.70
   4   3 -14   20.70    4.80
  -4  -3 -14   20.00    3.20
  -3   4 -14   21.50    4.50
  -3   4 -14   15.30    4.00
   3  -4 -14   12.70    3.30
  -3   4 -14   15.50    3.60
   4   3 -14   14.00    3.50
  -4  -3 -14   16.20    3.80
   4   3 -14   23.00    3.70
  -4  -3  14   19.30    4.10
   3  -4  14   16.00    3.60
  -3   4  14   21.20    4.00
  -2   4 -14    3.20    2.30
   2  -4 -14    4.80    2.50
  -2   4 -14    5.60    2.90
   4   2 -14    5.00    2.40
  -2   4 -14    2.70    2.70
  -4  -2 -14    2.90    2.60
  -4  -2 -14    2.90    1.60
   4   2 -14    4.40    2.70
  -4  -2  14    8.60    2.80
  -2   4  14    3.50    2.40
   2  -4  14    1.90    2.10
   4   1 -14  256.27   22.40
  -1   4 -14  287.77   22.50
  -1   4 -14  268.67   23.60
  -1   4 -14  319.67   22.30
  -4  -1 -14  291.87   23.20
  -4  -1 -14  272.07   22.10
   1  -4 -14  280.07   22.60
  -1   4 -14  270.07   23.00
  -1   4  14  283.27   22.70
   1  -4  14  303.87   22.80
  -4  -1  14  292.17   23.00
   4   0 -14    8.90    2.90
   0   4 -14    5.50    2.70
   0   4 -14    9.50    2.70
   0   4 -14    6.20    3.30
   0  -4 -14    5.40    2.50
   0   4 -14    6.10    3.00
  -4   0 -14    6.80    2.30
  -4   0 -14    7.30    3.10
   0   4  14    6.80    2.60
   0  -4  14    9.70    2.90
  -4   0  14    5.90    2.50
  -4   1 -14  294.37   22.50
  -1  -4 -14  287.37   22.50
   1   4 -14  263.87   22.70
   1   4 -14  299.77   23.30
   1   4 -14  255.57   23.80
  -4   1 -14  270.37   23.10
   1   4 -14  302.17   22.40
   4  -1 -14  283.97   22.50
   1   4  14  270.07   22.50
  -4   1  14  275.37   22.80
  -1  -4  14  305.87   22.70
   2   4 -14    2.80    2.30
   2   4 -14    5.40    3.40
   4  -2 -14    4.30    2.40
  -4   2 -14    3.70    2.40
   2   4 -14    4.40    2.20
  -4   2 -14    3.60    2.70
  -4   2 -14    3.00    2.10
  -2  -4  14    3.50    2.30
   2   4  14    3.70    2.30
  -4   2  14    2.60    2.20
   3   4 -14   22.70    5.40
  -4   3 -14   17.50    3.80
  -4   3 -14   21.10    4.20
  -4   3 -14   17.40    3.60
  -3  -4 -14   17.70    3.90
   3   4 -14   20.80    3.70
   3   4 -14   15.00    3.60
  -4   3 -14   14.10    4.20
   4  -3 -14   17.30    3.80
  -4   3  14   16.90    3.70
  -3  -4  14   25.50    4.50
   3   4  14   14.20    3.60
  -4   4 -14   30.10    5.00
  -4   4 -14   26.50    5.50
   4   4 -14   36.20    4.60
   4   4 -14   30.20    5.10
  -4   4 -14   31.90    5.30
  -4  -4 -14   27.00    4.90
  -4   4 -14   27.90    4.90
   4   4 -14   35.80    7.10
   4  -4 -14   36.40    5.30
  -4   4  14   36.70    5.30
  -4  -4  14   30.00    5.10
   4   4  14   34.10    5.50
   5   4 -14   67.19    9.70
   4  -5 -14   55.69    6.60
  -5  -4 -14   51.89    5.60
   5   4 -14   59.09    7.00
  -4   5 -14   60.09    7.00
  -4   5 -14   54.19    7.80
  -5  -4 -14   61.59    7.20
  -4   5 -14   63.49    7.90
   5   4 -14   73.69    6.80
  -4   5  14   65.19    7.40
  -5  -4  14   66.99    7.60
   3  -5 -14   11.20    3.30
  -3   5 -14   14.40    4.20
   5   3 -14   13.20    4.40
   5   3 -14   11.20    3.30
  -3   5 -14   10.20    3.60
  -5  -3 -14   11.00    3.40
  -5  -3 -14    9.50    2.20
  -3   5 -14   11.00    3.80
  -3   5 -14    8.80    3.00
   3  -5  14   11.40    3.10
  -3   5  14   10.20    3.10
  -5  -3  14   11.70    3.50
  -2   5 -14   42.10    7.30
   5   2 -14   47.10    6.10
  -5  -2 -14   46.60    5.10
   2  -5 -14   52.19    6.00
  -2   5 -14   42.40    5.70
   5   2 -14   64.39    7.20
  -5  -2 -14   47.70    6.40
  -2   5 -14   51.89    6.60
  -2   5 -14   49.80    7.40
  -2   5  14   44.70    6.00
  -5  -2  14   51.49    6.40
   2  -5  14   49.20    6.00
  -5  -1 -14  268.77   22.00
  -1   5 -14  306.17   23.40
  -5  -1 -14  277.37   23.20
   5   1 -14  327.47   22.10
  -1   5 -14  266.77   22.30
  -1   5 -14  249.08   23.00
   5   1 -14  256.07   22.40
   1  -5 -14  284.27   22.50
  -1   5 -14  260.87   24.00
  -5  -1  14  302.57   23.20
   1  -5  14  304.37   22.70
  -1   5  14  282.97   22.70
   0   5 -14    2.80    3.20
  -5   0 -14    2.90    1.80
   0  -5 -14    0.50    2.00
   0   5 -14   -0.10    1.90
   0   5 -14    1.30    2.40
  -5   0 -14    0.90    2.40
   5   0 -14    2.20    2.30
   0   5 -14    2.90    3.00
   0   5  14   -0.30    2.00
  -5   0  14    6.30    2.80
   0  -5  14    2.80    2.20
  -5   1 -14  281.37   22.40
   5  -1 -14  266.17   22.40
  -5   1 -14  242.78   23.00
   1   5 -14  285.47   24.60
   1   5 -14  293.57   22.40
   1   5 -14  299.77   24.30
   1   5 -14  267.37   22.90
  -1  -5 -14  293.47   22.40
  -1  -5  14  314.57   22.80
  -5   1  14  269.17   22.80
   1   5  14  288.27   22.70
   2   5 -14   54.99    6.00
  -2  -5 -14   50.59    6.10
   2   5 -14   49.00    6.40
   2   5 -14   50.29    8.70
   2   5 -14   51.19    8.40
   5  -2 -14   52.09    6.20
  -5   2 -14   44.70    7.10
  -5   2 -14   45.90    5.90
   2   5  14   51.49    6.30
  -5   2  14   43.80    6.20
  -2  -5  14   56.19    6.30
  -5   3 -14    8.00    3.60
  -3  -5 -14    8.80    3.00
   5  -3 -14    9.80    3.10
   3   5 -14   18.50    4.10
  -5   3 -14   13.60    3.10
   3   5 -14   10.00    2.90
   3   5 -14   11.50    5.10
  -5   3 -14   12.00    3.20
  -5   3  14    9.20    3.40
   3   5  14   10.60    3.20
  -3  -5  14    7.50    3.10
   4   5 -14   66.39    6.90
   4   5 -14   68.89   10.70
  -5   4 -14   67.59    7.60
  -5   4 -14   63.19    7.20
   5  -4 -14   64.69    7.20
  -5   4 -14   55.89    7.10
   4   5 -14   57.59    7.20
  -5   4  14   57.09    7.10
   4   5  14   64.99    7.50
  -4  -5  14   71.89    8.60
   5   5 -14   18.10    6.20
   5   5 -14   17.30    4.10
   5   5 -14   19.40    3.80
  -5   5 -14   14.30    3.90
   5  -5 -14   18.00    3.80
  -5   5 -14   16.20    4.20
  -5   5  14   21.50    4.70
   6   5 -14   30.90    7.70
   5  -6 -14   26.70    4.80
   6   5 -14   32.60    5.50
   6   5 -14   31.90    4.70
  -5   6 -14   30.80    6.10
  -5   6 -14   25.60    5.00
  -6  -5  14   31.20    5.70
  -6  -5  14   29.60    6.10
  -5   6  14   30.70    5.30
   6   4 -14   88.29    8.90
  -4   6 -14   96.69    8.70
   6   4 -14   90.39   11.40
  -6  -4 -14   66.19    6.90
   4  -6 -14   85.09    8.50
   6   4 -14   86.79    8.20
  -4   6 -14   81.39    9.80
  -4   6 -14   74.29    8.40
  -4   6  14   74.49    8.70
  -6  -4  14  100.69    9.50
  -6  -3 -14   57.89    7.10
  -3   6 -14   60.99    7.60
  -3   6 -14   52.09    8.40
   6   3 -14   55.69    8.50
   6   3 -14   53.79    6.70
  -3   6 -14   50.99    6.40
  -6  -3 -14   50.49    5.30
  -3   6 -14   53.59    8.10
   3  -6 -14   59.49    6.60
  -3   6  14   53.29    6.70
   3  -6  14   59.69    7.10
  -6  -3  14   60.59    7.30
  -2   6 -14   52.79    8.00
   2  -6 -14   49.10    6.00
  -2   6 -14   45.00    5.90
   6   2 -14   50.99    6.30
   6   2 -14   61.19    7.60
  -2   6 -14   54.49    8.50
  -6  -2 -14   47.50    5.20
  -2   6 -14   48.80    7.50
  -6  -2 -14   50.19    7.30
  -2   6  14   52.19    6.40
  -6  -2  14   44.30    6.40
  -6  -1 -14  244.48   20.70
   6   1 -14  244.88   21.20
   6   1 -14  298.17   21.30
  -6  -1 -14  263.37   22.20
  -1   6 -14  299.07   23.30
  -1   6 -14  252.27   23.30
   1  -6 -14  286.27   21.40
  -1   6 -14  252.27   22.20
  -1   6 -14  262.77   21.30
  -6  -1  14  265.47   22.00
  -1   6  14  257.67   21.50
   0   6 -14  183.08   17.90
  -6   0 -14  178.38   15.20
   0  -6 -14  179.78   15.50
   0   6 -14  183.68   15.60
   6   0 -14  210.48   14.60
  -6   0 -14  175.78   16.50
   0   6 -14  211.48   18.30
   0   6 -14  170.58   16.30
   6   0 -14  177.38   15.70
   0   6  14  183.48   15.80
  -6   0  14  179.18   16.20
   1   6 -14  273.57   24.20
   6  -1 -14  255.27   21.70
   1   6 -14  284.47   21.70
   1   6 -14  263.47   22.40
  -1  -6 -14  283.17   21.60
  -6   1 -14  265.97   22.70
  -6   1 -14  264.27   21.60
   1   6 -14  304.17   24.70
   1   6  14  259.87   21.80
  -6   1  14  261.87   22.30
   2   6 -14   59.09    6.10
   6  -2 -14   45.40    5.90
  -2  -6 -14   47.70    6.20
  -6   2 -14   54.69    6.40
   2   6 -14   47.40    7.20
   2   6 -14   53.79    9.10
   2   6 -14   49.70    9.30
  -6   2  14   47.50    6.60
   2   6  14   54.19    6.50
   3   6 -14   66.69    6.80
   3   6 -14   61.89    7.50
   3   6 -14   61.29   10.70
  -6   3 -14   64.59    7.10
   6  -3 -14   52.29    6.70
   3   6 -14   56.69    9.50
   3   6  14   59.09    7.10
  -6   3  14   52.19    7.10
   4   6 -14   84.19    9.20
  -6   4 -14   95.59    9.30
  -6   4 -14   97.39    8.70
   4   6 -14   87.79    8.50
   6  -4 -14   70.29    8.40
   4   6 -14  132.29   14.30
   4   6  14   92.39    9.20
  -6   4  14   76.39    9.00
  -4  -6  14   61.79    8.90
  -6   5 -14   26.40    5.10
   6  -5 -14   27.70    4.90
   5   6 -14   42.30    9.40
   5   6 -14   33.40    4.80
  -5  -6  14   34.10    5.80
   5   6  14   30.10    5.50
  -5  -6  14   27.50    5.70
  -6   5  14   26.00    5.20
   6   6 -14   20.90    4.10
  -6   6 -14   17.20    4.70
   6  -6 -14   19.70    4.10
  -6   6 -14   16.90    4.10
   6   6 -14   28.90    8.20
  -6  -6  14   22.90    5.00
  -6  -6  14   15.00    4.50
  -6   6  14   16.00    4.40
  -5   7 -14    3.20    2.70
   5  -7 -14    6.70    2.80
   7   5 -14   10.50    5.70
  -5   7 -14    3.00    3.10
   7   5 -14    5.80    2.70
  -5   7 -14    6.00    3.80
  -7  -5  14    8.00    4.00
  -5   7  14    6.00    3.00
  -7  -5  14    7.20    3.70
  -4   7 -14   61.69    8.00
   7   4 -14   51.49    7.30
   7   4 -14   48.10    6.50
   7   4 -14   60.39    9.70
  -4   7 -14   45.20    6.20
  -7  -4 -14   38.70    4.40
   4  -7 -14   45.00    6.00
  -4   7 -14   56.39    8.70
  -7  -4  14   54.89    7.10
  -4   7  14   55.79    6.80
  -3   7 -14    2.70    3.40
  -7  -3 -14    6.60    1.90
   7   3 -14   13.00    3.70
  -3   7 -14    8.60    3.10
   3  -7 -14   15.20    3.50
   7   3 -14   14.90    5.20
  -3   7 -14   13.80    4.70
  -3   7  14    9.10    3.10
  -7  -3  14    6.70    3.40
   2  -7 -14  225.78   18.00
  -2   7 -14  175.58   18.80
   7   2 -14  227.78   18.40
   7   2 -14  252.77   19.50
  -2   7 -14  212.78   18.10
  -2   7 -14  247.18   21.00
  -2   7 -14  249.28   20.50
  -7  -2 -14  193.98   17.00
  -7  -2  14  218.58   19.00
  -2   7  14  209.58   18.30
   7   1 -14   18.80    4.10
  -1   7 -14   11.10    3.30
  -1   7 -14   17.30    4.70
   7   1 -14   19.90    4.20
  -1   7 -14   12.70    5.50
  -1   7 -14   15.80    5.40
   1  -7 -14   17.20    3.60
  -7  -1 -14   18.30    3.20
  -1   7  14   14.40    3.70
  -7  -1  14   18.50    4.50
   7   0 -14    2.20    2.00
   7   0 -14    1.40    2.30
   0  -7 -14    1.80    2.10
   0   7 -14    3.10    2.20
   0   7 -14    3.20    3.60
  -7   0 -14    0.90    1.80
   0   7 -14    2.30    2.90
   0   7 -14    1.90    4.40
  -7   0  14    4.00    2.90
   0   7  14    2.30    2.40
   1   7 -14   21.50    4.80
   1   7 -14   18.80    3.90
   1   7 -14   22.20    6.30
   7  -1 -14   19.30    4.20
   1   7 -14   17.30    6.50
  -7   1 -14   18.00    3.70
   1   7  14   14.00    3.70
  -7   1  14   15.70    4.30
   2   7 -14  241.28   22.60
   2   7 -14  228.58   18.20
   2   7 -14  204.98   20.70
   7  -2 -14  196.38   18.10
  -7   2 -14  234.48   18.40
   2   7 -14  236.08   19.50
  -7   2  14  209.08   18.80
  -2  -7  14  212.78   18.90
   2   7  14  223.18   18.50
   3   7 -14   12.70    3.40
  -7   3 -14   10.60    3.40
   7  -3 -14    8.40    3.20
   3   7 -14   10.80    4.80
   3   7 -14   12.30    6.60
  -3  -7  14   12.40    4.00
  -7   3  14    6.50    3.20
   3   7  14   11.20    3.50
  -3  -7  14    7.10    3.20
   4   7 -14   48.70   10.50
   4   7 -14   49.10    9.00
   4   7 -14   64.59    6.40
   7  -4 -14   48.10    6.30
  -7   4 -14   47.50    6.60
  -4  -7  14   49.20    7.60
  -4  -7  14   49.10    7.30
  -7   4  14   45.30    6.90
   4   7  14   49.99    6.60
   5   7 -14   11.40    6.80
   5   7 -14    6.40    2.90
   7  -5 -14    5.50    2.70
  -7   5 -14    3.80    2.80
  -5  -7  14   11.30    4.00
   5   7  14    7.20    3.10
  -5  -7  14    5.50    3.20
  -7   5  14    7.10    3.50
   8   3 -14   73.29   10.10
  -3   8 -14   49.99    6.60
  -3   8 -14   56.99    9.50
  -8  -3 -14   43.10    4.90
   3  -8 -14   56.59   13.60
   3  -8 -14   56.69    6.50
   8   3 -14   56.39    7.00
  -3   8 -14   59.89    9.90
  -8  -3  14   59.39    7.70
  -3   8  14   58.99    7.30
  -8  -2 -14   15.40    2.90
  -2   8 -14   21.10    6.30
  -2   8 -14   15.20    3.80
   8   2 -14   19.20    4.40
   8   2 -14   25.90    5.60
   2  -8 -14   12.00    7.80
   2  -8 -14   17.90    3.80
  -2   8 -14   25.00    7.00
  -8  -2  14   22.40    5.10
  -2   8  14   16.40    4.10
  -1   8 -14   28.40    7.70
  -1   8 -14   17.80    5.80
   8   1 -14   29.90    5.10
   8   1 -14   38.70    5.50
  -8  -1 -14   16.10    3.30
  -1   8 -14   23.00    5.60
  -1   8 -14   23.30    4.40
  -8  -1  14   18.90    4.70
  -1   8  14   22.30    4.70
   0   8 -14   62.69    9.30
   8   0 -14   57.89    7.20
   0   8 -14   67.19   10.60
   0   8 -14   53.79    6.90
   8   0 -14   70.19    7.00
  -8   0 -14   62.29    6.60
   0   8 -14   59.79   10.90
   0   8  14   63.09    7.30
  -8   0  14   62.29    8.00
   1   8 -14   23.80    6.50
  -8   1 -14   19.30    3.90
   1   8 -14   22.50    7.70
   8  -1 -14   16.80    4.10
   1   8 -14   20.30    4.10
   1   8  14   23.00    4.60
  -1  -8  14   19.70    4.70
  -1  -8  14   25.90    5.10
  -8   1  14   16.10    4.40
  -8   2 -14   22.50    4.30
   8  -2 -14   16.10    4.10
   2   8 -14   23.70    8.20
   2   8 -14   20.50    4.20
   2   8 -14   19.90    6.40
   2   8  14   17.50    4.10
  -8   2  14   18.30    4.80
  -2  -8  14   15.20    4.20
  -2  -8  14   17.10    4.50
   3   8 -14   59.89   10.20
  -8   3 -14   59.89    6.90
   3   8 -14   53.69    6.50
   8  -3 -14   49.00    6.60
   3   8 -14   66.19   12.70
  -3  -8  14   52.39    7.30
   3   8  14   52.79    6.80
  -3  -8  14   51.19    7.80
  -8   3  14   50.29    7.30
   0   0 -15    7.30    3.00
   0   0  15    2.40    2.20
  -1   0 -15    7.40    2.60
   0   1 -15   11.50    3.00
   0  -1 -15   13.20    3.30
  -1   0 -15    6.10    3.00
   1   0 -15    7.40    2.80
   0   1 -15    7.10    3.00
  -1   0  15    9.30    2.90
   0  -1  15    7.40    2.80
   0   1  15    5.80    2.50
   1   0  15    8.20    2.90
   1   1 -15  490.55   38.30
   1   1 -15  510.25   38.20
  -1  -1 -15  505.15   38.30
  -1  -1 -15  499.25   38.00
  -1   1 -15  487.35   38.00
  -1   1 -15  486.65   38.30
   1  -1 -15  494.15   38.10
   1   1  15  490.25   38.10
  -1  -1  15  532.25   38.20
  -1   1  15  506.45   38.10
   1  -1  15  489.85   38.00
   1  -2 -15  123.89   11.30
   2   1 -15  107.29   11.10
  -1   2 -15  115.59   11.50
  -2  -1 -15  130.59   11.70
  -1   2 -15  126.89   11.40
  -2  -1 -15  112.69   10.90
   1  -2  15  125.09   11.30
  -2  -1  15  135.79   11.50
  -1   2  15  123.49   11.30
   0  -2 -15    1.70    2.40
   2   0 -15    5.10    2.70
  -2   0 -15    1.60    2.40
  -2   0 -15    1.60    1.90
   0   2 -15   -0.20    2.00
   0   2 -15    0.60    1.80
   0  -2  15    2.50    2.30
  -2   0  15    0.10    2.20
   0   2  15    5.50    2.60
   2   0  15    0.60    2.10
  -2   1 -15  129.49   12.00
   1   2 -15  128.79   11.70
   2  -1 -15  130.79   11.60
   1   2 -15  117.59   11.70
  -2   1 -15  112.59   11.20
  -1  -2 -15  128.79   11.60
   2  -1  15  123.89   11.50
  -2   1  15  134.49   11.60
  -1  -2  15  131.49   11.60
   1   2  15  120.29   11.40
   2  -2 -15    9.40    3.10
   2   2 -15   12.60    3.50
  -2  -2 -15   11.70    3.00
  -2   2 -15   17.40    4.20
  -2   2 -15   13.60    3.40
  -2  -2 -15   14.90    3.80
  -2  -2  15   14.60    3.60
   2   2  15   14.00    3.40
   2  -2  15   13.50    3.40
  -2   2  15   11.30    3.30
   3   2 -15  343.37   28.10
  -2   3 -15  336.47   28.60
  -2   3 -15  354.76   28.20
   2  -3 -15  369.46   28.30
  -3  -2 -15  339.87   27.70
  -2   3 -15  359.06   28.40
  -3  -2 -15  375.96   28.60
   3   2  15  363.96   28.50
  -2   3  15  369.26   28.40
  -3  -2  15  374.16   28.50
   2  -3  15  378.86   28.40
  -1   3 -15   42.50    6.00
   1  -3 -15   55.89    6.40
   3   1 -15   53.79    6.40
  -3  -1 -15   45.60    6.70
  -1   3 -15   44.90    6.80
  -1   3 -15   57.09    6.20
  -3  -1 -15   45.20    5.60
  -1   3  15   45.90    6.10
   3   1  15   51.99    6.40
  -3  -1  15   49.20    6.10
   1  -3  15   47.70    6.20
   0   3 -15 1874.41  145.39
   3   0 -15 1914.51  145.09
  -3   0 -15 1936.51  144.89
   0  -3 -15 2054.79  145.19
   0   3 -15 2069.79  144.99
  -3   0 -15 1972.70  145.59
   0   3  15 2017.20  145.29
   3   0  15 2040.20  145.49
   0  -3  15 2092.79  145.29
  -3   0  15 2051.69  145.49
  -1  -3 -15   51.29    6.50
  -3   1 -15   51.99    6.30
  -3   1 -15   49.30    6.90
   3  -1 -15   54.19    6.60
   1   3 -15   54.19    6.70
   1   3 -15   62.09    8.40
   1   3  15   44.30    6.30
  -1  -3  15   53.89    6.50
  -3   1  15   59.59    6.70
   3  -1  15   51.99    6.30
  -3   2 -15  332.57   28.50
  -2  -3 -15  363.36   28.30
   3  -2 -15  342.17   28.00
   2   3 -15  349.77   28.30
  -3   2 -15  386.66   29.10
  -3   2 -15  364.86   28.30
   3  -2  15  356.36   28.30
  -3   2  15  331.97   28.20
   2   3  15  364.06   28.40
  -2  -3  15  402.96   28.60
   3  -3 -15  152.98   13.60
  -3   3 -15  161.18   13.90
  -3   3 -15  123.49   13.80
   3   3 -15  139.99   13.60
  -3  -3 -15  155.18   13.80
  -3   3 -15  145.59   13.60
   3   3 -15  178.68   13.30
   3  -3  15  165.58   13.80
  -3  -3  15  161.18   13.90
   3   3  15  156.18   13.90
  -3   3  15  150.48   13.80
  -4  -3 -15  105.39   10.50
  -3   4 -15  100.79   10.90
   4   3 -15  120.79   10.50
  -3   4 -15  103.49   10.40
  -4  -3 -15   92.59    9.10
  -3   4 -15   92.49   10.00
   4   3 -15   94.19   10.00
   3  -4 -15  114.39   10.20
   3  -4  15  111.79   10.30
  -3   4  15  106.69   10.40
  -4  -3  15  109.39   10.60
   4   3  15  108.89   10.60
  -2   4 -15  506.75   38.00
   4   2 -15  483.65   37.90
   2  -4 -15  504.85   37.90
  -4  -2 -15  504.65   38.40
  -2   4 -15  461.65   38.50
  -4  -2 -15  446.86   37.10
  -2   4 -15  468.15   38.40
  -4  -2  15  541.55   38.60
   4   2  15  503.25   38.40
   2  -4  15  522.35   38.10
  -2   4  15  519.15   38.20
   1  -4 -15    5.00    2.70
  -1   4 -15    2.60    2.70
   4   1 -15    6.40    2.70
  -1   4 -15    6.60    3.40
  -4  -1 -15   10.90    3.70
  -4  -1 -15    2.10    1.90
  -1   4 -15    9.70    3.00
   1  -4  15    7.10    2.80
   4   1  15    7.50    3.10
  -1   4  15    8.10    3.10
  -4  -1  15    5.90    2.90
  -4   0 -15    1.50    2.50
   0   4 -15   14.50    3.80
   4   0 -15    1.00    2.20
  -4   0 -15    2.10    2.00
   0  -4 -15    1.00    2.30
   0   4  15    1.00    2.20
  -4   0  15    2.00    2.40
   0  -4  15    1.40    2.30
   1   4 -15    6.50    2.80
   4  -1 -15    4.30    2.50
  -4   1 -15    3.50    2.90
   1   4 -15    5.00    2.50
  -1  -4 -15    4.90    2.70
  -4   1 -15    5.00    2.50
   1   4 -15    7.10    3.00
  -4   1  15    2.50    2.50
   1   4  15    4.70    2.70
  -1  -4  15    3.30    2.60
   4  -2 -15  482.35   39.40
  -4   2 -15  501.35   40.30
   2   4 -15  561.64   39.40
   2   4 -15  461.85   39.60
   2   4 -15  581.94   39.70
  -2  -4 -15  510.45   39.60
  -4   2 -15  525.25   39.70
  -4   2  15  492.45   39.80
  -2  -4  15  577.64   40.00
   2   4  15  493.95   39.70
   3   4 -15  121.59   10.30
   3   4 -15  126.29   11.40
   3   4 -15  108.59   10.70
  -3  -4 -15  106.09   10.50
  -4   3 -15   97.59   11.10
  -4   3 -15   98.89   10.50
  -4   3 -15  104.29   10.60
   4  -3 -15  102.59   10.30
   3   4  15  102.49   10.60
  -4   3  15  112.39   10.80
  -3  -4  15  118.59   10.90
  -4  -4 -15 1102.39   80.29
   4   4 -15 1244.68   81.19
  -4   4 -15 1052.29   80.39
  -4   4 -15  987.50   79.99
   4   4 -15 1122.09   80.39
   4   4 -15 1075.19   80.29
   4  -4 -15 1041.40   79.89
  -4   4 -15  931.41   80.59
  -4   4 -15 1121.39   80.09
   4   4  15 1088.49   80.59
  -4   4  15 1024.70   80.29
  -4  -4  15 1182.08   80.79
   4  -4  15 1161.18   80.49
  -4   5 -15   49.20    6.70
  -4   5 -15   40.20    6.00
   5   4 -15   47.40    7.70
   4  -5 -15   39.50    6.00
   5   4 -15   47.70    6.30
  -5  -4 -15   40.10    6.50
   5   4  15   41.70    6.80
  -5  -4  15   50.59    6.80
  -4   5  15   43.50    6.30
   4  -5  15   46.00    6.30
   3  -5 -15    0.10    2.20
  -5  -3 -15    2.20    2.70
  -3   5 -15    3.00    2.80
   5   3 -15    1.00    2.20
  -5  -3 -15    1.40    1.40
  -3   5 -15    8.40    3.00
  -3   5 -15    2.50    3.00
   5   3 -15    0.10    3.00
  -3   5  15    1.40    2.40
  -5  -3  15    2.40    2.80
   3  -5  15    0.40    2.10
   2  -5 -15  425.96   32.50
  -5  -2 -15  359.26   31.50
  -5  -2 -15  427.36   33.20
  -2   5 -15  376.06   33.40
  -2   5 -15  412.96   32.50
   5   2 -15  413.66   32.60
  -2   5 -15  412.86   33.40
  -2   5  15  427.06   32.80
   2  -5  15  490.15   33.00
  -5  -2  15  462.45   33.40
  -1   5 -15   37.90    5.90
  -5  -1 -15   31.60    4.40
   1  -5 -15   33.40    5.30
  -1   5 -15   29.30    5.70
  -1   5 -15   30.60    5.10
   5   1 -15   34.50    5.60
  -5  -1 -15   29.80    5.60
  -1   5 -15   26.10    5.90
  -5  -1  15   30.30    5.60
   1  -5  15   37.80    5.70
  -1   5  15   33.50    5.50
  -5   0 -15 1609.84  125.99
   0   5 -15 1757.12  125.29
   0   5 -15 1628.84  125.89
   0   5 -15 1641.04  126.99
  -5   0 -15 1724.53  125.09
   0  -5 -15 1691.63  125.19
   5   0 -15 1633.24  125.29
   0   5 -15 1917.61  125.39
   0   5  15 1724.93  125.59
  -5   0  15 1748.43  125.99
   0  -5  15 1867.81  125.69
   1   5 -15   33.10    5.10
   5  -1 -15   34.80    5.50
   1   5 -15   36.00    6.20
  -5   1 -15   32.70    6.00
   1   5 -15   39.20    6.20
   1   5 -15   34.70    7.00
  -5   1 -15   38.60    5.10
  -1  -5 -15   32.60    5.30
   1   5  15   29.80    5.50
  -5   1  15   31.00    5.60
  -1  -5  15   34.80    5.60
   2   5 -15  453.75   33.80
  -2  -5 -15  458.45   34.10
   5  -2 -15  415.76   33.90
  -5   2 -15  417.76   34.00
   2   5 -15  430.46   34.40
   2   5 -15  481.05   35.20
  -5   2 -15  393.26   34.70
   2   5  15  465.85   34.50
  -2  -5  15  471.15   34.40
  -5   2  15  419.96   34.40
   3   5 -15    2.10    3.70
   3   5 -15    1.00    2.10
  -5   3 -15    2.80    3.10
   5  -3 -15    2.90    2.40
  -3  -5 -15    2.40    2.60
   3   5 -15    1.80    2.50
  -5   3 -15    4.50    2.60
  -5   3  15    2.80    2.60
   3   5  15    0.70    2.50
   4   5 -15   57.79    8.80
   5  -4 -15   38.50    6.10
   4   5 -15   48.50    5.80
  -5   4 -15   39.80    6.60
  -5   4 -15   51.59    6.10
   4   5 -15   48.20    7.10
  -5   4  15   42.20    6.30
   4   5  15   42.90    6.40
   5   5 -15   59.49    9.50
   5   5 -15   63.69    6.60
  -5   5 -15   43.20    6.60
   5   5  15   58.39    7.40
  -5   5  15   49.90    7.00
  -3   6 -15  503.15   42.10
  -3   6 -15  502.75   41.00
   3  -6 -15  562.94   41.10
  -6  -3 -15  539.85   41.80
  -3   6 -15  556.04   42.70
   6   3 -15  521.05   41.20
  -6  -3  15  601.34   42.30
  -3   6  15  531.25   41.50
   6   2 -15   59.69    7.10
   2  -6 -15   64.39    7.00
  -2   6 -15   55.09    8.50
  -2   6 -15   55.89    8.90
  -2   6 -15   56.59    6.90
  -2   6 -15   61.09    7.40
  -6  -2 -15   63.99    7.80
  -6  -2 -15   49.20    5.70
   6   2 -15   72.99    7.40
  -2   6  15   48.90    6.90
  -6  -2  15   60.29    7.60
  -1   6 -15   38.50    5.50
  -6  -1 -15   27.80    5.80
   6   1 -15   41.60    6.20
  -1   6 -15   45.50    7.20
  -1   6 -15   42.20    6.60
  -1   6 -15   38.00    7.40
  -6  -1 -15   36.40    4.80
   1  -6 -15   46.40    5.70
  -1   6  15   39.40    5.80
  -6  -1  15   44.20    6.40
  -6   0 -15    2.50    2.00
  -6   0 -15    1.10    2.70
   0   6 -15    1.60    3.40
   0   6 -15   -0.80    2.80
   6   0 -15    0.90    2.20
   0  -6 -15    0.00    2.10
   0   6 -15    4.10    3.00
   0   6 -15    2.70    2.40
  -6   0  15    2.20    2.60
   0   6  15    4.00    2.70
  -6   1 -15   44.10    5.60
   1   6 -15   42.20    5.60
   1   6 -15   40.00    6.60
   1   6 -15   32.20    7.30
   1   6 -15   37.10    7.40
  -1  -6 -15   39.90    5.50
   6  -1 -15   37.10    5.90
   1   6  15   43.20    5.90
  -6   1  15   41.40    5.90
   2   6 -15   71.29    7.20
   2   6 -15   70.69   10.20
   2   6 -15   57.89    7.70
   2   6 -15   62.39   10.20
  -6   2 -15   59.89    7.10
   6  -2 -15   50.49    6.90
   2   6  15   59.09    7.30
  -6   2  15   57.59    7.60
   3   6 -15  558.54   44.10
   3   6 -15  656.33   46.50
   3   6 -15  608.14   43.50
   6  -3 -15  518.05   43.30
  -6   3 -15  578.84   43.90
  -6   3  15  523.35   44.00
   3   6  15  583.34   44.00
  -1   7 -15  924.01   67.19
  -1   7 -15  859.11   65.69
   7   1 -15  953.20   64.69
  -7  -1  15  849.91   66.59
  -1   7  15  837.72   65.99
   0   7 -15  211.78   19.60
   7   0 -15  206.88   18.40
   0   7 -15  261.47   21.30
   0   7 -15  224.48   18.50
  -7   0 -15  207.18   17.80
   0   7  15  230.88   18.90
  -7   0  15  214.88   19.30
   1   7 -15  859.41   64.49
   1   7 -15  928.31   67.29
   1   7  15  871.51   64.89
  -7   1  15  823.82   65.39
   0   0 -16 1505.85  111.99
   0   0  16 1558.54  111.99
   0   1 -16    2.00    2.40
   0   1 -16    0.50    2.10
  -1   0 -16   -1.00    2.30
  -1   0 -16    0.90    2.00
   0  -1 -16   -0.20    2.40
   1   0 -16   -0.10    2.40
   1   0  16   -0.60    2.30
  -1   0  16   -1.60    2.20
   0   1  16    1.90    2.50
   0  -1  16    0.40    2.30
  -1   1 -16    3.40    2.90
   1  -1 -16    1.60    2.40
  -1  -1 -16    0.70    2.50
  -1   1 -16    3.70    2.50
   1   1 -16    1.40    2.40
   1   1  16    3.80    2.70
   1  -1  16    1.90    2.60
  -1  -1  16    1.40    2.50
  -1   1  16    2.40    2.40
   1  -2 -16  244.78   19.90
  -1   2 -16  243.08   20.20
  -2  -1 -16  239.68   20.10
   2   1 -16  239.18   19.90
  -1   2 -16  234.78   20.00
  -2  -1 -16  228.58   19.50
   2   1  16  244.18   19.90
  -1   2  16  229.38   19.80
  -2  -1  16  241.78   19.90
   1  -2  16  244.28   19.90
  -2   0 -16  383.66   30.40
   0  -2 -16  396.66   30.60
  -2   0 -16  369.66   30.70
   2   0 -16  382.26   30.50
   0   2 -16  360.56   30.60
   0   2 -16  401.46   30.80
   0   2  16  375.46   30.40
   2   0  16  403.96   30.60
   0  -2  16  399.36   30.60
  -2   0  16  415.36   30.80
  -2   1 -16  237.38   20.50
  -1  -2 -16  244.18   20.30
   1   2 -16  219.88   20.30
   1   2 -16  236.28   20.20
   2  -1 -16  236.48   20.00
  -2   1 -16  237.18   20.10
  -2   1  16  259.47   20.40
   1   2  16  251.57   20.30
  -1  -2  16  262.07   20.40
   2  -1  16  247.28   20.30
   2  -2 -16  195.48   17.30
  -2   2 -16  197.18   17.50
   2   2 -16  201.18   17.60
  -2   2 -16  203.78   18.00
  -2  -2 -16  209.18   17.70
   2   2  16  208.18   17.70
  -2   2  16  200.58   17.50
  -2  -2  16  225.18   17.80
   2  -2  16  212.88   17.60
   2  -3 -16   15.20    3.80
  -2   3 -16   12.70    3.80
   3   2 -16   16.00    4.00
  -3  -2 -16   14.10    3.90
  -3  -2 -16   14.60    3.30
  -2   3 -16   12.70    4.20
   3   2  16    9.70    3.50
  -3  -2  16   11.00    3.60
  -2   3  16   11.80    3.70
   2  -3  16   20.30    4.20
  -1   3 -16  272.67   24.40
   3   1 -16  291.77   24.20
  -3  -1 -16  290.17   23.80
   1  -3 -16  316.27   24.30
  -3  -1 -16  295.57   24.60
  -1   3 -16  281.27   24.50
   3   1  16  319.27   24.70
  -3  -1  16  312.37   24.60
   1  -3  16  321.67   24.50
  -1   3  16  307.17   24.40
   0   3 -16    2.20    2.70
   0  -3 -16    3.10    2.60
   3   0 -16   -0.80    2.10
  -3   0 -16    1.60    2.80
  -3   0 -16    0.20    1.80
   0   3  16    3.60    2.60
   0  -3  16    3.60    2.70
  -3   0  16   -1.00    2.00
   3   0  16   -0.60    2.30
  -3   1 -16  268.17   23.70
   1   3 -16  273.37   24.00
   3  -1 -16  304.77   24.10
  -1  -3 -16  315.07   24.20
  -3   1 -16  294.87   24.60
  -1  -3  16  317.77   24.20
  -3   1  16  302.67   24.30
   1   3  16  302.47   24.20
   3  -1  16  303.17   24.20
  -3   2 -16   16.70    4.00
   3  -2 -16   20.70    4.20
  -2  -3 -16   10.60    3.80
  -3   2 -16   14.80    4.20
   2   3 -16   13.10    3.90
  -3   2  16   13.90    3.90
  -2  -3  16   14.40    4.00
   3  -2  16   14.30    3.90
   2   3  16   13.20    4.00
  -3  -3 -16  303.27   23.90
  -3   3 -16  283.97   23.90
  -3   3 -16  267.47   24.10
   3   3 -16  279.57   23.70
   3  -3 -16  297.27   23.70
  -3   3  16  265.97   23.60
   3   3  16  292.37   24.00
  -3  -3  16  306.77   24.00
   3  -3  16  327.17   24.00
  -2   4 -16   11.70    3.60
   2  -4  16   16.80    4.00
  -2   4  16    7.20    3.20
   4   2  16   10.80    3.90
  -4  -2  16   13.60    4.00
  -1   4 -16  216.78   19.20
  -4  -1 -16  224.68   19.30
   4   1 -16  221.18   18.70
  -4  -1 -16  203.28   18.00
   1  -4 -16  215.18   18.60
  -1   4 -16  237.58   18.70
  -4  -1  16  241.98   19.30
   4   1  16  218.18   19.10
  -1   4  16  214.08   18.80
   1  -4  16  240.38   18.90
  -4   0 -16   11.80    4.00
   4   0 -16   10.90    3.30
   0   4 -16   20.50    4.00
  -4   0 -16   12.00    3.20
   0  -4 -16   19.40    4.20
   0   4 -16   10.00    3.50
  -4   0  16   11.70    3.80
   4   0  16   13.40    3.90
   0  -4  16   11.90    3.60
   0   4  16   11.90    3.70
  -1  -4 -16  218.98   18.70
  -4   1 -16  216.58   19.30
   4  -1 -16  224.48   18.80
   1   4 -16  215.28   19.00
  -4   1 -16  217.28   18.60
   4  -1  16  231.48   19.10
   1   4  16  223.78   18.90
  -1  -4  16  247.28   19.10
  -4   1  16  213.78   19.00
   4  -2  16    7.20    3.40
  -4   2  16    9.70    3.50
  -2  -4  16   10.90    3.70
   2   4  16   14.10    3.90
   0   0   0    0.00    0.00

_computing_structure_solution     'SHELXT 2014/5 (Sheldrick, 2014)'
;
_shelx_hkl_checksum              11283
_olex2_submission_special_instructions 'No special instructions were received'
loop_
_space_group_symop_operation_xyz
'x, y, z'
'-x, -y, z'
'-y+1/2, x+1/2, z+1/2'
'y+1/2, -x+1/2, z+1/2'
'-x+1/2, y+1/2, -z+1/2'
'x+1/2, -y+1/2, -z+1/2'
'y, x, -z'
'-y, -x, -z'
'-x, -y, -z'
'x, y, -z'
'y-1/2, -x-1/2, -z-1/2'
'-y-1/2, x-1/2, -z-1/2'
'x-1/2, -y-1/2, z-1/2'
'-x-1/2, y-1/2, z-1/2'
'-y, -x, z'
'y, x, z'
loop_
_atom_site_label
_atom_site_type_symbol
_atom_site_fract_x
_atom_site_fract_y
_atom_site_fract_z
_atom_site_U_iso_or_equiv
_atom_site_adp_type
_atom_site_occupancy
_atom_site_site_symmetry_order
_atom_site_calc_flag
_atom_site_refinement_flags_posn
_atom_site_refinement_flags_adp
_atom_site_refinement_flags_occupancy
_atom_site_disorder_assembly
_atom_site_disorder_group
Ir1 Ir 0.68629(2) 0.68629(2) 0.24054(3) 0.00434(8) Uani 1 2 d S T P . .
In1 In 0.59530(6) 0.59530(6) 0.0000 0.01293(16) Uani 1 4 d S T P . .
In2 In 0.5000 0.5000 0.33674(9) 0.01203(16) Uani 1 4 d S T P . .
In3 In 0.44633(4) 0.79482(5) 0.20254(5) 0.01487(11) Uani 1 1 d . . . . .
In4 In 0.68770(7) 0.68770(7) 0.5000 0.0194(2) Uani 1 4 d S T P . .
In5 In 0.79861(8) 0.79861(8) 0.0000 0.0337(4) Uani 1 4 d S T P . .
Se1 Se 0.5000 1.0000 0.0000 0.0337(5) Uani 1 4 d S T P . .
loop_
_atom_site_aniso_label
_atom_site_aniso_U_11
_atom_site_aniso_U_22
_atom_site_aniso_U_33
_atom_site_aniso_U_23
_atom_site_aniso_U_13
_atom_site_aniso_U_12
Ir1 0.00475(9) 0.00475(9) 0.00353(12) -0.00026(5) -0.00026(5) -0.00013(7)
In1 0.0171(2) 0.0171(2) 0.0046(3) 0.000 0.000 -0.0081(3)
In2 0.0121(2) 0.0121(2) 0.0118(3) 0.000 0.000 -0.0058(3)
In3 0.00521(16) 0.01499(19) 0.0244(2) 0.00209(16) 0.00100(14) 0.00271(12)
In4 0.0276(3) 0.0276(3) 0.0029(3) 0.000 0.000 -0.0132(4)
In5 0.0474(6) 0.0474(6) 0.0064(3) 0.000 0.000 -0.0388(6)
Se1 0.0806(16) 0.0119(6) 0.0086(5) 0.000 0.000 -0.0154(8)
loop_
_atom_type_symbol
_atom_type_description
_atom_type_scat_dispersion_real
_atom_type_scat_dispersion_imag
_atom_type_scat_source
In In -0.7276 1.3100 'International Tables Vol C Tables 4.2.6.8 and 6.1.1.4'
Ir Ir -1.4442 7.9887 'International Tables Vol C Tables 4.2.6.8 and 6.1.1.4'
Se Se -0.0929 2.2259 'International Tables Vol C Tables 4.2.6.8 and 6.1.1.4'
loop_
_geom_angle_atom_site_label_1
_geom_angle_atom_site_label_2
_geom_angle_atom_site_label_3
_geom_angle
_geom_angle_site_symmetry_1
_geom_angle_site_symmetry_3
_geom_angle_publ_flag
In1 Ir1 In2 82.61(3) . . ?
In1 Ir1 In5 60.77(3) . . ?
In2 Ir1 In5 143.37(3) . . ?
In3 Ir1 In1 73.080(13) 16 . ?
In3 Ir1 In1 122.390(17) 6_565 . ?
In3 Ir1 In1 122.390(17) 12_766 . ?
In3 Ir1 In1 73.080(13) . . ?
In3 Ir1 In2 128.092(17) 12_766 . ?
In3 Ir1 In2 73.929(13) . . ?
In3 Ir1 In2 128.092(17) 6_565 . ?
In3 Ir1 In2 73.929(13) 16 . ?
In3 Ir1 In3 135.57(2) . 16 ?
In3 Ir1 In3 151.690(10) 16 12_766 ?
In3 Ir1 In3 72.43(2) . 12_766 ?
In3 Ir1 In3 79.36(2) 12_766 6_565 ?
In3 Ir1 In3 72.43(2) 16 6_565 ?
In3 Ir1 In3 151.690(10) . 6_565 ?
In3 Ir1 In5 77.256(19) 6_565 . ?
In3 Ir1 In5 93.928(15) 16 . ?
In3 Ir1 In5 77.256(19) 12_766 . ?
In3 Ir1 In5 93.928(15) . . ?
In4 Ir1 In1 152.68(3) . . ?
In4 Ir1 In2 70.07(3) . . ?
In4 Ir1 In3 98.497(15) . . ?
In4 Ir1 In3 98.497(15) . 16 ?
In4 Ir1 In3 77.16(2) . 6_565 ?
In4 Ir1 In3 77.16(2) . 12_766 ?
In4 Ir1 In5 146.56(3) . . ?
Ir1 In1 Ir1 124.49(4) 10 . ?
Ir1 In1 In3 120.82(2) . 10 ?
Ir1 In1 In3 120.82(2) 10 16 ?
Ir1 In1 In3 52.018(11) . . ?
Ir1 In1 In3 52.018(11) 10 10 ?
Ir1 In1 In3 52.018(11) . 16 ?
Ir1 In1 In3 120.82(2) . 7 ?
Ir1 In1 In3 120.82(2) 10 . ?
Ir1 In1 In3 52.018(11) 10 7 ?
Ir1 In1 In5 62.243(18) 10 . ?
Ir1 In1 In5 62.243(18) . . ?
In1 In1 Ir1 117.757(18) 9_665 . ?
In1 In1 Ir1 117.757(18) 9_665 10 ?
In1 In1 In3 96.351(18) 9_665 10 ?
In1 In1 In3 96.351(18) 9_665 7 ?
In1 In1 In3 96.352(18) 9_665 . ?
In1 In1 In3 96.351(18) 9_665 16 ?
In1 In1 In5 180.00(4) 9_665 . ?
In3 In1 In3 167.30(4) 16 10 ?
In3 In1 In3 79.17(2) . 10 ?
In3 In1 In3 79.17(2) 16 7 ?
In3 In1 In3 167.30(4) . 7 ?
In3 In1 In3 99.41(2) . 16 ?
In3 In1 In3 99.41(2) 10 7 ?
In5 In1 In3 83.648(18) . . ?
In5 In1 In3 83.649(18) . 7 ?
In5 In1 In3 83.649(18) . 16 ?
In5 In1 In3 83.649(18) . 10 ?
Ir1 In2 Ir1 139.27(4) 2_665 . ?
Ir1 In2 In2 110.365(19) . 9_666 ?
Ir1 In2 In2 110.365(18) 2_665 9_666 ?
Ir1 In2 In3 50.973(10) . 16 ?
Ir1 In2 In3 109.96(2) . 2_665 ?
Ir1 In2 In3 109.96(2) . 15_665 ?
Ir1 In2 In3 109.96(2) 2_665 . ?
Ir1 In2 In3 50.972(10) 2_665 2_665 ?
Ir1 In2 In3 109.96(2) 2_665 16 ?
Ir1 In2 In3 50.972(10) . . ?
Ir1 In2 In3 50.972(10) 2_665 15_665 ?
Ir1 In2 In4 168.35(3) 2_665 . ?
Ir1 In2 In4 52.377(14) 2_665 9_666 ?
Ir1 In2 In4 52.377(14) . . ?
Ir1 In2 In4 168.35(3) . 9_666 ?
Ir1 In2 In5 100.091(7) 2_665 11_576 ?
Ir1 In2 In5 100.091(6) 2_665 3_645 ?
Ir1 In2 In5 100.090(7) . 3_645 ?
Ir1 In2 In5 100.090(7) . 11_576 ?
In3 In2 In2 114.478(18) 16 9_666 ?
In3 In2 In2 114.478(18) 2_665 9_666 ?
In3 In2 In2 114.478(17) 15_665 9_666 ?
In3 In2 In2 114.478(18) . 9_666 ?
In3 In2 In3 96.91(2) 15_665 2_665 ?
In3 In2 In3 96.91(2) . 16 ?
In3 In2 In3 131.04(4) . 2_665 ?
In3 In2 In3 131.04(4) 15_665 16 ?
In3 In2 In3 62.379(17) 2_665 16 ?
In3 In2 In3 62.380(17) . 15_665 ?
In3 In2 In5 64.021(13) 16 3_645 ?
In3 In2 In5 148.787(9) 15_665 3_645 ?
In3 In2 In5 148.787(9) 16 11_576 ?
In3 In2 In5 64.021(13) 2_665 3_645 ?
In3 In2 In5 64.021(13) 15_665 11_576 ?
In3 In2 In5 148.787(9) . 3_645 ?
In3 In2 In5 64.021(13) . 11_576 ?
In3 In2 In5 148.787(9) 2_665 11_576 ?
In4 In2 In2 57.988(18) 9_666 9_666 ?
In4 In2 In2 57.988(18) . 9_666 ?
In4 In2 In3 131.206(9) 9_666 16 ?
In4 In2 In3 131.206(9) 9_666 . ?
In4 In2 In3 77.321(12) 9_666 2_665 ?
In4 In2 In3 77.322(12) . 16 ?
In4 In2 In3 131.206(9) . 15_665 ?
In4 In2 In3 131.206(9) . 2_665 ?
In4 In2 In3 77.321(12) 9_666 15_665 ?
In4 In2 In3 77.321(12) . . ?
In4 In2 In4 115.98(4) . 9_666 ?
In4 In2 In5 74.521(15) 9_666 3_645 ?
In4 In2 In5 74.521(15) . 11_576 ?
In4 In2 In5 74.521(15) 9_666 11_576 ?
In4 In2 In5 74.521(15) . 3_645 ?
In5 In2 In2 59.771(17) 3_645 9_666 ?
In5 In2 In2 59.771(17) 11_576 9_666 ?
In5 In2 In5 119.54(3) 11_576 3_645 ?
Ir1 In3 Ir1 151.06(2) . 11_576 ?
Ir1 In3 In1 54.903(14) . . ?
Ir1 In3 In1 129.10(2) 11_576 . ?
Ir1 In3 In2 55.099(10) . . ?
Ir1 In3 In2 97.600(16) 11_576 . ?
Ir1 In3 In3 53.655(16) 11_576 11_576 ?
Ir1 In3 In3 134.39(2) 11_576 12_766 ?
Ir1 In3 In3 136.39(2) . 11_576 ?
Ir1 In3 In3 53.911(17) . 12_766 ?
Ir1 In3 In4 144.70(2) . 11_576 ?
Ir1 In3 In4 50.974(15) 11_576 11_576 ?
Ir1 In3 Se1 102.733(16) . . ?
Ir1 In3 Se1 106.180(16) 11_576 . ?
In1 In3 In2 68.65(2) . . ?
In1 In3 In4 89.80(2) . 11_576 ?
In2 In3 In4 115.614(19) . 11_576 ?
In3 In3 In1 96.51(2) 12_766 . ?
In3 In3 In1 157.55(3) 11_576 . ?
In3 In3 In2 133.40(3) 11_576 . ?
In3 In3 In2 99.77(2) 12_766 . ?
In3 In3 In3 84.617(11) 12_766 11_576 ?
In3 In3 In4 143.80(2) 12_766 11_576 ?
In3 In3 In4 76.79(2) 11_576 11_576 ?
Se1 In3 In1 84.323(18) . . ?
Se1 In3 In2 151.71(2) . . ?
Se1 In3 In3 74.358(14) . 12_766 ?
Se1 In3 In3 74.357(14) . 11_576 ?
Se1 In3 In4 70.854(13) . 11_576 ?
Ir1 In4 Ir1 179.13(5) . 10_556 ?
Ir1 In4 In2 121.58(4) . 9_666 ?
Ir1 In4 In2 57.55(2) . . ?
Ir1 In4 In2 121.58(4) 10_556 . ?
Ir1 In4 In2 57.55(2) 10_556 9_666 ?
Ir1 In4 In3 51.867(14) . 6_565 ?
Ir1 In4 In3 51.868(14) 10_556 13_676 ?
Ir1 In4 In3 128.79(3) . 13_676 ?
Ir1 In4 In3 51.868(14) 10_556 3_655 ?
Ir1 In4 In3 128.79(3) . 3_655 ?
Ir1 In4 In3 128.79(3) 10_556 12_766 ?
Ir1 In4 In3 128.79(3) 10_556 6_565 ?
Ir1 In4 In3 51.867(14) . 12_766 ?
In2 In4 In2 64.03(4) . 9_666 ?
In2 In4 In3 146.076(18) . 13_676 ?
In2 In4 In3 146.076(18) . 3_655 ?
In2 In4 In3 99.809(18) 9_666 3_655 ?
In2 In4 In3 99.809(18) 9_666 13_676 ?
In2 In4 In3 99.809(17) . 12_766 ?
In2 In4 In3 99.809(17) . 6_565 ?
In2 In4 In3 146.076(18) 9_666 6_565 ?
In2 In4 In3 146.076(18) 9_666 12_766 ?
In3 In4 In3 76.92(3) 13_676 6_565 ?
In3 In4 In3 107.72(3) 3_655 6_565 ?
In3 In4 In3 107.72(3) 13_676 12_766 ?
In3 In4 In3 62.01(2) 13_676 3_655 ?
In3 In4 In3 62.01(2) 6_565 12_766 ?
In3 In4 In3 76.92(3) 3_655 12_766 ?
Ir1 In5 Ir1 113.98(4) . 10 ?
Ir1 In5 In2 153.24(3) . 3_654 ?
Ir1 In5 In2 92.780(19) 10 3_654 ?
Ir1 In5 In2 153.24(3) 10 11_676 ?
Ir1 In5 In2 92.779(19) . 11_676 ?
In1 In5 Ir1 56.990(19) . 10 ?
In1 In5 Ir1 56.991(19) . . ?
In1 In5 In2 149.770(17) . 11_676 ?
In1 In5 In2 149.770(17) . 3_654 ?
In2 In5 In2 60.46(3) 11_676 3_654 ?
In3 Se1 In3 88.30(2) 10 . ?
In3 Se1 In3 88.30(2) 2_675 9_675 ?
In3 Se1 In3 180.0 . 9_675 ?
In3 Se1 In3 91.70(2) 2_675 . ?
In3 Se1 In3 180.000(15) 10 2_675 ?
In3 Se1 In3 91.70(2) 10 9_675 ?
loop_
_geom_bond_atom_site_label_1
_geom_bond_atom_site_label_2
_geom_bond_distance
_geom_bond_site_symmetry_2
_geom_bond_publ_flag
Ir1 In1 2.7478(6) . ?
Ir1 In2 2.7947(5) . ?
Ir1 In3 2.6558(6) 12_766 ?
Ir1 In3 2.6472(5) 16 ?
Ir1 In3 2.6472(5) . ?
Ir1 In3 2.6558(6) 6_565 ?
Ir1 In4 2.6230(4) . ?
Ir1 In5 2.8997(7) . ?
In1 Ir1 2.7478(6) 10 ?
In1 In1 2.6806(18) 9_665 ?
In1 In3 3.2131(6) 10 ?
In1 In3 3.2131(6) 16 ?
In1 In3 3.2131(6) 7 ?
In1 In3 3.2131(6) . ?
In1 In5 2.8594(14) . ?
In2 Ir1 2.7947(5) 2_665 ?
In2 In2 3.3008(19) 9_666 ?
In2 In3 3.2744(7) . ?
In2 In3 3.2744(7) 16 ?
In2 In3 3.2744(7) 15_665 ?
In2 In3 3.2744(7) 2_665 ?
In2 In4 3.1133(10) . ?
In2 In4 3.1133(10) 9_666 ?
In2 In5 3.2781(11) 3_645 ?
In2 In5 3.2781(11) 11_576 ?
In3 Ir1 2.6559(6) 11_576 ?
In3 In3 3.1332(8) 12_766 ?
In3 In3 3.1333(8) 11_576 ?
In3 In4 3.2919(8) 11_576 ?
In3 Se1 2.9394(6) . ?
In4 Ir1 2.6230(4) 10_556 ?
In4 In2 3.1133(10) 9_666 ?
In4 In3 3.2919(8) 13_676 ?
In4 In3 3.2919(8) 12_766 ?
In4 In3 3.2919(8) 3_655 ?
In4 In3 3.2919(8) 6_565 ?
In5 Ir1 2.8997(7) 10 ?
In5 In2 3.2780(11) 11_676 ?
In5 In2 3.2780(11) 3_654 ?
Se1 In3 2.9394(6) 10 ?
Se1 In3 2.9394(6) 2_675 ?
Se1 In3 2.9394(6) 9_675 ?
