#------------------------------------------------------------------------------
#$Date: 2020-03-04 03:37:04 +0200 (Wed, 04 Mar 2020) $
#$Revision: 248704 $
#$URL: file:///home/coder/svn-repositories/cod/cif/4/13/41/4134190.cif $
#------------------------------------------------------------------------------
#
# This file is available in the Crystallography Open Database (COD),
# http://www.crystallography.net/
#
# All data on this site have been placed in the public domain by the
# contributors.
#
data_4134190
loop_
_publ_author_name
'Guo, Yinliang'
'Guo, Zhixian'
'Lu, Jia-Tian'
'Fang, Runting'
'Chen, Si-Cong'
'Luo, Tuoping'
_publ_section_title
;
 Total Synthesis of (-)-Batrachotoxinin A: A Local-Desymmetrization
 Approach.
;
_journal_issue                   8
_journal_name_full               'Journal of the American Chemical Society'
_journal_page_first              3675
_journal_page_last               3679
_journal_paper_doi               10.1021/jacs.9b12882
_journal_volume                  142
_journal_year                    2020
_chemical_absolute_configuration unk
_chemical_formula_sum            'C23 H37 N O5'
_chemical_formula_weight         407.53
_space_group_crystal_system      triclinic
_space_group_IT_number           1
_space_group_name_Hall           'P 1'
_space_group_name_H-M_alt        'P 1'
_atom_sites_solution_hydrogens   mixed
_atom_sites_solution_primary     dual
_audit_creation_method           SHELXL-2014/7
_cell_angle_alpha                71.334(3)
_cell_angle_beta                 87.561(3)
_cell_angle_gamma                84.380(3)
_cell_formula_units_Z            1
_cell_length_a                   7.0005(3)
_cell_length_b                   7.3078(3)
_cell_length_c                   10.9418(3)
_cell_measurement_reflns_used    3929
_cell_measurement_temperature    179.99(10)
_cell_measurement_theta_max      29.3040
_cell_measurement_theta_min      2.9580
_cell_volume                     527.73(4)
_computing_structure_refinement  'SHELXL-2014/7 (Sheldrick, 2014)'
_diffrn_ambient_environment      N~2~
_diffrn_ambient_temperature      179.99(10)
_diffrn_detector                 'CCD plate'
_diffrn_measured_fraction_theta_full 0.998
_diffrn_measured_fraction_theta_max 0.998
_diffrn_measurement_device       'four-circle diffractometer'
_diffrn_measurement_device_type  'XtaLAB AFC12 (RINC): Kappa single'
_diffrn_radiation_monochromator  graphite
_diffrn_radiation_probe          x-ray
_diffrn_radiation_type           'Mo K\a'
_diffrn_radiation_wavelength     0.71073
_diffrn_reflns_av_R_equivalents  0.0191
_diffrn_reflns_av_unetI/netI     0.0282
_diffrn_reflns_Laue_measured_fraction_full 0.998
_diffrn_reflns_Laue_measured_fraction_max 0.998
_diffrn_reflns_limit_h_max       8
_diffrn_reflns_limit_h_min       -8
_diffrn_reflns_limit_k_max       8
_diffrn_reflns_limit_k_min       -8
_diffrn_reflns_limit_l_max       10
_diffrn_reflns_limit_l_min       -13
_diffrn_reflns_number            5101
_diffrn_reflns_point_group_measured_fraction_full 0.670
_diffrn_reflns_point_group_measured_fraction_max 0.670
_diffrn_reflns_theta_full        25.026
_diffrn_reflns_theta_max         25.026
_diffrn_reflns_theta_min         2.954
_diffrn_source                   'fine-focus sealed X-ray tube'
_diffrn_source_type              'Enhance (Mo) X-ray Source'
_exptl_absorpt_coefficient_mu    0.089
_exptl_absorpt_correction_T_max  1.00000
_exptl_absorpt_correction_T_min  0.69557
_exptl_absorpt_correction_type   multi-scan
_exptl_absorpt_process_details
;
CrysAlisPro 1.171.39.29a (Rigaku Oxford Diffraction, 2015)
Empirical absorption correction using spherical harmonics,
 implemented in SCALE3 ABSPACK scaling algorithm.
;
_exptl_crystal_colour            colorless
_exptl_crystal_density_diffrn    1.282
_exptl_crystal_description       block
_exptl_crystal_F_000             222
_exptl_crystal_size_max          0.25
_exptl_crystal_size_mid          0.22
_exptl_crystal_size_min          0.11
_refine_diff_density_max         0.175
_refine_diff_density_min         -0.177
_refine_diff_density_rms         0.034
_refine_ls_abs_structure_details
;
 Flack x determined using 611 quotients [(I+)-(I-)]/[(I+)+(I-)]
 (Parsons, Flack and Wagner, Acta Cryst. B69 (2013) 249-259).
;
_refine_ls_abs_structure_Flack   -1.1(6)
_refine_ls_extinction_method     none
_refine_ls_goodness_of_fit_ref   1.056
_refine_ls_hydrogen_treatment    mixed
_refine_ls_matrix_type           full
_refine_ls_number_parameters     271
_refine_ls_number_reflns         2503
_refine_ls_number_restraints     4
_refine_ls_restrained_S_all      1.055
_refine_ls_R_factor_all          0.0308
_refine_ls_R_factor_gt           0.0291
_refine_ls_shift/su_max          0.000
_refine_ls_shift/su_mean         0.000
_refine_ls_structure_factor_coef Fsqd
_refine_ls_weighting_details
'w=1/[\s^2^(Fo^2^)+(0.0597P)^2^] where P=(Fo^2^+2Fc^2^)/3'
_refine_ls_weighting_scheme      calc
_refine_ls_wR_factor_gt          0.0806
_refine_ls_wR_factor_ref         0.0823
_reflns_Friedel_coverage         0.342
_reflns_Friedel_fraction_full    0.342
_reflns_Friedel_fraction_max     0.342
_reflns_number_gt                2397
_reflns_number_total             2503
_reflns_threshold_expression     'I > 2\s(I)'
_cod_data_source_file            ja9b12882_si_008.cif
_cod_data_source_block           3
_cod_depositor_comments
'Adding full bibliography for 4134185--4134193.cif.'
_cod_database_code               4134190
_shelx_shelxl_version_number     2014/7
_shelx_space_group_comment
;
The symmetry employed for this shelxl refinement is uniquely defined
by the following loop, which should always be used as a source of
symmetry information in preference to the above space-group names.
They are only intended as comments.
;
_shelx_res_file
;

    3.res created by SHELXL-2014/7


TITL 3_a.res in P1
REM Old TITL 3 in P1
REM SHELXT solution in P1
REM R1 0.107, Rweak 0.033, Alpha 0.000, Orientation as input
REM Flack x = -1.830 ( 0.663 ) from Parsons' quotients
REM Formula found by SHELXT: C23 N O5
CELL 0.71073 7.0005 7.3078 10.9418 71.334 87.561 84.38
ZERR 1 0.0003 0.0003 0.0003 0.003 0.003 0.003
LATT -1
SFAC C H N O
UNIT 23 37 1 5

L.S. 10
PLAN  40
BOND $H
LIST 6
CONF
fmap 2
acta
SHEL 99 0.84

EQIV $1 x, y+1, z
EQIV $2 x-1, y, z
HTAB O1 O2_$2
HTAB O2 O3_$1
HTAB O3 N1

DFIX 0.94 N1 H1C

OMIT  0  -1   0
OMIT  0   0  -1
OMIT  1   0   0
WGHT    0.059700
FVAR       0.53516
O1    4   -0.038265    0.580055    0.878772    11.00000    0.03180    0.04946 =
         0.02834   -0.00971   -0.00427   -0.00506
AFIX 147
H1    2   -0.089127    0.625456    0.807999    11.00000   -1.50000
AFIX   0
O2    4    0.732304    0.707320    0.652438    11.00000    0.03451    0.01601 =
         0.02518   -0.00775   -0.01473   -0.00288
AFIX 147
H2    2    0.711239    0.825737    0.628383    11.00000   -1.50000
AFIX   0
O3    4    0.710542    0.107217    0.586597    11.00000    0.03463    0.01434 =
         0.01978   -0.00536   -0.00503   -0.00160
AFIX 147
H3    2    0.761052    0.142161    0.640664    11.00000   -1.50000
AFIX   0
O4    4    0.536092    0.535070    0.323334    11.00000    0.01778    0.02505 =
         0.01304   -0.00414   -0.00296   -0.00015
O5    4    0.428926    0.692619    0.120090    11.00000    0.02936    0.04470 =
         0.01852   -0.00443   -0.00891    0.00525
N1    3    0.823796    0.267619    0.753332    11.00000    0.02604    0.01726 =
         0.02103   -0.00413   -0.00626    0.00328
H1C   2    0.884890    0.377743    0.713170    11.00000   -1.20000
C1    1    0.127558    0.678046    0.880234    11.00000    0.02940    0.03391 =
         0.02774   -0.01655    0.00031    0.00090
AFIX  23
H1A   2    0.136635    0.694639    0.964214    11.00000   -1.20000
H1B   2    0.113078    0.805976    0.816483    11.00000   -1.20000
AFIX   0
C2    1    0.311908    0.570437    0.852136    11.00000    0.02811    0.02926 =
         0.02005   -0.00972   -0.00386    0.00274
AFIX  23
H2A   2    0.316595    0.436267    0.906917    11.00000   -1.20000
H2B   2    0.420433    0.627199    0.873281    11.00000   -1.20000
AFIX   0
C3    1    0.329652    0.576879    0.711183    11.00000    0.02169    0.02170 =
         0.02041   -0.00959   -0.00357    0.00065
AFIX  13
H3A   2    0.216425    0.522309    0.692077    11.00000   -1.20000
AFIX   0
C4    1    0.326571    0.788638    0.618849    11.00000    0.02923    0.01865 =
         0.02789   -0.00935   -0.00694    0.00380
AFIX  23
H4A   2    0.198024    0.836793    0.587060    11.00000   -1.20000
H4B   2    0.369605    0.872990    0.662829    11.00000   -1.20000
AFIX   0
C5    1    0.462752    0.779965    0.508741    11.00000    0.02872    0.01393 =
         0.02052   -0.00398   -0.00532   -0.00288
AFIX  23
H5A   2    0.511403    0.904924    0.466487    11.00000   -1.20000
H5B   2    0.399585    0.740082    0.445432    11.00000   -1.20000
AFIX   0
C6    1    0.624633    0.628251    0.574963    11.00000    0.02350    0.01459 =
         0.01860   -0.00635   -0.00817   -0.00274
C7    1    0.512511    0.464269    0.669022    11.00000    0.02325    0.01539 =
         0.01527   -0.00530   -0.00323   -0.00014
C8    1    0.632356    0.341220    0.786383    11.00000    0.02697    0.01724 =
         0.01752   -0.00462   -0.00105    0.00102
AFIX  23
H8A   2    0.646898    0.418988    0.841957    11.00000   -1.20000
H8B   2    0.562597    0.231956    0.834907    11.00000   -1.20000
AFIX   0
C9    1    0.926535    0.148104    0.869704    11.00000    0.04592    0.03194 =
         0.03082   -0.01007   -0.01249    0.01368
AFIX 137
H9A   2    1.057966    0.120071    0.847819    11.00000   -1.50000
H9B   2    0.867506    0.029004    0.906167    11.00000   -1.50000
H9C   2    0.921483    0.216888    0.931415    11.00000   -1.50000
AFIX   0
C10   1    0.440232    0.341849    0.591669    11.00000    0.02314    0.01575 =
         0.01514   -0.00342   -0.00086   -0.00627
AFIX  23
H10A  2    0.382142    0.232908    0.652211    11.00000   -1.20000
H10B  2    0.339384    0.420540    0.535215    11.00000   -1.20000
AFIX   0
C11   1    0.585870    0.262344    0.509762    11.00000    0.02317    0.01655 =
         0.01697   -0.00658   -0.00431   -0.00257
AFIX  13
H11   2    0.512158    0.207496    0.457873    11.00000   -1.20000
AFIX   0
C12   1    0.690581    0.427706    0.412870    11.00000    0.02106    0.01823 =
         0.01475   -0.00344   -0.00438   -0.00209
C13   1    0.757969    0.569218    0.475975    11.00000    0.02104    0.01469 =
         0.01512    0.00060   -0.00559   -0.00134
C14   1    0.916588    0.658038    0.435704    11.00000    0.02597    0.02209 =
         0.02822   -0.00495   -0.00566   -0.00516
AFIX  43
H14   2    0.955605    0.735677    0.481059    11.00000   -1.20000
AFIX   0
C15   1    1.037206    0.642111    0.322407    11.00000    0.02007    0.03153 =
         0.03022    0.00086    0.00160   -0.00680
AFIX  23
H15A  2    1.158268    0.567971    0.352751    11.00000   -1.20000
H15B  2    1.064764    0.770675    0.268180    11.00000   -1.20000
AFIX   0
C16   1    0.936112    0.544304    0.243658    11.00000    0.02053    0.03290 =
         0.02241   -0.00373    0.00306   -0.00108
AFIX  13
H16   2    1.029751    0.508797    0.184092    11.00000   -1.20000
AFIX   0
C17   1    0.854546    0.358528    0.331933    11.00000    0.02148    0.02558 =
         0.01927   -0.00590   -0.00132    0.00058
C18   1    1.018453    0.222449    0.410615    11.00000    0.02658    0.03063 =
         0.03244   -0.00621   -0.00050    0.00476
AFIX 137
H18A  2    1.049208    0.266509    0.480587    11.00000   -1.50000
H18B  2    1.129499    0.222435    0.356025    11.00000   -1.50000
H18C  2    0.979096    0.093353    0.444410    11.00000   -1.50000
AFIX   0
C19   1    0.767282    0.257568    0.246961    11.00000    0.03220    0.03287 =
         0.02427   -0.01344    0.00396   -0.00048
AFIX  23
H19A  2    0.868123    0.215493    0.195756    11.00000   -1.20000
H19B  2    0.709450    0.143575    0.301448    11.00000   -1.20000
AFIX   0
C20   1    0.614356    0.394186    0.156850    11.00000    0.03398    0.04662 =
         0.02389   -0.01745   -0.00310   -0.00124
AFIX  23
H20A  2    0.655239    0.419462    0.067594    11.00000   -1.20000
H20B  2    0.493945    0.334942    0.168844    11.00000   -1.20000
AFIX   0
C21   1    0.588324    0.581322    0.188949    11.00000    0.02067    0.03647 =
         0.01364   -0.00350   -0.00286    0.00142
C22   1    0.772330    0.681594    0.164005    11.00000    0.02594    0.03504 =
         0.01999    0.00086    0.00139    0.00129
AFIX  23
H22A  2    0.754321    0.799064    0.187905    11.00000   -1.20000
H22B  2    0.805387    0.717242    0.072910    11.00000   -1.20000
AFIX   0
C23   1    0.400102    0.889079    0.117664    11.00000    0.02803    0.03926 =
         0.03311    0.00856   -0.00362    0.00463
AFIX 137
H23A  2    0.498742    0.960925    0.065784    11.00000   -1.50000
H23B  2    0.405231    0.894587    0.203942    11.00000   -1.50000
H23C  2    0.276873    0.944362    0.081628    11.00000   -1.50000
AFIX   0
HKLF 4

REM  3_a.res in P1
REM R1 =  0.0291 for    2397 Fo > 4sig(Fo)  and  0.0308 for all    2503 data
REM    271 parameters refined using      4 restraints

END

WGHT      0.0420      0.0767

REM Highest difference peak  0.175,  deepest hole -0.177,  1-sigma level  0.034
Q1    1   0.5737  0.5459  0.6229  11.00000  0.05    0.18
Q2    1   0.7816  0.3852  0.3835  11.00000  0.05    0.16
Q3    1   0.6609  0.3372  0.4738  11.00000  0.05    0.15
Q4    1   0.5326  0.3057  0.5557  11.00000  0.05    0.15
Q5    1   0.7191  0.4971  0.4467  11.00000  0.05    0.15
Q6    1   0.6865  0.5774  0.5348  11.00000  0.05    0.15
Q7    1   0.5429  0.6831  0.5356  11.00000  0.05    0.14
Q8    1   0.4234  0.5134  0.6986  11.00000  0.05    0.14
Q9    1   0.6097  0.4860  0.3679  11.00000  0.05    0.13
Q10   1   0.4930  0.4117  0.6194  11.00000  0.05    0.12
Q11   1   0.7417  0.4634  0.0596  11.00000  0.05    0.11
Q12   1   0.9278  0.3049  0.3816  11.00000  0.05    0.11
Q13   1   0.5996  0.4958  0.1613  11.00000  0.05    0.11
Q14   1   0.4197  0.1646  0.7811  11.00000  0.05    0.11
Q15   1   0.8351  0.1268  0.9587  11.00000  0.05    0.11
Q16   1   0.8011  0.6656  0.4244  11.00000  0.05    0.11
Q17   1   0.4738  0.8988  0.3969  11.00000  0.05    0.11
Q18   1   0.8391  0.0773  0.5433  11.00000  0.05    0.10
Q19   1   0.8012  0.3115  0.2977  11.00000  0.05    0.10
Q20   1   0.8887  0.4533  0.2793  11.00000  0.05    0.10
Q21   1   0.4060  0.7271  0.8274  11.00000  0.05    0.10
Q22   1   0.5655  0.4105  0.7204  11.00000  0.05    0.10
Q23   1   0.8759  0.7934  0.4758  11.00000  0.05    0.10
Q24   1   0.5966  0.0617  0.6525  11.00000  0.05    0.10
Q25   1   0.1653  0.3779  0.6862  11.00000  0.05    0.10
Q26   1   0.6725  0.6673  0.6169  11.00000  0.05    0.10
Q27   1   0.7904 -0.0542  0.8638  11.00000  0.05    0.10
Q28   1   0.9241  0.7403  0.6645  11.00000  0.05    0.10
Q29   1   0.8982  0.8956  0.6593  11.00000  0.05    0.10
Q30   1   0.5127  0.9961  0.0958  11.00000  0.05    0.10
Q31   1   0.7376  0.2728  0.0262  11.00000  0.05    0.09
Q32   1   0.1381  0.6141  0.9830  11.00000  0.05    0.09
Q33   1   0.2287  0.4682  0.7229  11.00000  0.05    0.09
Q34   1   0.7421  0.0552  0.3069  11.00000  0.05    0.09
Q35   1   0.7899 -0.0138  0.8039  11.00000  0.05    0.09
Q36   1   0.4729  0.6717  0.3412  11.00000  0.05    0.09
Q37   1  -0.0351  0.9706  0.7561  11.00000  0.05    0.09
Q38   1   0.8413  0.3814  0.6201  11.00000  0.05    0.09
Q39   1   1.0218 -0.1179  0.9466  11.00000  0.05    0.09
Q40   1   0.7639  0.0948  0.3014  11.00000  0.05    0.09
;
_shelx_res_checksum              82223
_shelx_hkl_file
;
  -9  -2  -3    3.48    0.58
  -9  -2  -2    6.72    0.79
  -9  -2  -1    2.28    0.50
  -9  -2   0    4.29    0.67
  -9  -1  -3    5.93    0.72
  -9  -1  -2    1.34    0.44
  -9  -1  -1    1.09    0.40
  -9  -1   0    0.70    0.40
  -9  -1   2    5.78    0.79
  -9   0   0    0.40    0.33
  -9   0   1    1.25    0.48
  -9   0   2    1.92    0.55
  -9   1   0    5.16    0.77
  -9   1   1    4.66    0.74
  -8  -5  -5    2.50    0.51
  -8  -5  -4    1.55    0.41
  -8  -5  -3    6.22    0.71
  -8  -5  -3    5.73    0.67
  -8  -5  -2    0.20    0.32
  -8  -5  -1    2.46    0.52
  -8  -4  -6    0.07    0.32
  -8  -4  -5    5.34    0.68
  -8  -4  -5    5.50    0.64
  -8  -4  -4    6.35    0.69
  -8  -4  -4    5.98    0.69
  -8  -4  -3    3.33    0.51
  -8  -4  -3    2.89    0.51
  -8  -4  -2    3.09    0.47
  -8  -4  -2    2.52    0.51
  -8  -4  -1    5.16    0.65
  -8  -4   0    5.98    0.72
  -8  -3  -6    0.52    0.29
  -8  -3  -5    1.34    0.38
  -8  -3  -4    7.57    0.74
  -8  -3  -3    8.55    0.78
  -8  -3  -2    7.32    0.74
  -8  -3  -1    6.70    0.72
  -8  -3   0    3.04    0.52
  -8  -3   1    2.77    0.50
  -8  -2  -7    7.27    0.72
  -8  -2  -6    0.42    0.28
  -8  -2  -5    0.48    0.27
  -8  -2  -4    1.34    0.36
  -8  -2  -3    2.28    0.46
  -8  -2  -2   37.61    1.73
  -8  -2  -1   47.09    1.98
  -8  -2   0    0.94    0.35
  -8  -2   1    1.10    0.36
  -8  -2   1    0.88    0.38
  -8  -2   2    2.59    0.51
  -8  -1  -7   13.74    1.00
  -8  -1  -6    3.47    0.54
  -8  -1  -5    3.79    0.56
  -8  -1  -4    1.26    0.36
  -8  -1  -3    2.94    0.50
  -8  -1  -2    6.37    0.68
  -8  -1  -2    8.83    0.80
  -8  -1  -1   26.86    1.44
  -8  -1  -1   23.56    1.34
  -8  -1   0    2.02    0.44
  -8  -1   0    1.93    0.45
  -8  -1   1    2.33    0.50
  -8  -1   1    2.18    0.45
  -8  -1   2    0.45    0.34
  -8  -1   2    0.56    0.31
  -8  -1   3    3.63    0.61
  -8  -1   4    3.21    0.56
  -8   0  -6   14.66    1.05
  -8   0  -5    0.20    0.27
  -8   0  -4    2.43    0.47
  -8   0  -3    1.96    0.43
  -8   0  -3    1.57    0.41
  -8   0  -2    2.23    0.46
  -8   0  -2    3.05    0.53
  -8   0  -1    6.04    0.69
  -8   0  -1    6.55    0.72
  -8   0   0    1.90    0.47
  -8   0   0    1.25    0.39
  -8   0   1    8.54    0.85
  -8   0   2    1.64    0.46
  -8   0   3    1.78    0.43
  -8   0   3    2.72    0.59
  -8   0   4   -0.09    0.28
  -8   0   4    0.15    0.28
  -8   0   5   -0.22    0.27
  -8   0   6   -0.08    0.32
  -8   1  -5    9.24    0.84
  -8   1  -5    8.94    0.88
  -8   1  -4    4.23    0.62
  -8   1  -4    3.08    0.54
  -8   1  -3    3.94    0.59
  -8   1  -3    4.49    0.62
  -8   1  -2    1.83    0.45
  -8   1  -2    2.14    0.49
  -8   1  -1    5.84    0.71
  -8   1   0    0.45    0.32
  -8   1   1    3.93    0.63
  -8   1   1    5.83    0.70
  -8   1   2    2.72    0.57
  -8   1   2    2.51    0.49
  -8   1   3    0.57    0.32
  -8   1   3    0.52    0.35
  -8   1   4    1.09    0.38
  -8   1   4    0.27    0.39
  -8   1   5    6.21    0.75
  -8   1   5    4.65    0.77
  -8   1   6    6.29    0.76
  -8   1   6    6.34    0.89
  -8   2  -4    3.44    0.61
  -8   2  -3    2.98    0.56
  -8   2  -3    3.59    0.59
  -8   2  -2    4.38    0.67
  -8   2  -1    3.62    0.57
  -8   2  -1    2.86    0.56
  -8   2   0    1.30    0.42
  -8   2   0    1.32    0.39
  -8   2   1    3.28    0.59
  -8   2   1    5.08    0.65
  -8   2   2    4.89    0.66
  -8   2   2    3.83    0.67
  -8   2   3    0.63    0.44
  -8   2   3    0.52    0.34
  -8   2   4    2.88    0.56
  -8   2   4    1.51    0.52
  -8   2   5    2.65    0.63
  -8   2   5    2.97    0.56
  -8   2   6   24.27    1.46
  -8   3  -2   10.59    1.02
  -8   3  -1   10.21    1.02
  -8   3  -1   11.56    0.97
  -8   3   0   -0.07    0.32
  -8   3   0   -0.09    0.35
  -8   3   1    8.00    0.94
  -8   3   1    7.78    0.81
  -8   3   2   13.65    1.04
  -8   3   2   12.04    1.14
  -8   3   3    1.91    0.56
  -8   3   3    1.49    0.45
  -8   3   4    0.10    0.40
  -8   3   4    0.51    0.34
  -8   3   5    2.94    0.56
  -7  -6  -7    2.48    0.50
  -7  -6  -7    3.95    0.63
  -7  -6  -6    2.10    0.47
  -7  -6  -6    2.30    0.51
  -7  -6  -5    4.54    0.62
  -7  -6  -4    0.47    0.32
  -7  -6  -3    1.21    0.36
  -7  -6  -2    0.21    0.25
  -7  -5  -8   10.82    1.00
  -7  -5  -8    9.51    0.91
  -7  -5  -7    2.16    0.50
  -7  -5  -7    2.01    0.47
  -7  -5  -6    0.67    0.36
  -7  -5  -6    0.57    0.34
  -7  -5  -5    4.06    0.59
  -7  -5  -5    4.68    0.63
  -7  -5  -4    1.76    0.37
  -7  -5  -4    1.95    0.43
  -7  -5  -4    1.86    0.42
  -7  -5  -3    4.23    0.53
  -7  -5  -3    4.90    0.57
  -7  -5  -2    0.17    0.26
  -7  -5  -2    0.30    0.23
  -7  -5  -1    1.09    0.31
  -7  -4  -9   15.45    1.24
  -7  -4  -9   15.71    1.15
  -7  -4  -8    9.68    0.96
  -7  -4  -8    9.14    0.87
  -7  -4  -7    0.30    0.38
  -7  -4  -7   -0.07    0.27
  -7  -4  -6    0.43    0.31
  -7  -4  -6    0.09    0.22
  -7  -4  -6   -0.07    0.30
  -7  -4  -5    2.55    0.49
  -7  -4  -5    2.62    0.42
  -7  -4  -5    2.33    0.46
  -7  -4  -4    0.10    0.23
  -7  -4  -4    0.05    0.24
  -7  -4  -3    1.55    0.36
  -7  -4  -3    2.14    0.38
  -7  -4  -2    1.72    0.37
  -7  -4  -2    1.32    0.34
  -7  -4  -1    0.52    0.25
  -7  -4  -1    0.23    0.23
  -7  -3  -9   14.54    1.20
  -7  -3  -8   15.00    1.18
  -7  -3  -7    0.49    0.27
  -7  -3  -7    0.26    0.30
  -7  -3  -6    5.29    0.56
  -7  -3  -6    6.25    0.67
  -7  -3  -5    7.21    0.64
  -7  -3  -5    6.15    0.65
  -7  -3  -4    6.76    0.65
  -7  -3  -4    7.70    0.68
  -7  -3  -3    9.42    0.75
  -7  -3  -3    9.37    0.73
  -7  -3  -2    2.68    0.44
  -7  -3  -2    2.89    0.42
  -7  -3  -1   10.01    0.69
  -7  -3  -1   10.37    0.80
  -7  -3   0   11.56    0.86
  -7  -2  -9    2.70    0.45
  -7  -2  -8    1.65    0.37
  -7  -2  -7    2.90    0.45
  -7  -2  -6    0.83    0.28
  -7  -2  -5    8.30    0.69
  -7  -2  -4    6.48    0.62
  -7  -2  -3   23.83    1.24
  -7  -2  -2    7.88    0.70
  -7  -2  -2    6.65    0.59
  -7  -2  -1   35.43    1.56
  -7  -2  -1   35.01    1.49
  -7  -2   0   21.80    1.21
  -7  -2   0   23.81    1.23
  -7  -2   1   12.41    0.90
  -7  -1  -9    1.13    0.35
  -7  -1  -8    3.85    0.52
  -7  -1  -7    4.22    0.53
  -7  -1  -6    7.87    0.69
  -7  -1  -5    2.22    0.40
  -7  -1  -4    0.97    0.30
  -7  -1  -4    0.75    0.26
  -7  -1  -3   12.14    0.82
  -7  -1  -3   14.49    0.94
  -7  -1  -2   21.35    1.18
  -7  -1  -2   21.00    1.12
  -7  -1  -1   42.91    1.72
  -7  -1  -1   42.07    1.75
  -7  -1   0    6.56    0.65
  -7  -1   0    6.84    0.67
  -7  -1   1    6.99    0.67
  -7  -1   1    6.82    0.69
  -7  -1   2    9.02    0.78
  -7   0  -8    2.26    0.45
  -7   0  -7    0.52    0.28
  -7   0  -6    4.68    0.56
  -7   0  -5    0.38    0.24
  -7   0  -5    0.97    0.32
  -7   0  -4    7.63    0.69
  -7   0  -4    6.63    0.64
  -7   0  -3    4.60    0.55
  -7   0  -3    4.88    0.55
  -7   0  -2    2.58    0.45
  -7   0  -2    3.31    0.47
  -7   0  -1    5.80    0.61
  -7   0  -1    5.55    0.61
  -7   0   0    9.90    0.82
  -7   0   0    9.43    0.78
  -7   0   1    8.84    0.80
  -7   0   2   16.88    1.15
  -7   0   2   13.79    0.97
  -7   0   3    2.95    0.49
  -7   0   4   11.34    0.88
  -7   1  -8   12.65    0.97
  -7   1  -7   17.52    1.18
  -7   1  -7   20.72    1.21
  -7   1  -6    3.95    0.55
  -7   1  -6    4.27    0.58
  -7   1  -5    4.22    0.57
  -7   1  -5    5.24    0.60
  -7   1  -4    1.25    0.37
  -7   1  -4    1.43    0.36
  -7   1  -3    1.06    0.31
  -7   1  -3    0.74    0.32
  -7   1  -2    6.90    0.67
  -7   1  -2    6.87    0.70
  -7   1  -1   17.65    1.13
  -7   1   0    3.38    0.52
  -7   1   1    6.25    0.65
  -7   1   1    7.21    0.75
  -7   1   2    7.46    0.71
  -7   1   2    5.89    0.71
  -7   1   3    4.57    0.58
  -7   1   3    4.51    0.65
  -7   1   4    1.61    0.46
  -7   1   4    1.64    0.40
  -7   1   5   10.56    0.87
  -7   1   6    1.71    0.43
  -7   2  -7    5.91    0.76
  -7   2  -6    3.98    0.65
  -7   2  -6    4.36    0.60
  -7   2  -5    6.47    0.69
  -7   2  -5    6.95    0.75
  -7   2  -4    0.56    0.32
  -7   2  -4    0.62    0.32
  -7   2  -3    2.71    0.52
  -7   2  -2    0.76    0.35
  -7   2  -1    5.02    0.58
  -7   2  -1    4.00    0.59
  -7   2   0    3.87    0.58
  -7   2   0    3.56    0.51
  -7   2   1    0.22    0.27
  -7   2   1    0.60    0.28
  -7   2   2    2.86    0.54
  -7   2   2    2.84    0.48
  -7   2   3    5.17    0.61
  -7   2   3    4.44    0.67
  -7   2   4    3.80    0.54
  -7   2   4    4.81    0.71
  -7   2   5    0.71    0.38
  -7   2   5    0.32    0.27
  -7   2   6    0.65    0.41
  -7   2   6    0.98    0.36
  -7   2   7    9.84    0.88
  -7   2   8   17.50    1.19
  -7   3  -5    2.17    0.53
  -7   3  -5    3.48    0.56
  -7   3  -4    3.53    0.61
  -7   3  -3    3.42    0.52
  -7   3  -3    3.27    0.59
  -7   3  -2    1.85    0.45
  -7   3  -2    2.89    0.48
  -7   3  -1    0.85    0.39
  -7   3  -1    0.19    0.23
  -7   3   0    1.16    0.32
  -7   3   0    0.94    0.37
  -7   3   1    8.93    0.90
  -7   3   1    9.62    0.80
  -7   3   2    6.19    0.76
  -7   3   2    5.01    0.60
  -7   3   3    9.14    0.79
  -7   3   3    8.20    0.91
  -7   3   4    6.31    0.82
  -7   3   4    8.01    0.77
  -7   3   5   15.80    1.08
  -7   3   5   13.86    1.21
  -7   3   6   10.03    1.07
  -7   3   6   10.65    0.89
  -7   3   7    3.35    0.56
  -7   3   8   20.93    1.29
  -7   4  -3   10.08    0.88
  -7   4  -3   13.37    1.13
  -7   4  -2    5.31    0.76
  -7   4  -2    4.83    0.62
  -7   4  -1    5.15    0.62
  -7   4  -1    4.41    0.68
  -7   4   0    1.53    0.45
  -7   4   0    1.26    0.38
  -7   4   1    5.46    0.64
  -7   4   1    7.51    0.87
  -7   4   2    6.09    0.67
  -7   4   2    3.25    0.61
  -7   4   3    8.42    0.95
  -7   4   3    9.48    0.82
  -7   4   4    1.77    0.52
  -7   4   4    1.65    0.41
  -7   4   5    8.53    0.80
  -7   4   6    5.34    0.65
  -7   4   7    8.90    0.84
  -7   5  -1    3.34    0.56
  -7   5   0    8.65    0.80
  -7   5   0    7.04    0.90
  -7   5   1   22.39    1.29
  -7   5   1   23.32    1.56
  -7   5   2    4.25    0.58
  -7   5   2    3.86    0.71
  -7   5   3    2.41    0.47
  -7   5   4    2.64    0.49
  -7   5   5    0.67    0.34
  -6  -7  -8   22.56    1.34
  -6  -7  -7   28.16    1.49
  -6  -7  -7   26.68    1.41
  -6  -7  -6    3.84    0.58
  -6  -7  -6    3.70    0.58
  -6  -7  -5    0.60    0.32
  -6  -7  -4    8.23    0.74
  -6  -7  -3    2.53    0.45
  -6  -7  -2    3.86    0.51
  -6  -6  -9    2.62    0.57
  -6  -6  -9    2.92    0.53
  -6  -6  -8    3.44    0.58
  -6  -6  -8    4.10    0.59
  -6  -6  -7    5.79    0.67
  -6  -6  -7    5.62    0.67
  -6  -6  -6    3.63    0.54
  -6  -6  -6    3.34    0.50
  -6  -6  -5    3.89    0.53
  -6  -6  -5    2.99    0.47
  -6  -6  -4    2.10    0.41
  -6  -6  -4    1.86    0.40
  -6  -6  -3    4.54    0.53
  -6  -6  -2   11.10    0.78
  -6  -6  -1    4.24    0.47
  -6  -5 -10    7.12    0.83
  -6  -5 -10    6.16    0.75
  -6  -5  -9    1.40    0.49
  -6  -5  -8    0.51    0.32
  -6  -5  -8    0.41    0.34
  -6  -5  -7    1.81    0.40
  -6  -5  -7    2.09    0.48
  -6  -5  -6    6.68    0.69
  -6  -5  -6    6.66    0.67
  -6  -5  -5    2.84    0.46
  -6  -5  -5    2.54    0.46
  -6  -5  -5    2.79    0.39
  -6  -5  -4    0.86    0.26
  -6  -5  -4    1.45    0.37
  -6  -5  -4    1.77    0.36
  -6  -5  -3   -0.05    0.19
  -6  -5  -3    0.05    0.18
  -6  -5  -3   -0.05    0.21
  -6  -5  -2    1.10    0.30
  -6  -5  -2    1.36    0.31
  -6  -5  -1    3.28    0.41
  -6  -5   0    2.79    0.37
  -6  -4 -10    8.92    0.92
  -6  -4 -10    7.96    0.83
  -6  -4  -9    0.82    0.39
  -6  -4  -8    0.42    0.31
  -6  -4  -7    6.68    0.67
  -6  -4  -7    7.10    0.75
  -6  -4  -6    1.74    0.39
  -6  -4  -6    1.38    0.34
  -6  -4  -6    1.26    0.28
  -6  -4  -5   11.51    0.74
  -6  -4  -5   10.50    0.84
  -6  -4  -5   12.03    0.85
  -6  -4  -4   31.70    1.39
  -6  -4  -4   31.29    1.42
  -6  -4  -4   29.17    1.26
  -6  -4  -3    5.65    0.53
  -6  -4  -3    6.67    0.61
  -6  -4  -3    5.77    0.55
  -6  -4  -2    1.88    0.33
  -6  -4  -2    1.43    0.31
  -6  -4  -1    3.96    0.42
  -6  -4   0    8.70    0.60
  -6  -4   1   30.61    1.16
  -6  -3 -10    2.54    0.51
  -6  -3  -9    0.77    0.38
  -6  -3  -9    0.84    0.35
  -6  -3  -8    1.86    0.47
  -6  -3  -8    1.24    0.28
  -6  -3  -7   12.52    0.90
  -6  -3  -7   12.39    0.97
  -6  -3  -7   11.76    0.73
  -6  -3  -6    9.80    0.84
  -6  -3  -6    8.98    0.64
  -6  -3  -6    8.94    0.75
  -6  -3  -5   48.88    1.84
  -6  -3  -5   47.48    1.67
  -6  -3  -5   44.33    1.87
  -6  -3  -4   35.01    1.57
  -6  -3  -4   38.21    1.48
  -6  -3  -4   38.70    1.54
  -6  -3  -3    2.47    0.37
  -6  -3  -3    1.88    0.35
  -6  -3  -2   -0.05    0.18
  -6  -3  -2    0.03    0.14
  -6  -3  -2    0.08    0.16
  -6  -3  -1    2.43    0.34
  -6  -3   0   16.03    0.81
  -6  -3   1   44.73    1.44
  -6  -2 -10    6.66    0.83
  -6  -2  -9    4.84    0.51
  -6  -2  -8    3.22    0.42
  -6  -2  -7   14.71    1.07
  -6  -2  -7   15.18    0.87
  -6  -2  -6    5.88    0.54
  -6  -2  -6    5.09    0.58
  -6  -2  -6    5.89    0.67
  -6  -2  -5    2.05    0.38
  -6  -2  -5    1.93    0.34
  -6  -2  -4   37.88    1.48
  -6  -2  -4   37.07    1.52
  -6  -2  -4   38.11    1.32
  -6  -2  -3    1.90    0.33
  -6  -2  -3    2.32    0.37
  -6  -2  -3    1.89    0.29
  -6  -2  -2    0.32    0.19
  -6  -2  -2    0.48    0.20
  -6  -2  -2    0.41    0.22
  -6  -2  -1    5.77    0.55
  -6  -2  -1    5.71    0.49
  -6  -2  -1    5.62    0.51
  -6  -2   0    6.31    0.58
  -6  -1 -10    3.74    0.50
  -6  -1  -9    9.89    0.74
  -6  -1  -8    2.52    0.39
  -6  -1  -7   20.15    1.05
  -6  -1  -6   43.02    1.66
  -6  -1  -6   45.57    1.60
  -6  -1  -5   12.09    0.78
  -6  -1  -5   11.47    0.72
  -6  -1  -4   36.20    1.45
  -6  -1  -4   36.68    1.38
  -6  -1  -3   27.01    1.23
  -6  -1  -3   25.70    1.14
  -6  -1  -2   18.83    0.97
  -6  -1  -2   19.12    1.02
  -6  -1  -1   21.38    1.07
  -6  -1  -1   20.94    1.09
  -6  -1   0   25.78    1.23
  -6  -1   0   26.66    1.25
  -6  -1   1    0.20    0.20
  -6   0 -10    7.90    0.73
  -6   0  -9    1.23    0.36
  -6   0  -8   16.04    0.97
  -6   0  -7    0.70    0.28
  -6   0  -7    0.83    0.30
  -6   0  -6   10.59    0.76
  -6   0  -6   10.22    0.75
  -6   0  -5    3.16    0.43
  -6   0  -5    2.67    0.40
  -6   0  -4    0.14    0.19
  -6   0  -4    0.33    0.22
  -6   0  -3   83.71    2.56
  -6   0  -3   86.18    2.57
  -6   0  -2   15.33    0.90
  -6   0  -2   14.79    0.90
  -6   0  -1   72.10    2.33
  -6   0  -1   72.08    2.33
  -6   0   0   10.32    0.75
  -6   0   0   10.09    0.77
  -6   0   1    2.28    0.40
  -6   0   2   15.37    0.95
  -6   1  -9   25.63    1.34
  -6   1  -8   12.60    0.90
  -6   1  -8   11.96    0.94
  -6   1  -7    7.22    0.71
  -6   1  -7    8.71    0.74
  -6   1  -6   14.13    0.96
  -6   1  -6   13.63    0.90
  -6   1  -5    1.14    0.30
  -6   1  -5    1.89    0.39
  -6   1  -4    6.74    0.63
  -6   1  -4    6.86    0.64
  -6   1  -3   29.79    1.40
  -6   1  -3   33.44    1.43
  -6   1  -2   10.39    0.79
  -6   1  -2   11.17    0.78
  -6   1  -1   24.74    1.26
  -6   1   0    1.82    0.38
  -6   1   1   27.44    1.40
  -6   1   1   29.72    1.35
  -6   1   2   28.42    1.32
  -6   1   2   27.46    1.43
  -6   1   3  100.90    3.01
  -6   1   3  103.30    3.26
  -6   1   4    6.87    0.64
  -6   1   5    6.71    0.64
  -6   2  -8    6.63    0.71
  -6   2  -8    7.06    0.79
  -6   2  -7   11.16    0.87
  -6   2  -7   13.42    1.02
  -6   2  -6   14.66    1.04
  -6   2  -6   14.39    0.96
  -6   2  -5    0.22    0.22
  -6   2  -5    0.06    0.23
  -6   2  -4    0.86    0.28
  -6   2  -4    1.30    0.36
  -6   2  -3    3.78    0.52
  -6   2  -2    3.69    0.51
  -6   2  -1   14.15    0.89
  -6   2  -1   14.24    0.98
  -6   2   0   24.38    1.32
  -6   2   0   23.35    1.17
  -6   2   1    1.49    0.33
  -6   2   1    1.80    0.39
  -6   2   2    5.31    0.56
  -6   2   2    3.84    0.55
  -6   2   3    4.59    0.61
  -6   2   3    4.06    0.50
  -6   2   4    2.60    0.51
  -6   2   4    2.46    0.41
  -6   2   5    1.47    0.40
  -6   2   5    1.25    0.34
  -6   2   6    6.76    0.66
  -6   2   7    1.55    0.37
  -6   3  -7    1.10    0.38
  -6   3  -7    1.60    0.49
  -6   3  -6   23.10    1.28
  -6   3  -6   20.73    1.35
  -6   3  -5    0.36    0.26
  -6   3  -5    0.22    0.28
  -6   3  -4    5.01    0.64
  -6   3  -3    2.15    0.38
  -6   3  -3    1.04    0.35
  -6   3  -2   13.66    0.91
  -6   3  -2   13.51    1.01
  -6   3  -1    7.80    0.77
  -6   3  -1    8.64    0.70
  -6   3   0   13.26    0.99
  -6   3   0   11.11    0.80
  -6   3   1   10.13    0.87
  -6   3   1    9.37    0.73
  -6   3   2   10.44    0.77
  -6   3   2   10.89    0.93
  -6   3   3   23.94    1.21
  -6   3   3   20.70    1.33
  -6   3   4    4.47    0.65
  -6   3   4    5.73    0.59
  -6   3   5    8.47    0.71
  -6   3   6    3.08    0.47
  -6   3   7    0.89    0.43
  -6   3   7    0.39    0.26
  -6   3   8    3.74    0.53
  -6   3   9    1.54    0.40
  -6   4  -6    1.37    0.47
  -6   4  -5    1.02    0.34
  -6   4  -5    1.56    0.45
  -6   4  -4    1.34    0.36
  -6   4  -4    1.27    0.42
  -6   4  -3    0.47    0.26
  -6   4  -3    0.31    0.31
  -6   4  -2    5.70    0.60
  -6   4  -2    5.20    0.70
  -6   4  -1    1.80    0.43
  -6   4  -1    1.32    0.33
  -6   4   0    0.60    0.34
  -6   4   0    1.24    0.32
  -6   4   1    5.99    0.72
  -6   4   1    6.07    0.60
  -6   4   2    0.16    0.21
  -6   4   2    0.62    0.31
  -6   4   3    2.31    0.40
  -6   4   4   17.17    1.01
  -6   4   5   19.30    1.36
  -6   4   5   19.41    1.09
  -6   4   6    0.66    0.29
  -6   4   6    1.16    0.47
  -6   4   7   11.88    0.88
  -6   4   7   11.83    1.12
  -6   4   8    1.85    0.55
  -6   4   9    1.42    0.55
  -6   5  -3    7.57    0.74
  -6   5  -3    8.73    0.93
  -6   5  -2    6.13    0.65
  -6   5  -2    4.97    0.72
  -6   5  -1    6.12    0.77
  -6   5  -1    5.62    0.63
  -6   5   0   14.60    1.15
  -6   5   0   15.26    0.99
  -6   5   1    6.49    0.64
  -6   5   2    1.93    0.38
  -6   5   3    2.32    0.43
  -6   5   3    1.86    0.51
  -6   5   4    4.34    0.69
  -6   5   4    3.70    0.50
  -6   5   5    7.80    0.68
  -6   5   5    6.71    0.83
  -6   5   6    0.77    0.31
  -6   5   6    1.20    0.46
  -6   5   7    4.04    0.74
  -6   5   8    3.40    0.71
  -6   6  -1    4.34    0.59
  -6   6   0    2.12    0.45
  -6   6   1    4.81    0.57
  -6   6   1    3.77    0.66
  -6   6   2   10.51    0.83
  -6   6   2   12.33    1.11
  -6   6   3    2.97    0.63
  -6   6   3    3.93    0.52
  -6   6   4    0.82    0.43
  -6   6   4    1.11    0.33
  -6   6   5    1.30    0.48
  -6   6   6    4.61    0.79
  -5  -8  -8    0.38    0.33
  -5  -8  -7    0.12    0.29
  -5  -8  -7    0.33    0.30
  -5  -8  -6    8.29    0.79
  -5  -8  -5    5.34    0.63
  -5  -8  -4    0.93    0.34
  -5  -8  -3    1.51    0.38
  -5  -8  -2    9.37    0.78
  -5  -7 -10    1.30    0.40
  -5  -7  -9    0.27    0.36
  -5  -7  -8    2.67    0.50
  -5  -7  -8    5.30    0.63
  -5  -7  -7    8.53    0.77
  -5  -7  -7    8.28    0.76
  -5  -7  -6   21.09    1.22
  -5  -7  -6   23.74    1.21
  -5  -7  -5    6.31    0.63
  -5  -7  -5    5.90    0.58
  -5  -7  -4    8.55    0.73
  -5  -7  -3    7.55    0.67
  -5  -7  -2    2.20    0.38
  -5  -7  -1    3.98    0.48
  -5  -6 -11    0.08    0.33
  -5  -6 -11    0.07    0.32
  -5  -6 -10    5.61    0.69
  -5  -6 -10    6.51    0.74
  -5  -6  -9    9.62    0.86
  -5  -6  -8    1.21    0.37
  -5  -6  -8    0.48    0.26
  -5  -6  -7    0.39    0.28
  -5  -6  -7    0.11    0.23
  -5  -6  -6    2.84    0.44
  -5  -6  -6    2.84    0.44
  -5  -6  -5    0.14    0.23
  -5  -6  -5    0.41    0.25
  -5  -6  -4    0.19    0.19
  -5  -6  -4    0.17    0.19
  -5  -6  -3    5.15    0.53
  -5  -6  -3    5.37    0.50
  -5  -6  -2    7.13    0.60
  -5  -6  -1    3.56    0.42
  -5  -6   0   10.82    0.69
  -5  -5 -11    7.68    0.80
  -5  -5 -11    7.72    0.84
  -5  -5 -10   18.59    1.22
  -5  -5 -10   16.03    1.09
  -5  -5  -9    4.41    0.59
  -5  -5  -9    4.42    0.58
  -5  -5  -8   11.84    0.91
  -5  -5  -7    0.66    0.30
  -5  -5  -7    0.05    0.20
  -5  -5  -6    3.88    0.49
  -5  -5  -6    5.44    0.57
  -5  -5  -5   17.70    1.00
  -5  -5  -5   18.72    0.86
  -5  -5  -5   18.49    1.00
  -5  -5  -4   11.98    0.69
  -5  -5  -4   10.93    0.75
  -5  -5  -4   11.40    0.76
  -5  -5  -3   10.39    0.68
  -5  -5  -3    9.83    0.69
  -5  -5  -2    1.98    0.31
  -5  -5  -2    2.27    0.34
  -5  -5  -1   11.56    0.70
  -5  -5  -1   12.14    0.67
  -5  -5   0    8.04    0.56
  -5  -5   1    1.27    0.24
  -5  -4 -12    4.61    0.66
  -5  -4 -11    4.58    0.62
  -5  -4 -10   25.28    1.49
  -5  -4 -10   29.42    1.49
  -5  -4  -9    2.48    0.46
  -5  -4  -9    2.01    0.40
  -5  -4  -8    7.78    0.74
  -5  -4  -8    8.24    0.72
  -5  -4  -7    5.62    0.43
  -5  -4  -7    5.82    0.61
  -5  -4  -6   26.18    1.01
  -5  -4  -6   26.04    1.28
  -5  -4  -6   24.11    1.21
  -5  -4  -5   16.61    0.81
  -5  -4  -5   16.96    0.96
  -5  -4  -5   18.06    0.99
  -5  -4  -4   48.78    1.58
  -5  -4  -4   48.59    1.71
  -5  -4  -4   45.56    1.69
  -5  -4  -3   18.75    0.89
  -5  -4  -3   16.56    0.89
  -5  -4  -3   17.49    0.92
  -5  -4  -2   10.41    0.66
  -5  -4  -2    8.96    0.62
  -5  -4  -1   10.75    0.64
  -5  -4  -1   10.56    0.65
  -5  -4   0    4.95    0.42
  -5  -4   1   16.08    0.74
  -5  -4   2   24.82    0.92
  -5  -3 -12    5.29    0.78
  -5  -3 -11    1.89    0.44
  -5  -3 -11    0.85    0.40
  -5  -3 -10   11.41    0.90
  -5  -3 -10   11.67    0.98
  -5  -3  -9   12.00    0.90
  -5  -3  -8   11.49    0.66
  -5  -3  -8   12.74    0.89
  -5  -3  -8   11.52    0.90
  -5  -3  -7    8.16    0.73
  -5  -3  -7    9.28    0.58
  -5  -3  -6    1.16    0.24
  -5  -3  -6    1.61    0.34
  -5  -3  -6    1.83    0.38
  -5  -3  -5   57.04    1.76
  -5  -3  -5   55.04    2.00
  -5  -3  -5   60.27    1.99
  -5  -3  -4   56.60    1.88
  -5  -3  -4   56.41    1.77
  -5  -3  -4   53.95    1.91
  -5  -3  -4   57.34    1.45
  -5  -3  -3    5.11    0.46
  -5  -3  -3    5.21    0.48
  -5  -3  -3    5.30    0.36
  -5  -3  -3    5.54    0.52
  -5  -3  -2    0.67    0.22
  -5  -3  -2    1.10    0.24
  -5  -3  -2    1.24    0.21
  -5  -3  -2    1.14    0.24
  -5  -3  -1    8.65    0.56
  -5  -3   0    0.76    0.19
  -5  -3   1   25.49    0.94
  -5  -3   2   50.92    1.44
  -5  -3   3   11.34    0.51
  -5  -2 -12    1.18    0.49
  -5  -2 -11    1.18    0.44
  -5  -2 -10    7.34    0.58
  -5  -2 -10    6.87    0.79
  -5  -2  -9    4.50    0.58
  -5  -2  -9    5.59    0.49
  -5  -2  -9    5.00    0.64
  -5  -2  -8    9.44    0.76
  -5  -2  -8    9.39    0.62
  -5  -2  -7    8.60    0.71
  -5  -2  -7    9.29    0.61
  -5  -2  -6    4.78    0.56
  -5  -2  -6    4.73    0.44
  -5  -2  -6    4.84    0.37
  -5  -2  -5   29.69    1.17
  -5  -2  -5   30.09    1.39
  -5  -2  -5   30.05    1.30
  -5  -2  -5   30.32    1.03
  -5  -2  -4   11.53    0.69
  -5  -2  -4   10.59    0.55
  -5  -2  -4   10.51    0.75
  -5  -2  -4   10.89    0.71
  -5  -2  -3    2.21    0.31
  -5  -2  -3    2.35    0.35
  -5  -2  -3    2.82    0.35
  -5  -2  -3    2.10    0.26
  -5  -2  -2    3.95    0.37
  -5  -2  -2    4.47    0.43
  -5  -2  -2    4.18    0.41
  -5  -2  -1    3.51    0.35
  -5  -2  -1    3.66    0.39
  -5  -2  -1    3.79    0.37
  -5  -2   0   35.41    1.20
  -5  -2   1    7.73    0.47
  -5  -2   2    9.39    0.48
  -5  -1 -11    2.43    0.41
  -5  -1 -11    1.61    0.49
  -5  -1 -10    4.49    0.49
  -5  -1 -10    3.92    0.64
  -5  -1  -9   11.62    0.74
  -5  -1  -9   10.23    0.93
  -5  -1  -8    6.09    0.52
  -5  -1  -8    5.26    0.63
  -5  -1  -8    5.80    0.52
  -5  -1  -7   82.52    2.33
  -5  -1  -7   81.80    2.35
  -5  -1  -6   10.45    0.64
  -5  -1  -6    9.61    0.64
  -5  -1  -5   89.18    2.49
  -5  -1  -5   87.01    2.38
  -5  -1  -4   58.58    1.75
  -5  -1  -4   56.60    1.82
  -5  -1  -3    3.02    0.33
  -5  -1  -3    4.30    0.42
  -5  -1  -2   43.58    1.47
  -5  -1  -2   45.05    1.56
  -5  -1  -1    6.23    0.49
  -5  -1  -1    6.18    0.51
  -5  -1   0   38.32    1.42
  -5   0 -11    0.37    0.26
  -5   0 -10    0.90    0.29
  -5   0  -9    2.38    0.39
  -5   0  -8    0.60    0.25
  -5   0  -8    0.54    0.22
  -5   0  -7    0.19    0.18
  -5   0  -7    0.61    0.23
  -5   0  -6   14.10    0.82
  -5   0  -6   15.44    0.87
  -5   0  -5   54.75    1.81
  -5   0  -5   53.03    1.79
  -5   0  -4    7.64    0.58
  -5   0  -4    7.12    0.56
  -5   0  -3   90.11    2.55
  -5   0  -3   91.28    2.54
  -5   0  -2   25.15    1.10
  -5   0  -2   26.87    1.14
  -5   0  -1   22.73    1.05
  -5   0  -1   21.29    1.02
  -5   0   0   18.44    0.96
  -5   0   0   16.78    0.90
  -5   0   1   35.79    1.46
  -5   0   4   28.44    1.08
  -5   1 -10    2.67    0.45
  -5   1  -9    1.64    0.35
  -5   1  -8    0.83    0.31
  -5   1  -8    1.31    0.31
  -5   1  -7    1.44    0.32
  -5   1  -7    2.34    0.44
  -5   1  -6    1.92    0.36
  -5   1  -5    0.24    0.21
  -5   1  -5    0.31    0.19
  -5   1  -4   25.10    1.19
  -5   1  -4   25.85    1.16
  -5   1  -3   31.33    1.35
  -5   1  -3   33.71    1.34
  -5   1  -2   19.86    1.02
  -5   1  -2   18.19    0.94
  -5   1  -1   21.85    1.09
  -5   1   0   19.93    1.05
  -5   1   1   37.13    1.41
  -5   1   1   35.21    1.50
  -5   1   2   16.59    1.00
  -5   1   2   16.54    0.90
  -5   1   3   21.96    1.07
  -5   1   3   22.24    0.78
  -5   2 -10    1.35    0.38
  -5   2  -9    0.76    0.31
  -5   2  -8    1.58    0.40
  -5   2  -8    2.24    0.40
  -5   2  -7    0.32    0.23
  -5   2  -7    0.78    0.31
  -5   2  -6    1.94    0.41
  -5   2  -6    1.82    0.34
  -5   2  -5    2.22    0.41
  -5   2  -5    3.33    0.42
  -5   2  -4    2.12    0.35
  -5   2  -4    2.98    0.44
  -5   2  -3   14.91    0.95
  -5   2  -2    7.76    0.66
  -5   2  -1   27.20    1.20
  -5   2  -1   28.75    1.33
  -5   2   0   99.07    2.96
  -5   2   0   97.80    2.74
  -5   2   1    3.56    0.42
  -5   2   1    3.28    0.46
  -5   2   2   23.41    1.09
  -5   2   2   20.30    1.17
  -5   2   3    0.47    0.21
  -5   2   3    0.54    0.26
  -5   2   4    3.74    0.53
  -5   2   4    3.52    0.44
  -5   2   5    9.54    0.70
  -5   3  -8    6.41    0.68
  -5   3  -8    5.06    0.70
  -5   3  -7    1.93    0.46
  -5   3  -7    1.88    0.40
  -5   3  -6   10.44    0.80
  -5   3  -6   11.85    0.96
  -5   3  -5    0.66    0.32
  -5   3  -4    2.70    0.46
  -5   3  -3    0.67    0.26
  -5   3  -3    0.61    0.27
  -5   3  -2    7.46    0.61
  -5   3  -2    7.41    0.70
  -5   3  -1    3.92    0.45
  -5   3  -1    4.16    0.53
  -5   3   0  110.94    3.35
  -5   3   0  113.10    3.08
  -5   3   1   38.65    1.46
  -5   3   1   34.49    1.61
  -5   3   2    0.34    0.19
  -5   3   2    0.99    0.33
  -5   3   3   34.71    1.41
  -5   3   4   31.55    1.33
  -5   3   5   17.72    1.19
  -5   3   5   19.58    1.01
  -5   3   6    5.28    0.53
  -5   3   6    4.91    0.66
  -5   3   7    4.89    0.52
  -5   3   8    2.03    0.39
  -5   3   9    0.65    0.28
  -5   4  -7    6.08    0.80
  -5   4  -7    5.85    0.66
  -5   4  -6    1.98    0.49
  -5   4  -5    4.44    0.64
  -5   4  -5    6.42    0.66
  -5   4  -4    3.10    0.45
  -5   4  -4    2.15    0.46
  -5   4  -3    9.43    0.74
  -5   4  -3    8.37    0.81
  -5   4  -2    0.27    0.25
  -5   4  -2    0.25    0.21
  -5   4  -1    1.06    0.33
  -5   4  -1    1.70    0.33
  -5   4   0    6.01    0.56
  -5   4   0    5.50    0.64
  -5   4   1   32.70    1.35
  -5   4   2   11.71    0.76
  -5   4   3   11.95    0.76
  -5   4   3   11.93    0.95
  -5   4   4    1.07    0.37
  -5   4   4    0.85    0.25
  -5   4   5    1.83    0.35
  -5   4   5    1.27    0.38
  -5   4   6    2.16    0.36
  -5   4   6    3.52    0.61
  -5   4   7    7.03    0.61
  -5   4   7    7.30    0.83
  -5   4   8    0.26    0.32
  -5   4   8    0.28    0.23
  -5   5  -5    7.10    0.72
  -5   5  -5    5.53    0.76
  -5   5  -4    1.47    0.46
  -5   5  -4    1.68    0.38
  -5   5  -3    2.08    0.40
  -5   5  -3    1.88    0.44
  -5   5  -2    0.11    0.20
  -5   5  -2    0.23    0.25
  -5   5  -1    6.39    0.61
  -5   5   0    2.86    0.41
  -5   5   1    1.81    0.44
  -5   5   1    2.33    0.38
  -5   5   2    4.82    0.51
  -5   5   2    5.00    0.65
  -5   5   3    9.30    0.87
  -5   5   3    8.62    0.66
  -5   5   4   10.47    0.71
  -5   5   4    7.60    0.81
  -5   5   5    1.83    0.34
  -5   5   5    1.63    0.43
  -5   5   6    0.88    0.28
  -5   5   6    0.16    0.30
  -5   5   7    7.70    0.87
  -5   5   8    4.60    0.72
  -5   5   9    3.61    0.69
  -5   5  10    6.11    0.87
  -5   6  -3    6.84    0.70
  -5   6  -2    0.75    0.30
  -5   6  -1    3.71    0.64
  -5   6  -1    3.39    0.49
  -5   6   0    3.65    0.49
  -5   6   0    2.43    0.51
  -5   6   1    0.85    0.29
  -5   6   1    0.32    0.32
  -5   6   2    5.95    0.58
  -5   6   2    5.43    0.71
  -5   6   3    0.32    0.22
  -5   6   3    0.63    0.33
  -5   6   4    2.93    0.42
  -5   6   4    2.71    0.53
  -5   6   5    3.25    0.59
  -5   6   6    1.34    0.46
  -5   6   7    2.08    0.55
  -5   6   8   12.64    1.16
  -5   6   9    0.38    0.39
  -5   7   0   13.76    0.95
  -5   7   0   13.35    1.16
  -5   7   1   -0.05    0.24
  -5   7   1    0.70    0.39
  -5   7   2    2.91    0.44
  -5   7   2    3.46    0.63
  -5   7   3    6.54    0.81
  -5   7   4    0.26    0.32
  -5   7   5    0.43    0.33
  -5   7   6    0.35    0.34
  -5   7   7   14.72    1.23
  -4  -9  -5   12.89    0.98
  -4  -9  -4    1.43    0.41
  -4  -8  -9   -0.26    0.31
  -4  -8  -8    1.17    0.37
  -4  -8  -8    1.24    0.37
  -4  -8  -7   18.90    1.11
  -4  -8  -7   20.93    1.23
  -4  -8  -6    4.29    0.53
  -4  -8  -6    4.59    0.58
  -4  -8  -5    4.47    0.56
  -4  -8  -4    0.22    0.21
  -4  -8  -3    3.66    0.49
  -4  -8  -2   13.55    0.89
  -4  -8  -1    2.15    0.38
  -4  -8   0    2.95    0.45
  -4  -7 -11    0.14    0.29
  -4  -7 -11    0.07    0.33
  -4  -7 -10    0.59    0.34
  -4  -7 -10    1.04    0.36
  -4  -7  -9    4.91    0.61
  -4  -7  -9    5.47    0.64
  -4  -7  -8    1.69    0.39
  -4  -7  -7    6.37    0.62
  -4  -7  -7    5.59    0.61
  -4  -7  -6   -0.05    0.20
  -4  -7  -6    0.27    0.25
  -4  -7  -5    4.72    0.50
  -4  -7  -5    5.19    0.57
  -4  -7  -4   21.74    1.13
  -4  -7  -4   20.13    0.98
  -4  -7  -3    9.91    0.73
  -4  -7  -2    0.40    0.22
  -4  -7  -1    3.02    0.40
  -4  -7   0    6.29    0.54
  -4  -7   1   11.00    0.71
  -4  -6 -12    8.55    0.84
  -4  -6 -11    2.70    0.51
  -4  -6 -11    4.12    0.58
  -4  -6 -10    2.05    0.47
  -4  -6 -10    2.00    0.43
  -4  -6  -9    0.18    0.26
  -4  -6  -9    0.23    0.25
  -4  -6  -8    0.16    0.26
  -4  -6  -7    7.47    0.66
  -4  -6  -7    7.22    0.66
  -4  -6  -6    5.09    0.54
  -4  -6  -6    4.87    0.51
  -4  -6  -5    1.05    0.28
  -4  -6  -5    0.88    0.26
  -4  -6  -4    7.77    0.57
  -4  -6  -4    7.14    0.60
  -4  -6  -3   10.07    0.69
  -4  -6  -3   10.60    0.63
  -4  -6  -2   44.78    1.63
  -4  -6  -2   47.78    1.48
  -4  -6  -1    1.16    0.26
  -4  -6   0    3.91    0.39
  -4  -6   1    8.84    0.58
  -4  -6   2   18.90    0.86
  -4  -5 -12   18.54    1.26
  -4  -5 -12   20.62    1.28
  -4  -5 -11    1.48    0.39
  -4  -5 -10    7.95    0.72
  -4  -5 -10    8.05    0.76
  -4  -5  -9    4.78    0.55
  -4  -5  -9    5.26    0.60
  -4  -5  -8    5.42    0.57
  -4  -5  -8    6.81    0.65
  -4  -5  -7    5.71    0.57
  -4  -5  -6    2.05    0.35
  -4  -5  -6    2.29    0.36
  -4  -5  -5   21.41    1.02
  -4  -5  -5   19.90    1.01
  -4  -5  -5   22.55    0.84
  -4  -5  -4   13.64    0.76
  -4  -5  -4   13.31    0.78
  -4  -5  -3   58.75    1.77
  -4  -5  -3   56.26    1.84
  -4  -5  -2   90.76    2.51
  -4  -5  -2   92.36    2.39
  -4  -5  -1    9.59    0.61
  -4  -5  -1   10.18    0.55
  -4  -5   0   11.77    0.55
  -4  -5   0   12.26    0.66
  -4  -5   1    4.25    0.38
  -4  -5   2   22.86    0.89
  -4  -4 -13    0.93    0.39
  -4  -4 -12    5.92    0.67
  -4  -4 -12    5.84    0.74
  -4  -4 -11   16.39    1.14
  -4  -4 -11   18.73    1.14
  -4  -4 -10    2.30    0.42
  -4  -4  -9   15.27    1.01
  -4  -4  -9   15.06    0.97
  -4  -4  -8   28.08    1.35
  -4  -4  -8   27.28    1.29
  -4  -4  -7   25.44    0.87
  -4  -4  -7   26.45    1.24
  -4  -4  -6   13.10    0.59
  -4  -4  -6   12.17    0.79
  -4  -4  -5    2.12    0.32
  -4  -4  -5    2.54    0.34
  -4  -4  -5    2.35    0.26
  -4  -4  -4    6.12    0.50
  -4  -4  -4    5.75    0.41
  -4  -4  -4    4.84    0.45
  -4  -4  -3   58.73    1.33
  -4  -4  -3   59.46    1.77
  -4  -4  -3   55.08    1.29
  -4  -4  -3   59.67    1.81
  -4  -4  -2   33.94    1.23
  -4  -4  -2   32.10    1.15
  -4  -4  -1    0.43    0.17
  -4  -4  -1    0.32    0.14
  -4  -4   0   15.73    0.67
  -4  -4   0   16.63    0.74
  -4  -4   1    4.42    0.35
  -4  -4   2   12.07    0.57
  -4  -4   3    3.64    0.29
  -4  -3 -13    3.56    0.62
  -4  -3 -12    6.80    0.70
  -4  -3 -12    6.30    0.76
  -4  -3 -11    7.26    0.71
  -4  -3 -11    7.55    0.79
  -4  -3 -10    7.83    0.85
  -4  -3 -10    7.22    0.68
  -4  -3 -10    6.40    0.69
  -4  -3  -9   23.57    0.90
  -4  -3  -9   21.49    1.21
  -4  -3  -9   22.22    1.17
  -4  -3  -9   20.79    1.32
  -4  -3  -8    0.92    0.19
  -4  -3  -8    1.35    0.38
  -4  -3  -8    1.20    0.31
  -4  -3  -7   11.28    0.78
  -4  -3  -7   10.63    0.55
  -4  -3  -7    9.03    0.70
  -4  -3  -6    8.10    0.64
  -4  -3  -6    7.81    0.47
  -4  -3  -5    7.57    0.46
  -4  -3  -5    6.91    0.56
  -4  -3  -5    6.63    0.54
  -4  -3  -4    4.66    0.43
  -4  -3  -4    4.79    0.38
  -4  -3  -4    4.83    0.45
  -4  -3  -4    5.09    0.23
  -4  -3  -3    9.03    0.57
  -4  -3  -3    8.09    0.50
  -4  -3  -3    8.45    0.55
  -4  -3  -3    7.99    0.36
  -4  -3  -2   33.43    1.18
  -4  -3  -2   33.29    1.18
  -4  -3  -1    0.93    0.19
  -4  -3  -1    0.44    0.15
  -4  -3   0    5.17    0.37
  -4  -3   0    6.37    0.54
  -4  -3   1   15.14    0.64
  -4  -3   1   14.62    0.89
  -4  -3   2   18.31    1.09
  -4  -3   2   19.08    0.69
  -4  -3   3    6.97    0.36
  -4  -3   4    7.42    0.33
  -4  -2 -13    5.16    0.77
  -4  -2 -12    0.75    0.41
  -4  -2 -11    3.96    0.61
  -4  -2 -10    4.62    0.69
  -4  -2 -10    5.78    0.47
  -4  -2 -10    5.37    0.60
  -4  -2  -9   19.51    1.16
  -4  -2  -9   18.52    1.25
  -4  -2  -9   20.20    0.88
  -4  -2  -9   18.67    1.06
  -4  -2  -8   16.75    0.98
  -4  -2  -8   19.84    1.12
  -4  -2  -8   18.33    1.12
  -4  -2  -8   19.18    0.83
  -4  -2  -7    5.93    0.58
  -4  -2  -7    5.98    0.43
  -4  -2  -7    5.60    0.54
  -4  -2  -6   43.33    1.24
  -4  -2  -6   43.67    1.37
  -4  -2  -6   42.23    1.51
  -4  -2  -6   43.51    1.60
  -4  -2  -5    5.77    0.42
  -4  -2  -5    6.10    0.54
  -4  -2  -5    6.26    0.36
  -4  -2  -5    6.07    0.43
  -4  -2  -4   19.69    0.91
  -4  -2  -4   18.95    0.81
  -4  -2  -4   19.17    0.94
  -4  -2  -4   18.50    0.67
  -4  -2  -4   19.24    0.70
  -4  -2  -3    9.13    0.54
  -4  -2  -3    9.61    0.61
  -4  -2  -3    9.90    0.59
  -4  -2  -3    9.71    0.46
  -4  -2  -2   17.71    0.78
  -4  -2  -2   16.26    0.53
  -4  -2  -2   18.22    0.83
  -4  -2  -2   17.24    0.78
  -4  -2  -1   19.90    0.80
  -4  -2  -1   19.89    0.84
  -4  -2  -1   19.40    0.68
  -4  -2   0   24.64    0.87
  -4  -2   0   24.73    0.92
  -4  -2   1   23.90    0.82
  -4  -2   1   25.14    1.04
  -4  -2   2    9.47    0.70
  -4  -2   2    9.49    0.43
  -4  -2   3    5.55    0.29
  -4  -1 -12    0.77    0.43
  -4  -1 -11    3.88    0.45
  -4  -1 -11    3.35    0.56
  -4  -1 -10    3.28    0.40
  -4  -1 -10    3.04    0.54
  -4  -1  -9   35.22    1.32
  -4  -1  -9   33.41    1.61
  -4  -1  -8   23.76    1.01
  -4  -1  -8   23.34    1.26
  -4  -1  -7  124.25    3.11
  -4  -1  -7  122.02    3.48
  -4  -1  -7  125.37    3.12
  -4  -1  -6   91.03    2.76
  -4  -1  -6   87.47    2.61
  -4  -1  -6   97.90    2.46
  -4  -1  -6   93.21    2.46
  -4  -1  -5   12.04    0.65
  -4  -1  -5   13.37    0.64
  -4  -1  -4    4.40    0.42
  -4  -1  -4    6.07    0.53
  -4  -1  -4    5.43    0.42
  -4  -1  -4    5.68    0.40
  -4  -1  -3   36.24    1.28
  -4  -1  -3   39.89    1.41
  -4  -1  -3   37.13    1.19
  -4  -1  -3   39.38    1.31
  -4  -1  -2   40.38    1.33
  -4  -1  -2   38.52    1.24
  -4  -1  -2   38.80    1.28
  -4  -1  -1    1.10    0.18
  -4  -1  -1    1.30    0.21
  -4  -1  -1    1.05    0.20
  -4  -1   0   24.69    0.87
  -4   0 -12    8.23    0.70
  -4   0 -11    9.56    0.72
  -4   0 -10    7.47    0.62
  -4   0 -10    7.36    0.78
  -4   0  -9   13.75    0.81
  -4   0  -9   12.46    0.97
  -4   0  -8    2.98    0.48
  -4   0  -8    2.67    0.36
  -4   0  -7   34.99    1.32
  -4   0  -7   33.86    1.54
  -4   0  -7   34.85    1.38
  -4   0  -6   26.86    1.29
  -4   0  -6   28.39    1.16
  -4   0  -6   27.15    1.11
  -4   0  -5   18.42    0.86
  -4   0  -5   17.88    0.86
  -4   0  -4    8.62    0.55
  -4   0  -4    7.41    0.52
  -4   0  -3   10.49    0.61
  -4   0  -3   10.62    0.61
  -4   0  -2   50.75    1.58
  -4   0  -2   49.70    1.57
  -4   0  -1   41.00    1.39
  -4   0  -1   41.49    1.38
  -4   0   0    2.26    0.30
  -4   0   3   54.94    1.54
  -4   0   4   37.80    1.27
  -4   1 -11    3.15    0.48
  -4   1 -10    0.51    0.25
  -4   1  -9    1.81    0.35
  -4   1  -9    1.11    0.35
  -4   1  -8   19.03    1.00
  -4   1  -8   20.03    1.12
  -4   1  -8   18.43    1.02
  -4   1  -7   42.48    1.54
  -4   1  -7   42.80    1.66
  -4   1  -7   37.67    1.46
  -4   1  -6    1.73    0.29
  -4   1  -6    2.04    0.35
  -4   1  -5   10.66    0.67
  -4   1  -5   11.34    0.73
  -4   1  -4   25.48    1.07
  -4   1  -4   23.36    1.07
  -4   1  -3   63.42    1.96
  -4   1  -3   61.60    1.87
  -4   1  -2   10.05    0.60
  -4   1  -2    9.10    0.62
  -4   1  -1    1.89    0.28
  -4   1   0    8.46    0.55
  -4   1   0    9.23    0.63
  -4   1   1    0.98    0.24
  -4   1   1    0.58    0.17
  -4   1   2    0.23    0.13
  -4   1   2    0.06    0.07
  -4   1   3   36.72    1.08
  -4   1   4   10.42    0.55
  -4   1   5    5.46    0.44
  -4   2 -10    9.30    0.77
  -4   2  -9    0.11    0.22
  -4   2  -8   14.69    0.92
  -4   2  -8   15.86    1.05
  -4   2  -7   10.92    0.76
  -4   2  -7   10.00    0.69
  -4   2  -7   10.58    0.83
  -4   2  -6    1.20    0.27
  -4   2  -6    1.10    0.27
  -4   2  -6    1.27    0.32
  -4   2  -5   17.13    0.99
  -4   2  -5   17.28    0.92
  -4   2  -5   17.09    0.77
  -4   2  -4    5.71    0.50
  -4   2  -4    5.46    0.53
  -4   2  -4    6.01    0.39
  -4   2  -3   10.10    0.71
  -4   2  -3    9.47    0.41
  -4   2  -2    2.22    0.33
  -4   2  -1    0.71    0.19
  -4   2  -1    0.65    0.20
  -4   2   0   19.78    0.89
  -4   2   0   18.82    0.99
  -4   2   1   14.63    0.75
  -4   2   1   12.34    0.80
  -4   2   2   24.07    1.17
  -4   2   2   24.50    1.01
  -4   2   2   22.77    0.63
  -4   2   3    4.67    0.42
  -4   2   3    5.41    0.32
  -4   2   4    8.78    0.59
  -4   2   4    9.65    0.51
  -4   2   5    0.03    0.16
  -4   3  -9    0.96    0.32
  -4   3  -8    6.09    0.73
  -4   3  -8    7.86    0.70
  -4   3  -7    6.59    0.62
  -4   3  -7    7.18    0.73
  -4   3  -6    1.79    0.40
  -4   3  -6    1.80    0.33
  -4   3  -5    0.06    0.18
  -4   3  -4    6.22    0.44
  -4   3  -4    5.70    0.59
  -4   3  -3   19.99    1.11
  -4   3  -3   21.48    0.77
  -4   3  -3   21.17    1.02
  -4   3  -2   37.40    1.02
  -4   3  -2   38.14    1.58
  -4   3  -2   40.65    1.46
  -4   3  -1   19.47    0.94
  -4   3  -1   21.17    1.10
  -4   3  -1   19.80    0.54
  -4   3   0  104.05    2.76
  -4   3   0  104.00    3.01
  -4   3   1   86.25    2.23
  -4   3   1   79.43    1.57
  -4   3   2   68.48    1.57
  -4   3   2   65.70    1.97
  -4   3   3    1.48    0.19
  -4   3   3    1.49    0.26
  -4   3   3    1.83    0.35
  -4   3   4   14.63    0.65
  -4   3   4   14.31    0.76
  -4   3   4   15.13    0.98
  -4   3   5   15.11    0.72
  -4   3   5   15.19    0.80
  -4   3   5   15.39    0.75
  -4   3   5   13.41    0.96
  -4   3   6    3.07    0.37
  -4   3   7    2.85    0.37
  -4   4  -8    6.03    0.68
  -4   4  -7    1.95    0.41
  -4   4  -7    1.63    0.44
  -4   4  -6    8.58    0.84
  -4   4  -5   14.40    0.93
  -4   4  -5   13.77    1.03
  -4   4  -4   11.47    0.90
  -4   4  -4   12.28    0.81
  -4   4  -3   24.46    1.15
  -4   4  -3   21.51    1.23
  -4   4  -2   24.04    1.12
  -4   4  -2   25.26    1.30
  -4   4  -1    9.63    0.66
  -4   4   0   75.65    2.24
  -4   4   1   21.84    0.71
  -4   4   1   22.14    1.00
  -4   4   1   22.11    1.19
  -4   4   2    2.05    0.29
  -4   4   2    3.56    0.48
  -4   4   3    5.09    0.44
  -4   4   3    5.15    0.58
  -4   4   4    7.58    0.53
  -4   4   4    7.59    0.72
  -4   4   5   11.39    0.68
  -4   4   5   10.25    0.85
  -4   4   6    1.14    0.26
  -4   4   6    1.07    0.34
  -4   4   7    1.20    0.35
  -4   4   7    1.44    0.28
  -4   4   8    0.63    0.24
  -4   5  -6    0.12    0.25
  -4   5  -6    0.33    0.35
  -4   5  -5    5.94    0.63
  -4   5  -5    5.12    0.70
  -4   5  -4    4.75    0.54
  -4   5  -4    3.95    0.60
  -4   5  -3    4.62    0.52
  -4   5  -2    2.22    0.36
  -4   5  -1    6.61    0.58
  -4   5  -1    7.94    0.75
  -4   5   0    5.17    0.50
  -4   5   0    5.59    0.63
  -4   5   1    0.08    0.15
  -4   5   1   -0.06    0.20
  -4   5   2   46.11    1.94
  -4   5   2   50.67    1.66
  -4   5   3   21.36    1.23
  -4   5   3   21.28    0.98
  -4   5   4   25.32    1.37
  -4   5   4   25.71    1.07
  -4   5   5    3.81    0.39
  -4   5   5    4.17    0.57
  -4   5   6   13.44    1.03
  -4   5   6   15.12    0.77
  -4   5   7    6.85    0.76
  -4   5   8    2.61    0.54
  -4   5   9    2.52    0.54
  -4   5  10    5.97    0.79
  -4   6  -5    8.68    0.79
  -4   6  -4    2.42    0.45
  -4   6  -3    1.45    0.43
  -4   6  -3    2.33    0.44
  -4   6  -2    0.15    0.27
  -4   6  -2    0.10    0.19
  -4   6  -1    9.64    0.73
  -4   6  -1   10.50    0.93
  -4   6   0    8.02    0.64
  -4   6   0    7.17    0.76
  -4   6   1    3.05    0.54
  -4   6   1    3.93    0.45
  -4   6   2    0.20    0.20
  -4   6   2   -0.14    0.24
  -4   6   3    0.34    0.20
  -4   6   3    0.27    0.25
  -4   6   4    0.25    0.17
  -4   6   4    0.69    0.32
  -4   6   5    3.82    0.39
  -4   6   5    3.00    0.51
  -4   6   6    7.35    0.79
  -4   6   7    3.14    0.55
  -4   6   8    2.43    0.52
  -4   6   9   10.27    1.00
  -4   6  10    0.34    0.40
  -4   6  11    1.89    0.55
  -4   7  -3    6.14    0.67
  -4   7  -2    2.26    0.43
  -4   7  -2    1.48    0.50
  -4   7  -1    2.49    0.44
  -4   7  -1    2.17    0.52
  -4   7   0    1.24    0.32
  -4   7   0    0.73    0.39
  -4   7   1    0.51    0.26
  -4   7   1    0.62    0.34
  -4   7   2    5.47    0.53
  -4   7   2    5.77    0.72
  -4   7   3    1.50    0.42
  -4   7   4    9.83    0.93
  -4   7   5    0.90    0.39
  -4   7   6    1.21    0.42
  -4   7   7    0.46    0.39
  -4   7   8    9.78    0.97
  -4   7   9   24.76    1.55
  -4   8   2    0.17    0.33
  -4   8   3    7.14    0.84
  -4   8   4   13.13    1.11
  -4   8   5    5.29    0.72
  -4   8   6    4.01    0.66
  -3  -9  -7    2.47    0.45
  -3  -9  -6    4.38    0.59
  -3  -9  -5    8.20    0.76
  -3  -9  -4    0.76    0.29
  -3  -9  -3    0.63    0.30
  -3  -9  -2    1.62    0.41
  -3  -9  -1    2.51    0.46
  -3  -8 -10    3.94    0.59
  -3  -8 -10    4.87    0.64
  -3  -8  -9    4.83    0.59
  -3  -8  -9    4.04    0.59
  -3  -8  -8    3.98    0.53
  -3  -8  -7    6.82    0.69
  -3  -8  -7    5.10    0.57
  -3  -8  -6    6.10    0.64
  -3  -8  -6    5.66    0.56
  -3  -8  -5    2.58    0.43
  -3  -8  -5    2.94    0.42
  -3  -8  -4    3.39    0.46
  -3  -8  -3    3.09    0.45
  -3  -8  -2    3.69    0.47
  -3  -8  -1   14.50    0.89
  -3  -8   0    5.16    0.54
  -3  -8   1    0.81    0.26
  -3  -7 -12    4.24    0.60
  -3  -7 -11    3.97    0.59
  -3  -7 -11    4.07    0.58
  -3  -7 -10   11.31    0.88
  -3  -7 -10    8.80    0.80
  -3  -7  -9    9.03    0.76
  -3  -7  -9    8.35    0.75
  -3  -7  -8    0.44    0.25
  -3  -7  -8    0.46    0.23
  -3  -7  -7    3.03    0.43
  -3  -7  -6   13.30    0.81
  -3  -7  -6   13.94    0.89
  -3  -7  -5    1.56    0.30
  -3  -7  -5    1.57    0.33
  -3  -7  -4    3.93    0.46
  -3  -7  -4    3.93    0.40
  -3  -7  -3   11.34    0.75
  -3  -7  -3   11.27    0.65
  -3  -7  -2    1.42    0.31
  -3  -7  -1    2.47    0.35
  -3  -7   0    2.70    0.37
  -3  -7   1    2.73    0.37
  -3  -7   2    2.27    0.34
  -3  -6 -12    0.25    0.31
  -3  -6 -11    0.59    0.29
  -3  -6 -11    0.57    0.32
  -3  -6 -10    0.78    0.30
  -3  -6 -10    0.52    0.28
  -3  -6  -9    3.63    0.49
  -3  -6  -9    3.80    0.49
  -3  -6  -8   14.75    0.93
  -3  -6  -8   17.48    0.99
  -3  -6  -7    1.60    0.31
  -3  -6  -6    9.98    0.73
  -3  -6  -6   11.83    0.74
  -3  -6  -5   18.34    0.90
  -3  -6  -5   18.60    0.97
  -3  -6  -4   94.29    2.69
  -3  -6  -4   96.94    2.56
  -3  -6  -3    7.00    0.48
  -3  -6  -3    7.63    0.57
  -3  -6  -2   36.76    1.18
  -3  -6  -2   35.17    1.34
  -3  -6  -1   32.52    1.24
  -3  -6  -1   32.73    1.05
  -3  -6   0   14.49    0.75
  -3  -6   1    3.60    0.36
  -3  -6   2    0.03    0.14
  -3  -6   3    2.12    0.29
  -3  -5 -13    3.13    0.53
  -3  -5 -13    3.67    0.61
  -3  -5 -12    7.53    0.73
  -3  -5 -12    6.50    0.73
  -3  -5 -11    1.53    0.39
  -3  -5 -11    1.17    0.34
  -3  -5 -10   14.29    0.93
  -3  -5  -9    3.43    0.46
  -3  -5  -9    2.83    0.41
  -3  -5  -8    9.89    0.73
  -3  -5  -8   10.18    0.74
  -3  -5  -7    8.87    0.66
  -3  -5  -7    9.65    0.68
  -3  -5  -6    1.67    0.29
  -3  -5  -5    4.66    0.29
  -3  -5  -5    4.33    0.43
  -3  -5  -5    4.98    0.45
  -3  -5  -4   17.72    0.84
  -3  -5  -4   18.84    0.90
  -3  -5  -3   27.49    1.08
  -3  -5  -3   25.84    0.74
  -3  -5  -3   27.80    1.01
  -3  -5  -2  160.29    3.62
  -3  -5  -2  162.87    3.80
  -3  -5  -2  156.73    3.48
  -3  -5  -1  186.22    4.09
  -3  -5  -1  183.22    4.23
  -3  -5  -1  183.93    4.02
  -3  -5   0   26.83    1.03
  -3  -5   0   29.29    0.88
  -3  -5   0   28.28    1.04
  -3  -5   1    6.36    0.44
  -3  -5   1    6.15    0.30
  -3  -5   2   11.39    0.58
  -3  -5   3    4.19    0.34
  -3  -4 -13   13.01    1.03
  -3  -4 -13   11.66    0.92
  -3  -4 -13   11.91    1.30
  -3  -4 -12   23.04    1.24
  -3  -4 -12   21.98    1.31
  -3  -4 -12   21.36    1.66
  -3  -4 -11   11.54    0.88
  -3  -4 -11    9.34    0.78
  -3  -4 -10   12.56    0.88
  -3  -4 -10   10.03    0.76
  -3  -4  -9    4.32    0.49
  -3  -4  -8   17.00    0.93
  -3  -4  -8   16.11    0.94
  -3  -4  -7    2.93    0.21
  -3  -4  -7    2.74    0.36
  -3  -4  -7    3.37    0.41
  -3  -4  -6    0.07    0.14
  -3  -4  -6    0.37    0.15
  -3  -4  -6    0.29    0.09
  -3  -4  -5   31.03    1.19
  -3  -4  -5   32.30    0.94
  -3  -4  -4   17.66    0.81
  -3  -4  -4   19.12    0.69
  -3  -4  -4   18.38    0.84
  -3  -4  -3   23.70    0.94
  -3  -4  -3   22.55    0.88
  -3  -4  -2   22.90    0.83
  -3  -4  -2   22.43    0.89
  -3  -4  -2   22.56    0.68
  -3  -4  -1  160.89    3.64
  -3  -4  -1  157.77    3.49
  -3  -4  -1  158.52    3.47
  -3  -4   0    5.06    0.36
  -3  -4   0    5.39    0.37
  -3  -4   0    5.10    0.30
  -3  -4   1    1.82    0.21
  -3  -4   1    1.79    0.16
  -3  -4   1    1.96    0.27
  -3  -4   2    9.10    0.46
  -3  -4   3    5.96    0.35
  -3  -4   4   44.45    1.20
  -3  -3 -13   10.04    0.83
  -3  -3 -13    8.36    1.14
  -3  -3 -12    2.08    0.63
  -3  -3 -12    1.71    0.41
  -3  -3 -12    2.41    0.50
  -3  -3 -11   -0.10    0.37
  -3  -3 -11   -0.24    0.24
  -3  -3 -11    0.21    0.22
  -3  -3 -10   11.53    0.86
  -3  -3 -10   12.25    1.11
  -3  -3  -9   19.86    1.04
  -3  -3  -9   20.54    1.10
  -3  -3  -9   20.39    0.76
  -3  -3  -8   16.82    0.65
  -3  -3  -8   16.12    0.90
  -3  -3  -8   16.16    0.94
  -3  -3  -7   35.33    1.37
  -3  -3  -7   36.99    1.06
  -3  -3  -6   64.30    1.97
  -3  -3  -6   63.24    1.61
  -3  -3  -6   65.89    1.95
  -3  -3  -5    5.92    0.46
  -3  -3  -5    5.34    0.32
  -3  -3  -4   32.69    0.98
  -3  -3  -4   32.59    1.15
  -3  -3  -4   30.99    1.13
  -3  -3  -3  107.58    2.68
  -3  -3  -3  112.62    2.73
  -3  -3  -3  110.44    2.57
  -3  -3  -2   61.33    1.65
  -3  -3  -2   60.64    1.68
  -3  -3  -1   11.39    0.51
  -3  -3  -1   10.56    0.53
  -3  -3   0   63.01    1.55
  -3  -3   0   61.93    1.63
  -3  -3   1    4.53    0.30
  -3  -3   2    3.37    0.25
  -3  -3   2    3.66    0.50
  -3  -3   3    2.31    0.19
  -3  -3   4   23.58    0.69
  -3  -3   5   10.69    0.37
  -3  -2 -13    1.43    0.44
  -3  -2 -13    1.99    0.72
  -3  -2 -12   12.02    1.25
  -3  -2 -12   10.64    0.90
  -3  -2 -11    4.24    0.57
  -3  -2 -11    5.00    0.55
  -3  -2 -11    4.95    0.81
  -3  -2 -10    3.22    0.61
  -3  -2 -10    3.03    0.43
  -3  -2 -10    3.78    0.51
  -3  -2 -10    3.08    0.32
  -3  -2  -9   16.77    0.94
  -3  -2  -9   17.11    1.01
  -3  -2  -9   15.49    1.15
  -3  -2  -9   16.93    0.74
  -3  -2  -8   71.78    2.24
  -3  -2  -8   71.23    2.32
  -3  -2  -8   72.08    2.61
  -3  -2  -8   76.28    1.95
  -3  -2  -7   13.10    0.81
  -3  -2  -7   12.91    0.75
  -3  -2  -7   13.11    0.59
  -3  -2  -7   12.14    0.86
  -3  -2  -6  142.68    3.50
  -3  -2  -6  140.64    3.20
  -3  -2  -5    4.67    0.42
  -3  -2  -5    5.32    0.35
  -3  -2  -4    6.07    0.45
  -3  -2  -4    5.92    0.36
  -3  -2  -4    6.01    0.27
  -3  -2  -3   78.12    1.96
  -3  -2  -3   82.12    2.10
  -3  -2  -3   82.22    2.08
  -3  -2  -3   77.22    1.75
  -3  -2  -2   14.92    0.66
  -3  -2  -2   13.43    0.60
  -3  -2  -2   15.06    0.64
  -3  -2  -2   14.76    0.52
  -3  -2  -1  210.28    4.46
  -3  -2  -1  203.43    4.42
  -3  -2   0   30.73    0.93
  -3  -2   0   30.13    0.94
  -3  -2   0   31.53    1.10
  -3  -2   1   32.23    0.93
  -3  -2   1   34.39    1.26
  -3  -2   2   86.65    1.97
  -3  -2   2   92.00    2.60
  -3  -2   3   70.85    1.58
  -3  -2   3   73.46    2.38
  -3  -2   4   31.54    0.73
  -3  -1 -13    4.97    0.70
  -3  -1 -12    0.54    0.33
  -3  -1 -11    1.56    0.41
  -3  -1 -11    1.46    0.54
  -3  -1 -11    1.51    0.28
  -3  -1 -10    9.94    1.02
  -3  -1 -10    8.37    0.75
  -3  -1 -10    9.11    0.60
  -3  -1  -9    4.71    0.55
  -3  -1  -9    4.28    0.40
  -3  -1  -9    3.73    0.62
  -3  -1  -8    0.13    0.27
  -3  -1  -8    0.16    0.18
  -3  -1  -8   -0.03    0.13
  -3  -1  -8   -0.09    0.19
  -3  -1  -7   13.01    0.64
  -3  -1  -7   13.96    0.95
  -3  -1  -7   12.07    0.79
  -3  -1  -7   12.30    0.73
  -3  -1  -6  104.05    2.95
  -3  -1  -6  105.07    2.56
  -3  -1  -6  106.07    2.77
  -3  -1  -6   99.19    2.82
  -3  -1  -5   44.40    1.52
  -3  -1  -5   47.57    1.36
  -3  -1  -5   45.19    1.46
  -3  -1  -5   45.19    1.52
  -3  -1  -5   44.37    1.31
  -3  -1  -4   22.27    0.78
  -3  -1  -4   23.82    0.85
  -3  -1  -4   24.47    0.89
  -3  -1  -3   18.71    0.63
  -3  -1  -3   18.70    0.73
  -3  -1  -3   19.50    0.83
  -3  -1  -3   19.05    0.67
  -3  -1  -2   62.17    1.57
  -3  -1  -2   59.96    1.65
  -3  -1  -2   65.88    1.76
  -3  -1  -2   61.21    1.65
  -3  -1  -1   35.20    1.09
  -3  -1  -1   32.29    1.08
  -3  -1  -1   33.26    1.03
  -3  -1  -1   33.90    1.03
  -3  -1   0   41.44    1.14
  -3  -1   1   44.25    1.14
  -3  -1   2   21.89    0.63
  -3  -1   3   63.63    1.78
  -3  -1   4   12.37    0.68
  -3   0 -12    0.14    0.34
  -3   0 -11   11.96    0.96
  -3   0 -11   10.77    0.90
  -3   0 -11   11.02    0.75
  -3   0 -10    1.45    0.39
  -3   0 -10    1.47    0.30
  -3   0 -10    2.01    0.43
  -3   0  -9   17.77    1.05
  -3   0  -9   18.61    1.09
  -3   0  -9   17.13    0.87
  -3   0  -8   11.28    0.66
  -3   0  -8   10.86    0.80
  -3   0  -8   11.33    0.77
  -3   0  -7   43.24    1.44
  -3   0  -7   44.15    1.67
  -3   0  -7   45.58    1.59
  -3   0  -6    2.21    0.30
  -3   0  -6    2.75    0.30
  -3   0  -6    2.81    0.37
  -3   0  -6    2.89    0.33
  -3   0  -5   42.69    1.53
  -3   0  -5   43.87    1.41
  -3   0  -5   42.99    1.36
  -3   0  -4   45.65    1.40
  -3   0  -4   44.06    1.37
  -3   0  -4   45.47    1.53
  -3   0  -3   24.67    0.90
  -3   0  -3   23.65    0.88
  -3   0  -2   74.99    1.95
  -3   0  -2   75.60    1.95
  -3   0  -1   65.46    1.76
  -3   0  -1   67.06    1.79
  -3   0   0   42.33    1.32
  -3   0   2  125.03    2.79
  -3   0   3   15.76    0.65
  -3   0   4   31.94    1.10
  -3   0   5   38.32    1.33
  -3   1 -12    4.12    0.67
  -3   1 -11    1.03    0.30
  -3   1 -11    1.31    0.44
  -3   1 -10    6.83    0.71
  -3   1 -10    7.92    0.65
  -3   1  -9   11.05    0.83
  -3   1  -9   12.70    0.78
  -3   1  -8   18.16    0.92
  -3   1  -8   17.05    0.98
  -3   1  -7   10.51    0.66
  -3   1  -7   10.58    0.70
  -3   1  -7    9.18    0.69
  -3   1  -6   39.67    1.37
  -3   1  -6   37.40    1.35
  -3   1  -6   38.79    1.48
  -3   1  -5   51.71    1.61
  -3   1  -5   51.21    1.53
  -3   1  -5   49.04    1.68
  -3   1  -4    7.89    0.51
  -3   1  -4    7.22    0.52
  -3   1  -4    8.39    0.46
  -3   1  -3  195.19    4.13
  -3   1  -3  196.63    4.42
  -3   1  -3  196.45    4.49
  -3   1  -2   97.52    2.50
  -3   1  -2  105.19    2.61
  -3   1  -1   43.23    1.39
  -3   1   0  130.70    3.15
  -3   1   0  142.80    3.31
  -3   1   1   98.30    2.05
  -3   1   1  104.91    2.47
  -3   1   1  100.00    2.61
  -3   1   2  121.22    2.67
  -3   1   2  131.17    2.98
  -3   1   3  109.82    2.53
  -3   1   4   26.36    1.00
  -3   1   4   26.45    0.94
  -3   1   5   24.71    0.97
  -3   1   5   23.51    1.00
  -3   2 -11    1.51    0.48
  -3   2 -10    2.72    0.51
  -3   2 -10    2.97    0.46
  -3   2  -9    3.20    0.51
  -3   2  -9    2.38    0.39
  -3   2  -8   -0.05    0.22
  -3   2  -8   -0.05    0.17
  -3   2  -7    1.21    0.31
  -3   2  -7    1.74    0.31
  -3   2  -7    1.54    0.33
  -3   2  -6   12.04    0.74
  -3   2  -6   12.99    0.76
  -3   2  -6   12.50    0.84
  -3   2  -5    4.20    0.41
  -3   2  -5    4.81    0.49
  -3   2  -5    4.68    0.42
  -3   2  -4   25.96    1.07
  -3   2  -4   27.65    0.99
  -3   2  -4   28.14    1.20
  -3   2  -3   99.39    2.76
  -3   2  -3  102.94    2.40
  -3   2  -2   74.96    2.20
  -3   2  -2   76.68    1.77
  -3   2  -1    8.50    0.51
  -3   2  -1    8.23    0.29
  -3   2   0  190.92    4.25
  -3   2   0  187.89    4.44
  -3   2   1   19.16    0.78
  -3   2   1   18.91    0.51
  -3   2   2   42.39    1.33
  -3   2   2   44.18    1.11
  -3   2   3   49.34    1.48
  -3   2   3   52.03    1.35
  -3   2   3   49.36    1.37
  -3   2   4   10.72    0.54
  -3   2   4   10.76    0.56
  -3   2   4   10.26    0.56
  -3   2   5   61.15    1.79
  -3   2   5   60.47    1.74
  -3   3 -10    2.81    0.48
  -3   3  -9    0.76    0.37
  -3   3  -9    1.64    0.36
  -3   3  -8   10.72    0.84
  -3   3  -8   11.35    0.82
  -3   3  -7    1.14    0.34
  -3   3  -7    1.01    0.28
  -3   3  -7    0.89    0.33
  -3   3  -6   18.02    0.96
  -3   3  -6   16.53    0.92
  -3   3  -6   17.34    1.07
  -3   3  -5   29.43    1.39
  -3   3  -5   30.33    1.20
  -3   3  -4    9.10    0.55
  -3   3  -4    7.55    0.65
  -3   3  -3   20.50    0.93
  -3   3  -3   20.20    0.81
  -3   3  -3   20.38    1.05
  -3   3  -2    1.73    0.20
  -3   3  -2    1.91    0.27
  -3   3  -2    2.19    0.33
  -3   3  -1   20.83    0.69
  -3   3  -1   21.29    0.90
  -3   3   0   25.98    0.78
  -3   3   0   28.10    1.03
  -3   3   1   56.66    1.97
  -3   3   1   70.22    1.84
  -3   3   2   18.97    0.65
  -3   3   2   20.53    0.82
  -3   3   2   20.74    1.01
  -3   3   3   24.05    0.91
  -3   3   3   22.08    0.74
  -3   3   3   23.69    1.11
  -3   3   3   24.03    0.81
  -3   3   4   52.34    1.54
  -3   3   4   54.66    1.49
  -3   3   4   51.57    1.86
  -3   3   4   52.14    1.50
  -3   3   5   35.37    1.23
  -3   3   5   38.04    1.24
  -3   3   5   36.02    1.20
  -3   3   6   65.48    1.84
  -3   4  -9    3.77    0.56
  -3   4  -8   12.53    0.91
  -3   4  -6    1.89    0.37
  -3   4  -6    1.16    0.37
  -3   4  -5   15.95    0.92
  -3   4  -5   15.08    0.87
  -3   4  -5   15.95    1.07
  -3   4  -4    8.96    0.62
  -3   4  -4    8.49    0.74
  -3   4  -4   10.79    0.71
  -3   4  -3    2.81    0.33
  -3   4  -3    3.54    0.40
  -3   4  -2   67.41    1.89
  -3   4  -2   70.62    2.09
  -3   4  -1   43.20    1.44
  -3   4  -1   40.96    1.26
  -3   4   0   80.24    2.04
  -3   4   0   81.73    2.23
  -3   4   0   80.35    2.49
  -3   4   1    4.14    0.37
  -3   4   1    4.34    0.48
  -3   4   2    8.48    0.52
  -3   4   2    8.40    0.67
  -3   4   3   13.12    0.49
  -3   4   3   14.39    0.64
  -3   4   3   13.28    0.65
  -3   4   3   13.95    0.86
  -3   4   4    9.02    0.52
  -3   4   4    8.72    0.45
  -3   4   4    8.92    0.53
  -3   4   4    8.84    0.70
  -3   4   5    2.29    0.29
  -3   4   5    2.02    0.31
  -3   4   5    2.44    0.27
  -3   4   5    2.25    0.39
  -3   4   6    3.04    0.36
  -3   4   6    2.89    0.30
  -3   4   6    2.24    0.39
  -3   4   7    1.00    0.22
  -3   4   8    5.03    0.41
  -3   5  -7   10.41    0.85
  -3   5  -6    4.88    0.58
  -3   5  -6    5.26    0.69
  -3   5  -5    7.14    0.64
  -3   5  -4   20.08    1.06
  -3   5  -3    1.11    0.29
  -3   5  -3    1.08    0.27
  -3   5  -3    0.64    0.28
  -3   5  -2   29.40    1.24
  -3   5  -2   30.71    1.21
  -3   5  -2   27.89    1.42
  -3   5  -1   75.88    2.22
  -3   5  -1   72.64    2.11
  -3   5  -1   73.69    2.51
  -3   5   0   48.17    1.57
  -3   5   0   46.23    1.83
  -3   5   0   43.35    1.46
  -3   5   1    1.48    0.26
  -3   5   1    1.14    0.31
  -3   5   2  101.29    2.63
  -3   5   2  103.98    3.06
  -3   5   3    6.74    0.47
  -3   5   3    7.09    0.65
  -3   5   4   68.41    1.88
  -3   5   4   65.97    2.29
  -3   5   5    6.94    0.45
  -3   5   5    6.91    0.65
  -3   5   6    8.69    0.51
  -3   5   6    9.86    0.80
  -3   5   7    9.46    0.52
  -3   5   7   11.31    0.87
  -3   5   8    8.84    0.80
  -3   5   9    4.60    0.63
  -3   6  -6    0.96    0.35
  -3   6  -5    5.40    0.61
  -3   6  -5    6.04    0.76
  -3   6  -4   12.30    1.04
  -3   6  -4   13.68    0.91
  -3   6  -3   10.20    0.92
  -3   6  -3   10.79    0.78
  -3   6  -2    6.27    0.70
  -3   6  -2    6.30    0.58
  -3   6  -1    1.88    0.35
  -3   6  -1    2.21    0.43
  -3   6   0    2.63    0.46
  -3   6   0    3.23    0.38
  -3   6   1    9.24    0.61
  -3   6   1    7.80    0.59
  -3   6   1    8.92    0.78
  -3   6   2    9.03    0.59
  -3   6   2   11.10    0.86
  -3   6   3   25.48    1.01
  -3   6   3   24.29    1.29
  -3   6   4   26.14    1.01
  -3   6   4   27.89    1.39
  -3   6   5    9.90    0.81
  -3   6   5   10.12    0.56
  -3   6   6   16.56    1.07
  -3   6   7    5.12    0.63
  -3   6   8    7.32    0.75
  -3   6   9    1.13    0.38
  -3   6  10    9.97    0.93
  -3   6  11    7.15    0.85
  -3   7  -4    5.63    0.65
  -3   7  -3    5.39    0.60
  -3   7  -3    5.00    0.74
  -3   7  -2    2.01    0.49
  -3   7  -2    2.05    0.38
  -3   7  -1    0.28    0.22
  -3   7  -1    0.54    0.32
  -3   7   0   -0.04    0.18
  -3   7   0    0.22    0.30
  -3   7   1   14.48    1.07
  -3   7   1   15.91    0.87
  -3   7   2   20.17    1.26
  -3   7   2   22.10    0.99
  -3   7   3    2.49    0.32
  -3   7   3    2.00    0.44
  -3   7   4    0.91    0.33
  -3   7   5    2.65    0.49
  -3   7   6    3.25    0.53
  -3   7   7    1.85    0.44
  -3   7   8    0.21    0.32
  -3   7   9    1.42    0.45
  -3   8  -1    6.50    0.64
  -3   8  -1    5.69    0.78
  -3   8   0    2.64    0.42
  -3   8   0    3.78    0.65
  -3   8   1    1.18    0.41
  -3   8   2    6.37    0.76
  -3   8   3    0.44    0.31
  -3   8   4    4.83    0.66
  -3   8   5    5.81    0.70
  -3   8   6    7.90    0.81
  -3   8   7    1.05    0.41
  -2  -9  -8    3.97    0.55
  -2  -9  -7    2.51    0.43
  -2  -9  -6    5.98    0.65
  -2  -9  -6    5.98    0.61
  -2  -9  -5    0.23    0.24
  -2  -9  -4    0.68    0.28
  -2  -9  -3    0.89    0.31
  -2  -9  -2    0.11    0.22
  -2  -9  -1    1.89    0.42
  -2  -9   0    8.90    0.74
  -2  -8 -11    1.52    0.42
  -2  -8 -10    1.78    0.43
  -2  -8 -10    1.90    0.43
  -2  -8  -9   12.04    0.88
  -2  -8  -9   11.51    0.90
  -2  -8  -8    8.78    0.77
  -2  -8  -8    9.55    0.76
  -2  -8  -7    2.26    0.39
  -2  -8  -6    1.38    0.33
  -2  -8  -6    1.54    0.32
  -2  -8  -5    3.99    0.50
  -2  -8  -5    3.82    0.44
  -2  -8  -4    5.20    0.55
  -2  -8  -4    3.60    0.40
  -2  -8  -3    1.40    0.30
  -2  -8  -3    1.03    0.25
  -2  -8  -2    2.56    0.40
  -2  -8  -1   10.54    0.74
  -2  -8   0    7.09    0.61
  -2  -8   1    1.21    0.30
  -2  -8   2    2.48    0.40
  -2  -7 -12   20.41    1.23
  -2  -7 -11    6.00    0.67
  -2  -7 -11    7.34    0.71
  -2  -7 -10    4.40    0.56
  -2  -7 -10    6.25    0.64
  -2  -7  -9    0.87    0.29
  -2  -7  -9    0.48    0.26
  -2  -7  -8    0.78    0.28
  -2  -7  -8    0.88    0.28
  -2  -7  -7   -0.05    0.17
  -2  -7  -7    0.04    0.17
  -2  -7  -6    7.95    0.61
  -2  -7  -5   10.65    0.67
  -2  -7  -5    8.92    0.68
  -2  -7  -4    0.60    0.22
  -2  -7  -4    0.41    0.18
  -2  -7  -3    5.99    0.53
  -2  -7  -3    5.57    0.44
  -2  -7  -2   10.08    0.68
  -2  -7  -2    8.55    0.52
  -2  -7  -1   16.26    0.87
  -2  -7   0   12.01    0.73
  -2  -7   1   15.05    0.83
  -2  -7   2   11.49    0.72
  -2  -7   3   11.62    0.71
  -2  -6 -13   10.48    0.86
  -2  -6 -13   10.36    0.93
  -2  -6 -12   14.52    0.98
  -2  -6 -12   13.16    0.97
  -2  -6 -11    4.35    0.54
  -2  -6 -10    1.67    0.36
  -2  -6 -10    1.55    0.36
  -2  -6  -9   18.36    1.03
  -2  -6  -9   18.83    1.05
  -2  -6  -8   11.39    0.78
  -2  -6  -8   11.65    0.79
  -2  -6  -7    3.06    0.40
  -2  -6  -7    3.60    0.41
  -2  -6  -6   44.41    1.55
  -2  -6  -5    5.49    0.46
  -2  -6  -4   23.42    1.04
  -2  -6  -4   23.74    0.97
  -2  -6  -3    2.08    0.30
  -2  -6  -3    1.79    0.25
  -2  -6  -2    6.24    0.49
  -2  -6  -2    6.48    0.42
  -2  -6  -1   12.00    0.69
  -2  -6  -1   12.50    0.57
  -2  -6   0   14.91    0.76
  -2  -6   0   14.84    0.58
  -2  -6   1   15.71    0.77
  -2  -6   2   16.94    0.80
  -2  -5 -13    2.96    0.49
  -2  -5 -13    2.85    0.53
  -2  -5 -12    0.37    0.27
  -2  -5 -12    0.54    0.28
  -2  -5 -11    6.89    0.66
  -2  -5 -11    5.86    0.59
  -2  -5 -10    9.06    0.69
  -2  -5  -9    0.27    0.19
  -2  -5  -8    7.87    0.61
  -2  -5  -8    8.46    0.64
  -2  -5  -7    4.66    0.45
  -2  -5  -7    4.18    0.43
  -2  -5  -6    5.67    0.47
  -2  -5  -6    5.54    0.49
  -2  -5  -5   23.96    0.98
  -2  -5  -5   23.45    0.60
  -2  -5  -5   23.16    0.57
  -2  -5  -4   28.21    1.08
  -2  -5  -4   26.78    0.73
  -2  -5  -4   28.53    1.03
  -2  -5  -3   38.97    1.35
  -2  -5  -3   42.09    1.28
  -2  -5  -3   42.76    1.14
  -2  -5  -3   41.78    1.09
  -2  -5  -2   47.23    1.46
  -2  -5  -2   46.24    1.30
  -2  -5  -2   44.18    1.30
  -2  -5  -2   45.48    1.22
  -2  -5  -1    1.78    0.24
  -2  -5  -1    1.67    0.19
  -2  -5  -1    2.11    0.26
  -2  -5  -1    2.29    0.23
  -2  -5   0    1.68    0.23
  -2  -5   0    2.07    0.19
  -2  -5   0    2.04    0.27
  -2  -5   1   14.88    0.50
  -2  -5   1   16.68    0.73
  -2  -5   2    0.35    0.13
  -2  -5   2    0.41    0.07
  -2  -4 -14    0.49    0.34
  -2  -4 -14    0.57    0.59
  -2  -4 -13    1.31    0.59
  -2  -4 -13    1.78    0.42
  -2  -4 -13    2.06    0.46
  -2  -4 -12    6.33    0.62
  -2  -4 -12    5.86    0.64
  -2  -4 -11    1.30    0.33
  -2  -4 -11    2.64    0.39
  -2  -4 -10    1.42    0.32
  -2  -4 -10    2.27    0.38
  -2  -4  -9    1.56    0.29
  -2  -4  -9    1.86    0.31
  -2  -4  -8    3.22    0.38
  -2  -4  -7   11.21    0.67
  -2  -4  -7   11.23    0.68
  -2  -4  -6   73.31    1.51
  -2  -4  -6   73.05    2.10
  -2  -4  -6   75.31    2.10
  -2  -4  -5   21.22    0.55
  -2  -4  -5   21.77    0.88
  -2  -4  -4    4.76    0.36
  -2  -4  -4    4.15    0.23
  -2  -4  -3   19.61    0.55
  -2  -4  -3   19.67    0.75
  -2  -4  -3   19.33    0.79
  -2  -4  -2   40.44    1.25
  -2  -4  -2   39.23    1.16
  -2  -4  -2   42.48    1.09
  -2  -4  -1   81.24    1.89
  -2  -4  -1   80.80    2.04
  -2  -4  -1   78.97    1.94
  -2  -4   0   10.86    0.42
  -2  -4   0   11.39    0.55
  -2  -4   0   10.76    0.52
  -2  -4   1   11.11    0.51
  -2  -4   1   10.70    0.37
  -2  -4   1   10.80    0.58
  -2  -4   2    4.50    0.31
  -2  -4   2    3.52    0.14
  -2  -3 -14    0.28    0.52
  -2  -3 -14   -0.14    0.36
  -2  -3 -13    3.23    0.85
  -2  -3 -13    5.12    0.63
  -2  -3 -12    2.96    0.45
  -2  -3 -12    3.05    0.50
  -2  -3 -12    3.16    0.71
  -2  -3 -11    1.33    0.33
  -2  -3 -11    1.27    0.46
  -2  -3 -11    1.43    0.36
  -2  -3 -10   60.66    1.98
  -2  -3 -10   56.76    2.03
  -2  -3  -9   13.60    0.80
  -2  -3  -9   13.58    0.83
  -2  -3  -8    2.65    0.20
  -2  -3  -8    2.99    0.38
  -2  -3  -8    2.47    0.33
  -2  -3  -7    3.74    0.37
  -2  -3  -7    4.25    0.24
  -2  -3  -7    3.47    0.38
  -2  -3  -6    9.72    0.36
  -2  -3  -6    9.51    0.57
  -2  -3  -5   75.01    1.67
  -2  -3  -5   73.98    2.03
  -2  -3  -4  233.52    5.03
  -2  -3  -4  232.22    4.72
  -2  -3  -3   93.34    2.32
  -2  -3  -3   97.70    2.30
  -2  -3  -2   72.97    1.81
  -2  -3  -2   77.93    1.89
  -2  -3  -2   74.97    1.61
  -2  -3  -1   76.92    1.76
  -2  -3  -1   78.14    1.79
  -2  -3  -1   75.53    1.87
  -2  -3   0   44.68    1.09
  -2  -3   0   44.61    1.22
  -2  -3   0   45.20    1.20
  -2  -3   1  142.45    3.08
  -2  -3   1  141.70    2.89
  -2  -3   1  142.43    3.23
  -2  -3   2   89.82    2.03
  -2  -3   2   87.29    2.27
  -2  -3   3    6.63    0.32
  -2  -2 -14    4.59    0.65
  -2  -2 -14    5.08    0.99
  -2  -2 -13    5.64    0.99
  -2  -2 -13    5.71    0.69
  -2  -2 -12    3.20    0.76
  -2  -2 -12    2.69    0.49
  -2  -2 -11   14.03    0.85
  -2  -2 -11   13.92    0.94
  -2  -2 -11   16.07    1.36
  -2  -2 -10   86.05    2.50
  -2  -2 -10   83.84    2.62
  -2  -2 -10   85.83    3.28
  -2  -2  -9   53.56    1.47
  -2  -2  -9   50.43    1.73
  -2  -2  -9   49.89    2.31
  -2  -2  -9   48.44    1.77
  -2  -2  -8   23.96    0.82
  -2  -2  -8   24.66    1.09
  -2  -2  -8   23.54    1.03
  -2  -2  -8   23.95    1.41
  -2  -2  -7   23.38    0.96
  -2  -2  -7   21.70    0.96
  -2  -2  -6   33.19    1.19
  -2  -2  -6   32.66    1.16
  -2  -2  -6   32.71    0.93
  -2  -2  -5   75.45    1.98
  -2  -2  -5   73.88    1.72
  -2  -2  -4  132.16    3.03
  -2  -2  -4  125.64    3.01
  -2  -2  -4  131.48    2.79
  -2  -2  -3   36.61    1.08
  -2  -2  -3   34.86    0.94
  -2  -2  -2   73.48    1.83
  -2  -2  -2   74.99    1.57
  -2  -2  -1    0.07    0.06
  -2  -2  -1    1.30    0.14
  -2  -2   0   24.29    0.67
  -2  -2   0   22.86    0.70
  -2  -2   1  361.88    7.04
  -2  -2   1  347.40    6.94
  -2  -2   2  343.62    6.82
  -2  -2   2  345.10    7.61
  -2  -2   3   25.27    1.24
  -2  -2   3   25.35    1.01
  -2  -2   3   25.13    0.65
  -2  -2   4    4.69    0.20
  -2  -2   6    1.55    0.12
  -2  -1 -13    9.58    0.86
  -2  -1 -13    8.00    1.22
  -2  -1 -12    3.60    0.81
  -2  -1 -12    4.00    0.57
  -2  -1 -11   19.27    1.56
  -2  -1 -11   20.34    1.13
  -2  -1 -10   19.41    1.46
  -2  -1 -10   20.99    1.11
  -2  -1 -10   17.61    1.10
  -2  -1  -9   26.79    1.62
  -2  -1  -9   24.42    1.09
  -2  -1  -9   27.69    1.24
  -2  -1  -9   27.69    1.02
  -2  -1  -9   27.18    1.32
  -2  -1  -8    1.21    0.30
  -2  -1  -8    1.37    0.40
  -2  -1  -8    1.52    0.27
  -2  -1  -8    1.19    0.27
  -2  -1  -8    1.50    0.22
  -2  -1  -7    6.02    0.39
  -2  -1  -7    5.53    0.63
  -2  -1  -7    5.76    0.45
  -2  -1  -7    5.54    0.47
  -2  -1  -6   45.63    1.47
  -2  -1  -6   42.23    1.39
  -2  -1  -6   43.57    1.71
  -2  -1  -6   45.46    1.27
  -2  -1  -5   43.87    1.22
  -2  -1  -5   46.71    1.41
  -2  -1  -5   43.96    1.35
  -2  -1  -5   42.50    1.58
  -2  -1  -4  130.94    2.85
  -2  -1  -4  128.47    2.81
  -2  -1  -4  132.16    3.00
  -2  -1  -4  124.63    3.00
  -2  -1  -3   27.42    0.81
  -2  -1  -3   27.66    0.76
  -2  -1  -2   37.31    0.99
  -2  -1  -2   36.78    1.05
  -2  -1  -2   34.93    0.90
  -2  -1  -1  302.97    6.04
  -2  -1  -1  289.67    6.00
  -2  -1   0  127.50    2.68
  -2  -1   0  126.72    2.64
  -2  -1   1   78.57    1.69
  -2  -1   1   76.44    1.98
  -2  -1   2   97.51    2.30
  -2  -1   2   94.74    1.97
  -2  -1   2  100.11    2.54
  -2  -1   3    4.46    0.36
  -2  -1   3    4.27    0.46
  -2  -1   4    0.09    0.14
  -2   0 -13    7.32    0.88
  -2   0 -12   10.17    0.85
  -2   0 -12   11.15    1.00
  -2   0 -11   10.40    0.82
  -2   0 -11    9.25    0.86
  -2   0 -10   47.39    1.81
  -2   0 -10   44.85    1.88
  -2   0  -9   20.40    1.05
  -2   0  -9   19.40    1.42
  -2   0  -9   19.58    0.91
  -2   0  -9   19.08    1.10
  -2   0  -8   39.95    1.99
  -2   0  -8   42.28    1.58
  -2   0  -8   43.66    1.66
  -2   0  -8   44.25    1.42
  -2   0  -7    6.33    0.51
  -2   0  -7    6.27    0.53
  -2   0  -7    5.03    0.63
  -2   0  -7    5.97    0.42
  -2   0  -6   27.01    1.09
  -2   0  -6   27.78    1.37
  -2   0  -6   26.38    1.07
  -2   0  -6   27.19    0.97
  -2   0  -5   36.04    1.12
  -2   0  -5   36.93    1.25
  -2   0  -5   35.67    1.44
  -2   0  -5   35.43    1.18
  -2   0  -5   35.83    1.22
  -2   0  -4   37.18    1.12
  -2   0  -4   37.01    1.16
  -2   0  -4   40.83    1.26
  -2   0  -4   39.32    1.38
  -2   0  -4   36.97    1.15
  -2   0  -3    0.68    0.15
  -2   0  -3    0.57    0.11
  -2   0  -3    0.60    0.13
  -2   0  -3    0.73    0.13
  -2   0  -2   78.01    1.84
  -2   0  -2   76.16    1.84
  -2   0  -1   19.70    0.66
  -2   0  -1   19.51    0.66
  -2   0   1  189.77    3.88
  -2   0   2  139.15    3.02
  -2   0   3   41.67    1.20
  -2   0   3   39.70    1.22
  -2   0   4    0.40    0.18
  -2   0   4    0.72    0.21
  -2   0   5  128.44    3.20
  -2   0   5  134.38    3.26
  -2   1 -12   13.95    1.13
  -2   1 -11    5.29    0.68
  -2   1 -10    5.40    0.65
  -2   1 -10    5.83    0.60
  -2   1  -9   45.38    1.73
  -2   1  -9   44.17    1.83
  -2   1  -9   50.06    1.68
  -2   1  -8   67.44    2.17
  -2   1  -8   70.22    2.06
  -2   1  -8   67.48    2.26
  -2   1  -7   15.16    0.85
  -2   1  -7   13.78    0.84
  -2   1  -7   16.23    0.79
  -2   1  -6   78.63    2.23
  -2   1  -6   75.54    2.10
  -2   1  -6   76.17    2.23
  -2   1  -5    1.52    0.25
  -2   1  -5    1.15    0.22
  -2   1  -5    1.45    0.21
  -2   1  -5    1.37    0.24
  -2   1  -4   12.33    0.59
  -2   1  -4   12.16    0.59
  -2   1  -4   11.52    0.64
  -2   1  -3  341.06    6.91
  -2   1  -3  326.13    6.82
  -2   1  -3  331.71    7.01
  -2   1  -2  237.20    5.09
  -2   1  -2  235.50    4.82
  -2   1  -1   12.44    0.56
  -2   1  -1   11.51    0.34
  -2   1   0    2.79    0.23
  -2   1   0    2.88    0.26
  -2   1   1    4.01    0.27
  -2   1   1    3.94    0.17
  -2   1   2   26.80    0.75
  -2   1   2   25.15    0.78
  -2   1   3  443.86    8.89
  -2   1   3  438.32    8.93
  -2   1   4  278.48    6.03
  -2   1   4  293.91    6.09
  -2   1   5   69.03    1.93
  -2   1   5   70.80    1.97
  -2   2 -12    3.66    0.66
  -2   2 -11    3.28    0.61
  -2   2 -10    1.24    0.40
  -2   2  -9    8.10    0.76
  -2   2  -9    7.43    0.62
  -2   2  -8    3.50    0.49
  -2   2  -8    3.86    0.43
  -2   2  -7   43.47    1.53
  -2   2  -7   42.95    1.66
  -2   2  -6   23.63    1.14
  -2   2  -6   20.95    1.03
  -2   2  -6   23.43    1.01
  -2   2  -5   16.55    0.82
  -2   2  -5   17.92    0.81
  -2   2  -5   15.26    0.86
  -2   2  -4   13.34    0.67
  -2   2  -4   14.57    0.70
  -2   2  -4   15.14    0.80
  -2   2  -3  218.31    4.69
  -2   2  -3  214.48    4.93
  -2   2  -2  610.98   11.83
  -2   2  -2  608.51   12.16
  -2   2  -1   12.51    0.46
  -2   2  -1   12.82    0.58
  -2   2   0   16.22    0.64
  -2   2   1   83.92    2.01
  -2   2   2  105.69    2.39
  -2   2   2  102.11    2.28
  -2   2   2  102.79    2.25
  -2   2   2  104.89    2.62
  -2   2   3  460.35    9.26
  -2   2   3  459.88    9.28
  -2   2   3  462.76    9.28
  -2   2   4   50.27    1.42
  -2   2   4   48.97    1.42
  -2   2   5   53.70    1.60
  -2   2   5   53.89    1.60
  -2   2   6    9.99    0.62
  -2   3 -11    2.80    0.65
  -2   3 -10    4.13    0.65
  -2   3  -9    8.06    0.81
  -2   3  -8    5.16    0.63
  -2   3  -8    6.75    0.60
  -2   3  -7   10.89    0.74
  -2   3  -7   11.18    0.82
  -2   3  -6   47.73    1.75
  -2   3  -6   49.24    1.90
  -2   3  -6   49.73    1.70
  -2   3  -5   11.88    0.74
  -2   3  -5   11.94    0.81
  -2   3  -4   25.19    1.04
  -2   3  -4   24.50    1.17
  -2   3  -3   24.34    0.96
  -2   3  -3   26.09    1.01
  -2   3  -2    2.56    0.28
  -2   3  -2    1.89    0.24
  -2   3  -1   38.03    1.16
  -2   3  -1   39.92    1.24
  -2   3   0   29.48    0.98
  -2   3   0   27.89    1.11
  -2   3   1   21.32    0.78
  -2   3   1   22.30    0.95
  -2   3   2    5.78    0.27
  -2   3   2    5.57    0.35
  -2   3   2    5.86    0.46
  -2   3   3   95.09    2.16
  -2   3   3   91.58    2.19
  -2   3   3   92.92    2.52
  -2   3   4   37.57    1.14
  -2   3   4   35.91    1.06
  -2   3   4   37.90    1.37
  -2   3   4   36.38    1.18
  -2   3   5   22.37    0.88
  -2   3   5   21.13    0.75
  -2   3   5   21.76    0.90
  -2   3   6   28.65    1.11
  -2   4 -10    0.49    0.43
  -2   4  -9    2.78    0.59
  -2   4  -8    1.96    0.48
  -2   4  -7    0.24    0.29
  -2   4  -6    6.08    0.62
  -2   4  -5   43.75    1.67
  -2   4  -5   45.25    1.63
  -2   4  -4    2.23    0.36
  -2   4  -4    2.26    0.31
  -2   4  -3   42.84    1.45
  -2   4  -3   39.68    1.44
  -2   4  -3   38.91    1.14
  -2   4  -2   43.61    1.45
  -2   4  -2   43.93    1.47
  -2   4  -2   43.46    1.65
  -2   4  -2   45.06    1.12
  -2   4  -1   14.36    0.42
  -2   4  -1   15.76    0.73
  -2   4  -1   15.29    0.73
  -2   4  -1   15.50    0.87
  -2   4   0    2.33    0.28
  -2   4   0    1.84    0.23
  -2   4   0    2.13    0.32
  -2   4   1   34.57    1.00
  -2   4   1   34.43    1.24
  -2   4   2    0.35    0.12
  -2   4   2    0.46    0.10
  -2   4   2    0.19    0.14
  -2   4   3   10.34    0.45
  -2   4   3   11.13    0.51
  -2   4   3   10.28    0.67
  -2   4   4    8.97    0.47
  -2   4   4    8.52    0.43
  -2   4   4    8.29    0.61
  -2   4   5    9.90    0.55
  -2   4   5    9.05    0.44
  -2   4   5    9.83    0.68
  -2   4   5    9.47    0.60
  -2   4   6   21.91    0.93
  -2   4   6   21.43    0.75
  -2   4   6   21.96    1.08
  -2   4   7   23.83    0.81
  -2   4   8   57.03    1.53
  -2   5  -8    0.30    0.40
  -2   5  -7    5.91    0.71
  -2   5  -6    0.12    0.30
  -2   5  -6    0.05    0.20
  -2   5  -5   11.81    0.87
  -2   5  -5   12.36    0.97
  -2   5  -5   14.89    0.89
  -2   5  -4    4.44    0.46
  -2   5  -4    4.07    0.50
  -2   5  -4    4.44    0.56
  -2   5  -3   56.80    1.96
  -2   5  -3   56.16    2.12
  -2   5  -3   57.32    1.86
  -2   5  -2    5.57    0.52
  -2   5  -2    4.88    0.55
  -2   5  -2    5.35    0.47
  -2   5  -1   67.77    1.95
  -2   5  -1   64.94    2.02
  -2   5  -1   63.84    2.20
  -2   5   0   16.31    0.84
  -2   5   0   16.27    0.46
  -2   5   0   16.87    0.97
  -2   5   0   17.50    0.78
  -2   5   1   47.90    1.44
  -2   5   1   44.97    1.08
  -2   5   1   49.32    1.76
  -2   5   2   18.65    0.75
  -2   5   2   16.57    0.93
  -2   5   2   18.01    0.57
  -2   5   3    5.79    0.34
  -2   5   3    5.62    0.37
  -2   5   4    5.58    0.38
  -2   5   4    5.84    0.36
  -2   5   4    5.60    0.52
  -2   5   5   16.29    0.73
  -2   5   5   16.48    0.62
  -2   5   5   15.47    0.90
  -2   5   6   63.09    1.57
  -2   5   6   63.27    2.12
  -2   5   7    2.52    0.40
  -2   5   8    8.27    0.71
  -2   5   9    1.57    0.38
  -2   6  -5    2.85    0.53
  -2   6  -5    3.20    0.48
  -2   6  -4    2.68    0.50
  -2   6  -4    3.08    0.43
  -2   6  -4    2.26    0.48
  -2   6  -3    1.61    0.39
  -2   6  -3    0.73    0.27
  -2   6  -3    1.10    0.35
  -2   6  -2   10.10    0.77
  -2   6  -2    9.47    0.82
  -2   6  -2    9.18    0.65
  -2   6  -1   13.94    0.89
  -2   6  -1   15.23    1.01
  -2   6   0    2.52    0.38
  -2   6   0    3.02    0.35
  -2   6   0    2.57    0.44
  -2   6   1   56.12    1.69
  -2   6   1   56.60    2.06
  -2   6   2    4.15    0.37
  -2   6   2    4.84    0.53
  -2   6   3    3.78    0.32
  -2   6   3    3.39    0.45
  -2   6   4    6.28    0.60
  -2   6   4    6.30    0.39
  -2   6   5   46.55    1.27
  -2   6   5   44.84    1.74
  -2   6   6   27.04    1.28
  -2   6   7   17.31    1.02
  -2   6   8    7.83    0.71
  -2   6   9    4.93    0.60
  -2   6  10   14.89    1.05
  -2   7  -4    2.08    0.52
  -2   7  -3    0.73    0.28
  -2   7  -3    0.78    0.39
  -2   7  -2    6.38    0.69
  -2   7  -2    5.87    0.71
  -2   7  -2    6.41    0.59
  -2   7  -1    2.62    0.38
  -2   7  -1    2.16    0.44
  -2   7  -1    2.38    0.46
  -2   7   0   16.95    1.04
  -2   7   0   17.09    0.89
  -2   7   0   18.24    1.17
  -2   7   1   54.32    1.99
  -2   7   1   51.45    1.69
  -2   7   1   57.01    2.17
  -2   7   2   16.73    1.06
  -2   7   2   15.32    0.76
  -2   7   3    3.24    0.32
  -2   7   3    2.84    0.45
  -2   7   4    0.51    0.28
  -2   7   5    2.04    0.40
  -2   7   6   12.53    0.88
  -2   7   7    2.44    0.44
  -2   7   8    0.91    0.32
  -2   8  -2    1.17    0.47
  -2   8  -1    0.24    0.33
  -2   8   0    0.15    0.28
  -2   8   1    4.42    0.63
  -2   8   2   17.04    1.15
  -2   8   3    1.43    0.41
  -2   8   4    2.69    0.48
  -2   8   5   11.05    0.89
  -2   8   6   17.44    1.10
  -2   9   2   10.85    0.98
  -2   9   3    0.43    0.35
  -1  -9  -9    7.66    0.73
  -1  -9  -8   12.01    0.88
  -1  -9  -8   11.13    0.90
  -1  -9  -7    8.87    0.79
  -1  -9  -7    9.39    0.76
  -1  -9  -6    0.15    0.23
  -1  -9  -5    0.29    0.26
  -1  -9  -5    0.23    0.25
  -1  -9  -4    8.04    0.73
  -1  -9  -3    0.54    0.29
  -1  -9  -2    1.99    0.39
  -1  -9  -1    9.79    0.77
  -1  -9   0    0.27    0.23
  -1  -8 -11    6.09    0.68
  -1  -8 -11    5.05    0.64
  -1  -8 -10    3.54    0.54
  -1  -8 -10    4.80    0.58
  -1  -8  -9    0.99    0.36
  -1  -8  -9    1.59    0.39
  -1  -8  -8    8.56    0.72
  -1  -8  -8    9.48    0.78
  -1  -8  -7    7.25    0.65
  -1  -8  -7    8.65    0.72
  -1  -8  -6    0.84    0.27
  -1  -8  -5   10.52    0.77
  -1  -8  -5   11.04    0.72
  -1  -8  -4   18.27    1.01
  -1  -8  -4   18.07    0.91
  -1  -8  -3   11.78    0.79
  -1  -8  -3   10.53    0.66
  -1  -8  -2   13.93    0.86
  -1  -8  -1    3.01    0.42
  -1  -7 -12   10.95    0.86
  -1  -7 -11    2.25    0.45
  -1  -7 -11    1.61    0.40
  -1  -7 -10    8.09    0.71
  -1  -7 -10    7.33    0.68
  -1  -7  -9    0.10    0.20
  -1  -7  -9   -0.05    0.21
  -1  -7  -8   15.58    0.92
  -1  -7  -8   16.23    0.97
  -1  -7  -7    7.06    0.58
  -1  -7  -7    7.85    0.64
  -1  -7  -6    8.31    0.62
  -1  -7  -6   10.40    0.73
  -1  -7  -5   13.71    0.77
  -1  -7  -4   18.96    0.97
  -1  -7  -4   19.84    0.91
  -1  -7  -3    7.59    0.52
  -1  -7  -3    7.77    0.60
  -1  -7  -2   11.14    0.72
  -1  -7  -2   11.40    0.62
  -1  -7  -1    1.64    0.25
  -1  -6 -13    5.23    0.60
  -1  -6 -13    5.82    0.68
  -1  -6 -12    7.82    0.70
  -1  -6 -12    9.66    0.81
  -1  -6 -11   16.89    1.00
  -1  -6 -11   17.96    1.07
  -1  -6 -10   13.97    0.89
  -1  -6  -9   19.92    1.06
  -1  -6  -9   19.82    1.04
  -1  -6  -8   17.35    0.94
  -1  -6  -8   17.70    0.95
  -1  -6  -7    3.85    0.42
  -1  -6  -7    3.60    0.41
  -1  -6  -6   33.83    1.33
  -1  -6  -6   33.92    1.28
  -1  -6  -5   31.74    1.19
  -1  -6  -4    3.14    0.33
  -1  -6  -3   16.45    0.82
  -1  -6  -3   15.69    0.73
  -1  -6  -3   16.84    0.77
  -1  -6  -2   13.28    0.59
  -1  -6  -2   13.30    0.73
  -1  -6  -2   15.01    0.67
  -1  -6  -2   14.50    0.74
  -1  -6  -1    3.53    0.30
  -1  -6   0    5.86    0.37
  -1  -6   1   41.96    1.17
  -1  -5 -14    0.94    0.38
  -1  -5 -13    0.05    0.25
  -1  -5 -13    0.06    0.26
  -1  -5 -12    3.72    0.48
  -1  -5 -12    2.22    0.42
  -1  -5 -11    0.73    0.26
  -1  -5 -11    0.89    0.30
  -1  -5 -10    8.44    0.64
  -1  -5 -10    7.85    0.66
  -1  -5  -9    6.83    0.56
  -1  -5  -8    6.61    0.53
  -1  -5  -7   18.66    0.89
  -1  -5  -7   17.94    0.89
  -1  -5  -6    0.66    0.17
  -1  -5  -6    0.51    0.17
  -1  -5  -5   16.55    0.76
  -1  -5  -5   17.16    0.80
  -1  -5  -4   13.88    0.42
  -1  -5  -4   13.53    0.65
  -1  -5  -3   41.05    1.34
  -1  -5  -3   41.92    1.07
  -1  -5  -3   40.72    1.26
  -1  -5  -3   44.16    1.26
  -1  -5  -2    6.69    0.45
  -1  -5  -2    6.15    0.34
  -1  -5  -2    6.66    0.40
  -1  -5  -2    6.52    0.43
  -1  -5  -1   30.22    0.96
  -1  -5  -1   30.63    0.95
  -1  -5  -1   32.41    1.11
  -1  -5   0   25.68    0.82
  -1  -5   0   27.65    1.06
  -1  -5   1   27.99    0.82
  -1  -5   2    9.65    0.39
  -1  -5   3    3.42    0.20
  -1  -4 -14    2.24    0.76
  -1  -4 -14    1.49    0.45
  -1  -4 -13    0.27    0.52
  -1  -4 -13    0.83    0.34
  -1  -4 -12    1.13    0.30
  -1  -4 -12    0.71    0.28
  -1  -4 -11    6.51    0.56
  -1  -4 -11    6.27    0.60
  -1  -4 -10   31.24    1.26
  -1  -4 -10   27.99    1.28
  -1  -4  -9   49.09    1.65
  -1  -4  -9   51.39    1.75
  -1  -4  -8    5.32    0.45
  -1  -4  -8    5.74    0.49
  -1  -4  -7   13.94    0.72
  -1  -4  -6   54.18    1.60
  -1  -4  -6   50.72    1.58
  -1  -4  -5   38.13    1.24
  -1  -4  -5   39.30    1.24
  -1  -4  -4   39.32    1.21
  -1  -4  -4   35.82    1.15
  -1  -4  -3   39.19    0.93
  -1  -4  -3   39.24    1.15
  -1  -4  -3   39.28    1.07
  -1  -4  -2   46.99    1.16
  -1  -4  -2   48.72    1.36
  -1  -4  -2   46.83    1.27
  -1  -4  -2   47.55    1.28
  -1  -4  -1   25.97    0.80
  -1  -4  -1   26.87    0.90
  -1  -4  -1   26.91    0.80
  -1  -4   0    4.03    0.24
  -1  -4   0    4.11    0.34
  -1  -4   0    3.41    0.26
  -1  -4   1   16.40    0.52
  -1  -4   1   17.24    0.77
  -1  -4   1   16.62    0.66
  -1  -4   2    6.17    0.26
  -1  -4   3   19.77    0.60
  -1  -4   4   29.36    0.73
  -1  -3 -14    3.41    0.88
  -1  -3 -14    3.32    0.54
  -1  -3 -13    0.12    0.26
  -1  -3 -13    0.27    0.46
  -1  -3 -12    7.57    0.61
  -1  -3 -12    6.80    1.02
  -1  -3 -12    6.33    0.63
  -1  -3 -11    5.87    0.52
  -1  -3 -11    5.16    0.54
  -1  -3 -10   24.40    1.07
  -1  -3 -10   22.56    1.10
  -1  -3  -9   12.87    0.72
  -1  -3  -9   12.23    0.75
  -1  -3  -8    2.43    0.29
  -1  -3  -8    2.15    0.30
  -1  -3  -7    9.63    0.56
  -1  -3  -7    9.52    0.58
  -1  -3  -6   24.32    0.91
  -1  -3  -5   17.68    0.72
  -1  -3  -4  170.41    3.73
  -1  -3  -4  168.34    3.72
  -1  -3  -3  260.67    5.41
  -1  -3  -2    1.09    0.15
  -1  -3  -2    1.41    0.15
  -1  -3  -2    1.18    0.13
  -1  -3  -1   62.49    1.55
  -1  -3  -1   61.93    1.45
  -1  -3  -1   62.73    1.51
  -1  -3  -1   62.28    1.44
  -1  -3   0   85.86    2.07
  -1  -3   0   89.04    1.89
  -1  -3   0   86.01    1.98
  -1  -3   1   10.34    0.33
  -1  -3   1   10.58    0.52
  -1  -3   1    9.87    0.44
  -1  -3   2   38.83    1.24
  -1  -3   2   38.21    1.12
  -1  -3   3   51.11    1.12
  -1  -3   4   15.14    0.40
  -1  -3   5   13.86    0.38
  -1  -2 -14   16.15    1.68
  -1  -2 -14   17.00    1.12
  -1  -2 -13    5.23    1.04
  -1  -2 -13    5.62    0.63
  -1  -2 -12    4.35    0.83
  -1  -2 -12    4.30    0.52
  -1  -2 -11   14.80    0.81
  -1  -2 -11   15.46    0.92
  -1  -2 -11   14.34    1.33
  -1  -2 -10   35.09    1.29
  -1  -2 -10   32.52    1.36
  -1  -2 -10   34.43    1.98
  -1  -2  -9   23.73    1.08
  -1  -2  -9   27.04    1.07
  -1  -2  -9   27.44    1.65
  -1  -2  -8    2.90    0.32
  -1  -2  -8    3.06    0.34
  -1  -2  -7    3.59    0.33
  -1  -2  -7    2.92    0.31
  -1  -2  -6   34.39    1.17
  -1  -2  -6   36.68    1.16
  -1  -2  -6   36.97    0.94
  -1  -2  -5    9.37    0.49
  -1  -2  -5    8.72    0.46
  -1  -2  -5    9.42    0.32
  -1  -2  -4   35.74    0.80
  -1  -2  -4   32.49    1.02
  -1  -2  -3  479.98    9.33
  -1  -2  -3  496.61    9.61
  -1  -2  -3  468.07    9.58
  -1  -2  -2  420.90    8.36
  -1  -2  -1    0.41    0.07
  -1  -2  -1    0.56    0.08
  -1  -2   0  264.23    5.38
  -1  -2   0  266.84    5.25
  -1  -2   1  170.19    3.47
  -1  -2   1  157.84    3.15
  -1  -2   2  461.93    9.36
  -1  -2   3   99.72    2.44
  -1  -2   3   94.84    2.28
  -1  -2   4    9.61    0.58
  -1  -2   4    9.66    0.79
  -1  -2   4    9.25    0.27
  -1  -2   4    9.43    0.56
  -1  -2   5   32.91    0.78
  -1  -2   6    7.56    0.29
  -1  -2   6    8.24    0.38
  -1  -1 -13    3.70    0.67
  -1  -1 -13    2.58    0.82
  -1  -1 -13    3.75    0.56
  -1  -1 -12   10.96    0.81
  -1  -1 -12    8.76    1.17
  -1  -1 -12    9.91    0.92
  -1  -1 -11   31.70    2.04
  -1  -1 -11   33.70    1.43
  -1  -1 -11   35.72    1.70
  -1  -1 -10    0.55    0.29
  -1  -1 -10    0.81    0.44
  -1  -1 -10    0.21    0.22
  -1  -1  -9    3.20    0.46
  -1  -1  -9    2.23    0.53
  -1  -1  -9    1.81    0.27
  -1  -1  -9    2.00    0.32
  -1  -1  -8    0.77    0.35
  -1  -1  -8    1.23    0.28
  -1  -1  -8    1.21    0.23
  -1  -1  -8    1.16    0.24
  -1  -1  -7   22.60    0.87
  -1  -1  -7   21.96    0.91
  -1  -1  -7   23.10    1.31
  -1  -1  -7   22.34    0.78
  -1  -1  -7   20.49    1.01
  -1  -1  -6    9.56    0.44
  -1  -1  -6   11.27    0.82
  -1  -1  -6    9.89    0.51
  -1  -1  -6    9.81    0.54
  -1  -1  -6   10.31    0.64
  -1  -1  -5   52.21    1.43
  -1  -1  -5   52.29    1.46
  -1  -1  -5   52.26    1.58
  -1  -1  -5   53.36    1.30
  -1  -1  -4   39.21    1.08
  -1  -1  -4   37.61    1.10
  -1  -1  -4   38.54    0.96
  -1  -1  -3  139.51    2.85
  -1  -1  -3  142.25    2.99
  -1  -1  -3  133.12    2.98
  -1  -1  -2  193.46    3.87
  -1  -1  -1  290.80    5.77
  -1  -1   0  487.67    9.60
  -1  -1   0  502.40    9.63
  -1  -1   1  189.96    3.75
  -1  -1   1  187.52    3.97
  -1  -1   1  192.14    4.16
  -1  -1   2   11.27    0.62
  -1  -1   2   10.85    0.48
  -1  -1   2    9.65    0.47
  -1  -1   3   98.39    2.33
  -1  -1   3   99.20    2.68
  -1  -1   4   62.03    1.34
  -1  -1   4   60.18    1.31
  -1  -1   4   61.00    2.08
  -1  -1   4   61.63    1.73
  -1  -1   5   30.24    1.14
  -1  -1   5   31.69    0.78
  -1  -1   5   30.91    0.78
  -1  -1   5   30.17    1.47
  -1  -1   5   29.93    0.96
  -1  -1   6   12.69    0.43
  -1  -1   6   12.61    0.44
  -1  -1   7    5.86    0.29
  -1  -1   7    6.16    0.31
  -1   0 -13   13.15    1.16
  -1   0 -12   45.67    2.09
  -1   0 -11    2.46    0.68
  -1   0 -11    3.32    0.56
  -1   0 -11    2.69    0.43
  -1   0 -10   42.38    1.58
  -1   0 -10   39.76    2.25
  -1   0 -10   40.22    1.78
  -1   0  -9   15.75    1.28
  -1   0  -9   15.60    0.85
  -1   0  -9   14.74    0.97
  -1   0  -8   27.17    1.62
  -1   0  -8   27.96    1.13
  -1   0  -8   30.25    1.35
  -1   0  -7   50.26    2.14
  -1   0  -7   53.84    1.62
  -1   0  -7   53.09    1.53
  -1   0  -7   50.13    1.77
  -1   0  -6   93.38    2.94
  -1   0  -6   91.08    2.35
  -1   0  -6   93.41    2.27
  -1   0  -6   94.64    2.56
  -1   0  -5    1.23    0.22
  -1   0  -5    1.22    0.16
  -1   0  -5    1.12    0.19
  -1   0  -5    1.23    0.27
  -1   0  -4   69.27    1.65
  -1   0  -4   67.83    2.06
  -1   0  -4   68.88    1.74
  -1   0  -4   68.08    1.69
  -1   0  -4   68.54    1.82
  -1   0  -3    2.40    0.18
  -1   0  -3    2.44    0.20
  -1   0  -3    2.60    0.20
  -1   0  -3    2.19    0.20
  -1   0  -3    1.93    0.24
  -1   0  -3    2.38    0.22
  -1   0  -2  537.19   10.53
  -1   0  -2  545.77   10.71
  -1   0  -2  538.62   10.56
  -1   0  -2  539.01   10.60
  -1   0  -2  533.80   10.55
  -1   0  -2  527.11   10.56
  -1   0  -1  338.82    6.57
  -1   0  -1  326.15    6.57
  -1   0   1   35.44    1.05
  -1   0   1   88.22    1.29
  -1   0   2  980.22   19.16
  -1   0   2  985.13   19.18
  -1   0   3   48.50    1.28
  -1   0   3   43.62    1.26
  -1   0   4   19.15    0.78
  -1   0   4   19.94    0.47
  -1   0   5  175.40    3.51
  -1   0   5  176.14    4.05
  -1   0   6   28.71    0.91
  -1   0   6   29.95    0.74
  -1   0   6   29.12    0.83
  -1   0   7    4.18    0.22
  -1   0   7    3.59    0.25
  -1   0   8    3.53    0.21
  -1   1 -13    1.08    0.52
  -1   1 -12    7.73    0.87
  -1   1 -11   21.75    1.36
  -1   1 -10   15.44    0.89
  -1   1 -10   15.40    1.08
  -1   1  -9    2.58    0.45
  -1   1  -9    1.90    0.31
  -1   1  -8  107.96    2.87
  -1   1  -8  108.66    3.16
  -1   1  -7   14.25    0.74
  -1   1  -7   15.24    0.74
  -1   1  -7   14.18    0.87
  -1   1  -6   95.74    2.48
  -1   1  -6   96.54    2.44
  -1   1  -6   96.71    2.68
  -1   1  -5    8.91    0.51
  -1   1  -5    8.62    0.48
  -1   1  -5    9.95    0.60
  -1   1  -4    7.92    0.43
  -1   1  -4    7.65    0.48
  -1   1  -4    8.18    0.45
  -1   1  -4    9.05    0.52
  -1   1  -4    8.18    0.47
  -1   1  -3   12.95    0.56
  -1   1  -3   13.45    0.54
  -1   1  -3   13.67    0.56
  -1   1  -3   12.30    0.58
  -1   1  -3   13.95    0.55
  -1   1  -2   99.13    2.29
  -1   1  -2  106.46    2.40
  -1   1  -2  104.23    2.25
  -1   1  -1  148.34    2.93
  -1   1  -1  131.40    3.05
  -1   1   0   95.03    2.05
  -1   1   1   21.59    0.54
  -1   1   1   21.12    0.59
  -1   1   2   78.42    1.78
  -1   1   2   79.35    1.78
  -1   1   3   40.87    1.14
  -1   1   3   41.24    1.14
  -1   1   4  147.65    3.33
  -1   1   4  145.49    3.33
  -1   1   5   61.54    1.75
  -1   1   5   60.88    1.74
  -1   1   6   23.59    0.99
  -1   1   6   23.78    1.00
  -1   1   7   14.52    0.57
  -1   2 -12    6.24    0.85
  -1   2 -11    6.68    0.82
  -1   2 -10    0.22    0.31
  -1   2  -9    0.91    0.35
  -1   2  -8   29.74    1.44
  -1   2  -7   32.18    1.23
  -1   2  -7   29.21    1.27
  -1   2  -7   28.65    1.34
  -1   2  -6    6.67    0.58
  -1   2  -6    6.76    0.49
  -1   2  -6    7.13    0.54
  -1   2  -5    1.37    0.26
  -1   2  -5    1.51    0.22
  -1   2  -5    1.57    0.24
  -1   2  -4   67.05    1.91
  -1   2  -4   69.58    1.82
  -1   2  -4   66.95    1.96
  -1   2  -3  120.97    2.92
  -1   2  -3  124.16    2.80
  -1   2  -2  217.59    4.75
  -1   2  -2  226.56    4.82
  -1   2  -2  230.82    4.65
  -1   2  -1   75.73    1.77
  -1   2  -1   73.35    1.78
  -1   2  -1   73.29    1.60
  -1   2   0  140.02    2.96
  -1   2   0  135.23    3.10
  -1   2   1   35.78    0.91
  -1   2   1   32.87    1.03
  -1   2   2   82.17    1.81
  -1   2   2   80.76    2.03
  -1   2   2   84.04    1.84
  -1   2   3   13.15    0.52
  -1   2   3   12.55    0.42
  -1   2   3   12.66    0.54
  -1   2   4   81.98    2.04
  -1   2   4   81.54    2.06
  -1   2   5  100.39    2.52
  -1   2   5  100.53    2.53
  -1   2   6    8.39    0.55
  -1   2   6    8.39    0.56
  -1   2   8   27.81    0.86
  -1   2   9    3.12    0.27
  -1   3 -11    4.45    0.74
  -1   3 -10    1.83    0.51
  -1   3  -9    1.81    0.46
  -1   3  -8    3.82    0.56
  -1   3  -7   30.82    1.43
  -1   3  -7   28.78    1.27
  -1   3  -6   28.34    1.18
  -1   3  -6   28.30    1.30
  -1   3  -6   26.83    1.14
  -1   3  -5   45.73    1.65
  -1   3  -5   45.19    1.49
  -1   3  -4   59.23    1.85
  -1   3  -4   58.21    1.68
  -1   3  -3   13.20    0.71
  -1   3  -3   13.05    0.58
  -1   3  -3   14.21    0.68
  -1   3  -2   14.63    0.64
  -1   3  -2   14.10    0.69
  -1   3  -2   14.25    0.55
  -1   3  -2   14.91    0.76
  -1   3  -1   44.33    1.25
  -1   3  -1   41.60    1.31
  -1   3  -1   43.86    1.11
  -1   3  -1   45.27    1.42
  -1   3   0    1.46    0.17
  -1   3   0    1.25    0.20
  -1   3   1   26.24    0.79
  -1   3   1   28.06    0.98
  -1   3   2  129.32    2.75
  -1   3   2  126.41    3.04
  -1   3   3    0.30    0.08
  -1   3   3    0.10    0.10
  -1   3   4   69.21    1.95
  -1   3   4   71.83    1.60
  -1   3   4   73.07    1.84
  -1   3   5    9.71    0.54
  -1   3   5    9.42    0.36
  -1   3   5    8.54    0.55
  -1   3   6   35.67    1.25
  -1   3   8   23.80    0.71
  -1   4 -10    4.83    0.78
  -1   4  -9    7.56    0.85
  -1   4  -8    7.03    0.77
  -1   4  -8    5.79    0.61
  -1   4  -7    2.04    0.46
  -1   4  -7    1.58    0.34
  -1   4  -6   12.86    0.91
  -1   4  -6   12.77    0.77
  -1   4  -5   91.21    2.76
  -1   4  -5   87.44    2.46
  -1   4  -5   92.49    2.57
  -1   4  -4   56.02    1.91
  -1   4  -4   53.11    1.63
  -1   4  -4   53.12    1.94
  -1   4  -4   55.48    1.74
  -1   4  -3    8.95    0.64
  -1   4  -3    8.43    0.49
  -1   4  -3    8.80    0.66
  -1   4  -3    7.66    0.52
  -1   4  -2   93.11    2.56
  -1   4  -2   91.17    2.23
  -1   4  -2   92.69    2.65
  -1   4  -2   95.44    2.40
  -1   4  -1   68.57    1.99
  -1   4  -1   67.26    1.68
  -1   4  -1   67.78    2.05
  -1   4  -1   68.05    1.82
  -1   4   0   10.71    0.52
  -1   4   0   12.04    0.68
  -1   4   1   15.33    0.60
  -1   4   1   16.31    0.78
  -1   4   2   34.74    0.98
  -1   4   2   36.06    1.25
  -1   4   3   10.99    0.42
  -1   4   3   11.15    0.62
  -1   4   4    3.27    0.20
  -1   4   4    3.25    0.33
  -1   4   5   52.12    1.19
  -1   4   5   50.98    1.61
  -1   4   5   50.09    1.52
  -1   4   6   18.48    0.53
  -1   4   6   20.91    0.93
  -1   4   7  140.86    2.93
  -1   4   8   55.72    1.33
  -1   5  -9   12.88    1.15
  -1   5  -8    1.60    0.50
  -1   5  -7    1.16    0.43
  -1   5  -6    2.91    0.52
  -1   5  -5   26.32    1.36
  -1   5  -4    9.02    0.75
  -1   5  -4    8.65    0.58
  -1   5  -4   10.21    0.81
  -1   5  -4    9.32    0.65
  -1   5  -3   28.12    1.31
  -1   5  -3   26.38    1.01
  -1   5  -3   26.35    1.31
  -1   5  -3   30.35    1.19
  -1   5  -2   19.14    1.01
  -1   5  -2   20.25    0.80
  -1   5  -2   18.03    1.03
  -1   5  -2   21.29    0.92
  -1   5  -1   42.25    1.54
  -1   5  -1   39.69    1.21
  -1   5  -1   39.92    1.56
  -1   5  -1   40.29    1.33
  -1   5   0    0.43    0.14
  -1   5   0    0.72    0.17
  -1   5   0    0.76    0.22
  -1   5   1   23.54    1.07
  -1   5   1   24.91    0.88
  -1   5   2   19.84    0.94
  -1   5   2   18.75    0.70
  -1   5   3    5.94    0.33
  -1   5   3    6.45    0.50
  -1   5   4   27.47    0.78
  -1   5   4   26.27    1.10
  -1   5   5    0.31    0.08
  -1   5   5    0.32    0.18
  -1   5   6   30.42    0.72
  -1   5   6   30.88    1.22
  -1   5   7   31.46    1.28
  -1   5   8    8.89    0.66
  -1   6  -7    0.49    0.43
  -1   6  -6    1.59    0.48
  -1   6  -5    1.88    0.45
  -1   6  -4    0.39    0.30
  -1   6  -3   10.74    0.85
  -1   6  -3   12.54    0.93
  -1   6  -2    5.63    0.60
  -1   6  -2    6.93    0.68
  -1   6  -1    6.56    0.63
  -1   6  -1    7.08    0.66
  -1   6  -1    7.40    0.53
  -1   6   0    3.34    0.45
  -1   6   0    3.45    0.33
  -1   6   0    4.24    0.49
  -1   6   0    4.15    0.38
  -1   6   1    5.09    0.52
  -1   6   1    5.12    0.40
  -1   6   2    2.39    0.25
  -1   6   2    1.64    0.32
  -1   6   3    9.55    0.67
  -1   6   3    9.27    0.46
  -1   6   4    2.13    0.33
  -1   6   4    2.27    0.21
  -1   6   5    3.56    0.41
  -1   6   5    3.57    0.22
  -1   6   6   37.15    1.43
  -1   6   7   44.62    1.63
  -1   6   8   10.84    0.74
  -1   6   9    3.97    0.49
  -1   7  -5    0.87    0.48
  -1   7  -4    2.45    0.56
  -1   7  -3   11.01    0.95
  -1   7  -2    1.11    0.37
  -1   7  -2    0.95    0.34
  -1   7  -1    0.55    0.29
  -1   7  -1    0.19    0.24
  -1   7   0    6.39    0.66
  -1   7   0    7.65    0.70
  -1   7   1   14.23    0.94
  -1   7   2   21.07    1.13
  -1   7   3    8.93    0.71
  -1   7   4    2.17    0.37
  -1   7   5    1.98    0.35
  -1   7   6    2.07    0.37
  -1   7   7    3.11    0.43
  -1   8  -3    0.32    0.38
  -1   8  -2    8.29    0.88
  -1   8  -1   14.72    1.10
  -1   8  -1   14.16    1.09
  -1   8   0    4.29    0.63
  -1   8   0    3.94    0.59
  -1   8   1    8.49    0.79
  -1   8   1    6.47    0.73
  -1   8   2    8.56    0.76
  -1   8   3   19.11    1.12
  -1   8   4   10.44    0.80
  -1   8   5    2.26    0.41
  -1   9   1    2.58    0.56
  -1   9   1    2.36    0.50
  -1   9   2   11.27    1.00
   0  -9  -8    1.66    0.41
   0  -9  -8    0.78    0.32
   0  -9  -7    0.78    0.31
   0  -9  -7    0.63    0.29
   0  -9  -6    2.94    0.47
   0  -9  -6    4.13    0.51
   0  -9  -5    0.61    0.26
   0  -9  -4   -0.06    0.23
   0  -9  -4    0.04    0.20
   0  -9  -3    0.99    0.31
   0  -8 -11    2.18    0.45
   0  -8 -10   11.29    0.88
   0  -8 -10   10.49    0.84
   0  -8  -9    4.11    0.56
   0  -8  -9    4.78    0.56
   0  -8  -8    4.24    0.53
   0  -8  -8    3.80    0.48
   0  -8  -7    1.21    0.32
   0  -8  -7    1.47    0.32
   0  -8  -6    1.72    0.34
   0  -8  -6    0.94    0.28
   0  -8  -5   21.48    1.04
   0  -8  -4   23.28    1.17
   0  -8  -4   22.98    1.05
   0  -8  -3    9.61    0.64
   0  -8  -2    7.02    0.53
   0  -7 -12    8.23    0.74
   0  -7 -12    9.50    0.82
   0  -7 -11   10.74    0.82
   0  -7 -10   -0.05    0.23
   0  -7 -10   -0.05    0.23
   0  -7  -9    1.28    0.32
   0  -7  -9    1.79    0.34
   0  -7  -8    7.58    0.64
   0  -7  -8    8.75    0.68
   0  -7  -7    8.89    0.69
   0  -7  -7    8.30    0.63
   0  -7  -6    9.45    0.68
   0  -7  -6    9.00    0.64
   0  -7  -5   18.62    0.97
   0  -7  -5   18.40    0.91
   0  -7  -4   12.11    0.71
   0  -7  -3    8.96    0.57
   0  -7  -2    4.00    0.38
   0  -7  -1   22.97    0.92
   0  -7   0   12.07    0.62
   0  -6 -13    7.82    0.77
   0  -6 -12    0.98    0.30
   0  -6 -12    0.47    0.29
   0  -6 -11    0.38    0.22
   0  -6 -11    0.22    0.25
   0  -6 -10    6.60    0.58
   0  -6 -10    7.97    0.66
   0  -6  -9   17.72    0.95
   0  -6  -8    6.67    0.56
   0  -6  -8    7.22    0.58
   0  -6  -7    1.25    0.27
   0  -6  -7    1.04    0.25
   0  -6  -6    5.34    0.49
   0  -6  -6    4.62    0.43
   0  -6  -5    9.92    0.63
   0  -6  -5    9.85    0.61
   0  -6  -4    1.53    0.25
   0  -6  -3    0.06    0.10
   0  -6  -2    9.15    0.49
   0  -6  -2    9.22    0.53
   0  -5 -14    6.60    0.71
   0  -5 -13   17.07    1.08
   0  -5 -12    4.67    0.49
   0  -5 -12    4.86    0.57
   0  -5 -11    1.88    0.35
   0  -5 -11    2.10    0.36
   0  -5 -10    0.39    0.21
   0  -5 -10    0.41    0.21
   0  -5  -9    9.50    0.67
   0  -5  -9    9.41    0.63
   0  -5  -8   27.20    1.11
   0  -5  -7   29.12    1.14
   0  -5  -6    1.22    0.22
   0  -5  -6    0.75    0.19
   0  -5  -5    5.58    0.43
   0  -5  -5    5.58    0.42
   0  -5  -4   25.97    0.71
   0  -5  -4   26.87    0.99
   0  -5  -3   32.84    0.93
   0  -5  -3   33.60    1.10
   0  -5  -3   35.18    1.19
   0  -5  -2    8.76    0.43
   0  -5  -2    9.31    0.48
   0  -5  -2    8.28    0.54
   0  -5  -1    4.80    0.33
   0  -5  -1    4.11    0.39
   0  -4 -14    0.31    0.59
   0  -4 -14    1.16    0.38
   0  -4 -13    0.84    0.31
   0  -4 -12    0.15    0.20
   0  -4 -11    4.58    0.46
   0  -4 -11    5.30    0.53
   0  -4 -10   26.37    1.20
   0  -4 -10   28.69    1.15
   0  -4  -9   37.70    1.34
   0  -4  -9   38.60    1.43
   0  -4  -8  131.50    3.30
   0  -4  -8  130.41    3.22
   0  -4  -7  195.97    4.46
   0  -4  -7  200.23    4.54
   0  -4  -6    0.72    0.16
   0  -4  -5   20.14    0.80
   0  -4  -5   19.42    0.79
   0  -4  -4   15.13    0.65
   0  -4  -4   15.08    0.66
   0  -4  -3   95.33    2.08
   0  -4  -3  101.36    2.33
   0  -4  -3   96.65    2.36
   0  -4  -2    9.69    0.40
   0  -4  -2    9.98    0.52
   0  -4  -1    9.57    0.43
   0  -4  -1    8.56    0.50
   0  -4   0   18.28    0.68
   0  -4   0   18.29    0.80
   0  -4   1   39.05    1.18
   0  -4   1   36.81    1.29
   0  -4   3   14.98    0.62
   0  -4   4  175.08    3.82
   0  -3 -14    3.22    0.92
   0  -3 -14    4.12    0.57
   0  -3 -13    1.02    0.33
   0  -3 -13    1.41    0.65
   0  -3 -12    0.64    0.50
   0  -3 -12    0.15    0.20
   0  -3 -11    1.26    0.25
   0  -3 -11    1.66    0.33
   0  -3 -10    1.04    0.23
   0  -3 -10    0.83    0.24
   0  -3  -9    2.97    0.32
   0  -3  -9    2.60    0.33
   0  -3  -8   24.14    0.94
   0  -3  -8   24.02    0.99
   0  -3  -7   10.14    0.53
   0  -3  -7    9.03    0.54
   0  -3  -6   20.14    0.77
   0  -3  -6   21.22    0.81
   0  -3  -5    3.91    0.29
   0  -3  -4   60.20    1.56
   0  -3  -3   76.08    1.57
   0  -3  -3   77.52    1.84
   0  -3  -2  164.61    3.42
   0  -3  -2  173.97    3.59
   0  -3  -2  170.90    3.64
   0  -3  -1   39.58    0.98
   0  -3  -1   36.98    1.10
   0  -3   0   66.35    1.58
   0  -3   0   66.03    1.73
   0  -3   1    8.67    0.42
   0  -3   1    9.14    0.50
   0  -3   2   56.99    1.51
   0  -3   2   55.60    1.64
   0  -3   3   11.19    0.48
   0  -3   4   43.43    1.17
   0  -3   5   48.05    1.26
   0  -2 -14    2.97    0.88
   0  -2 -13    0.14    0.54
   0  -2 -13    0.10    0.27
   0  -2 -12    3.86    0.80
   0  -2 -12    6.25    0.59
   0  -2 -11    1.51    0.41
   0  -2 -11    1.91    0.33
   0  -2 -11    1.50    0.53
   0  -2 -10   11.82    0.73
   0  -2 -10   11.40    1.16
   0  -2 -10   12.34    0.65
   0  -2  -9   20.64    0.85
   0  -2  -9   19.89    0.92
   0  -2  -8   18.24    0.76
   0  -2  -8   18.56    0.83
   0  -2  -7   61.63    1.72
   0  -2  -7   61.58    1.65
   0  -2  -6   36.71    1.15
   0  -2  -6   38.46    1.12
   0  -2  -5   66.38    1.67
   0  -2  -5   70.59    1.74
   0  -2  -4   42.06    1.11
   0  -2  -4   42.06    1.14
   0  -2  -3  231.18    4.73
   0  -2  -2   48.42    1.17
   0  -2  -1   82.32    1.73
   0  -2  -1   83.00    1.86
   0  -2   0  354.87    7.08
   0  -2   0  360.39    7.20
   0  -2   1   17.82    0.58
   0  -2   1   18.10    0.66
   0  -2   2  108.12    2.41
   0  -2   2  107.90    2.54
   0  -2   2  103.54    2.52
   0  -2   3   13.14    0.64
   0  -2   3   14.23    0.49
   0  -2   3   14.28    0.61
   0  -2   3   12.90    0.64
   0  -2   4   27.57    1.04
   0  -2   4   26.87    1.33
   0  -2   4   27.77    0.79
   0  -2   4   25.61    0.96
   0  -2   5   18.14    0.61
   0  -2   5   17.68    0.82
   0  -2   6   33.17    1.06
   0  -2   6   36.16    1.00
   0  -2   7   45.94    1.33
   0  -2   7   45.45    1.23
   0  -1 -13    5.13    0.75
   0  -1 -13    5.46    1.06
   0  -1 -12   27.12    2.02
   0  -1 -12   24.01    1.19
   0  -1 -12   25.22    1.49
   0  -1 -11   10.67    0.72
   0  -1 -11   11.81    1.24
   0  -1 -11   11.12    0.93
   0  -1 -10    4.37    0.58
   0  -1 -10    5.09    0.80
   0  -1 -10    4.58    0.44
   0  -1  -9   16.64    0.71
   0  -1  -9   14.89    0.77
   0  -1  -9   16.51    1.30
   0  -1  -9   16.43    1.00
   0  -1  -8    2.50    0.38
   0  -1  -8    3.43    0.33
   0  -1  -8    2.60    0.26
   0  -1  -7   19.76    0.72
   0  -1  -7   18.18    0.76
   0  -1  -7   17.70    1.18
   0  -1  -7   18.55    0.96
   0  -1  -6  157.14    3.40
   0  -1  -6  154.36    3.47
   0  -1  -5  141.64    3.03
   0  -1  -5  138.86    3.10
   0  -1  -4  200.91    4.12
   0  -1  -4  199.14    4.17
   0  -1  -3    6.26    0.27
   0  -1  -3    6.24    0.28
   0  -1  -2  423.47    8.82
   0  -1  -2  477.51    8.82
   0  -1   0    0.01    0.02
   0  -1   0   -0.01    0.03
   0  -1   1    0.73    0.12
   0  -1   1    0.72    0.09
   0  -1   1    0.94    0.11
   0  -1   1    0.90    0.12
   0  -1   2  111.90    2.47
   0  -1   2  114.64    2.53
   0  -1   2  112.70    2.34
   0  -1   3    9.78    0.42
   0  -1   3   10.91    0.51
   0  -1   3   10.26    0.47
   0  -1   3   10.44    0.36
   0  -1   4   60.85    1.55
   0  -1   4   62.01    1.71
   0  -1   4   59.67    1.65
   0  -1   4   62.06    1.46
   0  -1   4   59.86    1.42
   0  -1   4   60.85    1.67
   0  -1   4   61.13    2.04
   0  -1   5   44.88    1.26
   0  -1   5   44.80    1.44
   0  -1   5   43.30    1.16
   0  -1   5   43.52    1.13
   0  -1   5   43.33    1.38
   0  -1   5   44.34    1.79
   0  -1   5   42.58    1.37
   0  -1   6   20.93    0.71
   0  -1   6   20.38    0.68
   0  -1   7    8.79    0.44
   0  -1   7    8.62    0.42
   0  -1   8   10.46    0.51
   0  -1   8   10.59    0.50
   0   0 -13   18.72    1.38
   0   0 -12   14.32    1.55
   0   0 -12   15.85    1.19
   0   0 -11   46.09    2.65
   0   0 -11   47.16    1.67
   0   0 -11   48.73    2.09
   0   0 -10    0.46    0.31
   0   0 -10    0.22    0.20
   0   0 -10    0.56    0.38
   0   0  -9   14.24    1.25
   0   0  -9   14.31    0.75
   0   0  -9   14.53    0.98
   0   0  -8    7.48    0.84
   0   0  -8    7.60    0.50
   0   0  -8    8.69    0.70
   0   0  -7   50.79    2.20
   0   0  -7   50.09    1.47
   0   0  -7   49.81    1.74
   0   0  -7   51.15    1.79
   0   0  -6    7.39    0.70
   0   0  -6    6.69    0.39
   0   0  -6    7.49    0.56
   0   0  -6    6.44    0.50
   0   0  -5   20.10    0.86
   0   0  -5   19.88    0.69
   0   0  -5   20.93    1.11
   0   0  -5   21.38    0.90
   0   0  -4  239.00    5.08
   0   0  -4  238.01    4.79
   0   0  -4  231.87    4.85
   0   0  -4  232.32    5.45
   0   0  -4  236.31    5.11
   0   0  -3  169.89    3.63
   0   0  -3  165.54    3.41
   0   0  -3  166.86    3.44
   0   0  -3  170.77    3.91
   0   0  -3  167.85    3.64
   0   0  -2   87.30    1.96
   0   0  -2   87.82    1.83
   0   0  -2   90.48    1.85
   0   0  -2   86.22    2.13
   0   0  -1    0.01    0.01
   0   0   2   88.44    1.84
   0   0   2   89.52    1.85
   0   0   2   90.33    1.87
   0   0   3  163.07    3.57
   0   0   3  167.13    3.37
   0   0   3  166.07    3.39
   0   0   3  166.51    3.42
   0   0   4  237.02    5.04
   0   0   4  238.18    4.77
   0   0   4  233.77    4.79
   0   0   4  234.54    4.83
   0   0   5   19.92    0.68
   0   0   5   20.48    0.85
   0   0   5   20.13    0.83
   0   0   5   20.75    0.63
   0   0   5   19.49    0.64
   0   0   6    7.69    0.41
   0   0   6    6.80    0.51
   0   0   6    7.76    0.36
   0   0   6    6.92    0.36
   0   0   7   52.40    1.37
   0   0   7   52.95    1.40
   0   0   8    8.39    0.43
   0   0   8    7.97    0.44
   0   1 -12    5.13    0.74
   0   1 -11   14.62    1.13
   0   1 -10   -0.21    0.28
   0   1  -9    7.44    0.73
   0   1  -9    7.20    0.52
   0   1  -9    7.05    0.67
   0   1  -8    9.89    0.58
   0   1  -8   10.49    0.81
   0   1  -8   11.01    0.78
   0   1  -7   10.47    0.71
   0   1  -7    9.42    0.52
   0   1  -7   10.24    0.97
   0   1  -7    8.65    0.69
   0   1  -6   21.84    1.02
   0   1  -6   21.45    0.98
   0   1  -6   19.14    0.75
   0   1  -6   21.77    1.31
   0   1  -5   42.39    1.45
   0   1  -5   42.73    1.41
   0   1  -5   43.67    1.83
   0   1  -5   42.87    1.19
   0   1  -4   61.52    1.75
   0   1  -4   60.48    1.69
   0   1  -4   62.29    1.50
   0   1  -3   10.12    0.51
   0   1  -3    9.06    0.46
   0   1  -3   10.47    0.39
   0   1  -3   10.25    0.43
   0   1  -2  112.50    2.54
   0   1  -2  112.93    2.48
   0   1  -1    0.65    0.11
   0   1  -1    0.83    0.10
   0   1   0 1196.42   23.14
   0   1   0 1198.56   23.08
   0   1   1  128.81    2.61
   0   1   2  476.57    9.08
   0   1   2  444.68    9.18
   0   1   3    6.50    0.26
   0   1   3    6.30    0.28
   0   1   3    6.46    0.22
   0   1   3    5.52    0.32
   0   1   4  199.66    4.12
   0   1   4  198.34    4.06
   0   1   4  198.65    4.02
   0   1   5  135.31    2.89
   0   1   5  137.46    2.91
   0   1   5  135.86    2.97
   0   1   6  157.71    3.34
   0   1   6  153.91    3.33
   0   1   6  156.33    3.40
   0   1   7   19.62    0.70
   0   1   7   20.44    0.68
   0   1   7   19.98    0.74
   0   1   8    2.90    0.25
   0   1   8    3.06    0.27
   0   1   9   16.96    0.66
   0   2 -12    1.19    0.53
   0   2 -11    0.67    0.40
   0   2 -10    3.50    0.60
   0   2  -9    0.27    0.31
   0   2  -9    0.29    0.28
   0   2  -8   59.20    2.19
   0   2  -8   54.75    2.01
   0   2  -7   47.08    1.82
   0   2  -7   46.76    1.71
   0   2  -6   34.83    1.44
   0   2  -6   36.40    1.38
   0   2  -5   19.80    0.95
   0   2  -5   17.55    0.85
   0   2  -4   26.04    1.04
   0   2  -4   25.08    0.97
   0   2  -3   12.84    0.65
   0   2  -3   13.32    0.61
   0   2  -2  105.95    2.51
   0   2  -2  101.68    2.39
   0   2  -2  103.88    2.50
   0   2  -2  102.34    2.36
   0   2  -1   17.53    0.67
   0   2  -1   17.82    0.60
   0   2  -1   17.89    0.66
   0   2  -1   17.06    0.57
   0   2   0  358.14    7.24
   0   2   0  360.29    7.12
   0   2   1   84.66    1.88
   0   2   1   83.55    1.75
   0   2   2   51.85    1.25
   0   2   4   43.90    1.29
   0   2   4   42.86    0.90
   0   2   5   68.79    1.50
   0   2   5   71.58    1.67
   0   2   5   69.87    1.72
   0   2   5   68.21    1.91
   0   2   5   71.30    1.90
   0   2   6   37.36    0.95
   0   2   6   38.92    1.32
   0   2   6   38.93    1.06
   0   2   6   37.59    1.12
   0   2   6   38.91    1.34
   0   2   7   61.64    1.49
   0   2   7   63.18    1.58
   0   2   8   18.66    0.66
   0   2   8   19.49    0.71
   0   2   9   21.39    0.75
   0   2   9   19.90    0.75
   0   3 -11    0.18    0.39
   0   3 -10    1.84    0.54
   0   3 -10    0.62    0.36
   0   3  -9    6.03    0.74
   0   3  -9    6.21    0.68
   0   3  -8    8.59    0.74
   0   3  -8    7.75    0.77
   0   3  -7    7.45    0.65
   0   3  -7    6.35    0.66
   0   3  -6   20.52    1.13
   0   3  -6   21.49    1.05
   0   3  -5   46.93    1.70
   0   3  -5   43.77    1.53
   0   3  -4   42.70    1.55
   0   3  -4   43.06    1.43
   0   3  -3   10.56    0.65
   0   3  -3   10.25    0.56
   0   3  -2   58.80    1.74
   0   3  -2   55.43    1.57
   0   3  -2   57.50    1.55
   0   3  -2   58.76    1.72
   0   3  -1    8.77    0.53
   0   3  -1    8.98    0.51
   0   3  -1    8.63    0.45
   0   3  -1    8.53    0.42
   0   3   0   68.86    1.77
   0   3   0   66.54    1.61
   0   3   1   37.25    1.11
   0   3   1   39.31    0.98
   0   3   2  173.52    3.72
   0   3   2  173.04    3.50
   0   3   3   79.92    1.85
   0   3   3   75.20    1.55
   0   3   4   57.29    1.49
   0   3   5    3.77    0.38
   0   3   6   21.16    0.51
   0   3   7    9.56    0.33
   0   3   8   24.90    0.71
   0   4 -10    1.09    0.50
   0   4 -10    1.44    0.46
   0   4  -9   -0.16    0.39
   0   4  -9    0.07    0.29
   0   4  -8    5.04    0.68
   0   4  -8    4.98    0.61
   0   4  -7    1.54    0.42
   0   4  -7    2.06    0.40
   0   4  -6    7.23    0.61
   0   4  -6    5.73    0.65
   0   4  -5   16.88    1.02
   0   4  -5   15.03    0.86
   0   4  -4  170.99    4.34
   0   4  -4  167.62    4.07
   0   4  -3   15.70    0.89
   0   4  -3   15.31    0.77
   0   4  -2   13.68    0.80
   0   4  -2   14.71    0.71
   0   4  -1   37.00    1.37
   0   4  -1   38.26    1.23
   0   4  -1   38.36    1.33
   0   4   0   18.56    0.81
   0   4   0   17.48    0.67
   0   4   1    9.76    0.53
   0   4   1    9.22    0.43
   0   4   2    9.69    0.52
   0   4   3   98.24    2.38
   0   4   4   15.83    0.66
   0   4   5   20.48    0.79
   0   4   6    0.41    0.14
   0   5  -9   15.22    1.28
   0   5  -8    4.50    0.74
   0   5  -7    5.12    0.69
   0   5  -7    4.30    0.57
   0   5  -6   20.50    1.28
   0   5  -6   20.12    1.10
   0   5  -5    0.70    0.33
   0   5  -5    0.32    0.25
   0   5  -4    3.76    0.44
   0   5  -4    3.92    0.52
   0   5  -3    1.50    0.28
   0   5  -3    1.55    0.35
   0   5  -2   36.70    1.53
   0   5  -2   37.96    1.35
   0   5  -2   39.54    1.52
   0   5  -1    1.10    0.29
   0   5  -1    1.17    0.23
   0   5  -1    1.91    0.31
   0   5   0    3.46    0.38
   0   5   1    4.43    0.40
   0   5   2    8.88    0.55
   0   5   3   32.87    1.14
   0   5   4   25.99    0.97
   0   5   5    4.62    0.37
   0   5   6    0.87    0.20
   0   5   7   28.62    1.07
   0   5   8   26.89    1.08
   0   6  -7    1.64    0.55
   0   6  -6   10.95    1.01
   0   6  -5    0.66    0.38
   0   6  -4   23.98    1.39
   0   6  -3   16.75    1.08
   0   6  -3   14.84    0.85
   0   6  -2    7.52    0.70
   0   6  -2    6.76    0.54
   0   6  -1   31.95    1.48
   0   6  -1   32.95    1.26
   0   6  -1   33.57    1.43
   0   6   0    9.23    0.74
   0   6   0    9.61    0.69
   0   6   1   14.99    0.83
   0   6   2   10.57    0.67
   0   6   3    0.10    0.15
   0   6   4    1.24    0.24
   0   6   5    9.80    0.59
   0   6   6    5.18    0.43
   0   6   7    1.02    0.22
   0   6   8    8.10    0.56
   0   7  -5    3.93    0.70
   0   7  -4    6.05    0.77
   0   7  -3    0.44    0.34
   0   7  -2    0.69    0.34
   0   7  -1    3.92    0.57
   0   7  -1    5.14    0.58
   0   7   0   12.27    0.94
   0   7   0   12.45    0.86
   0   7   1   23.29    1.15
   0   7   2    4.03    0.46
   0   7   3    9.51    0.66
   0   7   4   11.56    0.72
   0   7   5   18.28    0.89
   0   7   6    8.31    0.57
   0   8  -3    0.42    0.38
   0   8  -2    1.11    0.43
   0   8  -1    0.68    0.35
   0   8   0    0.80    0.39
   0   8   0    0.97    0.33
   0   8   1   12.58    1.02
   0   8   1   12.82    0.90
   0   8   2    7.96    0.69
   0   8   3    8.46    0.68
   0   9   0   20.50    1.40
   0   9   1    0.65    0.42
   0   9   2    2.35    0.54
   1  -9  -8    2.62    0.46
   1  -9  -7    3.12    0.50
   1  -9  -7    2.42    0.44
   1  -9  -6    3.28    0.50
   1  -9  -6    3.46    0.47
   1  -9  -5    4.43    0.56
   1  -9  -5    3.66    0.47
   1  -9  -4    5.45    0.55
   1  -9  -3    0.04    0.22
   1  -8 -10    7.82    0.72
   1  -8 -10    7.09    0.70
   1  -8  -9    0.55    0.27
   1  -8  -9    0.83    0.30
   1  -8  -8    2.52    0.43
   1  -8  -8    2.51    0.43
   1  -8  -7   15.21    0.96
   1  -8  -7   16.14    0.95
   1  -8  -6   22.29    1.16
   1  -8  -6   21.37    1.10
   1  -8  -5    1.73    0.34
   1  -8  -4    9.02    0.65
   1  -8  -3   16.79    0.89
   1  -8  -2    7.53    0.56
   1  -7 -12   11.84    0.93
   1  -7 -11    2.90    0.46
   1  -7 -11    3.28    0.50
   1  -7 -10    7.38    0.65
   1  -7  -9    0.77    0.27
   1  -7  -9    1.07    0.32
   1  -7  -8    5.42    0.54
   1  -7  -8    5.27    0.54
   1  -7  -7    3.05    0.40
   1  -7  -7    2.56    0.37
   1  -7  -6    1.32    0.29
   1  -7  -6    1.80    0.32
   1  -7  -5    2.28    0.33
   1  -7  -4    2.69    0.35
   1  -7  -3    7.34    0.55
   1  -6 -13    3.13    0.51
   1  -6 -12    1.68    0.38
   1  -6 -11    0.22    0.22
   1  -6 -11    0.70    0.29
   1  -6 -10    0.89    0.27
   1  -6 -10    1.24    0.30
   1  -6  -9    4.93    0.51
   1  -6  -9    4.90    0.49
   1  -6  -8   11.30    0.72
   1  -6  -7   45.35    1.60
   1  -6  -7   47.09    1.63
   1  -6  -6   37.58    1.40
   1  -6  -6   38.48    1.40
   1  -6  -5    3.55    0.37
   1  -6  -4    2.81    0.33
   1  -5 -13    5.18    0.61
   1  -5 -12    8.14    0.70
   1  -5 -11    1.42    0.29
   1  -5 -11    1.61    0.34
   1  -5 -10    3.77    0.41
   1  -5 -10    4.14    0.47
   1  -5  -9   33.77    1.26
   1  -5  -9   32.35    1.34
   1  -5  -8    9.12    0.58
   1  -5  -8    9.39    0.65
   1  -5  -7   31.82    1.19
   1  -5  -6   31.88    1.17
   1  -5  -5    0.33    0.14
   1  -5  -4   26.66    0.81
   1  -5  -3    6.36    0.37
   1  -5  -2   18.34    0.71
   1  -5  -1   24.51    0.89
   1  -4 -14   10.32    0.84
   1  -4 -13    9.36    0.76
   1  -4 -12    3.98    0.49
   1  -4 -11    3.88    0.45
   1  -4 -10   22.90    1.09
   1  -4 -10   25.77    1.02
   1  -4  -9   40.03    1.33
   1  -4  -9   37.72    1.42
   1  -4  -8   58.97    1.71
   1  -4  -8   58.08    1.81
   1  -4  -7  138.49    3.30
   1  -4  -7  141.88    3.42
   1  -4  -6   19.89    0.79
   1  -4  -6   17.65    0.80
   1  -4  -3   11.24    0.45
   1  -4  -2   36.12    1.03
   1  -4  -2   35.75    1.24
   1  -4  -1   14.78    0.60
   1  -4  -1   13.74    0.72
   1  -4   0   11.65    0.55
   1  -4   0   11.16    0.65
   1  -4   4   55.16    1.63
   1  -3 -14    4.26    1.04
   1  -3 -13    1.02    0.65
   1  -3 -13    1.21    0.34
   1  -3 -12    0.13    0.50
   1  -3 -12    0.14    0.21
   1  -3 -11    5.09    0.50
   1  -3 -10    3.35    0.33
   1  -3 -10    3.21    0.38
   1  -3  -9   17.37    0.74
   1  -3  -9   14.97    0.78
   1  -3  -8   22.97    0.86
   1  -3  -8   21.73    0.92
   1  -3  -7   46.90    1.34
   1  -3  -7   46.06    1.44
   1  -3  -6   37.42    1.09
   1  -3  -6   33.55    1.14
   1  -3  -5    9.72    0.46
   1  -3  -5   10.14    0.51
   1  -3  -2  131.12    2.82
   1  -3  -2  129.23    3.05
   1  -3  -1   25.51    0.78
   1  -3  -1   25.50    0.93
   1  -3   0    1.83    0.19
   1  -3   0    1.42    0.22
   1  -3   1   43.49    1.24
   1  -3   1   44.61    1.40
   1  -3   2   15.68    0.66
   1  -3   2   15.00    0.75
   1  -3   3   14.16    0.64
   1  -3   4   59.61    1.62
   1  -3   4   55.20    1.61
   1  -3   5   47.80    1.40
   1  -3   5   45.83    1.48
   1  -3   6   27.27    0.98
   1  -2 -13    0.08    0.32
   1  -2 -13    1.46    0.62
   1  -2 -12    2.12    0.69
   1  -2 -12    3.01    0.56
   1  -2 -12    2.43    0.37
   1  -2 -11   33.07    1.31
   1  -2 -11   33.29    2.13
   1  -2 -11   36.61    1.73
   1  -2 -10   35.45    1.13
   1  -2 -10   36.45    1.33
   1  -2 -10   37.28    2.15
   1  -2 -10   37.63    1.68
   1  -2  -9    3.84    0.49
   1  -2  -9    2.92    0.28
   1  -2  -9    3.24    0.34
   1  -2  -8   30.91    0.98
   1  -2  -8   31.23    1.09
   1  -2  -8   29.24    1.33
   1  -2  -7   26.44    0.86
   1  -2  -7   27.03    0.95
   1  -2  -7   28.04    1.19
   1  -2  -6    8.23    0.39
   1  -2  -6    8.18    0.45
   1  -2  -6    9.05    0.60
   1  -2  -5   97.91    2.20
   1  -2  -5   97.09    2.29
   1  -2  -4   81.88    1.94
   1  -2  -2   80.45    1.77
   1  -2  -1   34.88    0.91
   1  -2  -1   33.34    1.02
   1  -2   0  134.09    2.87
   1  -2   0  132.59    3.01
   1  -2   1   74.91    1.77
   1  -2   1   73.11    1.89
   1  -2   2  230.55    4.84
   1  -2   2  229.13    4.87
   1  -2   2  230.77    4.72
   1  -2   3  127.69    2.94
   1  -2   3  125.60    2.85
   1  -2   3  121.96    2.79
   1  -2   4   65.09    1.86
   1  -2   4   68.27    2.32
   1  -2   4   69.47    1.76
   1  -2   4   67.77    1.79
   1  -2   5    1.50    0.24
   1  -2   5    1.26    0.19
   1  -2   6    6.89    0.43
   1  -2   7   31.02    1.05
   1  -1 -13    0.30    0.65
   1  -1 -12    6.02    1.04
   1  -1 -11   12.31    0.74
   1  -1 -11   11.82    1.25
   1  -1 -10    6.92    0.71
   1  -1 -10    6.59    0.91
   1  -1 -10    7.88    0.54
   1  -1  -9    2.69    0.44
   1  -1  -9    2.16    0.22
   1  -1  -9    2.12    0.28
   1  -1  -9    2.33    0.56
   1  -1  -8   38.53    1.09
   1  -1  -8   40.24    1.26
   1  -1  -8   40.98    1.62
   1  -1  -7   15.03    0.54
   1  -1  -7   14.60    0.63
   1  -1  -7   15.25    0.86
   1  -1  -6   22.88    1.01
   1  -1  -6   24.35    0.71
   1  -1  -6   24.25    0.80
   1  -1  -6   24.14    1.05
   1  -1  -5   60.07    1.75
   1  -1  -5   61.29    1.40
   1  -1  -5   60.53    1.51
   1  -1  -5   61.87    1.80
   1  -1  -4  144.10    3.26
   1  -1  -4  139.22    2.91
   1  -1  -4  141.61    3.02
   1  -1  -4  147.40    3.29
   1  -1  -3   41.55    1.15
   1  -1  -3   39.81    1.14
   1  -1  -2   80.73    1.77
   1  -1  -2   75.08    1.75
   1  -1  -1   21.21    0.54
   1  -1  -1   20.77    0.58
   1  -1   0   96.13    2.07
   1  -1   1  151.56    3.06
   1  -1   1  151.49    2.99
   1  -1   2  100.87    2.28
   1  -1   2  104.27    2.22
   1  -1   2  103.15    2.31
   1  -1   2  102.49    2.37
   1  -1   3   13.32    0.56
   1  -1   3   12.94    0.53
   1  -1   3   13.13    0.52
   1  -1   3   14.01    0.76
   1  -1   3   14.36    0.55
   1  -1   3   13.91    0.60
   1  -1   4    8.58    0.66
   1  -1   4    8.86    0.49
   1  -1   4    8.87    0.45
   1  -1   4    8.40    0.46
   1  -1   4    8.38    0.43
   1  -1   4    8.78    0.43
   1  -1   4    8.46    0.49
   1  -1   5    8.65    0.54
   1  -1   5    8.32    0.47
   1  -1   5    8.77    0.52
   1  -1   5    9.04    0.47
   1  -1   5    9.15    0.46
   1  -1   5    9.57    0.56
   1  -1   5    9.46    0.75
   1  -1   6   93.51    2.50
   1  -1   6   96.01    2.35
   1  -1   6   96.23    2.31
   1  -1   7   14.98    0.67
   1  -1   7   14.54    0.65
   1   0 -13   -0.18    0.36
   1   0 -13    0.16    0.54
   1   0 -12    6.79    0.83
   1   0 -12    6.85    1.11
   1   0 -11   12.40    1.36
   1   0 -10    6.74    0.95
   1   0 -10    7.74    0.54
   1   0 -10    8.67    0.78
   1   0  -9    2.77    0.62
   1   0  -9    2.08    0.40
   1   0  -9    2.53    0.29
   1   0  -8    3.89    0.33
   1   0  -8    4.52    0.51
   1   0  -7    4.03    0.30
   1   0  -7    4.05    0.43
   1   0  -6   26.78    1.14
   1   0  -6   29.84    0.90
   1   0  -5  176.10    3.58
   1   0  -5  155.99    3.96
   1   0  -4   19.00    0.79
   1   0  -4   19.71    0.57
   1   0  -3   46.66    1.29
   1   0  -3   45.75    1.04
   1   0  -3   45.78    1.54
   1   0  -2  990.39   19.33
   1   0  -1   88.32    1.86
   1   0  -1   87.21    1.91
   1   0   0    3.46    0.16
   1   0   1  331.96    6.44
   1   0   1  333.71    6.36
   1   0   2  540.90   10.51
   1   0   2  531.04   10.54
   1   0   2  529.03   10.56
   1   0   2  544.94   10.53
   1   0   2  529.71   10.69
   1   0   2  533.65   10.54
   1   0   3    2.44    0.22
   1   0   3    2.41    0.18
   1   0   3    2.44    0.19
   1   0   3    2.28    0.19
   1   0   3    2.09    0.19
   1   0   3    2.08    0.19
   1   0   4   69.94    1.81
   1   0   4   68.22    1.78
   1   0   4   68.96    1.66
   1   0   4   69.12    1.69
   1   0   4   70.89    1.70
   1   0   4   70.43    1.75
   1   0   5    1.67    0.26
   1   0   5    1.45    0.19
   1   0   5    1.50    0.18
   1   0   5    1.26    0.19
   1   0   5    1.29    0.17
   1   0   5    1.28    0.23
   1   0   6   91.16    2.48
   1   0   6   94.77    2.27
   1   0   6   93.02    2.45
   1   0   6   95.78    2.27
   1   0   6   94.69    2.26
   1   0   6   90.69    2.39
   1   0   7   49.62    1.43
   1   0   7   51.30    1.45
   1   1 -12    0.53    0.43
   1   1 -11    1.69    0.49
   1   1 -11    1.18    0.42
   1   1 -10   13.54    1.00
   1   1 -10   13.67    1.05
   1   1  -9    5.61    0.66
   1   1  -9    5.81    0.43
   1   1  -9    6.40    0.66
   1   1  -9    6.40    0.94
   1   1  -8    6.23    0.65
   1   1  -8    7.18    0.44
   1   1  -8    6.18    0.61
   1   1  -7    6.47    0.58
   1   1  -7    6.36    0.38
   1   1  -6   14.37    0.81
   1   1  -6   13.74    0.53
   1   1  -5   29.44    1.17
   1   1  -5   32.20    0.86
   1   1  -4   60.43    1.74
   1   1  -4   61.28    1.35
   1   1  -3   96.91    2.36
   1   1  -3   96.12    1.97
   1   1  -3   93.23    2.70
   1   1  -2   11.41    0.51
   1   1   0  472.09    9.40
   1   1   0  502.28    9.44
   1   1   1  280.83    5.64
   1   1   1  286.89    5.63
   1   1   2  192.26    3.81
   1   1   2  187.30    3.89
   1   1   3  139.09    2.86
   1   1   3  139.69    2.97
   1   1   3  137.56    2.87
   1   1   3  140.59    3.06
   1   1   4   37.59    0.96
   1   1   4   37.74    1.04
   1   1   4   39.52    1.07
   1   1   4   38.32    1.01
   1   1   4   37.39    1.14
   1   1   5   50.78    1.27
   1   1   5   52.61    1.36
   1   1   5   50.09    1.36
   1   1   5   50.46    1.36
   1   1   5   53.91    1.53
   1   1   5   51.81    1.52
   1   1   6   11.02    0.62
   1   1   6   10.33    0.45
   1   1   6   10.09    0.51
   1   1   6   10.38    0.49
   1   1   6   10.34    0.50
   1   1   6    9.41    0.59
   1   1   7   22.13    0.78
   1   1   7   23.81    0.84
   1   1   7   21.27    0.86
   1   1   8    0.88    0.19
   1   1   8    1.13    0.20
   1   2 -12   -0.28    0.38
   1   2 -11    6.34    0.83
   1   2 -11    4.91    0.69
   1   2 -10   -0.08    0.32
   1   2 -10    0.36    0.33
   1   2  -9   15.00    1.04
   1   2  -9   15.40    1.09
   1   2  -8   61.23    2.27
   1   2  -8   58.56    2.15
   1   2  -7    6.05    0.62
   1   2  -7    5.08    0.53
   1   2  -6    8.64    0.67
   1   2  -6    8.18    0.63
   1   2  -5   31.79    1.30
   1   2  -5   30.90    1.24
   1   2  -4    9.74    0.62
   1   2  -4    9.36    0.59
   1   2  -3  105.91    2.65
   1   2  -2  464.58    9.52
   1   2   1    0.41    0.07
   1   2   2  408.01    8.10
   1   2   3  466.67    9.51
   1   2   3  490.11    9.52
   1   2   4   36.29    0.84
   1   2   4   35.44    1.02
   1   2   5    9.30    0.34
   1   2   5    9.52    0.45
   1   2   5    9.62    0.47
   1   2   5    9.76    0.57
   1   2   6   35.86    0.94
   1   2   6   36.65    1.10
   1   2   6   36.78    1.12
   1   2   6   36.58    1.30
   1   2   7    3.11    0.23
   1   2   7    2.85    0.27
   1   2   8    3.39    0.26
   1   2   8    2.91    0.29
   1   2   9   29.38    0.96
   1   3 -11    2.55    0.67
   1   3 -11    2.97    0.62
   1   3 -10    0.34    0.37
   1   3 -10    0.45    0.36
   1   3  -9    7.76    0.84
   1   3  -9    6.91    0.74
   1   3  -8   61.04    2.36
   1   3  -8   62.75    2.28
   1   3  -7    5.72    0.64
   1   3  -7    5.07    0.57
   1   3  -6   42.51    1.74
   1   3  -6   43.04    1.66
   1   3  -5   14.29    0.89
   1   3  -5   14.41    0.84
   1   3  -4   14.37    0.85
   1   3  -4   13.69    0.77
   1   3  -3   49.01    1.67
   1   3  -3   49.41    1.60
   1   3  -2   41.38    1.42
   1   3  -2   39.33    1.33
   1   3  -1   10.08    0.60
   1   3   1   61.90    1.49
   1   3   2    1.24    0.12
   1   3   3  263.29    5.42
   1   3   3  263.35    5.24
   1   3   4  168.78    3.60
   1   3   4  163.48    3.38
   1   3   5   17.49    0.67
   1   3   5   17.32    0.68
   1   3   6   23.71    0.58
   1   3   6   23.56    0.84
   1   3   7    9.31    0.34
   1   3   8    2.39    0.19
   1   4 -10    2.05    0.62
   1   4 -10    2.09    0.55
   1   4  -9   13.92    1.16
   1   4  -9   16.16    1.15
   1   4  -8    2.08    0.52
   1   4  -8    2.45    0.49
   1   4  -7    3.01    0.54
   1   4  -7    2.26    0.44
   1   4  -6   40.48    1.78
   1   4  -6   41.29    1.69
   1   4  -5   26.09    1.33
   1   4  -5   26.31    1.24
   1   4  -4   29.98    1.41
   1   4  -4   32.51    1.34
   1   4  -3   17.78    0.99
   1   4  -3   18.99    0.94
   1   4  -2    6.29    0.55
   1   4  -2    6.08    0.49
   1   4  -1   15.92    0.86
   1   4   1   25.45    0.87
   1   4   2   48.56    1.29
   1   4   3   38.20    1.02
   1   4   4   35.85    0.94
   1   4   5   38.52    1.01
   1   4   6   50.52    1.31
   1   5  -9    1.79    0.61
   1   5  -9    2.39    0.56
   1   5  -8    2.95    0.62
   1   5  -8    2.61    0.54
   1   5  -7   29.79    1.66
   1   5  -7   29.96    1.51
   1   5  -6   15.57    1.12
   1   5  -6   15.79    1.03
   1   5  -5    9.96    0.87
   1   5  -5   10.43    0.79
   1   5  -4    0.10    0.21
   1   5  -4   -0.19    0.27
   1   5  -3    2.73    0.44
   1   5  -3    3.41    0.44
   1   5  -2    8.91    0.72
   1   5  -2    9.22    0.65
   1   5  -1   27.64    1.30
   1   5   1   31.14    1.10
   1   5   2    6.60    0.42
   1   5   3   41.58    1.21
   1   5   4   13.94    0.56
   1   5   5   17.82    0.63
   1   5   6    0.74    0.14
   1   5   7   17.28    0.65
   1   5   8    6.79    0.41
   1   6  -7   12.82    1.16
   1   6  -6   39.86    1.97
   1   6  -6   36.41    1.70
   1   6  -5    0.12    0.28
   1   6  -5    0.16    0.36
   1   6  -4   16.26    1.15
   1   6  -4   17.93    1.05
   1   6  -3    8.11    0.77
   1   6  -3    6.90    0.64
   1   6  -2   13.09    0.96
   1   6  -2   13.17    0.84
   1   6  -1   41.32    1.76
   1   6  -1   39.83    1.54
   1   6   1    2.77    0.34
   1   6   2   13.98    0.71
   1   6   3   15.28    0.70
   1   6   4    2.94    0.28
   1   6   5   28.22    0.94
   1   6   6   33.04    1.01
   1   7  -5   10.45    1.05
   1   7  -4   11.24    1.05
   1   7  -3    4.11    0.63
   1   7  -2    0.66    0.35
   1   7  -2    0.46    0.27
   1   7  -1   40.58    1.83
   1   7  -1   37.13    1.55
   1   7   0   20.45    1.24
   1   7   2   10.50    0.67
   1   7   3    7.93    0.54
   1   7   4   18.66    0.82
   1   8  -3    6.26    0.86
   1   8  -2    1.17    0.46
   1   8  -1    0.48    0.36
   1   8   0   -0.08    0.31
   1   8   1    5.01    0.68
   1   9   0    0.26    0.37
   1   9   1    8.75    0.95
   2  -9  -6   -0.16    0.26
   2  -9  -5    1.22    0.33
   2  -9  -4   12.36    0.84
   2  -9  -3    0.56    0.27
   2  -9  -2   10.18    0.74
   2  -8 -10    0.06    0.23
   2  -8  -9    1.09    0.34
   2  -8  -9    1.56    0.37
   2  -8  -8    0.85    0.30
   2  -8  -8    0.76    0.28
   2  -8  -7    0.78    0.28
   2  -8  -7    0.67    0.29
   2  -8  -6   17.40    1.00
   2  -8  -5   11.00    0.76
   2  -8  -4    4.15    0.46
   2  -7 -11    0.42    0.26
   2  -7 -10   12.01    0.83
   2  -7 -10   11.74    0.87
   2  -7  -9    2.23    0.38
   2  -7  -8    1.06    0.29
   2  -7  -8    0.99    0.29
   2  -7  -7    3.04    0.41
   2  -7  -7    3.11    0.41
   2  -7  -6   10.22    0.71
   2  -7  -5    2.33    0.36
   2  -6 -12    4.02    0.56
   2  -6 -11    2.68    0.44
   2  -6 -10   14.56    0.84
   2  -6 -10   14.24    0.92
   2  -6  -9    5.22    0.49
   2  -6  -9    5.23    0.52
   2  -6  -8    9.49    0.66
   2  -6  -8    9.08    0.68
   2  -6  -7   20.59    0.99
   2  -6  -6   28.47    1.20
   2  -5 -13    3.29    0.51
   2  -5 -12   12.43    0.87
   2  -5 -11    6.03    0.58
   2  -5 -10    0.41    0.21
   2  -5 -10    0.74    0.27
   2  -5  -9    1.52    0.26
   2  -5  -9    1.47    0.29
   2  -5  -8    8.23    0.55
   2  -5  -8    8.40    0.62
   2  -5  -7    2.60    0.32
   2  -5  -7    2.98    0.37
   2  -5  -3    5.84    0.40
   2  -5  -2   18.09    0.78
   2  -4 -13    5.12    0.59
   2  -4 -12   13.33    0.86
   2  -4 -11    4.08    0.47
   2  -4 -10   20.27    0.86
   2  -4 -10   19.96    1.00
   2  -4  -9    1.18    0.22
   2  -4  -9    1.15    0.26
   2  -4  -8   58.86    1.67
   2  -4  -8   55.88    1.80
   2  -4  -7   24.44    0.94
   2  -4  -7   27.53    1.08
   2  -4  -6   21.67    0.92
   2  -4  -3   10.38    0.50
   2  -4  -2    0.44    0.14
   2  -4  -1   33.59    1.11
   2  -3 -13   10.19    0.76
   2  -3 -12    8.62    0.66
   2  -3 -11    7.21    0.58
   2  -3 -10    7.61    0.56
   2  -3  -9   15.49    0.66
   2  -3  -9   15.16    0.78
   2  -3  -8   29.82    0.98
   2  -3  -8   32.02    1.16
   2  -3  -7   53.27    1.46
   2  -3  -7   56.00    1.64
   2  -3  -6   27.68    0.90
   2  -3  -6   26.94    1.00
   2  -3  -2    5.49    0.34
   2  -3  -1   20.83    0.77
   2  -3  -1   20.37    0.90
   2  -3   0   26.74    0.92
   2  -3   0   28.51    1.10
   2  -3   1   37.64    1.19
   2  -3   3   25.34    1.03
   2  -3   4   24.86    0.86
   2  -3   5   10.20    0.57
   2  -2 -13    9.72    0.98
   2  -2 -12   22.89    1.07
   2  -2 -12   22.31    1.41
   2  -2 -11   11.84    0.72
   2  -2 -11   12.63    1.00
   2  -2 -10   13.73    0.73
   2  -2 -10   14.04    0.99
   2  -2  -9   40.03    1.15
   2  -2  -9   41.37    1.36
   2  -2  -9   43.48    1.74
   2  -2  -8    8.94    0.42
   2  -2  -8    8.80    0.53
   2  -2  -8    9.87    0.73
   2  -2  -7   27.98    0.84
   2  -2  -7   27.63    0.98
   2  -2  -7   28.94    1.24
   2  -2  -7   29.44    1.23
   2  -2  -6   10.24    0.42
   2  -2  -6   10.26    0.52
   2  -2  -6   10.77    0.65
   2  -2  -6    9.16    0.61
   2  -2  -5   53.61    1.58
   2  -2  -5   49.29    1.55
   2  -2  -4   50.06    1.44
   2  -2  -3  467.81    9.39
   2  -2  -2  104.92    2.28
   2  -2  -1   84.47    2.02
   2  -2  -1   85.59    2.21
   2  -2   0   16.74    0.66
   2  -2   1   12.34    0.55
   2  -2   2  600.38   12.16
   2  -2   2  606.64   11.84
   2  -2   2  607.75   12.34
   2  -2   3  213.08    4.63
   2  -2   3  216.48    4.50
   2  -2   3  217.15    4.77
   2  -2   3  216.17    4.89
   2  -2   4   13.38    0.64
   2  -2   4   14.08    0.60
   2  -2   4   12.88    0.88
   2  -2   4   14.32    0.69
   2  -2   5   16.08    0.77
   2  -2   5   16.50    0.72
   2  -2   6   20.78    0.90
   2  -1 -13    1.34    0.49
   2  -1 -12    1.21    0.44
   2  -1 -11    0.15    0.29
   2  -1 -11    0.13    0.39
   2  -1 -10   18.92    0.85
   2  -1 -10   19.44    1.56
   2  -1 -10   20.11    1.22
   2  -1 -10   19.96    1.20
   2  -1  -9    5.78    0.62
   2  -1  -9    6.35    0.44
   2  -1  -9    5.97    0.62
   2  -1  -9    6.38    0.87
   2  -1  -8    2.73    0.43
   2  -1  -8    2.69    0.17
   2  -1  -8    3.14    0.61
   2  -1  -8    2.65    0.40
   2  -1  -8    2.47    0.27
   2  -1  -7   67.18    2.12
   2  -1  -7   65.41    1.47
   2  -1  -7   66.64    1.72
   2  -1  -7   65.42    2.12
   2  -1  -6   11.16    0.67
   2  -1  -6   10.40    0.35
   2  -1  -6    9.67    0.46
   2  -1  -6    9.05    0.62
   2  -1  -5   70.69    2.00
   2  -1  -5   70.08    1.53
   2  -1  -5   72.48    1.73
   2  -1  -5   71.75    2.01
   2  -1  -4  285.27    6.09
   2  -1  -4  286.58    6.09
   2  -1  -3  432.29    8.93
   2  -1  -3  448.65    8.91
   2  -1  -2   25.72    0.78
   2  -1  -2   26.54    0.75
   2  -1  -1    3.93    0.21
   2  -1   0    3.21    0.25
   2  -1   0    3.56    0.29
   2  -1   1   12.47    0.35
   2  -1   1   12.95    0.57
   2  -1   2  233.85    4.76
   2  -1   2  234.49    5.02
   2  -1   2  235.30    5.03
   2  -1   3  322.64    6.59
   2  -1   3  325.75    6.61
   2  -1   3  324.49    6.72
   2  -1   3  325.70    7.04
   2  -1   3  323.75    6.77
   2  -1   3  324.47    6.74
   2  -1   3  320.47    6.81
   2  -1   4   11.33    0.74
   2  -1   4   12.68    0.58
   2  -1   4   11.30    0.53
   2  -1   4   12.32    0.58
   2  -1   4   12.06    0.59
   2  -1   4   11.73    0.59
   2  -1   4   12.27    0.63
   2  -1   5    1.43    0.24
   2  -1   5    1.19    0.21
   2  -1   5    1.14    0.20
   2  -1   5    1.41    0.25
   2  -1   5    1.51    0.23
   2  -1   5    1.23    0.31
   2  -1   6   75.49    2.08
   2   0 -13    1.58    0.53
   2   0 -12    1.11    0.44
   2   0 -11    7.05    0.79
   2   0 -11    6.72    1.09
   2   0 -11    6.75    0.76
   2   0 -10    0.77    0.36
   2   0 -10    0.48    0.42
   2   0  -9    9.35    0.52
   2   0  -9    8.33    1.02
   2   0  -9    9.34    0.82
   2   0  -8   37.07    2.01
   2   0  -8   34.93    1.10
   2   0  -8   35.90    1.57
   2   0  -7    4.06    0.47
   2   0  -7    4.17    0.62
   2   0  -7    4.28    0.29
   2   0  -6   15.79    0.86
   2   0  -6   17.66    0.60
   2   0  -6   16.13    1.12
   2   0  -6   18.66    0.94
   2   0  -5  129.30    3.25
   2   0  -5  129.80    3.26
   2   0  -5  129.25    2.78
   2   0  -5  132.48    3.72
   2   0  -4    0.59    0.17
   2   0  -4    0.57    0.16
   2   0  -4    0.43    0.21
   2   0  -4    0.57    0.09
   2   0  -3   39.44    1.19
   2   0  -3   37.69    1.20
   2   0  -2  137.69    3.05
   2   0  -2  140.74    2.85
   2   0  -2  144.24    3.15
   2   0  -1  190.44    3.89
   2   0  -1  189.68    3.86
   2   0   0   57.61    1.27
   2   0   0   61.75    1.40
   2   0   1   18.76    0.67
   2   0   1   20.05    0.65
   2   0   1   19.70    0.65
   2   0   1   20.17    0.68
   2   0   2   77.38    1.83
   2   0   2   77.88    1.83
   2   0   2   76.11    1.78
   2   0   2   74.07    1.70
   2   0   3    0.37    0.11
   2   0   3    0.54    0.15
   2   0   3    0.60    0.15
   2   0   3    0.88    0.15
   2   0   3    0.43    0.12
   2   0   4   38.90    1.16
   2   0   4   38.92    1.13
   2   0   4   38.38    1.16
   2   0   4   36.97    1.17
   2   0   4   38.82    1.16
   2   0   5   33.65    1.14
   2   0   5   35.10    1.09
   2   0   5   34.67    1.12
   2   0   5   35.03    1.14
   2   0   5   33.35    1.12
   2   0   5   36.19    1.16
   2   0   6   26.87    1.05
   2   0   6   28.06    1.05
   2   0   6   25.89    0.94
   2   0   6   26.21    1.00
   2   1 -12    0.52    0.39
   2   1 -11    2.92    0.59
   2   1 -11    2.68    0.57
   2   1 -10    6.86    0.78
   2   1 -10    7.82    1.10
   2   1 -10    5.31    0.68
   2   1  -9    3.12    0.53
   2   1  -9    3.79    0.54
   2   1  -9    3.26    0.70
   2   1  -8    2.88    0.62
   2   1  -8    2.81    0.47
   2   1  -8    2.76    0.26
   2   1  -8    3.47    0.49
   2   1  -7    1.19    0.31
   2   1  -7    0.81    0.39
   2   1  -7    0.70    0.13
   2   1  -7    0.85    0.26
   2   1  -6    6.50    0.56
   2   1  -6    6.86    0.76
   2   1  -6    6.09    0.54
   2   1  -6    6.08    0.29
   2   1  -5   36.04    1.37
   2   1  -5   37.41    1.71
   2   1  -5   37.20    0.91
   2   1  -4    0.27    0.20
   2   1  -4    0.48    0.17
   2   1  -4    0.29    0.05
   2   1  -3    4.22    0.36
   2   1  -3    4.75    0.48
   2   1  -2   95.51    2.33
   2   1  -2   99.53    2.59
   2   1  -2   95.79    1.95
   2   1  -1   76.74    1.89
   2   1  -1   76.91    1.71
   2   1  -1   79.36    1.68
   2   1   0  121.01    2.62
   2   1   0  125.57    2.62
   2   1   1  287.18    5.87
   2   1   1  291.11    5.86
   2   1   2   37.46    1.04
   2   1   2   36.54    1.02
   2   1   2   36.86    0.93
   2   1   3   29.07    0.83
   2   1   3   28.55    0.78
   2   1   4  131.61    2.88
   2   1   4  129.41    2.96
   2   1   4  130.94    2.83
   2   1   4  128.09    2.98
   2   1   5   42.82    1.20
   2   1   5   44.84    1.30
   2   1   5   43.52    1.31
   2   1   5   44.59    1.22
   2   1   5   44.01    1.36
   2   1   6   40.91    1.23
   2   1   6   44.56    1.34
   2   1   6   45.33    1.30
   2   1   6   45.39    1.45
   2   1   7    6.38    0.40
   2   1   7    5.51    0.41
   2   2 -12    0.55    0.46
   2   2 -11    3.12    0.62
   2   2 -10    1.30    0.44
   2   2  -9   11.74    0.96
   2   2  -8   21.66    1.23
   2   2  -7    4.39    0.53
   2   2  -6    2.11    0.37
   2   2  -6    2.37    0.40
   2   2  -5   21.40    1.06
   2   2  -5   20.31    1.03
   2   2  -4    4.97    0.46
   2   2  -4    4.56    0.44
   2   2  -3   26.06    1.06
   2   2  -3   24.98    1.05
   2   2  -2  336.99    7.24
   2   2  -2  344.96    7.28
   2   2  -1  347.99    7.43
   2   2  -1  356.08    6.92
   2   2   0   22.82    0.63
   2   2   0   24.77    0.69
   2   2   1    0.14    0.07
   2   2   1    0.06    0.07
   2   2   2   76.45    1.83
   2   2   2   77.52    1.81
   2   2   3   35.51    1.03
   2   2   4  131.67    2.80
   2   2   4  124.61    2.94
   2   2   4  133.81    2.97
   2   2   4  130.32    2.67
   2   2   5   75.16    1.76
   2   2   5   73.28    1.91
   2   2   5   72.40    1.67
   2   2   5   77.92    2.08
   2   2   6   33.99    0.99
   2   2   6   32.97    0.95
   2   2   7   21.77    0.75
   2   2   7   21.13    0.77
   2   2   8   22.87    0.82
   2   2   8   24.26    0.90
   2   2   9   47.11    1.38
   2   3 -11    0.72    0.45
   2   3 -10    2.91    0.63
   2   3 -10    2.54    0.58
   2   3  -9    1.59    0.48
   2   3  -9    1.93    0.46
   2   3  -8   33.27    1.63
   2   3  -7   21.93    1.23
   2   3  -6    7.84    0.69
   2   3  -5    8.72    0.68
   2   3  -4    3.96    0.45
   2   3  -3    5.83    0.51
   2   3  -2   93.70    2.57
   2   3  -1  141.25    3.49
   2   3   0   44.59    1.05
   2   3   1   78.68    1.77
   2   3   2   75.65    1.85
   2   3   2   75.56    1.78
   2   3   3   95.96    2.29
   2   3   3   96.47    2.24
   2   3   4  235.03    4.99
   2   3   6    8.91    0.32
   2   3   7    4.57    0.27
   2   3   7    4.38    0.27
   2   3   8    2.69    0.23
   2   3   8    2.78    0.25
   2   4 -10    6.02    0.84
   2   4  -9   12.46    1.13
   2   4  -9   13.17    1.11
   2   4  -8    4.49    0.67
   2   4  -8    2.55    0.53
   2   4  -7    0.20    0.31
   2   4  -7   -0.37    0.32
   2   4  -6    3.34    0.50
   2   4  -6    3.12    0.54
   2   4  -5    8.88    0.78
   2   4  -5    8.97    0.73
   2   4  -4    4.34    0.54
   2   4  -4    4.57    0.51
   2   4  -3    8.22    0.64
   2   4  -2    3.69    0.42
   2   4   2   39.98    1.10
   2   4   3   18.76    0.69
   2   4   4    4.35    0.32
   2   4   7   10.93    0.34
   2   4   7   10.73    0.36
   2   5  -9    2.88    0.62
   2   5  -8   18.36    1.36
   2   5  -8   16.84    1.24
   2   5  -7    4.91    0.66
   2   5  -7    6.70    0.83
   2   5  -6   11.53    0.98
   2   5  -6   12.56    0.97
   2   5  -5    5.78    0.64
   2   5  -5    4.40    0.60
   2   5  -4    1.12    0.34
   2   5  -4    1.58    0.40
   2   5  -3   17.63    1.11
   2   5  -3   18.61    1.06
   2   5  -2    0.51    0.25
   2   5  -2    0.54    0.27
   2   5  -1   16.78    1.01
   2   6  -7    8.01    0.99
   2   6  -7    8.29    0.88
   2   6  -6   19.28    1.37
   2   6  -6   16.41    1.18
   2   6  -5    1.59    0.42
   2   6  -5    2.53    0.56
   2   6  -4    5.00    0.61
   2   6  -4    4.35    0.64
   2   6  -3    3.19    0.55
   2   6  -3    2.67    0.46
   2   6  -2   13.69    1.00
   2   6  -2   15.07    0.96
   2   6  -1   14.23    1.01
   2   7  -5    6.99    0.90
   2   7  -4   15.55    1.25
   2   7  -4   16.47    1.13
   2   7  -3   10.61    1.00
   2   7  -3   11.41    0.92
   2   7  -2   10.61    0.96
   2   7  -2   12.11    0.91
   2   7  -1   15.13    1.10
   2   7  -1   14.14    0.96
   2   7   0    9.73    0.88
   2   8  -3   14.88    1.27
   2   8  -2    2.99    0.62
   2   8  -1    1.35    0.49
   2   8   0    7.12    0.82
   2   8   1   11.05    1.00
   2   9   1    1.37    0.52
   3  -8  -8    1.66    0.36
   3  -8  -8    1.82    0.40
   3  -8  -7    1.03    0.31
   3  -8  -6    8.17    0.70
   3  -7 -10   13.10    0.94
   3  -7  -9    2.34    0.38
   3  -7  -9    2.21    0.38
   3  -7  -8    0.14    0.21
   3  -7  -7    2.03    0.38
   3  -6 -12    2.08    0.43
   3  -6 -11    7.36    0.69
   3  -6 -10   12.06    0.86
   3  -6  -9    1.38    0.28
   3  -6  -9    1.56    0.34
   3  -6  -8    6.82    0.56
   3  -6  -8    6.29    0.58
   3  -6  -7    5.92    0.55
   3  -5 -12    0.32    0.26
   3  -5 -11   11.78    0.83
   3  -5 -10    9.47    0.72
   3  -5  -9    5.59    0.46
   3  -5  -9    5.96    0.56
   3  -5  -8    6.25    0.49
   3  -5  -8    5.35    0.51
   3  -5  -7   10.71    0.70
   3  -4 -13    4.98    0.57
   3  -4 -12    6.40    0.61
   3  -4 -11    3.07    0.42
   3  -4 -10    5.77    0.54
   3  -4  -9   20.29    0.84
   3  -4  -9   21.96    1.03
   3  -4  -8    5.45    0.40
   3  -4  -8    4.13    0.43
   3  -4  -7    0.71    0.19
   3  -3 -13    1.69    0.80
   3  -3 -12    2.26    0.76
   3  -3 -12    3.03    0.42
   3  -3 -11    6.22    0.54
   3  -3 -10    1.49    0.29
   3  -3  -9    7.58    0.55
   3  -3  -8   17.96    0.68
   3  -3  -8   17.50    0.84
   3  -3  -7   18.66    0.71
   3  -3  -7   19.99    0.87
   3  -3  -2   18.14    0.76
   3  -3  -1   67.19    1.85
   3  -3   3   20.23    0.61
   3  -2 -13    0.17    0.38
   3  -2 -13    0.15    0.54
   3  -2 -12    2.53    0.77
   3  -2 -12    2.45    0.53
   3  -2 -11    3.98    0.61
   3  -2 -11    4.84    0.45
   3  -2 -11    4.87    0.92
   3  -2 -10    7.92    0.55
   3  -2 -10    7.67    1.02
   3  -2 -10    9.21    0.80
   3  -2  -9   15.00    0.74
   3  -2  -9   15.94    1.01
   3  -2  -9   14.09    0.96
   3  -2  -8   33.52    1.43
   3  -2  -8   30.81    1.11
   3  -2  -8   30.43    1.37
   3  -2  -7   13.03    0.81
   3  -2  -7   14.20    0.51
   3  -2  -7   13.51    0.67
   3  -2  -7   14.11    0.83
   3  -2  -6    5.45    0.47
   3  -2  -6    5.37    0.47
   3  -2  -5   57.57    1.76
   3  -2  -5   61.56    1.76
   3  -2  -4   10.03    0.54
   3  -2  -3   46.85    1.30
   3  -2  -2   41.68    1.10
   3  -2  -1   19.00    0.54
   3  -2  -1   18.84    0.76
   3  -2   0  183.26    4.10
   3  -2   0  180.41    4.27
   3  -2   1    8.21    0.25
   3  -2   1    8.52    0.51
   3  -2   1    8.61    0.58
   3  -2   2   73.91    1.63
   3  -2   3   98.28    2.32
   3  -2   3  100.72    2.24
   3  -2   4   23.84    0.88
   3  -2   4   25.09    0.84
   3  -2   5    3.83    0.34
   3  -2   5    4.13    0.38
   3  -2   6   11.97    0.65
   3  -1 -13    4.08    0.72
   3  -1 -12    9.23    0.95
   3  -1 -12    8.95    1.28
   3  -1 -11    0.15    0.32
   3  -1 -11    0.13    0.50
   3  -1 -11    0.59    0.37
   3  -1 -10    3.89    0.77
   3  -1 -10    3.40    0.54
   3  -1 -10    2.96    0.52
   3  -1 -10    3.63    0.36
   3  -1  -9    1.48    0.37
   3  -1  -9    0.85    0.32
   3  -1  -9    0.93    0.20
   3  -1  -9    0.84    0.43
   3  -1  -8   50.09    1.90
   3  -1  -8   50.72    1.46
   3  -1  -8   49.40    2.38
   3  -1  -8   48.24    1.85
   3  -1  -7   11.55    0.78
   3  -1  -7   10.40    0.29
   3  -1  -7   11.11    0.53
   3  -1  -7    9.97    0.98
   3  -1  -7   11.55    0.77
   3  -1  -6   21.78    1.02
   3  -1  -6   20.89    0.54
   3  -1  -6   20.19    0.75
   3  -1  -6   20.23    0.97
   3  -1  -5   21.89    0.98
   3  -1  -5   24.93    1.00
   3  -1  -4   25.94    1.00
   3  -1  -4   26.83    0.97
   3  -1  -3  107.72    2.64
   3  -1  -3  112.05    2.56
   3  -1  -2  121.17    2.78
   3  -1  -2  123.09    2.65
   3  -1  -1   99.64    2.27
   3  -1   0  137.49    3.17
   3  -1   1   44.24    1.41
   3  -1   2  107.48    2.27
   3  -1   2  109.65    2.63
   3  -1   2  107.92    2.72
   3  -1   3  195.89    4.14
   3  -1   3  199.01    4.57
   3  -1   3  202.02    4.46
   3  -1   3  198.02    4.50
   3  -1   3  198.77    4.52
   3  -1   4    8.29    0.61
   3  -1   4    7.25    0.41
   3  -1   4    7.54    0.53
   3  -1   4    7.31    0.42
   3  -1   5   50.04    1.48
   3  -1   5   50.71    1.49
   3  -1   5   51.87    1.87
   3  -1   6   37.92    1.31
   3  -1   6   38.32    1.29
   3   0 -12    7.98    0.92
   3   0 -12    8.43    1.26
   3   0 -11    3.84    0.64
   3   0 -11    3.60    0.85
   3   0 -11    3.40    0.61
   3   0 -10    2.24    0.48
   3   0 -10    2.61    0.69
   3   0 -10    3.79    0.58
   3   0  -9    0.97    0.36
   3   0  -9    0.06    0.23
   3   0  -9    0.33    0.34
   3   0  -8    4.16    0.53
   3   0  -8    5.32    0.34
   3   0  -8    5.51    0.80
   3   0  -8    5.18    0.58
   3   0  -7    6.82    0.62
   3   0  -7    7.22    0.84
   3   0  -7    6.98    0.38
   3   0  -6   78.83    2.38
   3   0  -6   78.28    1.85
   3   0  -6   76.96    2.84
   3   0  -6   76.18    2.34
   3   0  -5   38.17    1.36
   3   0  -5   34.26    1.34
   3   0  -5   37.63    1.69
   3   0  -4   31.38    1.13
   3   0  -4   33.65    1.23
   3   0  -4   31.86    0.72
   3   0  -4   32.25    1.43
   3   0  -3   14.52    0.65
   3   0  -3   15.19    0.46
   3   0  -3   14.23    0.70
   3   0  -3   15.98    0.87
   3   0  -2  130.24    2.91
   3   0  -2  130.75    2.78
   3   0  -2  128.80    3.05
   3   0  -1    2.22    0.18
   3   0  -1    2.27    0.20
   3   0   0   43.75    1.03
   3   0   0   44.31    1.20
   3   0   1   67.69    1.80
   3   0   1   67.11    1.72
   3   0   2   76.12    1.99
   3   0   2   75.98    1.94
   3   0   2   76.31    1.96
   3   0   2   76.80    1.73
   3   0   2   77.19    1.98
   3   0   2   75.03    1.70
   3   0   3   24.70    0.89
   3   0   3   22.95    0.87
   3   0   3   23.28    0.75
   3   0   4   44.54    1.37
   3   0   4   46.54    1.44
   3   0   4   45.07    1.37
   3   0   4   43.86    1.27
   3   0   5   41.41    1.29
   3   0   5   41.66    1.34
   3   0   6    2.68    0.33
   3   1 -12    0.75    0.49
   3   1 -12    2.19    0.60
   3   1 -11    7.92    0.91
   3   1 -11    7.83    0.90
   3   1 -10    1.10    0.43
   3   1 -10    0.40    0.51
   3   1 -10    0.76    0.39
   3   1  -9    3.39    0.59
   3   1  -9    5.19    0.90
   3   1  -8   28.06    1.83
   3   1  -8   22.84    1.30
   3   1  -7   33.86    1.50
   3   1  -7   33.21    1.91
   3   1  -7   33.15    0.91
   3   1  -6  108.32    3.03
   3   1  -6  108.73    3.62
   3   1  -6  104.10    2.28
   3   1  -5   95.46    2.68
   3   1  -5   98.34    3.18
   3   1  -5   93.24    2.70
   3   1  -5   95.52    2.05
   3   1  -4   13.34    0.73
   3   1  -4   13.79    0.92
   3   1  -4   12.91    0.75
   3   1  -3   65.01    1.84
   3   1  -3   64.06    2.12
   3   1  -3   65.24    1.92
   3   1  -3   64.26    1.36
   3   1  -2   21.40    0.85
   3   1  -2   24.05    1.02
   3   1  -2   22.43    0.62
   3   1  -2   22.74    0.93
   3   1  -1   44.77    1.28
   3   1  -1   44.44    1.21
   3   1  -1   46.34    1.14
   3   1   0   43.96    1.20
   3   1   0   42.08    1.14
   3   1   1   33.50    1.03
   3   1   1   33.39    1.00
   3   1   2   62.92    1.65
   3   1   2   59.88    1.60
   3   1   3   20.28    0.79
   3   1   3   19.73    0.77
   3   1   3   20.00    0.75
   3   1   3   19.86    0.71
   3   1   4   23.26    0.85
   3   1   4   22.69    0.84
   3   1   5   45.54    1.35
   3   1   5   46.06    1.30
   3   1   5   42.96    1.37
   3   1   6  109.85    2.67
   3   1   6  105.12    2.61
   3   1   6  111.34    2.78
   3   1   7   11.80    0.62
   3   2 -11    0.56    0.45
   3   2 -11    0.63    0.43
   3   2 -10    1.02    0.46
   3   2 -10    0.57    0.41
   3   2  -9    0.76    0.41
   3   2  -9   -0.07    0.27
   3   2  -8    1.76    0.42
   3   2  -8    2.47    0.46
   3   2  -7   25.13    1.33
   3   2  -7   23.97    1.31
   3   2  -6   33.98    1.50
   3   2  -6   33.61    1.50
   3   2  -5    2.43    0.38
   3   2  -5    2.40    0.38
   3   2  -4   34.53    1.37
   3   2  -3   71.35    2.09
   3   2  -3   68.62    1.43
   3   2  -2   91.36    2.43
   3   2  -2   89.09    1.91
   3   2  -1   32.94    1.17
   3   2  -1   33.56    0.88
   3   2  -1   33.39    0.91
   3   2   0   32.86    0.91
   3   2   0   31.15    0.92
   3   2   1  203.78    4.30
   3   2   1  203.46    4.33
   3   2   2   14.24    0.59
   3   2   2   14.83    0.61
   3   2   3   81.83    2.05
   3   2   3   79.39    2.02
   3   2   4    5.29    0.39
   3   2   4    6.63    0.43
   3   2   5    5.29    0.35
   3   2   5    6.01    0.31
   3   2   5    6.58    0.48
   3   2   6  140.64    3.20
   3   2   6  138.80    3.07
   3   2   7   12.80    0.61
   3   2   7   13.01    0.57
   3   2   8   73.50    1.94
   3   3 -10    0.36    0.42
   3   3 -10    1.05    0.46
   3   3  -9    4.97    0.73
   3   3  -9    4.56    0.69
   3   3  -8    0.90    0.39
   3   3  -8    0.51    0.35
   3   3  -7    0.60    0.29
   3   3  -7    0.68    0.33
   3   3  -6    4.54    0.57
   3   3  -6    3.90    0.53
   3   3  -5   10.69    0.82
   3   3  -5   10.13    0.78
   3   3  -4   24.17    1.20
   3   3  -4   25.32    1.23
   3   3  -3    2.79    0.39
   3   3  -3    2.70    0.38
   3   3  -2    3.37    0.40
   3   3  -1    4.38    0.42
   3   3  -1    4.35    0.20
   3   3   0   63.91    1.48
   3   3   1   11.29    0.51
   3   3   1   11.89    0.47
   3   3   2   61.18    1.62
   3   3   2   60.47    1.56
   3   3   3  114.62    2.72
   3   3   3  113.82    2.67
   3   3   6   61.07    1.32
   3   3   7   38.01    0.99
   3   4  -9    4.21    0.71
   3   4  -8    2.70    0.57
   3   4  -7    6.01    0.73
   3   4  -7    5.14    0.69
   3   4  -6    9.52    0.87
   3   4  -6   10.11    0.87
   3   4  -5   11.70    0.93
   3   4  -5   13.86    0.96
   3   4  -4   45.83    1.86
   3   4  -4   45.42    1.83
   3   4  -3    8.34    0.72
   3   4  -3    7.01    0.64
   3   4  -2    9.50    0.74
   3   4  -1    2.31    0.36
   3   4   0    5.16    0.26
   3   4   1  157.38    3.38
   3   4   2   24.10    0.79
   3   4   3   24.55    0.85
   3   5  -8    2.81    0.60
   3   5  -7    5.64    0.76
   3   5  -6    1.47    0.45
   3   5  -5    1.36    0.40
   3   5  -4   19.01    1.16
   3   5  -3    3.81    0.55
   3   5  -3    4.54    0.57
   3   5  -2   11.13    0.88
   3   5  -2   11.92    0.86
   3   5  -1    6.83    0.67
   3   5   2  161.93    3.54
   3   6  -7   15.92    1.26
   3   6  -6   10.18    0.98
   3   6  -6    8.46    0.97
   3   6  -5   -0.07    0.31
   3   6  -5    0.43    0.39
   3   6  -4    7.18    0.77
   3   6  -3    2.71    0.50
   3   6  -2    0.63    0.33
   3   7  -5    0.95    0.46
   3   7  -4    3.68    0.62
   3   7  -4    4.65    0.76
   3   7  -3    3.78    0.67
   3   7  -3    5.18    0.68
   3   7  -2    2.43    0.54
   3   7  -2    2.21    0.49
   3   7  -1    2.17    0.51
   3   7  -1    2.73    0.49
   3   8  -2   14.74    1.26
   3   8  -2   15.94    1.18
   3   8  -1    0.53    0.40
   3   8  -1    0.73    0.37
   3   8   0    3.94    0.68
   3   8   1   15.29    1.19
   3   9   2    2.73    0.65
   4  -7  -9   24.40    1.31
   4  -7  -8    8.97    0.75
   4  -6 -11    1.99    0.45
   4  -6 -10    0.17    0.26
   4  -6  -9    9.14    0.74
   4  -6  -8    2.37    0.41
   4  -5 -11    0.79    0.30
   4  -5 -10    6.12    0.60
   4  -5  -9    2.00    0.35
   4  -5  -8    3.00    0.41
   4  -4 -12    2.90    0.45
   4  -4 -11    1.04    0.28
   4  -4 -10    3.97    0.46
   4  -4  -9    3.64    0.44
   4  -4  -8    0.49    0.20
   4  -3 -12   16.44    1.72
   4  -3 -11    1.36    0.30
   4  -3 -10    7.89    0.59
   4  -3  -9    2.51    0.34
   4  -3  -8    3.42    0.37
   4  -3  -7    3.22    0.41
   4  -3  -6    3.91    0.41
   4  -3  -5   16.37    0.78
   4  -3  -4   14.19    0.65
   4  -3  -3    1.50    0.19
   4  -2 -12    4.80    1.02
   4  -2 -12    6.14    0.80
   4  -2 -11    0.50    0.33
   4  -2 -11    0.13    0.45
   4  -2 -10    4.04    0.58
   4  -2 -10    4.34    0.60
   4  -2 -10    3.39    0.78
   4  -2 -10    3.87    0.40
   4  -2  -9    3.75    0.51
   4  -2  -9    3.12    0.50
   4  -2  -9    3.36    0.36
   4  -2  -8   23.31    1.21
   4  -2  -8   21.04    0.90
   4  -2  -8   20.78    1.10
   4  -2  -7    3.34    0.41
   4  -2  -7    3.37    0.45
   4  -2  -6   30.82    1.26
   4  -2  -6   29.60    1.19
   4  -2  -5   -0.06    0.14
   4  -2  -5    0.07    0.14
   4  -2  -4    8.90    0.54
   4  -2  -3    4.65    0.35
   4  -2  -2   22.43    0.77
   4  -2  -1   14.15    0.51
   4  -2   0   19.29    0.58
   4  -2   3    9.18    0.41
   4  -2   4    6.52    0.38
   4  -2   4    6.00    0.37
   4  -2   4    5.89    0.62
   4  -1 -12    0.25    0.38
   4  -1 -12    0.43    0.39
   4  -1 -12    0.30    0.62
   4  -1 -11    1.82    0.48
   4  -1 -11    2.17    0.73
   4  -1 -11    1.80    0.49
   4  -1 -10    3.81    0.60
   4  -1 -10    2.95    0.81
   4  -1  -9    0.11    0.34
   4  -1  -9    0.18    0.26
   4  -1  -9    0.26    0.27
   4  -1  -9    0.16    0.13
   4  -1  -8   32.97    1.52
   4  -1  -8   33.90    1.13
   4  -1  -8   32.23    1.93
   4  -1  -8   32.23    1.47
   4  -1  -7    2.36    0.38
   4  -1  -7    2.52    0.56
   4  -1  -7    2.12    0.40
   4  -1  -7    2.00    0.24
   4  -1  -6   21.53    1.06
   4  -1  -6   19.76    0.98
   4  -1  -5    5.92    0.50
   4  -1  -5    5.08    0.44
   4  -1  -4   10.33    0.62
   4  -1  -4   10.24    0.56
   4  -1  -3   36.09    1.22
   4  -1  -3   35.73    1.08
   4  -1  -2    0.32    0.10
   4  -1  -2    0.31    0.12
   4  -1  -1    1.25    0.19
   4  -1   0    9.88    0.53
   4  -1   3   58.52    1.38
   4  -1   3   57.69    1.75
   4  -1   4   26.83    0.85
   4  -1   4   25.79    1.13
   4  -1   5   11.79    0.57
   4  -1   5   10.85    0.78
   4  -1   5   10.24    0.57
   4   0 -12    8.26    0.96
   4   0 -12    8.18    1.38
   4   0 -11    0.98    0.47
   4   0 -11    0.75    0.43
   4   0 -11    1.00    0.58
   4   0 -10    0.30    0.33
   4   0 -10   -0.13    0.44
   4   0 -10    0.15    0.30
   4   0  -9   11.77    1.27
   4   0  -9   13.08    1.01
   4   0  -9   12.54    0.98
   4   0  -8    8.22    0.75
   4   0  -8    7.60    0.96
   4   0  -8    8.52    0.76
   4   0  -7    7.84    0.89
   4   0  -7    8.26    0.43
   4   0  -7    6.57    0.65
   4   0  -7    8.48    0.70
   4   0  -6   44.15    1.70
   4   0  -6   45.65    2.09
   4   0  -6   44.16    1.65
   4   0  -5   51.81    1.52
   4   0  -5   49.75    1.58
   4   0  -5   52.61    1.99
   4   0  -4   37.01    1.29
   4   0  -4   38.21    1.39
   4   0  -4   36.72    0.92
   4   0  -4   33.42    1.54
   4   0  -3   53.05    1.54
   4   0  -3   53.51    1.34
   4   0  -3   55.28    1.71
   4   0  -3   54.52    1.88
   4   0  -2   39.11    1.15
   4   0  -2   40.61    1.12
   4   0  -2   38.65    1.32
   4   0  -2   39.87    1.39
   4   0  -1   22.67    0.71
   4   0  -1   22.68    0.80
   4   0  -1   22.49    0.84
   4   0   0    2.01    0.16
   4   0   0    2.20    0.24
   4   0   0    1.74    0.27
   4   0   0    2.04    0.18
   4   0   1   39.31    0.96
   4   0   1   40.97    1.34
   4   0   1   40.11    1.25
   4   0   2   48.70    1.17
   4   0   3    9.78    0.60
   4   0   3   10.21    0.43
   4   0   4    7.35    0.41
   4   0   4    7.69    0.53
   4   0   5   17.09    0.72
   4   0   6   27.25    1.04
   4   1 -11    1.60    0.52
   4   1 -10    8.03    0.87
   4   1 -10    5.99    0.77
   4   1  -9    0.88    0.37
   4   1  -9    0.87    0.55
   4   1  -9    0.66    0.33
   4   1  -8   25.07    1.39
   4   1  -8   24.20    1.76
   4   1  -8   25.72    1.39
   4   1  -7    2.17    0.43
   4   1  -7    3.43    0.51
   4   1  -7    3.42    0.67
   4   1  -6  123.67    3.41
   4   1  -6  122.59    3.47
   4   1  -6  122.54    4.01
   4   1  -6  121.25    2.64
   4   1  -5  182.39    4.44
   4   1  -5  180.41    5.02
   4   1  -5  175.59    4.51
   4   1  -4   36.79    1.38
   4   1  -4   38.63    1.71
   4   1  -4   37.35    1.46
   4   1  -3    9.13    0.58
   4   1  -3    9.82    0.73
   4   1  -3    9.81    0.37
   4   1  -3    9.26    0.64
   4   1  -2    7.54    0.49
   4   1  -2    7.53    0.44
   4   1  -2    8.42    0.38
   4   1  -1    4.83    0.35
   4   1  -1    4.28    0.34
   4   1  -1    4.08    0.28
   4   1   0   25.06    0.85
   4   1   0   25.58    0.93
   4   1   0   25.47    0.86
   4   1   1    1.31    0.21
   4   1   1    1.49    0.22
   4   1   2   39.37    1.28
   4   1   2   38.28    1.23
   4   1   4    5.95    0.42
   4   1   4    5.88    0.39
   4   1   5   12.63    0.64
   4   1   5   13.05    0.65
   4   1   6   91.17    2.39
   4   1   6   92.25    2.44
   4   2 -10    1.59    0.54
   4   2 -10    1.99    0.55
   4   2  -9   15.19    1.16
   4   2  -8    1.49    0.43
   4   2  -7    5.16    0.63
   4   2  -6   57.64    2.13
   4   2  -5   40.80    1.63
   4   2  -5   37.25    1.61
   4   2  -4   26.54    1.21
   4   2  -4   26.27    1.27
   4   2  -3    6.73    0.55
   4   2  -3    5.71    0.30
   4   2  -3    5.70    0.55
   4   2  -2   10.64    0.45
   4   2  -2    9.90    0.41
   4   2  -1   24.52    1.00
   4   2  -1   25.66    0.82
   4   2  -1   24.44    0.79
   4   2   0   25.37    1.00
   4   2   0   26.95    0.88
   4   2   0   25.46    0.86
   4   2   1   21.45    0.80
   4   2   1   21.02    0.79
   4   2   2   18.45    0.77
   4   2   2   20.12    0.80
   4   2   5    7.70    0.53
   4   2   6   45.66    1.32
   4   3 -10    1.04    0.53
   4   3  -9   13.32    1.16
   4   3  -9   13.65    1.15
   4   3  -8    1.19    0.44
   4   3  -8    1.34    0.45
   4   3  -7    1.02    0.40
   4   3  -7    1.00    0.40
   4   3  -6   11.21    0.91
   4   3  -6   11.60    0.92
   4   3  -5    3.94    0.53
   4   3  -5    3.76    0.53
   4   3  -4    8.37    0.71
   4   3  -3    7.93    0.66
   4   3  -2   20.38    1.03
   4   3  -2   19.94    0.56
   4   3  -1   15.08    0.85
   4   3  -1   15.54    0.53
   4   3   0    6.24    0.34
   4   3   0    5.84    0.37
   4   3   1    0.32    0.14
   4   3   1    0.45    0.13
   4   3   2   33.95    1.08
   4   4  -9    5.69    0.86
   4   4  -8    6.44    0.84
   4   4  -8    5.88    0.82
   4   4  -7   11.01    1.01
   4   4  -7    7.87    0.85
   4   4  -6   12.74    1.03
   4   4  -6   13.97    1.06
   4   4  -5    1.99    0.46
   4   4  -5    2.33    0.47
   4   4  -4    8.45    0.79
   4   4  -4    8.43    0.78
   4   4  -3    3.51    0.50
   4   4  -3    4.07    0.54
   4   4  -2   12.10    0.86
   4   4  -1    4.87    0.53
   4   4   0   15.29    0.93
   4   4   0   17.44    0.59
   4   4   1    0.24    0.12
   4   4   2   36.39    1.11
   4   5  -7    0.09    0.37
   4   5  -7    0.27    0.38
   4   5  -6    2.40    0.54
   4   5  -6    1.52    0.48
   4   5  -5    2.41    0.53
   4   5  -5    2.45    0.53
   4   5  -4    2.96    0.54
   4   5  -4    1.78    0.44
   4   5  -3    4.40    0.59
   4   5  -3    3.38    0.53
   4   5  -2   21.90    1.27
   4   5  -2   23.51    1.31
   4   5  -1    4.59    0.58
   4   5   0   12.84    0.91
   4   6  -6    0.60    0.41
   4   6  -6    0.10    0.44
   4   6  -5    2.28    0.53
   4   6  -5    2.88    0.66
   4   6  -4    0.51    0.40
   4   6  -4   -0.08    0.31
   4   6  -3    1.27    0.43
   4   6  -3    2.08    0.48
   4   6  -2   19.73    1.28
   4   6  -2   19.98    1.27
   4   6  -1    9.13    0.84
   4   6   0    3.74    0.56
   4   7  -4    3.25    0.70
   4   7  -4    3.26    0.63
   4   7  -3    1.62    0.53
   4   7  -3    1.29    0.47
   4   7  -2    2.82    0.60
   4   7  -2    1.17    0.45
   4   7  -1   11.89    1.05
   4   7   0    3.86    0.63
   4   7   1    2.91    0.53
   4   8  -1   14.92    1.20
   4   8   1    1.49    0.49
   5  -6  -9    0.73    0.32
   5  -5 -10    6.52    0.64
   5  -5  -9    3.80    0.50
   5  -4 -11    2.20    0.40
   5  -4 -10    1.13    0.31
   5  -4  -9    2.49    0.39
   5  -3 -11    2.10    0.77
   5  -3 -10    3.95    0.45
   5  -3  -9    0.32    0.21
   5  -3  -8    3.49    0.49
   5  -3  -7    4.41    0.48
   5  -3  -6    4.94    0.48
   5  -3  -5   15.60    0.79
   5  -3  -4   28.26    1.03
   5  -3  -3   30.07    0.98
   5  -3  -2    0.71    0.13
   5  -2 -11    1.51    0.70
   5  -2 -11    1.94    0.49
   5  -2 -11    1.94    0.51
   5  -2 -10    4.83    0.62
   5  -2 -10    3.59    0.58
   5  -2 -10    3.77    0.92
   5  -2  -9    0.17    0.28
   5  -2  -9    1.03    0.45
   5  -2  -9    0.83    0.37
   5  -2  -9    0.95    0.22
   5  -2  -8    1.39    0.35
   5  -2  -8    1.60    0.39
   5  -2  -8    1.18    0.24
   5  -2  -7    5.87    0.59
   5  -2  -7    6.31    0.56
   5  -2  -6    0.11    0.17
   5  -2  -6    0.04    0.19
   5  -2  -5    9.93    0.66
   5  -2  -4    4.16    0.40
   5  -2  -3    0.79    0.20
   5  -2  -2   22.06    0.82
   5  -2  -1    3.21    0.27
   5  -2   0   97.23    2.23
   5  -2   1   26.93    0.81
   5  -1 -11    3.30    0.61
   5  -1 -11    3.31    0.64
   5  -1 -11    1.82    0.73
   5  -1 -10    4.54    0.63
   5  -1 -10    4.58    0.92
   5  -1 -10    4.92    0.70
   5  -1  -9   13.38    1.02
   5  -1  -9   11.23    1.25
   5  -1  -9   12.73    0.95
   5  -1  -8    7.82    0.74
   5  -1  -8    7.45    0.48
   5  -1  -8    7.93    0.71
   5  -1  -8    7.06    0.96
   5  -1  -7    0.99    0.31
   5  -1  -7    0.91    0.41
   5  -1  -7    1.37    0.35
   5  -1  -6    6.33    0.55
   5  -1  -6    5.34    0.56
   5  -1  -5   32.79    1.35
   5  -1  -5   33.56    1.24
   5  -1  -4   18.09    0.90
   5  -1  -4   15.92    0.73
   5  -1  -3   21.31    0.95
   5  -1  -3   22.61    0.83
   5  -1  -3   21.26    0.77
   5  -1  -2   14.90    0.69
   5  -1  -2   17.03    0.78
   5  -1  -2   15.75    0.53
   5  -1  -1   34.69    1.17
   5  -1   2   20.09    0.78
   5   0 -11    6.02    0.81
   5   0 -11    5.16    1.08
   5   0 -11    5.89    0.82
   5   0 -10    8.45    0.88
   5   0 -10    6.76    0.82
   5   0  -9    0.75    0.37
   5   0  -9    0.36    0.47
   5   0  -9    0.59    0.36
   5   0  -8    5.63    0.88
   5   0  -8    7.13    0.72
   5   0  -7    1.56    0.39
   5   0  -7    2.20    0.42
   5   0  -7    1.59    0.50
   5   0  -6    4.58    0.54
   5   0  -6    3.83    0.48
   5   0  -6    4.06    0.66
   5   0  -5   71.11    2.31
   5   0  -5   74.79    2.20
   5   0  -4   27.37    1.09
   5   0  -4   27.47    1.22
   5   0  -4   27.87    1.41
   5   0  -3    4.37    0.37
   5   0  -3    4.06    0.47
   5   0  -3    3.64    0.42
   5   0  -3    4.00    0.30
   5   0  -2    2.96    0.28
   5   0  -2    2.90    0.37
   5   0  -2    2.91    0.35
   5   0  -2    3.06    0.28
   5   0  -1   36.83    1.04
   5   0  -1   38.73    1.21
   5   0  -1   38.14    1.20
   5   0   0   17.59    0.54
   5   0   0   16.75    0.54
   5   0   1   22.44    0.60
   5   0   2   24.74    0.67
   5   0   3   93.43    2.09
   5   1 -10   11.32    1.07
   5   1 -10   13.52    1.15
   5   1  -9    0.53    0.37
   5   1  -9    0.55    0.37
   5   1  -8    7.53    0.78
   5   1  -8    6.84    1.00
   5   1  -8    7.27    0.79
   5   1  -7   16.39    1.05
   5   1  -7   15.12    1.06
   5   1  -6    2.70    0.46
   5   1  -6    2.16    0.40
   5   1  -6    2.54    0.55
   5   1  -5   18.02    0.99
   5   1  -5   18.33    1.07
   5   1  -5   18.90    1.27
   5   1  -4   11.68    0.73
   5   1  -4   11.01    0.79
   5   1  -4   11.14    0.91
   5   1  -3    6.09    0.49
   5   1  -3    6.57    0.46
   5   1  -3    6.65    0.34
   5   1  -3    6.43    0.58
   5   1  -2    7.49    0.51
   5   1  -2    7.79    0.51
   5   1  -2    8.32    0.43
   5   1  -2    8.60    0.65
   5   1  -1   28.75    1.01
   5   1  -1   28.31    1.07
   5   1  -1   28.79    0.96
   5   1   0   36.70    1.14
   5   1   0   37.77    1.20
   5   1   1    6.37    0.39
   5   1   3    3.33    0.28
   5   1   4   55.54    1.53
   5   1   5   85.30    2.35
   5   1   5   85.53    2.22
   5   2 -10    1.46    0.56
   5   2  -9    3.41    0.64
   5   2  -9    3.72    0.67
   5   2  -8    7.38    0.84
   5   2  -8    8.95    0.90
   5   2  -7   23.05    1.36
   5   2  -7   24.02    1.42
   5   2  -6    2.99    0.51
   5   2  -6    5.54    0.63
   5   2  -5    2.71    0.47
   5   2  -5    2.69    0.43
   5   2  -4   20.27    1.07
   5   2  -4   18.68    1.12
   5   2  -3   18.81    0.97
   5   2  -3   17.95    1.05
   5   2  -2   10.89    0.69
   5   2  -2   10.65    0.52
   5   2  -2    9.85    0.46
   5   2  -2    9.30    0.73
   5   2  -1    9.19    0.50
   5   2  -1    8.48    0.45
   5   2   0   37.79    1.31
   5   2   0   38.50    1.22
   5   2   0   35.09    1.15
   5   3  -9    5.69    0.81
   5   3  -9    4.22    0.74
   5   3  -8   22.77    1.48
   5   3  -7    3.85    0.63
   5   3  -6    9.71    0.88
   5   3  -5    2.06    0.45
   5   3  -4    8.77    0.76
   5   3  -4   10.58    0.87
   5   3  -3   10.82    0.80
   5   3  -3   11.85    0.90
   5   3  -2   56.83    1.98
   5   3  -1   25.73    1.18
   5   3  -1   25.31    0.87
   5   3   0    0.42    0.20
   5   3   0    0.81    0.18
   5   4  -8   13.68    1.21
   5   4  -8   13.42    1.20
   5   4  -7    1.29    0.50
   5   4  -7    0.68    0.42
   5   4  -6    4.92    0.70
   5   4  -6    4.22    0.66
   5   4  -5    1.67    0.46
   5   4  -5    3.43    0.59
   5   4  -4    7.75    0.79
   5   4  -4    7.80    0.80
   5   4  -3   12.03    0.92
   5   4  -2   26.10    1.33
   5   4  -1   18.40    1.07
   5   4   0    5.81    0.58
   5   5  -6    0.88    0.43
   5   5  -6    0.97    0.48
   5   5  -5    1.99    0.55
   5   5  -5    1.41    0.46
   5   5  -4    3.19    0.60
   5   5  -4    3.89    0.64
   5   5  -3    7.95    0.83
   5   5  -3    9.78    0.91
   5   5  -2    4.84    0.64
   5   5  -2    3.41    0.57
   5   5  -1    1.29    0.36
   5   5   0    5.71    0.64
   5   6  -5    0.63    0.45
   5   6  -5    0.38    0.46
   5   6  -4    3.64    0.67
   5   6  -4    4.56    0.75
   5   6  -3    0.67    0.40
   5   6  -3    0.91    0.42
   5   6  -2    1.02    0.40
   5   6  -2    1.19    0.44
   5   6  -1    2.61    0.54
   5   6   0   13.75    1.05
   5   6   1    3.06    0.54
   5   7  -3    0.81    0.44
   5   7  -2    0.09    0.36
   5   7  -2   -0.09    0.37
   5   7  -1    4.92    0.73
   5   7  -1    4.97    0.74
   5   7   0   20.58    1.39
   5   7   1    3.29    0.62
   5   8   1    0.09    0.38
   5   8   2    9.10    0.99
   6  -4  -9    0.97    0.30
   6  -3 -10   -0.13    0.57
   6  -3  -9    1.63    0.33
   6  -2 -10    0.52    0.57
   6  -2 -10    0.30    0.39
   6  -2  -9    1.36    0.42
   6  -2  -9    1.41    0.64
   6  -2  -8    0.74    0.52
   6  -2  -8    1.41    0.40
   6  -2  -7    0.87    0.33
   6  -2  -6    6.61    0.62
   6  -2  -5    1.27    0.30
   6  -2  -4    1.14    0.27
   6  -2  -3    2.74    0.34
   6  -2  -2    3.67    0.35
   6  -1 -10    6.67    0.82
   6  -1 -10    4.18    0.97
   6  -1  -9   11.80    1.00
   6  -1  -9    8.37    1.18
   6  -1  -8    8.44    0.81
   6  -1  -8   10.43    1.15
   6  -1  -7    0.65    0.44
   6  -1  -7    0.06    0.25
   6  -1  -6    8.24    0.71
   6  -1  -6    8.57    0.93
   6  -1  -5    8.12    0.67
   6  -1  -5    7.06    0.79
   6  -1  -4    5.86    0.54
   6  -1  -4    6.53    0.69
   6  -1  -3   93.63    2.63
   6  -1  -2   27.94    1.14
   6  -1  -1   27.21    1.08
   6  -1   0    2.33    0.30
   6   0 -10    7.27    0.85
   6   0 -10    6.96    1.16
   6   0 -10    8.64    0.95
   6   0  -9   11.14    1.00
   6   0  -9    9.56    1.25
   6   0  -9    9.97    0.92
   6   0  -8   14.82    1.10
   6   0  -8   12.20    1.31
   6   0  -8   13.41    0.99
   6   0  -7    0.92    0.38
   6   0  -7    0.27    0.27
   6   0  -7    1.53    0.56
   6   0  -6    4.17    0.56
   6   0  -6    2.49    0.57
   6   0  -6    3.89    0.49
   6   0  -5    0.99    0.39
   6   0  -5    0.44    0.25
   6   0  -5    0.69    0.26
   6   0  -4    4.56    0.44
   6   0  -4    4.38    0.51
   6   0  -4    5.49    0.63
   6   0  -3   60.32    2.12
   6   0  -3   66.49    2.15
   6   0  -3   65.48    1.83
   6   0  -2   14.99    0.79
   6   0  -2   14.67    0.86
   6   0  -2   15.17    0.64
   6   0  -1    1.80    0.33
   6   1  -9    1.16    0.44
   6   1  -9    0.76    0.45
   6   1  -8    0.94    0.46
   6   1  -8    0.63    0.37
   6   1  -7    5.79    0.71
   6   1  -7    4.47    0.61
   6   1  -6    1.47    0.42
   6   1  -6    1.59    0.39
   6   1  -5    5.48    0.64
   6   1  -5    6.14    0.60
   6   1  -4    2.04    0.35
   6   1  -4    2.59    0.44
   6   1  -3   20.04    0.95
   6   1  -3   21.54    1.16
   6   1  -2    5.28    0.44
   6   1  -2    4.35    0.51
   6   1  -1    0.26    0.17
   6   1   0   25.19    0.90
   6   1   1   20.68    0.76
   6   1   2   19.28    0.73
   6   2  -9    2.07    0.59
   6   2  -8    0.09    0.33
   6   2  -8    0.39    0.42
   6   2  -7   13.24    1.03
   6   2  -7   12.97    1.09
   6   2  -6    8.43    0.81
   6   2  -6    7.59    0.81
   6   2  -5   37.03    1.63
   6   2  -5   39.26    1.81
   6   2  -4    6.06    0.60
   6   2  -4    5.98    0.68
   6   2  -3    4.07    0.48
   6   2  -3    3.40    0.52
   6   2  -2    2.12    0.36
   6   2  -2    2.59    0.45
   6   2  -1    1.77    0.31
   6   2   0    7.19    0.52
   6   2   1    4.86    0.43
   6   3  -8    0.86    0.46
   6   3  -7   22.60    1.44
   6   3  -7   23.42    1.52
   6   3  -6   10.47    0.94
   6   3  -6    9.38    0.94
   6   3  -5    1.91    0.47
   6   3  -5    1.38    0.46
   6   3  -4    1.38    0.40
   6   3  -4    2.33    0.52
   6   3  -3    4.21    0.53
   6   3  -3    3.68    0.55
   6   3  -2   11.15    0.80
   6   3  -2   11.62    0.93
   6   3  -1   47.10    1.74
   6   3   0   15.77    0.90
   6   3   1    1.64    0.32
   6   4  -7    3.72    0.69
   6   4  -6    6.24    0.82
   6   4  -5    3.79    0.64
   6   4  -4    1.49    0.44
   6   4  -4    1.53    0.47
   6   4  -3    1.65    0.44
   6   4  -3    2.00    0.51
   6   4  -2    1.78    0.41
   6   4  -2    2.14    0.47
   6   4  -1   32.57    1.51
   6   4   0    7.86    0.70
   6   4   1    3.54    0.48
   6   5  -5    6.92    0.86
   6   5  -5    3.57    0.68
   6   5  -4   11.75    1.04
   6   5  -4    8.16    0.92
   6   5  -3    6.30    0.77
   6   5  -3    3.88    0.68
   6   5  -2    4.89    0.66
   6   5  -1   -0.07    0.27
   6   5   0    2.64    0.48
   6   5   1    2.93    0.50
   6   6  -3    3.67    0.68
   6   6  -3    3.66    0.70
   6   6  -2   11.45    1.07
   6   6  -2   12.01    1.10
   6   6  -1    5.30    0.74
   6   6   0    3.97    0.62
   6   6   1    5.09    0.69
   6   7  -1    3.99    0.71
   6   7  -1    3.90    0.73
   6   7   0    3.76    0.67
   6   7   1   16.70    1.26
   6   7   2    2.71    0.58
   7  -1  -8    5.80    0.74
   7  -1  -7    1.50    0.44
   7  -1  -6    1.67    0.42
   7  -1  -5    9.53    0.79
   7  -1  -4    1.09    0.33
   7  -1  -3    5.02    0.52
   7  -1  -2    6.82    0.57
   7   0  -8    0.08    0.35
   7   0  -7    1.37    0.44
   7   0  -6    1.93    0.46
   7   0  -5    7.55    0.73
   7   0  -4   10.85    0.84
   7   0  -3    2.49    0.44
   7   0  -2   15.97    0.96
   7   0  -1    8.32    0.67
   7   1  -8    0.08    0.39
   7   1  -7    0.71    0.43
   7   1  -6    0.22    0.32
   7   1  -5    1.30    0.39
   7   1  -4    5.17    0.63
   7   1  -3    3.13    0.51
   7   1  -2    8.54    0.74
   7   1  -1    6.33    0.63
   7   2  -7    3.03    0.64
   7   2  -6   -0.08    0.34
   7   2  -5    1.99    0.49
   7   2  -4    0.22    0.33
   7   2  -3   -0.14    0.31
   7   2  -2    0.53    0.31
   7   3  -6    6.85    0.89
   7   3  -6    8.47    0.89
   7   3  -5    2.59    0.53
   7   3  -5    3.21    0.64
   7   3  -4    2.05    0.48
   7   3  -4    2.27    0.52
   7   3  -3    7.38    0.72
   7   3  -3    8.94    0.88
   7   3  -2    0.32    0.29
   7   3  -2    0.97    0.37
   7   3  -1    3.04    0.45
   7   3   0   11.89    0.80
   7   3   1    9.44    0.69
   7   4  -5    1.26    0.47
   7   4  -5    1.38    0.55
   7   4  -4    1.39    0.46
   7   4  -4    1.06    0.44
   7   4  -3    5.61    0.72
   7   4  -3    6.24    0.83
   7   4  -2   11.85    0.94
   7   4  -2   12.09    1.06
   7   4  -1    2.10    0.45
   7   4   0    2.25    0.43
   7   4   1    0.54    0.30
   7   4   2    1.84    0.38
   7   5  -3   10.80    1.01
   7   5  -3   12.36    1.16
   7   5  -2    1.58    0.50
   7   5  -2    0.63    0.40
   7   5  -1    2.19    0.50
   7   5   0    2.68    0.52
   7   5   1    0.84    0.34
   7   5   2    0.19    0.30
   7   6  -1    2.12    0.54
   7   6   0    0.93    0.44
   7   6   1    1.73    0.47
   7   6   2    0.07    0.32
   8   0  -6   -0.07    0.39
   8   0  -5   -0.27    0.38
   8   0  -4    0.32    0.32
   8   0  -3    2.54    0.47
   8   1  -6    0.08    0.38
   8   1  -5    1.06    0.47
   8   1  -4    3.51    0.60
   8   1  -3    3.49    0.57
   8   1  -2    0.13    0.33
   8   1  -1    1.57    0.42
   8   1   0    1.21    0.39
   8   2  -5    0.67    0.42
   8   2  -4    2.33    0.56
   8   2  -3    2.78    0.56
   8   2  -2    3.86    0.63
   8   2  -1    1.43    0.46
   8   3  -4    2.49    0.61
   8   3  -3    0.51    0.41
   8   3  -2    1.16    0.47
   8   3  -1    2.08    0.52
   8   4  -2    0.45    0.41
   8   4  -1    1.40    0.52
   9   2  -1   14.40    1.15
   9   2   0    4.10    0.68
   0   0   0    0.00    0.00
;
_shelx_hkl_checksum              48250
loop_
_space_group_symop_operation_xyz
'x, y, z'
loop_
_atom_site_label
_atom_site_type_symbol
_atom_site_fract_x
_atom_site_fract_y
_atom_site_fract_z
_atom_site_U_iso_or_equiv
_atom_site_adp_type
_atom_site_occupancy
_atom_site_site_symmetry_order
_atom_site_calc_flag
_atom_site_refinement_flags_posn
_atom_site_refinement_flags_adp
_atom_site_refinement_flags_occupancy
_atom_site_disorder_assembly
_atom_site_disorder_group
O1 O -0.0383(3) 0.5801(3) 0.87877(18) 0.0369(5) Uani 1 1 d . . . . .
H1 H -0.0891 0.6255 0.8080 0.055 Uiso 1 1 calc R U . . .
O2 O 0.7323(2) 0.7073(2) 0.65244(16) 0.0245(4) Uani 1 1 d . . . . .
H2 H 0.7112 0.8257 0.6284 0.037 Uiso 1 1 calc R U . . .
O3 O 0.7105(2) 0.1072(2) 0.58660(15) 0.0228(4) Uani 1 1 d . . . . .
H3 H 0.7611 0.1422 0.6407 0.034 Uiso 1 1 calc R U . . .
O4 O 0.5361(2) 0.5351(2) 0.32333(14) 0.0191(4) Uani 1 1 d . . . . .
O5 O 0.4289(2) 0.6926(3) 0.12009(16) 0.0325(5) Uani 1 1 d . . . . .
N1 N 0.8238(3) 0.2676(3) 0.75333(19) 0.0221(4) Uani 1 1 d D . . . .
H1C H 0.885(3) 0.378(3) 0.713(2) 0.027 Uiso 1 1 d D U . . .
C1 C 0.1276(4) 0.6780(4) 0.8802(3) 0.0290(6) Uani 1 1 d . . . . .
H1A H 0.1366 0.6946 0.9642 0.035 Uiso 1 1 calc R U . . .
H1B H 0.1131 0.8060 0.8165 0.035 Uiso 1 1 calc R U . . .
C2 C 0.3119(4) 0.5704(4) 0.8521(2) 0.0256(5) Uani 1 1 d . . . . .
H2A H 0.3166 0.4363 0.9069 0.031 Uiso 1 1 calc R U . . .
H2B H 0.4204 0.6272 0.8733 0.031 Uiso 1 1 calc R U . . .
C3 C 0.3297(3) 0.5769(3) 0.7112(2) 0.0207(5) Uani 1 1 d . . . . .
H3A H 0.2164 0.5223 0.6921 0.025 Uiso 1 1 calc R U . . .
C4 C 0.3266(4) 0.7886(3) 0.6188(2) 0.0250(5) Uani 1 1 d . . . . .
H4A H 0.1980 0.8368 0.5871 0.030 Uiso 1 1 calc R U . . .
H4B H 0.3696 0.8730 0.6628 0.030 Uiso 1 1 calc R U . . .
C5 C 0.4628(3) 0.7800(3) 0.5087(2) 0.0212(5) Uani 1 1 d . . . . .
H5A H 0.5114 0.9049 0.4665 0.025 Uiso 1 1 calc R U . . .
H5B H 0.3996 0.7401 0.4454 0.025 Uiso 1 1 calc R U . . .
C6 C 0.6246(3) 0.6283(3) 0.5750(2) 0.0183(5) Uani 1 1 d . . . . .
C7 C 0.5125(3) 0.4643(3) 0.6690(2) 0.0179(5) Uani 1 1 d . . . . .
C8 C 0.6324(3) 0.3412(3) 0.7864(2) 0.0210(5) Uani 1 1 d . . . . .
H8A H 0.6469 0.4190 0.8420 0.025 Uiso 1 1 calc R U . . .
H8B H 0.5626 0.2320 0.8349 0.025 Uiso 1 1 calc R U . . .
C9 C 0.9265(4) 0.1481(4) 0.8697(3) 0.0370(7) Uani 1 1 d . . . . .
H9A H 1.0580 0.1201 0.8478 0.056 Uiso 1 1 calc R U . . .
H9B H 0.8675 0.0290 0.9062 0.056 Uiso 1 1 calc R U . . .
H9C H 0.9215 0.2169 0.9314 0.056 Uiso 1 1 calc R U . . .
C10 C 0.4402(3) 0.3418(3) 0.5917(2) 0.0180(5) Uani 1 1 d . . . . .
H10A H 0.3821 0.2329 0.6522 0.022 Uiso 1 1 calc R U . . .
H10B H 0.3394 0.4205 0.5352 0.022 Uiso 1 1 calc R U . . .
C11 C 0.5859(3) 0.2623(3) 0.5098(2) 0.0184(5) Uani 1 1 d . . . . .
H11 H 0.5122 0.2075 0.4579 0.022 Uiso 1 1 calc R U . . .
C12 C 0.6906(3) 0.4277(3) 0.4129(2) 0.0183(5) Uani 1 1 d . . . . .
C13 C 0.7580(3) 0.5692(3) 0.4760(2) 0.0181(5) Uani 1 1 d . . . . .
C14 C 0.9166(3) 0.6580(3) 0.4357(2) 0.0258(6) Uani 1 1 d . . . . .
H14 H 0.9556 0.7357 0.4811 0.031 Uiso 1 1 calc R U . . .
C15 C 1.0372(4) 0.6421(4) 0.3224(2) 0.0296(6) Uani 1 1 d . . . . .
H15A H 1.1583 0.5680 0.3528 0.035 Uiso 1 1 calc R U . . .
H15B H 1.0648 0.7707 0.2682 0.035 Uiso 1 1 calc R U . . .
C16 C 0.9361(3) 0.5443(4) 0.2437(2) 0.0267(6) Uani 1 1 d . . . . .
H16 H 1.0298 0.5088 0.1841 0.032 Uiso 1 1 calc R U . . .
C17 C 0.8545(3) 0.3585(3) 0.3319(2) 0.0226(5) Uani 1 1 d . . . . .
C18 C 1.0185(4) 0.2224(4) 0.4106(3) 0.0313(6) Uani 1 1 d . . . . .
H18A H 1.0492 0.2665 0.4806 0.047 Uiso 1 1 calc R U . . .
H18B H 1.1295 0.2224 0.3560 0.047 Uiso 1 1 calc R U . . .
H18C H 0.9791 0.0934 0.4444 0.047 Uiso 1 1 calc R U . . .
C19 C 0.7673(4) 0.2576(4) 0.2470(2) 0.0290(6) Uani 1 1 d . . . . .
H19A H 0.8681 0.2155 0.1958 0.035 Uiso 1 1 calc R U . . .
H19B H 0.7095 0.1436 0.3014 0.035 Uiso 1 1 calc R U . . .
C20 C 0.6144(4) 0.3942(4) 0.1568(2) 0.0334(6) Uani 1 1 d . . . . .
H20A H 0.6552 0.4195 0.0676 0.040 Uiso 1 1 calc R U . . .
H20B H 0.4939 0.3349 0.1688 0.040 Uiso 1 1 calc R U . . .
C21 C 0.5883(3) 0.5813(4) 0.1889(2) 0.0249(6) Uani 1 1 d . . . . .
C22 C 0.7723(4) 0.6816(4) 0.1640(3) 0.0296(6) Uani 1 1 d . . . . .
H22A H 0.7543 0.7991 0.1879 0.036 Uiso 1 1 calc R U . . .
H22B H 0.8054 0.7172 0.0729 0.036 Uiso 1 1 calc R U . . .
C23 C 0.4001(4) 0.8891(4) 0.1177(3) 0.0387(7) Uani 1 1 d . . . . .
H23A H 0.4987 0.9609 0.0658 0.058 Uiso 1 1 calc R U . . .
H23B H 0.4052 0.8946 0.2039 0.058 Uiso 1 1 calc R U . . .
H23C H 0.2769 0.9444 0.0816 0.058 Uiso 1 1 calc R U . . .
loop_
_atom_site_aniso_label
_atom_site_aniso_U_11
_atom_site_aniso_U_22
_atom_site_aniso_U_33
_atom_site_aniso_U_23
_atom_site_aniso_U_13
_atom_site_aniso_U_12
O1 0.0318(10) 0.0495(12) 0.0283(10) -0.0097(9) -0.0043(8) -0.0051(9)
O2 0.0345(10) 0.0160(8) 0.0252(9) -0.0078(7) -0.0147(7) -0.0029(7)
O3 0.0346(10) 0.0143(8) 0.0198(9) -0.0054(7) -0.0050(7) -0.0016(7)
O4 0.0178(8) 0.0251(9) 0.0130(8) -0.0041(7) -0.0030(6) -0.0001(7)
O5 0.0294(10) 0.0447(11) 0.0185(9) -0.0044(8) -0.0089(7) 0.0052(9)
N1 0.0260(11) 0.0173(10) 0.0210(11) -0.0041(8) -0.0063(8) 0.0033(9)
C1 0.0294(14) 0.0339(14) 0.0277(14) -0.0165(12) 0.0003(11) 0.0009(12)
C2 0.0281(14) 0.0293(13) 0.0201(13) -0.0097(11) -0.0039(10) 0.0027(11)
C3 0.0217(12) 0.0217(12) 0.0204(12) -0.0096(10) -0.0036(9) 0.0007(10)
C4 0.0292(13) 0.0186(12) 0.0279(13) -0.0093(11) -0.0069(11) 0.0038(10)
C5 0.0287(13) 0.0139(11) 0.0205(13) -0.0040(10) -0.0053(10) -0.0029(10)
C6 0.0235(12) 0.0146(11) 0.0186(12) -0.0064(9) -0.0082(10) -0.0027(9)
C7 0.0232(13) 0.0154(12) 0.0153(11) -0.0053(10) -0.0032(10) -0.0001(10)
C8 0.0270(13) 0.0172(12) 0.0175(12) -0.0046(10) -0.0010(10) 0.0010(10)
C9 0.0459(17) 0.0319(15) 0.0308(15) -0.0101(13) -0.0125(13) 0.0137(13)
C10 0.0231(12) 0.0158(11) 0.0151(12) -0.0034(10) -0.0009(10) -0.0063(9)
C11 0.0232(12) 0.0165(11) 0.0170(12) -0.0066(10) -0.0043(10) -0.0026(9)
C12 0.0211(12) 0.0182(12) 0.0147(11) -0.0034(10) -0.0044(9) -0.0021(9)
C13 0.0210(12) 0.0147(11) 0.0151(11) 0.0006(9) -0.0056(9) -0.0013(9)
C14 0.0260(14) 0.0221(13) 0.0282(14) -0.0049(11) -0.0057(11) -0.0052(10)
C15 0.0201(12) 0.0315(14) 0.0302(14) 0.0009(11) 0.0016(11) -0.0068(11)
C16 0.0205(13) 0.0329(14) 0.0224(13) -0.0037(12) 0.0031(10) -0.0011(11)
C17 0.0215(12) 0.0256(13) 0.0193(13) -0.0059(11) -0.0013(10) 0.0006(10)
C18 0.0266(14) 0.0306(14) 0.0324(15) -0.0062(13) -0.0005(12) 0.0048(12)
C19 0.0322(14) 0.0329(14) 0.0243(13) -0.0134(12) 0.0040(11) -0.0005(12)
C20 0.0340(15) 0.0466(17) 0.0239(14) -0.0175(13) -0.0031(11) -0.0012(13)
C21 0.0207(12) 0.0365(14) 0.0136(12) -0.0035(11) -0.0029(9) 0.0014(10)
C22 0.0259(14) 0.0350(14) 0.0200(13) 0.0009(11) 0.0014(10) 0.0013(11)
C23 0.0280(14) 0.0393(16) 0.0331(16) 0.0086(13) -0.0036(12) 0.0046(12)
loop_
_atom_type_symbol
_atom_type_description
_atom_type_scat_dispersion_real
_atom_type_scat_dispersion_imag
_atom_type_scat_source
C C 0.0033 0.0016 'International Tables Vol C Tables 4.2.6.8 and 6.1.1.4'
H H 0.0000 0.0000 'International Tables Vol C Tables 4.2.6.8 and 6.1.1.4'
N N 0.0061 0.0033 'International Tables Vol C Tables 4.2.6.8 and 6.1.1.4'
O O 0.0106 0.0060 'International Tables Vol C Tables 4.2.6.8 and 6.1.1.4'
loop_
_geom_angle_atom_site_label_1
_geom_angle_atom_site_label_2
_geom_angle_atom_site_label_3
_geom_angle
_geom_angle_site_symmetry_1
_geom_angle_site_symmetry_3
_geom_angle_publ_flag
C1 O1 H1 109.5 . . ?
C6 O2 H2 109.5 . . ?
C11 O3 H3 109.5 . . ?
C21 O4 C12 114.48(16) . . ?
C21 O5 C23 116.6(2) . . ?
C9 N1 C8 110.8(2) . . ?
C9 N1 H1C 110.6(16) . . ?
C8 N1 H1C 104.3(16) . . ?
O1 C1 C2 112.9(2) . . ?
O1 C1 H1A 109.0 . . ?
C2 C1 H1A 109.0 . . ?
O1 C1 H1B 109.0 . . ?
C2 C1 H1B 109.0 . . ?
H1A C1 H1B 107.8 . . ?
C1 C2 C3 112.6(2) . . ?
C1 C2 H2A 109.1 . . ?
C3 C2 H2A 109.1 . . ?
C1 C2 H2B 109.1 . . ?
C3 C2 H2B 109.1 . . ?
H2A C2 H2B 107.8 . . ?
C2 C3 C4 111.36(19) . . ?
C2 C3 C7 118.08(19) . . ?
C4 C3 C7 105.46(18) . . ?
C2 C3 H3A 107.1 . . ?
C4 C3 H3A 107.1 . . ?
C7 C3 H3A 107.1 . . ?
C5 C4 C3 105.43(18) . . ?
C5 C4 H4A 110.7 . . ?
C3 C4 H4A 110.7 . . ?
C5 C4 H4B 110.7 . . ?
C3 C4 H4B 110.7 . . ?
H4A C4 H4B 108.8 . . ?
C4 C5 C6 103.71(18) . . ?
C4 C5 H5A 111.0 . . ?
C6 C5 H5A 111.0 . . ?
C4 C5 H5B 111.0 . . ?
C6 C5 H5B 111.0 . . ?
H5A C5 H5B 109.0 . . ?
O2 C6 C5 108.70(17) . . ?
O2 C6 C13 110.11(18) . . ?
C5 C6 C13 111.48(18) . . ?
O2 C6 C7 107.46(17) . . ?
C5 C6 C7 102.54(18) . . ?
C13 C6 C7 116.11(18) . . ?
C8 C7 C10 112.74(17) . . ?
C8 C7 C6 112.43(18) . . ?
C10 C7 C6 108.44(17) . . ?
C8 C7 C3 111.38(17) . . ?
C10 C7 C3 107.26(17) . . ?
C6 C7 C3 104.10(17) . . ?
N1 C8 C7 114.16(19) . . ?
N1 C8 H8A 108.7 . . ?
C7 C8 H8A 108.7 . . ?
N1 C8 H8B 108.7 . . ?
C7 C8 H8B 108.7 . . ?
H8A C8 H8B 107.6 . . ?
N1 C9 H9A 109.5 . . ?
N1 C9 H9B 109.5 . . ?
H9A C9 H9B 109.5 . . ?
N1 C9 H9C 109.5 . . ?
H9A C9 H9C 109.5 . . ?
H9B C9 H9C 109.5 . . ?
C11 C10 C7 117.86(18) . . ?
C11 C10 H10A 107.8 . . ?
C7 C10 H10A 107.8 . . ?
C11 C10 H10B 107.8 . . ?
C7 C10 H10B 107.8 . . ?
H10A C10 H10B 107.2 . . ?
O3 C11 C10 111.85(18) . . ?
O3 C11 C12 114.21(18) . . ?
C10 C11 C12 111.10(17) . . ?
O3 C11 H11 106.4 . . ?
C10 C11 H11 106.4 . . ?
C12 C11 H11 106.4 . . ?
O4 C12 C13 106.73(16) . . ?
O4 C12 C11 102.49(17) . . ?
C13 C12 C11 112.49(18) . . ?
O4 C12 C17 107.66(17) . . ?
C13 C12 C17 111.77(18) . . ?
C11 C12 C17 114.82(17) . . ?
C14 C13 C12 121.2(2) . . ?
C14 C13 C6 119.7(2) . . ?
C12 C13 C6 118.57(18) . . ?
C13 C14 C15 124.7(2) . . ?
C13 C14 H14 117.6 . . ?
C15 C14 H14 117.6 . . ?
C14 C15 C16 111.3(2) . . ?
C14 C15 H15A 109.4 . . ?
C16 C15 H15A 109.4 . . ?
C14 C15 H15B 109.4 . . ?
C16 C15 H15B 109.4 . . ?
H15A C15 H15B 108.0 . . ?
C15 C16 C17 110.62(19) . . ?
C15 C16 C22 111.2(2) . . ?
C17 C16 C22 109.43(19) . . ?
C15 C16 H16 108.5 . . ?
C17 C16 H16 108.5 . . ?
C22 C16 H16 108.5 . . ?
C18 C17 C16 109.1(2) . . ?
C18 C17 C19 109.0(2) . . ?
C16 C17 C19 108.46(19) . . ?
C18 C17 C12 115.41(18) . . ?
C16 C17 C12 105.72(18) . . ?
C19 C17 C12 108.95(19) . . ?
C17 C18 H18A 109.5 . . ?
C17 C18 H18B 109.5 . . ?
H18A C18 H18B 109.5 . . ?
C17 C18 H18C 109.5 . . ?
H18A C18 H18C 109.5 . . ?
H18B C18 H18C 109.5 . . ?
C20 C19 C17 111.2(2) . . ?
C20 C19 H19A 109.4 . . ?
C17 C19 H19A 109.4 . . ?
C20 C19 H19B 109.4 . . ?
C17 C19 H19B 109.4 . . ?
H19A C19 H19B 108.0 . . ?
C21 C20 C19 108.2(2) . . ?
C21 C20 H20A 110.1 . . ?
C19 C20 H20A 110.1 . . ?
C21 C20 H20B 110.1 . . ?
C19 C20 H20B 110.1 . . ?
H20A C20 H20B 108.4 . . ?
O5 C21 O4 106.10(18) . . ?
O5 C21 C22 114.7(2) . . ?
O4 C21 C22 109.54(19) . . ?
O5 C21 C20 107.49(19) . . ?
O4 C21 C20 107.87(19) . . ?
C22 C21 C20 110.9(2) . . ?
C21 C22 C16 109.6(2) . . ?
C21 C22 H22A 109.7 . . ?
C16 C22 H22A 109.7 . . ?
C21 C22 H22B 109.7 . . ?
C16 C22 H22B 109.7 . . ?
H22A C22 H22B 108.2 . . ?
O5 C23 H23A 109.5 . . ?
O5 C23 H23B 109.5 . . ?
H23A C23 H23B 109.5 . . ?
O5 C23 H23C 109.5 . . ?
H23A C23 H23C 109.5 . . ?
H23B C23 H23C 109.5 . . ?
loop_
_geom_bond_atom_site_label_1
_geom_bond_atom_site_label_2
_geom_bond_distance
_geom_bond_site_symmetry_2
_geom_bond_publ_flag
O1 C1 1.426(3) . ?
O1 H1 0.8200 . ?
O2 C6 1.440(3) . ?
O2 H2 0.8200 . ?
O3 C11 1.419(3) . ?
O3 H3 0.8200 . ?
O4 C21 1.439(3) . ?
O4 C12 1.475(3) . ?
O5 C21 1.406(3) . ?
O5 C23 1.422(3) . ?
N1 C9 1.464(3) . ?
N1 C8 1.469(3) . ?
N1 H1C 0.921(19) . ?
C1 C2 1.517(3) . ?
C1 H1A 0.9700 . ?
C1 H1B 0.9700 . ?
C2 C3 1.528(3) . ?
C2 H2A 0.9700 . ?
C2 H2B 0.9700 . ?
C3 C4 1.553(3) . ?
C3 C7 1.586(3) . ?
C3 H3A 0.9800 . ?
C4 C5 1.518(3) . ?
C4 H4A 0.9700 . ?
C4 H4B 0.9700 . ?
C5 C6 1.532(3) . ?
C5 H5A 0.9700 . ?
C5 H5B 0.9700 . ?
C6 C13 1.538(3) . ?
C6 C7 1.561(3) . ?
C7 C8 1.538(3) . ?
C7 C10 1.544(3) . ?
C8 H8A 0.9700 . ?
C8 H8B 0.9700 . ?
C9 H9A 0.9600 . ?
C9 H9B 0.9600 . ?
C9 H9C 0.9600 . ?
C10 C11 1.523(3) . ?
C10 H10A 0.9700 . ?
C10 H10B 0.9700 . ?
C11 C12 1.552(3) . ?
C11 H11 0.9800 . ?
C12 C13 1.533(3) . ?
C12 C17 1.563(3) . ?
C13 C14 1.329(3) . ?
C14 C15 1.499(4) . ?
C14 H14 0.9300 . ?
C15 C16 1.516(4) . ?
C15 H15A 0.9700 . ?
C15 H15B 0.9700 . ?
C16 C17 1.539(3) . ?
C16 C22 1.543(3) . ?
C16 H16 0.9800 . ?
C17 C18 1.536(3) . ?
C17 C19 1.535(3) . ?
C18 H18A 0.9600 . ?
C18 H18B 0.9600 . ?
C18 H18C 0.9600 . ?
C19 C20 1.538(4) . ?
C19 H19A 0.9700 . ?
C19 H19B 0.9700 . ?
C20 C21 1.510(3) . ?
C20 H20A 0.9700 . ?
C20 H20B 0.9700 . ?
C21 C22 1.516(4) . ?
C22 H22A 0.9700 . ?
C22 H22B 0.9700 . ?
C23 H23A 0.9600 . ?
C23 H23B 0.9600 . ?
C23 H23C 0.9600 . ?
loop_
_geom_hbond_atom_site_label_D
_geom_hbond_atom_site_label_H
_geom_hbond_atom_site_label_A
_geom_hbond_distance_DH
_geom_hbond_distance_HA
_geom_hbond_distance_DA
_geom_hbond_angle_DHA
_geom_hbond_site_symmetry_A
O1 H1 O2 0.82 2.05 2.855(2) 167.1 1_455
O2 H2 O3 0.82 1.96 2.767(2) 168.5 1_565
O3 H3 N1 0.82 1.84 2.647(2) 165.7 .
loop_
_geom_torsion_atom_site_label_1
_geom_torsion_atom_site_label_2
_geom_torsion_atom_site_label_3
_geom_torsion_atom_site_label_4
_geom_torsion
_geom_torsion_site_symmetry_1
_geom_torsion_site_symmetry_2
_geom_torsion_site_symmetry_3
_geom_torsion_site_symmetry_4
_geom_torsion_publ_flag
O1 C1 C2 C3 71.5(3) . . . . ?
C1 C2 C3 C4 59.8(3) . . . . ?
C1 C2 C3 C7 -178.0(2) . . . . ?
C2 C3 C4 C5 144.58(19) . . . . ?
C7 C3 C4 C5 15.3(2) . . . . ?
C3 C4 C5 C6 -37.0(2) . . . . ?
C4 C5 C6 O2 -69.6(2) . . . . ?
C4 C5 C6 C13 168.83(17) . . . . ?
C4 C5 C6 C7 43.9(2) . . . . ?
O2 C6 C7 C8 -39.8(2) . . . . ?
C5 C6 C7 C8 -154.25(17) . . . . ?
C13 C6 C7 C8 84.0(2) . . . . ?
O2 C6 C7 C10 -165.13(17) . . . . ?
C5 C6 C7 C10 80.4(2) . . . . ?
C13 C6 C7 C10 -41.4(2) . . . . ?
O2 C6 C7 C3 80.9(2) . . . . ?
C5 C6 C7 C3 -33.6(2) . . . . ?
C13 C6 C7 C3 -155.35(18) . . . . ?
C2 C3 C7 C8 7.6(3) . . . . ?
C4 C3 C7 C8 132.80(19) . . . . ?
C2 C3 C7 C10 131.4(2) . . . . ?
C4 C3 C7 C10 -103.4(2) . . . . ?
C2 C3 C7 C6 -113.7(2) . . . . ?
C4 C3 C7 C6 11.4(2) . . . . ?
C9 N1 C8 C7 -178.52(19) . . . . ?
C10 C7 C8 N1 72.1(2) . . . . ?
C6 C7 C8 N1 -50.8(2) . . . . ?
C3 C7 C8 N1 -167.24(18) . . . . ?
C8 C7 C10 C11 -73.1(2) . . . . ?
C6 C7 C10 C11 52.1(2) . . . . ?
C3 C7 C10 C11 163.94(18) . . . . ?
C7 C10 C11 O3 73.1(2) . . . . ?
C7 C10 C11 C12 -55.9(2) . . . . ?
C21 O4 C12 C13 108.5(2) . . . . ?
C21 O4 C12 C11 -133.14(18) . . . . ?
C21 O4 C12 C17 -11.7(2) . . . . ?
O3 C11 C12 O4 164.13(17) . . . . ?
C10 C11 C12 O4 -68.2(2) . . . . ?
O3 C11 C12 C13 -81.6(2) . . . . ?
C10 C11 C12 C13 46.0(2) . . . . ?
O3 C11 C12 C17 47.7(2) . . . . ?
C10 C11 C12 C17 175.38(18) . . . . ?
O4 C12 C13 C14 -100.5(2) . . . . ?
C11 C12 C13 C14 147.9(2) . . . . ?
C17 C12 C13 C14 17.0(3) . . . . ?
O4 C12 C13 C6 71.4(2) . . . . ?
C11 C12 C13 C6 -40.2(3) . . . . ?
C17 C12 C13 C6 -171.11(18) . . . . ?
O2 C6 C13 C14 -26.5(3) . . . . ?
C5 C6 C13 C14 94.2(3) . . . . ?
C7 C6 C13 C14 -148.9(2) . . . . ?
O2 C6 C13 C12 161.48(17) . . . . ?
C5 C6 C13 C12 -77.8(2) . . . . ?
C7 C6 C13 C12 39.1(3) . . . . ?
C12 C13 C14 C15 4.2(4) . . . . ?
C6 C13 C14 C15 -167.6(2) . . . . ?
C13 C14 C15 C16 11.1(3) . . . . ?
C14 C15 C16 C17 -47.7(3) . . . . ?
C14 C15 C16 C22 74.2(2) . . . . ?
C15 C16 C17 C18 -57.3(3) . . . . ?
C22 C16 C17 C18 179.9(2) . . . . ?
C15 C16 C17 C19 -175.8(2) . . . . ?
C22 C16 C17 C19 61.3(3) . . . . ?
C15 C16 C17 C12 67.4(2) . . . . ?
C22 C16 C17 C12 -55.4(2) . . . . ?
O4 C12 C17 C18 -172.89(19) . . . . ?
C13 C12 C17 C18 70.2(2) . . . . ?
C11 C12 C17 C18 -59.5(3) . . . . ?
O4 C12 C17 C16 66.4(2) . . . . ?
C13 C12 C17 C16 -50.5(2) . . . . ?
C11 C12 C17 C16 179.84(17) . . . . ?
O4 C12 C17 C19 -50.0(2) . . . . ?
C13 C12 C17 C19 -166.87(18) . . . . ?
C11 C12 C17 C19 63.4(2) . . . . ?
C18 C17 C19 C20 -174.9(2) . . . . ?
C16 C17 C19 C20 -56.2(3) . . . . ?
C12 C17 C19 C20 58.4(3) . . . . ?
C17 C19 C20 C21 -4.4(3) . . . . ?
C23 O5 C21 O4 76.0(2) . . . . ?
C23 O5 C21 C22 -45.0(3) . . . . ?
C23 O5 C21 C20 -168.8(2) . . . . ?
C12 O4 C21 O5 -176.37(17) . . . . ?
C12 O4 C21 C22 -52.1(2) . . . . ?
C12 O4 C21 C20 68.7(2) . . . . ?
C19 C20 C21 O5 -171.2(2) . . . . ?
C19 C20 C21 O4 -57.2(2) . . . . ?
C19 C20 C21 C22 62.7(3) . . . . ?
O5 C21 C22 C16 -179.38(19) . . . . ?
O4 C21 C22 C16 61.5(3) . . . . ?
C20 C21 C22 C16 -57.4(3) . . . . ?
C15 C16 C22 C21 -127.9(2) . . . . ?
C17 C16 C22 C21 -5.4(3) . . . . ?
