#------------------------------------------------------------------------------
#$Date: 2020-03-04 03:38:54 +0200 (Wed, 04 Mar 2020) $
#$Revision: 248706 $
#$URL: file:///home/coder/svn-repositories/cod/cif/4/13/41/4134172.cif $
#------------------------------------------------------------------------------
#
# This file is available in the Crystallography Open Database (COD),
# http://www.crystallography.net/
#
# All data on this site have been placed in the public domain by the
# contributors.
#
data_4134172
loop_
_publ_author_name
'Patel, Harshal D.'
'Tran, Thanh-Huyen'
'Sumby, Christopher J.'
'Pa\<steka, Luk\'a\<s F'
'Fallon, Thomas'
_publ_section_title
;
 Boronate Ester Bullvalenes.
;
_journal_issue                   8
_journal_name_full               'Journal of the American Chemical Society'
_journal_page_first              3680
_journal_page_last               3685
_journal_paper_doi               10.1021/jacs.9b12930
_journal_volume                  142
_journal_year                    2020
_chemical_absolute_configuration unk
_chemical_formula_moiety         'C17 H16 O'
_chemical_formula_sum            'C17 H16 O'
_chemical_formula_weight         236.30
_space_group_crystal_system      monoclinic
_space_group_IT_number           4
_space_group_name_Hall           'P 2yb'
_space_group_name_H-M_alt        'P 1 21 1'
_atom_sites_solution_hydrogens   geom
_atom_sites_solution_primary     dual
_audit_creation_date             2019-10-10
_audit_creation_method
;
Olex2 1.2
(compiled 2018.05.29 svn.r3508 for OlexSys, GUI svn.r5506)
;
_cell_angle_alpha                90
_cell_angle_beta                 94.885(3)
_cell_angle_gamma                90
_cell_formula_units_Z            2
_cell_length_a                   6.1082(2)
_cell_length_b                   7.4449(2)
_cell_length_c                   13.4770(5)
_cell_measurement_reflns_used    3103
_cell_measurement_temperature    150.00(14)
_cell_measurement_theta_max      28.7040
_cell_measurement_theta_min      4.0750
_cell_volume                     610.64(3)
_computing_cell_refinement       'CrysAlisPro 1.171.38.46 (Rigaku OD, 2015)'
_computing_data_collection       'CrysAlisPro 1.171.38.46 (Rigaku OD, 2015)'
_computing_data_reduction        'CrysAlisPro 1.171.38.46 (Rigaku OD, 2015)'
_computing_molecular_graphics    'Olex2 (Dolomanov et al., 2009)'
_computing_publication_material  'Olex2 (Dolomanov et al., 2009)'
_computing_structure_refinement  'ShelXL (Sheldrick, 2015)'
_computing_structure_solution    'ShelXT (Sheldrick, 2015)'
_diffrn_ambient_environment      N~2~
_diffrn_ambient_temperature      150.00(14)
_diffrn_detector                 'CCD plate'
_diffrn_detector_area_resol_mean 16.1695
_diffrn_detector_type            Eos
_diffrn_measured_fraction_theta_full 0.996
_diffrn_measured_fraction_theta_max 0.918
_diffrn_measurement_details
;
List of Runs (angles in degrees, time in seconds):

  # Type    Start    End  Width  t~exp~   \w     \q     \k     \f   Frames
--------------------------------------------------------------------------
  1  \w    -50.00  39.00   1.00    8.00    --   18.95 -57.00-150.00   89
  2  \w    -25.00  61.00   1.00    8.00    --   18.95 -99.00 150.00   86
  3  \w     -7.00  91.00   1.00    8.00    --   18.95  37.00-150.00   98
  4  \w    -25.00  22.00   1.00    8.00    --  -19.50 -99.00 150.00   47
  5  \w    -90.00  11.00   1.00    8.00    --  -19.50 -77.00 -90.00  101
  6  \w     32.00  96.00   1.00    8.00    --   18.95-178.00  30.00   64
  7  \w    -25.00  61.00   1.00    8.00    --   18.95 -99.00  60.00   86
  8  \w     -2.00  88.00   1.00    8.00    --   18.95  57.00   0.00   90
  9  \w    -25.00  22.00   1.00    8.00    --  -19.50 -99.00  60.00   47
 10  \w    -88.00   2.00   1.00    8.00    --  -19.50 -57.00  30.00   90
 11  \w    -41.00 -16.00   1.00    8.00    --  -19.50  57.00 -60.00   25
 12  \w    -95.00 -35.00   1.00    8.00    --  -19.50-178.00 -90.00   60
;
_diffrn_measurement_device       'four-circle diffractometer'
_diffrn_measurement_device_type  'Xcalibur, Eos'
_diffrn_measurement_method       '\w scans'
_diffrn_orient_matrix_type
'CrysAlisPro convention (1999,Acta A55,543-557)'
_diffrn_orient_matrix_UB_11      0.0454611000
_diffrn_orient_matrix_UB_12      0.0002628000
_diffrn_orient_matrix_UB_13      0.0502185000
_diffrn_orient_matrix_UB_21      -0.1068597000
_diffrn_orient_matrix_UB_22      -0.0085703000
_diffrn_orient_matrix_UB_23      0.0163257000
_diffrn_orient_matrix_UB_31      0.0097675000
_diffrn_orient_matrix_UB_32      -0.0948946000
_diffrn_orient_matrix_UB_33      -0.0013303000
_diffrn_radiation_monochromator  graphite
_diffrn_radiation_probe          x-ray
_diffrn_radiation_type           MoK\a
_diffrn_radiation_wavelength     0.71073
_diffrn_reflns_av_R_equivalents  0.0439
_diffrn_reflns_av_unetI/netI     0.0450
_diffrn_reflns_Laue_measured_fraction_full 0.996
_diffrn_reflns_Laue_measured_fraction_max 0.918
_diffrn_reflns_limit_h_max       8
_diffrn_reflns_limit_h_min       -8
_diffrn_reflns_limit_k_max       9
_diffrn_reflns_limit_k_min       -10
_diffrn_reflns_limit_l_max       18
_diffrn_reflns_limit_l_min       -17
_diffrn_reflns_number            10936
_diffrn_reflns_point_group_measured_fraction_full 0.993
_diffrn_reflns_point_group_measured_fraction_max 0.882
_diffrn_reflns_theta_full        27.000
_diffrn_reflns_theta_max         29.262
_diffrn_reflns_theta_min         3.556
_diffrn_source                   'fine-focus sealed X-ray tube'
_diffrn_source_type              'Enhance (Mo) X-ray Source'
_exptl_absorpt_coefficient_mu    0.078
_exptl_absorpt_correction_T_max  1.00000
_exptl_absorpt_correction_T_min  0.97745
_exptl_absorpt_correction_type   multi-scan
_exptl_absorpt_process_details
;
CrysAlisPro 1.171.38.46 (Rigaku Oxford Diffraction, 2015)
Empirical absorption correction using spherical harmonics,
 implemented in SCALE3 ABSPACK scaling algorithm.
;
_exptl_crystal_colour            colourless
_exptl_crystal_density_diffrn    1.285
_exptl_crystal_description       rod
_exptl_crystal_F_000             252
_exptl_crystal_size_max          0.46
_exptl_crystal_size_mid          0.2
_exptl_crystal_size_min          0.08
_refine_diff_density_max         0.191
_refine_diff_density_min         -0.253
_refine_diff_density_rms         0.039
_refine_ls_extinction_method     none
_refine_ls_goodness_of_fit_ref   1.026
_refine_ls_hydrogen_treatment    constr
_refine_ls_matrix_type           full
_refine_ls_number_parameters     164
_refine_ls_number_reflns         2939
_refine_ls_number_restraints     1
_refine_ls_restrained_S_all      1.025
_refine_ls_R_factor_all          0.0518
_refine_ls_R_factor_gt           0.0425
_refine_ls_shift/su_max          0.000
_refine_ls_shift/su_mean         0.000
_refine_ls_structure_factor_coef Fsqd
_refine_ls_weighting_details
'w=1/[\s^2^(Fo^2^)+(0.0445P)^2^+0.0444P] where P=(Fo^2^+2Fc^2^)/3'
_refine_ls_weighting_scheme      calc
_refine_ls_wR_factor_gt          0.0871
_refine_ls_wR_factor_ref         0.0907
_reflns_Friedel_coverage         0.791
_reflns_Friedel_fraction_full    0.990
_reflns_Friedel_fraction_max     0.841
_reflns_number_gt                2566
_reflns_number_total             2939
_reflns_threshold_expression     'I > 2\s(I)'
_iucr_refine_instructions_details
;

    hpbpmeo.res created by SHELXL-2014/7

TITL hpbpmeo_a.res in P2(1)
REM Old TITL HPBpMeO in P21 #4
REM SHELXT solution in P2(1)
REM R1 0.104, Rweak 0.032, Alpha 0.001, Orientation as input
REM Flack x = -0.253 ( 0.855 ) from Parsons' quotients
REM Formula found by SHELXT: C17 O
REM hpbpmeo_a.res in P2(1)
REM 164 parameters refined using 1 restraints
REM Highest difference peak 0.197, deepest hole -0.253, 1-sigma level 0.039
CELL 0.71073 6.1082 7.4449 13.477 90 94.885 90
ZERR 2 0.0002 0.0002 0.0005 0 0.003 0
LATT -1
SYMM -X,0.5+Y,-Z
SFAC C H O
UNIT 34 32 2
 
L.S. 20
PLAN  20
SIZE 0.46 0.2 0.08
TEMP -123
GRID
BOND $H
fmap 2
acta 54
MERG 2
REM <olex2.extras>
REM <HklSrc "%.\\HPBpMeO.hkl">
REM </olex2.extras>
 
WGHT    0.044500    0.044400
FVAR       1.33613
C1    1    0.419690    0.379919    0.249477    11.00000    0.02529    0.01817 =
         0.02169    0.00203    0.00555    0.00327
AFIX  13
H1    2    0.450449    0.292982    0.305494    11.00000   -1.20000
AFIX   0
C2    1    0.315291    0.547404    0.290939    11.00000    0.01737    0.01995 =
         0.01906   -0.00232    0.00281    0.00033
C3    1    0.258396    0.688510    0.232447    11.00000    0.01814    0.02052 =
         0.01944   -0.00325    0.00252    0.00223
AFIX  43
H3    2    0.196244    0.788010    0.264108    11.00000   -1.20000
AFIX   0
C4    1    0.280723    0.707619    0.125152    11.00000    0.02251    0.02496 =
         0.02002    0.00170    0.00254    0.00578
AFIX  13
H4    2    0.226716    0.825276    0.096867    11.00000   -1.20000
AFIX   0
C5    1    0.245180    0.548980    0.052185    11.00000    0.02464    0.03828 =
         0.01732   -0.00510   -0.00079    0.01027
AFIX  13
H5    2    0.171540    0.582311   -0.014382    11.00000   -1.20000
AFIX   0
C6    1    0.185870    0.370028    0.087475    11.00000    0.01845    0.03662 =
         0.03129   -0.01744    0.00152    0.00190
AFIX  43
H6    2    0.085715    0.302354    0.044548    11.00000   -1.20000
AFIX   0
C7    1    0.257304    0.293240    0.172761    11.00000    0.02129    0.02189 =
         0.03534   -0.00954    0.01175   -0.00230
AFIX  43
H7    2    0.203575    0.176974    0.186657    11.00000   -1.20000
AFIX   0
C8    1    0.635050    0.421832    0.206329    11.00000    0.01868    0.02066 =
         0.02961   -0.00517    0.00054    0.00557
AFIX  43
H8    2    0.765055    0.367081    0.235993    11.00000   -1.20000
AFIX   0
C9    1    0.652177    0.530463    0.129616    11.00000    0.01674    0.02653 =
         0.03390   -0.00302    0.00889    0.00151
AFIX  43
H9    2    0.795225    0.546238    0.108303    11.00000   -1.20000
AFIX   0
C10   1    0.473240    0.629148    0.074003    11.00000    0.02769    0.02862 =
         0.02188    0.00322    0.01087    0.00388
AFIX  13
H10   2    0.522156    0.705580    0.019013    11.00000   -1.20000
AFIX   0
C11   1    0.271935    0.546288    0.397923    11.00000    0.02030    0.01434 =
         0.01929   -0.00047    0.00355   -0.00057
C12   1    0.078523    0.621627    0.429005    11.00000    0.02387    0.02172 =
         0.01835    0.00056   -0.00016    0.00529
AFIX  43
H12   2   -0.024476    0.674719    0.380925    11.00000   -1.20000
AFIX   0
C13   1    0.034446    0.620420    0.527659    11.00000    0.02133    0.02196 =
         0.02483   -0.00087    0.00634    0.00602
AFIX  43
H13   2   -0.097028    0.673175    0.546970    11.00000   -1.20000
AFIX   0
C14   1    0.182498    0.541972    0.598797    11.00000    0.02550    0.01460 =
         0.01839   -0.00224    0.00266   -0.00383
C15   1    0.376650    0.467918    0.570755    11.00000    0.02117    0.01997 =
         0.01980    0.00196   -0.00115    0.00117
AFIX  43
H15   2    0.479493    0.415799    0.619256    11.00000   -1.20000
AFIX   0
C16   1    0.419084    0.470802    0.470919    11.00000    0.01640    0.02003 =
         0.02430   -0.00061    0.00358    0.00230
AFIX  43
H16   2    0.551994    0.419916    0.452043    11.00000   -1.20000
AFIX   0
O17   3    0.119184    0.540929    0.694152    11.00000    0.03249    0.02734 =
         0.01588   -0.00009    0.00476    0.00227
C18   1    0.260405    0.452689    0.768281    11.00000    0.03714    0.02647 =
         0.01671    0.00119    0.00116   -0.00069
AFIX 137
H18A  2    0.286103    0.328991    0.747281    11.00000   -1.50000
H18B  2    0.191505    0.451528    0.831343    11.00000   -1.50000
H18C  2    0.400815    0.516809    0.777246    11.00000   -1.50000
AFIX   0
HKLF 4
 
REM  hpbpmeo_a.res in P2(1)
REM R1 =  0.0425 for    2566 Fo > 4sig(Fo)  and  0.0518 for all    2939 data
REM    164 parameters refined using      1 restraints
 
END  
     
WGHT      0.0413      0.0556 

REM Highest difference peak  0.191,  deepest hole -0.253,  1-sigma level  0.039
Q1    1   0.3536  0.4549  0.2706  11.00000  0.05    0.19
Q2    1   0.1427  0.5376  0.4033  11.00000  0.05    0.19
Q3    1   0.8224  0.4405  0.5010  11.00000  0.05    0.16
Q4    1   0.6465  0.5418  0.1972  11.00000  0.05    0.15
Q5    1   0.2399  0.4633  0.5795  11.00000  0.05    0.15
Q6    1   0.3056  0.4558  0.4301  11.00000  0.05    0.15
Q7    1   0.0423  0.5552  0.4816  11.00000  0.05    0.15
Q8    1   0.3217  0.6922  0.1825  11.00000  0.05    0.14
Q9    1   0.3688  0.4011  0.5171  11.00000  0.05    0.14
Q10   1   0.0715  0.5277  0.5585  11.00000  0.05    0.14
Q11   1   0.5121  0.4208  0.2218  11.00000  0.05    0.13
Q12   1   0.5353  0.5136  0.0835  11.00000  0.05    0.13
Q13   1   0.2162  0.6383  0.4152  11.00000  0.05    0.13
Q14   1   0.3907  0.5371  0.0472  11.00000  0.05    0.13
Q15   1   0.1740  0.6534  0.5758  11.00000  0.05    0.13
Q16   1   0.2797  0.8177  0.1011  11.00000  0.05    0.12
Q17   1   0.2647  0.5155  0.3348  11.00000  0.05    0.12
Q18   1   0.4081  0.5358  0.5262  11.00000  0.05    0.12
Q19   1   0.4031  0.7053  0.8741  11.00000  0.05    0.12
Q20   1   0.3298  0.3402  0.2191  11.00000  0.05    0.12

  REM The information below was added by Olex2.
  REM
  REM R1 = 0.0425 for 2566 Fo > 4sig(Fo) and 0.0518 for all 10960 data
  REM n/a parameters refined using n/a restraints
  REM Highest difference peak 0.19, deepest hole -0.25
  REM Mean Shift 0, Max Shift 0.000.

  REM +++ Tabular Listing of Refinement Information +++
  REM R1_all = 0.0518
  REM R1_gt = 0.0425
  REM wR_ref = 0.0907
  REM GOOF = 1.026
  REM Shift_max = 0.000
  REM Shift_mean = 0
  REM Reflections_all = 10960
  REM Reflections_gt = 2566
  REM Parameters = n/a
  REM Hole = -0.25
  REM Peak = 0.19
  REM Flack = 0.5(9)

  
;
_cod_data_source_file            ja9b12930_si_002.cif
_cod_data_source_block           hpbpmeo
_cod_depositor_comments
'Adding full bibliography for 4134168--4134181.cif.'
_cod_database_code               4134172
_shelx_shelxl_version_number     2014/7
_chemical_oxdiff_formula         C17H16O1
_chemical_oxdiff_usercomment
'colourless rod (from plate) 0.46  x 0.20 x 0.08'
_shelx_space_group_comment
;
The symmetry employed for this shelxl refinement is uniquely defined
by the following loop, which should always be used as a source of
symmetry information in preference to the above space-group names.
They are only intended as comments.
;
_shelx_estimated_absorpt_t_max   0.994
_shelx_estimated_absorpt_t_min   0.965
_reflns_odcompleteness_completeness 99.63
_reflns_odcompleteness_iscentric 1
_reflns_odcompleteness_theta     26.32
_olex2_refinement_description
;
1. Fixed Uiso
 At 1.2 times of:
  All C(H) groups
 At 1.5 times of:
  All C(H,H,H) groups
2.a Ternary CH refined with riding coordinates:
 C1(H1), C4(H4), C5(H5), C10(H10)
2.b Aromatic/amide H refined with riding coordinates:
 C3(H3), C6(H6), C7(H7), C8(H8), C9(H9), C12(H12), C13(H13), C15(H15), C16(H16)
2.c Idealised Me refined as rotating group:
 C18(H18A,H18B,H18C)
;
_olex2_submission_special_instructions 'No special instructions were received'
_oxdiff_exptl_absorpt_empirical_details
;
Empirical correction (ABSPACK) includes:
- Absorption correction using spherical harmonics
- Frame scaling
;
_oxdiff_exptl_absorpt_empirical_full_max 1.057
_oxdiff_exptl_absorpt_empirical_full_min 0.951
loop_
_space_group_symop_operation_xyz
'x, y, z'
'-x, y+1/2, -z'
loop_
_atom_site_label
_atom_site_type_symbol
_atom_site_fract_x
_atom_site_fract_y
_atom_site_fract_z
_atom_site_U_iso_or_equiv
_atom_site_adp_type
_atom_site_occupancy
_atom_site_site_symmetry_order
_atom_site_calc_flag
_atom_site_refinement_flags_posn
_atom_site_refinement_flags_adp
_atom_site_refinement_flags_occupancy
_atom_site_disorder_assembly
_atom_site_disorder_group
C1 C 0.4197(4) 0.3799(3) 0.24948(16) 0.0215(5) Uani 1 1 d . . . . .
H1 H 0.4504 0.2930 0.3055 0.026 Uiso 1 1 calc R . . . .
C2 C 0.3153(3) 0.5474(3) 0.29094(15) 0.0187(4) Uani 1 1 d . . . . .
C3 C 0.2584(3) 0.6885(3) 0.23245(16) 0.0193(5) Uani 1 1 d . . . . .
H3 H 0.1962 0.7880 0.2641 0.023 Uiso 1 1 calc R . . . .
C4 C 0.2807(4) 0.7076(3) 0.12515(16) 0.0225(5) Uani 1 1 d . . . . .
H4 H 0.2267 0.8253 0.0969 0.027 Uiso 1 1 calc R . . . .
C5 C 0.2452(4) 0.5490(4) 0.05218(16) 0.0269(5) Uani 1 1 d . . . . .
H5 H 0.1715 0.5823 -0.0144 0.032 Uiso 1 1 calc R . . . .
C6 C 0.1859(4) 0.3700(3) 0.08747(18) 0.0288(5) Uani 1 1 d . . . . .
H6 H 0.0857 0.3024 0.0445 0.035 Uiso 1 1 calc R . . . .
C7 C 0.2573(4) 0.2932(3) 0.17276(18) 0.0256(5) Uani 1 1 d . . . . .
H7 H 0.2036 0.1770 0.1867 0.031 Uiso 1 1 calc R . . . .
C8 C 0.6350(4) 0.4218(3) 0.20633(18) 0.0231(5) Uani 1 1 d . . . . .
H8 H 0.7651 0.3671 0.2360 0.028 Uiso 1 1 calc R . . . .
C9 C 0.6522(4) 0.5305(3) 0.12962(17) 0.0253(5) Uani 1 1 d . . . . .
H9 H 0.7952 0.5462 0.1083 0.030 Uiso 1 1 calc R . . . .
C10 C 0.4732(4) 0.6291(3) 0.07400(17) 0.0256(5) Uani 1 1 d . . . . .
H10 H 0.5222 0.7056 0.0190 0.031 Uiso 1 1 calc R . . . .
C11 C 0.2719(3) 0.5463(3) 0.39792(15) 0.0179(4) Uani 1 1 d . . . . .
C12 C 0.0785(4) 0.6216(3) 0.42901(16) 0.0214(5) Uani 1 1 d . . . . .
H12 H -0.0245 0.6747 0.3809 0.026 Uiso 1 1 calc R . . . .
C13 C 0.0344(4) 0.6204(3) 0.52766(16) 0.0225(5) Uani 1 1 d . . . . .
H13 H -0.0970 0.6732 0.5470 0.027 Uiso 1 1 calc R . . . .
C14 C 0.1825(4) 0.5420(3) 0.59880(15) 0.0194(4) Uani 1 1 d . . . . .
C15 C 0.3766(4) 0.4679(3) 0.57076(16) 0.0205(5) Uani 1 1 d . . . . .
H15 H 0.4795 0.4158 0.6193 0.025 Uiso 1 1 calc R . . . .
C16 C 0.4191(4) 0.4708(3) 0.47092(16) 0.0201(5) Uani 1 1 d . . . . .
H16 H 0.5520 0.4199 0.4520 0.024 Uiso 1 1 calc R . . . .
O17 O 0.1192(3) 0.5409(2) 0.69415(10) 0.0251(4) Uani 1 1 d . . . . .
C18 C 0.2604(4) 0.4527(3) 0.76828(16) 0.0268(5) Uani 1 1 d . . . . .
H18A H 0.2861 0.3290 0.7473 0.040 Uiso 1 1 calc GR . . . .
H18B H 0.1915 0.4515 0.8313 0.040 Uiso 1 1 calc GR . . . .
H18C H 0.4008 0.5168 0.7772 0.040 Uiso 1 1 calc GR . . . .
loop_
_atom_site_aniso_label
_atom_site_aniso_U_11
_atom_site_aniso_U_22
_atom_site_aniso_U_33
_atom_site_aniso_U_23
_atom_site_aniso_U_13
_atom_site_aniso_U_12
C1 0.0253(12) 0.0182(10) 0.0217(12) 0.0020(9) 0.0055(9) 0.0033(9)
C2 0.0174(10) 0.0200(9) 0.0191(10) -0.0023(9) 0.0028(8) 0.0003(9)
C3 0.0181(11) 0.0205(10) 0.0194(11) -0.0033(9) 0.0025(8) 0.0022(9)
C4 0.0225(12) 0.0250(11) 0.0200(11) 0.0017(9) 0.0025(9) 0.0058(9)
C5 0.0246(11) 0.0383(12) 0.0173(11) -0.0051(11) -0.0008(9) 0.0103(11)
C6 0.0185(11) 0.0366(13) 0.0313(13) -0.0174(11) 0.0015(9) 0.0019(10)
C7 0.0213(12) 0.0219(11) 0.0353(14) -0.0095(10) 0.0117(10) -0.0023(9)
C8 0.0187(11) 0.0207(11) 0.0296(13) -0.0052(9) 0.0005(9) 0.0056(9)
C9 0.0167(10) 0.0265(11) 0.0339(13) -0.0030(11) 0.0089(9) 0.0015(10)
C10 0.0277(12) 0.0286(11) 0.0219(12) 0.0032(10) 0.0109(10) 0.0039(10)
C11 0.0203(10) 0.0143(9) 0.0193(10) -0.0005(9) 0.0035(8) -0.0006(9)
C12 0.0239(12) 0.0217(10) 0.0183(11) 0.0006(9) -0.0002(8) 0.0053(9)
C13 0.0213(11) 0.0220(10) 0.0248(12) -0.0009(10) 0.0063(9) 0.0060(10)
C14 0.0255(11) 0.0146(9) 0.0184(10) -0.0022(9) 0.0027(8) -0.0038(10)
C15 0.0212(12) 0.0200(10) 0.0198(11) 0.0020(9) -0.0012(8) 0.0012(9)
C16 0.0164(11) 0.0200(10) 0.0243(12) -0.0006(9) 0.0036(8) 0.0023(9)
O17 0.0325(9) 0.0273(8) 0.0159(7) -0.0001(7) 0.0048(6) 0.0023(7)
C18 0.0371(14) 0.0265(11) 0.0167(11) 0.0012(10) 0.0012(9) -0.0007(11)
loop_
_atom_type_symbol
_atom_type_description
_atom_type_scat_dispersion_real
_atom_type_scat_dispersion_imag
_atom_type_scat_source
C C 0.0033 0.0016 'International Tables Vol C Tables 4.2.6.8 and 6.1.1.4'
H H 0.0000 0.0000 'International Tables Vol C Tables 4.2.6.8 and 6.1.1.4'
O O 0.0106 0.0060 'International Tables Vol C Tables 4.2.6.8 and 6.1.1.4'
loop_
_geom_angle_atom_site_label_1
_geom_angle_atom_site_label_2
_geom_angle_atom_site_label_3
_geom_angle
_geom_angle_site_symmetry_1
_geom_angle_site_symmetry_3
_geom_angle_publ_flag
C2 C1 H1 108.0 . . ?
C7 C1 H1 108.0 . . ?
C7 C1 C2 109.14(17) . . ?
C7 C1 C8 111.42(17) . . ?
C8 C1 H1 108.0 . . ?
C8 C1 C2 112.04(17) . . ?
C3 C2 C1 121.30(18) . . ?
C3 C2 C11 121.01(19) . . ?
C11 C2 C1 117.65(19) . . ?
C2 C3 H3 116.1 . . ?
C2 C3 C4 127.77(19) . . ?
C4 C3 H3 116.1 . . ?
C3 C4 H4 113.8 . . ?
C3 C4 C5 122.25(19) . . ?
C3 C4 C10 123.06(19) . . ?
C5 C4 H4 113.8 . . ?
C10 C4 H4 113.8 . . ?
C10 C4 C5 59.41(15) . . ?
C4 C5 H5 114.2 . . ?
C6 C5 C4 120.90(19) . . ?
C6 C5 H5 114.2 . . ?
C6 C5 C10 122.7(2) . . ?
C10 C5 C4 59.92(15) . . ?
C10 C5 H5 114.2 . . ?
C5 C6 H6 116.6 . . ?
C7 C6 C5 126.9(2) . . ?
C7 C6 H6 116.6 . . ?
C1 C7 H7 118.1 . . ?
C6 C7 C1 123.8(2) . . ?
C6 C7 H7 118.1 . . ?
C1 C8 H8 118.2 . . ?
C9 C8 C1 123.7(2) . . ?
C9 C8 H8 118.2 . . ?
C8 C9 H9 116.6 . . ?
C8 C9 C10 126.8(2) . . ?
C10 C9 H9 116.6 . . ?
C4 C10 H10 114.0 . . ?
C5 C10 C4 60.67(15) . . ?
C5 C10 H10 114.0 . . ?
C9 C10 C4 121.92(18) . . ?
C9 C10 C5 122.1(2) . . ?
C9 C10 H10 114.0 . . ?
C12 C11 C2 120.71(18) . . ?
C16 C11 C2 121.95(19) . . ?
C16 C11 C12 117.34(18) . . ?
C11 C12 H12 119.2 . . ?
C13 C12 C11 121.57(19) . . ?
C13 C12 H12 119.2 . . ?
C12 C13 H13 120.0 . . ?
C12 C13 C14 119.9(2) . . ?
C14 C13 H13 120.0 . . ?
C15 C14 C13 119.98(19) . . ?
O17 C14 C13 115.44(18) . . ?
O17 C14 C15 124.57(19) . . ?
C14 C15 H15 120.3 . . ?
C14 C15 C16 119.37(19) . . ?
C16 C15 H15 120.3 . . ?
C11 C16 H16 119.1 . . ?
C15 C16 C11 121.79(19) . . ?
C15 C16 H16 119.1 . . ?
C14 O17 C18 117.21(17) . . ?
O17 C18 H18A 109.5 . . ?
O17 C18 H18B 109.5 . . ?
O17 C18 H18C 109.5 . . ?
H18A C18 H18B 109.5 . . ?
H18A C18 H18C 109.5 . . ?
H18B C18 H18C 109.5 . . ?
loop_
_geom_bond_atom_site_label_1
_geom_bond_atom_site_label_2
_geom_bond_distance
_geom_bond_site_symmetry_2
_geom_bond_publ_flag
C1 H1 1.0000 . ?
C1 C2 1.528(3) . ?
C1 C7 1.515(3) . ?
C1 C8 1.515(3) . ?
C2 C3 1.341(3) . ?
C2 C11 1.488(3) . ?
C3 H3 0.9500 . ?
C3 C4 1.471(3) . ?
C4 H4 1.0000 . ?
C4 C5 1.540(3) . ?
C4 C10 1.529(3) . ?
C5 H5 1.0000 . ?
C5 C6 1.470(4) . ?
C5 C10 1.521(3) . ?
C6 H6 0.9500 . ?
C6 C7 1.324(3) . ?
C7 H7 0.9500 . ?
C8 H8 0.9500 . ?
C8 C9 1.324(3) . ?
C9 H9 0.9500 . ?
C9 C10 1.469(3) . ?
C10 H10 1.0000 . ?
C11 C12 1.404(3) . ?
C11 C16 1.393(3) . ?
C12 H12 0.9500 . ?
C12 C13 1.379(3) . ?
C13 H13 0.9500 . ?
C13 C14 1.389(3) . ?
C14 C15 1.389(3) . ?
C14 O17 1.373(2) . ?
C15 H15 0.9500 . ?
C15 C16 1.392(3) . ?
C16 H16 0.9500 . ?
O17 C18 1.424(3) . ?
C18 H18A 0.9800 . ?
C18 H18B 0.9800 . ?
C18 H18C 0.9800 . ?
loop_
_refln_index_h
_refln_index_k
_refln_index_l
_refln_F_squared_meas
_refln_F_squared_sigma
0 0 3 1179.3 24.37
0 0 -3 1169.07 27.99
0 0 -3 1211.07 27.33
0 0 3 1173.07 28.29
0 0 3 1133.9 27.88
0 0 3 1212.48 28.12
0 0 -3 1121.61 27.89
0 0 -3 1142.07 27.92
0 0 3 1185.26 24.43
0 0 -3 1173.42 24.42
0 0 4 130.75 7.52
0 0 -4 127.04 7.57
0 0 -4 128.01 7.21
0 0 4 135.51 7.35
0 0 4 133.95 4.68
0 0 -4 121.23 4.61
0 0 -4 134.63 6.81
0 0 -4 124.15 7.44
0 0 4 117.44 7.18
0 0 4 128.99 4.6
0 0 5 15.52 3.47
0 0 -5 15.52 4.13
0 0 5 15.93 1.84
0 0 -5 13.69 2.84
0 0 5 15.04 1.81
0 0 -5 15.39 1.87
0 0 -5 11.08 3.78
0 0 -6 2245.82 51.42
0 0 6 2247.05 45.64
0 0 6 2134.47 52.79
0 0 6 2256.87 45.62
0 0 -6 2111.06 45.3
0 0 -6 2117.32 52.96
0 0 -6 2074.3 52.86
0 0 -7 60.8 7.43
0 0 7 68.91 4.02
0 0 7 66.45 3.86
0 0 7 64.78 7.34
0 0 -7 68.6 7.61
0 0 -7 63.35 3.78
0 0 8 124 5.58
0 0 8 101.85 4.61
0 0 -8 99.38 9.46
0 0 -8 101.74 5.06
0 0 -8 97.63 9.15
0 0 8 107.47 9.38
0 0 8 117.04 5.42
0 0 9 7.43 4.09
0 0 9 7.5 1.46
0 0 -9 7.7 5.27
0 0 -9 6.84 4.72
0 0 9 12.52 2.19
0 0 9 9.07 1.91
0 0 -10 53.44 8.35
0 0 10 53.26 3.06
0 0 -10 54.83 8.28
0 0 10 59.09 8.35
0 0 -11 231.17 16.58
0 0 -11 261.43 17.7
0 0 -11 286.71 18.24
0 0 11 256.03 17.15
0 0 12 3.65 4.63
0 0 -12 9.53 5.82
0 0 -12 15.87 6.73
0 0 13 152.93 14.64
0 0 -13 122.94 13.32
0 0 -14 3.95 4.97
0 0 14 2.29 4.81
0 0 15 -1.58 4.32
0 0 -15 -0.06 5.72
0 0 -16 -2.49 5.83
0 0 16 3.17 5.32
0 0 17 214.01 20.38
0 -1 2 2573.27 54.67
0 -1 -2 2537.43 54.16
0 1 -2 2605.8 52.27
0 1 -2 2592.21 51.35
0 -1 2 2607.69 54.69
0 -1 -2 2637.53 54.35
0 1 2 2528.35 54.08
0 -1 2 2633.99 51.34
0 1 -2 2600.27 53.89
0 1 2 2589.75 54.25
0 1 2 2661.62 54.19
0 -1 2 2579.38 53.41
0 -1 -2 2553.86 53.97
0 1 -2 2643.01 53.44
0 -1 2 2673.96 54.17
0 -1 2 2578.53 54.58
0 1 -2 2537.19 54.42
0 1 -2 2422.08 54.29
0 -1 2 2535.55 52.21
0 -1 2 2680.41 54.64
0 1 -2 2664.14 54.77
0 1 2 2548.22 52.29
0 -1 -2 2711.67 52.5
0 1 -2 2672.28 54.61
0 1 3 1088.23 26.4
0 1 3 1011.71 26.3
0 1 3 1043.47 24.13
0 1 -3 1050.31 22.76
0 -1 -3 1090.01 24.39
0 1 3 1102.8 26.62
0 -1 3 1151.93 27.02
0 -1 -3 1020.66 26.13
0 -1 3 1033.78 25.62
0 -1 3 1055.72 22.76
0 1 3 1055.77 25.43
0 -1 -3 1045.9 25.52
0 -1 3 1117.31 26.52
0 -1 -3 1081.1 26.65
0 1 3 1098.43 25.67
0 1 -3 1020.52 26.05
0 -1 3 1105.35 26.92
0 -1 3 1054.68 26.4
0 -1 3 1011.78 26.35
0 1 -3 1114.7 25.88
0 1 -3 1022.81 26.38
0 1 -4 228.97 10.48
0 1 4 234.74 10.45
0 -1 -4 251.39 8.94
0 1 4 249.69 9.26
0 -1 4 232.83 10
0 1 4 244.81 9.32
0 -1 4 252.2 10.5
0 -1 4 228.77 6.58
0 1 4 226.74 8.6
0 1 4 253.54 10.6
0 1 4 231.78 10.35
0 -1 -4 227.39 10.29
0 -1 -4 245.06 10.67
0 -1 -4 236.45 9.22
0 1 -4 246.05 10.04
0 -1 4 258.67 10.84
0 1 -4 237.32 10.51
0 1 -5 258.39 11.37
0 1 -5 251.36 11.83
0 1 5 232.26 9.57
0 1 -5 239.78 11.66
0 -1 -5 238.89 9.75
0 -1 -5 253.5 11.77
0 -1 5 240.96 6.63
0 1 5 241.55 11.68
0 1 5 240.13 9.71
0 -1 -5 263.84 10.02
0 -1 5 235.63 11.08
0 1 5 258.56 9.87
0 -1 -6 12.31 2.79
0 1 6 14.09 3.03
0 1 -6 15.96 4.86
0 -1 -6 7.73 3.57
0 1 6 8.05 3.57
0 1 6 14.23 2.69
0 -1 -6 14.51 3.06
0 1 -6 14.5 4.18
0 1 6 11.23 2.78
0 -1 6 14.18 3.74
0 1 7 579.96 16.85
0 -1 -7 535.07 17.41
0 -1 -7 518.58 20.93
0 1 -7 552.01 21.57
0 1 7 551.77 21.6
0 1 7 604.12 18.02
0 1 -7 561.4 21.65
0 1 7 569.59 17.73
0 -1 7 545.54 20.91
0 -1 8 25.94 5.19
0 -1 -8 24.99 5.55
0 1 8 38.73 6.25
0 1 8 35.81 3.55
0 -1 -8 33.44 3.97
0 1 -8 24.1 5.86
0 1 8 33.08 3.96
0 1 8 29.22 3.63
0 1 -8 30.85 6.18
0 1 -9 32.4 6.77
0 1 -9 47.56 7.29
0 1 9 45.58 6.96
0 1 9 42.41 4.5
0 -1 9 35.44 5.97
0 -1 -9 46.21 6.85
0 1 9 43.99 4.1
0 1 9 53.38 4.92
0 -1 -9 40 4.49
0 1 -10 308.91 18.49
0 -1 10 354.79 18.85
0 1 -10 336.52 19.14
0 -1 -10 303.63 18.12
0 1 10 327.1 13.57
0 1 10 310.21 18.24
0 1 10 351.83 13.79
0 -1 -10 313.11 13.11
0 1 10 354.41 12.6
0 1 11 28.53 6.73
0 -1 -11 19.8 5.99
0 1 11 24.53 3.94
0 1 -11 23.27 7.03
0 -1 11 22.46 5.94
0 1 -11 20.48 6.6
0 1 12 9.16 2.97
0 1 -12 3.09 5.34
0 -1 12 14.74 6.08
0 1 -12 7.58 6.25
0 1 12 11.66 5.58
0 -1 -12 4.89 4.69
0 -1 13 158.67 14.62
0 1 -13 138.03 14.37
0 1 -13 165.33 15.59
0 -1 -13 156.03 14.9
0 1 13 151.86 14.7
0 1 -14 68.75 11.02
0 1 -14 74.29 11.49
0 1 14 105.14 13
0 -1 14 83.13 11.35
0 -1 -14 79.45 11.54
0 -1 15 2.09 5.45
0 -1 15 8 6.76
0 -1 -15 7.23 5.96
0 1 15 7.72 6.58
0 1 -15 -0.32 5.13
0 1 -15 0.98 6.11
0 -1 16 36.04 8.65
0 -1 16 37.63 9.49
0 1 -16 30.76 8.42
0 -1 -16 29.59 8.92
0 1 16 26.83 8.97
0 -1 17 6.03 6.83
0 -1 17 14.35 7.46
0 2 0 5924.52 112.01
0 2 0 5393.77 111.67
0 -2 0 4957.34 110.83
0 2 0 5629.75 108.98
0 -2 0 5560.98 111.56
0 -2 0 5597.34 109.07
0 2 0 5022.71 110.86
0 2 0 5827.68 109.13
0 2 0 5877.77 111.76
0 -2 0 5239.62 108.58
0 2 1 1998.76 43.26
0 2 -1 1834.9 40.31
0 -2 -1 1789.88 40.25
0 -2 1 1784.48 42.41
0 2 -1 1920.34 42.4
0 -2 1 1795.61 41.47
0 2 1 1975.76 42.85
0 -2 -1 1824.35 42.43
0 2 1 1909.67 40.52
0 2 1 1843.97 40.18
0 2 -1 1756.53 41.18
0 -2 -1 1930.54 40.52
0 2 -1 1968.11 40.43
0 2 -1 1894.42 41.69
0 2 1 1920.15 41.27
0 2 1 1917.92 43
0 -2 1 1860.33 38.58
0 -2 1 1770.8 41.78
0 -2 1 1784.25 42.18
0 2 1 1869.87 40.77
0 2 -1 2000.06 42.82
0 2 -1 1779.45 42.24
0 2 -1 1967.44 42.99
0 -2 -1 1759.84 42.58
0 -2 2 1175.59 30.33
0 -2 -2 1139.69 28.86
0 2 -2 1185.7 29.83
0 2 2 1287.38 31.09
0 2 2 1235.17 29.2
0 -2 2 1301.59 31.11
0 -2 -2 1273.67 29.4
0 -2 2 1196.92 28.47
0 -2 -2 1239.63 28.27
0 2 -2 1236.21 28.51
0 -2 2 1181.4 29.13
0 -2 -2 1170.59 30.9
0 2 2 1268.25 31.04
0 -2 2 1269.48 30.2
0 -2 2 1262.53 29.39
0 2 2 1190.54 28.12
0 2 -2 1268.64 30.79
0 2 -2 1250.47 30.89
0 2 -2 1174.01 30.39
0 2 -2 1172.81 28.84
0 2 2 1159.86 28.99
0 -2 2 1150.73 30.57
0 2 -2 1268.1 29.54
0 2 2 1236.84 31.1
0 2 2 1311.92 30.42
0 -2 3 566.57 18.03
0 2 3 525.58 17.54
0 2 -3 512.6 17.53
0 2 3 556.34 16.86
0 2 -3 527.82 17.24
0 2 3 513.04 14.84
0 -2 3 500.75 17.47
0 2 3 576.68 17.9
0 2 -3 559.63 17.9
0 2 -3 569.14 15.81
0 -2 3 578.91 17.12
0 -2 -3 528.04 16.73
0 -2 3 589.75 17.82
0 2 -3 558.4 15.95
0 -2 3 546.41 14.54
0 -2 3 542.85 15.59
0 -2 -3 579.74 15.37
0 2 -3 539.14 14.57
0 2 3 526.41 16.83
0 -2 -3 555.78 17.1
0 2 -3 529.78 14.44
0 -2 -3 532.36 17.78
0 -2 3 498.58 17.35
0 2 -3 567.89 18.13
0 2 3 575.54 17.83
0 2 -3 528.36 16.55
0 2 3 580.07 17.79
0 2 4 257.97 11.4
0 2 -4 254.2 10.32
0 -2 4 257.68 11.18
0 -2 -4 229.82 10.91
0 2 4 250.48 10.95
0 2 -4 263.36 9.14
0 -2 4 235.34 11.63
0 2 -4 232.01 10.81
0 -2 -4 226.98 11.01
0 2 4 233.56 11.1
0 2 -4 231.85 7.66
0 -2 4 249.23 11.68
0 2 -4 228.75 11.69
0 2 4 233.07 11.01
0 -2 4 223 8.78
0 -2 -4 255.07 11.29
0 2 -4 251.36 7.93
0 2 4 238.83 9.05
0 2 4 265.61 11.29
0 2 -4 226.96 11.18
0 -2 -4 251.95 9.26
0 2 5 129.76 8.33
0 -2 -5 138.89 6.88
0 2 -5 122.67 8.5
0 -2 -5 128.47 8.26
0 2 5 129.49 7.78
0 2 -5 134.7 6.07
0 2 -5 124.68 4.61
0 -2 5 140.29 9.24
0 2 5 127.25 6.76
0 -2 5 126.43 7.84
0 -2 5 131.45 5.99
0 -2 5 138.17 9.27
0 2 5 116.73 8.35
0 2 -5 120.36 4.5
0 2 -5 115.41 8.6
0 -2 -5 127.07 8.61
0 -2 -6 188.42 8.83
0 -2 6 189.79 11.48
0 -2 6 170.72 11.08
0 -2 6 183.94 6.99
0 -2 -6 156.41 10.22
0 -2 6 179.88 10.3
0 2 6 177.41 11.07
0 2 6 175.42 9.9
0 2 -6 174.18 11.02
0 2 -6 172.3 10.88
0 2 6 184.21 8.77
0 -2 -6 158.96 9.63
0 -2 7 293.26 15.37
0 -2 -7 295.46 15.17
0 -2 -7 331.85 13
0 2 -7 299.18 15.43
0 -2 7 308.92 15.68
0 -2 -7 300.56 13.74
0 2 -7 280.53 14.99
0 2 7 301.35 15.48
0 -2 7 304.18 14.7
0 2 7 306.21 13.83
0 2 7 310.3 12.64
0 2 8 233.13 12.13
0 -2 -8 214.81 13.61
0 2 8 222.06 11.1
0 -2 8 209.22 12.91
0 2 -8 213.49 13.82
0 2 8 206.5 13.52
0 2 -8 223.03 13.92
0 -2 8 208.89 13.7
0 -2 8 213.5 13.63
0 -2 -8 206.47 11.49
0 -2 9 80.1 9.51
0 -2 9 75.3 8.26
0 -2 -9 70.57 6.76
0 2 -9 64.1 8.32
0 2 -9 63.06 8.44
0 2 9 85.55 7.39
0 -2 -9 72.3 8.77
0 2 9 69.71 8.55
0 -2 9 60.1 7.93
0 -2 10 134.81 11.54
0 2 10 145.2 10.09
0 2 -10 130.67 12.18
0 -2 -10 137.63 9.59
0 2 -10 133.65 12.24
0 2 10 132.8 12.04
0 -2 10 149.92 12.95
0 -2 -10 135.99 12
0 -2 10 144.36 12.35
0 -2 11 276.73 17.38
0 2 -11 271.42 18.39
0 2 11 280.42 14.24
0 -2 11 259.89 17.8
0 -2 11 241.13 17.02
0 -2 -11 241.17 13.33
0 -2 -11 271.33 17.98
0 2 11 239.16 17.04
0 2 -11 258.68 17.87
0 -2 12 138.02 13.41
0 -2 12 151.92 14.52
0 2 -12 101.95 12.26
0 2 12 115.21 9.34
0 -2 12 126.5 12.65
0 2 -12 122.51 12.99
0 2 12 115.11 12.48
0 -2 -12 132.58 9.75
0 -2 -12 105.97 11.77
0 2 -13 45.14 9.69
0 -2 13 42.58 9.15
0 2 -13 30.03 7.86
0 -2 13 46 8.33
0 -2 -13 30.62 7.08
0 -2 13 34.87 7.84
0 2 13 41.02 8.41
0 -2 -14 12.67 6.57
0 -2 14 4.86 5.61
0 -2 14 9.65 5.36
0 2 14 9.01 6.24
0 2 -14 13.45 7.36
0 2 -14 17.47 7.69
0 -2 15 49.12 9.79
0 -2 15 26.89 8.13
0 2 15 13.44 6.53
0 -2 15 44.12 10.31
0 2 -15 27.79 8.65
0 -2 -15 23.85 7.73
0 2 -15 20.46 7.96
0 2 -15 17.8 8.03
0 -2 16 19.12 6.9
0 -2 16 15.44 8.33
0 2 -16 1.39 6.08
0 2 -16 8.89 7.4
0 2 16 31.5 9.11
0 -2 -16 10.78 7.14
0 -2 16 13.47 6.91
0 -3 0 -0.25 2.15
0 -3 0 -1.11 2.22
0 3 0 0.62 1.61
0 -3 0 -0.35 2.98
0 3 0 -0.18 1.27
0 -3 0 3.62 3.27
0 3 -1 1308.78 32.32
0 -3 1 1154.31 32.36
0 3 -1 1205.13 29.64
0 3 -1 1173.58 32.46
0 3 -1 1155.41 30.66
0 -3 1 1165.34 32.56
0 -3 1 1202.1 31.93
0 3 1 1244.07 29.87
0 -3 -1 1171.47 32.6
0 -3 -1 1217.31 29.76
0 -3 -1 1213.03 33.12
0 3 1 1305.62 30.86
0 3 -1 1247.67 29.7
0 -3 1 1198.47 28.13
0 3 1 1197.4 29.26
0 3 2 14.08 2.86
0 3 -2 14.39 3.24
0 -3 2 13.54 4.22
0 -3 2 12.25 3.69
0 3 2 17.34 3.18
0 3 -2 14.46 2.89
0 3 -2 17.83 4.12
0 -3 2 18.82 3.45
0 3 2 8.63 3.95
0 -3 -2 16.06 2.78
0 3 -2 17.66 3.26
0 -3 2 13.8 2.05
0 -3 -2 16.83 3.45
0 -3 -2 17.56 4.33
0 -3 2 12.73 3
0 3 -2 17.28 3.46
0 3 2 15.59 2.92
0 -3 3 360.98 15.6
0 3 -3 370.62 15.11
0 3 -3 394.33 13.23
0 3 -3 374.66 14.08
0 3 -3 439.8 15.24
0 -3 3 377.12 13.6
0 -3 -3 356.8 14.05
0 -3 -3 401.34 16.54
0 3 3 391.85 14.4
0 3 -3 377.82 13.51
0 3 -3 355.27 15.5
0 -3 3 355.47 15.82
0 3 3 370.5 16.02
0 -3 -3 425.79 14.91
0 -3 3 403.58 14.54
0 3 -3 407.51 13.83
0 3 3 383.51 13.24
0 3 3 377.11 14.35
0 3 -4 10.68 3.76
0 -3 4 7.57 3.61
0 3 4 6.95 3.46
0 -3 4 7.03 2.29
0 3 -4 10.29 3.77
0 -3 4 3.38 3.45
0 3 4 5.39 2.39
0 3 -4 6.96 2.3
0 -3 -4 8.91 2.31
0 -3 -4 8.24 3.97
0 3 -4 9.35 2.34
0 3 4 9.92 3.24
0 3 -4 14.28 3.16
0 3 -4 9.94 2.55
0 -3 -4 7.66 3.2
0 3 -4 10.86 4.65
0 -3 5 61.99 6.92
0 -3 -5 63.17 4.99
0 -3 -5 55.57 6.55
0 3 -5 73.62 5.66
0 3 -5 64.03 6.44
0 3 5 60.67 5.08
0 3 -5 75.42 8.23
0 3 -5 55.26 6.57
0 -3 -5 56.69 6.1
0 3 -5 68.4 4.62
0 3 5 49.97 5.86
0 3 5 57.93 6.75
0 3 -5 64.49 4.49
0 -3 5 54.56 6.71
0 -3 6 133.9 10.29
0 3 6 119.69 9.61
0 3 6 132.9 7.68
0 3 -6 140.47 6.17
0 3 -6 121.66 9.82
0 -3 -6 125.48 9.6
0 3 -6 127.27 9.59
0 -3 -6 142.84 7.9
0 -3 -6 134.17 9.9
0 3 6 125.54 9.51
0 -3 6 112.25 9.46
0 3 -6 126.72 7.19
0 3 -6 143.11 6.28
0 -3 -7 207.04 10.23
0 3 -7 190.5 6.73
0 3 -7 193.56 12.52
0 -3 7 192.25 12.97
0 -3 -7 203.21 12.7
0 3 -7 198.63 8.95
0 3 -7 191.14 6.73
0 -3 7 188.45 12.82
0 3 7 202.79 10.01
0 3 7 191.72 12.19
0 -3 -7 182.91 11.89
0 3 7 190.91 12.64
0 3 -7 182.63 12.54
0 -3 -8 282.74 15.16
0 -3 -8 270.65 15.84
0 -3 8 248.99 15.82
0 3 8 275.38 16.09
0 3 8 284.81 12.71
0 3 -8 265.44 15.88
0 -3 8 264.29 16.17
0 3 8 292.58 15.48
0 3 -8 293.92 16.34
0 3 9 286 15.63
0 -3 9 249.12 16.41
0 -3 -9 242.24 15.95
0 3 -9 232.27 15.53
0 -3 9 242.26 15.98
0 3 9 263.48 12.8
0 3 -9 247.2 16.07
0 -3 -9 254.51 14.66
0 3 9 240.58 15.82
0 3 10 184.54 12.95
0 -3 10 185.34 14.94
0 3 -10 196.08 15.24
0 3 -10 199.35 15.14
0 -3 10 200.38 15.43
0 -3 -10 193.33 13.02
0 3 10 198.69 11.65
0 -3 -10 196.77 14.89
0 3 10 195.27 15.01
0 3 11 363.26 18.69
0 3 -11 323.96 20.7
0 3 11 349.26 21.11
0 -3 11 320.34 20.25
0 3 -11 343.44 21.18
0 -3 11 353.33 21.38
0 -3 -11 346.33 20.79
0 -3 -11 330.21 17.72
0 3 -12 30.64 8.12
0 3 12 28.21 5.77
0 -3 -12 23.21 5.36
0 -3 -12 22.2 7.24
0 3 12 30.61 6.83
0 -3 12 25.5 6.83
0 -3 12 28.3 7.68
0 3 -12 23.48 7.5
0 3 13 68.14 8.46
0 3 13 64.11 10.06
0 -3 13 66.72 10.3
0 3 -13 84.88 11.91
0 3 -13 66.91 11.38
0 -3 13 69.58 10.43
0 -3 -13 56.49 9.74
0 -3 14 166.47 16.42
0 -3 -14 151.92 15.62
0 -3 14 133.54 14.86
0 3 -14 140.82 15.71
0 3 14 139.91 15.24
0 3 -14 139.9 15.62
0 -3 15 5.7 6.82
0 -3 -15 -3.69 5.5
0 3 -15 6.01 7.34
0 3 -15 -5.09 5.86
0 3 15 10.79 6.79
0 -3 15 4.55 6.61
0 -3 16 59.38 11.17
0 3 16 65.23 11.79
0 3 -16 64.46 11.94
0 -3 16 55.99 11.07
0 3 -16 67.8 12.63
0 -3 -16 59.69 12.04
0 4 0 141.24 7.38
0 -4 0 143.86 10.07
0 4 0 147.01 8.09
0 4 0 148.65 10.09
0 -4 0 126.6 9.56
0 4 0 155.01 8.17
0 -4 -1 33.25 5.53
0 -4 1 30.03 5.32
0 -4 1 31.63 5.23
0 4 -1 28.21 4.74
0 4 1 21.97 4.35
0 4 -1 29.62 3.82
0 4 -1 25.9 3.76
0 4 -1 26.2 4.77
0 4 1 36.77 3.96
0 4 1 33.72 4.05
0 -4 -1 27.3 3.87
0 -4 -1 26.81 5.07
0 4 1 33.42 4.71
0 4 -1 28.28 4.42
0 4 2 77.48 7.91
0 -4 2 70.13 7.63
0 4 2 76.58 6.02
0 -4 2 85.98 5.02
0 4 -2 78.53 5.92
0 -4 2 65.28 7.28
0 4 -2 65.41 7.28
0 4 -2 70.68 5.96
0 -4 -2 74.7 6.15
0 4 2 76.57 6.44
0 -4 -2 72.88 7.79
0 4 -2 67.19 6.5
0 -4 2 71.28 6.74
0 4 -2 76.09 6.86
0 -4 3 669.81 24.45
0 -4 -3 659.3 21.96
0 4 -3 665.4 23.21
0 4 -3 681.27 21.95
0 -4 -3 663.64 25.12
0 4 3 684.54 21.66
0 4 3 662.97 21.9
0 -4 3 729.83 17.53
0 -4 3 664.74 24.81
0 4 -3 652.04 24.38
0 -4 3 677.92 22.43
0 4 3 660.67 24.91
0 4 -3 675.93 22.32
0 -4 4 408.82 15.79
0 -4 -4 408.93 19.01
0 4 4 403.28 15.31
0 4 4 406.55 16.72
0 -4 4 402.96 18.42
0 4 4 380.74 18.53
0 -4 -4 400.93 16.63
0 4 -4 400.46 17.56
0 -4 4 384.69 18.46
0 -4 4 429.75 11.25
0 4 -4 379.02 18.23
0 4 -4 402.12 16.46
0 4 -4 387.48 15.42
0 4 -4 429.18 15.2
0 4 -5 145.1 11.41
0 -4 -5 150.16 11.41
0 4 5 143.13 10.06
0 4 -5 138.11 9.58
0 4 5 153.45 11.61
0 -4 5 137.21 10.92
0 4 5 137.17 8.31
0 -4 5 124.93 10.53
0 4 -5 141.86 8.25
0 4 -5 132.01 10.31
0 -4 -5 152.28 10.25
0 -4 5 143.3 8.38
0 4 -6 198.51 14.07
0 4 -6 230.52 10.25
0 -4 -6 211.63 13.01
0 4 -6 209.97 12.66
0 -4 -6 223.98 14.39
0 -4 6 205.79 13.91
0 4 6 191.96 12.45
0 4 -6 203.48 13.31
0 4 6 208.55 14.18
0 4 6 212.17 10.59
0 -4 6 192.54 13.65
0 4 -6 215.01 9.95
0 -4 7 440.69 21.65
0 4 -7 478.09 21.88
0 4 -7 482.01 21.21
0 4 7 481.12 17.51
0 4 -7 498.4 15.67
0 4 7 458.76 21.74
0 4 7 459.26 21.18
0 -4 -7 465.17 21.76
0 4 -7 502.42 15.68
0 -4 -7 468.21 21.18
0 -4 7 462.73 22.48
0 4 8 106.32 7.92
0 -4 -8 93.25 9.92
0 -4 8 104.05 10.81
0 -4 -8 103.03 10.31
0 4 8 100.37 10.05
0 -4 8 98.36 10.76
0 4 -8 101.16 10.03
0 4 -8 111.61 11.14
0 4 8 90.62 9.73
0 4 -8 108.64 5.78
0 4 9 537.39 25.18
0 4 -9 549.31 25.58
0 -4 9 521.03 25.58
0 -4 -9 538.8 25.12
0 4 9 559.01 24.88
0 -4 -9 516.46 23.98
0 4 9 560.81 20.2
0 4 -9 524.38 24.87
0 -4 9 513.06 25.55
0 -4 10 144.5 13.61
0 -4 10 137.86 13.33
0 -4 -10 163.56 14.02
0 4 -10 154.01 13.88
0 4 -10 161.19 13.86
0 -4 -10 166.21 13.14
0 4 10 178.77 13.78
0 4 10 158.02 13.82
0 4 -11 95.35 11.66
0 4 11 99.15 10.68
0 4 -11 124.25 13.4
0 -4 -11 105.19 12.02
0 -4 11 87 11.12
0 -4 -11 114.11 11.2
0 -4 11 103.73 11.72
0 4 11 110.36 12.16
0 4 12 111.42 12.91
0 -4 -12 90.05 11.62
0 -4 12 87.28 11.3
0 4 -12 94.4 12.26
0 4 12 111.62 11.45
0 -4 12 79.57 10.97
0 4 -12 99.64 12.53
0 -4 -12 103.3 11.34
0 4 13 -3.1 5.23
0 4 -13 2.3 4.83
0 -4 13 6.33 5.33
0 -4 -13 0.65 3.77
0 4 13 8.42 5.82
0 4 -13 1.84 4.88
0 -4 13 -1.35 5.85
0 -4 -13 2.56 4.66
0 -4 14 29.34 8.27
0 4 -14 41.81 10
0 4 -14 36.44 9.21
0 -4 -14 53.41 10.6
0 -4 14 38.87 8.93
0 4 14 41.93 9.28
0 4 -15 -6.71 7.32
0 -4 15 -4.58 7.71
0 4 -15 4.19 6.23
0 4 15 6.77 5.52
0 -4 15 2.62 5.78
0 -4 -15 5.08 6.05
0 5 0 3.96 3.96
0 -5 0 2.83 3.37
0 5 0 -1.65 3.14
0 5 0 3.41 2.42
0 5 0 -3.3 4.32
0 -5 0 -0.72 3.44
0 5 0 -0.93 1.52
0 5 -1 45.84 5.11
0 -5 -1 43.71 5.26
0 -5 1 32.71 6.44
0 5 -1 44.5 4.47
0 -5 -1 49.8 7.35
0 5 1 43.22 4.71
0 -5 1 54.12 7.22
0 5 -1 40.27 5.63
0 5 1 46.62 6.6
0 5 -1 43.42 6.23
0 5 1 58.07 6.49
0 5 -1 51.04 7.28
0 -5 -1 41.4 6.72
0 -5 -2 150.13 11.92
0 5 -2 159.35 10.62
0 -5 -2 168.66 9.93
0 5 2 165.53 9.59
0 5 -2 160.44 11.15
0 5 2 158.96 10.41
0 -5 2 146.19 11.59
0 5 -2 153.78 9.52
0 5 2 150.4 11.89
0 5 -2 134.53 11.07
0 -5 2 153.18 11.17
0 5 3 8.28 4.35
0 5 3 15.87 3.63
0 5 -3 15.85 4.29
0 5 -3 14.37 3.43
0 5 -3 10.1 3.79
0 -5 3 10 4.52
0 5 3 11.42 3.55
0 -5 3 15.86 4.82
0 -5 3 19.15 4.66
0 -5 -3 15.62 3.78
0 5 -3 12.62 4.24
0 -5 -3 7.33 4.13
0 -5 4 19.41 5.31
0 -5 -4 32.79 5.36
0 5 -4 33.26 5.19
0 5 4 24.5 5.87
0 -5 4 34.83 5.13
0 5 -4 22.15 5.71
0 5 -4 32.25 5.06
0 5 4 25.06 4.41
0 5 4 30.85 4.88
0 5 -4 23.79 5.19
0 -5 -4 23.22 5.71
0 -5 4 32.71 6.58
0 5 5 169.87 11.85
0 5 5 181.51 10.57
0 5 -5 181.32 11.75
0 -5 -5 177.88 11.73
0 5 -5 163.33 13.12
0 5 5 198.29 14.4
0 -5 5 180.13 10.9
0 -5 5 164.56 13.2
0 5 -5 191.67 12.99
0 -5 5 176.84 13.53
0 5 -5 175.06 10.85
0 -5 -5 149.42 12.7
0 -5 6 60.49 8.56
0 5 6 50.94 8.31
0 5 -6 51.6 8.62
0 -5 -6 58.21 7.16
0 5 -6 69.65 6.76
0 5 -6 64.51 8.33
0 5 -6 63.5 7.45
0 -5 -6 57.22 8.46
0 5 6 55.27 6
0 -5 6 62.5 8.47
0 5 6 62.91 7.68
0 5 -7 144.68 8.99
0 -5 7 139.87 12.86
0 5 -7 116.48 11.5
0 -5 7 118.23 11.65
0 5 -7 140.67 13.39
0 5 7 141.95 9.37
0 5 7 135.57 11.55
0 -5 -7 121.81 10.67
0 5 7 126.68 12.29
0 5 -7 145.55 11.54
0 -5 -7 128.85 12.29
0 -5 8 13.29 5.41
0 5 8 15.52 3.84
0 -5 8 9.56 5.05
0 -5 -8 11.64 5.3
0 5 8 11.13 4.75
0 5 -8 12.2 5.44
0 5 -8 14.07 5.25
0 5 8 12.12 5.4
0 -5 -8 13.66 5.13
0 -5 -9 295.7 19.02
0 -5 9 309.61 20.37
0 5 9 296.92 19.35
0 -5 9 305.82 19.78
0 -5 -9 288.13 18.34
0 5 -9 309.96 19.72
0 5 9 305.07 19.19
0 5 -9 322.34 19.29
0 5 10 12.36 5.49
0 -5 -10 14.64 5.45
0 -5 10 17.09 6.3
0 -5 -10 12.24 5.86
0 5 10 15.25 6
0 5 -10 7.56 5.53
0 5 -10 18.01 6.22
0 -5 10 13.55 6.15
0 -5 11 83.73 11.59
0 5 11 93.06 11.59
0 5 11 111.37 12.59
0 -5 11 86.39 12.18
0 5 -11 90.45 11.72
0 5 -11 87.01 11.73
0 -5 -11 89.42 10.95
0 -5 -11 78.57 10.83
0 5 12 17.04 6.53
0 -5 -12 21.99 6.68
0 5 -12 25.43 8.1
0 5 -12 23.71 7.38
0 -5 12 36.24 8.94
0 -5 -12 35.12 8.24
0 -5 12 19.77 7.48
0 5 12 30.13 7.49
0 5 13 10.05 6.29
0 -5 13 15.5 5.85
0 5 13 3.74 4.71
0 -5 -13 14.16 6.92
0 5 -13 6.11 6.54
0 5 -13 6.72 5.83
0 -5 -13 15.06 6.51
0 -5 13 21.98 8.33
0 -5 14 27.12 8.84
0 -5 -14 10.28 6.98
0 5 -14 -3.4 6.43
0 -5 14 5.07 5.75
0 5 -14 12.41 7.85
0 5 14 4.71 5.13
0 5 14 3.46 4.97
0 5 -15 7.63 7.15
0 -5 -15 12.5 7.06
0 6 0 131.35 8.39
0 6 0 134.88 11.92
0 6 0 138.95 10.67
0 6 0 135.37 9.13
0 -6 0 124.71 11.69
0 6 0 117.76 11.49
0 -6 0 117.93 11.46
0 6 -1 100.83 9.27
0 6 -1 97.27 10.48
0 -6 -1 102.81 10.87
0 6 -1 109.95 7.41
0 6 1 99.68 9.49
0 -6 1 99.38 10.19
0 6 1 106.63 8.38
0 6 -1 100.65 8.13
0 6 1 107.8 7.88
0 -6 1 79.28 9.78
0 6 -1 91.57 9.85
0 -6 -1 110.4 11.2
0 6 1 86.36 9.91
0 -6 -2 224.5 16.06
0 6 -2 256.28 11.77
0 6 -2 228.12 14.98
0 6 -2 225.47 15.92
0 6 2 224.07 16.03
0 -6 2 237.55 15.45
0 6 2 245.88 14.46
0 -6 2 237.24 16.25
0 -6 -2 243.66 13.41
0 6 -2 249.26 13.24
0 6 -2 230.33 14.38
0 6 2 259.67 13.08
0 6 -3 299.98 18.37
0 6 3 335.56 16.74
0 -6 -3 308.92 15.37
0 -6 3 298.67 18.62
0 6 3 326.9 15.59
0 6 -3 298.85 17.07
0 -6 3 314.94 17.55
0 6 -3 315.13 17.16
0 -6 -3 318.23 19.6
0 6 -3 313.82 15.53
0 6 3 338.25 20.04
0 6 -4 115.31 10.43
0 -6 4 106.83 11.08
0 -6 -4 109.98 9.67
0 -6 -4 103.84 11.66
0 6 -4 110.84 10
0 -6 4 102.11 9.6
0 6 -4 111.67 9.33
0 6 4 103.65 11.66
0 6 -4 106.49 11.47
0 -6 4 92.28 10.8
0 6 4 99.27 9.08
0 6 4 105.87 9.09
0 6 5 69.18 9.62
0 6 5 77.17 7.78
0 -6 -5 82.02 10.75
0 -6 5 83.48 8.7
0 6 -5 86.25 8.57
0 6 -5 94.52 8.87
0 6 5 99.69 9.44
0 6 -5 71.98 9.62
0 -6 5 62.14 9.4
0 -6 -5 82.39 8.73
0 -6 5 71.98 10.2
0 6 -5 77.46 9.28
0 -6 -6 47.45 8.87
0 6 6 44.5 6.01
0 6 -6 58.3 9.55
0 6 6 53.05 7.39
0 6 -6 51.07 7.95
0 -6 6 55.71 9
0 -6 -6 40.44 6.67
0 6 -6 66.72 7.41
0 6 -6 51.8 7.29
0 -6 6 36.42 7.72
0 6 6 50.55 9.11
0 -6 7 29.87 7.35
0 6 -7 48.8 8.35
0 6 -7 51.61 7.73
0 -6 -7 39.26 7.82
0 6 7 55.46 9.35
0 -6 -7 56.17 7.95
0 6 -7 43.9 9.31
0 -6 7 54.12 9.27
0 6 7 50.64 7.66
0 6 8 151.32 13.2
0 6 -8 137.21 13.22
0 -6 8 146.38 14.13
0 -6 8 121.46 13.19
0 6 8 149.27 14.64
0 -6 -8 144.85 14.53
0 -6 -8 144.88 12.82
0 6 -8 147.89 12.95
0 6 -9 36.02 8.14
0 6 9 41 7.75
0 -6 -9 52.74 9.4
0 -6 9 40.71 8.77
0 6 9 47.14 9.29
0 -6 9 31.13 7.68
0 -6 -9 44.71 8.33
0 6 -9 39.36 7.72
0 6 10 109.54 12.38
0 -6 -10 108.67 12.08
0 -6 10 89.57 12.32
0 6 10 102.9 12.48
0 6 -10 98.58 11.65
0 -6 10 107.01 13.21
0 6 -10 83.63 11.66
0 -6 -10 83.53 11.56
0 6 11 149.32 14.95
0 6 -11 147.24 15.37
0 -6 -11 144.31 14.82
0 -6 11 146.7 16.24
0 6 11 144.9 15.11
0 6 -11 136.43 14.04
0 -6 -11 150.96 14.77
0 -6 11 152.36 15.85
0 6 -12 65.05 10.72
0 -6 12 54.32 10.86
0 -6 -12 56.9 9.97
0 -6 -12 41.02 9.07
0 6 -12 64.44 11.69
0 -6 12 76.22 12.36
0 6 12 56.4 9.96
0 6 12 58.7 10.44
0 -6 13 21.79 8.16
0 6 -13 13.87 7.45
0 -6 -13 8.28 5.93
0 -6 -13 11.65 6.48
0 -6 13 14.59 7.05
0 6 13 12.5 6.09
0 6 13 7.04 6.23
0 6 -13 7.26 6.52
0 -6 -14 37.63 9.85
0 6 -14 25.22 8.53
0 6 14 39.7 9.55
0 6 14 5.21 5.66
0 7 0 0.52 2.7
0 7 0 -4.02 5.51
0 7 0 0.1 3.27
0 7 0 -3.36 4.48
0 7 0 -1.45 3.95
0 -7 0 -3.36 5.09
0 -7 0 2.94 4.93
0 7 -1 138.81 13.41
0 -7 1 157.8 14.17
0 7 1 131.07 13
0 7 -1 137.86 10.08
0 7 1 152.22 14
0 -7 1 123.35 12.68
0 7 -1 126.5 12.46
0 7 1 156.09 10.61
0 7 1 147.35 11.9
0 7 1 147.61 12.39
0 -7 -1 119.95 12.57
0 -7 -1 120.63 13.24
0 7 -1 142.36 11.7
0 -7 2 48.08 8.65
0 7 -2 57.94 6.94
0 7 -2 63.41 8.43
0 -7 -2 58.6 7.04
0 7 2 53.12 9.06
0 7 2 56.36 8.05
0 7 -2 52.94 8.18
0 7 -2 66.51 9.53
0 7 2 69.67 7.5
0 -7 -2 60.43 9.73
0 -7 2 63.31 9.04
0 -7 -3 35.95 5.87
0 7 -3 33.16 6.65
0 -7 3 34.19 6.94
0 7 -3 32.43 6.64
0 7 -3 26.03 7.06
0 7 3 38.37 8
0 -7 3 23.69 6.69
0 -7 -3 20.8 6.45
0 7 -3 42.83 6.12
0 7 3 32.85 6.13
0 -7 4 39.36 7.7
0 7 4 49.19 6.96
0 7 -4 39.99 8.42
0 7 -4 53.79 8.01
0 -7 4 55.98 9.07
0 -7 -4 49.82 6.96
0 -7 -4 36.78 8.22
0 7 4 51.76 6.61
0 7 4 53.27 9.48
0 7 -4 52.25 7.15
0 7 -4 44.95 7.69
0 -7 -5 98.58 12.34
0 7 -5 89.55 9.89
0 7 -5 112.02 11.65
0 7 5 113.28 10.54
0 7 5 97.27 12.42
0 -7 -5 95.65 9.93
0 7 -5 65.3 10.22
0 7 -5 95.94 9.56
0 -7 5 82.45 10.93
0 -7 5 86.91 11.65
0 7 -6 18 5.16
0 7 6 13.5 4.62
0 7 -6 3.73 4.59
0 -7 -6 11.7 4.96
0 7 -6 10.81 5.57
0 7 -6 16.83 5.09
0 -7 6 13.35 5.69
0 -7 -6 19.7 7.06
0 -7 6 13.13 6.64
0 7 6 13.89 6.71
0 -7 7 116.72 13.56
0 -7 -7 132.44 12.57
0 7 -7 163.56 16.27
0 7 -7 132.68 13.24
0 -7 -7 121.98 14.06
0 7 7 134.27 12.26
0 -7 7 126.68 14.45
0 7 -7 137.32 12.36
0 7 7 119.52 14
0 7 -8 17.91 6.48
0 7 8 20.13 7.57
0 7 8 15.55 5.28
0 -7 8 9.1 6.34
0 -7 -8 7.36 5.89
0 7 -8 17.95 5.99
0 -7 -8 22.03 6.21
0 -7 8 31.73 8.52
0 7 9 51.9 10.03
0 -7 -9 66.82 9.79
0 -7 9 54.72 10.51
0 -7 -9 54.56 10.4
0 7 9 51.3 8.57
0 7 -9 48.58 9.5
0 -7 9 54.72 10.36
0 -7 -10 26.47 8.37
0 7 -10 22.45 7.8
0 7 10 25.5 7.09
0 -7 -10 33.6 7.68
0 -7 10 17.32 6.74
0 -7 10 33.29 9.18
0 7 10 40.23 9.64
0 -7 11 50.77 9.95
0 7 11 61.1 10.13
0 -7 -11 52.22 9.72
0 -7 -11 79.31 12.3
0 7 11 57.01 10.92
0 -7 11 75.96 12.91
0 7 -11 49.75 10.14
0 -7 -12 -1.29 4.9
0 7 -12 10.07 6.99
0 7 12 -3.35 6.52
0 7 12 7.39 5.93
0 -7 -12 4.02 5.63
0 7 13 19.92 7.61
0 -7 -13 16.77 7.47
0 8 0 95.27 12.05
0 -8 0 109.05 13.07
0 8 0 92.34 10.86
0 -8 0 112.51 13.13
0 8 0 88.58 12.02
0 8 0 93.97 10.19
0 -8 1 6.87 5.08
0 8 1 -6.32 6.08
0 8 1 7.79 4.98
0 8 -1 5.27 3.82
0 -8 1 4.17 5.38
0 8 -1 10.36 6.19
0 8 1 15.38 5.06
0 8 -1 13.38 5.48
0 8 1 19.1 5.79
0 -8 -1 20.37 7.3
0 8 -1 4.65 4.59
0 8 -2 165.45 13.9
0 8 -2 190.36 16.21
0 8 2 172.1 14.2
0 8 2 164.6 13.45
0 8 -2 145.82 14.93
0 -8 2 181.33 15.99
0 -8 -2 176.7 16.75
0 8 2 174.75 16.46
0 8 2 173.45 16.36
0 -8 2 178.57 16.46
0 8 -3 53.89 10.02
0 -8 3 48.72 8.56
0 8 -3 57.83 8.89
0 -8 -3 52.08 9.91
0 8 -3 47.15 8.54
0 -8 3 49.75 9.65
0 8 3 58.2 10.13
0 -8 -4 24.82 7.91
0 -8 4 15.88 7.12
0 8 -4 -4.11 7.4
0 8 -4 21.57 6.12
0 8 4 18.3 6.95
0 8 -4 25.84 6.78
0 8 -5 50.14 8.52
0 -8 5 62.45 11.35
0 8 -5 57.23 10.58
0 -8 -5 63.03 11.19
0 8 5 81.02 12.39
0 8 -5 66.09 9.79
0 8 6 9.03 7.55
0 8 -6 12.35 6.08
0 -8 -6 10.06 6.79
0 8 -6 10.94 6.55
0 -8 6 12.41 7.06
0 8 7 0.86 5.35
0 -8 -7 0.38 5.59
0 -8 7 5.83 4.95
0 8 -7 8.17 7.36
0 -8 7 9.83 7.47
0 8 -7 7.86 5.81
0 -8 8 3.64 5.68
0 -8 -8 4.12 5.55
0 8 -8 28.6 8.28
0 -8 8 8.25 5.99
0 8 -8 9.96 7.47
0 8 8 16.51 7.97
0 8 -9 120.19 14.46
0 8 9 117.38 15.33
0 -8 -9 74.86 12.73
0 -8 9 119.98 14.95
0 8 -10 80.92 12.14
0 9 0 -1.55 4.83
0 9 0 9.91 7.03
0 9 0 -3.79 4.49
0 -9 0 0.74 5.03
0 9 1 30.83 8.44
0 9 -1 25.36 7.34
0 -9 1 24.1 7.69
0 -9 -1 30.41 8.15
0 9 1 9.24 5.8
0 9 -1 22.36 7.86
0 9 -1 38.56 8.67
0 -9 1 27.36 7.55
0 -9 2 22.99 8.12
0 -9 -2 9.93 6.67
0 9 -2 13.96 5.2
0 9 -2 12.6 5.82
0 9 2 7.41 6.12
0 9 2 4.04 5.63
0 9 -2 6.93 5.47
0 9 -3 2.3 5.96
0 9 -3 25.14 7.84
0 9 -3 18.56 7.1
0 9 3 5.24 5.8
0 9 3 10.61 7.42
0 -9 -3 10.77 6.54
0 -9 3 9.1 6.97
0 9 4 20.16 7.46
0 -9 -4 9.99 6.1
0 9 -4 6.05 5.95
0 9 -4 12.32 6.2
0 9 4 14.53 6.76
0 -9 4 18.07 8.06
0 -9 5 13.83 7.7
0 9 -5 7.18 7.19
-1 0 16 43.65 9.78
1 0 -16 48.22 10.39
-1 0 15 76.83 11.45
1 0 -15 67.81 11.2
1 0 -15 92.48 13.01
1 0 -14 27.44 8.07
1 0 -14 38.49 8.66
-1 0 14 39.24 8.17
-1 0 13 14.29 5.78
1 0 -13 12.21 5.97
1 0 -13 5.13 5.53
1 0 -12 8.11 5.44
1 0 -12 6.35 5.44
-1 0 12 5.04 4.49
-1 0 11 57.79 8.58
1 0 -11 62.73 8.88
-1 0 11 63.68 4.26
1 0 -11 54.74 8.65
-1 0 10 58.63 8.33
1 0 -10 68.46 8.51
-1 0 10 75.12 4.69
-1 0 10 68.83 4.51
1 0 -10 75.76 9.26
1 0 -9 -0.69 3.87
-1 0 9 1.28 3.95
-1 0 9 3.09 1.35
-1 0 8 27.71 2.99
1 0 -8 29.35 5.79
-1 0 8 27.23 5.69
1 0 -8 27.15 5.68
-1 0 7 39.19 6.15
1 0 -7 41.44 5.68
1 0 -7 52.33 6.45
-1 0 7 47.61 3.69
-1 0 7 39.1 5.36
1 0 -6 169.99 10.07
1 0 -6 147.4 9.5
-1 0 6 144.24 9.54
-1 0 6 169.87 6.93
-1 0 6 155.16 10.28
1 0 -5 87.03 6.12
-1 0 5 102.61 6.27
1 0 -5 91.01 7.02
-1 0 5 99.24 7.39
1 0 -5 91.66 7.04
1 0 -5 96.17 3.98
-1 0 5 99.1 7.4
1 0 -4 92.15 6.43
1 0 -4 92.73 6.23
-1 0 4 95.18 6.73
1 0 -4 95.09 6.49
-1 0 4 95.8 6.32
1 0 -4 89.17 5.67
-1 0 4 96.85 6.21
-1 0 4 111.5 6.92
1 0 -4 92.88 4.02
-1 0 4 90.11 6.52
1 0 -4 104.28 6.76
-1 0 3 1538.34 36.58
-1 0 3 1574.56 35.77
-1 0 3 1625.85 36.05
1 0 -3 1563.49 33
1 0 -3 1508.43 35.65
1 0 -3 1591.14 36.82
1 0 -3 1521.15 35.52
1 0 -3 1537.27 34.9
1 0 -3 1618.33 36.8
-1 0 2 1945.71 41.88
1 0 -2 1917.37 42.17
1 0 -2 1948.84 41.82
1 0 -2 2065.78 43.48
-1 0 2 1963.22 43.05
-1 0 2 2001.3 42.38
-1 0 1 31.47 2.21
-1 0 1 34.17 2.31
-1 0 1 19.29 2.94
1 0 -1 19.92 2.39
-1 0 1 21.63 2.43
1 0 -1 19.44 2.44
1 0 1 1907.21 39.92
1 0 1 1879.04 38.98
-1 0 -1 1843.47 39.75
-1 0 -1 1888.44 38.88
1 0 1 1852.1 39.91
-1 0 -2 158.7 6.9
1 0 2 150.74 6.86
1 0 2 151.72 6.81
-1 0 -2 148.6 6.79
-1 0 -3 48.84 4.26
1 0 3 46.48 4.66
1 0 3 44.6 4.26
-1 0 -3 46.44 4.48
1 0 3 41.55 4.25
1 0 4 643.25 20.2
-1 0 -4 640.08 20.27
1 0 4 724.67 20.91
1 0 4 724.65 21.21
-1 0 -4 685.96 20.48
-1 0 -4 690.57 18.37
-1 0 -4 656.32 18.13
1 0 5 251.46 11.87
-1 0 -5 241 9.32
-1 0 -5 237.98 11.81
-1 0 -5 259.44 9.62
1 0 6 135.15 9.25
-1 0 -6 154.6 10.39
-1 0 -6 157.23 7.38
-1 0 -6 170.42 7.59
-1 0 -7 98.87 8.95
1 0 7 112.8 9.01
-1 0 -7 105.19 6.02
-1 0 -7 105.48 6.2
-1 0 -8 155.33 7.65
-1 0 -8 157.68 7.68
1 0 8 157.69 11.36
-1 0 -8 155.86 11.53
-1 0 -9 42.83 7.42
-1 0 -9 33.51 3.61
1 0 9 35.62 6.24
-1 0 -10 434.01 22.57
-1 0 -10 479.84 15.41
1 0 10 477.61 22.85
-1 0 -11 10.84 5.99
1 0 11 7.41 5.2
1 0 12 2.43 4.52
-1 0 -12 -0.26 5.27
1 0 13 5.44 5.44
-1 0 -13 1 4.82
1 0 14 5.16 4.83
-1 0 -14 -2.04 5.19
1 0 15 -2.36 4.77
-1 0 -15 17.89 8.25
1 0 16 1.87 4.95
-1 0 -16 -0.74 6.06
1 1 -17 144.25 16.67
-1 -1 17 139.49 15.85
1 -1 -16 3.68 6.49
-1 -1 16 2.81 6.04
1 1 -16 16.28 8.03
1 1 -16 9.35 6.66
-1 1 16 9.83 5.47
1 -1 -15 74.96 11.82
-1 -1 15 91.29 11.92
1 1 -15 69.09 12.21
1 1 -15 75.43 11.41
-1 1 15 68.37 11.51
-1 -1 15 85.04 12.1
-1 -1 14 59.7 9.71
-1 1 14 52.12 9.65
1 1 -14 45.99 9.4
1 1 -14 62.12 10.77
1 -1 -14 49.76 9.53
-1 -1 14 48.43 9.22
-1 -1 13 153.02 14.04
1 1 -13 140.72 13.91
1 1 -13 164.25 15.38
1 -1 -13 181.8 15.94
-1 1 13 141.83 14.24
-1 -1 13 178.8 15.61
-1 1 12 323.05 13.45
-1 1 12 273.02 18.99
1 -1 -12 276.13 19.23
1 -1 -12 287 19.05
-1 -1 12 294.42 19.54
1 1 -12 257.43 17.89
1 1 -12 276.63 19.03
1 1 -11 77.44 9.51
1 1 -11 62.78 9.43
-1 1 11 56 8.64
-1 1 11 89.05 6.77
1 -1 -11 62.61 8.98
-1 -1 11 59.29 8.78
1 -1 -11 61.45 8.71
1 1 -10 29.09 6.47
-1 -1 10 24.88 5.94
-1 1 10 25.84 6.16
1 1 -10 32.04 7.23
1 -1 -10 25.73 6.13
-1 1 10 25.98 3.86
1 -1 -10 26.26 5.72
1 -1 -9 60.04 8
-1 -1 9 59.47 7.89
1 -1 -9 43.04 7.11
1 1 -9 48.63 7.42
-1 1 9 50.63 4.04
-1 1 9 60.16 7.93
1 1 -9 65.44 7.88
-1 1 9 55.4 6.94
-1 1 8 358.48 11.91
1 -1 -8 323.43 16.92
1 1 -8 329.36 16.29
-1 1 8 320.67 16.95
-1 1 8 339.03 16.15
1 -1 -8 332.08 16.56
-1 1 8 378.53 14.03
-1 -1 8 341.78 17.33
1 1 -8 342.44 17.17
-1 1 7 434.43 13.57
1 1 -7 410.85 17.76
-1 1 7 398.92 18.08
-1 -1 7 420.75 18.38
-1 -1 7 411.29 10.67
-1 -1 7 469.25 15.38
1 1 -7 421.47 17.63
1 -1 -7 435.21 17.85
-1 1 7 416.21 17.18
-1 1 7 460.41 15.6
1 1 -7 396.87 18.08
1 -1 -7 420.46 18.37
-1 -1 6 2050.97 50.19
1 -1 -6 1967.57 51.7
-1 -1 6 2331.26 47.7
-1 1 6 2264.61 49.09
1 1 -6 2040.52 51.24
-1 1 6 2032.51 52
1 1 -6 2003.98 50.4
-1 1 6 1997.33 50.6
1 -1 -6 2120.24 50.97
1 1 -6 2089.22 52.1
-1 1 6 2117.14 46.54
-1 -1 5 119.57 7.43
-1 1 5 125.97 8.38
-1 1 5 135.3 8.32
1 -1 -5 116.67 8.27
1 1 -5 120.62 8.34
1 -1 -5 130.29 8.28
-1 1 5 126.23 6.26
-1 1 5 131.74 7.67
-1 -1 5 136.03 8.97
1 -1 -5 122.61 6.39
1 -1 -5 122.89 7.74
1 1 -5 119.31 7.96
1 1 -5 120.06 7.67
-1 1 5 135.31 7.28
-1 -1 4 857.49 22.91
-1 1 4 848.67 23.86
1 1 -4 833.86 24.17
1 1 -4 759.93 21.73
1 -1 -4 871.26 23.59
-1 -1 4 817.54 23.32
1 1 -4 881.05 24.16
-1 1 4 801.79 21.02
-1 -1 4 773.88 22.88
-1 1 4 859.33 22.29
1 1 -4 793.52 23.55
-1 1 4 797.63 23.05
-1 -1 4 784.14 21.77
1 1 -4 783.23 19.46
-1 1 4 822.24 21.79
-1 1 4 794.62 22.94
1 -1 -4 781 22.89
1 -1 -4 799.4 21.81
-1 -1 4 858.62 24.08
1 -1 -4 771.97 23.45
1 -1 -4 822.78 21.06
1 -1 -4 857.73 23.47
1 -1 -3 1015.83 24.57
1 1 -3 1068.68 27.54
-1 -1 3 1109.64 25.92
1 1 -3 1067.24 25.49
-1 -1 3 1027.53 26.67
1 -1 -3 1067.6 26.41
1 -1 -3 1041.18 25.49
-1 1 3 1122.91 27.6
-1 -1 3 1015.99 25.18
-1 1 3 1018.46 26.59
1 -1 -3 1016.5 26.73
1 1 -3 1010.62 24.77
1 1 -3 995.91 26.98
-1 -1 3 1082.55 26.9
1 -1 -3 1122.12 27.21
-1 1 3 1041.7 24.58
-1 -1 3 1047.48 27.17
-1 1 3 1023.25 26.11
-1 1 3 1057.85 25.51
1 -1 -3 975.53 26.9
1 1 -2 161.61 7.72
1 -1 -2 164.28 7.61
1 1 -2 174.37 7.56
1 1 -2 164.04 6.51
-1 -1 2 158.68 6.41
-1 -1 2 168.05 6.28
1 1 -2 155.22 5.75
-1 1 2 163.74 7.25
1 -1 -2 164.9 7.28
1 1 -2 166.99 7.57
1 -1 -2 155.91 7.55
-1 -1 2 164.43 7.65
1 -1 -2 169.73 5.61
-1 1 2 174.47 7.88
-1 -1 2 142.47 6.97
1 1 -2 151.71 7.5
-1 1 2 167.56 5.53
-1 -1 2 148.33 6.99
-1 1 2 158.97 7.66
1 -1 -2 162.09 6.76
-1 1 2 160.36 6.73
1 1 -1 154.67 6.54
-1 -1 1 163.9 6.59
1 1 -1 153.36 6.47
1 1 -1 151.28 5.97
1 1 -1 153.88 6.46
1 -1 -1 155.49 5.56
-1 -1 1 157.34 6.64
-1 1 1 152.96 5.38
-1 -1 1 163.02 7.09
1 -1 -1 140.7 6.68
-1 -1 1 170.27 7.15
-1 1 1 147.9 6.91
-1 1 1 143.85 7
1 -1 -1 151.83 7.07
-1 1 1 155.51 7.13
-1 -1 1 154.76 6.47
1 -1 -1 152.64 7.08
1 -1 0 9806.65 188.53
-1 1 0 9970.9 188.32
1 -1 0 9759.53 185.93
-1 1 0 9755.01 186.02
1 1 0 9865.25 186.91
1 -1 0 9590.5 188.19
1 -1 0 9834.91 184.63
-1 -1 0 8547.62 185.18
1 -1 0 9624.98 188.26
-1 -1 0 9680.42 188.43
-1 1 0 9999 188.39
-1 1 0 9824.37 184.63
1 1 0 9655.7 185.58
-1 1 0 9649.23 188.31
-1 -1 0 9395.24 188.11
-1 1 -1 4085.03 81.9
-1 1 -1 4215.65 85.3
1 -1 1 4140.46 84.83
1 -1 1 4214.74 82.01
-1 1 -1 4277.71 83.91
-1 -1 -1 4167.97 81.39
-1 1 -1 4237.73 82.12
1 -1 1 4098.5 83.8
1 -1 1 4128.13 81.9
-1 1 -1 4142.8 85.08
1 1 1 4088.27 85.35
-1 -1 -1 3818.7 84.9
1 1 1 4303.59 84.13
1 -1 1 4276.45 82.17
1 -1 1 4201.25 81.33
1 1 1 4187.03 81.51
1 1 1 4009.79 85.33
-1 -1 -1 4004.94 85.52
-1 1 -1 4136.46 82.01
1 1 2 172.01 6.66
-1 -1 -2 180.15 8.29
1 -1 2 179.47 6.97
-1 -1 -2 165.5 7.89
1 1 2 187.77 8.4
1 -1 2 176.23 6.41
-1 1 -2 175.11 8.3
-1 1 -2 163 7.17
-1 1 -2 173.45 6.36
1 1 2 189.44 8.63
1 -1 2 181.37 8.43
1 -1 2 193.96 7.25
1 1 2 161.6 8.11
1 -1 2 189.45 7.09
-1 -1 -2 177.38 8.19
1 -1 2 159.65 7.63
1 -1 2 171.37 7.85
-1 -1 -2 179.43 6.89
-1 -1 -3 1229.24 31.01
-1 -1 -3 1336.36 32.63
1 1 3 1298.45 30.4
-1 -1 -3 1255.24 31.32
-1 1 -3 1234.13 31.96
1 1 3 1375.09 31.85
1 -1 3 1353.14 32.67
1 1 3 1279.95 31.54
1 1 3 1262.64 32.25
-1 -1 -3 1263.96 30.29
1 -1 3 1176.85 29.86
1 -1 3 1267.95 29.73
-1 1 -3 1278.94 29.83
1 -1 3 1363.52 31.14
-1 1 -3 1219.14 30.87
1 1 4 158.83 8.25
-1 -1 -4 159.2 8.06
1 1 4 166 8.49
-1 -1 -4 168.67 5.7
1 -1 4 156.1 8
-1 -1 -4 157.67 8.33
-1 1 -4 145.84 7.6
1 1 4 149.82 8.97
-1 1 -4 151.69 8.56
1 1 4 188.07 8.78
1 -1 4 165.58 8.62
-1 1 -4 156.56 9.2
-1 -1 -4 159.55 8.17
1 1 5 24.71 3.69
-1 1 -5 19.47 3.5
1 -1 5 14.28 3.18
1 1 5 23 4.3
-1 -1 -5 19.35 3.51
-1 -1 -5 13.2 2.87
-1 1 -5 18.97 4.29
-1 1 -5 14.71 4.42
-1 -1 -5 17.88 2.31
1 1 5 15.58 3.89
-1 -1 -5 21.85 4.62
1 1 6 152.12 10.24
-1 1 -6 168.49 6.9
-1 -1 -6 161.29 8.65
1 1 6 166.8 9.17
-1 1 -6 180.68 7.03
1 -1 6 150.46 9.62
-1 -1 -6 166.52 8.84
-1 -1 -6 167.9 7.58
1 1 6 185.58 9.37
-1 1 -6 174.47 11.23
-1 -1 -6 161.68 10.28
-1 1 -6 143.79 10.21
-1 -1 -7 19.49 5.09
1 1 7 20.76 3.92
-1 1 -7 12.25 1.94
-1 1 -7 15.52 4.84
-1 -1 -7 18.57 3.05
1 -1 7 20.15 4.35
-1 1 -7 14.94 5.09
-1 -1 -7 16.78 3.47
1 1 7 24.1 3.84
1 1 7 18.5 4.74
-1 1 -7 17.03 2.13
-1 -1 -8 87.54 6.67
1 1 8 104.27 7.51
-1 1 -8 93.98 4.66
-1 1 -8 106.94 9.91
-1 1 -8 93.42 9.26
1 -1 8 89.66 6.04
1 1 8 109.31 9.64
1 -1 8 97.4 8.67
-1 -1 -8 103.8 7.08
-1 1 -8 94.4 4.71
-1 -1 -8 98.98 9.33
1 -1 9 271.14 15.53
1 1 9 264.99 16.27
-1 1 -9 272.52 8.59
-1 1 -9 276.87 16.65
-1 -1 -9 268.83 16.12
-1 -1 -9 266.69 12.37
-1 1 -9 259.17 16.23
1 -1 9 256.62 10.47
1 -1 10 274.99 16.71
-1 1 -10 254.45 16.92
1 -1 10 273.09 10.63
1 1 10 239.47 16.24
-1 1 -10 251.77 17
-1 -1 -10 244.54 16.29
-1 -1 -10 278.63 12.92
-1 -1 -11 783.12 32.49
1 1 11 792.8 33.04
-1 1 -11 770.85 33
-1 1 -11 838.14 34.04
-1 -1 -11 817.05 25.5
1 -1 11 829.66 32.53
-1 -1 -12 329.53 20.9
-1 1 -12 288.21 20.03
1 1 12 305.49 20.24
1 -1 12 335.41 20.36
-1 -1 -12 321.04 20.61
-1 -1 -13 45.37 9.28
1 1 13 26.78 7.16
-1 1 -13 30.82 7.71
1 -1 13 33.65 7.73
-1 1 -14 18.23 8.26
-1 -1 -14 1.56 5.27
1 -1 14 10.16 6.01
1 1 14 7.7 4.65
-1 1 -15 15.76 6.93
-1 -1 -15 21.09 7.59
1 -1 15 20.94 7.32
1 1 15 7.26 5.99
-1 1 -16 42.27 10.55
-1 -1 -16 28.88 8.87
1 -1 16 19.11 6.85
1 1 16 37.62 9.55
1 -1 16 34.58 9.38
-1 -2 17 25.9 8.05
1 2 -17 45.11 10.47
1 -2 -16 53.62 10.91
-1 2 16 71.5 12.31
-1 -2 16 72.23 12.67
1 2 -16 60.47 11.58
-1 -2 16 56.57 10.65
1 2 -16 45.03 9.96
-1 -2 15 14.41 7.19
1 2 -15 3.08 6.45
1 2 -15 7.55 5.79
-1 2 15 11.36 6.12
1 -2 -15 -0.69 5.09
-1 -2 15 8.36 6.88
-1 2 14 97.36 12.78
-1 -2 14 114.45 12.96
-1 -2 14 93.38 12.89
1 2 -14 104.74 12.48
1 2 -14 92.7 13.16
1 -2 -14 96.76 12.81
1 -2 -13 141.88 14.77
1 2 -13 152.44 15.06
-1 -2 13 143.39 14.6
1 2 -13 151.72 14.39
-1 -2 13 150.66 14.18
-1 2 13 156.23 15.09
1 2 -12 27.35 6.64
-1 -2 12 36.2 8.44
-1 2 12 32.32 5.43
-1 -2 12 21.89 6.13
-1 2 12 30.85 7.94
1 -2 -12 32.68 7.5
1 2 -12 31.02 7.9
1 2 -11 14.32 5.56
-1 2 11 24.66 6.32
-1 -2 11 20.12 7.18
1 2 -11 14.38 5.5
1 -2 -11 15.65 5.49
-1 -2 11 16.87 5.4
-1 2 11 19.34 4.45
-1 2 11 19.9 4.89
1 2 -11 24.97 6.41
1 2 -10 219.94 15.8
-1 2 10 226.36 15.74
-1 -2 10 229.47 15.74
1 2 -10 218.9 15.45
-1 -2 10 217.42 14.71
1 -2 -10 230.38 16.15
-1 2 10 227.75 13.94
-1 2 10 235.56 13.01
-1 2 9 65.95 7.35
-1 -2 9 55.97 7.38
1 2 -9 64.67 8.79
1 2 -9 55.71 7.76
1 -2 -9 55.48 7.65
-1 2 9 66.19 8.11
-1 -2 9 48.83 8.05
1 -2 -8 2.5 4.28
-1 2 8 4.96 3.6
-1 -2 8 7.14 2.16
-1 2 8 7.48 3.99
-1 -2 8 3.79 3.41
1 2 -8 7.3 4.24
-1 -2 8 5.3 4.1
1 2 -8 -0.79 4.29
1 2 -7 121.08 10.12
1 2 -7 125.52 4.62
-1 -2 7 124.71 10.12
-1 2 7 129.86 9.87
1 -2 -7 127.69 10.25
-1 -2 7 140.13 4.6
1 2 -7 126.23 9.42
-1 2 7 125.58 9
-1 -2 7 140.15 10.05
1 2 -6 329.23 9.82
-1 -2 6 345.02 9.73
-1 -2 6 339.55 9.73
1 -2 -6 304.77 15.1
-1 2 6 297.31 13.79
-1 -2 6 312.2 15.46
1 2 -6 303.21 15.55
-1 -2 6 307.12 14.44
1 2 -6 315.59 14.43
-1 2 6 312.77 14.78
-1 2 5 720.23 21.46
-1 2 5 663.04 21.86
-1 2 5 679.6 22.23
-1 -2 5 746.97 18.23
1 -2 -5 671.74 23.31
1 2 -5 757.23 18.35
1 2 -5 688.8 21.92
-1 -2 5 717.6 18.01
1 -2 -5 689.77 21.59
-1 -2 5 672.17 22.25
1 -2 -5 645.93 22.99
1 2 -5 694.46 23.97
-1 -2 5 691.43 23.57
1 -2 -4 455.84 15.87
-1 2 4 419.59 15.32
-1 -2 4 441.97 13.37
1 -2 -4 466.12 15.78
1 -2 -4 470.95 16.34
-1 -2 4 422.29 16.58
1 -2 -4 427.62 16.59
1 2 -4 429.53 14.91
-1 2 4 436.4 15.95
-1 2 4 483.11 16.26
-1 -2 4 456.87 13.47
1 2 -4 450.72 17.11
-1 2 4 465.12 14.68
1 2 -4 421.07 16.86
1 -2 -4 429.87 16.71
-1 -2 4 483.59 15.17
-1 -2 4 432.23 15.92
-1 -2 3 1260.67 33.45
-1 -2 3 1269.58 32.77
-1 -2 3 1302.38 30.84
-1 2 3 1258.64 31.28
-1 2 3 1237.02 32.75
1 2 -3 1228.03 30.41
1 2 -3 1260.08 33.74
1 -2 -3 1329.93 31.61
1 2 -3 1350.77 31.29
1 -2 -3 1401.71 33.68
1 -2 -3 1245.26 33.46
-1 -2 3 1372.59 31.2
1 -2 -3 1186.59 33.48
-1 2 3 1365.07 33.8
-1 -2 3 1346.88 30.57
1 2 -3 1335.73 33.04
1 2 -3 1267.11 33.9
1 2 -3 1398.5 31.39
1 -2 -3 1288.95 33.29
-1 2 3 1342.05 30.24
1 2 -2 1342.68 32.55
-1 2 2 1314.52 30.95
-1 -2 2 1254.44 27.84
-1 2 2 1246.41 28.8
-1 -2 2 1233.32 30.5
1 -2 -2 1223.05 31.89
-1 -2 2 1222.58 31.08
1 2 -2 1216.65 32.23
-1 -2 2 1207.86 31.93
-1 -2 2 1289.22 30.86
-1 2 2 1332.77 32.62
1 -2 -2 1247.92 32.27
-1 2 2 1213.96 31.69
1 -2 -2 1305.15 32.27
1 2 -2 1260.73 30.84
-1 2 2 1288.85 32.33
-1 2 2 1375.45 33.05
1 2 -2 1220.95 31.23
1 2 -2 1351.27 31.21
1 2 -2 1239.42 27.81
1 2 -2 1221.75 32.02
1 -2 -2 1289.75 28.93
1 -2 -2 1138.56 31.72
-1 -2 2 1324.41 32.78
-1 -2 1 2344.06 51.89
1 2 -1 2409.97 52.15
-1 2 1 2433.06 52.52
1 2 -1 2312.14 51.95
-1 2 1 2284.04 47.18
1 -2 -1 2250.2 52.78
-1 -2 1 2216.04 51.53
-1 2 1 2262.49 52.42
1 2 -1 2222.23 52.1
1 -2 -1 2414.08 52.85
-1 2 1 2386.76 50.47
1 -2 -1 2360.16 47.23
1 2 -1 2468.26 52.62
-1 -2 1 2177.73 51.66
1 -2 -1 2185.69 51.79
-1 2 1 2377.39 52.84
1 2 -1 2372.07 51.76
-1 2 1 2441.37 53.11
-1 2 1 2403.5 50.93
1 2 0 1438.52 34.12
-1 2 0 1313.2 33.75
1 2 0 1427.96 33.57
-1 2 0 1433.26 34.26
-1 2 0 1419.48 31.69
-1 -2 0 1326.97 33.63
-1 -2 0 1420.43 34.07
-1 -2 0 1313.37 33.27
1 -2 0 1340.52 33.43
-1 2 0 1443.56 32.87
-1 2 0 1324.12 28.51
1 -2 0 1304.19 31.46
1 2 0 1332.37 33.71
1 -2 0 1318.13 32.3
1 -2 0 1347.8 34.02
-1 2 0 1391.09 33.68
-1 2 0 1422.57 33.7
1 -2 1 6151.94 126.75
-1 -2 -1 6119.05 127.31
-1 2 -1 6745.28 128.13
1 2 1 5759.74 120.9
-1 2 -1 6230.52 127.5
1 2 1 6431.68 128.24
-1 -2 -1 6083.77 128.06
1 -2 1 6214.74 125.13
-1 2 -1 7113.1 128.58
1 2 1 6874.08 128.11
1 2 1 5881.69 127.64
1 -2 1 6164.21 127.56
1 2 1 6278.4 127.49
-1 2 -1 6428.2 126.87
-1 2 -1 6357 123
-1 2 -1 6728.31 127.26
1 -2 1 6517.19 123.11
-1 -2 -1 6403.2 121.9
-1 2 -1 6510.29 125.43
-1 2 -1 6180.84 125.21
-1 -2 -1 5628 127.37
-1 -2 -2 176.23 9.17
1 2 2 163.12 9.15
-1 2 -2 173.47 8.57
1 -2 2 157.92 7.76
1 2 2 187.32 9.33
1 -2 2 153.87 8.48
-1 2 -2 162.79 5.36
1 -2 2 168.23 5.47
1 2 2 183.33 8.87
-1 2 -2 177.72 8.04
1 -2 2 155.34 8.56
1 2 2 162.18 4.98
-1 -2 -2 158.51 8.92
1 2 2 159.38 8.7
-1 -2 -2 157.31 6.69
1 -2 2 178.35 9.32
1 2 2 176.49 6.45
1 -2 2 190.74 7.54
-1 2 -2 166.89 8.88
-1 2 -2 162.57 7.17
-1 2 -2 164.6 7.92
1 -2 2 174.97 8.06
-1 2 -2 180.6 8.86
-1 2 -3 179.01 9.75
1 2 3 177.13 9.9
1 -2 3 181.11 8.95
1 -2 3 188.12 7.16
1 -2 3 190.94 9.01
1 -2 3 201.83 8.87
-1 -2 -3 176.48 9.7
1 -2 3 176.3 8.72
-1 2 -3 186.71 7.11
-1 2 -3 188.49 8.65
1 -2 3 183.24 9.71
1 2 3 173.25 9.62
1 2 3 191.69 7.98
-1 -2 -3 174.16 8.14
-1 2 -3 178.58 8.81
-1 2 -3 187.41 8.8
-1 2 -3 185.88 9.02
1 -2 4 1788.21 41.34
1 2 4 1794.93 45.05
-1 2 -4 1868.33 41.36
1 -2 4 1799.11 42.46
1 2 4 1796.05 45.68
1 2 4 1893.32 42.86
-1 -2 -4 1747.53 44.62
-1 2 -4 1764.17 43.54
-1 -2 -4 1831.41 43.31
1 -2 4 1749.94 45.22
-1 2 -4 1780.06 45.28
1 -2 4 1988.22 44.51
1 -2 4 1797.97 44
1 -2 5 234.79 12.81
1 -2 5 240.27 12.13
1 -2 5 252.51 10.94
-1 2 -5 232.18 12.55
-1 -2 -5 233 11.87
-1 2 -5 248.36 10.63
-1 -2 -5 240.17 7.26
1 -2 5 246.46 10.49
-1 2 -5 229 11.8
1 2 5 228.06 11.86
1 2 5 243.9 13
-1 -2 -5 252.02 12.04
1 -2 6 143.09 9.94
1 2 6 123.05 9.62
-1 -2 -6 139.1 5.79
-1 2 -6 127.12 9.32
1 -2 6 138.16 7.48
-1 -2 -6 133.63 8.96
-1 -2 -6 125.96 9.13
1 -2 6 113.08 9.43
1 -2 6 139.59 8.75
1 2 6 143.01 9.44
-1 2 -6 126.34 9.81
-1 -2 -7 158.21 10.11
1 2 7 170.82 10.69
1 -2 7 176.32 10.56
1 2 7 164.37 11.7
-1 2 -7 160.58 11.37
-1 -2 -7 173.28 7.44
-1 2 -7 159.4 11.66
1 -2 7 175.69 11.61
-1 -2 -7 159.99 11.07
1 -2 7 155.74 11.51
1 -2 7 166.14 8.27
1 2 8 65.96 8.33
1 2 8 69.3 7.01
-1 -2 -8 62.38 7.73
-1 2 -8 60.67 7.96
1 -2 8 70.6 8.37
-1 -2 -8 56.8 6.33
-1 2 -8 53.85 7.29
-1 -2 -8 56.94 4.63
1 -2 8 65.72 8.32
-1 2 -8 65.21 3.45
1 -2 8 56.53 6.83
-1 2 -8 61.61 3.26
1 -2 8 66.01 5.27
-1 2 -8 59.12 3.41
1 -2 9 55.53 4.77
1 -2 9 65.68 8.97
-1 2 -9 46.71 7.45
-1 -2 -9 53.76 6.32
-1 2 -9 50.67 7.83
1 2 9 53.81 7.8
1 -2 9 45.48 7.68
-1 -2 -9 55.49 4.99
1 -2 9 46.09 6.62
-1 -2 -9 57.87 8.08
1 2 9 51.51 6.56
-1 2 -10 613.58 28.04
-1 -2 -10 679.19 24.43
1 -2 10 630.67 27.28
1 -2 10 642.69 26.4
1 -2 10 670.14 19.05
1 -2 10 578.81 27.29
1 2 10 638.15 28.4
-1 -2 -10 635.58 27.59
-1 2 -10 612.07 27.86
1 2 10 680.32 24.89
1 2 11 22.4 5.7
-1 2 -11 23.46 7.49
1 2 11 19.12 6.24
-1 -2 -11 23.07 4.73
-1 -2 -11 15.14 5.51
1 -2 11 41.9 8.76
-1 2 -11 25.57 7.13
1 -2 11 17.49 5.5
1 -2 11 17.24 6.54
-1 -2 -12 8.97 3.46
-1 2 -12 4.93 5.02
1 -2 12 4.99 3.61
-1 2 -12 12.08 6.38
1 -2 12 6.11 6.31
1 2 12 9.16 5.68
-1 -2 -12 0.77 4.38
1 2 12 9.86 4.49
1 -2 13 84.44 11.98
1 -2 13 89.32 11.2
1 -2 13 96.61 12.85
1 2 13 81.17 11.55
-1 2 -13 75.94 11.77
-1 2 -13 75.05 11.47
-1 -2 -13 68.31 10.79
-1 2 -14 14.47 6.31
-1 2 -14 16.34 8.22
1 2 14 22.65 7.39
1 -2 14 27.79 9.03
1 -2 14 21.07 6.99
-1 -2 -14 12.52 6.68
1 -2 14 15.46 6.5
1 -2 15 13.06 7.19
-1 2 -15 25.01 8.38
-1 -2 -15 8.51 6.26
1 -2 15 34.27 9.91
1 -2 15 21.09 6.56
1 2 15 18.44 7.14
-1 -2 -16 23.99 8.66
1 -2 16 32.86 8.43
1 -2 16 50.11 11.6
1 2 16 41.47 10.09
-1 2 -16 23.17 8.65
1 -2 16 31.49 8.9
1 -2 17 34.41 8.68
-1 -3 16 46.93 9.54
1 3 -16 46.7 10.05
1 -3 -16 48.69 11
-1 3 16 34.07 9.01
1 -3 -15 39.66 9.34
-1 -3 15 28.04 8.22
1 3 -15 22.84 8.11
1 3 -15 24.82 7.9
-1 -3 15 22.43 7.29
-1 3 15 11.3 6.85
1 3 -14 4.79 5.79
1 -3 -14 -2.4 5.33
-1 3 14 1.03 4.55
1 3 -14 7.92 6.55
-1 -3 14 -7.29 6
-1 -3 14 -8.24 7.6
1 3 -13 -2.95 5.1
-1 3 13 7.72 4.27
1 -3 -13 0.97 5.23
-1 -3 13 4.27 5.3
-1 3 13 -0.1 4.71
1 3 -13 0.72 4.64
1 3 -13 10.67 5.79
-1 -3 13 -2.14 5.89
-1 3 12 150.2 11.93
-1 -3 12 128.63 13.79
-1 -3 12 124.66 12.69
-1 3 12 168.93 15.12
1 3 -12 145.91 14.79
1 3 -12 148.04 14.05
-1 3 12 152.43 12.39
1 -3 -12 143.43 14.27
-1 -3 11 20.71 6.92
1 3 -11 20.18 7.03
1 -3 -11 14.95 5.85
-1 3 11 25.67 5.73
-1 3 11 15.02 5.3
1 3 -11 19.52 6.24
-1 3 11 22.35 5.44
-1 -3 11 17.79 5.88
-1 3 10 146.17 11.44
-1 -3 10 141.77 13.06
1 3 -10 154.06 13.74
1 3 -10 153.39 12.88
-1 3 10 158.6 11.68
-1 -3 10 143.64 12.48
1 -3 -10 149.81 13.24
-1 3 10 151.68 13.11
-1 3 9 794.71 30.38
-1 -3 9 722.34 30.26
-1 -3 9 748.18 29.57
1 -3 -9 732.43 30.25
1 3 -9 782.47 31.04
1 3 -9 806.06 29.92
-1 3 9 831.14 28.13
-1 3 8 258.8 15.32
1 -3 -8 282.55 16.54
1 3 -8 270.26 9.62
1 3 -8 284.81 17.03
-1 -3 8 251.1 15.83
-1 3 8 291.17 14.87
-1 -3 8 273.56 15.71
-1 -3 8 277.88 8.18
1 3 -8 278.46 15.42
-1 -3 7 94.9 9.49
1 -3 -7 105.43 9.89
1 3 -7 117.4 6.33
-1 -3 7 116.25 5.63
-1 3 7 119.33 9.64
1 3 -7 122.76 10.74
-1 3 7 113.74 8.69
-1 -3 7 114.28 9.76
1 3 -7 102.75 8.87
-1 -3 6 126.83 6.35
-1 -3 6 119.02 9.42
1 -3 -6 91.51 8.51
1 -3 -6 113.6 9.57
-1 -3 6 114.51 9.69
1 3 -6 107.29 8.37
1 3 -6 115.48 10.02
-1 3 6 108.56 8.57
-1 3 6 107.17 8.45
1 3 -6 135.74 7.13
1 -3 -5 71.42 7.83
1 3 -5 82.18 5.9
-1 -3 5 76.11 5.37
-1 -3 5 72.45 7.26
1 3 -5 86.86 5.97
1 3 -5 80.75 5.65
1 -3 -5 78.37 7.65
1 3 -5 70.74 6.36
1 3 -5 63.02 7.38
-1 3 5 71.92 6.78
-1 -3 5 71.56 7.66
1 3 -5 74.76 8.54
1 -3 -5 68.74 7.12
-1 3 5 68.63 6.39
-1 -3 4 375.34 13.26
-1 -3 4 346.78 15.42
-1 -3 4 361.36 13.26
-1 -3 4 316.21 15.43
1 -3 -4 338.96 15.7
-1 3 4 338.58 14.61
-1 3 4 336.75 13.57
1 -3 -4 367.79 13.96
1 -3 -4 330.34 15.16
-1 3 4 372.76 13.34
1 3 -4 367.92 13.4
1 -3 -4 302.1 14.66
1 3 -4 342.87 13.05
1 -3 -4 322.8 15.54
1 3 -4 332.82 15.78
1 3 -4 336.77 15.93
1 3 -4 375.56 13.79
1 3 -4 357.21 13.41
-1 -3 4 342.34 12.86
-1 -3 3 1685.44 39.24
-1 -3 3 1542.33 38.62
-1 -3 3 1517.51 41.46
1 3 -3 1573.9 39.05
1 3 -3 1633.9 39.21
1 -3 -3 1604.01 41.74
-1 -3 3 1561.59 41.01
1 3 -3 1554.81 41.72
1 3 -3 1541.66 36.43
1 3 -3 1545.04 41.38
-1 3 3 1562.9 37.4
1 -3 -3 1532.09 40.96
-1 -3 3 1658.47 36.86
-1 3 3 1566.06 40.22
1 -3 -3 1499.21 41.55
1 -3 -3 1540.05 40.69
1 -3 -3 1658.31 37.84
-1 3 2 29.19 3.01
-1 -3 2 28.15 2.73
1 -3 -2 26.76 4.85
1 3 -2 34.44 5.31
1 3 -2 31.29 2.9
-1 -3 2 25.96 4.93
-1 -3 2 23.38 4.38
1 -3 -2 28.14 5.29
-1 -3 2 32.05 4.41
1 -3 -2 27.97 2.91
1 3 -2 28.89 2.17
1 3 -2 26.8 4.62
-1 3 2 35.56 5.26
1 3 -2 24.34 4.23
1 -3 -2 21.1 4.05
1 -3 -2 23.55 4.69
1 -3 -1 613.93 21.6
-1 -3 1 596.92 20.87
1 3 -1 607.08 14.46
1 -3 -1 636.32 19.89
1 -3 -1 619.85 20.14
-1 3 1 633.64 20.95
1 -3 -1 611.36 19.97
1 3 -1 597.85 21
1 3 -1 607.96 14.82
-1 3 1 624.54 15.19
-1 -3 1 635.09 20.47
1 3 -1 608.12 20.49
1 -3 -1 629.82 15.31
-1 -3 0 277.12 12.72
1 3 0 257.32 7.48
1 3 0 255.45 12.27
-1 -3 0 249.94 12.48
1 3 0 264.66 7.59
1 -3 0 272.29 13.15
-1 3 0 262.46 12.83
1 -3 0 274.43 12.22
1 -3 0 261.5 11.56
-1 3 0 294.36 11.88
-1 3 0 269.23 9.12
1 -3 0 262.61 12.15
-1 3 -1 1276.71 29.99
-1 -3 -1 1280.75 28.26
1 -3 1 1266.21 34.87
1 3 1 1277.86 33.64
-1 3 -1 1245.33 32.85
-1 3 -1 1257.32 33.8
-1 -3 -1 1238.37 34.82
1 3 1 1207.57 34.63
1 -3 1 1266.24 32.83
1 3 1 1324.07 28.31
1 -3 1 1256.03 34.18
-1 -3 -1 1244.95 34.62
-1 3 -2 253.74 12.28
-1 -3 -2 242.98 12.81
-1 3 -2 253.8 6.81
1 3 2 263.3 8.77
-1 -3 -2 249.06 9.27
1 -3 2 287.86 10.69
1 -3 2 242.17 12.06
1 3 2 230.02 12.66
1 3 2 263.12 12.25
1 -3 2 246.74 11.53
-1 3 -2 244.81 10.17
-1 3 -2 244.3 11.51
1 -3 2 242.43 12.4
-1 -3 -3 435.08 18.1
1 3 3 425.41 18.16
1 -3 3 450.24 18.1
1 -3 3 437.98 17.01
-1 -3 -3 452.77 14.8
1 -3 3 429.28 16.62
-1 3 -3 460.54 16.04
-1 3 -3 452.2 12.31
1 3 3 458.24 12.3
1 -3 3 485.91 16.2
-1 3 -3 427.39 17.18
1 3 3 441.71 17.37
-1 3 -3 436.21 16.72
1 3 3 458.03 14.22
-1 3 -3 429.32 15.42
1 3 4 344.87 12.82
-1 -3 -4 307.17 14.99
-1 -3 -4 313.15 12.82
1 3 4 312.06 14.93
-1 3 -4 310.68 14.8
-1 3 -4 308.59 10.84
-1 3 -4 295.69 13.19
1 -3 4 300.9 15.05
1 -3 4 312.35 14.16
1 3 4 312.26 15.3
1 3 4 308.14 9.02
-1 3 -4 290.25 13.92
1 -3 4 334.6 14.02
-1 3 -4 343.3 12.75
-1 -3 -5 446.99 19
-1 3 -5 481.56 15.56
1 3 5 454.91 11.96
1 -3 5 478.54 15.69
1 -3 5 443.67 18.25
-1 3 -5 465.08 15.34
-1 -3 -5 476.4 17.72
-1 3 -5 447.64 17.9
-1 3 -5 457.14 19.17
1 -3 5 428.32 19.06
1 3 5 433.13 18.86
1 -3 5 451.8 17.03
1 3 5 434.02 18.93
-1 3 -6 203.87 12.96
1 3 6 222.77 13.27
1 -3 6 242.71 11.36
1 -3 6 220.16 11.06
1 -3 6 218.67 12.99
1 -3 6 196.82 13.12
-1 -3 -6 235 7.73
-1 -3 -6 210.18 13
-1 3 -6 244.95 9.75
1 3 6 211.19 13.34
-1 3 -6 212.91 12.54
-1 -3 -6 219.38 12.25
1 3 6 230.75 7.72
-1 3 -7 5.91 4.15
-1 3 -7 7.82 4.47
1 -3 7 3.9 3.59
1 3 7 4.22 3.56
-1 -3 -7 7.08 3.87
1 -3 7 5.71 2.58
1 3 7 6.94 4.38
-1 -3 -7 2.94 3.34
-1 3 -7 6.63 1.83
1 -3 7 3.54 2.41
1 -3 7 6.17 4.86
-1 -3 -7 4.34 1.49
1 -3 8 694.09 24.67
1 -3 8 624.39 27.4
1 -3 8 653.93 26.61
1 3 8 648.66 27.51
-1 3 -8 648.18 26.52
1 -3 8 690.33 21.92
-1 -3 -8 718.74 18.93
-1 -3 -8 663.15 26.11
-1 3 -8 611.93 26.67
-1 -3 -8 671.84 26.05
1 3 8 706.36 26.68
-1 3 -8 705.2 17.82
1 -3 9 126.44 12.29
1 -3 9 148.25 10.99
1 -3 9 154.33 12.49
-1 3 -9 122.95 11.68
-1 -3 -9 133.14 11.58
1 3 9 144.93 12.75
-1 -3 -9 134.95 11.03
1 3 9 150.08 11.72
-1 3 -9 139.32 12.54
1 -3 9 153.8 8.7
1 -3 10 304.58 19.38
1 3 10 330.71 18.02
1 -3 10 336.71 17.93
1 -3 10 260.52 17.63
-1 -3 -10 305.68 18.41
-1 3 -10 318.68 19.46
-1 -3 -10 317.56 17.39
1 3 10 294.38 19.24
-1 3 -10 294.12 19.1
-1 -3 -11 166.09 14.39
1 3 11 206.85 14.43
1 -3 11 173.43 14.79
1 3 11 163.03 15.04
1 -3 11 182.11 15.6
-1 -3 -11 201.03 13.81
-1 3 -11 177.78 15.12
1 -3 11 170 13.43
-1 3 -11 182.47 15.71
-1 -3 -12 6.12 3.94
-1 3 -12 1.28 5.52
1 3 12 6.73 4.45
1 -3 12 3.41 4.75
1 3 12 19.45 7.24
1 -3 12 7.16 4.94
-1 -3 -12 2.19 4.89
-1 3 -12 10.94 6.68
1 -3 12 5.19 5.76
-1 3 -13 17.12 7.11
1 -3 13 10.42 4.78
-1 -3 -13 16.55 6.87
1 3 13 25.86 6.43
-1 3 -13 16.28 7.14
1 -3 13 17.41 7.37
1 3 13 15.4 5.87
1 -3 13 15.44 6.43
-1 3 -14 19.52 8.08
1 -3 14 12.74 7.05
1 -3 14 15.85 5.97
1 3 14 25.1 7.7
-1 -3 -14 15.8 6.9
-1 3 -14 22.26 8.2
1 -3 14 16.28 7.58
-1 3 -15 3.13 5.74
-1 3 -15 0.69 5.17
1 -3 15 13.76 7.37
1 -3 15 8.25 5.87
1 -3 15 11.43 7.24
1 3 15 3.59 6.17
-1 -3 -15 11.06 6.77
-1 -3 -16 15.62 7.63
1 -3 16 12.91 7.74
1 -3 16 21.63 7.45
-1 -4 16 20.13 7.8
1 4 -16 29.77 8.24
-1 -4 15 2.4 5.42
-1 -4 15 1.72 6.66
-1 4 15 4.16 4.82
1 4 -15 12.78 7.28
1 -4 -15 1.84 5.32
1 4 -15 16.6 7.34
1 4 -14 37.43 9
-1 -4 14 34.14 8.69
1 -4 -14 39.7 9.11
-1 4 14 24.81 7.93
1 4 -14 40.89 9.93
-1 -4 14 26.48 7.74
1 4 -14 35.93 8.3
1 4 -13 3.17 4.88
-1 -4 13 5.32 5.57
-1 -4 13 4.34 4.47
-1 4 13 3.54 4.61
1 -4 -13 6.42 5.74
1 4 -13 13.77 7.82
-1 4 13 4.19 5.76
-1 -4 12 24.36 7.06
1 -4 -12 19.63 7.44
1 4 -12 30.8 6.93
1 4 -12 8.26 5.61
-1 -4 12 16.92 6.39
-1 4 12 17.81 5.87
-1 4 12 32.12 6.87
1 -4 -11 56.48 9.19
-1 -4 11 63.05 8.99
1 4 -11 58.43 9.82
1 4 -11 45.51 8.16
-1 -4 11 59.77 9.46
-1 4 11 61.53 9.34
-1 4 11 62.24 8.96
-1 4 11 63.71 7.99
1 -4 -10 46.86 8.38
-1 4 10 48.64 7.92
1 4 -10 34.42 7.47
-1 -4 10 42.99 8.48
-1 4 10 60.62 7.9
1 4 -10 57.27 8.6
-1 4 10 57.78 8.51
-1 -4 10 34.47 7.37
-1 4 9 12.19 4.78
-1 -4 9 19.13 5.78
-1 4 9 27.85 5.65
-1 4 9 14.56 5.17
1 -4 -9 14.34 5.2
1 4 -9 14.54 4.84
1 4 -9 20.23 6.27
-1 -4 9 19.21 6.37
-1 4 8 5.13 4.04
1 4 -8 2.95 4.3
1 -4 -8 4.66 4.29
-1 -4 8 3.62 1.69
-1 4 8 5.81 3.68
-1 -4 8 7.52 4.61
-1 -4 8 3.35 4.18
1 4 -8 5.11 3.95
1 -4 -8 10.3 4.72
-1 4 7 57.76 6.94
-1 -4 7 44.04 4.41
1 -4 -7 35.73 6.62
1 4 -7 55.74 7.18
1 -4 -7 43 6.77
-1 -4 7 51.44 7.9
-1 4 7 51.39 6.89
1 4 -7 41.4 7.17
-1 -4 7 43.91 7.15
-1 -4 6 126.46 11.29
1 -4 -6 139.51 11.29
1 4 -6 125.15 11.21
-1 -4 6 138.95 11.31
-1 4 6 149.29 10.32
-1 -4 6 159.94 8.83
1 -4 -6 148.35 11.34
1 4 -6 155.58 8.96
-1 4 6 151.66 10.45
1 4 -6 150.98 12.35
1 4 -6 132.7 9.45
1 -4 -5 96.65 8.9
1 4 -5 116.11 7.99
-1 4 5 102.31 7.93
-1 4 5 94.79 8.22
-1 -4 5 106.28 9.83
-1 -4 5 101.78 9.5
1 4 -5 107.73 10.25
1 4 -5 120.41 10.43
1 -4 -5 107.12 9.85
-1 -4 5 107.95 7.57
1 4 -5 109.04 7.99
-1 -4 4 6.06 2.36
1 4 -4 2.89 2.45
1 -4 -4 2.42 3.31
1 -4 -4 4.39 3.64
-1 -4 4 2.06 3.5
-1 -4 4 0.78 2.28
1 -4 -4 8.35 4.01
-1 4 4 2.11 2.03
-1 4 4 3.37 3.28
-1 -4 4 0.1 3.96
1 4 -4 0.36 3.53
1 4 -4 2.56 3.56
1 4 -4 5.65 4.01
1 -4 -3 72.08 7.29
1 4 -3 65.01 6.48
-1 -4 3 66.18 7.31
1 4 -3 82.46 5.24
1 4 -3 69.89 5.24
1 -4 -3 73.35 7.92
1 -4 -3 76.74 5.58
1 4 -3 68.9 7.84
-1 4 3 75.61 5.64
-1 -4 3 80.82 8.28
1 -4 -3 67.92 7.54
-1 4 3 70.88 7.1
1 4 -3 69.89 7.37
-1 -4 3 70.24 6.63
1 -4 -3 63.5 7.47
-1 -4 3 80.61 5.6
1 4 -2 347.21 11.55
1 -4 -2 325.37 16.38
1 4 -2 319.02 15.8
-1 4 2 330.88 11.64
1 -4 -2 341.49 16.88
1 4 -2 340.92 16.7
1 -4 -2 334.16 15.36
-1 -4 2 322.19 16.08
-1 -4 2 342.83 15.48
1 4 -2 323.14 15.12
1 4 -2 363.45 11.2
-1 4 2 325.75 15.57
1 -4 -2 360.84 11.99
1 -4 -2 350.54 15.7
1 4 -1 110.98 5.45
1 4 -1 107.4 8.78
1 4 -1 112.86 5.25
1 -4 -1 108.54 8.2
1 -4 -1 102.07 8.15
-1 -4 1 108.47 9.12
1 -4 -1 98.36 8.33
1 -4 -1 89.68 8.91
1 4 -1 98.83 8.57
-1 -4 1 105.13 8.68
1 -4 -1 93.41 8.61
-1 4 1 108.02 8.65
1 4 -1 103.93 9.08
-1 4 1 107.52 5.09
1 4 -1 127.66 6.38
-1 -4 0 401.25 17.82
1 4 0 407.05 17.94
-1 -4 0 410.43 18.16
-1 4 0 419.37 18.02
1 -4 0 410.19 17.21
1 4 0 425.81 12.27
-1 4 0 421.18 10.85
1 4 0 448.36 14.81
1 -4 0 413.78 18.47
-1 4 0 415.86 14.13
1 4 0 429.01 12.19
-1 4 0 428.06 17.47
1 -4 0 408.06 15.99
1 -4 0 416.03 17.05
1 -4 1 720.93 23.95
1 -4 1 676.25 24.79
-1 4 -1 682.38 20.4
-1 -4 -1 675.45 24.79
-1 4 -1 671.74 15.05
-1 -4 -1 662.5 24.68
1 4 1 722.5 25.48
1 4 1 702.5 23.1
1 4 1 745.35 18.59
-1 4 -1 693.31 23.61
-1 4 -1 663.25 15.12
-1 -4 -1 714.79 18.43
-1 4 -1 685.76 23.32
1 -4 1 670.77 24.28
-1 4 -2 421.77 17.53
1 4 2 408.54 18.88
1 -4 2 432.3 18.65
-1 4 -2 444.29 17.96
1 4 2 411.85 17.19
1 4 2 433.26 14
1 -4 2 420.93 18.49
-1 4 -2 435.77 15.67
1 -4 2 411.37 17.34
-1 -4 -2 419.04 13.89
-1 -4 -2 415.8 18.91
-1 4 -2 433.84 10.63
-1 4 -3 438.92 18.51
1 -4 3 428.04 18.64
-1 4 -3 454.56 12.27
1 4 3 462.74 14.53
-1 -4 -3 431.94 19.89
-1 4 -3 436.13 16.66
-1 -4 -3 445.88 15.35
1 4 3 434.71 20.02
1 -4 3 437.81 18.5
-1 4 -3 435.89 18.38
1 4 3 433.26 18.34
1 4 3 468.69 15.06
1 -4 3 426.49 19.25
-1 -4 -4 88.84 9.1
-1 4 -4 88.93 8.27
1 -4 4 83.84 7.91
1 4 4 96.9 5.47
-1 4 -4 91.45 5.12
1 4 4 93.12 8.38
1 -4 4 91.34 8.19
-1 4 -4 97.69 7.82
1 4 4 95.34 6.62
1 4 4 85.76 9.08
-1 4 -4 81.6 8.02
-1 -4 -4 87.84 6.79
1 -4 4 87.27 8.9
1 -4 5 59.37 7.36
-1 4 -5 67.18 7.6
-1 4 -5 67.96 5.06
1 4 5 65.29 4.28
1 -4 5 61.87 6.61
-1 4 -5 79.91 8.52
1 4 5 63.38 7.65
-1 -4 -5 58.98 6.17
-1 -4 -5 74.18 8.46
-1 4 -5 59.61 6.71
1 -4 5 52.5 7.6
1 4 5 79.63 8.78
-1 -4 -6 262.24 15.83
1 -4 6 267.72 15.43
-1 -4 -6 279.29 14.23
1 4 6 255.24 15.52
1 -4 6 268.49 13.89
-1 4 -6 253.64 14.43
1 4 6 253.91 15.6
-1 4 -6 250.41 15.07
1 4 6 277.65 9.47
1 -4 6 242.28 15.62
1 4 7 312.41 17.77
1 -4 7 294.79 16.9
1 4 7 312.27 17.95
-1 -4 -7 341.61 17.06
1 -4 7 306.06 14.98
1 4 7 326.41 10.58
1 -4 7 309.21 18.39
-1 -4 -7 302.57 17.79
-1 4 -7 279.62 16.82
-1 4 -7 330.35 17.24
-1 4 -8 105.85 10.98
1 4 8 100.46 10.45
-1 -4 -8 115.21 11.15
1 -4 8 107.34 10.51
1 -4 8 102.32 11.07
1 4 8 110.43 11.3
1 -4 8 125.82 8.99
-1 4 -8 113.13 11
-1 -4 -8 94.66 9.55
-1 -4 -9 244.28 15.88
-1 4 -9 230.7 16.64
1 4 9 233.76 16.22
1 -4 9 240.06 16.33
1 -4 9 246.56 12.69
1 4 9 230.95 16.63
1 -4 9 218.74 16.43
-1 -4 -9 235.44 16.17
-1 4 -9 247.64 16.67
-1 -4 -10 128.05 12.41
-1 4 -10 142.41 13.32
-1 4 -10 114.09 12.33
1 -4 10 120.17 12.08
1 -4 10 127.05 13.16
-1 -4 -10 145.1 13
1 4 10 138.66 12.56
1 4 10 125.68 12.94
-1 -4 -11 49.86 8.26
1 -4 11 63.21 9.63
1 4 11 72.49 9.89
-1 4 -11 66.55 10.36
-1 4 -11 68.18 10.4
1 4 11 90.02 11.48
-1 -4 -11 73.24 9.71
1 -4 11 60.03 9.88
-1 -4 -12 30.82 7.67
-1 4 -12 47.81 9.34
1 4 12 36.57 8.13
-1 -4 -12 38.05 7.39
1 -4 12 31.88 7.95
-1 4 -12 32.74 8.15
1 -4 12 35.28 7.79
1 4 12 28.94 7.47
1 4 13 62.44 9.34
1 -4 13 44.69 9.36
-1 4 -13 53.95 10.6
-1 -4 -13 48.1 9.56
-1 4 -13 45.95 9.61
-1 -4 -13 50.11 8.34
1 4 13 50 10.13
1 -4 13 33.43 8.5
1 -4 14 10.63 6.88
-1 4 -14 9.14 7.05
-1 4 -14 3.75 6.79
-1 -4 -14 15.49 6.45
1 4 14 17.3 7.33
1 -4 14 15.42 7.37
1 4 15 10.31 6.49
1 -4 15 3.48 5.87
-1 -4 -15 17.71 7.92
-1 4 -15 9.11 7.07
-1 4 -15 11.5 7.14
1 5 -15 2.7 6.42
-1 5 15 5.88 6.38
-1 5 14 6.8 6.06
-1 -5 14 2.51 5.48
-1 5 14 1.04 4.86
1 5 -14 2.06 6.35
-1 -5 14 6.76 6.13
1 5 -14 5.64 5.29
1 -5 -14 16.67 7.8
1 5 -13 8.18 6.38
-1 5 13 5.56 5.52
-1 -5 13 -2.07 5.23
-1 5 13 8.05 5.78
-1 -5 13 6.15 6.11
1 5 -13 -7.96 7.12
1 -5 -13 4.14 5.57
1 5 -12 13.44 6.84
1 5 -12 7.45 5.14
-1 -5 12 14.78 7.09
1 -5 -12 2.07 4.63
-1 5 12 16.96 6.5
-1 5 12 13.01 5.59
-1 -5 12 12.79 6.16
1 5 -11 31.26 6.87
-1 5 11 36.57 7.48
-1 5 11 27.77 6.73
-1 -5 11 26.6 7.72
-1 -5 11 27.57 7.69
1 -5 -11 32.16 7.27
1 5 -11 22.94 7.36
-1 5 10 591.7 28.18
-1 -5 10 606.77 29.66
-1 5 10 654.9 26.15
-1 -5 10 550.5 28.98
1 5 -10 571.81 29.39
-1 5 10 617.48 29.2
1 -5 -10 615.26 29.31
1 5 -10 595.79 27.56
-1 5 9 355.32 21.43
-1 -5 9 335.83 20.96
-1 -5 9 334.56 21.62
-1 5 9 365.85 20.47
-1 5 9 367.41 18.6
1 5 -9 357.64 21.87
1 -5 -9 354.23 21.08
1 5 -9 363.45 19.81
1 -5 -8 80.49 9.85
-1 5 8 74.04 9.71
-1 5 8 81.72 9.2
-1 -5 8 87.72 10.73
-1 5 8 87.78 9.23
1 -5 -8 85.95 10.46
-1 -5 8 94.27 10.75
1 5 -8 75.55 10.06
-1 -5 8 96.02 7.05
1 5 -8 89.17 9.27
-1 -5 7 15.17 3.51
1 5 -7 19.46 4.46
1 -5 -7 14.98 5.85
-1 -5 7 7.73 5.64
-1 5 7 14.28 4.76
1 5 -7 19.53 4.86
-1 5 7 10.47 4.07
1 5 -7 8.64 5.41
-1 -5 7 15.56 5.3
1 -5 -7 13.02 4.72
1 5 -6 67.17 6.86
-1 -5 6 77.01 7.12
1 5 -6 75.79 9.94
1 -5 -6 53.65 8.26
-1 5 6 67.1 7.57
-1 -5 6 55.38 8.43
1 -5 -6 65.22 8.45
-1 -5 6 50.4 8.28
-1 5 6 57.12 6.68
1 5 -6 67.6 9.16
1 5 -6 68.51 7.17
1 5 -5 34.34 5.61
1 -5 -5 32.11 6.54
1 -5 -5 43.55 7.11
-1 -5 5 33 6.66
-1 -5 5 37.71 6.9
-1 5 5 38.54 5.51
1 5 -5 34.7 4.97
1 5 -5 37.27 6.93
-1 5 5 30.4 5.66
-1 -5 5 39.22 5.69
1 5 -5 28.53 6.93
1 -5 -4 26.78 6.39
-1 -5 4 28.71 6.24
1 5 -4 24.07 5.61
1 5 -4 29.4 4.53
1 5 -4 22.52 4.71
1 -5 -4 25.71 5.4
-1 -5 4 24.22 4.78
1 5 -4 29.26 6.27
-1 -5 4 23.7 5.67
-1 5 4 17.33 4.61
-1 5 4 24.62 3.98
1 5 -3 216.96 14.7
1 5 -3 219.1 13.28
-1 -5 3 217.04 13.48
-1 -5 3 214.57 14.48
-1 5 3 240.62 14.09
1 -5 -3 209.78 13.14
1 5 -3 203.45 13.66
1 5 -3 240 10.09
1 -5 -3 199.53 14.31
-1 5 3 223.09 10.6
1 -5 -3 230.59 13.93
1 5 -3 238.59 10.54
1 5 -2 365.74 13
1 5 -2 377.36 12.64
-1 -5 2 380.21 18.23
1 -5 -2 320.5 18.02
1 5 -2 360.28 17.58
1 -5 -2 359.6 17
1 -5 -2 348.47 16.86
-1 -5 2 334.98 18.37
-1 5 2 364.87 17.9
1 5 -2 331.4 18.33
1 5 -2 343.2 17.63
-1 5 2 370.47 13
1 -5 -1 72.66 7.4
1 5 -1 80.97 5.2
-1 5 1 77.19 6.19
1 -5 -1 77.49 8.87
1 5 -1 82.37 5.15
1 -5 -1 73.37 7.68
-1 -5 1 69.95 8.12
-1 5 1 76.57 4.68
1 5 -1 60.08 7.9
-1 -5 1 72.35 8.8
1 5 -1 72.15 7.93
1 -5 -1 68.8 8.2
-1 5 1 85.42 8.61
1 5 -1 73.46 8.1
1 -5 -1 63.82 7.81
1 -5 0 376.46 16.09
1 5 0 356.18 18.13
-1 5 0 378.89 16.98
1 -5 0 344.54 17.37
-1 -5 0 335.29 18.19
1 5 0 371.88 12.24
-1 -5 0 351.97 18.44
-1 5 0 369.74 10.69
1 -5 0 366.73 18.8
-1 5 0 353.75 14.18
-1 5 0 342.4 17.36
1 5 0 356.52 16.14
1 5 0 328.78 18.13
1 5 0 360.67 12.29
-1 5 0 345.74 17.79
-1 -5 -1 89.47 9.43
1 5 1 96.69 5.75
1 5 1 96.7 9.62
-1 -5 -1 97.87 6.03
-1 -5 -1 90.95 9.6
1 -5 1 98.09 7.59
-1 5 -1 94.55 4.05
1 -5 1 88.05 9.28
1 5 1 95.33 8.04
1 5 1 97.28 6.03
-1 5 -1 93.71 8.94
-1 5 -1 91.8 6.98
-1 5 -1 92.36 8.42
1 -5 1 96.14 8.99
-1 -5 -2 141.85 11.91
-1 5 -2 132.43 10.17
1 -5 2 123.96 10.33
-1 5 -2 146.51 5.19
1 5 2 140.33 8.91
1 -5 2 153.13 9.06
1 -5 2 132.75 10.93
-1 5 -2 136.25 5.05
1 5 2 135.58 10.02
1 -5 2 126.21 10.99
1 5 2 137.8 11.81
-1 5 -2 134.94 8.97
-1 5 -2 128.78 10.46
1 5 2 137.49 7.64
-1 -5 -2 136.7 7.74
-1 -5 -3 546.81 25.03
-1 5 -3 584.25 23.19
1 5 3 573.71 25.11
-1 -5 -3 579.66 19.28
1 -5 3 553.02 23.59
-1 5 -3 593.16 15.03
1 -5 3 555.49 24.27
1 5 3 582.82 22.96
-1 5 -3 542.38 23.29
-1 5 -3 558.23 21.02
1 -5 3 570.71 23.65
1 5 3 614.81 19.73
-1 5 -4 51.96 6.48
1 -5 4 52.22 7.91
-1 -5 -4 48.31 5.46
1 5 4 58.96 8.5
1 -5 4 50.4 6.97
-1 -5 -4 48.11 7.91
1 -5 4 48.37 7.07
-1 5 -4 49.61 7.03
1 5 4 50.64 6.9
-1 5 -4 37.71 6.19
1 5 4 47.53 4.74
1 5 5 164.16 12.43
1 -5 5 186.06 12.68
-1 -5 -5 190.07 14.67
1 -5 5 165.99 13.53
-1 -5 -5 195.96 11.38
1 -5 5 173.82 13.09
-1 5 -5 181.34 12.22
1 5 5 186.11 8.87
-1 5 -5 173.72 12.53
1 5 5 174.84 14.04
-1 5 -5 202.48 14.11
-1 5 -6 79.33 9.07
1 -5 6 89.83 9.73
-1 -5 -6 80.42 7.97
1 -5 6 80.66 10.08
-1 -5 -6 79.52 10.02
1 -5 6 88.01 8.67
1 5 6 69.9 8.47
-1 5 -6 90.14 10.38
-1 5 -6 71.05 8.11
1 5 6 82.59 10.04
-1 5 -7 73.75 6.59
-1 -5 -7 82.39 10.41
-1 5 -7 71.1 9.13
1 5 7 68.16 9.38
1 -5 7 56.24 8.36
-1 -5 -7 68.61 7.99
1 -5 7 61.1 7.27
1 -5 7 73.86 10.14
1 5 7 63.45 8.71
-1 5 -7 70.4 8.55
1 5 8 358.52 21.26
1 -5 8 374.1 17.83
1 -5 8 315.93 19.55
-1 -5 -8 356.02 18.89
-1 5 -8 342.09 19.38
1 5 8 320.81 19.79
1 -5 8 342.91 21.17
-1 5 -8 338.67 20.23
-1 -5 -8 351.18 21.01
1 5 9 85.66 11.14
1 -5 9 95.04 11.24
-1 -5 -9 100.29 10.51
-1 5 -9 92.1 10.77
-1 -5 -9 97.42 11.43
1 5 9 97.17 11.5
-1 5 -9 78.98 10.47
1 -5 9 79.57 11.09
-1 -5 -10 -0.93 4.12
-1 -5 -10 -2.17 4.9
1 -5 10 3.56 5.03
1 5 10 8.06 5.94
1 5 10 4.47 5.07
-1 5 -10 -0.49 4.5
-1 5 -10 -0.61 5.17
1 -5 10 2.19 5.75
-1 5 -11 48.62 9.45
1 5 11 46.42 8.77
-1 -5 -11 47.13 8.82
-1 -5 -11 31.81 6.89
1 -5 11 35.94 8.76
1 5 11 46.71 8.97
1 -5 11 48.34 9.6
-1 5 -11 35.79 7.84
1 5 12 53.79 9.33
-1 5 -12 47.72 9.84
-1 5 -12 45.5 9.83
-1 -5 -12 52.73 9.46
1 -5 12 40.28 9.38
-1 -5 -12 64.29 10.22
1 5 12 47.74 9.48
1 -5 12 54.62 9.85
1 5 13 21.98 7.47
-1 5 -13 22.85 7.96
-1 -5 -13 39.6 9.2
1 5 13 16.16 6.99
-1 -5 -13 28.16 7.13
1 -5 13 30.8 8.53
-1 5 -13 31 8.71
1 -5 13 14.53 7.37
-1 5 -14 30.91 9.04
-1 5 -14 30.51 9.53
-1 -5 -14 50.11 10.16
1 -5 14 49.93 10.36
1 5 14 49.88 9.92
1 5 14 27.49 8.37
-1 -5 -15 64.38 12.17
-1 6 14 25.75 8.23
-1 6 14 23.28 7.49
-1 6 13 2.29 4.84
1 6 -13 11.81 6.57
-1 -6 13 8.34 6.32
-1 6 13 10.1 6.2
1 -6 -13 -1.73 5.46
-1 6 12 13.88 6.16
-1 6 12 10.21 6.78
-1 -6 12 7.56 5.74
1 6 -12 1.91 5.88
1 -6 -12 6.88 6.1
-1 -6 12 6.64 5.82
1 6 -11 5.14 5.52
-1 6 11 1.76 5.05
-1 6 11 -2.45 3.93
1 -6 -11 5.04 6.08
-1 -6 11 -1.12 4.62
1 6 -11 -5.18 5.8
-1 -6 11 7.18 6.48
-1 6 10 110.44 11.95
1 -6 -10 112.07 12.87
-1 -6 10 112.16 13.6
1 6 -10 89.85 12.5
1 6 -10 108.44 11.66
-1 -6 10 94.89 12.42
-1 6 10 99.44 12.58
-1 -6 9 0.46 5.4
1 6 -9 2.96 4.31
-1 6 9 0.31 4.78
-1 -6 9 0.67 5.26
1 -6 -9 7.98 5.17
-1 6 9 16.54 5.71
1 6 -9 1.97 5.25
-1 6 8 247.05 18.57
1 -6 -8 255.42 17.76
-1 -6 8 223.98 18.09
-1 6 8 266.08 16.72
-1 -6 8 214.99 17.29
1 6 -8 226.11 18.72
1 6 -8 211.27 17.12
1 6 -8 233.63 15.23
-1 6 8 252.11 15.64
1 6 -7 220.04 13.88
-1 6 7 213.89 16.98
1 -6 -7 215.73 15.98
-1 -6 7 210.07 16.75
-1 6 7 219.87 14.49
1 -6 -7 200.62 16.37
1 6 -7 231.92 17.51
-1 6 7 211.04 14.28
-1 -6 7 218.37 16.83
-1 -6 7 226.34 13.27
1 6 -7 191.76 16.79
1 6 -6 36.58 6.07
1 -6 -6 26.63 6.85
-1 -6 6 31.3 5.52
-1 6 6 24.92 7.56
-1 -6 6 39.12 8.15
1 -6 -6 27.95 6.39
-1 -6 6 51.14 8.76
1 6 -6 43.24 7.77
-1 6 6 37.48 6.5
1 6 -6 25.81 7.43
-1 6 6 37.24 5.88
1 6 -6 47.89 6.48
1 -6 -5 106.46 10.49
1 6 -5 116.53 10.27
1 6 -5 102.87 12.02
-1 -6 5 111.51 12.01
-1 -6 5 102.72 9.84
1 6 -5 123.56 9.15
-1 6 5 115.79 9.17
-1 -6 5 112.88 11.95
-1 6 5 113.79 10.33
1 6 -5 100.9 11.02
1 -6 -5 100.47 11.82
1 -6 -4 7.36 5.19
1 6 -4 9.15 3.15
1 6 -4 13.73 4.19
-1 -6 4 13.6 5.96
-1 -6 4 11.57 4.63
-1 6 4 10.83 3.35
1 -6 -4 6.68 3.66
1 6 -4 5.84 4.53
-1 6 4 4.73 3.78
1 6 -4 -0.33 5.55
1 6 -3 27.74 7.03
1 6 -3 24.41 3.9
1 -6 -3 16.93 6.01
-1 -6 3 22.11 5.61
-1 -6 3 6.54 4.46
1 6 -3 23.39 6.17
-1 6 3 27.8 5.88
-1 6 3 27.19 4.01
1 -6 -3 18.32 4.96
1 6 -3 23.22 5.76
1 6 -2 42.77 7.1
-1 -6 2 47.95 8.19
-1 6 2 40.58 4.21
1 -6 -2 41.19 7.61
-1 -6 2 43.87 7.25
1 6 -2 38.5 6.65
1 6 -2 39.05 4.24
1 -6 -2 38.39 6.42
-1 6 2 47 5.81
-1 6 2 30.64 6.25
1 6 -2 43.47 7.97
1 -6 -2 42.27 6.76
-1 -6 1 113.27 11.93
1 6 -1 120.69 7.35
-1 6 1 117.62 10.1
1 -6 -1 117.81 11.13
-1 6 1 126.8 6.57
1 -6 -1 126.12 12.03
1 6 -1 121.62 9.56
1 6 -1 126.35 11.28
-1 6 1 117.91 10.92
1 -6 -1 113.47 9.87
-1 6 1 121.24 8.77
-1 6 1 131.01 11.78
1 6 -1 103.9 10.46
1 6 -1 128.42 12.32
-1 -6 1 107.16 10.87
1 6 0 -3.82 4.47
1 6 0 2.93 2.16
-1 -6 0 -1.3 3.97
-1 6 0 -0.95 3.04
1 -6 0 -0.5 3.26
-1 6 0 1.52 4.03
-1 6 0 -0.37 2.54
-1 6 0 2.37 3.93
-1 -6 0 9.05 5.74
1 -6 0 1.1 4.45
1 6 0 4.78 3.06
1 6 0 0.39 4.9
1 6 0 -0.17 3.84
1 6 1 43.43 4.38
1 6 1 44.07 6.14
1 6 1 46.48 7.87
-1 6 -1 45.58 6.63
-1 -6 -1 41.09 7.95
1 -6 1 42.19 7.59
-1 -6 -1 37.56 7.41
1 -6 1 50.04 6.12
-1 6 -1 43.69 5.6
-1 6 -1 41.58 7.14
-1 6 -1 33.2 6.5
-1 6 -2 76.65 8.43
1 6 2 93.47 10.9
1 -6 2 88.93 10.06
1 6 2 77.53 8.34
-1 -6 -2 93.73 10.62
1 6 2 86.29 7.93
-1 6 -2 75.61 9.14
-1 -6 -2 92.73 6.83
-1 6 -2 85.99 8.12
1 -6 2 96.82 7.81
-1 6 -3 80.07 8.87
1 -6 3 106.36 7.92
-1 6 -3 75.2 9.1
1 6 3 78.2 10.06
1 -6 3 88.3 10.16
-1 -6 -3 80.44 10.4
-1 6 -3 95.71 8.62
1 6 3 85.34 8.74
1 -6 3 80.05 9.83
1 6 3 99.54 8.25
-1 -6 -3 93.04 7.29
-1 6 -4 76.53 8.63
-1 6 -4 48.73 7.95
1 -6 4 77.51 9.58
1 -6 4 56.96 8.82
-1 -6 -4 70.3 10.1
1 6 4 73.69 8.49
1 6 4 74.21 6.68
1 -6 4 77.65 6.3
-1 -6 -4 65.41 6.69
-1 6 -4 83.73 8.47
1 6 4 76.79 10.52
-1 6 -5 218.57 13.84
-1 6 -5 192.6 14.2
-1 -6 -5 247.82 13.38
1 -6 5 208.51 16.21
1 -6 5 195.53 14.95
1 6 5 200.67 14.66
1 -6 5 230.88 10.69
-1 6 -5 211.86 13.83
1 6 5 202.48 16.21
-1 6 -5 189.77 15.01
-1 -6 -5 209.69 16.83
1 -6 6 29.14 6.71
1 6 6 27.77 7.01
-1 6 -6 20.39 5.77
-1 -6 -6 31.48 7.77
1 6 6 28.94 6.35
-1 -6 -6 31.77 5.6
-1 6 -6 40.71 6.97
1 -6 6 22.85 7.05
-1 6 -6 33.65 5.73
-1 6 -6 42.5 8.27
1 -6 7 29.12 7.45
-1 6 -7 30.98 6.91
-1 6 -7 35.17 8.34
-1 -6 -7 33.29 7.75
1 6 7 20.91 6.85
-1 -6 -7 34.09 6.45
1 -6 7 22.28 6.6
1 6 7 42.89 7.74
-1 6 -7 34.9 7.25
-1 6 -8 54 8.97
1 -6 8 68.88 10.2
-1 -6 -8 73.08 10.66
1 6 8 59.53 10.04
-1 -6 -8 64.64 8.71
1 6 8 70.19 9.96
-1 6 -8 68.52 9.28
1 -6 8 55.55 9.75
-1 -6 -9 25.78 6.27
1 6 9 16.3 6.01
1 -6 9 17.95 6.57
-1 6 -9 32.42 7.88
-1 -6 -9 33.13 7.88
1 6 9 32.4 7.4
-1 6 -9 22.55 6.66
1 -6 9 30.97 8.54
1 -6 10 2.2 5.5
1 6 10 5.08 6.6
-1 -6 -10 -4.14 5.16
1 -6 10 6.17 5.78
-1 -6 -10 3.3 5.23
1 6 10 3.84 4.94
-1 6 -10 -10.23 5.91
-1 6 -10 -3.03 5.7
-1 -6 -11 8.13 5.9
1 -6 11 3.94 4.81
1 6 11 11.44 6.84
1 6 11 9.22 5.51
-1 6 -11 0.17 5.12
-1 -6 -11 6.01 5
-1 6 -11 9.7 5.94
1 -6 11 6.19 5.47
-1 6 -12 9.59 6.06
1 -6 12 19.56 8.27
1 6 12 12.23 6.65
-1 -6 -12 14.05 6.57
-1 6 -12 20.59 8.5
1 -6 12 21.51 8
1 6 12 20.51 7
-1 -6 -12 24.26 7.33
1 6 13 93.63 13.66
-1 -6 -13 72.75 11.72
-1 6 -13 66.15 11.79
1 -6 13 84.85 13.04
-1 -6 -13 76.71 11.93
1 6 13 76.59 12.18
-1 6 -13 71.06 12.04
1 6 14 1.72 5.7
-1 -6 -14 1.41 5.73
1 -7 -12 1.71 4.85
-1 7 12 5.89 5.66
-1 7 11 70.69 12.41
-1 -7 11 62.4 11.52
-1 -7 11 56.16 10.71
1 7 -11 73.6 12.18
1 -7 -11 41.98 9.4
-1 7 10 355.91 25.08
1 -7 -10 341.12 23.19
-1 -7 10 349.59 24.75
1 7 -10 337.41 23.82
-1 -7 10 346.54 24.53
-1 7 9 301.85 22.78
-1 -7 9 291.15 22.39
1 -7 -9 352.39 22.38
1 7 -9 321.49 22.89
-1 -7 9 300.13 22.25
1 -7 -8 94.74 11.2
-1 -7 8 100.14 13.09
1 7 -8 115.08 13.57
-1 -7 8 106.71 13
-1 7 8 98.03 13.15
1 7 -8 106.61 14.11
1 7 -7 64.48 10.17
-1 7 7 64.65 10.59
1 7 -7 66.13 11.2
-1 -7 7 52 9.58
-1 -7 7 64.85 10.51
1 -7 -7 65.78 9.57
1 -7 -6 65.56 9.14
-1 7 6 55.23 10.14
1 7 -6 40.09 9.53
-1 -7 6 51.31 9.49
-1 7 6 72.26 9.25
-1 -7 6 68.68 8.58
1 7 -6 59.5 9.62
1 7 -6 64.98 8.45
-1 -7 6 49.17 8.71
1 7 -5 -5.03 6.02
1 7 -5 8.41 4.75
1 -7 -5 1.08 4.63
-1 -7 5 2.03 4.87
-1 -7 5 3.43 3.84
-1 7 5 5.39 4
1 7 -5 5.16 5.51
-1 7 5 2.86 5.13
1 -7 -5 4.24 3.99
-1 7 4 41.48 8.49
1 7 -4 41.26 7.36
1 7 -4 14.86 7.03
1 -7 -4 35.37 8.23
-1 -7 4 44.07 7.94
-1 -7 4 38.52 7.84
1 -7 -4 49.17 7.92
1 7 -4 33.39 7.4
-1 7 4 30.94 6.4
-1 7 3 101.87 12.24
1 7 -3 87.4 10.24
-1 -7 3 77.98 10.61
1 7 -3 79.25 11.12
-1 -7 3 104.53 11.38
-1 7 3 96.92 10.76
1 7 -3 83.19 10.17
1 -7 -3 90.23 9.91
-1 7 2 109.65 12.33
1 7 -2 103.9 11.34
1 7 -2 117.71 9.79
1 -7 -2 140.63 12.03
1 7 -2 110.59 12.69
-1 -7 2 135.19 13.81
1 7 -2 123.74 12.43
-1 -7 2 121.37 12.02
-1 7 2 130.43 12.2
1 7 -1 98.46 10.83
1 7 -1 87.2 10.77
-1 -7 1 91.5 11.49
-1 7 1 89.24 10.93
-1 7 1 94.92 8.47
1 7 -1 99.33 9.07
-1 7 1 92.85 10.68
1 7 -1 93.31 11.8
-1 7 1 102.25 11.23
-1 7 1 110.69 10.16
-1 -7 1 99.32 11.4
-1 7 0 119.69 12.35
-1 7 0 101.76 9.82
-1 7 0 99.87 8.78
1 -7 0 80.11 10.27
-1 7 0 87.7 10.83
-1 7 0 97.31 10.87
1 7 0 83.25 10.48
1 7 0 107.55 9.47
1 7 0 90.68 11.81
-1 -7 0 101.03 12.46
1 7 0 85.74 10.26
-1 -7 0 96.99 11.66
-1 7 -1 103.54 11.64
1 -7 1 91.2 11.19
-1 7 -1 113.28 10.59
1 7 1 89.27 11.09
-1 -7 -1 109.65 12.26
-1 7 -1 98.65 11.29
1 7 1 111.69 10.08
1 -7 1 104.45 9.06
-1 7 -1 122.43 9.83
1 7 1 96.32 9.46
1 7 1 99.23 10.88
-1 -7 -1 105.68 12.04
-1 7 -1 106.46 11.58
1 7 1 114.34 12.77
-1 7 -2 2.84 4.57
-1 7 -2 7.43 4.94
-1 7 -2 5.92 3.89
1 7 2 6.18 3.65
1 -7 2 2.8 4.47
1 -7 2 7.25 3.58
-1 -7 -2 6.6 5.9
1 7 2 8.25 3.65
-1 7 -2 5.21 3.45
1 7 2 6.55 5.46
-1 7 -2 1.62 4.5
-1 7 -3 226.35 15.32
1 7 3 205.98 17.35
-1 7 -3 232.27 14.49
-1 7 -3 223.28 15.97
1 7 3 227.34 15.06
1 -7 3 211 16.45
-1 7 -3 203.46 16.04
-1 -7 -3 252.57 18.83
1 7 4 1.7 2.99
1 -7 4 2.59 4.98
-1 7 -4 4.52 4.79
-1 7 -4 1.04 3.61
1 7 4 -5.44 5.89
-1 -7 -4 -4.84 4.85
-1 7 -4 -0.15 3.8
1 -7 4 -1.82 4.9
-1 7 -4 -7.34 5.5
-1 7 -5 15.31 5.46
-1 7 -5 9.69 5.03
-1 7 -5 15.69 5.05
1 -7 5 21.82 6.73
-1 -7 -5 11.42 6.3
1 7 5 9.47 5.74
1 -7 5 17.31 6.54
1 7 5 19.32 5.9
-1 7 -5 19.39 5.7
-1 7 -6 23.42 6.19
1 7 6 20.53 7.62
-1 7 -6 21.44 6.02
1 -7 6 26.11 7.38
-1 7 -6 23.01 7.82
-1 -7 -6 11.71 6.25
1 -7 6 16.68 6.66
1 7 6 22.02 6.04
-1 7 -7 61.54 9.4
1 7 7 44.21 9.56
1 -7 7 51.89 9.46
-1 -7 -7 50.84 9.89
1 7 7 66.56 9.5
1 -7 7 40.95 9.03
-1 7 -7 49.04 8.35
-1 7 -7 53.61 10.18
1 7 8 85.32 12.55
-1 -7 -8 81.44 12.32
1 -7 8 88.3 12.17
1 -7 8 85.09 12.28
1 7 8 82.04 10.94
-1 7 -8 84.74 10.85
-1 7 -8 89.02 10.89
-1 7 -9 3.06 4.67
1 7 9 1.76 6.49
-1 -7 -9 14.87 6.58
1 -7 9 14.99 7.28
-1 7 -9 7.43 5.67
1 7 9 13.53 6.43
1 -7 9 11.23 5.94
-1 7 -10 48.48 9.57
1 7 10 28.74 8.16
1 -7 10 35.81 8.94
1 -7 10 31.15 8.79
-1 7 -10 41.88 8.77
-1 -7 -10 37.8 9.01
1 7 10 44.14 9.07
-1 7 -11 60.09 10.69
1 7 11 50.71 10.12
-1 -7 -11 51.8 11.06
1 -7 11 55.96 10.94
1 7 11 47.78 10.59
-1 7 -11 52.06 9.91
-1 7 -12 45.56 10.29
-1 7 -12 52.62 10.53
1 7 12 46.99 10.25
-1 -7 -12 40.03 9.61
1 7 12 54.18 10.97
1 -8 -11 55.27 11.22
1 -8 -10 14.88 6.55
1 8 -10 18.43 8.52
-1 8 9 11.19 6.67
-1 -8 9 12.02 7.19
1 -8 -9 15.14 6.61
1 8 -9 16.72 7.13
1 -8 -8 34.83 8.46
-1 8 8 44.76 9.98
-1 -8 8 58.52 11.19
1 8 -8 45.33 11.51
-1 -8 8 38.12 9.42
1 8 -8 48.64 10.55
1 -8 -7 18.93 6.48
1 8 -7 17.62 7.28
-1 8 7 26.19 9.05
-1 -8 7 21.07 7.65
1 8 -7 31.13 10
-1 8 6 34.75 8.85
-1 -8 6 35.92 8.86
1 8 -6 25.39 8.95
1 8 -6 47.96 9.78
1 -8 -6 44.53 8.38
1 8 -5 44.82 8.52
-1 -8 5 33.91 6.99
-1 -8 5 36.71 8.9
1 8 -5 40.96 8.88
1 -8 -5 37.11 7.52
1 8 -5 29.7 9.36
-1 8 5 22.69 7.86
1 8 -4 -5.47 7.22
1 8 -4 -1.22 4.93
-1 8 4 7.91 5.92
-1 -8 4 -3.21 4.69
-1 -8 4 -3.72 6.06
1 8 -4 -0.4 4.77
-1 8 4 -4.62 4.98
1 -8 -4 8.72 5.72
1 8 -3 13.37 5.96
1 8 -3 29.06 7.56
-1 -8 3 20.58 6.67
-1 -8 3 5.89 5.79
-1 8 3 12.53 5.99
-1 8 3 17.27 5.45
1 8 -3 20.53 6.8
1 8 -2 13.27 6.26
-1 -8 2 9.82 5.87
1 8 -2 6.64 5.12
-1 8 2 13.6 5.7
-1 -8 2 10.6 5.14
-1 8 2 0.46 4.58
-1 8 2 12.98 6.1
1 8 -2 11.39 6.52
-1 8 1 52.62 9.25
1 8 -1 50.24 9.05
-1 -8 1 52.7 9.12
-1 -8 1 57 10.46
-1 8 1 53.75 9.36
1 8 -1 57 9.14
-1 8 1 54.86 9.45
1 8 -1 53.08 10.04
-1 8 0 4.56 4.78
1 8 0 4.94 4.85
1 -8 0 12.64 6.41
-1 -8 0 2.71 5.22
-1 -8 0 9.1 6.19
1 8 0 -3.04 5.08
-1 8 0 9.37 4.83
1 8 0 13.64 5.25
1 8 0 11.97 7.08
-1 8 0 8.27 5.31
1 8 1 45.38 8.09
1 8 1 42.5 8.91
-1 8 -1 46.72 8.71
-1 -8 -1 40.01 9.05
-1 8 -1 44.67 8.46
1 -8 1 47.75 9.11
1 8 1 42.13 9.57
-1 8 -1 42.83 8.61
1 8 2 61.4 9.44
-1 8 -2 59.71 9.75
1 -8 2 59.8 10.03
-1 -8 -2 52.58 9.85
1 8 2 69.3 10.87
-1 8 -2 82.02 11.5
-1 8 -2 62.9 10.29
1 8 2 60.45 11
-1 8 -3 31.92 7.82
1 -8 3 35.28 8.37
-1 -8 -3 28.28 7.66
-1 8 -3 29.33 7.04
1 8 3 19.44 6.85
-1 8 -3 26.1 6.59
-1 8 -4 0.71 5.11
-1 8 -4 -4.44 5.13
1 8 4 3.22 5.82
-1 -8 -4 -0.56 4.72
1 -8 4 6.03 5.93
-1 8 -5 24.66 6.55
1 8 5 29.51 8.33
1 -8 5 28.78 8.55
-1 -8 -5 27.5 8.3
-1 8 -5 28.66 7.78
-1 -8 -6 24.76 8.28
1 -8 6 19.58 7.28
1 8 6 19.49 7.81
1 -8 6 29.03 8.27
-1 8 -6 41.05 9.56
1 8 7 8.39 7.06
-1 -8 -7 16.51 6.97
1 -8 7 6.92 6.07
1 -8 7 11.69 7.14
-1 8 -7 34.3 9.72
1 -8 8 30.34 8.13
-1 -8 -8 36.91 9.94
1 8 8 19.78 8.46
1 -8 8 33.35 9.3
1 -8 9 43.1 9.75
1 9 -7 18.3 7.1
1 9 -6 37.48 9.47
1 9 -5 -0.38 5.52
-1 9 4 0.18 5.69
1 9 -4 2.69 5.02
-1 -9 4 7.07 5.25
-1 -9 4 8.25 7.29
1 9 -4 -2.58 5.82
-1 9 4 1.71 4.83
1 9 -4 -5.1 8.58
1 9 -3 173.2 16.89
-1 9 3 133.57 16.06
-1 -9 3 153.46 17.45
-1 -9 3 164.31 16.45
1 9 -3 174.31 16.51
-1 9 3 151.24 16.6
1 9 -3 147.29 16.45
1 9 -2 26.7 7.59
-1 9 2 26.98 7.91
-1 -9 2 23.54 7.56
-1 -9 2 37.79 9.72
-1 9 2 30.57 8.4
-1 9 2 32.1 7.38
1 9 -2 25.93 8.21
1 9 -2 34.72 8.15
-1 9 1 25.48 7.34
-1 9 1 8.57 5.6
-1 -9 1 10.94 5.99
1 9 -1 14.66 7.35
1 9 -1 11.4 5.15
1 9 -1 21.84 7.15
-1 -9 1 18.75 7.25
-1 9 1 16.85 7.68
-1 9 0 30.88 7.84
-1 9 0 38.16 8.24
1 9 0 40.98 8.85
-1 -9 0 42.22 10.1
-1 -9 0 38.66 9.35
1 9 0 51.14 9.1
-1 9 0 42.72 8.95
1 9 0 41.99 9.56
-1 9 -1 110.5 13.71
1 9 1 63.11 10.67
1 -9 1 112.4 14.06
-1 -9 -1 96.44 13.47
1 9 1 105.12 14.46
1 9 1 123.87 13.48
-1 9 -1 106.85 13.41
-1 9 -1 92.57 12.92
1 9 2 3.31 5
1 9 2 -4.25 6.94
-1 9 -2 9.49 6.76
1 -9 2 7.45 6.79
-1 -9 -2 -0.33 5.45
-1 9 -2 5.56 6.39
-1 9 -2 -2.99 6.12
1 9 2 1.33 6.08
-1 9 -3 53.53 10.03
1 -9 3 41.56 8.76
-1 -9 -3 47.91 10.38
-1 9 -3 46.7 10.25
1 9 3 32.04 9.52
1 9 3 42.67 10.19
-1 9 -3 42.21 9.05
-1 9 -4 10.05 6.08
1 -9 4 29.32 8.89
-1 9 -4 19.49 7.07
-1 9 -4 20.41 7.21
1 -9 5 30.05 8.71
-1 9 -5 18.49 7.84
-1 9 -5 26.2 8.29
1 -9 6 21.49 7.81
-1 9 -6 35.73 9.87
-1 -10 3 12.93 7.01
-2 0 18 400.48 26.64
-2 0 17 38.63 9.58
2 0 -17 29.5 9.25
-2 0 16 26.67 7.77
2 0 -16 20.61 8.71
2 0 -16 20.82 7.8
2 0 -15 84.29 12.19
2 0 -15 117.62 14.5
2 0 -14 6.9 6.2
2 0 -14 -0.13 5.06
2 0 -13 93.65 11.37
2 0 -13 124.21 13.05
2 0 -12 314.48 20.01
2 0 -12 306.33 19.54
2 0 -11 2.77 3.91
2 0 -11 -2.22 4.73
2 0 -10 60.69 8.17
2 0 -10 53.76 7.85
-2 0 10 62.11 5.4
2 0 -9 -0.12 0.89
2 0 -9 2.29 4.25
-2 0 9 -3 4.4
-2 0 9 0.5 1.73
2 0 -9 -0.31 3.89
2 0 -8 282.44 15.22
2 0 -8 268.15 9.35
-2 0 8 249.23 14.95
2 0 -8 258.88 14.45
2 0 -8 264.56 13.4
2 0 -7 81.79 7.7
2 0 -7 87.53 5.22
-2 0 7 89.18 8.66
2 0 -7 95.96 8.26
2 0 -7 94.37 7.51
2 0 -6 817.26 25.96
-2 0 6 802.08 27.08
2 0 -6 803.45 21.18
2 0 -6 793.35 25.3
2 0 -6 778.91 24.31
2 0 -5 268.84 12.55
2 0 -5 279.09 10.43
2 0 -5 275.45 12.42
-2 0 5 254.86 13.5
2 0 -5 261.02 11.84
2 0 -4 126.96 8.07
-2 0 4 132.74 7.65
-2 0 4 138.33 9.29
2 0 -4 128.77 7.9
2 0 -3 770.59 22.55
-2 0 3 823.4 22.23
2 0 -3 820.56 22.3
-2 0 3 805.25 17.69
-2 0 3 778.05 24.05
2 0 -2 4076.64 87.86
-2 0 2 4172.45 89.59
-2 0 2 4117.64 84.77
2 0 -2 4414.69 90.03
2 0 -2 4211.97 87.04
-2 0 2 4507.57 88.54
-2 0 2 4292.23 84.89
2 0 -1 2224.89 49.96
-2 0 1 2161.61 44.43
-2 0 1 2222.79 44.56
2 0 -1 2148.03 48.52
-2 0 1 2181.64 49.74
-2 0 1 2341.95 49.2
-2 0 0 2571.71 56.42
2 0 0 2577.53 56.7
-2 0 0 2653.74 56.58
2 0 1 515.74 12.26
2 0 1 498.86 15.37
-2 0 -1 502.29 15.79
-2 0 -1 478.76 14.97
-2 0 -2 110.6 6.99
2 0 2 122.04 7.23
-2 0 -2 120.74 6.35
2 0 2 109.94 6.97
-2 0 -3 245.8 11.1
2 0 3 226.67 10.83
-2 0 -3 239.79 9.54
-2 0 -4 1723.2 43.37
2 0 4 1745.5 43.47
-2 0 -4 1744.42 40.34
-2 0 -5 302.7 14.34
-2 0 -5 295.32 13.13
2 0 5 310.33 14.25
-2 0 -6 5.63 3.21
2 0 6 -1.06 2.91
-2 0 -6 4.61 3.78
-2 0 -7 19.74 3.77
2 0 7 19.65 4.82
-2 0 -7 18.06 5.37
-2 0 -8 -2.66 2.77
2 0 8 -4.37 3.81
-2 0 -8 6.09 4.67
-2 0 -9 68.36 8.7
-2 0 -9 71.5 6.42
2 0 9 56.11 7.89
-2 0 -10 370.04 15.15
-2 0 -10 339.25 20.11
-2 0 -11 640.67 29.73
2 0 11 648.63 29.31
2 0 12 142.81 13.73
-2 0 -12 135.42 13.96
-2 0 -13 57.23 10.46
2 0 13 66.7 10.12
-2 0 -14 25.07 8.3
2 0 14 12.38 5.9
-2 0 -15 3.67 6.68
2 0 15 2.19 5.46
-2 0 -16 6.05 7.85
2 0 16 3.89 4.6
-2 -1 18 3.51 6.33
-2 -1 17 45.08 9.4
2 1 -17 53.67 10.82
2 1 -16 1.38 5.17
2 -1 -16 2.46 6.4
-2 -1 16 3.34 4.19
2 1 -16 8.72 7.34
2 1 -15 38.98 8.63
-2 -1 15 36.93 8.15
2 -1 -15 30.95 8.68
-2 -1 15 70.73 12.35
2 -1 -15 46.27 10.16
-2 1 15 30.04 8.29
2 1 -15 40.26 9.41
2 -1 -14 46.61 9.51
-2 1 14 53.67 9.69
-2 -1 14 61.37 11.06
-2 -1 14 54.49 9.12
2 -1 -14 54.05 9.81
2 1 -14 63.01 10.37
2 1 -14 45.07 9.21
2 -1 -13 14.31 6.77
2 1 -13 14.62 6.15
-2 1 13 11.98 5.33
-2 -1 13 23.98 6.3
2 -1 -13 12.63 6.35
2 1 -13 26.21 7.75
2 -1 -12 63.62 9.52
2 -1 -12 51.48 9.05
-2 1 12 63.4 9.8
2 1 -12 55.43 9.14
-2 -1 12 46.68 7.48
-2 -1 12 87.41 12.86
2 1 -12 64.45 9.29
2 1 -11 22.56 6.11
-2 1 11 25.68 6.23
-2 1 11 24.52 6.15
2 -1 -11 19.59 5.97
-2 -1 11 26.39 6.29
2 -1 -11 15.98 5.16
2 1 -11 25.85 7.23
-2 1 10 96.76 10.63
2 -1 -10 113.48 11.09
2 1 -10 82.77 9.36
2 1 -10 115.39 11.31
-2 1 10 98.14 10.16
2 -1 -10 98.06 10.17
-2 -1 10 100.22 9.28
2 1 -9 299.93 16.53
-2 -1 9 293.42 15.1
-2 1 9 322.16 18.04
-2 -1 9 315.76 17.69
2 -1 -9 304.26 17.52
2 -1 -9 332.6 12.39
2 -1 -9 330.59 17.05
2 1 -9 314.17 17.64
-2 1 9 305.28 17.35
2 -1 -8 33.41 6.3
-2 -1 8 31.85 6.92
2 -1 -8 28.84 5.83
2 1 -8 26.44 2.19
-2 1 8 26.79 5.5
2 -1 -8 24.97 3.48
-2 -1 8 27.9 4.69
2 1 -8 24.52 5.32
2 1 -8 22.26 4.88
2 -1 -8 26.78 4.97
-2 1 8 20.49 5.68
2 -1 -7 53.66 7.04
-2 -1 7 57.95 5.68
-2 -1 7 56.03 7.03
2 -1 -7 58.29 5.04
2 -1 -7 55.95 6.25
2 1 -7 58.7 3.87
-2 1 7 47.83 6.46
2 -1 -7 60.11 6.98
2 1 -7 55 5.48
2 1 -7 46.85 6.5
2 1 -7 45.57 5.86
-2 1 7 52.78 7.16
-2 -1 6 185.19 9.32
-2 -1 6 163.25 10.31
2 -1 -6 158.45 10.74
2 -1 -6 173.46 10.7
2 1 -6 169.6 9.9
2 -1 -6 184.97 9.08
2 1 -6 165.58 10.89
2 -1 -6 163.53 9.55
-2 -1 6 171.51 11.3
-2 1 6 171.77 11.38
2 1 -6 160 8.54
2 -1 -5 267.26 13.38
-2 -1 5 260.39 12.41
2 -1 -5 265.89 13.08
2 -1 -5 274.74 11.44
-2 1 5 283.16 11.68
-2 -1 5 275.67 10.74
-2 -1 5 284.18 13.98
-2 1 5 266.44 13.67
2 1 -5 267.14 11.88
2 1 -5 258.68 13.13
2 -1 -5 267.56 11.34
-2 1 4 110.35 6.33
2 -1 -4 102.3 7.76
2 1 -4 106.13 7.96
-2 -1 4 111.24 7.25
2 1 -4 101.56 6.45
2 -1 -4 105.08 6.84
2 -1 -4 106.6 6.21
-2 -1 4 113.24 8.4
-2 -1 4 109.26 6.66
-2 1 4 107.34 8.42
-2 -1 4 107.61 5.84
2 -1 -3 332.99 13.71
2 -1 -3 345.86 10.77
2 -1 -3 340.68 12.94
2 1 -3 312.95 11.24
-2 -1 3 285.51 11.76
2 1 -3 354.5 12.55
-2 -1 3 342.54 11.59
2 1 -3 339.61 12.5
2 -1 -3 317.13 12.73
-2 1 3 315.01 14.03
2 1 -3 311.96 13.14
-2 -1 3 345.21 12.52
-2 1 3 336.32 10.64
-2 -1 3 330.67 13.68
2 1 -3 324.98 10.37
-2 -1 3 343.66 10.45
2 -1 -2 22.26 4.29
2 1 -2 22.23 3.48
-2 -1 2 19.34 2.59
2 -1 -2 27.03 4.41
2 1 -2 21.21 2.75
2 1 -2 22.02 3.13
-2 1 2 17.98 3.77
2 1 -2 20.78 2.28
2 -1 -2 25.84 2.42
2 1 -2 23.43 4.07
-2 1 2 21.01 1.67
-2 -1 2 15.88 2.92
-2 1 2 18.53 4.06
-2 -1 2 20.73 2.9
2 1 -2 22.36 3.35
-2 -1 2 24.17 3.92
-2 1 1 590.89 18.6
-2 -1 1 590.47 15.13
-2 1 1 558.86 12.74
-2 -1 1 534.4 15.54
2 1 -1 588.57 15.88
-2 -1 1 557.4 17
2 -1 -1 537.99 18.17
2 1 -1 586.27 17.28
2 1 -1 563.73 14.99
2 -1 -1 553.88 13.38
-2 1 1 541.28 18.27
2 -1 -1 571.36 13.67
2 1 -1 566.51 14.68
-2 1 1 569.08 13.48
2 -1 -1 577.93 18.67
2 1 -1 552.83 15.75
2 -1 -1 524 17.84
-2 -1 0 214.75 7.94
-2 -1 0 213.23 8.35
2 -1 0 214.23 10.82
2 1 0 234.82 8.96
2 -1 0 235.54 10.64
-2 1 0 202.8 10.33
-2 -1 0 242.37 9.04
2 -1 0 215.18 7.55
2 1 0 237.9 8.51
2 -1 0 233.44 10.69
-2 -1 0 234.03 8.14
-2 1 0 261.77 11.04
-2 1 -1 1094.87 29.48
-2 -1 -1 1042.51 25.46
-2 1 -1 1078.12 29.13
2 1 1 1122.33 26.25
2 -1 1 1067.33 22.53
2 -1 1 1034.42 25.76
-2 -1 -1 1078.46 25.19
2 -1 1 1122.98 29.09
-2 1 -1 1037.86 28.66
2 -1 1 1086.72 22.63
2 1 1 1077.57 25.29
2 1 2 172.52 6.43
-2 -1 -2 165.81 7.65
2 1 2 172.8 7.92
-2 -1 -2 170.61 9.86
2 -1 2 169.3 7.81
2 1 2 162.49 9.54
-2 -1 -2 172.39 6.35
-2 1 -2 167 9.08
2 -1 2 172.19 6.34
2 -1 2 190.7 8.04
-2 1 -2 163.16 9.32
2 1 2 176.22 7.83
2 -1 2 179.02 6.45
2 -1 2 164.93 8.19
-2 -1 -3 344.17 12.89
-2 1 -3 346.68 14.71
2 1 3 376.93 13.29
2 -1 3 353.95 12.94
-2 1 -3 369.62 13.17
-2 1 -3 349.09 13.95
-2 -1 -3 367.17 14.95
-2 -1 -3 361.71 10.03
2 -1 3 388.79 13.61
2 1 3 341.92 14.7
-2 -1 -4 833.53 24.48
-2 1 -4 798.47 26.33
-2 -1 -4 817.55 25.68
2 -1 4 820.25 24.05
2 1 4 807.69 26.46
-2 1 -4 873.29 24.41
-2 -1 -4 869.98 19.89
-2 -1 -5 105.04 8
-2 1 -5 104.93 8.75
-2 -1 -5 101.66 7.95
2 -1 5 107.01 7.64
2 1 5 100.91 8.54
-2 -1 -5 102.16 4.97
-2 -1 -6 190.07 11.28
-2 1 -6 175.01 11.89
-2 -1 -6 182.33 10.54
2 -1 6 192.99 11.15
2 1 6 198.07 12.47
-2 -1 -7 301.09 15.68
-2 -1 -7 283.39 13.79
-2 1 -7 281.38 15.89
2 -1 7 287.88 14.67
2 1 7 281.79 15.72
-2 -1 -8 182.95 12.86
-2 1 -8 171.2 13.06
-2 1 -8 207.71 10.11
-2 -1 -8 191.15 11.44
-2 1 -8 212.9 10.31
2 1 8 185.19 13.4
2 -1 8 183.79 12.39
-2 -1 -8 185.59 9.09
-2 -1 -9 253.08 16.22
-2 1 -9 248.65 16.38
-2 -1 -9 260.58 13.6
-2 1 -9 258.5 11.4
2 -1 9 243.56 15.19
2 1 9 258.71 16.47
-2 1 -10 389.16 21.88
-2 -1 -10 371.56 16.98
-2 1 -10 416.78 14.94
2 -1 10 375.19 20.33
2 1 10 387.52 21.53
-2 -1 -10 381.44 20.96
-2 1 -11 270.98 18.87
-2 -1 -11 283.52 14.6
2 -1 11 265.07 17.51
2 1 11 276.72 18.89
-2 -1 -11 282.99 18.76
-2 1 -12 125.16 13.95
2 -1 12 120.44 12.47
2 1 12 129.56 13.4
-2 -1 -12 131.09 13.7
-2 -1 -13 36.57 8.85
-2 1 -13 20.69 7.16
2 1 13 27.77 7.78
2 -1 13 32.91 7.57
-2 -1 -14 21.5 7.39
-2 1 -14 29.68 8.95
2 1 14 12.9 5.62
2 -1 14 23.9 7.22
-2 1 -15 17.65 8.19
-2 -1 -15 27.76 8.31
2 -1 15 33.46 8.26
2 1 15 15.34 7
2 1 16 48.23 10.31
2 -1 16 37.72 9.07
-2 -2 17 18.05 6.66
2 2 -17 30.87 9.2
2 -2 -16 27.73 8.61
-2 -2 16 47.18 10.23
2 2 -16 34.08 9.87
-2 2 16 42.75 10.12
-2 -2 16 49.38 9.66
2 2 -16 27.33 8.68
2 2 -15 51.18 9.94
-2 -2 15 68.02 12.03
2 -2 -15 40.24 9.88
-2 2 15 38.73 9.1
-2 -2 15 47.02 9.09
2 2 -15 65.35 11.98
2 2 -14 73.61 10.68
2 -2 -14 56.71 10.71
-2 -2 14 37.36 8.78
-2 2 14 46.91 9.39
-2 -2 14 46.46 8.21
2 2 -14 56.13 10.95
-2 2 13 96.99 11.17
-2 2 13 127.51 13.64
2 -2 -13 123.73 13.61
-2 -2 13 104.07 12.59
2 2 -13 123.06 12.72
2 2 -13 121 13.83
-2 -2 13 115.4 12.1
-2 -2 12 255.04 16.93
-2 2 12 250.38 18.26
-2 -2 12 217.84 17.27
2 -2 -12 240.48 18.21
2 2 -12 285.61 18.1
2 2 -12 254.99 18.64
-2 2 12 247.17 17.17
-2 2 11 -0.54 4.12
2 -2 -11 7.27 4.85
2 2 -11 8.7 5.37
-2 -2 11 5.13 5.11
-2 2 11 2.12 4.81
-2 -2 11 0.3 3.78
2 2 -11 1.89 5.12
-2 -2 10 49.15 3.38
2 2 -10 55.84 7.68
-2 -2 10 43.97 7.65
2 -2 -10 50.79 8.15
-2 2 10 50.6 7.85
-2 2 10 60.76 8.39
-2 -2 10 48.48 6.93
2 2 -10 49.94 8.39
2 -2 -10 53.4 7.61
-2 -2 9 497.21 14.44
-2 -2 9 465.82 14.07
-2 2 9 423.47 21.4
-2 -2 9 407.19 21.07
2 -2 -9 444.49 22.42
2 2 -9 436.88 19.9
2 2 -9 440.85 22.21
-2 2 9 443.39 21.4
2 -2 -9 477.3 20.68
-2 -2 9 461.5 20.3
-2 -2 8 78.11 5.31
-2 2 8 66.06 8.02
-2 2 8 73.02 8.16
-2 -2 8 77.48 5.29
-2 -2 8 72.6 8.38
2 -2 -8 72.36 6.66
2 -2 -8 65.94 8.15
2 -2 -8 68.62 7.11
2 2 -8 61.94 7.2
-2 -2 8 66.9 7.09
2 -2 -8 66.85 8.4
2 2 -8 57.03 8.06
-2 2 7 217.99 13.16
-2 -2 7 258.59 10.53
2 -2 -7 237.63 14.53
-2 -2 7 245.06 10.38
2 -2 -7 224.33 11.69
-2 -2 7 228.18 12.16
2 2 -7 230.78 12.28
2 -2 -7 241.73 12.25
-2 2 7 226.09 13.77
2 2 -7 217.8 13.96
-2 -2 7 208.97 13.33
2 -2 -7 211.99 13.37
2 -2 -6 373.75 17.84
2 2 -6 403.1 12.68
-2 -2 6 462.75 15.13
2 2 -6 382.92 18.22
2 -2 -6 369.2 17.84
-2 2 6 386.27 17.2
-2 -2 6 371.28 17.19
2 -2 -6 426.22 16.62
2 2 -6 392.12 15.47
2 -2 -6 426.63 15.63
-2 -2 6 413.26 16.3
-2 2 6 387.81 17.92
-2 -2 6 418.39 14.56
-2 -2 5 240.38 10.6
-2 2 5 209.42 11.39
2 -2 -5 198.49 12.19
-2 -2 5 195.59 11.59
2 -2 -5 193.67 12.13
2 2 -5 201.84 9.67
2 2 -5 205.9 12.55
-2 -2 5 220.97 10.23
-2 2 5 198.57 12.09
-2 2 5 231.08 9.72
2 -2 -5 232.83 9.9
-2 -2 5 199.81 10.31
2 -2 -5 211.23 11.37
-2 -2 4 384.91 13.34
2 -2 -4 325.23 15.54
2 2 -4 354.2 16.08
-2 -2 4 343.59 15.03
2 -2 -4 385.86 14.53
2 2 -4 351.74 12.3
-2 -2 4 382.54 14.41
-2 -2 4 396.57 14.66
2 -2 -4 358.99 15.24
-2 2 4 337.48 15.94
2 2 -4 356.06 13.75
-2 -2 4 361.28 13.72
-2 2 4 389.18 12.01
2 -2 -4 381.72 11.96
2 2 -4 378.78 15.75
2 -2 -3 585.22 21.26
2 2 -3 609.51 16.16
2 -2 -3 668.73 19.09
-2 2 3 590.06 21.46
2 -2 -3 608.06 20.99
-2 -2 3 575.45 20
-2 2 3 619.24 15.3
2 2 -3 653.01 19.07
-2 -2 3 608.1 18.65
-2 -2 3 623.43 20.23
2 2 -3 579.16 21.08
2 2 -3 605.68 20.28
-2 -2 3 669.41 17.47
2 -2 -2 414.45 16.95
-2 -2 2 456.51 16.78
-2 2 2 474.99 13.91
-2 -2 2 424.31 15.8
2 -2 -2 469.5 14.12
2 -2 -2 438.34 17.13
2 2 -2 433.02 11.41
-2 2 2 420.82 17
2 2 -2 483.9 16.6
2 2 -2 428.16 17.13
2 2 -2 461.14 15.02
2 2 -2 435.42 16
-2 2 2 470.86 14
-2 -2 2 471.96 12.45
-2 2 1 144.84 6.75
-2 2 1 115.54 8.56
-2 -2 1 131.76 8.63
-2 2 1 135.52 5.92
-2 -2 1 128.02 7.68
2 2 -1 132.89 7.78
2 -2 -1 131.17 5.82
-2 -2 1 120.94 4.06
2 -2 -1 114.46 8.37
2 2 -1 121.96 7.72
2 2 -1 131.62 7.12
2 -2 -1 129.31 9.02
2 2 -1 139.92 7.54
-2 2 0 73.3 4.25
-2 -2 0 86.49 7.34
2 -2 0 80.1 4.46
2 2 0 93.32 6.29
-2 2 0 82.27 4.38
2 -2 0 69.24 6.86
-2 -2 0 71.11 5.92
2 2 0 80.93 5.13
-2 2 0 80.25 7.22
2 -2 0 73.38 5.22
2 -2 0 70.56 6.95
-2 2 0 86.26 5.41
-2 -2 0 73.65 3.25
-2 2 -1 328.35 14.68
-2 -2 -1 341.49 14.98
-2 -2 -1 326.26 13.24
2 2 1 386.9 13.83
2 -2 1 342.49 10.65
-2 2 -1 353.32 10.88
-2 2 -1 336.11 10.71
2 -2 1 342.89 9.8
2 -2 1 310.89 14.21
2 -2 1 315.7 12.41
2 2 1 341.44 10.51
2 -2 1 363.85 9.87
-2 -2 -1 349.45 9.34
-2 2 -1 362.2 12.89
-2 2 -1 318.97 14.56
-2 -2 -2 1054.29 24.65
2 2 2 1096.27 24.88
-2 2 -2 1078.3 31.02
-2 -2 -2 1002.8 30.44
2 -2 2 1099.82 25.65
2 -2 2 1067.23 25.76
2 -2 2 1056.87 24.4
2 2 2 1026.62 30.9
2 -2 2 1006.91 30.16
-2 2 -2 981.36 30.23
2 -2 2 1118.14 26.12
2 2 2 1021.86 22.79
2 -2 2 982.99 28.13
-2 -2 -3 878.22 23.07
2 2 3 902.59 23.12
-2 2 -3 880.95 27.93
-2 -2 -3 820.65 27.25
2 -2 3 839.19 23.36
2 -2 3 874.23 22.31
2 2 3 838.04 27.75
2 -2 3 830.12 26.67
-2 2 -3 913.99 22.59
2 -2 3 939.48 24.02
2 -2 3 855.61 26.16
2 -2 3 950.55 24.24
-2 -2 -4 535.62 17.34
2 2 4 552.41 17.28
-2 2 -4 509.74 20.57
2 -2 4 513.76 17.34
2 -2 4 517.6 16.35
2 2 4 517.64 20.57
-2 2 -4 523.03 16.43
2 -2 4 488.48 18.86
2 -2 4 519.56 19.51
-2 -2 -4 501.16 19.77
-2 2 -4 514.33 18.05
2 -2 4 552.12 17.7
-2 2 -5 72.14 7.82
-2 -2 -5 68.36 7.29
-2 -2 -5 75.18 6.55
2 2 5 68.5 7.45
2 -2 5 79.15 6.8
2 -2 5 76.23 6.01
2 -2 5 84.8 7.38
-2 2 -5 75.42 6.82
2 -2 5 79.55 7.71
-2 -2 -6 31.28 5.14
-2 2 -6 27.13 5.97
2 -2 6 28.83 5.59
2 -2 6 35.65 4.73
-2 2 -6 33.74 5.35
2 -2 6 29.7 4.89
-2 -2 -6 35.04 5.62
2 2 6 33.38 6.1
2 -2 6 28.39 4.66
-2 2 -7 73.14 8.8
2 -2 7 82.41 8.72
2 -2 7 90.84 8.46
2 -2 7 84.76 7.35
2 2 7 95.87 9.73
2 -2 7 75.96 7.1
-2 -2 -7 77.15 7.72
-2 -2 -7 73.1 3.28
-2 -2 -7 76.23 3.33
-2 2 -7 86.74 8.63
-2 -2 -7 95.26 8.61
-2 -2 -8 219.82 13.3
-2 2 -8 190.39 14.2
2 -2 8 231.29 13.82
2 -2 8 225.43 13.15
2 2 8 189.77 14.13
2 -2 8 200.94 11.48
2 -2 8 202.78 14.45
-2 -2 -8 210.94 7.55
-2 -2 -8 217.76 13.53
-2 2 -8 218.26 14.28
2 -2 9 106.29 11.37
-2 2 -9 106.44 6.93
2 2 9 102.84 10.87
2 -2 9 107.52 10.96
2 -2 9 102.4 9.56
2 -2 9 95.15 8.15
-2 2 -9 83.81 10.21
-2 -2 -9 103.62 9.39
-2 -2 -9 103.99 10.17
-2 2 -10 209.03 16.34
-2 -2 -10 227.29 14.11
2 -2 10 227.3 16.71
2 -2 10 263.25 16.58
2 -2 10 236.87 15.27
2 2 10 200.88 15.77
2 -2 10 205.56 11.73
-2 -2 -10 231.94 15.84
-2 2 -11 513.72 27.26
-2 -2 -11 562.17 23.66
2 -2 11 581.8 26.74
2 -2 11 591.53 26.26
2 2 11 550.95 27.97
2 -2 11 504.58 26.9
-2 -2 -11 545 26.53
-2 2 -12 49.63 9.08
2 -2 12 37.73 8.48
-2 -2 -12 42.76 9.14
2 -2 12 58.42 10.53
2 -2 12 48.1 8.19
2 2 12 38.87 8.58
2 2 13 21.18 6.76
2 -2 13 27.33 6.84
2 -2 13 25.91 8.04
-2 2 -13 34.36 8.53
-2 -2 -13 22.95 7.83
-2 2 -14 54.13 10.57
2 -2 14 60.95 10.56
2 -2 14 47.81 10
-2 -2 -14 36.59 9.27
2 -2 14 54.02 9.35
2 2 14 41.2 9.44
-2 2 -15 7.62 5.58
2 -2 15 19.73 8.43
2 -2 15 16.88 7.67
2 -2 15 15.52 6.51
2 2 15 8.56 6.21
-2 -2 -15 8.19 6.75
2 -2 16 3.29 6.54
2 -2 16 3.77 5.1
-2 -3 17 17.2 7.51
2 3 -17 1.44 5.89
-2 -3 16 92.46 12.68
2 3 -16 108.04 13.81
-2 3 16 113.63 14.87
2 -3 -15 52.82 10.73
2 3 -15 40.83 8.69
-2 -3 15 20.6 8.2
-2 3 15 34.72 8.95
-2 -3 15 40.67 8.74
2 3 -15 34.13 8.92
-2 3 14 95.26 11.67
2 -3 -14 92.05 13.07
2 3 -14 73.03 10.81
-2 3 14 103.29 13.05
-2 -3 14 84.63 10.98
2 3 -14 88.84 12.62
-2 -3 14 92.01 12.89
2 -3 -13 19.98 6.88
-2 3 13 31.44 7.04
-2 3 13 27.96 6.26
-2 -3 13 18.47 7.2
2 3 -13 30.53 7.32
-2 3 13 26.55 6.83
-2 -3 13 32.99 7.25
2 3 -13 29.49 8.07
-2 3 12 4.66 5.25
-2 -3 12 2.54 4.85
-2 3 12 5.24 5.02
2 3 -12 6.68 3.86
2 3 -12 8.99 5.85
-2 -3 12 5.79 4.39
2 -3 -12 1.84 5.53
-2 -3 11 123.56 12.58
-2 3 11 129.36 12.8
2 -3 -11 116.16 12.9
2 3 -11 131.45 11.72
-2 -3 11 124.32 11.64
2 3 -11 119.93 12.86
-2 3 11 126.15 12.1
-2 -3 10 119.65 11.02
-2 -3 10 112.88 11.6
-2 3 10 131.9 12.17
2 -3 -10 121.77 12.62
2 3 -10 118.61 10.6
-2 3 10 130.48 11.92
2 3 -10 113.89 12.24
-2 -3 9 313.86 11.03
2 -3 -9 274.22 17.74
-2 -3 9 256.95 16.95
-2 3 9 286.49 17.17
2 3 -9 291.44 15.52
-2 -3 9 283.92 16.59
-2 3 9 283.45 16.9
2 3 -9 289.98 18.6
-2 -3 8 419.95 14.02
2 -3 -8 353.09 19.63
-2 -3 8 349.54 19.18
-2 3 8 373.34 18.79
2 -3 -8 392.66 17.98
2 3 -8 389.61 13.3
-2 3 8 370.9 19.01
2 3 -8 366.78 16.69
2 -3 -8 381.66 20.25
-2 -3 8 345.06 17.69
2 3 -8 389.65 20.85
-2 -3 8 398.71 13.84
-2 -3 7 656.73 19.57
-2 -3 7 606.61 19.22
-2 -3 7 542.39 23.75
-2 3 7 572.06 22.89
2 -3 -7 581.02 22.6
2 -3 -7 562.23 24.36
-2 3 7 581.14 23.79
2 3 -7 581.46 20.61
-2 -3 7 590.51 23.02
2 3 -7 578.45 25.28
2 -3 -7 547.41 24.25
2 -3 -6 67.91 8.08
-2 -3 6 68.41 7.92
-2 3 6 77.73 7.52
-2 3 6 57.97 7.39
2 -3 -6 74.69 7.66
2 3 -6 75.93 6.12
-2 -3 6 62.7 7
2 -3 -6 75.22 8.41
2 3 -6 71.22 8.62
-2 -3 6 84.21 6.52
2 3 -6 88.64 9.77
-2 -3 5 8.02 2.56
2 3 -5 5.99 2.23
-2 -3 5 5.79 3.57
2 -3 -5 8.16 3.96
-2 -3 5 9.57 3.1
-2 3 5 3.27 2.48
2 -3 -5 6.1 3.56
-2 -3 5 4.79 3.07
2 3 -5 6.77 1.15
2 -3 -5 6.17 4.44
2 3 -5 3.71 4.13
-2 3 5 10.28 2.3
-2 3 5 2.24 3.4
2 3 -5 7.33 4.86
2 -3 -4 202.03 9.99
-2 -3 4 218.88 9.14
2 -3 -4 197.46 12.39
-2 -3 4 204.29 10.92
-2 -3 4 182.28 11.79
-2 3 4 189.3 9.77
2 -3 -4 204.48 12.33
2 3 -4 200.45 7.93
2 3 -4 185.79 12.42
-2 3 4 198.47 12.46
2 3 -4 198.74 12.43
-2 3 4 214.72 8
2 -3 -4 189.88 12.32
-2 -3 4 205.16 11.2
-2 -3 3 289.79 9.46
2 -3 -3 281.31 14.5
2 3 -3 271.58 8.14
2 -3 -3 292.2 11.01
2 -3 -3 284.12 14.78
2 3 -3 284.57 14.33
2 3 -3 247.67 14.24
-2 -3 3 299.94 13.53
-2 3 3 259.91 14.13
-2 3 3 274.58 8.15
-2 -3 3 256.08 13.47
-2 -3 2 799.96 18.32
-2 -3 2 822.86 26.42
-2 3 2 803.62 27.26
-2 3 2 880.67 24.11
-2 -3 2 783.24 25.88
2 -3 -2 790.83 26.79
2 -3 -2 876.15 21.03
2 -3 -2 841.44 27.62
2 3 -2 816.41 27.5
2 3 -2 824.08 26.53
-2 -3 1 155.87 10.13
-2 -3 1 142.56 9.53
2 -3 -1 147.6 5.38
2 -3 -1 135.31 10.11
2 3 -1 154.15 8.67
-2 3 1 147.81 10.58
-2 3 1 155.35 8.01
2 3 -1 175.1 11.23
2 3 -1 139.03 9.47
2 -3 -1 150.18 10.38
2 3 0 304.51 15.2
-2 -3 0 300.56 14.6
2 -3 0 296.3 11.63
-2 3 0 294.64 11.55
2 -3 0 287.82 14.61
-2 3 0 279.08 14.74
-2 -3 0 275.19 13.45
2 3 0 303.4 11.53
2 -3 0 283.57 12.55
2 -3 0 272.49 14.18
-2 3 0 291.7 11.55
2 3 1 1021.53 31.87
-2 -3 -1 909.51 29.37
-2 3 -1 1039.61 26.74
-2 -3 -1 978.99 21.55
2 -3 1 1014.13 26.69
2 -3 1 987.25 30.9
-2 3 -1 984.09 31.5
-2 -3 -1 941.85 30.7
-2 3 -1 970.3 30.77
2 -3 1 1022.93 23.02
2 3 1 1034.19 24.84
-2 3 -1 996.23 22.9
-2 3 -1 995.89 26.48
2 -3 1 931.45 28.4
2 3 2 299.7 8.68
-2 3 -2 303.78 12.27
-2 3 -2 288.46 14.83
2 3 2 309.11 15.79
-2 -3 -2 297.37 15.34
2 -3 2 323.57 10.83
2 -3 2 280.02 14.51
2 3 2 292.83 14.9
-2 -3 -2 298.97 9.79
2 -3 2 288.81 13.77
2 -3 2 292.77 12.02
-2 3 -2 299.68 10.55
-2 3 -2 297.59 15.3
2 3 2 305.35 9.23
-2 3 -2 280.47 11.92
-2 -3 -3 69.67 7.82
-2 3 -3 64.09 7.38
2 -3 3 63.86 5.73
2 -3 3 74.3 3.79
2 3 3 63.15 7.19
2 -3 3 73.84 7.57
2 -3 3 67.24 7
-2 -3 -3 67.68 5.13
-2 3 -3 66.3 5.39
2 3 3 76.18 4.59
2 -3 3 81.72 5.65
2 3 3 74.71 8.18
-2 3 -3 70.37 6.17
2 3 4 582.91 17.36
-2 3 -4 530.1 22.17
-2 -3 -4 517.98 22.01
2 3 4 537.99 22.87
2 -3 4 560.27 19.53
2 -3 4 579.17 16.03
2 3 4 528.53 22.15
-2 3 -4 567.06 15.85
2 -3 4 518.1 20.64
2 -3 4 498.1 20.84
-2 3 -4 553.12 18.98
-2 -3 -4 558.6 18.29
-2 -3 -5 107.53 9.57
2 3 5 114.97 10.44
2 -3 5 108.34 8.31
-2 3 -5 102.27 9.64
2 -3 5 125.23 7.04
2 3 5 104.76 9.77
-2 3 -5 119.15 6.78
2 -3 5 112 8.9
2 -3 5 99.49 9.13
-2 3 -5 103.8 8.2
-2 -3 -5 109.4 8.04
2 3 6 13.01 4.92
-2 3 -6 7.45 4.43
2 3 6 18.07 5.63
2 -3 6 12.72 3.64
-2 -3 -6 18.55 4.66
-2 -3 -6 13.42 4.51
2 -3 6 17.06 4.35
2 -3 6 18.15 3.42
2 -3 6 15.15 5.07
-2 3 -6 10.5 3.92
-2 3 -7 22.65 6.26
2 3 7 37.5 6.95
-2 -3 -7 26.14 5.11
-2 3 -7 20.08 4.96
2 -3 7 13.74 4.15
2 -3 7 19.75 5.5
-2 -3 -7 24.3 5.42
2 -3 7 27.12 4.99
2 3 7 25.58 6.26
2 -3 7 18.9 3.71
-2 3 -8 24.9 6.84
2 3 8 29.08 7.06
2 -3 8 19.22 5.04
-2 -3 -8 28.21 6.02
2 -3 8 16.03 3.7
2 -3 8 30 5.45
2 -3 8 33.9 7.23
2 3 8 13.35 5.24
-2 -3 -8 23.38 5.58
-2 3 -8 19.29 5.75
-2 3 -9 36.39 7.51
-2 -3 -9 52.79 7.8
2 3 9 44.95 7.99
2 -3 9 33.6 6.79
-2 -3 -9 44.09 7
2 -3 9 53.68 6.84
2 -3 9 33.87 5.51
2 -3 9 42.41 7.83
-2 3 -9 43.49 7.89
2 3 9 42.67 7.82
-2 3 -10 13.04 6.08
2 3 10 29.07 7.15
2 -3 10 7.93 5.17
-2 -3 -10 14.36 5.03
-2 -3 -10 8.84 4.78
2 -3 10 15.49 4.7
2 -3 10 14.35 4.03
2 -3 10 13.68 5.52
-2 3 -10 13.9 5.54
2 3 10 9.2 4.56
-2 -3 -11 124.38 11.44
-2 3 -11 117.65 13.6
2 -3 11 103.22 11.62
2 -3 11 126.27 11.43
2 3 11 132.94 13.77
-2 3 -11 115.57 12.84
-2 -3 -11 119.82 12.5
2 -3 11 111.63 13.03
-2 -3 -12 91.7 10.5
2 -3 12 86.55 11.32
2 -3 12 86.62 12.01
2 -3 12 93.44 10.64
-2 -3 -12 95.15 11.9
-2 3 -12 76.13 11.45
2 3 12 72.95 10.86
-2 3 -12 93.66 12.27
-2 3 -13 106.5 14.35
2 -3 13 98.51 11.35
2 -3 13 102.87 12.61
2 3 13 92.49 12.78
2 -3 13 81.11 12.69
-2 -3 -13 93.06 12.04
-2 3 -14 19.9 7.96
2 -3 14 18.61 7.93
2 -3 14 10.78 6.07
2 -3 14 6.23 4.24
2 3 14 4.75 5.08
-2 -3 -14 9.85 6.77
2 -3 15 16.91 7.73
-2 -3 -15 26.71 8.99
2 -3 15 36.52 7.97
2 -3 16 100.29 13.38
-2 -4 16 36.2 8.9
-2 -4 15 72.12 11.28
-2 4 15 92.47 13.2
2 -4 -15 100.96 14.93
2 4 -14 0.96 5.78
2 -4 -14 14.47 7.32
-2 -4 14 -0.97 6.49
2 4 -14 7.59 5.73
-2 4 14 2.82 4.69
-2 -4 14 -1.06 5.12
-2 4 13 20.29 6.68
-2 4 13 23.95 6.35
2 -4 -13 23.05 7.81
-2 -4 13 17.31 5.94
-2 4 13 13.25 5.35
-2 -4 13 24.6 7.57
2 4 -13 19.7 6.02
2 4 -13 28.21 9
-2 -4 12 -1.42 6.34
-2 4 12 1.8 4.34
-2 -4 12 7.33 5.07
2 -4 -12 14.37 6.92
2 4 -12 0.35 5.11
2 4 -12 6.43 5.17
-2 4 12 0.48 4.02
2 4 -11 74.61 11.13
-2 4 11 81.65 10.72
-2 -4 11 80.12 11.14
2 -4 -11 70.07 10.35
2 4 -11 78.19 9.11
-2 -4 11 69.16 9.64
-2 4 11 70.17 9.49
2 4 -10 68.36 8.1
-2 4 10 66.1 9.41
2 4 -10 64.05 9.87
-2 -4 10 68.65 10.21
-2 4 10 75.93 9.51
2 -4 -10 72.38 10.28
-2 -4 10 66.99 9.03
2 4 -9 1353.17 47.13
2 -4 -9 1335.62 46.16
-2 -4 9 1279.89 45.52
-2 4 9 1418.84 44.53
-2 -4 9 1382.14 44.58
2 4 -9 1401 40.57
-2 4 9 1368.07 43.9
-2 -4 8 -0.04 4.46
2 4 -8 1.52 3.09
-2 -4 8 1.52 1.82
-2 4 8 3.77 3.55
2 -4 -8 8.52 5.85
2 4 -8 -0.68 5.2
-2 -4 8 -1.61 4.08
-2 4 8 2.75 4.77
2 -4 -7 163.83 13.26
-2 -4 7 165.39 9.72
2 -4 -7 168.44 13.47
-2 -4 7 150.04 12.65
-2 4 7 161.47 12.32
-2 4 7 160.01 11.31
2 -4 -7 170.83 12.71
-2 -4 7 159.85 12.23
2 4 -7 169.5 9.91
2 4 -7 187.5 14.95
2 4 -7 170.64 14.07
2 4 -6 97 10.44
-2 -4 6 103.98 9.7
-2 -4 6 101.24 7.89
-2 -4 6 80.52 9.06
-2 4 6 108.12 8.66
2 -4 -6 96.89 9.72
2 4 -6 119.56 7.44
2 -4 -6 102.55 10.36
-2 4 6 98.19 9.7
2 -4 -6 89.97 9.68
2 4 -6 113.8 10.89
-2 -4 5 40.04 6.15
-2 -4 5 38.52 4.26
2 -4 -5 29.94 5.79
-2 -4 5 30.12 6.42
2 -4 -5 40.3 6.48
-2 -4 5 38.03 5.13
-2 4 5 36.95 4.78
2 4 -5 32.06 6.57
-2 4 5 37.95 3.95
2 -4 -5 37 6.53
-2 4 5 32.72 6.2
2 4 -5 36.59 6.68
2 4 -5 35.66 3.61
2 -4 -4 102.88 9.46
-2 -4 4 107.35 6.2
-2 -4 4 99.43 8.37
2 -4 -4 100.15 9.7
-2 -4 4 103.62 9.14
-2 -4 4 83.34 8.83
-2 4 4 102.89 7.12
2 -4 -4 110.08 7.16
2 -4 -4 95.93 9.56
2 4 -4 103.11 5.13
-2 4 4 115.19 9.89
-2 4 4 109.5 5.84
2 4 -4 102.98 9.93
2 4 -4 88.51 9.08
2 -4 -3 3.55 3.11
-2 -4 3 13.06 1.86
2 4 -3 9.81 3.92
-2 -4 3 3.65 3.62
2 4 -3 5.06 0.92
-2 4 3 7.04 2.07
2 -4 -3 4.89 3.6
-2 -4 3 10.38 3.92
2 -4 -3 6.05 4.74
2 -4 -3 13.42 2.38
2 4 -3 11.39 4.73
-2 4 3 6.78 3.93
-2 4 3 9.96 1.76
2 4 -3 6.23 4.13
2 -4 -2 34.33 5.73
2 4 -2 45.18 6.7
-2 -4 2 43.59 6.51
2 -4 -2 40.78 3.16
2 -4 -2 36.97 6.53
-2 -4 2 41.43 6.09
-2 4 2 39.5 2.71
2 4 -2 35.75 6.05
-2 4 2 46.18 6.53
2 4 -2 38.16 6.41
-2 -4 1 102.89 9.25
2 4 -1 109.04 9.4
-2 -4 1 105.81 9.23
-2 4 1 100.26 4.26
2 -4 -1 103.3 9.64
-2 4 1 99.73 9.39
2 4 -1 97.87 9.2
2 -4 -1 94.55 8.99
-2 -4 0 675.24 25.82
2 4 0 734.38 27.04
2 -4 0 693.62 22.78
-2 -4 0 644.74 25.09
2 4 0 658.77 25.22
2 -4 0 679.43 26.18
-2 4 0 684.61 26.31
-2 4 0 707.88 17.09
-2 4 0 682.81 22.7
-2 4 -1 390.79 18.43
-2 -4 -1 368.91 18.47
2 4 1 380.48 19.12
-2 -4 -1 369.34 18.26
2 -4 1 389.94 18.89
-2 4 -1 384.69 19.11
2 4 1 387.05 18.16
2 -4 1 399.51 16.2
2 -4 1 360.13 16.93
-2 4 -1 402.55 12.23
2 4 1 424.68 14.41
-2 4 -1 377.5 15.87
2 4 2 806.95 18.32
-2 4 -2 797.15 28.77
-2 -4 -2 787.67 29.49
2 4 2 830.51 30.64
-2 -4 -2 877.65 20.66
-2 4 -2 839.89 22.67
2 -4 2 816.62 29.48
2 4 2 820.31 29.08
2 -4 2 838.37 26.27
2 -4 2 891.12 23.08
-2 4 -2 809.85 26.01
-2 4 -2 816.49 29.98
2 4 2 871.74 22.19
2 -4 2 812.26 28.3
2 4 3 255.69 8.8
2 4 3 243.84 8.16
-2 4 -3 212.53 13.83
-2 -4 -3 234.84 15.11
2 4 3 238.91 15.4
2 -4 3 228.2 13.77
-2 4 -3 256.04 11.14
2 -4 3 246.26 12.74
-2 -4 -3 255.76 10.1
2 4 3 224.01 14.07
2 -4 3 244.24 14.57
2 -4 3 262.79 11.25
2 4 3 244.18 8.15
-2 4 -3 239.33 12.61
2 4 4 107.84 6.23
-2 4 -4 97.01 9.65
-2 -4 -4 96.97 9.77
2 4 4 112.22 11.03
2 -4 4 104.6 8.68
-2 -4 -4 104.78 7.01
2 4 4 94.49 9.42
2 -4 4 99.96 9.3
-2 4 -4 95.34 4.33
2 -4 4 106.74 9.83
-2 4 -4 104.42 7.68
-2 4 -4 99.03 8.52
-2 -4 -5 20.77 3.94
-2 4 -5 27.53 5.85
2 4 5 17.11 5.95
2 -4 5 22.43 4.86
-2 -4 -5 15.22 5.15
2 -4 5 28.94 5.68
2 4 5 16.74 5.08
2 -4 5 23.24 5.81
-2 4 -5 22.02 2.64
-2 4 -5 19.54 4.18
-2 4 -6 10.25 4.95
2 4 6 20.85 6.45
2 -4 6 18.79 4.75
-2 -4 -6 17.3 5.71
2 -4 6 13.84 4.57
2 -4 6 11.6 4.9
2 4 6 16.08 5.21
-2 4 -6 10.9 4.11
-2 -4 -6 13.07 4.06
-2 4 -7 14.81 5.87
2 4 7 5.9 5.14
2 -4 7 8.96 3.91
-2 -4 -7 12.6 5.23
2 -4 7 8.17 2.57
2 -4 7 8.26 3.55
2 -4 7 15.1 5.78
-2 -4 -7 12.91 4.55
2 4 7 13.95 4.82
-2 4 -7 9.18 4.3
-2 4 -8 198.34 15.58
-2 -4 -8 165.21 13.8
-2 4 -8 184.42 13.83
2 4 8 182.74 14.86
2 -4 8 225.03 12.14
2 -4 8 200.04 14.37
2 4 8 188.2 15.5
2 -4 8 179.96 12.43
-2 -4 -8 197.12 13.47
2 -4 8 183.13 14.9
-2 4 -9 36.72 7.62
-2 -4 -9 30.02 6.39
2 4 9 45.49 8.48
2 -4 9 28.32 6.47
-2 -4 -9 46 8.02
2 -4 9 41.54 5.95
2 -4 9 39.6 6
2 -4 9 37.19 8.05
2 4 9 35.47 8.38
-2 4 -9 44.3 8.05
-2 4 -10 5.83 5.24
-2 -4 -10 12.23 5.33
2 -4 10 2.16 4.93
-2 -4 -10 7.3 4.7
2 4 10 5.98 5.92
2 -4 10 1.67 2.63
-2 4 -10 6.92 5.39
2 4 10 7.81 5.3
2 -4 10 5.07 5.45
-2 -4 -11 108.13 12.03
2 4 11 96.62 12.54
2 4 11 126.87 13.04
-2 4 -11 109.08 13.28
2 -4 11 106.74 10.26
2 -4 11 88.32 10.92
-2 -4 -11 103.47 11.7
2 -4 11 108.75 13.02
-2 4 -11 104.47 12.19
-2 4 -12 18.78 7.33
-2 -4 -12 -0.54 5.3
2 4 12 19.75 7.29
2 -4 12 -6.84 6.53
-2 -4 -12 5.82 4.51
2 -4 12 11.12 4.71
2 -4 12 5.89 5.05
2 4 12 8 6.15
-2 4 -12 4.14 4.7
-2 -4 -13 -1.84 5.16
-2 4 -13 15.58 7.94
2 -4 13 11.47 5.79
2 -4 13 4.18 5.88
2 4 13 2.45 4.76
-2 4 -13 -6.16 6.71
-2 4 -14 64.07 12.44
-2 4 -14 72.95 12.4
2 -4 14 74.19 11.77
2 -4 14 56.89 11.16
2 4 14 77.31 12.49
-2 -4 -14 47.14 9.86
2 -4 15 3.14 6.21
-2 -4 -15 16.56 7.79
-2 5 15 11.26 6.62
-2 -5 15 29.89 9.05
-2 5 14 -4.77 5.75
-2 5 14 0.39 4.49
2 -5 -14 9.96 6.77
-2 -5 14 5.48 5.56
-2 5 13 -0.19 4.72
-2 -5 13 3.16 5.21
-2 -5 13 5.2 6.15
-2 5 13 1.35 4.2
2 -5 -13 1.29 4.84
2 5 -13 4.26 6.76
-2 5 12 14.37 6.19
-2 -5 12 27.99 8.67
-2 5 12 21.92 6.93
2 -5 -12 18.23 7.38
2 5 -12 19.43 7.45
-2 5 12 15.97 5.95
-2 -5 12 16.04 6.32
-2 5 11 92.87 11.32
2 5 -11 84.7 12.34
-2 -5 11 92.65 11.93
2 -5 -11 87.72 11.99
-2 5 11 109.67 11.95
-2 -5 11 91.3 11.6
-2 -5 10 19.58 6.79
2 -5 -10 16.86 6.32
-2 5 10 23.44 5.97
2 5 -10 25.83 7.6
-2 -5 10 25.55 7.17
-2 5 10 26.36 6.52
-2 -5 9 41.79 8.85
2 -5 -9 32.43 6.74
-2 -5 9 41.43 7.67
-2 5 9 38.4 7.55
-2 5 9 33.25 6.7
2 5 -9 42.54 9.01
2 -5 -8 112.77 12.09
-2 5 8 111.14 10.32
-2 -5 8 95.51 11.23
-2 5 8 103.12 10.84
-2 -5 8 94.05 10.76
2 5 -8 106.46 12.49
2 5 -8 83.13 8.62
-2 -5 8 118.67 8.79
2 5 -7 18.3 4.54
2 -5 -7 21.84 6.45
-2 -5 7 19.21 5.87
-2 -5 7 27.9 4.78
-2 5 7 13.34 3.86
2 5 -7 31.21 7.79
2 -5 -7 23.34 7.01
-2 -5 7 13.92 5.36
-2 5 7 18.97 5.78
2 5 -7 34.94 8.7
-2 -5 6 3.11 4.13
2 5 -6 9.15 3.58
2 -5 -6 0.18 4
2 -5 -6 4.19 5.49
2 5 -6 9.19 2.92
-2 -5 6 -0.03 4.81
-2 -5 6 8.17 3.17
2 -5 -6 8.62 4.93
-2 5 6 12.8 5.44
-2 5 6 4.59 2.9
2 5 -6 5.51 5.26
2 5 -6 12.43 5.96
2 -5 -5 38.62 6.83
-2 5 5 47.79 5.37
-2 -5 5 56.85 8.43
-2 -5 5 45.61 6.42
2 -5 -5 40.17 7.16
-2 -5 5 32.3 6.35
2 5 -5 45.13 4.02
2 -5 -5 42.76 7.62
2 5 -5 36.85 7.44
-2 5 5 40.44 6.92
2 5 -5 43.87 8.22
2 5 -5 48.23 5.05
2 -5 -4 15.98 5.26
2 5 -4 28.72 3.47
2 5 -4 32.06 6.07
2 -5 -4 28.95 6.6
-2 -5 4 23.56 6.23
-2 -5 4 27.57 5.34
2 -5 -4 23.94 6.3
-2 5 4 24.07 3.69
2 5 -4 27.43 2.51
2 5 -4 24.65 6.21
-2 5 4 21.02 5.67
2 5 -4 14.86 5.29
-2 -5 3 152.63 11.48
2 5 -3 163.38 12.31
-2 5 3 138.48 11.74
-2 -5 3 136.43 12.13
-2 5 3 164.35 7.88
2 -5 -3 148.18 12.93
2 -5 -3 156.3 7.65
2 -5 -3 156.61 12.35
2 5 -3 132.3 12
2 5 -3 155.85 12.82
2 -5 -3 141.82 11.79
-2 -5 2 136.88 11.24
2 5 -2 146.01 11.75
2 5 -2 115.32 11.23
-2 -5 2 128.36 11.51
2 -5 -2 146.48 12.71
-2 5 2 117.01 10.9
2 5 -2 129.29 11.68
-2 5 2 137.92 6.44
2 -5 -2 139.11 11.29
2 -5 -2 140.09 11.56
-2 -5 1 377.97 19.32
2 5 -1 378.46 19.82
-2 5 1 392.69 12.23
-2 5 1 370.38 19.81
-2 -5 1 349.21 19.14
2 -5 -1 370.71 20.1
2 -5 -1 387.02 18.71
2 5 -1 360.71 19.34
2 -5 -1 380.14 19.33
-2 5 1 380.94 17.8
2 5 -1 367.59 19.5
-2 -5 0 180.74 13.43
-2 5 0 170.7 12.73
2 5 0 188.86 14
2 -5 0 183.54 11.94
-2 -5 0 149.31 12.76
2 -5 0 175.72 13.72
-2 5 0 175.32 13.58
-2 5 0 190.61 8.05
2 5 0 190.75 13.82
-2 5 0 161.87 11.33
-2 -5 -1 167.62 13.18
-2 5 -1 173.46 12.96
2 5 1 196.31 14.46
-2 -5 -1 177.36 14.02
2 -5 1 181.65 11.94
2 -5 1 168.76 13.41
2 5 1 184.39 12.93
2 -5 1 162.91 12.2
-2 5 -1 186.21 14.2
-2 5 -1 188.85 8.61
-2 5 -1 181.29 11.96
-2 -5 -2 209.27 15.02
-2 5 -2 233.92 14.95
2 5 2 239.29 16.29
2 -5 2 222.6 13.47
2 -5 2 227.53 15.51
2 5 2 216.36 14.28
2 -5 2 219.71 14.37
-2 5 -2 214.49 15.39
-2 5 -2 235.26 13.64
-2 5 -2 244.34 10.79
-2 -5 -2 246.75 8.64
-2 -5 -3 136.73 12.58
-2 5 -3 148.57 12.05
2 5 3 175.01 14.34
-2 -5 -3 173.3 8.13
2 -5 3 166.67 11.64
-2 5 -3 161.55 9.38
2 -5 3 157.21 12.48
2 5 3 150.33 12.21
2 -5 3 146.66 12.05
-2 5 -3 141.73 12.74
2 5 3 170.37 8
-2 5 -3 144.53 11.13
-2 -5 -4 216.18 15.84
-2 5 -4 229.89 15.46
2 5 4 223.25 16.5
2 -5 4 204.96 13.33
-2 -5 -4 221.89 10.57
2 5 4 219.17 15.16
2 -5 4 217.07 14.89
2 -5 4 201.72 14.65
-2 5 -4 228.29 12.11
-2 5 -4 209.96 13.51
-2 -5 -5 146.5 13.24
-2 5 -5 144.64 12.62
2 5 5 127.19 12.97
2 -5 5 133.83 11.06
-2 -5 -5 151.69 9.52
2 5 5 132.35 12.24
2 -5 5 135.27 11.66
2 -5 5 150.97 12.77
-2 5 -5 144.76 10.38
-2 5 -5 133.35 11.18
-2 -5 -6 -1.61 3
-2 5 -6 0.85 4.09
2 5 6 -2.39 5.55
2 -5 6 2.33 4.1
-2 -5 -6 -0.34 3.88
2 -5 6 2.86 4.23
2 -5 6 4.48 4.5
2 5 6 0.83 4.21
-2 5 -6 -1.44 3.43
-2 5 -7 57.16 8.81
2 5 7 48.45 8.87
-2 -5 -7 70.26 7.67
2 -5 7 49.41 7.79
-2 -5 -7 53.68 8.77
2 -5 7 51.8 7.7
2 -5 7 45.46 8.39
2 5 7 39.8 7.38
-2 5 -7 69.28 8.51
-2 5 -8 23.86 6.86
2 5 8 27.68 7.77
-2 -5 -8 18.75 5.16
2 -5 8 28.05 6.4
-2 -5 -8 20 6.5
2 -5 8 17.87 4.83
2 -5 8 13.01 5.91
2 5 8 26.36 6.71
-2 5 -8 17.67 4.98
-2 5 -9 50.4 9.37
2 5 9 50.15 9.38
2 -5 9 38.92 7.24
-2 -5 -9 52.31 9.31
-2 -5 -9 42.71 7.34
2 -5 9 44.04 6.77
2 -5 9 35.01 8.14
-2 5 -9 45.63 8.15
2 5 9 45.33 8.56
2 5 10 100.58 12.53
2 -5 10 92.18 11.21
2 -5 10 69.84 10.92
-2 -5 -10 65.41 9.96
-2 5 -10 89.36 12.08
-2 -5 -10 75.65 9.74
2 5 10 78.07 11.38
-2 5 -10 81.86 10.71
-2 5 -11 34.36 8.4
2 5 11 26.32 7.67
2 -5 11 27.99 7.15
-2 -5 -11 40.42 8.79
-2 -5 -11 19.69 5.74
2 5 11 31.6 7.99
2 -5 11 15.65 6.76
-2 5 -11 28.15 7.9
-2 5 -12 39.24 9.93
2 5 12 50.4 10.28
2 -5 12 43.83 9.53
-2 -5 -12 35.1 8.05
-2 -5 -12 56.15 9.51
2 -5 12 31.59 9.12
2 5 12 22.81 7.47
-2 5 -12 51.99 10.11
-2 5 -13 89.63 13.89
2 5 13 79.34 12.24
2 -5 13 110.32 13.7
-2 -5 -13 85.76 11.92
-2 -5 -13 94.73 12.78
2 -5 13 102.01 14.21
2 5 13 81.38 12.81
-2 5 -13 85.33 13.14
2 -5 14 44.6 9.9
-2 -5 -14 40.69 9.72
-2 5 -14 45.15 10.68
-2 6 14 9.23 5.88
-2 6 13 5.89 5.77
2 -6 -13 9.76 6.98
-2 -6 13 2.12 4.96
-2 6 12 20.89 7.15
-2 -6 12 26.79 8.32
2 -6 -12 19.23 7.46
-2 6 12 16.99 5.87
-2 -6 12 20.48 7.25
2 6 -12 44.29 10.82
-2 6 11 66.12 11.07
-2 -6 11 58.38 11.17
2 -6 -11 69.02 11.46
-2 6 11 59.33 9.53
-2 -6 11 53.1 9.63
2 6 -11 68.15 11.32
-2 6 10 198.56 17.71
2 -6 -10 214.24 18.21
-2 -6 10 165.76 16.57
-2 6 10 243.01 17.24
2 6 -10 226.95 19.27
-2 -6 10 180.66 16.51
-2 6 10 206.03 16.39
2 -6 -9 180.37 16.26
-2 -6 9 179.59 16.63
2 6 -9 164.47 16.22
-2 -6 9 172.66 15.66
-2 6 9 155.84 13.9
2 -6 -8 123.23 13.21
-2 -6 8 121.84 13.66
2 6 -8 129.96 13.99
2 6 -8 123.19 14.56
-2 -6 8 116.22 12.64
-2 6 8 104.98 11.52
2 -6 -7 19.01 6.24
-2 -6 7 25.18 6.89
-2 -6 7 22.7 5.06
-2 -6 7 21.96 6.32
-2 6 7 35.64 7.36
2 6 -7 29.99 7.5
2 6 -7 46.39 9.98
2 -6 -6 124.99 12.57
2 6 -6 113.48 12.52
2 6 -6 108.56 12.57
-2 -6 6 109.92 12.47
-2 -6 6 111.64 12.06
-2 6 6 130.41 12.46
2 -6 -6 127.61 12.81
-2 -6 6 136.94 11.17
2 -6 -5 9.06 5
2 6 -5 15.94 5.79
-2 -6 5 8.05 5.11
-2 -6 5 8.66 3.9
2 -6 -5 7.07 4.86
2 6 -5 2.51 5.03
-2 6 5 12.5 5.4
2 6 -5 1.16 5.22
-2 -6 4 83.89 9.39
2 6 -4 96.63 10.81
-2 -6 4 88.35 10.8
2 -6 -4 90.64 11.15
2 -6 -4 76.77 9.68
2 6 -4 84.76 10.48
-2 6 4 85.07 10.05
2 -6 -4 91.07 10.38
2 6 -4 72.6 9.82
2 6 -3 56.61 8.42
-2 -6 3 51.77 8.92
-2 -6 3 65.56 8.76
2 -6 -3 37.47 7.68
2 -6 -3 37.53 7.28
2 6 -3 53.56 8.55
-2 6 3 48.44 7.92
2 -6 -3 61.31 8.87
2 6 -3 55.57 9.11
2 6 -2 8.86 5.33
2 -6 -2 4.14 4.55
2 6 -2 13.03 5.28
-2 -6 2 4.28 4.46
-2 -6 2 12.05 4.9
2 -6 -2 2.34 4.98
2 -6 -2 5.92 4.41
-2 6 2 22.15 6.73
2 6 -2 2.7 4.76
-2 6 1 73.81 9.58
2 6 -1 74.51 9.47
-2 -6 1 63.64 9.33
-2 -6 1 77.13 9.77
2 -6 -1 59.66 9.33
2 -6 -1 72.25 8.59
2 6 -1 69.52 9.49
-2 6 1 77.3 8.77
2 6 -1 73.01 9.65
-2 -6 0 396.88 22.28
-2 6 0 462.21 22.27
2 6 0 414.35 22.92
2 -6 0 471.63 21.8
-2 -6 0 400 22.48
2 -6 0 363.27 21.75
2 6 0 449.15 21.62
-2 6 0 417.07 22.81
2 -6 0 448.05 20.74
2 6 0 438.4 23.25
-2 6 0 417.6 20.79
-2 -6 -1 249.58 17.45
-2 6 -1 259.25 16.68
2 6 1 240.55 17.59
-2 -6 -1 256.19 17.83
2 -6 1 263.69 15.89
2 -6 1 265.23 18.15
2 6 1 262.91 16.42
-2 6 -1 257.26 17.93
2 -6 1 272.87 15.53
2 6 1 293.54 18.81
-2 6 -1 265.59 16.08
-2 -6 -2 852.42 34.99
-2 6 -2 855.24 32.89
2 6 2 860.62 35.34
2 -6 2 876.43 31.98
2 -6 2 847.22 34.37
2 6 2 858.07 32.56
-2 6 -2 832.96 34.77
2 -6 2 847.5 33.43
-2 6 -2 841.4 31.54
-2 6 -3 40.34 8.07
-2 6 -3 25.63 6.05
2 6 3 25.35 7.35
2 -6 3 36.88 6.66
-2 -6 -3 19.28 6.41
2 -6 3 39.39 7.93
2 6 3 28.06 6.52
2 -6 3 34.7 7.34
-2 6 -3 32.97 4.91
-2 6 -3 28.48 6.51
2 -6 4 32.66 6.9
-2 6 -4 27.54 6.75
2 -6 4 34.82 6.84
2 6 4 39.21 7.11
-2 -6 -4 26 6.69
2 -6 4 42.58 7.72
-2 6 -4 41.42 5.95
2 6 4 44.93 8.67
-2 6 -4 36.43 7.32
-2 -6 -5 125.71 13.39
-2 6 -5 115.72 11.82
2 6 5 130.19 13.72
2 -6 5 115.81 11.28
2 6 5 111.26 11.7
2 -6 5 117.96 12.16
2 -6 5 123.4 12.8
-2 6 -5 132.38 10.34
-2 6 -5 108.96 11.2
-2 6 -6 77.5 10.26
2 6 6 85.34 11.78
2 -6 6 92.85 10.45
2 6 6 80.71 10.54
-2 -6 -6 84.87 11.33
2 -6 6 91.94 10.52
2 -6 6 81.47 10.74
-2 6 -6 96.3 9.59
-2 6 -6 94.91 11.17
-2 6 -7 27.89 7.01
2 6 7 34.86 9.38
2 -6 7 21.43 6.28
-2 -6 -7 20.06 7.27
2 -6 7 32.06 6.96
2 -6 7 25.3 7.53
2 6 7 25.68 7.02
-2 6 -7 27.56 6.19
2 6 8 212.49 18.42
2 -6 8 191.72 15.89
2 6 8 209.97 17.41
2 -6 8 203.15 15.21
2 -6 8 190.54 17.33
-2 6 -8 196.84 14.97
-2 6 -8 169.53 15.81
-2 -6 -8 202.48 17.74
-2 6 -9 50.32 9.14
2 6 9 57.83 9.86
2 6 9 44.71 10.21
2 -6 9 62.49 9.94
-2 -6 -9 50.01 9.5
2 -6 9 39.49 8.86
-2 6 -9 53.33 8.87
-2 6 -10 21.22 7.78
2 6 10 29.41 7.76
2 6 10 32.21 9.32
2 -6 10 23.76 7.39
2 -6 10 14.44 6.33
-2 -6 -10 14.69 6.44
-2 6 -10 13.9 5.89
-2 6 -11 17.28 7.53
2 6 11 21.12 7.76
2 6 11 32.47 9.46
2 -6 11 27.57 7.64
-2 -6 -11 25.86 8.13
2 -6 11 10.95 5.37
-2 6 -11 8.67 5.91
-2 6 -12 35.91 9.31
2 6 12 52.32 10.59
2 6 12 51.23 11.1
-2 -6 -12 42.3 9.31
2 -6 12 55.1 10.19
-2 6 -12 55.1 10.31
2 6 13 23.37 8.79
-2 -6 -13 9.89 6.76
2 -6 13 12.09 7.15
-2 6 -13 22.64 8.55
-2 7 12 43.05 9.67
-2 7 11 35.63 9.06
2 -7 -11 25.41 8.62
-2 -7 11 21.46 7.4
2 7 -11 18.86 8.6
-2 7 10 68.32 11.86
2 -7 -10 58.72 10.62
-2 -7 10 48.69 10.74
-2 -7 10 43.48 9.65
2 7 -10 54.95 10.84
-2 7 9 7.49 5.76
2 -7 -9 9.56 5.03
-2 -7 9 -3.67 6.28
-2 -7 9 12.95 6.61
2 7 -9 3.43 6.63
-2 -7 8 28.67 7.53
2 -7 -8 49.58 9.43
-2 -7 8 38.34 9.06
2 7 -8 29.43 8.84
-2 7 8 38.1 7.75
2 7 -8 62.16 12.09
2 -7 -7 30.02 7.37
-2 -7 7 16.53 7.06
2 7 -7 10.35 6.15
-2 7 7 32.22 7.37
2 7 -7 19.55 8.64
2 -7 -6 9.36 5.37
2 7 -6 22.7 6.49
-2 -7 6 14.49 6.05
-2 -7 6 20.04 5.69
-2 7 6 12.6 6.2
2 7 -6 4.12 5.48
2 7 -6 19.72 7.11
2 7 -5 48.57 8.5
-2 -7 5 25.73 7.57
2 7 -5 36.01 8.1
-2 -7 5 43.48 7.54
-2 7 5 38.32 7.62
2 -7 -5 41.4 8.41
2 7 -5 29.41 7.6
2 7 -4 20.6 6.48
-2 -7 4 20.6 7.3
-2 -7 4 18.48 6.12
2 7 -4 14.22 6.39
2 -7 -4 15.93 5.88
2 -7 -4 18.39 6.22
-2 7 4 8.64 4.79
2 7 -4 2.44 6.51
2 7 -3 6.36 5.59
-2 -7 3 6.93 5.84
-2 -7 3 3.96 4.07
-2 7 3 12.21 5.27
2 -7 -3 13.11 6.03
2 7 -3 -1.65 5.16
2 7 -3 5.28 5.16
2 -7 -3 6.11 4.44
2 7 -2 48.22 9.11
2 7 -2 45.77 8.8
-2 -7 2 32.41 8.09
2 -7 -2 36.95 7.29
-2 -7 2 31.02 7.18
-2 7 2 41.9 8.06
-2 7 2 45.57 8.18
2 7 -2 31.13 7.64
-2 -7 1 111.06 12.41
-2 7 1 99.95 10.93
2 7 -1 116.11 12.79
-2 -7 1 96.75 11.93
2 7 -1 102.74 12.45
2 7 -1 130.87 11.86
2 -7 -1 101.36 12.46
-2 7 1 88.26 10.55
-2 7 1 119.06 12.91
2 -7 -1 113.01 11.24
2 7 -1 107.94 12.18
-2 7 0 73.44 9.29
2 7 0 55.2 9.27
2 -7 0 74.27 9.89
-2 -7 0 74.33 11.2
-2 -7 0 74.4 10.44
2 -7 0 62.26 10.2
2 -7 0 75.61 9.04
-2 7 0 71.95 10.22
2 7 0 63.42 9.78
2 7 0 68.83 8.77
2 7 0 63.64 10.09
-2 7 0 62.13 9.04
-2 7 -1 164.76 13.96
2 7 1 171.39 15.95
2 -7 1 163.35 12.42
-2 -7 -1 146.94 14.86
2 -7 1 153.63 13.61
2 -7 1 136.88 14.33
2 7 1 168.99 13.68
-2 -7 -1 166.37 15.4
-2 7 -1 155.35 15.17
2 7 1 142.41 14.68
-2 7 -1 158.8 13.7
-2 7 -2 60.81 8.64
2 7 2 64.34 10.25
-2 7 -2 60.86 9.87
2 -7 2 61.71 9.07
-2 -7 -2 59.69 9.94
2 -7 2 77.71 10.86
2 7 2 68.47 9.18
2 -7 2 67.04 8.07
-2 7 -2 65.38 9.12
-2 7 -3 13.98 5.39
2 7 3 13.13 7.38
2 -7 3 17.12 5.54
-2 -7 -3 7.17 4.97
2 -7 3 19.65 6.76
2 7 3 14.86 5.15
2 -7 3 19.04 5.04
-2 7 -3 19.24 7.05
-2 7 -3 7.99 4.61
-2 7 -4 86.8 10.83
2 -7 4 85.66 11.39
2 7 4 73.53 11.41
2 -7 4 90.32 10.95
-2 -7 -4 78.81 11.39
2 7 4 88.38 10.67
2 -7 4 87.67 11.37
-2 7 -4 72.13 11.08
-2 7 -4 77.57 10.32
-2 7 -5 78.77 10.57
2 7 5 80.72 12.23
2 -7 5 82.28 10.49
-2 -7 -5 65.06 10.61
2 -7 5 92.69 11.33
2 -7 5 78.49 11.25
2 7 5 79.3 10.37
-2 7 -5 85.44 11.18
-2 7 -6 0.17 4.55
2 7 6 -6 7.05
2 -7 6 6.71 5.46
-2 -7 -6 3.56 4.94
2 -7 6 6 4.79
2 7 6 2 3.87
2 -7 6 -0.23 4.09
-2 7 -6 0.97 4.66
-2 7 -7 30.13 7.79
2 7 7 22.54 8.08
2 -7 7 30.17 7.62
-2 -7 -7 37.13 8.92
2 -7 7 40.88 7.9
2 7 7 32.83 8.12
2 -7 7 31.14 7.92
-2 7 -8 17.81 6.85
2 7 8 35.65 9.22
2 -7 8 29.49 7.59
-2 -7 -8 22.3 7.74
2 7 8 43.82 9.39
2 -7 8 43.91 9.15
-2 7 -9 11.97 7.2
2 7 9 7.1 6.66
2 -7 9 17.61 6.4
-2 -7 -9 25.56 7.98
2 -7 9 18.9 7.02
2 7 9 20.89 6.73
-2 7 -10 -6.82 7.43
2 7 10 4.5 6.82
2 -7 10 0.19 5.07
-2 -7 -10 -0.3 5.54
2 7 10 1.94 5.19
-2 7 -11 13.74 6.28
2 7 11 9.34 7.06
2 -7 11 12.98 6.84
2 7 11 21.66 7.92
2 -8 -10 21.56 7.87
2 -8 -9 320.83 23.82
2 -8 -8 60.33 10.46
-2 8 8 49.58 10.77
2 8 -8 64.79 11.92
-2 8 7 0.42 6.12
2 -8 -7 4.7 5.02
-2 -8 7 -2.93 6.23
2 8 -7 2.2 5.89
2 8 -7 -2.37 6.57
-2 8 6 115.44 14.6
-2 -8 6 94.61 13.67
2 8 -6 84.87 12.6
-2 8 6 77.06 10.96
2 -8 -6 109.45 12.92
2 8 -6 87.75 13.28
2 -8 -5 29.81 7.89
-2 8 5 35.03 9.06
2 8 -5 52.53 9.45
-2 -8 5 30.12 7.93
-2 -8 5 24.33 6.56
2 8 -5 16.42 6.99
-2 8 5 27.29 7.48
2 8 -5 32.01 9.13
2 8 -4 33.39 8.33
-2 -8 4 36.13 9.06
-2 -8 4 37.33 8.07
2 -8 -4 31.33 8.06
2 8 -4 33.6 8.39
-2 8 4 37.53 8.04
2 8 -4 25.92 8.33
2 8 -3 20.76 8.09
-2 8 3 -1.62 4.96
2 8 -3 18.36 6.72
-2 -8 3 16.05 7.12
-2 -8 3 6.66 5.06
-2 8 3 4.69 4.9
-2 8 3 -2.85 5.03
2 8 -3 -0.51 7.15
-2 8 2 74.55 10.02
2 8 -2 63.95 10.29
-2 -8 2 59.33 10.44
-2 -8 2 78.12 11.29
-2 8 2 89.45 11.9
2 8 -2 64.83 10.54
-2 8 2 65.4 10.13
2 8 -2 57.22 10.7
-2 8 1 -1.4 4.78
2 8 -1 4.01 4.95
-2 -8 1 6.01 6.13
-2 -8 1 3.64 4.97
2 -8 -1 6.5 4.91
2 8 -1 1.96 5.63
-2 8 1 13.24 6.87
-2 8 1 -3.78 5.55
2 8 -1 10.65 7.14
-2 8 0 367.63 22.14
2 8 0 392.84 25.56
-2 -8 0 384.04 25.12
-2 -8 0 390.23 25.58
-2 8 0 393.38 24.9
2 -8 0 392.35 21.31
2 8 0 362.49 24.44
-2 8 0 380.63 23.12
2 8 0 315.29 22.11
-2 8 -1 58.8 10.57
2 8 1 66.6 10.37
-2 8 -1 75.66 10.35
2 8 1 87.58 12.35
2 -8 1 63.49 10.13
-2 -8 -1 74.58 11.69
2 8 1 63 11.1
-2 8 -1 70.17 10.23
-2 8 -2 158.4 14.53
2 8 2 168.89 17.21
2 -8 2 164.6 15.24
2 8 2 159.65 14.17
-2 8 -2 155.65 16.34
2 8 2 163.18 16.81
-2 8 -2 160.11 15.16
-2 -8 -2 134.64 15.69
-2 8 -3 87.18 11.3
2 8 3 78.74 12.61
2 -8 3 81.98 11.25
-2 -8 -3 65.49 11.53
2 8 3 88.3 11.12
-2 8 -3 69.91 11.34
2 8 3 76.54 12.22
-2 8 -3 61.2 10.07
-2 8 -4 32.99 7.22
2 8 4 15.37 5.2
2 8 4 21.17 8.34
2 -8 4 18.29 6.75
-2 -8 -4 13.39 6.41
-2 8 -4 24.15 8.11
-2 8 -4 19.22 6.91
-2 8 -5 27.72 7.15
2 8 5 21.81 7.89
2 -8 5 23.06 6.9
-2 -8 -5 23.3 8.45
2 -8 5 31.56 8.39
2 8 5 22.15 6.53
-2 8 -5 21.23 7.03
-2 8 -5 13.92 6.13
-2 8 -6 13.61 6.41
2 -8 6 13.04 6.96
2 8 6 10.64 7.44
2 -8 6 7.26 5.64
-2 -8 -6 11.67 6.47
2 8 6 5.25 5.36
-2 8 -6 11.01 7.12
-2 8 -6 23.69 8.25
-2 8 -7 22.28 7.29
2 8 7 11.74 6.85
2 -8 7 6.63 5.41
-2 -8 -7 4.96 6.34
2 -8 7 18.08 7.74
2 8 7 10.12 6.09
-2 8 -8 119.56 13.96
2 -8 8 99.35 13.24
2 8 8 119.93 14.35
-2 8 -9 21.76 7.77
2 -8 9 26.78 7.98
2 8 9 33.26 8.58
2 9 -5 17.21 7.55
2 9 -4 15.35 6.93
-2 -9 4 7.91 6.07
-2 9 4 10.95 6.23
2 9 -4 20.1 8.5
-2 9 4 14.06 6.24
2 9 -3 31.77 9.03
-2 -9 3 49.03 10.16
-2 9 3 36.18 8.52
2 9 -3 52.33 10.74
-2 9 3 37.36 8.96
-2 9 2 41.99 9.14
2 9 -2 60.41 10.78
-2 -9 2 52.96 9.98
-2 9 2 55.34 10.8
2 9 -2 57.85 10.64
-2 9 2 36.83 8.51
-2 9 1 54.75 10.36
2 9 -1 41.33 9.08
-2 9 1 46.15 9.78
2 9 -1 47.86 10.17
-2 -9 1 49.3 10.57
-2 9 1 43.36 9.31
-2 9 0 121.29 14.73
2 9 0 151.86 17.25
-2 9 0 129.54 15.27
-2 -9 0 161 17.35
2 9 0 158.85 16.76
-2 9 0 148.32 15.56
-2 9 -1 26 7.85
2 9 1 33.73 8.84
-2 -9 -1 38.79 9.33
-2 9 -1 35.63 9.25
2 9 1 27.53 7.56
-2 9 -1 19.75 7.16
-2 9 -2 11.93 6.58
2 9 2 5.94 7
2 -9 2 4.71 5.67
-2 -9 -2 14.2 6.86
-2 9 -2 7.47 6.2
2 9 2 8.15 6.54
-2 9 -2 6.45 5.31
-2 9 -3 12.68 6.31
2 -9 3 6.17 6.12
-2 9 -3 -0.72 6.51
-2 9 -3 7.6 6.06
2 -9 4 24.63 7.72
-2 9 -4 27.95 8.27
2 -9 5 18.43 7.35
-2 9 -5 17.35 7.86
2 -9 6 9.01 6.54
-2 9 -6 20.62 8.15
3 0 -17 64.7 12.43
3 0 -16 13.84 7.25
3 0 -16 4.01 5.84
3 0 -15 16.17 7.05
-3 0 15 40.95 11.17
3 0 -15 19.72 8.26
3 0 -14 31.4 8.27
-3 0 14 24.54 6.3
3 0 -14 24.95 7.52
3 0 -13 16.98 7.13
3 0 -13 16.55 7.01
-3 0 13 5.48 4.1
3 0 -12 81.18 10.89
-3 0 12 89.68 9.09
3 0 -12 71.11 10.02
3 0 -11 222.19 16.07
3 0 -11 235.02 16.81
-3 0 11 246.84 17.99
-3 0 11 229.41 13.82
3 0 -10 36.88 7.39
-3 0 10 39.64 7.53
3 0 -10 52.33 4.7
3 0 -10 43.18 6.79
-3 0 10 39.25 5.58
3 0 -10 37.84 7.08
3 0 -9 301.77 17.7
3 0 -9 340.85 13.18
3 0 -9 326.47 16.77
3 0 -9 311.5 17.36
-3 0 9 331.35 19.57
-3 0 9 321.04 14.4
3 0 -8 1.6 3.2
-3 0 8 1.55 1.96
3 0 -8 -0.53 2.9
3 0 -8 6.14 3.88
3 0 -8 4.36 3.86
-3 0 8 0.76 4.49
3 0 -7 1.94 3.14
3 0 -7 1.02 2.92
-3 0 7 5.28 2.15
3 0 -7 -2.22 3.94
3 0 -7 2.43 2.52
-3 0 7 5.53 4.52
-3 0 6 67.13 7
3 0 -6 55.8 6.6
3 0 -6 64.67 6.18
-3 0 6 62.41 4.26
3 0 -6 46.06 5.95
-3 0 6 60.27 7.94
3 0 -5 408.52 17.48
-3 0 5 425.11 15.81
-3 0 5 437.43 11.67
3 0 -5 465.89 17.51
-3 0 5 430.17 19.38
3 0 -4 3.35 3.09
-3 0 4 1.81 1.99
-3 0 4 1.07 2.2
3 0 -4 2.83 2.55
-3 0 4 0.73 3.77
3 0 -3 961.62 28.12
-3 0 3 940.04 24.06
-3 0 3 934.12 29.75
3 0 -3 959.7 26.91
-3 0 3 1000.94 24.38
-3 0 2 454.3 12.56
-3 0 2 458.27 17.97
3 0 -2 450.65 15.83
-3 0 2 469.58 12.74
3 0 -2 428.61 16.5
-3 0 1 1209.12 25.86
-3 0 1 1214.72 33.55
3 0 -1 1193.17 32.45
3 0 0 51.77 2.49
-3 0 0 50.77 5.66
3 0 0 54.18 2.53
-3 0 -1 140.14 8.91
3 0 1 144.66 5.08
-3 0 -1 146.55 8.66
-3 0 -2 2.78 2.98
3 0 2 2.05 1.47
3 0 2 0.52 2.83
-3 0 -3 142.92 9.41
3 0 3 146.89 9.71
-3 0 -3 154.68 8.71
-3 0 -4 116.04 7.48
-3 0 -4 92.93 8.06
3 0 4 107.33 8.72
-3 0 -5 54.71 5.5
-3 0 -5 58.84 7.31
3 0 5 53.18 6.71
-3 0 -6 64.17 7.5
-3 0 -6 59.58 7.25
-3 0 -6 45.99 5.18
3 0 6 38.91 6.08
-3 0 -7 217.44 14.28
-3 0 -7 230.65 13.67
3 0 7 251.07 14.99
-3 0 -7 222.78 11.77
-3 0 -8 190.57 14.37
-3 0 -8 197.05 12.48
3 0 8 200.97 14.19
-3 0 -9 9.44 5.17
3 0 9 0.37 3.85
-3 0 -9 -1.38 3.72
-3 0 -10 -7.16 6.15
3 0 10 -0.74 5.2
-3 0 -10 2.38 3.34
-3 0 -11 33.39 8.19
3 0 11 35.45 7.64
-3 0 -12 222.86 18.26
3 0 12 216.04 17.32
-3 0 -13 167.57 16.68
3 0 13 158.89 15.66
-3 0 -14 4.44 6.42
3 0 14 3.99 5.41
-3 0 -15 28.87 9.81
3 0 15 12.86 6.01
3 -1 -16 15.62 7.29
3 1 -16 2.47 6
-3 -1 16 24.79 8.82
3 1 -16 19.44 7.99
3 -1 -16 19.35 8.11
3 -1 -15 7.39 6.33
-3 -1 15 1.97 4.29
3 1 -15 8.85 5.88
3 1 -15 -0.4 5.7
3 -1 -15 -3.36 5.54
3 -1 -14 4.83 5.25
3 1 -14 28.61 7.9
-3 -1 14 23.85 7.73
-3 -1 14 21.88 6.07
3 1 -14 27.55 8.17
3 -1 -14 18.07 7.21
-3 1 13 28.46 7.48
3 -1 -13 13.08 6.41
3 1 -13 28.36 7.16
3 1 -13 15.72 6.93
-3 -1 13 26.71 7.87
-3 -1 13 20.85 5.52
3 -1 -13 17.67 6.32
3 -1 -12 72.26 10.47
-3 1 12 69.82 10.19
3 1 -12 83.34 10.34
-3 -1 12 94.66 11.25
-3 -1 12 76.89 8.72
3 1 -12 83.47 11.34
3 -1 -12 89.27 10.68
-3 1 11 93.4 11.49
3 1 -11 81.33 9.9
-3 -1 11 81.67 10.74
-3 -1 11 81.89 8.43
3 -1 -11 90.63 10.11
3 1 -11 82.77 10.55
3 -1 -11 90.22 10.61
-3 -1 10 85.71 8.09
-3 -1 10 90.89 10.28
3 1 -10 87.34 9.61
3 -1 -10 78 6.72
3 -1 -10 83.23 9.47
3 -1 -10 91.24 9.54
3 1 -10 94.44 10.6
3 -1 -10 74.24 9.79
-3 1 10 90.92 10.93
3 -1 -9 117.9 10.92
3 -1 -9 110.69 11.09
-3 -1 9 118.24 10.91
3 1 -9 123.28 10.53
3 -1 -9 145.24 9.07
3 1 -9 134.11 7.25
-3 -1 9 122.92 9.02
3 1 -9 126.57 9.42
-3 1 9 116.5 11.86
3 -1 -9 127.03 10.74
-3 -1 9 118.3 11.77
3 1 -9 135.95 11.89
3 -1 -8 931.12 33.95
-3 -1 8 940.05 32.49
3 1 -8 976.99 32.45
3 -1 -8 969.82 33.16
3 -1 -8 1033.39 29.77
-3 -1 8 996.87 28.69
3 1 -8 1026.49 27.05
3 1 -8 1021.1 30.32
-3 1 8 936.32 34.61
3 -1 -8 975.25 31.4
3 1 -8 964.2 33.65
-3 -1 8 957.75 35.26
3 -1 -7 222.48 14.19
-3 -1 7 236.75 13.48
3 1 -7 221.4 13
3 -1 -7 238.13 12.16
3 1 -7 242.93 12.36
3 -1 -7 236.58 14.1
3 1 -7 237.27 14.36
3 -1 -7 255.98 12.96
-3 -1 7 222.79 14.91
-3 -1 7 247.38 10.94
-3 1 7 242.82 15.47
3 -1 -6 329.64 16.78
3 1 -6 323.95 14.89
-3 -1 6 320.74 15.17
3 -1 -6 335.19 14.82
-3 1 6 311.71 17.32
3 1 -6 342.68 16.66
-3 -1 6 347.42 12.46
3 -1 -6 357.94 14.65
-3 -1 6 354.02 17.83
3 -1 -5 46.94 6.7
-3 -1 5 41.99 4.95
3 1 -5 44.25 5.22
3 -1 -5 46.45 5.73
3 -1 -5 51.87 5.15
3 1 -5 46.31 6.31
-3 -1 5 45.75 3.65
-3 1 5 57.86 7.76
-3 -1 5 59.12 7.26
3 -1 -4 175.38 11.2
3 1 -4 169.72 9.44
-3 -1 4 191.91 9.76
3 -1 -4 190.33 11.23
3 -1 -4 195.18 8.99
-3 1 4 168.39 11.68
3 1 -4 170.67 10.7
-3 -1 4 196.36 12
-3 1 4 170.92 5.16
3 -1 -3 171.61 10.9
3 1 -3 176.06 9.06
-3 1 3 176.98 11.78
-3 -1 3 171.09 8.77
-3 -1 3 207.85 9.71
3 -1 -3 199.57 11.63
3 1 -3 187.65 6.79
3 1 -3 188.65 10.99
3 -1 -3 181.95 8.22
-3 -1 3 188.35 11.28
-3 -1 3 185.58 9.07
-3 -1 2 414.6 14.11
-3 -1 2 459.65 15.22
3 1 -2 470.51 14.75
-3 1 2 433.14 11.13
3 -1 -2 435.83 18.11
3 -1 -2 448.29 13.53
-3 -1 2 432.52 17.29
3 1 -2 454.6 12.24
-3 1 2 445.35 18.52
3 1 -2 432.9 14.4
-3 1 2 443.64 11.24
3 1 -2 436.46 14.97
3 1 -2 425.39 16.93
3 -1 -2 417.34 17.28
-3 -1 1 2174.33 48.31
-3 -1 1 2020.43 46.39
3 1 -1 2181.74 46.8
-3 1 1 2073.6 52.39
3 -1 -1 2093.3 42.99
-3 -1 1 2096.69 50.34
3 -1 -1 2027.03 51.95
3 1 -1 2133.89 46.62
-3 -1 0 12.38 2.69
-3 -1 0 14.48 3.24
-3 -1 0 24.98 3.7
3 1 0 13.62 2.4
3 -1 0 13.72 2.1
3 1 0 12.91 3.15
-3 1 0 8.91 3.78
3 1 0 13.07 2.54
-3 -1 0 14.2 3.47
-3 -1 -1 19.79 3.49
-3 1 -1 26.42 4.82
3 1 1 18.91 2.69
-3 -1 -1 23.38 3.54
3 1 1 22.03 3.38
-3 1 -1 16.19 4.39
3 -1 1 25.49 3.33
-3 -1 -1 28.66 4.02
3 1 2 12.53 2.49
-3 -1 -2 15.71 3.34
-3 1 -2 18.61 4.63
3 1 2 18.59 2.86
3 -1 2 11.72 1.5
3 -1 2 14.2 3.44
-3 1 -2 14.07 4.04
3 -1 2 11.23 2.93
3 1 2 13.33 4.07
-3 -1 -2 11.11 2.58
3 -1 2 14.82 1.59
-3 -1 -3 146.97 8.84
-3 1 -3 127.81 9.84
3 1 3 163.35 8.41
-3 -1 -3 149.63 10.88
3 -1 3 158.92 6.75
3 -1 3 140.42 8.69
3 1 3 112.8 9.26
-3 -1 -3 139.57 7.11
-3 1 -3 130.92 9.35
3 -1 3 156.41 6.66
-3 -1 -4 79.03 7.03
-3 1 -4 86.53 8.32
-3 -1 -4 75.84 8.09
3 -1 4 71.46 6.63
3 1 4 75.82 8
-3 -1 -4 78.68 5.07
-3 1 -4 70.87 7.08
-3 -1 -5 807.42 26.88
-3 1 -5 810.62 28.99
-3 -1 -5 852.07 29.22
3 -1 5 859.61 27.22
3 1 5 803.24 29.05
-3 1 -5 813.37 27.07
-3 -1 -5 851.89 22.22
-3 -1 -6 23.32 5.15
-3 1 -6 8.73 3.86
-3 -1 -6 17.63 2.79
-3 -1 -6 18.28 4.87
3 1 6 10.18 4.16
-3 1 -6 14.1 4.02
3 -1 6 14.87 4.11
-3 -1 -7 118.63 10.21
-3 1 -7 111.29 10.83
-3 -1 -7 110.54 9.75
3 -1 7 118.26 9.93
3 1 7 115.27 10.75
-3 -1 -7 108.82 6.56
-3 -1 -8 121.3 11.16
-3 1 -8 112.5 11.29
-3 -1 -8 131.41 10.53
-3 1 -8 145.41 10.51
3 -1 8 127.2 10.81
3 1 8 114.34 11.16
-3 -1 -8 122.71 7.38
-3 -1 -9 16.98 4.9
-3 -1 -9 18.54 5.89
-3 1 -9 20.13 6.95
3 1 9 27.49 6.89
3 -1 9 26.14 5.75
-3 -1 -9 18.57 3.21
-3 1 -9 18.96 4.77
-3 -1 -10 96.9 11.37
-3 1 -10 73.39 10.64
-3 -1 -10 85.03 8.97
3 -1 10 94 10.26
3 1 10 79.08 10.56
-3 -1 -11 478.93 25.72
-3 1 -11 423.07 25.01
-3 -1 -11 479.93 21.72
3 -1 11 461.12 24.39
3 1 11 441.2 25.14
-3 -1 -12 13.25 6.5
-3 1 -12 18.7 7.41
3 -1 12 21.25 6.24
3 1 12 18.36 6.02
-3 -1 -13 22.24 7.16
-3 1 -13 29.01 8.34
3 -1 13 22.36 6.14
3 1 13 22.4 7.63
-3 -1 -14 28.58 8.73
-3 1 -14 26.21 8.99
3 -1 14 24.52 6.93
3 1 14 34.03 8.63
-3 -1 -15 22.98 8.93
-3 1 -15 51.95 11.46
3 1 15 38.65 9.31
3 -1 15 33.43 8.77
3 -1 16 80.54 13.53
3 -1 16 26.22 7.76
3 2 -16 16.61 6.82
-3 -2 16 21.83 9
3 2 -16 14.64 7.9
-3 -2 15 40.33 10
3 2 -15 47.28 9.31
-3 -2 15 39.6 8.29
3 2 -15 43.38 10.9
3 -2 -15 33.32 8.99
-3 2 14 64.77 10.77
-3 -2 14 69.32 10.66
3 2 -14 78.1 11.13
-3 -2 14 68.75 9.33
3 2 -14 90.8 13.16
3 -2 -14 80.19 12.28
-3 2 13 24.05 6.74
-3 -2 13 35.44 6.78
-3 -2 13 33 8.08
3 2 -13 30.7 6.86
3 2 -13 35.04 8.58
3 -2 -13 21.61 7.01
3 -2 -13 29.79 7.43
3 -2 -12 112.42 12.93
3 2 -12 97.19 11.02
-3 -2 12 93.55 11.74
-3 -2 12 112.43 10.68
3 2 -12 116.25 13.22
-3 2 12 115.89 12.78
3 -2 -12 89 10.56
3 2 -11 12.61 5.1
-3 -2 11 9.47 5.16
3 -2 -11 10.29 3.49
-3 -2 11 15.13 4.53
3 -2 -11 15.93 5.8
3 2 -11 20.82 7.39
3 -2 -11 11.35 5.29
-3 2 11 18.07 6.67
3 2 -10 13.96 4.55
-3 -2 10 20.24 6.17
3 -2 -10 18.3 4.34
-3 -2 10 22.32 4.87
3 -2 -10 13.45 5.27
3 -2 -10 16.33 6.02
-3 -2 10 26.74 4.36
3 2 -10 19.02 6.58
3 -2 -10 25.52 5.64
-3 2 10 21.74 7.01
3 -2 -9 491.13 24.95
-3 -2 9 607.23 20.87
-3 -2 9 561.05 25.49
3 2 -9 555.21 23.35
3 -2 -9 591.94 22.34
-3 -2 9 586.65 22.44
3 -2 -9 551.24 25.43
3 2 -9 609.87 20.41
-3 2 9 546.48 26.01
3 2 -9 527.94 25.77
3 -2 -9 590.25 23.11
3 -2 -8 254.84 16.67
3 2 -8 268.39 12.25
-3 -2 8 256.62 15.71
3 2 -8 269.37 14.46
3 -2 -8 270.6 14.4
3 2 -8 247.39 16.49
-3 -2 8 280.83 13.85
3 -2 -8 259.66 16.35
-3 2 8 266.96 17
3 -2 -8 286.54 14.21
3 -2 -7 79.87 9.01
3 2 -7 75.6 7.22
-3 -2 7 66.27 7.69
3 -2 -7 84.61 8.09
3 2 -7 84.33 6.47
3 2 -7 94.87 9.96
-3 2 7 73.86 9.21
3 -2 -7 87.32 7.1
3 -2 -7 64.16 8.35
-3 -2 7 78.54 6.68
-3 -2 6 16.77 4.25
3 -2 -6 14.25 5.02
3 -2 -6 18.33 4.51
3 -2 -6 9.18 5.26
3 2 -6 21.55 5.58
3 2 -6 13.4 3.33
3 -2 -6 14.76 3.09
-3 2 6 5.23 4.22
-3 -2 6 13.19 3.11
3 -2 -5 410.88 19.49
3 2 -5 419.32 15.4
3 2 -5 437.43 15.67
-3 -2 5 410.72 17.65
3 -2 -5 413.19 18.29
-3 -2 5 451.65 15.67
-3 2 5 428.04 20.15
-3 2 5 444.32 14.51
3 2 -5 427.38 19.61
3 -2 -5 462.75 14.73
-3 -2 5 431.47 19.7
3 -2 -4 253.67 14.49
-3 -2 4 285.01 11.83
3 2 -4 264.18 10.9
-3 -2 4 225.64 12.35
3 -2 -4 259.82 13.97
3 2 -4 277.02 11.41
-3 2 4 292.85 9.82
-3 -2 4 279.36 11.02
-3 2 4 256.65 14.96
3 2 -4 232.88 13.85
3 -2 -4 289.4 9.77
-3 -2 4 262.96 14.28
3 2 -4 273.11 13.61
3 2 -3 372.12 12.59
3 -2 -3 346.86 17.14
-3 -2 3 350.67 15.03
3 2 -3 383.22 17.47
3 -2 -3 370.72 17.25
-3 -2 3 383.79 12.73
3 2 -3 374.22 13.45
-3 2 3 362.04 17.75
3 -2 -3 391.53 10.68
-3 -2 3 393.88 17.1
3 2 -3 369.33 15.5
-3 2 3 433.96 12.23
-3 2 2 247.47 8.75
3 2 -2 222.04 12.74
-3 2 2 225.4 8
-3 -2 2 211.17 10.75
-3 -2 2 251.57 13.84
-3 -2 2 245.17 8.91
3 -2 -2 223.44 13.1
3 2 -2 246.6 10.15
-3 -2 2 224.58 11.83
3 -2 -2 224.62 6.37
-3 2 2 224.52 13.43
3 2 -2 228.6 8.72
3 2 -2 227.73 11.32
3 -2 -2 224.3 13.11
-3 -2 1 314.76 10.22
-3 -2 1 296.92 12.87
-3 -2 1 323.76 15.98
-3 2 1 304.72 8.59
3 -2 -1 286.62 15.12
-3 2 1 323.4 10.81
3 2 -1 310.54 11.93
-3 2 1 273.56 14.77
3 -2 -1 287.34 7.69
-3 -2 1 296.8 13.01
3 -2 -1 295.8 10.51
-3 2 1 294.35 8.53
3 -2 -1 300.64 15.35
3 2 -1 293.49 12.83
-3 -2 0 44.56 3.61
-3 -2 0 50.7 3.79
-3 -2 0 45.55 4.98
-3 2 0 46 2.52
3 -2 0 54.11 7.34
3 2 0 42.5 4.62
-3 -2 0 50.03 4.86
3 -2 0 53.47 3
-3 -2 0 60.57 7.65
-3 2 0 38.61 6.1
-3 2 0 44.83 2.52
3 2 0 40.2 4.87
3 -2 0 46.2 4.26
-3 -2 -1 113.53 5.94
-3 2 -1 94.43 8.85
3 -2 1 110 4.41
-3 -2 -1 110.18 9.8
3 -2 1 107.05 6.36
3 -2 1 99.48 9.52
3 -2 1 116.72 7.11
-3 2 -1 105.4 9.1
3 2 1 114.28 6.65
-3 -2 -1 121.58 6.77
3 -2 1 120.3 5.67
-3 -2 -1 116.27 6.35
-3 -2 -2 277.91 10.68
-3 2 -2 262.78 14.66
-3 -2 -2 267.17 15.08
3 -2 2 284.86 9.13
3 -2 2 278.3 11.13
3 -2 2 268.26 15.02
3 2 2 278.17 15.27
-3 2 -2 275.71 14.83
3 2 2 284.23 10.15
-3 -2 -2 286.84 10.05
3 -2 2 295.66 10.85
3 -2 2 266.97 12.19
-3 -2 -3 461.08 15.71
-3 2 -3 410.57 19.39
-3 2 -3 434.08 19.4
3 2 3 478.78 16.09
-3 -2 -3 434.6 20.08
3 -2 3 459.98 14.1
3 -2 3 448.64 15.79
3 2 3 439.55 20.15
3 -2 3 422.17 19.52
3 -2 3 442.33 17.61
3 2 3 461.18 12.86
-3 -2 -3 464.49 12.8
3 -2 3 494.99 16.33
3 -2 3 505.09 14.58
-3 2 -4 321.17 17.13
-3 -2 -4 312.09 16.83
3 -2 4 322.45 12.4
3 -2 4 347.69 13.74
3 2 4 313.34 17.07
3 -2 4 312.32 16.23
-3 -2 -4 339.95 13.94
-3 -2 -4 326.36 8.93
-3 2 -4 316.56 16.41
3 -2 4 342.99 15.8
3 -2 4 361.49 12.93
-3 -2 -5 15.13 3.82
-3 2 -5 9.05 4.78
3 -2 5 16.65 3.26
3 -2 5 20.56 5.4
3 -2 5 11.42 4.03
3 -2 5 13.96 3.19
-3 2 -5 9.26 3.76
3 2 5 13.44 4.82
-3 -2 -5 17.26 4.87
-3 -2 -6 6.13 3.66
-3 2 -6 3.71 4.33
3 -2 6 3.05 2.81
3 -2 6 10.07 5
3 -2 6 0.7 3.76
3 -2 6 5.43 2.85
-3 -2 -6 1.75 4.19
-3 2 -6 3.92 3.54
3 2 6 2.8 3.94
-3 -2 -7 70.74 7.9
-3 2 -7 61.71 8.97
3 -2 7 63.46 7.07
3 -2 7 73.59 7.24
3 -2 7 63.83 8.13
3 -2 7 69.07 8.69
-3 -2 -7 67.54 8.29
3 2 7 59.79 8.55
-3 -2 -8 114.01 10.44
-3 2 -8 102.18 11.22
-3 -2 -8 122.39 11.03
3 -2 8 101.41 10.73
3 -2 8 119.96 10.16
3 -2 8 102.21 9.23
3 2 8 103.16 11.4
3 -2 8 121.19 10.66
-3 2 -9 275.42 19.06
-3 -2 -9 279.6 17.23
3 -2 9 307.73 17.07
3 -2 9 304.94 17.18
3 2 9 300.71 19.44
3 -2 9 282.23 16.3
3 -2 9 273.82 18.24
-3 -2 -9 321.46 18.23
-3 -2 -10 2.06 4.23
-3 2 -10 7.65 6.03
3 -2 10 6.38 5.38
3 -2 10 12.15 5.66
-3 -2 -10 4.94 5.11
3 -2 10 -4.13 3.24
3 -2 10 -3.89 4.22
3 2 10 5.41 5.46
-3 2 -11 111.26 13.35
-3 -2 -11 83.57 9.46
-3 -2 -11 88.7 11.28
3 -2 11 118.62 11.89
3 -2 11 103.5 11.09
3 -2 11 93.42 12.14
3 2 11 87.45 11.75
-3 2 -12 179.23 17.24
3 -2 12 191.53 15.68
3 -2 12 178.94 15.2
3 2 12 166 16.42
3 -2 12 169.28 16.16
-3 -2 -12 200.18 16.72
-3 -2 -13 106.34 13.21
-3 2 -13 112.32 14.18
3 -2 13 118.25 13.45
3 -2 13 103.53 12.23
3 2 13 119.96 14.4
3 -2 13 104.67 13.81
-3 -2 -14 20.25 7.33
-3 2 -14 19.67 8.56
3 -2 14 44.3 9.47
3 -2 14 26.68 7.15
3 -2 14 22.41 8.36
3 2 14 26.41 8.65
-3 -2 -14 45.76 10.65
3 -2 15 55.57 10.61
3 -2 15 50.51 9.49
-3 -2 -15 51.52 11.19
3 -2 16 32.64 9.26
3 -2 16 34.86 8.55
-3 3 15 104.59 13.6
-3 -3 15 62.88 11.31
3 3 -15 73.3 11.24
-3 -3 15 64.28 10.31
3 3 -15 84.74 13.55
3 -3 -15 78.69 12.56
-3 3 14 17.54 7.34
-3 -3 14 12.9 5.85
3 3 -14 21.41 6.57
-3 -3 14 16.17 5.62
3 -3 -14 15.97 7.56
3 3 -14 24.21 9.15
3 3 -13 16.18 5.97
-3 -3 13 -1.21 6.03
3 -3 -13 1.2 4.94
3 3 -13 9.74 7.18
-3 -3 13 1.52 4.28
-3 3 13 7.55 6.51
-3 -3 12 18.18 6.59
3 3 -12 28.74 6.41
-3 -3 12 27.05 6.09
3 -3 -12 28.16 7.48
3 3 -12 24.7 8.18
-3 3 12 38.28 8.65
-3 -3 11 11.61 5.07
3 3 -11 22.52 5.31
-3 -3 11 35.85 6.55
3 -3 -11 18.53 5.92
3 3 -11 35.43 8.38
-3 3 11 38.55 8.2
-3 -3 10 57.57 8.9
3 3 -10 67.41 8.03
3 -3 -10 59.07 7.46
3 -3 -10 57.37 9.06
-3 -3 10 61.03 7.79
3 -3 -10 46.44 8.01
3 3 -10 59.22 9.97
-3 3 10 63.02 9.95
-3 -3 9 580.19 20.11
3 -3 -9 456.76 24.98
-3 -3 9 512.44 25.04
3 3 -9 551.77 22.17
3 -3 -9 542.57 23.17
-3 -3 9 558.66 23.18
3 -3 -9 493.37 25.25
-3 3 9 513.07 25.53
3 3 -9 541.06 26.78
3 -3 -8 194.52 15.09
-3 -3 8 237.19 12.41
-3 -3 8 210.6 15.16
3 3 -8 204.82 12.05
3 -3 -8 219.63 13.93
-3 -3 8 237.95 13.77
3 -3 -8 197.52 15.13
-3 3 8 190.29 14.99
3 3 -8 237.61 16.56
3 3 -7 26.47 4.35
-3 -3 7 16.43 5.06
3 -3 -7 26.92 6.58
3 -3 -7 25.26 5.5
-3 -3 7 30.08 5.12
3 3 -7 29.26 3.31
3 -3 -7 23.57 6.89
-3 -3 7 31.12 4.77
3 3 -7 28.5 6.51
-3 3 7 20.31 5.98
3 -3 -6 299.58 17.87
-3 -3 6 340.01 15.81
-3 -3 6 318.06 17.09
3 3 -6 339.19 13.57
3 -3 -6 333.35 17.44
3 -3 -6 312.49 18.01
3 3 -6 321.65 18.34
-3 3 6 318.58 18.37
-3 -3 6 331.57 15.45
-3 -3 5 77.45 6.05
3 -3 -5 70.38 8.55
3 3 -5 71.85 5.2
-3 -3 5 63.27 7.56
3 -3 -5 82.51 8.91
-3 -3 5 77.8 7.06
3 -3 -5 72.42 9.01
-3 3 5 74.75 4.57
-3 -3 5 58.58 6.82
3 3 -5 83.02 9.11
-3 3 5 55.54 7.85
3 3 -5 90.23 9.09
-3 -3 4 126.84 6.89
3 -3 -4 115.64 10.55
3 3 -4 122.76 5.96
-3 -3 4 118.19 9.56
-3 -3 4 113.26 9.49
3 -3 -4 109.21 9.91
-3 3 4 122.18 7.44
-3 3 4 113.41 10.48
3 3 -4 105.87 10.08
3 3 -4 117.67 9.7
-3 -3 3 276.42 9.41
-3 -3 3 257.85 14.4
-3 3 3 276.96 11.38
-3 -3 3 241.31 13.5
3 -3 -3 271.27 11.62
3 -3 -3 246 14.9
-3 3 3 284.44 11.71
3 3 -3 265.17 15.4
-3 3 3 254.47 15.52
3 3 -3 258.44 8.19
3 3 -3 229.58 13.26
3 -3 -3 266.95 15.41
-3 -3 2 67.28 3.4
-3 3 2 60.72 4.81
3 -3 -2 63.21 4.78
-3 -3 2 50.21 6.44
3 -3 -2 45.18 6.58
-3 3 2 67.67 5.4
-3 -3 2 60.47 7.22
3 3 -2 49.98 7.13
-3 3 2 53.83 7.21
3 -3 -2 56.53 7.59
3 3 -2 59.52 6.89
-3 -3 1 197.27 12.81
-3 -3 1 195.21 11.7
-3 3 1 209.54 8.82
3 -3 -1 224.79 8.59
3 -3 -1 214.99 13.65
-3 3 1 186.29 12.99
3 -3 -1 185.43 12.82
-3 3 1 221.55 9.04
3 3 -1 197.37 11.78
-3 -3 0 9.18 1.12
-3 -3 0 7.89 3.5
-3 3 0 14.36 2.38
3 -3 0 16.32 2.16
3 -3 0 4.64 4.53
3 -3 0 13.62 3.27
-3 -3 0 10.77 4.93
-3 3 0 15.02 5.24
3 3 0 12.96 3.85
3 3 0 11.36 2.62
-3 3 0 14.39 2.48
-3 3 -1 216.2 13.83
-3 -3 -1 200.33 13.26
-3 -3 -1 179.95 11.49
3 -3 1 215.61 8.91
-3 3 -1 212.68 8.85
3 -3 1 212.5 7.56
3 -3 1 204.22 13.39
3 -3 1 203.54 11
-3 3 -1 191.45 13.32
3 3 1 208.39 9.28
3 -3 1 219.29 6.78
-3 3 -1 220.36 8.92
-3 -3 -1 214.44 7.54
-3 -3 -1 199.53 6.13
-3 3 -2 275.83 15.98
3 -3 2 270.98 13.64
-3 -3 -2 251.81 15.36
3 -3 2 278.9 10.88
3 -3 2 269.04 9.19
3 -3 2 237.97 14.65
3 3 2 259.64 15.54
-3 3 -2 259.79 15.71
3 3 2 274.81 9.59
3 -3 2 293.15 10.1
-3 -3 -2 280.84 9.06
-3 -3 -3 3.21 1.89
-3 3 -3 0.66 3.88
3 3 3 3.27 1.51
3 -3 3 5.57 2.18
3 -3 3 2.07 2.67
-3 -3 -3 -0.15 4.13
3 3 3 1.57 0.7
-3 3 -3 0.99 3.7
3 -3 3 2.74 1.89
3 3 3 -2.21 4.11
3 -3 3 -3.22 4.94
3 -3 3 3.76 1.55
-3 3 -4 133.99 11.62
3 3 4 173.06 8.5
-3 -3 -4 149.59 12.2
3 -3 4 160.02 9.02
3 -3 4 156.5 7.77
3 3 4 152.41 12.29
3 -3 4 140.4 11.32
3 -3 4 151.08 10.85
-3 3 -4 133.58 11.45
-3 -3 -4 156.33 8.32
-3 3 -5 53.28 8
-3 3 -5 56.68 7.86
3 -3 5 45.92 5.31
3 -3 5 66.18 5.46
3 -3 5 45.59 6.78
3 -3 5 50.18 6.82
-3 -3 -5 52.85 7.76
3 3 5 55.86 7.87
-3 -3 -5 61.06 5.88
-3 3 -6 56.57 8.48
3 -3 6 71.33 7.09
3 -3 6 70.5 6.26
3 -3 6 65.66 7.81
-3 -3 -6 70.25 8.94
3 -3 6 68.61 8.62
3 3 6 59.49 8.69
-3 -3 -6 63.29 6.58
-3 -3 -7 55.5 6.75
-3 3 -7 50.95 8.3
3 -3 7 57.51 6.16
3 -3 7 47.06 6.22
3 -3 7 40.78 6.69
-3 -3 -7 47.46 7.61
3 -3 7 45.97 7.72
3 3 7 47.62 8.09
-3 3 -8 70.1 9.89
3 -3 8 68.82 8.28
3 -3 8 68.72 7.08
3 -3 8 51.4 6.96
-3 -3 -8 65.46 9.08
3 -3 8 52.77 8.68
3 3 8 48.18 8.5
-3 -3 -8 72.35 8.18
-3 -3 -9 34.69 6.61
-3 3 -9 46.82 9.12
3 -3 9 37.46 6.51
-3 -3 -9 32.7 6.93
3 -3 9 54.54 7.12
3 -3 9 60.66 9.58
3 3 9 32.46 7.41
3 -3 9 39.75 6.57
3 -3 10 48.27 7.07
-3 3 -10 38.67 8.52
3 -3 10 45.04 7.51
-3 -3 -10 42.58 7.76
3 3 10 36.41 8.16
3 -3 10 30.38 5.77
3 -3 10 30.62 7.81
-3 3 -11 75.9 11.47
3 -3 11 76.89 9.14
3 -3 11 53.39 8.5
-3 -3 -11 79.51 10.06
3 3 11 74.72 11
-3 -3 -11 67.41 10.16
3 -3 11 69.4 11
-3 3 -12 72.09 11.7
-3 -3 -12 67.79 10.63
3 -3 12 57.47 9.29
-3 -3 -12 57.05 8.48
3 -3 12 72.44 9.68
3 -3 12 61.5 10.77
3 3 12 55.85 10.28
-3 3 -13 36.07 9.88
3 -3 13 36.23 7.82
3 -3 13 29.37 6.67
-3 -3 -13 40.78 9.73
3 -3 13 38.2 9.39
3 3 13 45.39 10.03
-3 -3 -14 103.72 14.08
3 -3 14 81.39 11.5
3 -3 14 100.22 14.15
3 -3 15 9.04 6.56
-3 -3 -15 8.4 6.81
-3 4 15 12.06 6.76
-3 -4 15 32.62 8.34
-3 4 14 33.31 8.77
-3 -4 14 40.33 9.35
3 -4 -14 37.63 9.82
-3 -4 14 32.97 7.83
3 4 -14 27.34 8.87
-3 -4 13 30.52 7.69
-3 -4 13 22.52 7.65
3 -4 -13 18.34 7.41
3 4 -13 28.18 9.08
-3 4 13 23.8 7.36
3 4 -12 22.26 8.04
-3 -4 12 27.53 7.78
3 -4 -12 23.61 8.06
-3 -4 12 14.21 5.48
-3 4 12 28.59 7.73
3 -4 -11 143.08 14.83
-3 -4 11 158.19 15.18
-3 -4 11 129.97 12.31
-3 4 11 133.67 13.91
3 4 -11 114.5 13.75
-3 -4 10 86.47 10
3 -4 -10 59.03 10.2
-3 -4 10 98.52 11.95
3 -4 -10 99.35 12.36
3 -4 -10 76.47 9.14
3 4 -10 83.29 11.68
-3 4 10 78.95 10.81
-3 -4 9 83.02 7.46
-3 -4 9 68.44 10.03
3 -4 -9 57.41 9.54
3 -4 -9 89.2 10.04
-3 -4 9 88.37 9.69
3 -4 -9 74.2 10.33
3 4 -9 78.35 11.11
-3 4 9 69.58 10.22
-3 -4 8 149.4 10.36
3 -4 -8 132.92 13.22
-3 -4 8 134.09 12.51
3 -4 -8 141.72 12.5
-3 -4 8 135.52 11.41
3 -4 -8 137.86 13.54
-3 4 8 131.8 12.83
3 4 -8 126.34 13.12
-3 -4 7 71.49 7.69
3 -4 -7 67.62 9.6
3 4 -7 67.13 6.09
-3 -4 7 60.08 8.47
3 -4 -7 75.08 9.23
3 -4 -7 76.38 10.33
3 4 -7 63.59 9.32
-3 4 7 67.38 9.46
-3 -4 7 82.68 8.7
3 -4 -6 87.3 10.5
-3 -4 6 88.78 8.54
3 4 -6 88.18 5.93
-3 -4 6 69.94 8.71
3 -4 -6 74.39 9.24
3 -4 -6 81.32 10.32
-3 -4 6 80.28 8.25
3 4 -6 81.88 10.41
-3 4 6 83.27 10.3
3 4 -6 95.34 11
3 -4 -5 119.86 11.55
-3 -4 5 129.38 7.31
-3 -4 5 130.18 10.32
3 4 -5 116.34 5.7
-3 -4 5 110.57 10.67
-3 4 5 119.52 11.74
3 -4 -5 100.12 10.52
3 4 -5 124.66 11.96
3 -4 -5 106.64 11.27
3 4 -5 93.56 10.08
-3 -4 4 151.95 6.63
-3 -4 4 133.06 10.87
-3 -4 4 130.8 11.28
3 -4 -4 132.56 11.93
3 -4 -4 133.86 11.95
-3 4 4 122.83 11.67
3 4 -4 129.66 11.18
3 4 -4 121.3 11.87
3 -4 -4 120.2 11.31
-3 -4 3 8.08 4.02
3 -4 -3 13.56 5.6
-3 -4 3 13.16 4.51
3 -4 -3 13.64 2.56
3 4 -3 11.06 5.88
-3 4 3 9.67 4.74
3 -4 -3 13.31 4.96
3 4 -3 7.75 4.42
-3 4 2 29.33 5.82
-3 -4 2 25.92 5.73
3 -4 -2 31.65 2.93
3 -4 -2 34.33 6.93
-3 -4 2 25.33 5.69
3 4 -2 32.7 6.74
3 -4 -2 25.39 5.94
3 4 -2 30.17 6.05
-3 -4 1 17.9 4.96
3 -4 -1 13.56 1.43
3 -4 -1 14.61 5.08
-3 -4 1 20.03 5.4
3 -4 -1 13.52 5.31
-3 4 1 13.94 4.77
-3 4 1 14.48 3.47
3 4 -1 21.58 5.7
-3 4 0 101.22 10.3
-3 -4 0 92.66 9.91
-3 -4 0 91.76 8.98
3 -4 0 101.27 10.57
3 -4 0 106.64 8.77
3 4 0 91.55 9.22
-3 4 0 97.94 7.08
-3 4 0 104.04 10.75
-3 4 -1 645.85 26.9
-3 -4 -1 644.22 27.15
-3 -4 -1 607.18 24.99
3 -4 1 654.3 20.98
3 -4 1 593.47 26.25
-3 4 -1 600.4 26.71
3 4 1 678.68 20
-3 4 -1 641.42 20.84
3 -4 1 625.19 23.44
-3 4 -2 2.42 4.16
3 -4 2 3.47 2.11
-3 -4 -2 2.27 1.09
3 -4 2 1.63 3.92
-3 -4 -2 5.17 4.8
3 -4 2 0.87 2.82
3 -4 2 1.99 1.37
-3 4 -2 -0.08 4.34
3 4 2 5.78 4.61
-3 4 -2 3.21 2.59
-3 -4 -3 3.27 1.85
-3 4 -3 -1.36 3.94
-3 4 -3 0.56 4.33
3 -4 3 4.07 2.57
3 -4 3 4.71 3.57
-3 -4 -3 10.62 5.08
3 -4 3 5.19 2.12
3 4 3 5.17 4.32
3 -4 3 3.9 4.23
-3 4 -3 14.16 3.95
-3 4 -4 100.45 10.8
-3 -4 -4 100.82 10.9
3 -4 4 108.62 8.25
3 -4 4 105.08 4.72
3 4 4 106.89 11.03
3 -4 4 105.12 10.43
-3 -4 -4 116.78 7.34
3 -4 4 101.34 9.81
-3 4 -4 102.95 11.07
-3 4 -5 21.75 5.91
3 -4 5 29.99 3.15
3 -4 5 34.09 5.16
3 -4 5 32.3 6.7
-3 -4 -5 37.6 7.35
3 -4 5 20.68 5.15
-3 -4 -5 22.55 4.06
-3 4 -5 18.41 5.58
3 4 5 34.13 7.15
-3 4 -6 89.78 10.73
3 -4 6 84.55 8.09
3 -4 6 83.02 5.98
3 -4 6 78.61 9.23
-3 -4 -6 69.83 9.61
-3 -4 -6 71.52 7.15
3 -4 6 72.61 9.02
-3 4 -6 67.29 9.67
3 4 6 61.93 9.11
-3 4 -7 92.29 11.1
-3 -4 -7 94.88 10.96
3 -4 7 102.07 9.58
3 -4 7 111.08 7.72
3 -4 7 94.99 10.01
-3 -4 -7 92.19 8.84
3 -4 7 78.46 9.9
3 4 7 82.45 10.71
-3 4 -8 124.89 13.31
-3 -4 -8 133.57 13.29
3 -4 8 124.75 10.81
3 4 8 119.64 13.06
3 -4 8 127.61 11.72
3 -4 8 133.54 13.22
-3 -4 -8 138.43 11.53
-3 4 -9 44.54 9.37
3 -4 9 55.84 8.41
-3 -4 -9 37.52 8.11
3 -4 9 53.56 7.96
3 -4 9 46.12 8.55
3 4 9 46.89 9.15
-3 -4 -9 48.61 7.61
-3 4 -10 147.64 15.33
-3 -4 -10 152.3 14.42
3 -4 10 152.57 13.37
3 4 10 141.96 15.07
-3 -4 -10 154.06 13.47
3 -4 10 149.56 15.01
-3 4 -11 86.25 12.44
3 -4 11 74.28 11.51
3 -4 11 75.45 9.94
-3 -4 -11 72.01 10.33
3 4 11 81.52 11.98
-3 -4 -11 86.11 11.07
-3 4 -12 80.34 12.31
3 -4 12 92.45 11.37
-3 -4 -12 96.74 12.14
-3 -4 -12 109.31 12.77
3 -4 12 75.29 11.64
3 4 12 85.74 12.72
-3 4 -13 48.89 11.29
3 -4 13 21.01 7.1
-3 -4 -13 21.31 6.99
3 -4 13 22.04 7.59
3 4 13 41.34 10.32
-3 -4 -14 36.37 9.33
3 -4 14 27.34 7.27
3 -4 15 28.58 7.02
-3 -5 15 63.76 11.25
-3 5 14 14.31 5.7
-3 -5 14 3.78 4.65
-3 -5 13 34.63 9.3
3 -5 -13 43.17 9.99
-3 -5 13 29.4 7.57
3 5 -13 27.75 9.41
-3 5 13 43.97 9.49
-3 5 12 104.97 12.55
-3 -5 12 86.62 12.43
3 -5 -12 88.32 12.56
-3 -5 12 89.2 11.55
3 5 -12 95.49 13.76
-3 5 12 94.79 12.31
-3 -5 11 34.33 8.24
3 -5 -11 21.06 7.72
-3 5 11 31.72 7.12
-3 -5 11 17.98 6.54
3 5 -11 9.92 6.52
-3 5 11 39.09 8.9
3 -5 -10 95.55 12.75
-3 -5 10 75.52 10.7
-3 -5 10 85.97 10.56
-3 5 10 110.54 12.56
3 5 -10 75.42 11.79
3 -5 -9 89.14 12.04
-3 -5 9 86.82 11.37
3 -5 -9 101.38 11.62
-3 -5 9 106.43 11.33
3 -5 -9 112.47 13.28
-3 5 9 108.25 12.58
3 5 -9 86.46 11.92
3 -5 -8 39.55 8.65
3 5 -8 29.96 8.2
-3 -5 8 38.52 8.16
-3 -5 8 37.26 5.9
3 -5 -8 22.82 6.67
-3 -5 8 31.06 6.42
3 -5 -8 49.46 8.95
-3 5 8 29.63 7.51
3 -5 -7 7.17 5.14
3 -5 -7 11.55 6.23
-3 -5 7 10.92 5.65
3 -5 -7 12.12 5.52
-3 -5 7 8.21 3.56
-3 -5 7 3.22 3.67
3 5 -7 10.6 6.58
-3 5 7 6.67 5.92
3 5 -7 22.15 8.01
3 -5 -6 310.17 19.91
-3 -5 6 309.28 17.06
-3 -5 6 276.04 18.4
3 -5 -6 280.98 18.78
3 -5 -6 298.48 19.36
-3 5 6 275.2 18.62
3 5 -6 281.12 19.53
3 5 -6 322.69 20.14
3 -5 -5 14.97 5.55
-3 -5 5 8 5.03
3 -5 -5 8.77 5.43
-3 -5 5 9.79 4.41
3 5 -5 1.08 5.26
3 -5 -5 24.45 6.47
-3 5 5 7.47 4.77
3 5 -5 6.4 5.01
-3 -5 4 71.37 8.75
-3 -5 4 53.08 8.73
3 -5 -4 46.33 8.1
3 -5 -4 63.11 9.16
3 5 -4 52.24 8.61
-3 5 4 54.79 8.9
3 5 -4 41.44 7.76
3 -5 -4 49.69 8.02
-3 -5 3 25.22 6.28
3 -5 -3 34.97 7.53
-3 -5 3 30.26 6.21
3 5 -3 25.76 6.98
-3 5 3 18.94 6.25
3 -5 -3 25.49 6.48
3 5 -3 22.02 6.04
3 -5 -3 26.94 7.07
-3 -5 2 149.23 12.73
-3 -5 2 141.98 12.51
3 -5 -2 139.28 13.1
3 -5 -2 152.64 13.27
3 5 -2 152.26 13.27
3 5 -2 148.76 12.67
-3 5 2 134.08 12.82
-3 -5 1 88.82 10.15
-3 -5 1 71.07 9.19
3 -5 -1 76.35 9.75
-3 5 1 85.69 10.41
-3 5 1 87.52 8.04
3 5 -1 98.84 10.28
-3 5 0 201.59 15.07
-3 -5 0 211.82 15.55
-3 -5 0 178.6 14.26
3 -5 0 195.62 15.49
-3 5 0 195.37 15.38
3 5 0 221.1 15.14
-3 5 0 220.59 12.43
-3 5 -1 274.17 17.7
-3 -5 -1 264.44 17.67
3 5 1 306.12 19.82
-3 -5 -1 268.09 17.12
3 -5 1 301.47 14.74
3 -5 1 283.41 18.4
3 5 1 290.03 18.04
3 -5 1 265.26 15.87
-3 5 -1 298.75 19.07
3 5 1 304.64 18.09
-3 5 -1 271.69 14.16
-3 5 -2 966.21 36.49
-3 -5 -2 967.56 37.41
3 5 2 1047.56 39.3
3 -5 2 1005.7 34.69
3 -5 2 1065.73 32.14
3 -5 2 931.28 36.63
3 5 2 981.69 36.81
-3 5 -2 968.37 37.93
-3 5 -2 1011.49 31.55
-3 5 -3 179.2 14.66
-3 -5 -3 173.86 15.01
3 5 3 210.46 17.12
3 -5 3 211.48 12.77
3 -5 3 175.85 14.67
3 5 3 201.61 15.33
3 -5 3 214.69 14.76
-3 5 -3 163.87 14.66
-3 5 -3 197.79 12.34
-3 5 -4 109.62 11.53
-3 -5 -4 107.21 12.1
3 5 4 132.06 13.94
3 -5 4 106.63 9.18
3 5 4 108.28 11.49
3 -5 4 112.8 11.66
3 -5 4 117.67 11.63
-3 5 -4 99.61 11.94
-3 5 -4 131.66 10.51
3 -5 5 14.64 5.61
-3 5 -5 14.51 5.87
3 5 5 15.9 5.52
3 5 5 23.51 7.88
3 -5 5 21.44 5.21
-3 -5 -5 20.01 5.97
3 -5 5 16.28 5.19
-3 5 -5 15.58 6.02
-3 5 -6 11.61 5.28
3 5 6 19.05 8.63
3 -5 6 14.97 4.35
-3 -5 -6 13.76 3.38
-3 -5 -6 18.74 7.09
3 -5 6 10.77 4.95
3 -5 6 13.17 5.36
-3 5 -6 4.05 5.58
3 5 6 13.94 5.64
-3 5 -7 52.25 9.44
-3 -5 -7 52.02 6.64
3 5 7 66.95 11.48
3 -5 7 43.56 6.98
-3 -5 -7 49.53 9.06
3 -5 7 48.71 8.28
3 -5 7 48.74 8.84
3 5 7 66.82 10.35
-3 5 -7 54.81 7.42
-3 5 -8 165.05 15.9
-3 -5 -8 191.28 16.56
3 5 8 222.71 18.62
3 -5 8 184.32 14.22
3 5 8 201.21 17.34
-3 -5 -8 207.86 13.62
3 -5 8 166.67 14.17
3 -5 8 177.43 15.84
-3 5 -8 171.06 13.68
-3 5 -9 16.81 6.82
3 -5 9 17.44 5.44
-3 -5 -9 13.01 5.76
3 -5 9 21.01 5.72
3 -5 9 17.56 6.8
3 5 9 21.56 7.08
-3 -5 -9 19.08 5.17
-3 5 -9 15.24 5.66
-3 5 -10 3.92 5.16
3 -5 10 3.76 4.9
-3 -5 -10 8.09 5
3 -5 10 1.67 5.15
3 5 10 8.52 5.82
-3 5 -11 21.08 7.89
3 -5 11 21.41 6.73
-3 -5 -11 28.65 8.43
3 5 11 24.11 8.21
3 -5 11 18.42 7.21
-3 5 -12 66.21 11.88
3 -5 12 95.06 12.09
-3 -5 -12 92.17 12.9
3 -5 12 90.66 13.33
3 5 12 74.97 12.51
3 -5 13 15.24 7.01
-3 6 14 35.24 9.57
-3 -6 14 38.7 9.34
-3 6 13 23.44 7.88
-3 -6 13 51.76 10.23
3 -6 -12 22.93 8.65
-3 -6 12 27.13 7.89
3 -6 -11 52.54 10.79
-3 -6 11 36.51 9.45
-3 -6 11 51.65 9.41
3 6 -11 46.93 10.81
-3 6 11 43.9 9.66
3 -6 -10 120.54 15.08
-3 -6 10 129.85 15.34
-3 -6 10 136.23 13.87
3 6 -10 138.93 16.47
-3 6 10 112.45 13.62
3 -6 -9 3.26 5.2
-3 -6 9 7.73 5.9
-3 -6 9 2.9 4.9
3 6 -9 7.3 7.04
-3 6 9 13.29 6.62
3 -6 -8 49.13 9.36
-3 -6 8 54.28 9.53
3 -6 -8 36.07 8.79
3 6 -8 63.1 11.41
-3 6 8 51.04 9.09
3 6 -8 63.65 11.27
-3 -6 7 89.64 9.62
3 -6 -7 88.87 11.99
-3 -6 7 72.3 10.85
3 -6 -7 68.36 10.42
3 -6 -7 82.91 11.79
3 6 -7 77.58 11.78
-3 6 7 80.08 11.09
3 6 -7 69.63 11.6
3 -6 -6 8.62 5.51
-3 -6 6 11.07 6.1
-3 -6 6 9.36 4.25
3 -6 -6 16.47 6.71
3 6 -6 14.29 6.78
-3 6 6 13.45 6.43
3 -6 -6 14.07 6.62
3 6 -6 8.54 5.75
-3 -6 5 127.65 12
-3 -6 5 83.77 10.84
3 -6 -5 121.93 13.22
3 -6 -5 110.41 12.74
-3 6 5 115.14 13.02
3 6 -5 110.62 12.85
3 -6 -5 109.84 12.32
3 6 -5 106.29 12.41
-3 -6 4 94.29 11.71
-3 -6 4 86.13 10.03
3 -6 -4 87.41 11.6
3 -6 -4 94.86 11.69
3 6 -4 95.29 11.65
3 -6 -4 90.66 11.35
-3 6 4 86.73 10.88
3 6 -4 78.51 10.61
-3 -6 3 52.07 9.13
-3 -6 3 63.68 9.19
3 -6 -3 64.32 10.16
3 -6 -3 45.79 8.62
3 -6 -3 50.25 9.04
3 6 -3 54.76 9.24
-3 6 3 55.11 9.31
3 6 -3 37.66 7.79
-3 -6 2 8.13 5.24
-3 -6 2 11.22 5
3 -6 -2 12.27 6.3
3 -6 -2 13.13 5.7
3 -6 -2 5.73 4.47
3 6 -2 13.48 6.04
-3 6 2 12.06 6.11
-3 6 2 11.34 4.69
3 6 -2 15.97 6.5
-3 6 1 5.39 4.57
3 6 -1 23.99 7.82
-3 -6 1 2.13 4.62
3 6 -1 3.32 4.7
-3 -6 1 3.79 4.9
3 -6 -1 1.76 4.7
3 -6 -1 10.14 5.43
-3 6 1 9.94 5.93
-3 6 1 5.38 3.59
3 6 -1 4.39 4.99
-3 6 0 27.84 7.15
3 6 0 28.66 7.88
-3 -6 0 18.81 6.83
-3 -6 0 23.67 6.7
3 -6 0 20.4 6.39
-3 6 0 19.19 6.34
3 6 0 22.07 6.22
3 6 0 19.08 6.41
-3 6 0 19 4.98
-3 -6 -1 261.57 18.78
-3 6 -1 298.74 19.43
3 6 1 283.66 20.23
-3 -6 -1 287.31 19.35
3 -6 1 303.2 16.76
3 -6 1 280.04 19.53
3 6 1 299.67 19.38
-3 6 -1 283 19.92
3 6 1 279.91 19.04
-3 6 -1 275.94 16.01
3 -6 2 33.42 7.07
-3 6 -2 37.52 7.85
3 6 2 52.44 10.35
3 -6 2 30.09 5.77
-3 -6 -2 33.45 7.36
3 -6 2 33.85 7.95
-3 6 -2 35.98 8.68
3 6 2 31.37 7.07
-3 6 -2 27.9 5.93
3 -6 3 35.47 6.94
-3 6 -3 36.77 7.76
3 6 3 44.87 9.76
3 -6 3 45.43 7.21
-3 -6 -3 39.96 8
3 -6 3 45 8.42
-3 6 -3 29.76 8.23
3 6 3 41.14 7.97
-3 6 -3 44.14 7.32
-3 6 -4 17.07 6.68
3 6 4 13.59 6.52
3 -6 4 16.02 5.19
-3 -6 -4 5.81 5.47
3 6 4 14.87 5.26
3 -6 4 15.61 5.99
3 -6 4 15.44 5.45
-3 6 -4 8.89 5.97
-3 6 -4 28.18 6.45
-3 6 -5 -1.45 4.52
3 6 5 7.92 5.99
3 -6 5 1.03 4.21
-3 -6 -5 0.25 4.52
3 -6 5 -3.23 4.64
3 -6 5 3.14 4.22
-3 6 -5 -3.45 5.85
3 6 5 -0.97 4.69
-3 6 -6 6.89 5.99
3 6 6 18.78 8.41
3 -6 6 7.02 4.58
-3 -6 -6 1.34 5.01
3 -6 6 0.37 3.93
3 6 6 6.14 5.71
-3 6 -6 -5.56 5.54
3 -6 6 0.9 4.47
3 -6 7 -2.57 5.3
-3 6 -7 7.46 5.34
3 6 7 12.67 7.26
3 -6 7 4.52 4.61
-3 -6 -7 2.56 4.38
3 -6 7 -0.55 4.69
3 6 7 7.62 5.8
-3 6 -7 3.73 5.98
-3 6 -8 1.92 4.86
3 6 8 11.91 6.25
3 6 8 12.46 7.12
3 -6 8 14.36 5.68
-3 -6 -8 12.09 6.17
3 -6 8 18.47 6.16
3 -6 8 10.02 6.69
-3 6 -9 11.96 6.74
3 6 9 18.32 8.35
3 -6 9 10.33 5.96
-3 -6 -9 18.94 7.27
3 -6 9 13.28 6.36
3 6 9 2.68 4.49
-3 6 -10 10.13 6.87
3 -6 10 13.75 5.76
-3 -6 -10 19.98 7.96
3 -6 10 17.71 6.91
3 6 10 13.18 6.78
3 -6 11 38.28 8.53
-3 -6 -11 30.5 8.61
-3 -6 -12 177.7 18.63
-3 -7 12 68.71 11.41
-3 -7 11 18.34 7.12
3 -7 -10 54.38 11.57
-3 7 10 34.77 8.79
3 -7 -9 33.91 9.1
-3 -7 9 28.8 8.39
3 7 -9 44.44 9.94
-3 7 9 26.22 7.94
3 -7 -8 8.39 5.58
-3 -7 8 2.34 5.65
3 7 -8 1.18 5.83
-3 7 8 5.05 5.05
3 7 -8 11.93 8.01
-3 -7 7 15.73 7.52
3 -7 -7 -0.16 5.69
3 7 -7 -6.9 6.23
-3 7 7 6.69 6.15
3 7 -7 7.96 6.73
3 -7 -7 4.72 6.32
-3 -7 6 147.14 13.52
-3 -7 6 142.63 15.35
3 -7 -6 159.43 16.27
-3 7 6 130.99 14.26
3 7 -6 134.68 15.08
3 -7 -6 131.36 14.6
3 7 -6 118.1 14.09
-3 -7 5 80.61 10.7
-3 -7 5 68.22 10.88
3 -7 -5 64.56 11.02
3 -7 -5 74.91 11.06
3 7 -5 74.94 11.33
3 -7 -5 78.45 11.15
-3 7 5 71.94 11.26
3 7 -5 81.21 11.76
-3 -7 4 37.58 8.32
-3 -7 4 51.59 8.67
3 -7 -4 37.97 9.08
3 -7 -4 37.56 8.51
3 7 -4 30.14 7.98
-3 7 4 33.86 8.46
3 7 -4 31.84 8.72
3 -7 -4 32.75 8.4
-3 -7 3 6.9 6.18
-3 -7 3 6.91 5.12
3 -7 -3 5.24 5.02
3 -7 -3 15 6.03
3 7 -3 9.68 6.44
-3 7 3 4.44 5.38
-3 7 3 14.36 5.48
3 -7 -3 13.06 6.17
3 7 -3 1.82 6.4
-3 7 2 37.88 7.75
3 7 -2 42.83 8.96
-3 -7 2 33.95 8.41
-3 -7 2 43.14 8.36
3 -7 -2 57.52 10.54
3 -7 -2 43.06 8.48
3 7 -2 53.02 10.24
-3 7 2 42.96 8.72
-3 7 2 39.19 7.12
3 7 -2 39.53 8.5
3 7 -1 94.13 12.48
-3 7 1 76.64 10.77
-3 -7 1 80.66 11.73
-3 -7 1 89.18 11.64
3 -7 -1 68.4 11.06
3 -7 -1 79.17 10.53
3 7 -1 82.38 11.69
-3 7 1 79.36 11.96
3 7 -1 68.5 9.95
-3 7 1 90.97 10.23
3 7 -1 84.67 11.62
-3 -7 0 423.33 25.4
-3 7 0 419.32 24.44
3 7 0 400.1 25.27
-3 -7 0 361.04 23.76
3 -7 0 397.31 25.13
3 7 0 430.45 24.31
-3 7 0 425.93 25.96
3 -7 0 421.02 22.89
3 7 0 384.06 24.17
3 7 0 389.53 24.47
-3 7 0 392.14 21.26
-3 -7 -1 339.11 22.86
-3 7 -1 305.83 20.81
3 7 1 312.21 22.54
3 -7 1 337.37 19.62
3 -7 1 279.5 21.05
3 7 1 350.04 21.92
-3 7 -1 361.32 24.01
3 -7 1 388.85 21.51
3 7 1 322.99 22.16
-3 7 -1 311.66 18.78
-3 -7 -2 300.31 22.17
-3 7 -2 317.89 21.24
3 7 2 320.01 23.3
3 -7 2 343.63 19.82
3 -7 2 365.43 23.72
3 7 2 330.11 21.52
-3 7 -2 326.73 23.19
3 7 2 321.54 22.16
-3 7 -2 324.42 19.16
-3 -7 -3 137.31 15.2
-3 7 -3 127.69 13.75
3 7 3 147.42 16.22
3 -7 3 163.96 13.63
3 -7 3 156.38 15.62
3 7 3 167.05 15.65
3 -7 3 130.51 13.54
-3 7 -3 170.71 17.15
-3 7 -3 136.87 12.76
-3 7 -4 -0.53 4.74
3 7 4 11.01 7.9
3 -7 4 1.61 3.61
-3 -7 -4 3.81 5.7
3 -7 4 -3.34 5.1
3 -7 4 2.99 5.2
-3 7 -4 3.74 5.25
3 7 4 9.84 5.59
-3 7 -4 7.96 5.24
-3 7 -5 14.25 6.26
3 7 5 15.83 9.22
3 -7 5 13.67 5.96
-3 -7 -5 1.54 5.35
3 -7 5 8.31 5.88
3 -7 5 0.19 4.25
3 7 5 13 5.32
-3 7 -5 11.02 6.53
-3 7 -5 18.88 6.06
-3 7 -6 17.55 7.67
3 7 6 1.97 7.15
3 -7 6 11.21 5.47
-3 -7 -6 9.88 6.68
3 -7 6 15.81 6.65
3 -7 6 13.1 6.61
3 7 6 5.57 4.32
-3 7 -6 10.12 6.15
-3 7 -7 9.14 6.53
3 7 7 3.5 6.97
3 -7 7 1.78 4.65
-3 -7 -7 9.88 6
3 -7 7 -0.27 4.19
3 -7 7 -2 5.31
3 7 7 -7.6 5.93
-3 7 -7 0.43 5.79
-3 7 -8 41.17 9.84
3 7 8 74.25 13
3 -7 8 53.02 8.85
-3 -7 -8 45.21 10.56
3 7 8 43.2 9.23
3 -7 8 47.34 10.22
-3 7 -8 42.44 9.95
-3 7 -9 14.55 6.99
3 7 9 24.82 9.62
-3 -7 -9 32.43 8.9
3 -7 9 20.84 7.48
3 7 9 5.26 5.86
-3 8 8 53.57 10.56
3 -8 -8 31.78 9.03
3 -8 -7 32.08 9.21
-3 8 7 44.61 9.63
-3 -8 6 42.96 10.41
3 -8 -6 34.41 8.6
3 8 -6 39.52 9.98
-3 8 6 49.51 9.82
3 8 -6 29.07 8.84
-3 -8 5 42.5 9.4
-3 -8 5 33.27 7.94
3 -8 -5 39.72 9.9
3 -8 -5 37.21 8.71
3 8 -5 45.04 10.08
-3 8 5 60.11 10.78
3 8 -5 37.69 9.4
-3 -8 4 21.52 8.42
-3 -8 4 3.54 5.17
3 -8 -4 1.87 5.32
3 -8 -4 12.76 7.37
3 8 -4 5.05 5.15
-3 8 4 19.15 7.57
-3 8 4 3.74 5.27
3 8 -4 -2.83 7.8
-3 8 3 -3.15 5.22
-3 -8 3 7.79 7.11
-3 -8 3 5.48 5.57
3 -8 -3 -0.26 5.5
3 8 -3 -1.1 5.49
-3 8 3 3.91 6
-3 8 3 2.24 4.6
3 8 -3 -6.11 7.4
-3 8 2 10.29 6.14
3 8 -2 30.74 8.64
-3 -8 2 20.3 7.04
-3 -8 2 19.69 7.23
3 -8 -2 24.11 7.61
3 8 -2 17.73 6.93
3 -8 -2 26.44 7.26
-3 8 2 21.79 7.98
3 8 -2 16.67 6.16
3 8 -2 27.81 8.25
-3 8 1 9.37 5.58
3 8 -1 37.28 9.67
-3 -8 1 17.75 7.49
-3 -8 1 23.63 7.95
3 -8 -1 13.78 6.33
3 -8 -1 28.45 7.56
3 8 -1 13.86 7.6
-3 8 1 25.9 8.31
3 8 -1 22.69 6.97
3 8 -1 24.4 7.92
-3 8 0 22.93 7.29
3 8 0 53.61 10.89
-3 -8 0 22.71 8.21
-3 -8 0 46.03 10.03
3 -8 0 29.92 8.6
3 -8 0 37.74 8.18
3 8 0 21.6 7.31
-3 8 0 23.4 8.77
3 8 0 35.39 7.99
3 8 0 26.06 8.35
-3 -8 -1 341.29 24.51
-3 8 -1 338.54 22.68
3 8 1 303.19 23.77
3 -8 1 284.09 22.74
3 8 1 310.7 21.69
-3 8 -1 308.87 23.66
3 -8 1 330.54 20.64
3 8 1 310.42 23.01
3 8 1 296.52 22.69
-3 8 -2 30.68 8.46
3 8 2 46.85 11.13
3 -8 2 19.42 5.81
-3 -8 -2 21.58 7.38
3 -8 2 33.12 8.75
-3 8 -2 33.7 8.99
3 8 2 29.06 8.08
3 8 2 10.82 6.46
-3 8 -3 14.57 6.23
3 8 3 18.08 8.35
3 -8 3 11.25 5.62
-3 -8 -3 6.31 6.64
3 -8 3 23.82 7.96
3 8 3 20.78 7.21
-3 8 -3 20.7 8.31
3 8 3 -0.54 6.4
-3 8 -4 1.26 5.19
3 8 4 9.34 8.37
-3 -8 -4 6.69 5.55
3 -8 4 -0.76 4.7
3 8 4 6.26 5.64
-3 8 -4 4.33 6.25
-3 8 -5 11.73 6.84
-3 -8 -5 14.7 7.73
3 -8 5 1.59 4.87
3 -8 5 3.79 5.27
3 8 5 -0.01 4.37
-3 8 -5 7.99 7.57
-3 8 -6 35.38 9.55
3 -8 6 29.22 8.46
3 -8 6 36.26 9.34
3 8 6 24.67 8.11
-3 8 -7 33.17 9.3
3 -8 7 37.44 9.13
3 8 7 31.19 8.55
-3 9 5 55.14 10.64
-3 9 4 43.43 9.78
-3 -9 4 51.37 10.73
-3 9 4 37.56 9.42
-3 9 3 19.01 7.69
-3 -9 3 13.6 7
-3 9 2 4.53 5.54
3 9 -2 18.49 8.74
-3 -9 2 12.66 8.24
-3 9 2 9.93 6.89
-3 9 1 11.43 7.05
-3 -9 1 6.34 6.02
-3 9 0 61.07 10.41
-3 9 -1 104.3 13.36
-3 9 -2 21.62 7.38
-3 9 -3 7.47 6.06
-3 9 -4 7.29 5.77
-4 0 16 59.04 11.21
4 0 -16 63.74 11.97
4 0 -16 53.63 11.08
-4 0 15 10.96 6.72
4 0 -15 6.89 6.38
4 0 -15 5.55 6.72
-4 0 14 76.8 11.06
4 0 -14 65.02 10.59
4 0 -14 63.59 10.87
-4 0 13 5.85 5.61
4 0 -13 -1.65 5.56
4 0 -13 1.87 5.34
-4 0 12 59.72 10.18
-4 0 12 65.23 9.8
4 0 -12 74.49 10.56
4 0 -12 78.38 10.05
4 0 -12 93.05 11.22
-4 0 11 -9.27 6.75
4 0 -11 1.48 4.41
4 0 -11 9.2 5.2
4 0 -11 -2.34 4.91
-4 0 10 3.66 4.69
-4 0 10 13.88 6.49
4 0 -10 5.69 2.58
4 0 -10 -0.15 4.24
4 0 -10 16.95 5.55
4 0 -10 11.4 5
4 0 -9 385.07 20.91
-4 0 9 386.4 19.43
4 0 -9 398.33 17.28
4 0 -9 416.59 20.47
4 0 -9 401.1 20.31
-4 0 9 374.79 22.57
4 0 -8 813.05 31.45
-4 0 8 853.28 29.28
4 0 -8 878.56 28.64
-4 0 8 875.81 22.62
4 0 -8 853.55 31.06
4 0 -8 865.96 30.9
-4 0 8 811.82 33.89
4 0 -7 462.11 21.27
-4 0 7 459.37 19.09
4 0 -7 465.48 19.77
-4 0 7 472.85 12.66
4 0 -7 459.92 20.47
-4 0 7 435.91 23.01
4 0 -6 13.6 4.81
-4 0 6 9.11 3.05
4 0 -6 7.78 3.92
-4 0 6 3.7 4.75
4 0 -5 5.11 3.51
-4 0 5 9.19 2.81
4 0 -5 9.35 3.87
-4 0 5 4.73 4.73
-4 0 4 74.03 5.39
4 0 -4 68.53 6.88
-4 0 4 78.27 9.02
-4 0 4 77.78 5.51
4 0 -4 60.72 6.97
-4 0 3 0.99 1.46
4 0 -3 -1.55 2.52
4 0 -3 -0.09 3
-4 0 3 1.18 1.31
-4 0 3 2.31 3.93
-4 0 2 175.06 6.43
4 0 -2 174.42 10.26
-4 0 2 191.28 12.39
4 0 -2 156.53 10.65
-4 0 1 237.3 13.53
4 0 -1 225.62 6.64
-4 0 0 45.76 6.16
-4 0 0 55.25 6.91
-4 0 -1 223.38 12.67
-4 0 -1 226.56 12.54
4 0 1 213.11 6.14
4 0 1 212.42 6.16
-4 0 -2 319.65 15.91
4 0 2 352.6 10.17
4 0 2 330.81 16.68
-4 0 -2 333.83 15.43
-4 0 -3 45.21 6.48
4 0 3 46.07 3.68
4 0 3 40.77 6.27
-4 0 -3 38.86 5.32
-4 0 -4 40.22 6.4
4 0 4 40.52 6.39
-4 0 -4 41.16 5.39
-4 0 -5 162.3 12.14
4 0 5 174.32 12.73
-4 0 -5 170.7 10.73
-4 0 -6 62.32 8.27
-4 0 -6 57.9 6.41
4 0 6 54.45 7.71
-4 0 -7 101.77 10.61
-4 0 -7 81.93 9.59
4 0 7 104.3 10.69
-4 0 -7 94.11 8.16
-4 0 -8 72.07 7.53
-4 0 -8 84.11 10.37
-4 0 -8 104.8 10.64
4 0 8 88.64 10.21
-4 0 -9 -0.92 5.04
4 0 9 -3.69 3.77
-4 0 -9 5.37 5.04
-4 0 -9 4.65 3.25
-4 0 -10 229.93 17.98
-4 0 -10 223.63 15.35
4 0 10 228.13 17.41
-4 0 -11 26 7.61
4 0 11 27.8 7.2
-4 0 -12 9.15 5.71
4 0 12 -1.45 4.42
-4 0 -13 128.08 15.4
4 0 13 140.08 15.3
-4 0 -14 13.29 7.5
4 0 14 33.82 8.55
-4 -1 16 -0.65 5.79
-4 1 16 26.65 9.65
4 1 -16 12.01 7.37
4 -1 -16 28.34 9.14
4 1 -16 6.52 5.76
4 -1 -15 21.82 7.74
-4 -1 15 14.5 7.41
4 1 -15 16.98 7.43
4 -1 -15 17.74 7.14
4 1 -15 17.41 7.84
-4 1 14 11.65 6.12
-4 -1 14 1.42 5.41
4 1 -14 11.52 6.18
4 1 -14 6.09 5.38
4 -1 -14 22.11 7.62
4 -1 -14 9.7 6.79
-4 1 13 -0.95 6.62
-4 -1 13 7.95 5.7
4 -1 -13 3.83 5.01
4 1 -13 1.82 5.7
4 1 -13 9.49 6.12
4 -1 -13 7.63 5.17
-4 1 12 40.57 9.2
-4 -1 12 30.64 7.53
4 -1 -12 37.45 8.39
4 -1 -12 48.49 8.46
4 1 -12 54.88 8.81
4 1 -12 44.06 8.89
4 -1 -12 49.59 8.42
-4 -1 11 11.77 5.21
4 -1 -11 18.04 6.34
4 -1 -11 17.33 6.1
4 1 -11 23.69 5.72
4 1 -11 22.23 6.36
4 1 -11 31.17 7.55
4 -1 -11 26.71 6.68
-4 1 11 25.24 7.64
-4 -1 10 35.37 7.68
-4 -1 10 54.03 8.12
4 -1 -10 44.87 8.22
4 -1 -10 48.81 6.34
4 1 -10 41.09 6.48
4 1 -10 40.13 7.15
4 -1 -10 53.49 8.35
4 1 -10 56.94 8.65
4 -1 -10 47.63 7.35
-4 1 10 48.09 9.32
-4 -1 9 216.98 10.83
4 -1 -9 184.6 14.84
4 1 -9 197.22 14.13
-4 -1 9 197.84 13.94
4 -1 -9 225.06 13.2
4 1 -9 206.92 11.7
4 1 -9 210.67 13.38
4 -1 -9 187.3 14.39
-4 1 9 225.29 17.17
4 1 -9 199.54 14.98
4 -1 -9 201.29 13.43
-4 -1 9 179.74 15.47
4 -1 -8 378.95 20.75
4 1 -8 369.45 18.93
-4 -1 8 381.5 18.81
4 -1 -8 344.48 17.22
4 1 -8 414.55 17.49
-4 1 8 381.19 12.59
-4 -1 8 412.04 14.31
4 1 -8 365.01 18.03
4 -1 -8 363.09 19.94
-4 1 8 379.79 22
4 1 -8 381.66 20.21
4 -1 -8 394.84 18.18
-4 -1 8 374.44 21.78
4 -1 -7 183.3 13.82
4 1 -7 198.16 12.84
-4 1 7 200.17 6.93
-4 -1 7 179.83 11.83
4 -1 -7 180.67 12.25
-4 -1 7 220.45 8.84
-4 1 7 185.67 14.83
4 1 -7 221.29 14.62
4 -1 -7 201.48 11.99
-4 -1 7 178.87 14.52
4 -1 -6 84.9 9.19
4 1 -6 92.9 8.51
-4 -1 6 100.46 8.27
4 -1 -6 95.36 8.84
-4 1 6 92.39 10.4
4 1 -6 97.49 9.49
4 -1 -6 102.05 7.93
-4 -1 6 95.8 10.22
4 -1 -5 200.43 13.43
4 1 -5 193.25 11.65
-4 -1 5 189.11 10.65
-4 1 5 199.83 9.68
4 -1 -5 183.82 12.66
-4 1 5 182.13 13.9
4 1 -5 214.01 13.39
4 -1 -5 202.79 10.75
-4 -1 5 198.03 13.87
-4 1 5 207.83 9.84
-4 -1 4 121.28 7.89
-4 1 4 119.39 6.34
4 -1 -4 111.86 10.18
-4 1 4 113.67 10.85
4 1 -4 105.64 9.12
4 -1 -4 126.06 7.93
-4 -1 4 126.92 10.82
-4 1 4 128.85 6.53
4 1 -4 116.81 8.58
4 -1 -4 110.65 9.87
-4 -1 3 50.83 4.76
-4 1 3 52.91 3.23
4 1 -3 45.87 2.58
4 -1 -3 48.02 7.53
4 -1 -3 51.67 5.05
4 1 -3 56.37 6.7
4 1 -3 45.85 5.42
4 -1 -3 51.4 6.85
-4 1 3 51.71 3.19
-4 1 3 44.64 7.64
-4 -1 3 61.81 7.55
-4 -1 2 35.88 3.95
4 1 -2 46.91 4.53
4 1 -2 30.67 2.48
4 -1 -2 38 7.19
4 1 -2 39.78 5.73
4 -1 -2 31.15 5.75
4 -1 -2 34.52 4.09
-4 1 2 26.77 6.02
4 1 -2 44.15 4.66
-4 -1 2 38.65 5.92
-4 -1 1 347.86 12.19
4 1 -1 363.94 12.43
4 -1 -1 342.11 9.17
-4 1 1 338.4 17.26
-4 -1 1 353.87 16.27
4 1 -1 354.26 12.26
-4 -1 0 229.15 11.62
-4 1 0 220.36 13.51
4 1 0 219.38 9.02
4 -1 0 218.43 8.38
-4 1 0 238.01 13.93
-4 -1 0 246.44 12.64
4 1 0 224.28 9.08
-4 -1 -1 77.6 6.95
-4 1 -1 82.8 8.38
4 1 1 82.53 5.37
-4 1 -1 79.64 8.15
-4 -1 -1 95.2 7.66
4 -1 1 72.65 5.44
4 1 1 78.4 5.29
-4 -1 -2 227.52 12.15
-4 1 -2 231.66 14.18
4 1 2 238.28 10.02
4 -1 2 231.72 12.83
4 1 2 235.41 14.68
4 -1 2 240.32 11.24
-4 1 -2 230.03 13.59
-4 -1 -2 231.26 11.64
-4 -1 -3 335.6 15.62
-4 1 -3 321.28 17.19
4 1 3 352.14 13.5
4 -1 3 349.69 10.05
4 -1 3 324.14 15.76
4 1 3 319.99 17.75
4 -1 3 330.62 14.71
-4 1 -3 336.24 16.74
-4 -1 -3 351.89 14.34
4 -1 3 344.62 9.98
-4 -1 -4 316.7 15.71
-4 1 -4 337.69 18.09
-4 -1 -4 310.06 18.04
4 -1 4 326.47 11.4
4 -1 4 318.63 16
4 1 4 305.31 17.44
-4 1 -4 309.02 16.03
-4 -1 -4 329.92 13.41
4 -1 4 326.81 11.37
-4 -1 -5 2.01 3.62
-4 1 -5 3.78 3.99
4 -1 5 7.26 3.66
4 1 5 7.18 4.66
-4 1 -5 4.93 4.15
-4 -1 -5 19.76 6.5
-4 -1 -5 4.9 2.65
-4 -1 -6 34.56 6.35
-4 1 -6 26.48 6.74
4 -1 6 22.86 4.8
-4 -1 -6 28.16 6.53
-4 1 -6 25.33 5.56
-4 -1 -6 31.34 4.06
4 1 6 26.13 6.34
-4 -1 -7 135.24 11.53
-4 1 -7 132.74 12.55
-4 -1 -7 125.2 11.87
4 -1 7 146.7 11.84
4 1 7 128.85 12.59
-4 1 -7 143.95 11.53
-4 -1 -7 153.82 8.45
-4 -1 -8 48 8.38
-4 1 -8 70.38 9.29
4 -1 8 67.9 8.64
-4 -1 -8 63.76 8.75
4 1 8 55.23 8.78
-4 1 -8 52.83 7.5
-4 -1 -9 141.4 13.12
-4 1 -9 131.64 13.46
-4 -1 -9 131.88 12.15
-4 1 -9 147.65 11.98
4 -1 9 132.05 12.25
4 1 9 117.34 12.6
-4 1 -9 121.7 11.17
-4 -1 -10 35.94 7.59
-4 1 -10 38.82 8.97
4 1 10 35.95 8.26
-4 -1 -10 36 6.9
4 -1 10 42.68 7.66
-4 1 -10 31.1 6.25
-4 -1 -11 29.29 7.67
-4 1 -11 17.69 6.83
4 -1 11 20.67 6.33
4 1 11 35.19 8.46
-4 -1 -12 99.71 12.94
-4 1 -12 87.22 13.14
4 -1 12 69.53 10.48
4 1 12 84.97 12.32
-4 -1 -13 19.8 7.93
-4 1 -13 14.79 7.47
4 1 13 21.4 7.54
4 -1 13 28.39 7.59
-4 -1 -14 38.39 9.75
4 -1 14 27.03 7.86
4 1 14 27.42 8.05
4 -1 15 94.36 13.43
-4 2 15 88.09 13.55
-4 -2 15 96.15 13.45
4 2 -15 91.16 14.01
4 2 -15 97.23 12.53
-4 2 14 -3.62 7.2
-4 -2 14 0.39 5.65
4 -2 -14 14.79 8.03
4 2 -14 1.88 5.62
4 2 -14 8.33 4.8
-4 2 13 17.57 7.47
-4 -2 13 26.88 7.93
4 -2 -13 39.45 9.46
4 2 -13 19.8 6.42
4 -2 -13 11.7 5.64
4 2 -13 36.89 7.81
4 -2 -12 19.84 6.66
-4 -2 12 5.51 4.75
4 -2 -12 22.16 7.9
4 2 -12 7.31 5.68
4 2 -12 10.18 4.69
4 -2 -12 18.95 6.15
-4 2 12 18.94 7.88
-4 -2 11 3.54 5.12
4 -2 -11 21.04 6.97
4 -2 -11 10.52 6
4 2 -11 13.44 5.21
4 2 -11 14.09 6.49
4 -2 -11 16.87 5.46
-4 2 11 14.98 6.86
-4 -2 10 50.83 7.96
4 -2 -10 52.65 9.15
4 -2 -10 61.22 7.55
-4 -2 10 57.59 6.72
4 -2 -10 51.79 8.82
4 2 -10 55.5 7.82
4 2 -10 49.33 8.7
4 -2 -10 68.02 8.15
-4 2 10 56.08 9.85
4 -2 -9 315.54 20.43
-4 -2 9 351.18 15.65
4 2 -9 324.51 17.51
-4 -2 9 305.55 18.36
4 -2 -9 359.24 18.32
4 2 -9 356.95 16.46
4 -2 -9 315.96 19.88
-4 2 9 326.28 21.31
4 2 -9 338.93 20.59
4 -2 -9 367.4 17.52
4 -2 -8 214.74 16.12
4 2 -8 240.44 13.95
-4 -2 8 211.14 14.37
4 -2 -8 214.93 14
-4 -2 8 230.63 11.57
4 2 -8 220.99 12.47
4 -2 -8 199.87 15.3
-4 2 8 192.64 15.95
4 2 -8 201.02 15.42
4 -2 -8 241.84 12.89
4 -2 -7 695.62 29.78
4 2 -7 755.4 26.04
-4 -2 7 703.65 27.41
4 -2 -7 719.14 28.04
-4 -2 7 783.11 23.09
-4 2 7 708.13 30.97
4 2 -7 717.34 29.78
4 -2 -7 758.48 24.06
-4 -2 7 701.45 30.35
4 -2 -6 93.08 10.32
4 2 -6 113.68 8.44
-4 -2 6 103.81 9.17
4 -2 -6 102.78 9.67
-4 2 6 106.22 11.58
4 2 -6 107.77 10.75
4 -2 -6 112.66 7.53
-4 -2 6 93.05 10.38
4 -2 -5 124.07 11.48
4 2 -5 123.28 8.39
-4 -2 5 122.9 9.43
4 -2 -5 105.96 9.84
-4 2 5 115.76 4.49
-4 2 5 105.96 11.29
4 2 -5 128.77 11.33
4 -2 -5 121.76 6.95
-4 -2 5 129.21 11.41
4 -2 -4 49.14 7.21
-4 -2 4 53.07 7.35
-4 -2 4 44.69 5.58
4 2 -4 45.63 4.2
4 -2 -4 37.51 6.45
4 -2 -4 45.47 3.8
4 2 -4 34.58 6.18
-4 2 4 51.01 8.21
4 2 -4 50.78 5.2
-4 2 3 101.07 10.47
-4 2 3 107.7 5
-4 -2 3 89.12 7.31
-4 -2 3 120.41 7.42
4 -2 -3 88.73 9.54
4 2 -3 104.32 6.32
4 2 -3 107.26 10.03
4 -2 -3 119.1 5.63
-4 -2 3 110.65 9.43
4 2 -3 110.72 7.22
4 2 -3 115.83 8.48
4 -2 -3 96.19 9.86
4 -2 -2 19.28 2.21
-4 -2 2 21.22 4.06
4 -2 -2 25.18 6.48
4 2 -2 27.58 3.41
4 -2 -2 17.75 4.78
4 2 -2 15.06 5.26
-4 2 2 24.1 6.34
-4 -2 2 21.31 3.27
4 2 -2 15.58 3.57
-4 -2 2 21.69 4.72
-4 -2 1 267.5 11.56
-4 -2 1 271.99 11.38
-4 -2 1 237.47 11.72
4 -2 -1 248.86 15.99
4 2 -1 256.54 11.12
4 -2 -1 271.05 9.07
-4 -2 1 263.17 13.49
4 2 -1 263.66 12.37
-4 2 1 227.66 15.16
-4 -2 0 558.09 17.75
-4 -2 0 549.84 17.93
-4 2 0 520.39 23.33
-4 -2 0 567.08 24.57
4 -2 0 513.6 23.53
4 -2 0 551.14 16.9
-4 2 0 495.01 22.71
-4 -2 0 550.49 19.88
4 2 0 513.89 18.54
-4 -2 -1 102.94 6.76
-4 2 -1 102.86 9.7
-4 -2 -1 92.23 10.38
4 -2 1 110.15 7.82
4 -2 1 88.67 10.64
4 -2 1 110.33 7.22
-4 2 -1 93.33 9.53
-4 -2 -1 112.92 7.89
4 -2 1 111.51 6.34
4 2 1 91.49 7.12
-4 -2 -2 551.46 18.51
-4 2 -2 548.65 24.05
-4 -2 -2 499.82 24.01
4 -2 2 537.28 19.3
4 2 2 537.46 24.34
4 -2 2 466.41 22.97
4 -2 2 508.35 18.79
4 2 2 542.48 18.09
-4 2 -2 512.65 22.85
-4 -2 -2 540.69 17.93
4 -2 2 577.98 18.16
-4 -2 -3 113.53 7.91
-4 2 -3 110.49 10.59
-4 -2 -3 123.24 11.78
4 -2 3 123.85 5.27
4 -2 3 134.9 8.93
4 2 3 111.21 11.08
4 -2 3 129.01 12.04
4 -2 3 130.41 9.27
-4 2 -3 120.47 10.78
-4 -2 -3 128.05 7.19
-4 -2 -4 26.92 4.55
-4 2 -4 22.56 5.97
4 -2 4 32.47 3.35
4 -2 4 42.41 8.17
4 -2 4 23.53 4.65
-4 -2 -4 37.07 3.57
-4 -2 -4 35.11 7.38
4 -2 4 24.3 4.39
-4 2 -4 35.84 6.46
4 2 4 33.04 6.82
-4 -2 -5 40.61 5.82
-4 2 -5 33.73 6.78
4 -2 5 29.14 3.73
4 -2 5 36.31 8.28
4 -2 5 33.92 6.06
-4 -2 -5 37.56 3.19
4 -2 5 38.31 5.33
-4 -2 -5 33.89 6.93
-4 2 -5 29.89 6.34
4 2 5 48.08 7.66
-4 -2 -6 131.69 10.39
-4 2 -6 115.49 11.89
-4 -2 -6 123.39 11.97
4 -2 6 122.19 8.25
4 -2 6 132.12 10.15
4 2 6 112.95 11.6
4 -2 6 101.16 11.14
4 -2 6 120.94 10.84
-4 2 -6 125.52 11.26
-4 -2 -7 20.38 5.5
-4 2 -7 14.34 5.81
4 -2 7 15.51 4.01
4 -2 7 27.92 7.59
4 -2 7 15.25 5.37
4 -2 7 16.61 4.48
-4 -2 -7 8.44 4.58
4 2 7 11.08 4.86
-4 2 -7 16.46 5.02
-4 -2 -8 41.68 7.15
-4 2 -8 17.73 6.6
4 -2 8 34.48 5.64
4 -2 8 33.96 7.43
4 -2 8 27.16 6.67
-4 -2 -8 27.19 6.8
4 -2 8 34.12 6.32
4 2 8 47.57 8.77
-4 2 -8 35.22 6.91
-4 -2 -9 17.97 6.14
-4 2 -9 12.27 5.35
4 -2 9 19.33 5.22
4 -2 9 32.16 7.87
4 -2 9 11.79 5.14
-4 -2 -9 24.57 6.41
4 -2 9 15.26 4.92
4 2 9 16.21 5.65
-4 2 -9 10.24 4.59
-4 -2 -10 22.71 6.65
-4 2 -10 34.76 8.34
4 -2 10 33.17 6.76
4 -2 10 24.56 7.13
-4 -2 -10 28.32 6.61
4 -2 10 24.15 7.25
4 -2 10 27.7 6.35
4 2 10 21.88 6.72
-4 2 -10 19.62 5.83
-4 -2 -11 1.03 5.39
-4 2 -11 2.88 5.96
4 -2 11 5.2 5.06
-4 -2 -11 0.41 4.07
4 -2 11 -1.59 4.99
4 -2 11 -0.19 3.66
4 2 11 2.6 4.77
-4 2 -11 2.85 3.66
-4 -2 -12 11.7 6.23
-4 2 -12 5.27 6.08
4 -2 12 13.52 6.5
4 -2 12 19.75 6.2
4 2 12 17.17 7.55
-4 -2 -13 -6.45 6.29
-4 2 -13 3.88 7.72
4 -2 13 12.83 5.8
4 -2 13 -2.2 4.79
4 2 13 2.06 6.06
-4 -2 -14 18.95 7.67
-4 3 15 19.78 7.62
-4 3 14 8.95 6.63
-4 -3 14 21.87 7.62
4 -3 -14 22.74 8.58
4 3 -14 20.84 8.45
-4 -3 13 8.94 6.56
4 -3 -13 11.63 7.3
4 3 -13 15.42 6.96
-4 3 13 10.57 6
-4 -3 12 52.08 9.85
4 -3 -12 73.43 11.48
4 -3 -12 53.33 9.99
4 3 -12 49.4 10.13
-4 3 12 67.36 11.64
-4 -3 11 31.33 7.61
4 -3 -11 40.7 9.09
4 -3 -11 46.27 7.63
4 -3 -11 43.45 9.7
4 3 -11 38.98 9.11
-4 3 11 33.99 8.59
4 -3 -10 39.29 8.34
-4 -3 10 38.37 7.57
4 -3 -10 45.94 7.44
-4 -3 10 44.87 6.59
4 -3 -10 49.76 9.49
4 3 -10 30.51 8.02
-4 3 10 46.75 9.37
-4 -3 9 71.44 8.08
-4 -3 9 84.11 10.39
4 -3 -9 69.22 10.14
4 -3 -9 67.53 8.82
-4 -3 9 72.32 7.73
4 -3 -9 60.28 9.83
4 3 -9 63.51 9.93
-4 3 9 72.16 10.87
4 -3 -8 120.59 12.82
-4 -3 8 133.58 11.09
4 3 -8 140.45 10.02
-4 -3 8 120.59 11.63
4 -3 -8 136.98 12.19
-4 -3 8 148.11 10.38
4 -3 -8 131.92 13.23
-4 3 8 144.1 13.93
4 3 -8 141.48 13.83
4 3 -7 74.33 6.91
-4 -3 7 83.66 9.18
4 -3 -7 69.65 9.84
-4 -3 7 68.99 8.6
4 -3 -7 82.52 9.69
4 3 -7 72.61 10.4
-4 3 7 53.92 9.04
4 -3 -7 74.45 10.24
4 -3 -6 194.74 15.39
4 3 -6 211.09 10.68
-4 3 6 190.06 15.45
-4 -3 6 211.25 14.47
-4 -3 6 199.44 13.84
4 -3 -6 209.93 14.88
4 3 -6 176.64 14.57
-4 -3 5 168.32 12.71
-4 -3 5 134.55 11.03
4 -3 -5 150.95 12.75
4 3 -5 132.36 12.46
-4 3 5 133.46 13.14
4 3 -5 160.82 12.18
4 3 -5 144.85 8.03
4 -3 -5 156.85 13.36
-4 -3 4 34.27 4.1
-4 -3 4 28.43 5.23
4 -3 -4 28.86 6.71
-4 -3 4 35.69 7.24
4 3 -4 30.51 6.56
4 3 -4 39.18 3.88
-4 3 4 35.07 7.66
4 -3 -4 21.57 5.91
4 3 -4 32.53 6.21
-4 -3 3 51.35 6.78
4 3 -3 52.29 7.93
-4 3 3 60.68 4.81
4 -3 -3 45.29 7.41
-4 -3 3 53.02 3.95
-4 -3 3 62.82 8.57
4 -3 -3 46.82 7.62
-4 3 3 57.09 8.88
4 3 -3 50.64 6.78
-4 -3 3 56.94 4.61
-4 -3 2 77.95 4.94
-4 -3 2 71.45 7.71
-4 -3 2 87.52 4.71
-4 3 2 81.98 5.8
4 -3 -2 83.21 9.72
4 3 -2 74.48 9.29
4 -3 -2 73.38 9.3
-4 -3 2 87.99 9.98
-4 3 2 70.2 9.2
-4 3 2 77.82 4.55
4 3 -2 78.01 7.57
-4 -3 1 564.75 15.14
-4 -3 1 557.72 25.14
-4 -3 1 538.35 21.39
-4 -3 1 560.55 15.14
4 -3 -1 489.44 23.89
-4 3 1 518.71 24.51
4 3 -1 541.65 21.3
-4 3 1 514.6 13.72
-4 -3 0 149.22 6.34
-4 3 0 129.13 11.91
-4 -3 0 153.19 6.85
-4 -3 0 137.63 12.42
-4 -3 0 128.92 9.91
4 -3 0 122.36 11.72
4 -3 0 141.69 8.67
-4 3 0 134.9 12.39
4 3 0 140.65 10.17
-4 -3 -1 29.55 3.33
-4 -3 -1 24.55 2.75
-4 3 -1 26.86 6.46
4 -3 1 4.15 5.66
4 -3 1 25.63 4.37
4 -3 1 23.67 2.21
-4 -3 -1 22.27 6.15
-4 3 -1 12.34 4.96
4 -3 1 23.83 3.22
4 3 1 12.42 4.11
-4 -3 -2 658.73 18.33
-4 3 -2 543.07 25.94
-4 -3 -2 540.92 26.23
4 -3 2 634.25 16.38
4 -3 2 624.38 19.23
4 -3 2 562.19 26.42
4 3 2 552.39 26.42
4 -3 2 589.44 22.23
-4 3 -2 569.11 26.24
-4 -3 -2 666.94 19.82
-4 -3 -3 327.87 12.58
-4 3 -3 280.5 18.11
-4 -3 -3 289.68 18.4
4 -3 3 328.84 11.34
4 -3 3 325.2 12.97
4 3 3 283.76 18.39
4 -3 3 285.63 18.03
4 -3 3 301.94 15.51
-4 3 -3 298.42 18.53
-4 -3 -4 178.48 9.64
-4 3 -4 140.19 12.99
-4 -3 -4 144.09 13.12
4 -3 4 164.75 8.4
4 -3 4 170.62 9.49
4 3 4 166.28 14.07
4 -3 4 130.9 12.42
4 -3 4 151.76 11.39
-4 3 -4 143.21 12.79
-4 -3 -5 4.72 2.84
-4 3 -5 2.02 4.37
4 -3 5 2.32 2.55
4 -3 5 4.84 4.62
4 -3 5 0.91 3.4
-4 -3 -5 -2.76 5.1
4 -3 5 1.79 1.93
-4 3 -5 -3.05 4.16
4 3 5 5.15 5.24
-4 -3 -6 133.44 9.74
-4 3 -6 105.61 11.93
-4 -3 -6 106.38 11.69
4 -3 6 108.8 8.21
4 -3 6 128.75 9.08
4 3 6 116.16 12.34
4 -3 6 106.99 11.59
4 -3 6 113.37 10.9
-4 3 -6 111.58 11.6
-4 -3 -7 24.47 5.31
-4 3 -7 24.2 7
4 -3 7 16.11 4.04
4 -3 7 15.63 4.97
4 -3 7 18.9 5.86
-4 -3 -7 17.9 6.46
4 -3 7 26.5 4.88
4 3 7 19.52 5.8
-4 3 -7 10.05 4.81
-4 -3 -8 28.01 5.79
-4 3 -8 34.31 7.86
4 -3 8 22.88 4.71
4 -3 8 28.52 6.8
-4 -3 -8 25.51 7.24
4 -3 8 37.15 7.44
4 -3 8 37.74 5.71
4 3 8 25.96 6.93
-4 3 -8 26.67 6.56
-4 3 -9 151.32 15.62
-4 -3 -9 164.17 14.95
4 -3 9 152.46 11.9
4 3 9 158.74 15.73
4 -3 9 150.71 13.3
4 -3 9 147.87 14.38
-4 3 -9 145.93 14.28
-4 -3 -9 179.05 13.69
-4 -3 -10 28.78 6.9
-4 3 -10 12.59 7.09
-4 -3 -10 5.34 5.36
4 -3 10 10.4 4.64
4 -3 10 13.83 6.55
4 3 10 20.36 7.5
-4 3 -10 16.84 6.25
-4 -3 -11 71.63 9.99
-4 3 -11 44.67 9.72
-4 -3 -11 53.96 9.43
4 -3 11 53.16 9.65
4 3 11 79.62 12.07
-4 3 -11 54.93 9.52
-4 -3 -12 53.54 9.52
-4 3 -12 44.47 10.76
4 -3 12 48.83 9.94
4 3 12 51.71 10.44
-4 3 -12 37.75 8.33
-4 -3 -13 15.52 6.3
4 -3 13 16.61 7.61
-4 3 -13 6.83 4.57
-4 -3 -14 17.14 8.29
-4 4 14 9.24 6.81
-4 -4 13 11.65 6.81
4 -4 -13 12.26 6.9
4 4 -13 10.21 8.17
-4 4 13 19.81 7.79
4 -4 -12 3.98 6.56
-4 -4 12 3.39 5.29
4 4 -12 15.92 7.97
-4 4 12 9.78 7.02
-4 -4 11 106.9 13.14
4 -4 -11 100.58 13.19
4 -4 -11 122.19 12.05
4 -4 -11 110.95 13.67
4 4 -11 97.21 13.34
-4 4 11 94.52 13.06
4 -4 -10 100.18 12.79
-4 -4 10 78.85 11.06
4 -4 -10 92.4 10.9
-4 -4 10 106.52 10.56
4 -4 -10 95.93 12.87
-4 4 10 126.13 14.12
4 4 -10 98.51 12.71
4 -4 -9 187.05 16.81
-4 -4 9 190.52 15.99
4 -4 -9 210.93 16.16
-4 -4 9 212.37 14.29
4 -4 -9 187.4 16.66
-4 4 9 210 17.64
4 4 -9 226.14 18.71
4 -4 -8 18.76 7.06
-4 -4 8 26.36 7.07
4 -4 -8 39 7.45
-4 -4 8 21.75 5.27
4 4 -8 35.74 8.16
4 -4 -8 28.32 7.47
-4 4 8 22.39 6.48
4 -4 -7 96.51 11.94
-4 -4 7 74.29 9.56
4 -4 -7 80.18 10.26
-4 -4 7 78.58 8.98
4 -4 -7 66.08 10.44
4 4 -7 78.24 11.06
-4 4 7 69.14 10.44
4 -4 -6 25.56 7.32
-4 -4 6 27.1 6.1
4 -4 -6 14.74 5.53
4 -4 -6 21.33 7.12
-4 -4 6 23.54 5.45
4 4 -6 19.95 6.67
-4 4 6 28.48 7.99
4 4 -6 37.38 8.24
-4 -4 5 375.14 20.07
-4 -4 5 353.07 19.49
4 -4 -5 370.04 21.48
-4 4 5 343.46 21.46
4 4 -5 347.39 21.02
4 4 -5 418.79 21.18
4 -4 -5 369.2 21.79
-4 -4 4 70.89 8.64
4 -4 -4 67 9.33
-4 -4 4 70.2 9.18
4 4 -4 74.45 10.1
-4 4 4 64.2 9.48
4 -4 -4 59.26 8.93
4 4 -4 71.21 8.98
-4 -4 3 15.6 4.87
4 -4 -3 28.47 7.34
-4 -4 3 12.89 4.68
4 4 -3 16.74 6.48
4 -4 -3 16.18 6.21
-4 4 3 17.8 6.33
4 4 -3 22.94 5.8
-4 -4 2 12.53 4.96
4 -4 -2 6.52 4.7
-4 -4 2 -0.87 5.2
4 -4 -2 14.82 6.04
4 4 -2 3.68 4.25
-4 4 2 10.6 5.85
4 4 -2 0.79 4.34
-4 -4 1 106.72 11.01
-4 -4 1 115.44 10.51
4 -4 -1 104.44 11.64
-4 4 1 114.18 12.03
4 4 -1 125.86 10.74
-4 4 0 17.91 6.11
-4 -4 0 8.21 4.03
4 -4 0 11.09 5.23
-4 -4 0 10.87 5.48
-4 4 0 10.98 5.97
4 4 0 8.97 3.82
-4 4 -1 70 9.47
4 -4 1 81.77 10.52
4 -4 1 68.45 7.35
-4 -4 -1 73.47 10.02
-4 4 -1 78.43 10.52
4 4 1 78.04 8.78
-4 4 -2 492.33 25.12
-4 -4 -2 492.33 25.48
4 -4 2 569.83 17.58
4 -4 2 485.09 25.1
4 4 2 512.82 26
4 -4 2 510.82 21.76
-4 4 -2 461.32 25.04
-4 4 -3 17.41 5.98
4 -4 3 18.85 3.26
4 -4 3 3.62 5.21
-4 -4 -3 22.37 6.97
4 -4 3 15.4 4.79
-4 4 -3 9.8 5.33
4 4 3 16.18 5.88
-4 4 -4 27.16 7.47
-4 -4 -4 24.74 3.84
4 -4 4 25.35 4.2
4 -4 4 16.39 5.56
-4 -4 -4 23.28 6.73
4 -4 4 29.96 6.23
4 4 4 16.71 6.22
-4 4 -4 24.71 6.87
-4 4 -5 24.53 6.8
4 -4 5 49.44 5.63
4 -4 5 41.81 7.55
-4 -4 -5 49.15 8.69
4 -4 5 54.71 7.9
-4 -4 -5 54.68 6.01
-4 4 -5 44.68 8.75
4 4 5 40.79 8.1
-4 4 -6 5.7 4.83
-4 -4 -6 17.07 4.21
4 -4 6 15.77 5.15
-4 -4 -6 18.98 6.38
4 -4 6 20.13 5.72
4 4 6 22.52 7.19
-4 4 -6 17.41 6.48
-4 -4 -7 29.97 5.73
-4 4 -7 4.55 4.74
4 -4 7 14.49 5.94
-4 -4 -7 22.52 7.25
4 -4 7 16.73 5.93
4 4 7 18.21 6.21
-4 4 -7 17.69 6.19
-4 4 -8 178.01 16.63
-4 -4 -8 167.73 15.65
4 4 8 144.46 15.23
4 -4 8 148.11 13.98
4 -4 8 164.92 15.03
-4 4 -8 156.63 15.27
-4 -4 -8 187.03 13.63
-4 4 -9 17.83 7.31
-4 -4 -9 5.65 5.35
4 -4 9 29.59 7.41
4 -4 9 18.04 6.99
4 4 9 20.49 6.9
-4 -4 -9 20.82 6.23
-4 4 -9 10.24 5.94
-4 4 -10 53.09 10.42
-4 -4 -10 50.04 9.53
4 -4 10 57.4 10.38
4 4 10 46.65 9.56
-4 4 -10 42.73 8.67
-4 4 -11 7.43 7.7
-4 -4 -11 8.08 5.39
4 -4 11 15.1 7.09
4 4 11 -5.52 6.67
-4 4 -11 3.5 4.85
-4 -4 -12 37.21 8.74
4 -4 12 41.35 9.51
-4 4 -12 41.71 9.32
-4 4 -13 107.49 14.5
-4 5 13 16.83 8.19
-4 -5 12 14.03 6.52
4 5 -12 21.62 8.2
4 -5 -11 33.26 8.7
-4 -5 11 45.26 9.62
4 -5 -11 28.83 7.41
4 -5 -11 31.3 9.71
4 5 -11 41.53 9.96
-4 5 11 28.79 8.92
4 -5 -10 17.91 7.7
-4 -5 10 10.98 5.71
4 -5 -10 9.88 6.04
-4 -5 10 24.23 6.28
4 -5 -10 18.46 7
4 5 -10 25.43 8.77
-4 5 10 19.94 7.9
4 -5 -9 7.51 4.81
-4 -5 9 7.75 5.53
4 -5 -9 3.5 5.2
4 -5 -9 3.69 5.64
4 5 -9 16.98 8.15
-4 5 9 -1.46 4.91
4 -5 -8 32.03 8.71
-4 -5 8 26.32 7.64
4 -5 -8 35.25 7.87
-4 -5 8 31.39 6.26
4 -5 -8 38.01 9.01
4 5 -8 33.57 8.55
-4 5 8 25.56 7.42
4 -5 -7 23.11 7.35
-4 -5 7 45.04 8.56
4 -5 -7 43.69 8.86
-4 -5 7 43.44 7.54
4 5 -7 38.49 8.52
4 -5 -7 44.52 8.7
-4 5 7 26.05 7.77
4 5 -7 46.83 9.82
-4 -5 6 31.65 7.2
4 -5 -6 39.17 8.56
-4 -5 6 26.76 6.03
4 -5 -6 28.2 8.33
4 5 -6 33 8.42
-4 5 6 30.11 7.82
4 5 -6 29.55 7.77
4 -5 -6 28.46 7.21
-4 -5 5 52.91 8.69
4 -5 -5 47.54 8.8
-4 -5 5 61.1 8.77
4 -5 -5 53.34 9.47
4 5 -5 56.23 9.66
-4 5 5 69.29 10.95
4 -5 -5 61.65 10.04
4 5 -5 56.52 9.03
-4 -5 4 81.78 10.23
-4 -5 4 82.15 10.22
4 -5 -4 70.28 10.05
4 5 -4 62.16 9.89
4 -5 -4 80.32 10.99
-4 5 4 74.73 11
4 5 -4 68.75 9.79
-4 -5 3 70.08 9.46
4 -5 -3 57.88 9.36
-4 -5 3 66.75 9.3
4 -5 -3 62.5 10.09
4 5 -3 62.72 10.02
-4 5 3 60.82 9.96
4 5 -3 78.73 9.98
-4 -5 2 95.88 11.17
-4 -5 2 77.53 9.7
4 -5 -2 92.09 11.38
4 -5 -2 64.77 9.86
4 5 -2 74.23 10.31
-4 5 2 78.08 10.53
4 5 -2 87.31 10.46
-4 5 1 53.18 9.05
-4 -5 1 44.2 7.74
4 -5 -1 46.94 8.89
-4 -5 1 41.85 7.96
-4 5 1 38.82 8.38
4 5 -1 44 7.73
-4 5 0 13.45 5.62
-4 -5 0 9.65 4.85
4 -5 0 4.93 5.37
-4 -5 0 3.88 5.37
-4 5 0 5.33 5.1
4 5 0 0.62 4.15
-4 5 -1 443.5 24.66
-4 -5 -1 486.64 25.92
4 -5 1 433.28 24.88
4 5 1 467.33 25.41
4 -5 1 466.44 21.5
-4 5 -1 426.82 25.07
4 5 1 451.6 23.16
-4 5 -2 110.6 12.57
4 -5 2 109.22 12.64
4 5 2 119.15 12.78
-4 -5 -2 102.43 12.22
4 -5 2 113.69 10.59
-4 5 -2 107.61 12.82
-4 5 -3 8.86 5.5
4 -5 3 0.06 4.91
-4 -5 -3 2.67 4.7
4 -5 3 4.79 4.27
-4 5 -3 9.36 6.06
4 5 3 3.57 4.91
-4 5 -4 66.29 10.42
4 -5 4 96.07 11.81
-4 -5 -4 89.74 11.78
4 -5 4 90.63 10.24
-4 5 -4 82.41 11.84
4 5 4 80.09 11
-4 5 -5 -1.97 5.33
4 -5 5 1.22 4.6
-4 -5 -5 -2.87 5.07
4 -5 5 3.1 3.87
-4 5 -5 -3.18 5.31
4 5 5 3.64 4.3
-4 5 -6 75.58 11.46
-4 -5 -6 74.03 11.24
4 -5 6 78.47 10.62
4 -5 6 90.31 11.01
4 5 6 75.81 11.1
-4 5 -6 73.46 11.31
-4 5 -7 17.13 6.92
-4 -5 -7 35.18 8.41
4 -5 7 26.18 6.56
4 -5 7 18.69 6.46
4 5 7 21.49 7.1
-4 5 -7 22.73 7.85
-4 5 -8 10.68 5.4
-4 -5 -8 11.24 6.77
4 -5 8 14.25 6.18
4 -5 8 8.85 5.75
4 5 8 15.47 7.05
-4 5 -8 7.28 5.64
-4 5 -9 9.43 6.32
-4 -5 -9 9.62 6.07
4 -5 9 19.79 6.96
4 -5 9 10.2 6.02
4 5 9 14.09 6.87
-4 5 -9 16.55 7.2
-4 5 -10 23.74 8.9
-4 -5 -10 18.95 7.2
4 -5 10 20.06 7.36
4 5 10 16.27 6.93
-4 5 -10 9.16 6.56
-4 -5 -11 70.27 12.03
4 -5 11 80 13.02
-4 5 -11 62.75 11.45
-4 -5 -12 146.08 16.59
-4 5 -12 150.13 17.48
-4 6 12 98.2 13.97
-4 -6 11 66.05 11.6
-4 6 11 60.96 11.35
4 -6 -10 51.86 10.95
-4 -6 10 49.31 9.84
4 -6 -10 53.34 10.86
4 6 -10 36.98 9.94
-4 6 10 47.95 10.07
4 -6 -9 14.47 6.67
-4 -6 9 7.58 5.74
4 -6 -9 -1.22 5.64
4 -6 -9 14.25 7.02
4 6 -9 14.93 6.6
-4 6 9 15.11 7.11
4 -6 -8 5.61 5.95
-4 -6 8 0.51 5.17
4 -6 -8 4.23 5.94
4 -6 -8 3 5.47
4 6 -8 1.08 5.52
-4 6 8 -3.51 5.99
-4 -6 7 35.5 8.67
4 -6 -7 29.26 7.6
-4 -6 7 43.21 8
4 -6 -7 33.23 8.21
4 6 -7 31.97 8.93
-4 6 7 25.94 8.1
4 -6 -7 33.26 8.55
4 6 -7 49.11 10.49
-4 -6 6 64.7 10.11
4 -6 -6 75.82 11.82
-4 -6 6 83.8 10.29
4 -6 -6 68.36 11.18
4 6 -6 59.94 10.36
-4 6 6 79.72 11.68
4 -6 -6 77.29 11.49
4 6 -6 78.8 11.84
-4 -6 5 97.5 11.44
-4 -6 5 80.29 11.28
4 -6 -5 76.62 11.9
4 -6 -5 93.62 12.4
4 6 -5 82.33 12.23
4 -6 -5 78.49 11.88
-4 6 5 85.11 12.18
4 6 -5 73.96 11.14
-4 -6 4 18.89 6.61
4 -6 -4 17.7 6.82
-4 -6 4 22.35 6.62
4 -6 -4 24.46 7.78
4 6 -4 12.59 6.93
-4 6 4 10.62 6.27
4 6 -4 17.64 6.47
4 -6 -4 20.64 7.27
-4 -6 3 37.42 7.84
4 -6 -3 24.52 7.92
-4 -6 3 34.45 7.7
4 -6 -3 49.4 8.83
4 -6 -3 36.67 8.41
4 6 -3 47.5 9.76
-4 6 3 30.68 8.2
4 6 -3 40.4 8.33
-4 -6 2 38.42 8.28
4 -6 -2 30.75 7.62
-4 -6 2 36.69 7.99
4 6 -2 33.88 8.02
-4 6 2 44.82 9.48
4 6 -2 38.99 8.24
-4 6 1 1.34 4.93
-4 -6 1 -3.71 5.12
4 -6 -1 11.41 6.45
-4 -6 1 10.5 5.89
4 6 -1 4.54 5.56
-4 6 1 6.71 5.95
4 6 -1 2.35 5.48
-4 6 0 -0.68 4.97
-4 -6 0 6.34 5.31
4 -6 0 -3.44 5.58
-4 -6 0 0.79 4.51
-4 6 0 0.03 5.26
4 6 0 8.21 5.38
4 6 0 -2.89 5.29
-4 6 -1 54.1 9.79
4 -6 1 70.16 10.91
-4 -6 -1 53.11 9.78
-4 6 -1 66.93 10.62
4 6 1 65.68 10.22
4 6 1 58.13 9.54
-4 6 -2 208.83 17.55
-4 -6 -2 210.89 18.18
4 -6 2 205.09 17.73
4 6 2 237.11 18.7
4 -6 2 203.27 15.64
-4 6 -2 198.73 18.15
4 6 2 222.26 17.42
-4 6 -3 0.19 5.64
-4 -6 -3 3.23 5.59
4 -6 3 11.26 6.99
4 -6 3 6.88 4.7
-4 6 -3 12.33 7.3
4 6 3 3.31 5.01
-4 6 -4 2.93 4.91
-4 -6 -4 9.74 6.43
4 -6 4 12.03 6.45
4 -6 4 7.84 5
-4 6 -4 6.1 6.06
4 6 4 9.51 5.62
-4 6 -5 51.72 9.76
-4 -6 -5 50.07 10.35
4 -6 5 44.71 9.15
4 -6 5 52 8.97
-4 6 -5 44.13 9.97
4 6 5 35.25 8.54
-4 6 -6 34.23 8.47
-4 -6 -6 29.45 9.09
4 -6 6 27.47 7.27
4 -6 6 38.59 8.29
4 6 6 25.4 7.56
-4 6 -6 33.6 8.81
-4 6 -7 6.05 5.19
-4 -6 -7 8.92 5.69
4 -6 7 14.71 6.49
4 -6 7 14.33 6.8
4 6 7 9.18 6.17
-4 6 -7 8.47 6.36
-4 6 -8 10.06 6.8
-4 -6 -8 3.76 6.24
4 -6 8 -6.57 5.7
4 -6 8 -2.19 5.43
4 6 8 1.99 5.4
-4 6 -8 1.58 5.47
-4 -6 -9 -3.78 6.45
4 -6 9 4.22 5.51
-4 6 -9 1.22 5.93
-4 7 10 16.66 7.97
-4 7 9 29.03 9.15
-4 -7 8 -2.82 5.69
4 -7 -8 3.94 6.2
4 -7 -8 14.19 8.02
-4 7 8 0.28 5.87
4 -7 -8 -5.17 5.72
-4 -7 7 -1.29 5.08
4 -7 -7 8.35 6.55
4 -7 -7 5.75 6.99
4 7 -7 3.3 6.61
4 -7 -7 2.86 5.38
-4 7 7 -2.2 7.04
4 7 -7 11.51 8.01
-4 -7 6 16.16 6.86
-4 -7 6 9.31 5.71
4 -7 -6 17.98 7.39
4 -7 -6 12.69 6.84
4 7 -6 13.18 7.12
4 -7 -6 10.93 6.67
-4 7 6 7.92 7.02
4 7 -6 12.78 6.6
-4 -7 5 76.09 11.68
-4 -7 5 87.49 11.79
4 -7 -5 84.49 12.86
4 -7 -5 87.53 13.14
4 -7 -5 80.08 12.84
4 7 -5 78.07 12.68
-4 7 5 89.5 12.94
4 7 -5 88.43 12.74
-4 -7 4 -0.12 5.07
-4 -7 4 -4.73 5.24
4 -7 -4 0.95 5.46
4 -7 -4 5.85 6.1
4 -7 -4 4.88 6.22
4 7 -4 -9.34 6.95
-4 7 4 5.42 6.16
4 7 -4 3.43 6.29
-4 -7 3 32.26 8.75
-4 -7 3 31.24 8.07
4 -7 -3 19.32 7.55
4 -7 -3 29.57 8
4 7 -3 37.71 9.74
-4 7 3 34.66 9.15
4 7 -3 34.21 8.67
-4 7 2 26.34 8.19
-4 -7 2 20.58 7.07
-4 -7 2 11.93 6.41
4 -7 -2 7.66 6.32
4 -7 -2 12.32 6.78
4 7 -2 15.55 7.13
-4 7 2 16.12 7.36
4 7 -2 16.11 6.35
-4 7 1 21.07 7.07
-4 -7 1 38.91 8.59
-4 -7 1 23.46 7.37
4 -7 -1 31.05 7.68
4 -7 -1 36.38 9.07
4 7 -1 24.66 7.34
-4 7 1 23.91 8
4 7 -1 29.19 7.81
4 7 -1 33.4 8.39
-4 7 0 40.89 8.5
-4 -7 0 53.33 10.06
4 -7 0 39.06 9.42
4 7 0 58.68 10.5
-4 7 0 44.6 10.14
4 7 0 38.79 8.92
4 7 0 57.03 9.87
-4 7 -1 87.41 12.18
-4 -7 -1 90.83 12.76
4 -7 1 77.66 12.01
-4 7 -1 86.89 12.99
4 7 1 80.5 11.9
4 7 1 81.32 11.6
-4 7 -2 33.7 8.57
-4 -7 -2 34.91 8.61
4 -7 2 33.29 9.33
-4 7 -2 35.52 9.08
4 7 2 23.39 7.09
4 7 2 42.23 9.31
-4 7 -3 3.58 5.65
-4 -7 -3 19.11 7.87
4 -7 3 5.67 5.94
-4 7 -3 12.66 7.76
4 7 3 12.09 6.53
4 7 3 -3.01 5.73
-4 7 -4 30.48 8.39
-4 -7 -4 31.69 8.71
4 -7 4 13.09 6.9
4 -7 4 31.07 7.66
4 7 4 21.6 7.32
-4 7 -4 21.51 7.95
-4 7 -5 23.27 7.4
-4 -7 -5 33.45 9.49
4 -7 5 43.92 9.43
4 -7 5 37.05 8.2
4 7 5 42.24 9.56
-4 7 -5 49.15 10.64
-4 7 -6 63.26 10.81
-4 -7 -6 62.88 12.04
4 -7 6 88.58 12.96
4 -7 6 86.94 12.28
4 7 6 72.4 11.91
-4 7 -6 88.64 14.11
4 -7 7 -2.15 5.99
4 -7 7 1.72 5.37
4 7 7 1.42 5.75
-4 -8 5 117.77 14.16
4 -8 -5 120.91 15.59
4 -8 -5 93.59 14.01
-4 8 5 108.16 14.9
-4 -8 4 24.5 8.55
-4 -8 4 30.06 8.47
4 -8 -4 16.19 7.42
-4 8 4 33.06 9.53
4 8 -4 13.93 7.85
-4 8 3 4.14 5.06
-4 -8 3 0.5 6.03
-4 -8 3 0.75 5.22
4 -8 -3 1.87 5.49
-4 8 3 7.89 7.11
4 8 -3 -7.07 7.62
-4 8 2 -0.7 5.43
-4 -8 2 9.56 5.58
-4 -8 2 2.85 5.13
4 -8 -2 7.41 6.12
4 8 -2 6.39 6.71
-4 8 2 -4.16 6.5
4 8 -2 6.61 6.13
4 8 -2 3.66 5.84
-4 8 1 65.68 11.28
-4 -8 1 67.93 11.41
-4 -8 1 50.91 10.41
4 -8 -1 48.29 9.83
4 8 -1 64.59 11.72
-4 8 1 47.76 10.45
4 8 -1 66.94 11.23
4 8 -1 44.1 10.27
-4 8 0 13.48 7.05
-4 -8 0 21.16 8.45
4 -8 0 36.09 8.75
4 8 0 23.64 8.52
-4 8 0 8.4 6.82
4 8 0 26.05 7.93
4 8 0 8.25 5.65
-4 8 -1 24.24 7.72
-4 -8 -1 37.36 10.16
4 -8 1 42.65 10.44
4 -8 1 29.65 7.56
4 8 1 36.31 9.82
4 8 1 23.56 7.62
4 8 1 14.47 7.9
-4 8 -2 166.64 17.61
4 -8 2 129.85 16.34
4 8 2 149.21 16.44
4 8 2 135.68 16.43
-4 8 -3 11.1 6.37
4 8 3 0.84 5.15
4 8 3 1.97 6.88
4 8 4 2.77 5.39
4 -8 5 6.9 5.97
5 0 -15 0.78 6.13
5 0 -15 6.96 6.77
5 0 -14 109.36 14.33
5 0 -14 147.75 15.59
-5 0 13 9.88 6.49
5 0 -13 19.26 7.62
5 0 -13 21.77 7.58
-5 0 12 -3.68 6.27
5 0 -12 2.84 5.57
5 0 -12 -2.52 4.96
5 0 -12 -0.6 4.67
-5 0 11 7.18 6.46
5 0 -11 8.79 6.06
5 0 -11 4.57 4.83
5 0 -11 10.42 5.06
-5 0 10 8.35 7
5 0 -10 5.74 4.56
5 0 -10 -0.11 4.72
5 0 -10 1.81 4.46
5 0 -9 7.57 4.58
-5 0 9 14.4 4.51
5 0 -9 3.87 3.72
5 0 -9 17.46 5.64
5 0 -9 9.2 4.85
-5 0 9 18.55 7.64
5 0 -8 150.62 12.92
-5 0 8 148.14 10.91
5 0 -8 138.68 11.93
5 0 -8 164.36 12.86
-5 0 8 137.29 14.12
5 0 -7 99.11 10.58
5 0 -7 120.56 11.27
5 0 -7 113.56 10.39
-5 0 7 104.7 12.21
5 0 -6 3.11 4.15
5 0 -6 14.41 6.19
5 0 -6 3.37 3.96
-5 0 6 1.83 5.39
5 0 -5 45.6 6.64
5 0 -5 50.68 7.37
-5 0 5 36.84 7.95
5 0 -4 3.86 3.09
5 0 -4 6.84 4.01
-5 0 4 1.66 5.02
5 0 -3 3.89 3.88
5 0 -3 7.17 3.76
-5 0 3 4.72 5.03
5 0 -2 221.65 12.86
-5 0 2 215.84 14.99
-5 0 1 356.25 18.09
-5 0 1 327.55 18.05
-5 0 0 -0.61 3.72
-5 0 0 -0.28 4.23
-5 0 -1 597.98 24.47
-5 0 -1 554.04 23.59
-5 0 -2 15.71 4.8
5 0 2 14.53 5.06
-5 0 -2 6.82 3.8
-5 0 -3 331.24 18.12
5 0 3 327.62 18.75
-5 0 -3 332.2 17
-5 0 -4 138.8 12.07
5 0 4 120.87 11.54
-5 0 -4 140.6 10.7
-5 0 -5 -2.46 4.33
5 0 5 -0.52 4
-5 0 -5 0.47 2.9
-5 0 -6 48.23 8.19
5 0 6 36.12 6.89
-5 0 -6 47.61 6.32
-5 0 -7 57.68 8.91
5 0 7 67.24 9.37
-5 0 -7 56.89 9.46
-5 0 -8 7.3 5.12
5 0 8 15.51 5.53
-5 0 -8 13.55 6.25
-5 0 -9 16.41 6.87
5 0 9 12.9 5.54
-5 0 -9 20.31 6.29
-5 0 -10 80.92 11.72
5 0 10 89.26 11.59
-5 0 -10 81.96 10.77
-5 0 -11 45.87 9.97
5 0 11 38.2 8.21
-5 0 -12 71.61 12.18
5 0 12 86.78 12.9
-5 0 -13 1.58 5.6
5 0 13 0.15 5.03
5 1 -15 105.22 14.65
5 -1 -14 48.72 10.55
5 1 -14 39.63 8.81
5 1 -14 44.53 10.04
-5 1 13 5.32 6.75
-5 -1 13 -9.98 7.49
5 -1 -13 4.54 6.46
5 1 -13 9.91 5.59
5 -1 -13 9.81 5.7
5 1 -13 0.05 5.03
-5 1 12 7.72 5.46
5 -1 -12 28.52 8.09
-5 -1 12 7.1 4.49
5 1 -12 17.38 6.23
5 -1 -12 24.23 7.39
5 1 -12 9.21 6.08
-5 -1 11 65.84 11.08
5 -1 -11 52.8 9.57
-5 -1 11 55.88 8.54
5 1 -11 60.92 9.55
5 -1 -11 73.95 10.7
5 1 -11 73.24 10.59
5 -1 -11 66.02 8.96
-5 1 11 66.18 11.01
-5 -1 10 35.62 8.42
5 -1 -10 29.23 7.26
5 1 -10 44.69 7.8
-5 -1 10 29.78 6.3
5 -1 -10 35.12 6.35
5 1 -10 37.44 7.1
5 -1 -10 35.27 7.8
5 1 -10 30.39 7.31
5 -1 -10 30.5 6.78
-5 1 10 30.24 8.02
-5 -1 9 55.62 10.13
5 -1 -9 60.11 9.37
5 1 -9 52.25 7.94
-5 -1 9 45.02 6.84
5 1 -9 64.94 7.99
5 -1 -9 43.45 7.02
5 1 -9 59.98 8.35
5 -1 -9 45.45 8.24
5 1 -9 49.96 8.52
5 -1 -9 56.63 7.76
-5 1 9 74.58 11.52
5 -1 -8 283.11 18.87
5 1 -8 296.24 17.42
-5 -1 8 289.28 16.13
5 -1 -8 286.9 17.39
5 1 -8 320.1 17.7
5 1 -8 255.64 17.56
-5 1 8 269.98 20.05
5 -1 -8 293.65 15.9
-5 -1 8 291.93 20.45
5 -1 -7 280.67 18.21
5 1 -7 271.98 16.4
-5 -1 7 286.8 15.09
5 -1 -7 259.96 16.8
-5 1 7 253.38 18.93
5 1 -7 293.85 17.79
5 -1 -7 284.02 15.09
-5 -1 7 310.12 20.05
-5 -1 6 123.19 9.11
5 -1 -6 123.42 11.42
-5 1 6 117.74 12.67
5 1 -6 126.41 11.26
5 -1 -6 106.53 8.9
-5 -1 6 116.81 12.17
5 1 -6 111.73 10.25
5 -1 -6 109.72 11.09
-5 -1 5 15.04 3.71
5 -1 -5 8.26 5.57
5 1 -5 18.47 5.42
5 -1 -5 16.74 4.19
5 1 -5 16.65 4.54
-5 1 5 13.98 6.57
5 -1 -5 14.53 4.83
-5 -1 5 17.33 6.27
-5 -1 4 17.23 3.34
5 -1 -4 34.54 7.92
5 1 -4 19.24 4.54
5 1 -4 16.96 4.75
5 -1 -4 21.12 4.11
5 -1 -4 15.96 5.26
-5 1 4 12 6.08
-5 -1 4 13.88 5.35
-5 -1 3 21.3 3.46
5 -1 -3 21.74 7.19
5 -1 -3 20.28 5.69
5 1 -3 25.12 5.95
5 -1 -3 19.14 3.78
-5 1 3 11.84 6.1
-5 -1 3 22.13 6.39
-5 -1 2 206.63 9.1
5 -1 -2 222.57 16.34
-5 1 2 186.4 14.35
5 1 -2 190.3 13.2
5 -1 -2 217.73 11.23
-5 -1 2 200.07 13.84
-5 -1 1 121.14 9.62
-5 1 1 119.15 11.52
5 -1 -1 122.15 8.43
-5 -1 1 132.31 10.91
-5 -1 0 388.72 17.49
-5 1 0 360.04 19.37
-5 1 0 333.13 18.97
-5 -1 0 362.16 17.7
5 1 0 363.95 12.13
-5 -1 -1 100.39 8.99
-5 1 -1 100.22 10.3
5 -1 1 115.33 6.85
-5 1 -1 97.28 10.21
-5 -1 -1 107.81 9.57
5 1 1 103.21 5.95
-5 -1 -2 105.86 9.06
-5 1 -2 95.78 10.32
5 -1 2 108.58 9.95
5 1 2 99.7 10.77
5 -1 2 96.94 7.37
-5 1 -2 106.42 10.34
-5 -1 -2 116.93 9.42
5 1 2 113.56 6.53
-5 -1 -3 478.54 21.04
-5 1 -3 472.95 23.29
5 -1 3 505.08 22.27
5 1 3 464.47 23.81
5 -1 3 484.43 19.13
-5 1 -3 473.59 22.45
-5 -1 -3 511.68 20.06
-5 -1 -4 128.25 10.68
-5 1 -4 103.62 11.12
-5 -1 -4 120.2 13.01
5 -1 4 115.65 10.46
5 1 4 95.35 10.71
5 -1 4 106.92 9.21
-5 1 -4 112.71 10.57
-5 -1 -4 114.67 8.88
-5 -1 -5 108.93 10.51
-5 1 -5 101.47 11.16
-5 -1 -5 123.91 13.41
5 -1 5 126.26 11.07
5 1 5 106.94 11.52
5 -1 5 112.45 10.2
-5 1 -5 107.61 10.45
-5 -1 -5 104.92 8.18
-5 -1 -6 31.94 6.73
-5 1 -6 37.66 7.68
5 -1 6 26.44 5.96
5 -1 6 39.5 6.86
5 1 6 39.7 7.75
-5 -1 -6 29.68 7.95
-5 1 -6 29.38 6.2
-5 -1 -7 28.92 6.27
-5 1 -7 35.46 7.88
5 -1 7 35.66 7.12
5 1 7 31.87 7.29
-5 -1 -7 20.99 7.1
-5 1 -7 26.99 6.11
-5 -1 -8 48.45 8.31
-5 1 -8 53.55 9.29
5 -1 8 54.5 8.36
5 1 8 66.96 10.07
-5 -1 -8 39.09 8.36
-5 1 -8 50.1 7.69
-5 -1 -9 50.16 9.1
-5 1 -9 52.97 9.37
5 -1 9 33.11 7.13
-5 -1 -9 43.13 8.59
5 1 9 41.28 8.61
-5 1 -9 65.42 9.79
-5 -1 -10 80.03 10.99
-5 1 -10 92.2 12.74
5 -1 10 71.73 10.3
-5 -1 -10 81.47 11.04
5 1 10 61.36 10.3
-5 -1 -11 31.84 8.37
-5 1 -11 31.19 9.11
5 -1 11 45.33 9.63
5 -1 11 45.08 9.49
5 -1 11 40.54 8.11
5 1 11 40.21 8.84
-5 -1 -12 20.72 7.59
-5 1 -12 28.81 9.7
5 -1 12 41.57 9.71
5 -1 12 33.75 8.4
5 1 12 20.22 7.78
-5 -1 -13 10.87 6.88
5 -1 13 22.06 7.56
-5 -2 14 67.14 10.9
5 2 -14 79.92 12.58
5 -2 -13 58.18 10.95
-5 -2 13 52.42 9.28
5 -2 -13 53.94 10.03
5 2 -13 58.18 11.14
-5 2 13 62.95 11.9
5 -2 -12 64 10.61
-5 -2 12 75.03 10.5
5 -2 -12 73.43 11.37
5 2 -12 50.44 10.03
-5 2 12 60.2 11.45
5 -2 -11 47.26 9.65
-5 -2 11 60.63 9.58
5 -2 -11 53.04 9.93
5 2 -11 50.28 9.39
-5 2 11 64.35 11.33
5 -2 -10 30.44 8.03
-5 -2 10 41.98 7.88
5 -2 -10 47.77 7.77
5 -2 -10 29.27 7.8
5 2 -10 44.47 8.71
-5 2 10 41.91 9.74
5 -2 -9 45.85 8.89
-5 -2 9 45.05 7.37
5 -2 -9 48.72 7.97
5 -2 -9 46.75 8.76
5 2 -9 38.29 8.44
-5 2 9 48.81 9.79
-5 -2 8 82.19 10.96
5 2 -8 79.79 8.62
5 -2 -8 57.33 9.59
-5 -2 8 80.39 8.97
5 -2 -8 96.61 10.72
5 -2 -8 81.79 11.3
5 2 -8 71.68 10.31
-5 2 8 87.35 12.27
5 -2 -7 101.04 11.66
5 2 -7 104.81 9.38
-5 -2 7 91.95 9.22
5 -2 -7 103.37 10.96
5 2 -7 110.45 11.9
-5 -2 7 121.42 12.55
-5 2 7 104.06 12.75
-5 -2 6 190.32 12.55
5 -2 -6 199.98 15.11
-5 2 6 200.28 16.56
5 2 -6 204.39 15.32
-5 -2 6 180.3 15.03
5 2 -6 193.31 12.1
5 -2 -6 190.51 15.37
-5 -2 5 129.45 9.75
5 -2 -5 106.65 11.38
-5 2 5 128.54 13.17
5 2 -5 121.93 11.78
-5 -2 5 115.48 11.77
5 2 -5 121.96 9.38
5 -2 -5 121.16 12.15
-5 -2 4 44.69 7.49
-5 -2 4 41.25 5.67
5 -2 -4 54.27 8.77
5 2 -4 45.2 5.84
5 2 -4 36.36 6.8
5 -2 -4 55.94 8.69
-5 2 4 37.29 8.36
-5 -2 3 75.93 7.09
5 -2 -3 69.52 9.69
5 -2 -3 67.41 9.32
-5 -2 3 80.86 9.21
5 2 -3 58.22 8.3
-5 2 3 69.65 10.06
-5 -2 2 36.26 4.98
-5 -2 2 33.25 4.73
5 -2 -2 32.16 7.59
5 -2 -2 44.24 4
5 2 -2 28.04 6.05
-5 2 2 24.6 6.8
5 2 -2 38.31 5.12
-5 -2 2 41.67 6.91
-5 -2 1 7.39 2.54
5 -2 -1 9.86 6.92
5 -2 -1 5.53 2.06
-5 2 1 2.32 4.64
5 2 -1 5.66 2.56
-5 -2 1 13.57 4.84
-5 -2 0 340.55 14.97
-5 2 0 312.34 19.13
-5 -2 0 317.54 20.3
5 -2 0 267.76 18.82
-5 2 0 289.52 18.61
-5 -2 0 337.79 16.55
5 2 0 337.32 14.26
-5 -2 -1 32.98 4.79
-5 2 -1 35.46 7.05
5 -2 1 39.65 9.24
-5 -2 -1 42.85 9.14
-5 2 -1 29.75 7.06
5 -2 1 38.26 5.49
5 2 1 35.84 4.6
-5 -2 -1 47.06 6.2
-5 -2 -2 226.31 12.33
-5 2 -2 205.32 15.62
-5 -2 -2 205.46 16.86
5 -2 2 218.48 13
5 2 2 201.07 15.91
5 -2 2 184.23 15.58
5 -2 2 213.96 11.49
-5 2 -2 203.25 15.47
-5 -2 -2 234 12.45
5 2 2 238.15 12.09
-5 -2 -3 589.43 21.95
-5 2 -3 561.42 27.01
-5 -2 -3 572.45 28.32
5 -2 3 565.51 22.69
5 2 3 522.03 26.87
5 -2 3 505.96 26.8
5 -2 3 579.85 21.91
-5 2 -3 548.8 25.67
-5 -2 -3 591.47 20.3
-5 -2 -4 40.14 5.81
-5 2 -4 38.72 7.92
5 -2 4 62.61 10.39
5 -2 4 36.93 5.97
-5 -2 -4 50.85 9.36
5 -2 4 39.55 5.84
5 2 4 30.54 6.76
-5 2 -4 43.28 7.57
-5 -2 -5 15.18 4.5
-5 2 -5 24.6 6.63
5 -2 5 17.87 7.29
5 -2 5 17.5 4.71
5 -2 5 19.84 4.59
-5 -2 -5 10.27 5.94
5 2 5 6.24 4.18
-5 2 -5 8.5 4.35
-5 -2 -6 27.01 5.5
-5 2 -6 33.88 7.86
5 -2 6 34.74 8.72
5 -2 6 25.59 6.05
5 -2 6 33.57 5.7
-5 -2 -6 28.92 7.02
5 2 6 32.5 7.56
-5 2 -6 33.41 6.88
-5 -2 -7 43.46 7.09
-5 2 -7 51.1 9.51
5 -2 7 52.45 9.78
5 -2 7 52.22 8.28
5 -2 7 40.83 6.49
-5 -2 -7 35.23 8.07
5 2 7 38.91 8.31
-5 2 -7 50.19 8.28
-5 -2 -8 6.96 4.69
-5 2 -8 9.64 6.53
5 -2 8 23.04 8.26
5 -2 8 14.62 5.12
5 -2 8 5.38 3.26
-5 -2 -8 1.41 5.16
5 2 8 10.8 6.08
-5 2 -8 5.34 4.37
-5 -2 -9 37.19 7.76
-5 2 -9 41.49 9.16
5 -2 9 39.38 8.93
5 -2 9 31.54 7.44
-5 -2 -9 26.92 7.44
5 -2 9 32.02 6.72
5 2 9 25.77 7.4
-5 2 -9 36.42 7.5
-5 -2 -10 87.12 11.53
-5 2 -10 71.23 12.12
5 -2 10 75.53 11.31
5 -2 10 71.56 11.22
-5 -2 -10 63.39 10.07
5 2 10 65.68 11.33
-5 -2 -11 31.24 8.23
-5 2 -11 22.09 7.68
-5 -2 -11 31.13 7.68
5 -2 11 18.3 7.11
5 2 11 14.76 7.65
5 -2 12 16.62 7.38
-5 -3 14 2.73 5.53
-5 -3 13 2.54 5.07
5 -3 -13 9.92 7.39
5 3 -13 7.89 6.36
5 -3 -12 1.65 5.78
-5 -3 12 4.57 5.41
5 -3 -12 2.89 6.11
5 3 -12 0.75 6.8
-5 3 12 7.86 6.29
5 -3 -11 8.93 6.39
-5 -3 11 13.05 5.24
5 -3 -11 26.36 8.6
5 3 -11 26.5 8.8
-5 3 11 25.01 8.68
5 -3 -10 132.14 14.81
-5 -3 10 126.38 12.97
5 -3 -10 124.47 12.32
5 -3 -10 110.39 13.47
5 3 -10 115.48 13.86
-5 3 10 125.36 14.99
5 -3 -9 62.11 10.59
-5 -3 9 92.28 10.67
-5 -3 9 65.51 9.26
5 -3 -9 71.01 9.77
5 -3 -9 81.76 11.53
5 3 -9 88.05 11.91
-5 3 9 65.51 10.85
5 -3 -8 165.4 15.84
-5 -3 8 172.03 14.28
-5 -3 8 130.46 12.24
5 -3 -8 155.72 14.16
5 -3 -8 144.6 14.74
-5 3 8 149.59 15.48
5 3 -8 140.65 14.44
-5 -3 7 177.73 14.56
-5 -3 7 130.56 11.87
5 -3 -7 154.31 14.2
-5 3 7 147.05 15.41
5 3 -7 158.89 14.86
5 -3 -7 159.47 15.24
-5 -3 6 36.84 6.81
5 -3 -6 40.74 8.2
5 3 -6 22.11 6.49
-5 -3 6 52.24 8.57
-5 3 6 22.1 7.13
5 -3 -6 32.97 7.27
-5 -3 5 57.9 7.59
5 -3 -5 64.94 9.87
5 3 -5 52.09 8.67
-5 -3 5 65.56 9.71
5 -3 -5 55.58 9.03
-5 3 5 44.74 9.3
-5 -3 4 167.63 14.67
-5 -3 4 153.44 11.62
5 -3 -4 118.35 12.44
-5 3 4 158.77 14.99
5 3 -4 146.85 13.72
5 -3 -4 169.76 15.07
5 3 -4 178.48 12.74
-5 -3 3 2.02 3.4
5 -3 -3 -6.28 6.35
5 -3 -3 -2.12 4.75
5 3 -3 0.36 5.1
-5 -3 3 1.49 4.67
-5 3 3 8.46 6
5 3 -3 -0.28 4
-5 -3 2 149.53 14.15
-5 -3 2 141.91 10.75
5 -3 -2 122.06 12.8
-5 3 2 133.41 13.79
5 3 -2 139.43 13.02
-5 -3 2 152.03 11.78
5 3 -2 138.54 10.66
-5 3 1 83.94 10.61
-5 -3 1 91.59 8.57
-5 -3 1 106.69 12.34
5 -3 -1 99.58 11.7
-5 3 1 100.5 12.11
-5 -3 1 113.37 9.6
5 3 -1 97.99 8.69
-5 -3 0 50.2 6.27
-5 3 0 51.76 8.84
5 -3 0 47.07 5.54
5 -3 0 45.96 8.5
-5 -3 0 60.09 9.44
-5 3 0 52.52 9.31
5 3 0 43.87 6.12
-5 3 -1 53.57 9.09
5 -3 1 60.29 6.09
5 -3 1 51.45 8.99
-5 -3 -1 51.24 9
-5 3 -1 45.95 8.49
5 3 1 52.51 6.48
-5 3 -2 329.62 20.92
-5 -3 -2 349.33 22.05
5 -3 2 359.95 15.55
5 3 2 326.74 21.49
5 -3 2 336.21 21.68
5 -3 2 380.32 16.93
-5 3 -2 340.39 21.02
5 3 2 363.46 17.62
-5 3 -3 12.55 5.8
5 -3 3 10.36 6.35
5 -3 3 16.4 4.43
-5 -3 -3 17.84 6.86
-5 3 -3 19.44 6.2
5 3 3 21.65 7.18
-5 3 -4 21.42 7.02
5 -3 4 8.9 5.47
5 -3 4 30.11 5.64
-5 -3 -4 5.34 5.81
-5 3 -4 12.2 5.46
5 3 4 22.4 6.43
-5 3 -5 68.86 10.48
5 -3 5 56.28 9.55
5 -3 5 71.07 8.49
-5 -3 -5 65.62 10.18
5 3 5 69.49 10.29
-5 3 -5 71.84 10.12
-5 3 -6 0.7 5.07
5 -3 6 6.02 5.08
5 -3 6 15.47 5.31
-5 -3 -6 14.98 5.89
5 3 6 11.61 5.78
-5 3 -6 6.44 4.33
-5 3 -7 42.61 9.11
5 -3 7 29.23 7.78
5 -3 7 27.61 6.43
-5 -3 -7 33.25 8.34
5 3 7 36.04 8.06
-5 3 -7 37.22 7.9
-5 3 -8 31.25 8.57
5 -3 8 19.88 7.28
5 -3 8 19.63 6.32
-5 -3 -8 35.97 8.5
5 3 8 18.87 6.62
-5 3 -8 21.83 7.07
-5 3 -9 12.53 6.14
5 -3 9 14.49 6.13
-5 -3 -9 30.64 8.29
5 -3 9 23.01 7.02
5 3 9 36.64 9.05
-5 3 -9 17.64 6.96
-5 3 -10 7.82 6.14
5 -3 10 -2.55 5.95
-5 -3 -10 8.8 5.6
5 -3 10 2.28 4.52
5 3 10 19.46 7.88
-5 3 -10 5.52 5.49
-5 -3 -11 2.79 4.63
5 -3 11 1.07 5.49
-5 -4 13 -2.79 5.82
-5 -4 12 3.96 6.46
5 4 -12 11.97 6.65
-5 4 12 8.99 7.57
5 -4 -11 45.14 10.35
-5 -4 11 59.89 10.06
5 -4 -11 48.35 10.74
5 4 -11 46.17 9.99
-5 4 11 71.04 12.55
5 -4 -10 46.85 10.29
-5 -4 10 52.75 9.7
5 -4 -10 50.09 9.21
5 -4 -10 51.12 10.24
5 4 -10 57.29 10.84
-5 4 10 71.72 11.78
5 -4 -9 22.16 7.36
-5 -4 9 13.44 6.16
5 -4 -9 15.34 6.7
5 -4 -9 18.76 8
5 4 -9 15.63 7.43
-5 4 9 10.56 7.15
-5 -4 8 305.65 19.42
-5 -4 8 301.91 19.64
5 -4 -8 318.05 21.3
5 -4 -8 274.25 21.2
-5 4 8 276.33 21.66
5 4 -8 294.09 21.87
5 -4 -8 276.85 21.42
-5 -4 7 39.57 8.13
5 -4 -7 38.35 8.44
5 -4 -7 44.62 9.68
-5 -4 7 39.05 7.86
5 4 -7 31.78 8.5
-5 4 7 30.7 8.76
5 -4 -7 31.28 7.57
-5 -4 6 69.84 9.24
5 -4 -6 49.75 9.21
-5 -4 6 59.07 9.04
5 4 -6 53.81 9.85
-5 4 6 53.64 10.15
5 -4 -6 74.69 10.88
-5 -4 5 8 4.27
5 -4 -5 5.39 4.81
-5 -4 5 2.88 4.87
5 4 -5 9.5 5.93
5 -4 -5 2.9 5.44
-5 4 5 4.37 5.67
5 4 -5 21.9 6.68
-5 -4 4 30.12 6.4
5 -4 -4 44.23 8.95
-5 -4 4 26.24 6.6
5 -4 -4 27.82 7.98
5 4 -4 31.11 7.64
-5 4 4 35.62 8.49
5 4 -4 32.26 7.11
-5 -4 3 63.83 8.43
5 -4 -3 63.75 10.09
5 -4 -3 64.53 10.16
-5 -4 3 54.61 8.97
5 4 -3 65.95 9.83
-5 4 3 68.71 10.61
5 4 -3 63.34 8.98
-5 -4 2 94.96 9.91
5 -4 -2 115.38 12.78
-5 -4 2 87.44 11.38
5 4 -2 84.25 11.44
-5 4 2 90.76 12.1
5 4 -2 97.49 10.02
-5 4 1 60.19 9.92
-5 -4 1 68.9 8.66
5 -4 -1 55.34 9.77
-5 -4 1 62.09 9.78
-5 4 1 63.44 10.44
5 4 -1 64.22 8.46
-5 4 0 43.64 8.22
5 -4 0 19.4 6.01
-5 -4 0 12.31 5.25
-5 4 0 42.3 9.15
5 4 0 44.4 7.31
-5 4 -1 70.01 10.5
5 -4 1 62.49 9.89
-5 -4 -1 61.9 9.78
-5 4 -1 67.46 10.59
5 4 1 56.33 9.63
5 4 1 88.27 9.44
-5 4 -2 67.9 10.28
5 -4 2 70.55 10.49
-5 -4 -2 66.06 10.67
-5 4 -2 80.4 11.32
5 4 2 74.72 10.85
5 4 2 92.14 9.69
-5 4 -3 124.88 13.86
-5 -4 -3 134.91 14.22
5 4 3 120.48 13.78
5 -4 3 125.05 13.43
5 -4 3 124.73 10.76
-5 4 -3 126.9 13.81
-5 4 -4 53.3 9.84
5 -4 4 37.76 8.28
5 -4 4 40.69 7.12
-5 -4 -4 32.39 8.07
-5 4 -4 46.51 8.81
5 4 4 37.63 8.38
-5 -4 -5 104.36 13.69
-5 4 -5 97.13 12.58
5 4 5 102.65 12.99
5 -4 5 83.76 11.15
5 -4 5 111.25 11.22
-5 4 -5 106.03 12.89
-5 4 -6 54.57 10.5
5 -4 6 34.9 8.34
-5 -4 -6 48.76 10.16
5 -4 6 44.63 8.03
5 4 6 30.49 8.28
-5 4 -6 53.99 9.89
-5 4 -7 17.94 7.95
5 -4 7 13.06 5.65
-5 -4 -7 19.03 6.94
5 -4 7 18.71 6.15
5 4 7 16.75 6.98
-5 4 -7 24.6 7.76
-5 4 -8 36.87 9.06
5 -4 8 17.28 6.36
-5 -4 -8 23.41 7.55
5 -4 8 13.91 5.97
5 4 8 19.81 7.25
-5 4 -8 28.29 8.16
-5 4 -9 29.69 9.05
-5 -4 -9 0.41 5.24
5 -4 9 11.37 6.03
5 -4 9 23.1 7.3
5 4 9 18.39 7.81
-5 4 -9 30.69 8.35
-5 -4 -10 6.46 5.65
5 -4 10 1.46 5.36
-5 4 -10 5.14 6.49
-5 -4 -11 34.37 8.69
5 -4 11 37.85 9.23
-5 4 -11 32.7 9.24
-5 -5 11 45.31 9.78
5 -5 -10 59.52 11.3
-5 -5 10 54.63 9.97
5 -5 -10 51.89 10.04
5 5 -10 65.61 11.83
-5 5 10 42.89 10.67
5 -5 -9 -4.44 6.24
-5 -5 9 -1.18 5.39
5 -5 -9 1.81 5.44
5 -5 -9 16.93 7.57
5 5 -9 6.68 5.89
-5 5 9 5.35 7.69
-5 -5 8 101.39 12.42
5 -5 -8 95.57 12.66
5 -5 -8 96.15 14.01
5 5 -8 84.6 13.03
-5 5 8 89.82 13.52
5 -5 -8 72.44 12.17
-5 -5 7 47.67 8.51
5 -5 -7 27.5 8.21
-5 -5 7 45.06 8.45
5 -5 -7 36.49 9.39
5 5 -7 43.68 10.06
-5 5 7 35.91 8.83
5 -5 -7 45.85 9.88
-5 -5 6 41.61 8.04
5 -5 -6 46.64 9.39
-5 -5 6 33.5 7.74
5 -5 -6 45.8 9.54
5 5 -6 53.7 10.82
5 -5 -6 34.56 8.28
-5 5 6 46.21 10.25
5 5 -6 74.05 11.05
-5 -5 5 7.34 3.91
5 -5 -5 9.76 6.81
-5 -5 5 13.43 6.08
5 -5 -5 7.62 6.05
5 5 -5 -2.24 6.49
-5 5 5 22.42 8.52
5 5 -5 9.2 5.76
-5 -5 4 158.66 14.99
-5 -5 4 138.18 13.32
5 -5 -4 165.54 16.15
-5 5 4 133.5 15.19
5 5 -4 146.3 15.31
5 -5 -4 155.62 15.77
5 5 -4 145.96 13.66
-5 -5 3 45.93 8.23
5 -5 -3 36.58 8.79
-5 -5 3 47.67 8.98
5 5 -3 30.75 8.07
-5 5 3 45.01 9.15
5 5 -3 34.33 7.31
-5 -5 2 7.14 5.37
5 -5 -2 1.04 4.88
-5 -5 2 4.39 4.83
5 5 -2 -1.68 5.91
-5 5 2 0.78 5.53
5 5 -2 -5.41 5.69
-5 5 1 151.71 15.49
-5 -5 1 147.23 15
-5 -5 1 127.77 12.58
5 -5 -1 135.2 14.78
-5 5 1 128.75 14.9
5 5 -1 129.41 14.08
5 5 -1 121.07 12.19
-5 5 0 54.99 9.79
5 -5 0 36.42 8.55
-5 -5 0 42.48 8.96
-5 5 0 41.38 8.79
5 5 0 46.71 8.21
-5 5 -1 -4.76 5.66
5 -5 1 5.5 4.96
-5 -5 -1 14.66 6.67
-5 5 -1 8.36 5.25
5 5 1 0.66 4.2
5 5 1 18.84 6.04
-5 5 -2 127.34 14.2
-5 -5 -2 109.3 13.5
5 -5 2 132.11 14.69
5 5 2 110.26 13.44
-5 5 -2 111.12 13.84
5 5 2 138.55 12.91
-5 5 -3 11.56 6.16
5 -5 3 18.84 7.42
-5 -5 -3 18.03 7.19
-5 5 -3 22.44 7.37
5 5 3 23.57 7.81
5 5 3 18.11 6.2
-5 5 -4 5.68 5.05
5 -5 4 26.84 7.89
-5 -5 -4 14.55 6.95
5 -5 4 22.24 5.97
-5 5 -4 14.51 6.94
5 5 4 18.9 7.52
-5 5 -5 40.73 9.48
5 -5 5 34.3 8.55
-5 -5 -5 25.26 8.12
5 -5 5 18.96 6.22
5 5 5 40.69 9.27
-5 5 -5 20.82 7.83
-5 5 -6 7.73 6.44
5 -5 6 8.25 5.98
-5 -5 -6 9.33 6.51
5 -5 6 8.46 5.22
5 5 6 5.01 5.47
-5 5 -6 -1.18 5.4
-5 5 -7 91.05 13.46
-5 -5 -7 86.87 12.82
5 -5 7 77.61 11.88
5 -5 7 72.64 10.58
5 5 7 78.08 12.37
-5 5 -7 97.6 13.47
-5 5 -8 4.36 8.68
-5 -5 -8 -1.25 5.49
5 -5 8 22.36 7.74
5 -5 8 31.58 8.32
5 5 8 7.35 4.89
-5 5 -8 14.7 7.8
-5 -5 -9 32.94 9.24
5 -5 9 37.64 8.73
5 -5 9 44.82 9.25
-5 5 -9 42.73 10.02
5 -5 10 21.93 8.33
-5 5 -10 23.78 8.03
5 -6 -10 8.86 7.43
-5 -6 9 62.88 11.01
5 -6 -9 85.44 13.21
-5 -6 8 6.11 6.2
5 -6 -8 10.82 7.07
-5 6 8 5.98 6.88
-5 -6 7 201.11 17.02
-5 -6 7 201.48 18.22
5 -6 -7 220.67 19.95
5 -6 -7 191.87 18.81
-5 6 7 172.38 18.22
5 6 -7 192.66 19.46
5 -6 -7 225.22 20.78
5 6 -7 218.06 18.93
-5 -6 6 62.09 10.19
5 -6 -6 52.97 10.53
-5 -6 6 53.57 9.69
5 -6 -6 64.18 11.24
5 -6 -6 63.75 11.55
5 6 -6 61.82 11.45
-5 6 6 77.54 12.89
5 6 -6 68.51 11.97
-5 -6 5 40.92 8.95
5 -6 -5 52.64 10.72
-5 -6 5 43.99 8.84
5 -6 -5 45.71 9.6
5 -6 -5 52.26 10.42
5 6 -5 61.51 11.34
-5 6 5 47.74 10.49
5 6 -5 73.23 11.19
-5 -6 4 12.11 5.86
5 -6 -4 -1.44 5.57
-5 -6 4 4.48 5.35
5 -6 -4 5.5 5.68
5 -6 -4 11.83 7.04
5 6 -4 -2.69 5.9
-5 6 4 4.62 6.66
5 6 -4 1.13 5.26
-5 -6 3 -7.03 5.05
5 -6 -3 9.57 6.75
-5 -6 3 7.29 6.2
5 6 -3 12.89 7.78
-5 6 3 5.81 6.14
5 6 -3 -4.75 6.19
-5 6 2 1.15 6.02
-5 -6 2 5.5 4.66
5 -6 -2 0.86 4.84
-5 -6 2 9.59 6.23
5 6 -2 11.31 6.4
-5 6 2 2.34 5.14
5 6 -2 2.84 4.93
-5 6 1 135.68 15.4
-5 -6 1 115.85 13.18
5 -6 -1 93.64 12.94
-5 -6 1 101.94 13.45
-5 6 1 128.76 15.21
5 6 -1 128.22 14.87
5 6 -1 106.37 12.62
-5 6 0 9.86 6.37
5 -6 0 11.81 6.98
-5 -6 0 12.89 6.63
-5 6 0 8.35 5.11
5 6 0 18.89 7.38
5 6 0 6.47 5.72
-5 6 -1 -4.79 6.73
5 -6 1 -0.36 4.88
-5 -6 -1 1.81 5.28
-5 6 -1 -7.97 7.71
5 6 1 2.46 4.91
5 6 1 4.86 4.89
-5 6 -2 1.03 5.12
5 -6 2 -2.54 5.56
-5 -6 -2 9.82 7.4
-5 6 -2 -3.75 6.33
5 6 2 5.97 5.6
5 6 2 -2.82 5.8
-5 6 -3 7.23 6.06
5 -6 3 6.68 5.38
-5 -6 -3 14.34 7.18
-5 6 -3 15.47 8.13
5 6 3 11 6.8
5 6 3 15.96 6.51
-5 6 -4 4.24 5.67
5 -6 4 -0.5 5.75
-5 -6 -4 6.06 5.8
-5 6 -4 23.82 8.64
5 6 4 4.2 5.71
5 6 4 12.3 6.22
-5 6 -5 15.34 6.88
-5 -6 -5 28.39 9.48
5 -6 5 21.79 8.17
5 6 5 16.65 7.25
-5 6 -5 29.65 9.37
-5 -6 -6 78.23 12.69
5 -6 6 83.5 12.44
5 -6 6 85.62 11.9
5 6 6 93.05 13.8
-5 6 -6 77.41 13.27
5 -6 7 6.98 6.55
5 -6 7 13.69 6.53
5 -6 8 -3.19 5.3
5 -6 8 4.62 5.51
5 7 -7 64.74 12.78
-5 -7 6 20.68 7.88
-5 -7 6 7.12 5.37
5 7 -6 27.59 9.82
-5 -7 5 24.36 8.07
-5 -7 5 13.6 6.31
5 -7 -5 14.57 8.22
5 7 -5 20.16 8.64
-5 -7 4 16.38 6.86
-5 -7 4 30.67 8.64
5 -7 -4 19.84 7.38
5 7 -4 7.36 6.67
-5 7 3 6.98 5.34
-5 -7 3 10.98 6.51
5 -7 -3 8.25 7.07
-5 -7 3 0.82 5.42
5 -7 -3 0.67 7.45
-5 7 3 24.5 9.4
5 7 -3 11.17 7.1
-5 7 2 17.89 7.55
-5 -7 2 19.15 7.9
5 -7 -2 25.15 8.28
-5 -7 2 19.76 8.07
5 -7 -2 30.81 8.71
5 7 -2 27.37 8.65
-5 7 2 39.25 10.28
5 7 -2 26.56 8.54
-5 7 1 85.3 13.05
-5 -7 1 78.15 12.22
5 -7 -1 73.53 12.64
5 7 -1 80.48 13.43
-5 7 1 72.19 12.35
5 7 -1 69.88 11.66
5 7 -1 78.59 11.98
-5 7 0 2.56 5.56
-5 -7 0 15.43 7.23
5 -7 0 8.23 7.15
5 7 0 13.35 7.56
-5 7 0 5.41 6.33
5 7 0 19.07 7.58
5 7 0 15.35 6.39
-5 7 -1 34.37 9.47
-5 -7 -1 28.97 8.73
5 -7 1 39.42 10.29
5 7 1 24.89 7.84
5 7 1 34.29 8.87
-5 7 -2 42.74 10
5 -7 2 36.55 9.48
5 7 2 41.73 9.88
5 7 2 27.62 7.98
5 7 3 10.6 5.87
5 7 3 7.38 6.47
5 7 4 4.79 6.07
5 7 5 86.72 13.17
5 -8 0 28.51 9.66
5 -8 1 15.82 7.95
6 0 -13 -1.63 5.26
6 0 -12 -4.52 4.83
-6 0 11 -2.86 6.6
6 0 -11 0.27 4.57
6 0 -11 5.44 5.2
-6 0 10 113.3 14.72
6 0 -10 122.18 13.35
6 0 -10 129.94 13.39
6 0 -9 14.07 5.89
6 0 -9 14.21 5.53
-6 0 9 17.89 7.69
6 0 -8 -3.74 4.8
6 0 -8 -0.68 4.87
6 0 -8 -4.8 4.73
-6 0 8 5.17 5.9
6 0 -7 27.77 7.43
6 0 -7 20.54 5.55
6 0 -7 27.43 6.92
-6 0 7 26.71 8.13
6 0 -6 30.36 7.82
6 0 -6 21.41 5.88
6 0 -6 21.22 6.21
-6 0 6 21.52 7.23
6 0 -5 139.3 14.07
6 0 -5 110.44 10.58
-6 0 5 121.86 13.45
6 0 -5 112.06 11.47
6 0 -4 4.99 3.7
-6 0 4 15.7 6.55
6 0 -3 4.1 3.43
-6 0 3 8.26 5.22
-6 0 2 0.13 3.98
6 0 -2 2.52 3.3
-6 0 2 5.56 5.12
-6 0 1 23.7 5.5
6 0 -1 26.15 5.81
-6 0 1 21.42 6.46
-6 0 0 97.96 10.36
-6 0 0 113.82 11.57
-6 0 -1 178.82 13.85
6 0 1 187.77 15.03
-6 0 -1 200.97 14.66
-6 0 -2 5.28 4.56
6 0 2 1.43 3.87
-6 0 -2 8.91 4.84
-6 0 -3 138.74 12.77
6 0 3 126.57 12.81
-6 0 -3 151.42 12.47
-6 0 -4 355.16 21.27
6 0 4 397.03 22.65
-6 0 -4 394.68 20.42
-6 0 -5 30.38 7.05
6 0 5 25.57 6.38
-6 0 -6 9.1 5.8
6 0 6 9.03 5.3
-6 0 -7 0.03 4.45
6 0 7 -4.46 5.33
-6 0 -7 11.35 7.16
-6 0 -8 -5.3 5.91
6 0 8 -3.63 5.32
-6 0 -8 -0.17 5.33
-6 0 -9 -3.08 5.15
6 0 9 4.62 4.27
-6 0 -9 -7.75 6.56
-6 0 -10 108.4 14.2
6 0 10 117.28 14.17
-6 0 -11 66.16 11.5
6 0 11 90.84 12.79
6 -1 -13 16.69 7.6
6 -1 -13 16.7 7.47
6 1 -13 38.93 9.35
6 -1 -12 10.37 6.47
6 -1 -12 11.94 6.95
6 1 -12 12.57 6.03
-6 -1 11 12.19 7.25
6 -1 -11 18.85 6.85
6 -1 -11 9.79 5.8
6 1 -11 18.01 7.34
-6 1 11 6.01 6.76
-6 -1 10 101.6 13.99
6 -1 -10 111.8 13.65
6 -1 -10 114.5 13.62
6 1 -10 133.66 13.85
-6 1 10 121.42 15.32
-6 -1 9 41.3 9.57
6 -1 -9 40.92 8.92
6 -1 -9 42.22 7.79
6 -1 -9 43.27 8.73
6 1 -9 42.29 8.7
-6 1 9 38.33 9.84
-6 -1 8 25.02 7.9
6 -1 -8 14.71 5.57
6 1 -8 50.36 9.51
6 1 -8 19.26 6.49
-6 1 8 39.81 9.55
6 -1 -8 20.83 6.61
6 -1 -7 37.11 8.23
6 1 -7 46.63 8.08
6 1 -7 38.64 7.17
6 -1 -7 39.14 8.09
-6 1 7 37.58 9.42
-6 -1 7 56.4 9.8
6 1 -6 50.03 7.95
6 1 -6 46.74 7.92
6 -1 -6 59.84 9.6
-6 1 6 54.3 10.32
-6 -1 6 61.43 9.9
6 -1 -5 182.63 15.93
6 1 -5 204.55 14.96
-6 1 5 202.22 17.42
-6 -1 5 211.6 16.89
6 1 -5 192.7 14.27
6 -1 -5 172.1 15.07
6 -1 -4 75.81 11.28
6 1 -4 75.76 9.44
6 -1 -4 88.2 10.88
-6 1 4 71.75 10.49
-6 -1 4 99.07 11.65
6 -1 -3 22.74 8.16
6 1 -3 16.6 5.63
-6 1 3 14.68 6.75
-6 -1 3 27.98 7.13
-6 -1 2 21.32 5.14
-6 1 2 15.59 5.42
6 -1 -2 41.42 9.98
6 1 -2 14.89 5.07
-6 1 2 27.42 7.61
-6 -1 2 24.42 6.8
-6 -1 1 38.84 6.68
-6 1 1 48.93 8.58
6 -1 -1 44.96 9.82
6 1 -1 45.4 7.56
-6 1 1 46.02 8.68
-6 -1 1 47.48 7.85
-6 -1 0 62.67 8.12
-6 1 0 71.15 9.66
-6 1 0 52.11 9.12
-6 -1 0 70.21 9.07
-6 -1 -1 67.2 8.22
-6 1 -1 66.13 9.63
6 -1 1 61.93 8.52
-6 1 -1 54.88 9
-6 -1 -1 65.68 8.4
-6 -1 -2 370.14 19.56
-6 1 -2 386.54 22.07
6 -1 2 380 20.91
6 1 2 367.88 22.66
-6 1 -2 361.27 20.94
-6 -1 -2 398.95 19.7
-6 -1 -3 145.57 12.11
-6 1 -3 129.81 12.78
6 -1 3 122.91 11.89
6 1 3 107.48 12.34
-6 1 -3 121.85 12.04
-6 -1 -4 85.06 10.03
-6 1 -4 82.47 10.91
-6 -1 -4 109.33 13.68
6 -1 4 87.29 10.29
6 1 4 99.49 12.11
-6 1 -4 81.83 10.07
-6 -1 -5 18.98 5.94
-6 1 -5 18.09 7.06
6 -1 5 19.75 5.8
6 1 5 13.62 6.05
-6 -1 -5 24.99 8.44
-6 1 -5 20.11 6.45
-6 -1 -6 55.12 8.48
-6 1 -6 41.75 8.65
6 -1 6 40.98 7.9
6 1 6 28.95 7.4
-6 -1 -6 41.65 9.44
-6 1 -6 33.49 7.07
-6 -1 -7 3.78 4.61
-6 1 -7 10.99 6.42
6 -1 7 13.35 5.43
6 1 7 2.93 5.03
-6 -1 -7 13.15 7.08
-6 -1 -8 24.84 7.28
-6 1 -8 41.52 9.46
6 -1 8 23.49 6.84
6 1 8 11.08 6.36
-6 -1 -8 7.67 6.46
-6 1 -8 24.94 8.09
-6 -1 -9 9.77 5.78
-6 1 -9 9.15 6.51
6 -1 9 13.26 6.04
-6 -1 -9 19.08 7.45
6 1 9 -0.15 4.35
-6 1 -10 45.58 10.5
6 -1 10 52.18 11.51
-6 -1 -10 39.74 9.15
6 1 10 39.64 9.24
6 2 -13 7.51 7
6 -2 -12 51.87 11.11
6 -2 -12 41.97 9.16
6 2 -12 41.25 9.71
6 -2 -11 21 8.42
6 -2 -11 6.27 6.05
6 2 -11 4.95 6.13
6 -2 -10 38.7 9.37
6 -2 -10 35.78 8.66
6 2 -10 35.57 8.64
-6 2 10 34.38 10.34
-6 -2 9 58.52 10.25
6 -2 -9 69.01 10.97
6 -2 -9 73.09 10.58
6 -2 -9 46.57 9.07
6 2 -9 60.14 10.11
-6 2 9 67.91 12.22
-6 -2 8 52.95 10.03
6 -2 -8 42.04 8.46
6 2 -8 64.79 10.72
-6 2 8 44.38 9.43
6 -2 -8 58.84 9.78
-6 -2 7 100.75 12.71
6 -2 -7 113.15 12.82
6 2 -7 124.03 13.13
6 -2 -7 122.19 13.75
-6 2 7 105.92 13.95
-6 -2 6 36.88 8.11
6 -2 -6 40.99 8.32
6 2 -6 39.07 8.28
6 -2 -6 26.96 7.34
-6 2 6 33.72 8.51
-6 -2 5 41.27 8.48
6 -2 -5 28.03 7.44
6 -2 -5 28.27 7.5
6 2 -5 32.96 7.24
-6 2 5 42.85 9.37
-6 -2 4 2.29 5.02
6 -2 -4 -0.63 4.82
6 -2 -4 6.9 5.81
6 2 -4 1.07 4.96
-6 2 4 6.83 5.92
6 -2 -3 156.15 15.12
-6 2 3 145.03 14.89
6 2 -3 161.46 14.32
-6 -2 3 171.52 14.1
6 -2 -2 68.09 10.56
6 2 -2 45.62 8.3
-6 2 2 44.46 8.52
-6 -2 2 62.34 8.89
-6 2 1 18.3 6.24
6 -2 -1 23.94 8.44
-6 -2 1 27.9 8.7
-6 2 1 16.57 6.76
-6 -2 1 18.09 5.04
-6 2 0 9.55 5.01
6 -2 0 14.72 7.85
-6 -2 0 26.71 8.7
-6 2 0 16.08 6.2
-6 -2 0 13.1 4.86
-6 2 -1 28.63 6.95
6 -2 1 45.85 10.02
-6 -2 -1 29.98 9.02
6 -2 1 18.88 4.63
-6 2 -1 33.72 8.11
6 2 1 29.72 7.64
-6 -2 -1 25.61 5.58
-6 2 -2 155.97 14.64
-6 -2 -2 140.26 15.19
6 -2 2 157.66 12.27
6 2 2 152.93 14.92
6 -2 2 123.72 14.19
-6 2 -2 139.61 13.73
-6 2 -3 30.42 7.82
6 -2 3 54.13 10.97
-6 -2 -3 25.94 8.4
6 -2 3 40.16 6.58
6 2 3 34.14 7.81
-6 2 -3 42.24 8.2
-6 2 -4 160.56 15.61
-6 -2 -4 161.4 16.5
6 -2 4 184.47 13.54
6 2 4 149.19 15.3
6 -2 4 147.94 15.87
-6 2 -4 186.48 15.64
-6 2 -5 18.17 7.34
6 -2 5 11.5 7.36
-6 -2 -5 2.62 5.63
6 2 5 14.28 6.4
-6 2 -5 10.14 5.17
-6 2 -6 0.9 5.66
-6 -2 -6 9.14 7.21
6 2 6 14.11 6.42
-6 2 -6 12.03 5.99
-6 2 -7 7.29 5.96
6 -2 7 20.89 8.15
-6 -2 -7 15.83 7.92
6 2 7 17.62 6.91
-6 2 -7 22.18 6.41
-6 2 -8 40.38 9.5
6 -2 8 34.67 9.71
-6 -2 -8 9.99 5.84
6 2 8 35.54 8.83
-6 2 -9 6.66 6.95
6 -2 9 16.57 8.23
-6 -2 -9 1 6.04
6 2 9 15.46 6.82
6 -2 10 29.26 8.82
-6 -2 -10 44.43 10.01
6 3 -11 15.64 7.61
6 -3 -10 167.86 17.43
-6 3 10 175.35 18.78
6 3 -10 169.02 17.52
6 -3 -10 173.39 18.03
6 -3 -9 7.17 5.54
6 -3 -9 13.89 5.47
6 -3 -9 9.79 6.61
-6 -3 9 12.29 7.05
6 3 -9 -0.17 5.47
6 -3 -8 87.63 11.85
6 -3 -8 77.52 12.5
-6 -3 8 77.31 11.31
6 3 -8 83.45 12.18
-6 3 8 69.91 11.97
6 -3 -8 69.88 11.7
6 -3 -7 16.62 6.22
6 3 -7 15.16 6.66
-6 -3 7 10.34 6.56
6 -3 -7 12.84 6.33
-6 3 7 16.24 7.01
-6 -3 6 124.16 14.03
6 -3 -6 96.78 12.43
-6 3 6 132.37 15.38
6 3 -6 92.5 11.86
6 -3 -6 105.17 13.5
6 -3 -5 67.01 10.5
6 -3 -5 72 11.45
6 3 -5 72.82 10.69
-6 -3 5 72.62 11.29
-6 3 5 92.64 13.13
6 -3 -4 -0.46 7.63
6 -3 -4 -2.38 4.76
6 3 -4 8.71 5.39
-6 -3 4 12.82 7.11
-6 3 4 16.66 7.52
-6 -3 3 79.47 9.87
6 -3 -3 74.48 11.35
6 3 -3 96.52 12.05
-6 -3 3 91.68 12.64
-6 3 3 81.42 12.3
-6 -3 2 2.72 3.82
-6 3 2 6.16 5.28
6 -3 -2 -0.57 5.97
6 3 -2 2.74 4.6
-6 -3 2 9.14 6.68
-6 3 2 7.58 6.25
-6 -3 1 38.26 6.67
-6 3 1 41.09 8.71
6 -3 -1 31.3 8.59
6 3 -1 29.04 7.42
-6 -3 1 28.84 8.18
-6 3 1 47.24 9.7
-6 3 0 1.23 4.46
6 -3 0 2.83 5.61
-6 -3 0 7.1 6.76
-6 3 0 2.3 5.56
-6 3 -1 128.96 14.03
6 3 1 101.37 12.87
6 -3 1 91.02 12.64
-6 3 -1 112.36 13.47
-6 -3 -1 106.75 14.03
-6 3 -2 24.85 7.97
6 -3 2 20.45 7.16
-6 -3 -2 23.92 7.77
6 3 2 28.03 7.75
-6 3 -2 21.96 7.25
-6 3 -3 323.94 22.44
-6 -3 -3 298.9 22.37
6 3 3 306.89 22.38
6 -3 3 273.8 21.48
-6 3 -3 334 22.24
-6 3 -4 119.67 14.04
6 3 4 110.49 13.68
6 -3 4 92.44 12.85
-6 -3 -4 105.2 13.97
-6 3 -4 99.69 12.27
-6 3 -5 23.48 7.95
6 -3 5 18.43 7.39
-6 -3 -5 12.31 6.63
6 3 5 22.43 7.44
-6 3 -5 16.05 7.19
-6 3 -6 95.22 13.27
6 -3 6 72.99 11.79
-6 -3 -6 78.32 12.24
6 3 6 60.57 11.19
-6 3 -6 74.01 11.14
-6 3 -7 35.26 9.52
6 -3 7 21.08 7.94
-6 -3 -7 20.65 7.83
6 3 7 33.77 9.01
-6 3 -7 24.62 7.79
-6 3 -8 18.66 7.72
6 -3 8 2.56 6.06
-6 -3 -8 -1.89 5.56
6 3 8 14.66 7.29
-6 3 -8 -2.47 5.49
6 -3 9 76.13 12.71
-6 -3 -9 104.98 14.36
6 -4 -10 71.84 11.32
6 4 -10 98.42 14.54
6 -4 -9 47.76 9.59
6 4 -9 54.89 11.17
6 -4 -9 49.15 10.73
6 -4 -8 14.05 6.41
6 -4 -8 24.3 9.71
-6 -4 8 10.8 5.88
6 4 -8 14.38 6.65
6 -4 -8 13.34 6.65
-6 4 8 35.61 10.03
-6 -4 7 190.7 17.28
6 -4 -7 213.04 18.94
6 -4 -7 202.99 18.95
-6 4 7 231.84 20.87
6 4 -7 212.4 19.29
6 -4 -7 201.78 19.07
6 -4 -6 40.05 9.14
-6 -4 6 38.51 8.88
6 -4 -6 46.81 10.25
6 4 -6 28.12 7.81
-6 4 6 56.02 11.41
6 -4 -5 60.54 11.18
6 -4 -5 55.18 10.37
-6 -4 5 64.78 10.59
6 4 -5 55.96 9.99
-6 4 5 35 8.89
6 -4 -4 31.64 8.87
-6 -4 4 17.74 7.6
6 4 -4 19.36 7.13
-6 4 4 10.6 6.69
6 -4 -3 20.76 7.55
-6 -4 3 17.84 6.75
6 4 -3 37.6 9.31
-6 4 3 23.9 7.77
-6 4 2 16.44 6.24
6 -4 -2 15.47 6.96
-6 -4 2 17.97 7.36
6 4 -2 11.47 5.47
-6 4 2 11.31 6.74
-6 4 1 8.41 5.46
6 -4 -1 1.31 6.23
-6 -4 1 8.52 5.96
6 4 -1 10.65 6.63
-6 4 1 23.55 7.98
-6 4 0 47.5 9.77
6 -4 0 19.33 6.61
-6 -4 0 33.15 8.68
-6 4 0 47.48 10.3
-6 4 -1 48.53 9.79
6 -4 1 25.12 7.24
-6 -4 -1 48.05 9.47
-6 4 -1 32.87 8.61
6 4 1 43.55 9.23
-6 4 -2 50.31 10.39
6 -4 2 45.7 9.48
-6 -4 -2 61.08 10.8
-6 4 -2 72.93 11.65
6 4 2 60.23 10.82
-6 4 -3 36.75 8.96
6 -4 3 33.86 8.36
-6 -4 -3 20.57 7.41
6 4 3 47.49 10.11
-6 4 -3 29.89 7.96
-6 4 -4 28.98 8.68
6 -4 4 13.25 6.68
-6 -4 -4 20.65 7.04
6 4 4 27.23 8.1
-6 4 -4 32.07 8.25
-6 4 -5 32.24 8.89
6 -4 5 14.03 6.71
-6 -4 -5 21.07 7.33
6 4 5 41.24 9.74
-6 4 -5 23.05 8.1
-6 4 -6 32.1 9.8
6 -4 6 5.06 6.65
-6 -4 -6 34.44 9
6 4 6 24.75 8.31
-6 4 -6 11.53 6.75
6 -4 7 4.43 5.35
-6 -4 -7 10.97 7.6
-6 4 -7 -0.04 5.62
6 -4 8 117.25 14.67
-6 4 -8 158.01 16.8
6 -4 9 40.23 9.39
-6 4 -9 56.72 10.76
6 -5 -10 14.3 7.07
6 -5 -9 8.13 5.75
6 -5 -8 46.08 9.95
-6 -5 7 218.81 18.74
6 -5 -7 197.8 19.43
6 5 -7 220.51 20.78
6 -5 -6 100.5 14.09
-6 -5 6 84.59 12.09
6 -5 -6 86.83 14.16
6 -5 -6 84.61 13.07
6 5 -6 86.3 13.32
-6 5 6 96.26 14.34
6 -5 -5 43.22 9.73
-6 -5 5 63.04 11.05
6 -5 -5 49.18 10.44
6 5 -5 61.7 11.43
-6 5 5 60.81 12.13
6 -5 -4 3.45 5.41
-6 -5 4 3.93 6.17
6 5 -4 0.84 5.65
-6 5 4 3.38 6.63
-6 5 3 11.47 6.46
6 -5 -3 10.97 6.84
-6 -5 3 8.15 6.8
6 5 -3 18.02 8.21
-6 5 3 26.72 9.15
-6 5 2 1.22 6.79
6 -5 -2 16.73 6.57
-6 -5 2 15.35 7.25
6 5 -2 15.94 7.32
-6 5 2 6.11 6.29
-6 5 1 65.69 11.38
6 -5 -1 54.52 11.48
-6 -5 1 47.94 9.98
6 5 -1 55.67 10.58
-6 5 1 47.87 10.94
-6 5 0 22.35 8.13
6 -5 0 20.68 8.62
-6 -5 0 27.77 8.58
-6 5 0 29.41 9.15
6 5 0 29.92 8.86
-6 5 -1 54.97 11.01
6 -5 1 33.18 8.89
-6 -5 -1 41.76 9.8
-6 5 -1 39.31 9.82
6 5 1 49.7 10.64
-6 5 -2 22.33 7.21
6 -5 2 33.71 8.98
-6 -5 -2 21.98 7.8
-6 5 -2 25.98 8.99
6 5 2 18.76 7.41
-6 5 -3 21.11 8.02
6 -5 3 6.61 6.3
-6 -5 -3 13.03 7.26
6 5 3 14.53 6.54
-6 5 -3 10.13 6.45
-6 5 -4 -8.83 6.9
6 -5 4 7.53 6.77
-6 -5 -4 9.32 7.62
6 5 4 12.71 6.24
-6 5 -4 5.9 7.62
6 -5 5 43.3 10.74
-6 5 -5 24.17 8.18
6 -5 6 151.12 17.11
-6 5 -6 127.57 16.33
-6 -6 6 16.24 6.88
-6 -6 5 28.58 8.62
-6 -6 4 21.35 7.68
-6 -6 3 5.99 5
-6 -6 2 16.15 6.88
-6 -6 1 36.56 9.87
6 7 -3 53.72 10.74
7 0 -8 8.23 6.13
-7 0 8 37.88 8.99
7 0 -7 14.98 7.89
-7 0 7 -2.49 5.25
7 0 -6 12.92 7.71
-7 0 6 20.24 8.01
7 0 -5 37.08 10.63
-7 0 5 8.12 6.68
7 0 -4 271.9 21.45
-7 0 4 231.16 19.41
-7 0 3 6.11 4.31
-7 0 3 4.97 5.26
-7 0 2 11.75 5.27
-7 0 2 22.08 6.69
-7 0 1 12.21 5.45
-7 0 1 28.55 7.5
-7 0 0 13.86 5.5
-7 0 0 7.57 5.56
-7 0 -1 10.57 5.18
7 0 1 13.63 6.12
-7 0 -1 4.94 4.99
-7 0 -2 14.81 5.95
7 0 2 14.99 6.35
-7 0 -3 37.23 7.84
7 0 3 23.89 6.8
-7 0 -4 31.31 7.78
7 0 4 32.52 7.86
-7 0 -5 25.07 7.41
7 0 5 25.12 7.41
-7 0 -6 62.53 10.61
7 0 6 52.13 9.7
-7 0 -6 44.39 10.51
-7 0 -7 8.11 6.23
7 0 7 1.68 4.65
-7 0 -7 8.52 6.16
7 0 8 69.2 11.31
-7 0 -8 75.31 13.38
7 -1 -10 111.89 14.39
7 -1 -10 91.24 12.99
-7 -1 9 74.4 12.78
7 -1 -9 99.47 13.29
-7 -1 8 14.02 6.47
7 -1 -8 0.07 5.41
7 -1 -8 7.17 5.78
-7 1 8 3.58 5.53
-7 -1 7 16.1 6.85
7 -1 -7 14.87 6.41
7 -1 -7 12.47 6.25
-7 1 7 18.64 8.06
7 -1 -6 8.35 6.17
7 -1 -6 8.27 5.31
-7 1 6 8.7 6.94
-7 -1 6 6.15 5.05
7 -1 -5 37.8 9.4
-7 1 5 42.29 9.51
-7 -1 5 58.01 10.09
7 -1 -4 14 7.63
-7 1 4 5.64 6.06
-7 -1 4 -1.29 4.86
-7 1 3 6.91 5.33
7 -1 -3 0.91 5.98
7 1 -3 4.63 4.7
-7 1 3 -2.11 5.72
-7 -1 3 -6.92 5.61
-7 1 2 85.36 11.15
7 -1 -2 109.98 14.49
7 1 -2 95.1 11.39
-7 1 2 73.31 11.19
-7 -1 2 84.66 11.13
-7 1 1 22.37 7.32
7 1 -1 9.4 4.71
-7 1 1 16.44 7.21
-7 -1 1 24.27 7.3
-7 1 0 10.02 6.1
7 -1 0 9.07 5.08
-7 1 0 9.61 5.76
-7 -1 0 21.77 6.75
-7 1 -1 7.95 5.24
7 -1 1 8.31 4.55
7 1 1 3.09 5
-7 1 -1 12.36 5.84
-7 1 -2 63.6 10.2
7 -1 2 60.6 12.49
7 -1 2 52.34 8.65
7 1 2 39.2 8.37
-7 1 -2 39.78 8.1
-7 1 -3 15.45 6.28
7 -1 3 54.24 12.91
7 -1 3 12.07 5.57
7 1 3 12.56 6.17
-7 -1 -3 46.26 11.41
-7 1 -3 15.69 6.28
-7 1 -4 28.67 8.22
-7 -1 -4 42.95 11.11
-7 1 -5 14.15 6.28
7 1 5 12.08 5.8
-7 -1 -5 11.24 7.95
-7 1 -6 20.94 6.74
7 1 6 31.81 7.86
-7 -1 -6 28.48 9.22
-7 1 -7 5.63 7.24
7 1 7 6.34 5.8
-7 -1 -7 20.53 8.39
-7 1 -8 15.54 7.27
-7 1 -8 8.91 7.47
7 -2 -9 79.77 11.96
7 2 -9 70.27 11.48
-7 -2 9 88.77 13.16
7 -2 -9 68.62 12.13
-7 -2 8 3.32 6.16
7 -2 -8 21.86 7.95
7 -2 -8 21.42 7.81
7 2 -8 15.45 7.06
-7 -2 7 -1.02 6.09
7 -2 -7 -12.25 7.76
7 -2 -7 9.66 6.94
7 2 -7 16 6.95
-7 2 7 0.38 7.16
-7 -2 6 4.68 5.45
7 -2 -6 -2.26 5.44
7 -2 -6 7.61 6.78
7 2 -6 14.08 5.95
-7 2 6 11.44 6.21
-7 -2 5 14.91 6.66
7 -2 -5 7.16 6.45
7 2 -5 19.27 6.67
-7 2 5 20.43 8.02
-7 -2 4 44.04 8.84
7 -2 -4 22.5 8.63
7 2 -4 30.95 7.36
-7 2 4 21.11 8.26
-7 -2 3 43.56 8.92
-7 2 3 36.14 9.1
7 -2 -3 31.46 9.23
7 2 -3 36.44 7.59
-7 2 3 47.84 10.45
-7 2 2 5.47 5.77
7 -2 -2 13.72 7.24
7 2 -2 13.17 5.92
-7 -2 2 10.89 7.96
-7 2 2 3.28 5.72
-7 -2 2 18.21 6.32
-7 2 1 5.73 5.49
7 -2 -1 7.62 6.09
7 2 -1 7.13 5.77
-7 -2 1 14.96 8.05
-7 2 1 0.19 5.92
-7 2 0 -3.55 5.69
7 -2 0 5.17 6.4
-7 -2 0 17.24 9.36
-7 2 0 2.22 5.65
-7 2 -1 183.98 17.27
-7 -2 -1 159.04 18.11
7 2 1 171.33 17.21
7 -2 1 158.31 17.57
-7 2 -1 148.19 15.5
-7 2 -2 3.54 4.78
7 -2 2 17.86 8.91
-7 -2 -2 8.33 7.07
7 2 2 3.75 5.6
-7 2 -2 11.7 6.93
-7 2 -3 217.72 19.14
-7 -2 -3 222.65 20.78
7 2 3 181.15 17.99
7 -2 3 183.11 19.31
-7 2 -3 202.58 17.65
-7 2 -4 63.85 11.05
7 -2 4 74.71 12.84
-7 -2 -4 68.27 12.89
7 2 4 61.13 10.75
-7 2 -4 83.76 11.8
-7 2 -5 40.52 9.41
7 -2 5 34 9.98
-7 -2 -5 30.79 9.9
7 2 5 49.71 10.35
-7 2 -6 24.58 7.8
7 2 6 39.33 9.48
7 -3 -9 54.78 10.66
7 3 -9 54.42 10.91
7 -3 -8 25.95 8.68
-7 -3 8 25.37 8.32
7 3 -8 25.68 8.17
7 -3 -7 4.6 6.53
7 -3 -7 1.71 6.49
-7 -3 7 -1.63 5.71
7 3 -7 -2.33 5.67
-7 -3 6 149.59 16.74
7 -3 -6 139.28 16.04
7 3 -6 144.76 15.6
7 -3 -6 137.42 16.33
-7 3 6 128.2 16.32
7 -3 -5 -4.81 7.93
7 3 -5 3.1 5.82
-7 -3 5 8.34 7.1
-7 3 5 13.44 7.41
7 -3 -4 30.16 8.73
7 3 -4 53.66 9.86
-7 -3 4 40.69 10.6
-7 3 4 48.57 11.01
-7 3 3 46.99 10.24
7 -3 -3 21.49 7.99
7 3 -3 41.19 9.09
-7 -3 3 43.86 10.59
-7 3 3 53.62 10.6
-7 3 2 -1.59 5.69
7 -3 -2 0.59 5.64
7 3 -2 -3.82 5.06
-7 -3 2 -4.11 6.93
-7 3 2 -2.49 6.1
-7 3 1 24.21 7.46
7 -3 -1 6.14 5.91
7 3 -1 37.66 9.04
-7 -3 1 28.85 9.37
-7 3 1 25.88 9.09
-7 3 0 25.54 7.94
7 -3 0 10.35 6.73
-7 -3 0 24.89 8.77
7 3 0 26.99 8.02
-7 3 0 20.63 8.05
-7 3 -1 52.34 10.48
7 -3 1 45.1 10.8
-7 -3 -1 56.43 11.82
7 3 1 77.63 12.57
-7 3 -1 54.22 11.18
-7 3 -2 212.41 19.3
-7 -3 -2 194.83 19.84
7 3 2 166.89 17.78
7 -3 2 168.82 18.59
-7 3 -2 182.97 18.01
-7 3 -3 56.62 11.39
7 -3 3 35.53 9.23
7 3 3 50.75 10.79
-7 3 -3 49.98 10.62
-7 3 -4 24.62 9.02
-7 3 -4 18.44 7.55
-7 3 -5 87.96 12.69
-7 3 -6 25.86 8.16
-7 -4 7 7.77 5.49
-7 -4 6 77.09 12.74
7 4 -6 61.59 11.37
-7 -4 5 52.58 11.34
7 4 -5 28.81 8.87
-7 -4 4 51.94 10.83
7 4 -4 29.13 8.49
-7 -4 3 60.8 11.8
7 4 -3 65.13 11.34
-7 4 2 36.06 10.14
-7 -4 2 32.29 9.68
7 4 -2 33.2 8.85
-7 4 2 18.58 8.59
-7 4 1 23.68 7.66
-7 -4 1 25.99 8.83
7 4 -1 25.67 8.39
-7 4 1 42.13 10.38
-7 4 0 22.65 8.52
7 4 0 18.54 7.74
-7 4 0 22.86 9.12
-7 4 -1 7.85 6.99
-7 4 -2 65.65 11.62
-7 4 -3 99.43 14.17
-7 4 -4 25.97 9.08
-7 4 -5 23.27 8.82
-8 0 5 -2.67 6.23
-8 0 4 19.33 8.23
-8 0 3 30.57 9.13
-8 0 2 8.2 6.15
8 0 -1 112.66 14.14
8 0 0 18.52 6.92
8 0 1 0.04 4.9
8 0 2 64.28 11
-8 1 5 72.1 11.97
-8 -1 5 70.62 12.33
-8 1 4 5.7 5.38
-8 1 4 36.54 10.87
-8 -1 4 24.07 8.1
-8 1 3 57.23 10.43
-8 1 3 80.58 12.92
-8 -1 3 67.68 11.52
-8 1 2 7.27 5.86
-8 1 2 11.12 7.59
-8 1 1 0.01 5.48
-8 1 1 1.77 5.87
-8 1 0 63.95 11.22
8 1 0 74.86 12.24
-8 1 0 69.19 11.98
-8 1 -1 35.57 9.06
8 1 1 37.68 9.25
-8 1 -2 16.99 6.67
8 1 2 9.85 5.79
-8 1 -3 14.26 6.94
-8 -2 5 129.34 15.35
-8 2 2 10.62 6.67
-8 2 1 -0.47 6.1
-8 2 1 6.11 7.33
-8 2 0 1.73 5.84
-8 2 0 0.82 6.38
-8 2 -1 46.77 10.38
-8 2 -2 6.02 6.85
8 3 -3 67.84 11.64
8 3 -2 7.96 6.03
8 3 -1 12.36 7.11
8 3 0 13.72 6.93
