#------------------------------------------------------------------------------
#$Date: 2020-10-04 06:26:50 +0300 (Sun, 04 Oct 2020) $
#$Revision: 257115 $
#$URL: file:///home/coder/svn-repositories/cod/cif/4/13/49/4134937.cif $
#------------------------------------------------------------------------------
#
# This file is available in the Crystallography Open Database (COD),
# http://www.crystallography.net/
#
# All data on this site have been placed in the public domain by the
# contributors.
#
data_4134937
loop_
_publ_author_name
'Siddiqi, Zohaib'
'Wertjes, William C.'
'Sarlah, David'
_publ_section_title
;
 Chemical Equivalent of Arene Monooxygenases: Dearomative Synthesis of
 Arene Oxides and Oxepines.
;
_journal_issue                   22
_journal_name_full               'Journal of the American Chemical Society'
_journal_page_first              10125
_journal_page_last               10131
_journal_paper_doi               10.1021/jacs.0c02724
_journal_volume                  142
_journal_year                    2020
_chemical_formula_moiety         'C10 H8 O'
_chemical_formula_sum            'C10 H8 O'
_chemical_formula_weight         144.16
_chemical_name_systematic        benzo[d]oxepine
_space_group_crystal_system      monoclinic
_space_group_IT_number           14
_space_group_name_Hall           '-P 2ybc'
_space_group_name_H-M_alt        'P 1 21/c 1'
_atom_sites_solution_hydrogens   geom
_atom_sites_solution_primary     direct
_audit_creation_date             2020-03-04
_audit_creation_method
;
Olex2 1.3
(compiled 2020.02.04 svn.rd84adfe8 for OlexSys, GUI svn.r6032)
;
_cell_angle_alpha                90
_cell_angle_beta                 114.3054(10)
_cell_angle_gamma                90
_cell_formula_units_Z            2
_cell_length_a                   7.8858(2)
_cell_length_b                   6.0451(2)
_cell_length_c                   8.4347(3)
_cell_measurement_reflns_used    6743
_cell_measurement_temperature    100.0
_cell_measurement_theta_max      28.243
_cell_measurement_theta_min      4.289
_cell_volume                     366.45(2)
_computing_cell_refinement       'SAINT V8.38A (Bruker, 2018)'
_computing_data_reduction        'SAINT V8.38A (Bruker, 2018)'
_computing_molecular_graphics    'Olex2 1.3 (Dolomanov et al., 2009)'
_computing_publication_material  'Olex2 1.3 (Dolomanov et al., 2009)'
_computing_structure_refinement  'SHELXL 2018/3 (Sheldrick, 2015)'
_computing_structure_solution    'XS  (Sheldrick, 2008)'
_diffrn_ambient_temperature      100.0
_diffrn_detector                 'Bruker Photon II area detector'
_diffrn_detector_type            'charge integrated pixel array'
_diffrn_measured_fraction_theta_full 0.989
_diffrn_measured_fraction_theta_max 0.992
_diffrn_measurement_device       'kappa diffractometer'
_diffrn_measurement_device_type  'Bruker D8 Venture/Photon II'
_diffrn_measurement_method       '\f and \w scans'
_diffrn_radiation_monochromator  'multilayer mirrors'
_diffrn_radiation_probe          x-ray
_diffrn_radiation_type           MoK\a
_diffrn_radiation_wavelength     0.71073
_diffrn_reflns_av_R_equivalents  0.0175
_diffrn_reflns_av_unetI/netI     0.0113
_diffrn_reflns_Laue_measured_fraction_full 0.989
_diffrn_reflns_Laue_measured_fraction_max 0.992
_diffrn_reflns_limit_h_max       10
_diffrn_reflns_limit_h_min       -10
_diffrn_reflns_limit_k_max       8
_diffrn_reflns_limit_k_min       -8
_diffrn_reflns_limit_l_max       11
_diffrn_reflns_limit_l_min       -11
_diffrn_reflns_number            8457
_diffrn_reflns_point_group_measured_fraction_full 0.989
_diffrn_reflns_point_group_measured_fraction_max 0.992
_diffrn_reflns_theta_full        25.242
_diffrn_reflns_theta_max         28.270
_diffrn_reflns_theta_min         4.289
_diffrn_source                   'microfocus sealed X-ray tube'
_diffrn_source_current           1.0
_diffrn_source_power             0.05
_diffrn_source_target            Mo
_diffrn_source_type              'Incoatec I\ms'
_diffrn_source_voltage           50.0
_diffrn_standards_number         0
_exptl_absorpt_coefficient_mu    0.083
_exptl_absorpt_correction_T_max  0.7457
_exptl_absorpt_correction_T_min  0.7092
_exptl_absorpt_correction_type   multi-scan
_exptl_absorpt_process_details
'SADABS-2016/2 (Bruker,2016/2) was used for absorption correction. wR2(int) was 0.1154 before and 0.0378 after correction. The Ratio of minimum to maximum transmission is 0.9511. The \l/2 correction factor is Not present.'
_exptl_crystal_colour            'clear yellow'
_exptl_crystal_colour_lustre     clear
_exptl_crystal_colour_primary    yellow
_exptl_crystal_density_diffrn    1.307
_exptl_crystal_description       block
_exptl_crystal_F_000             152
_exptl_crystal_recrystallization_method
'Crystallized from methanol by slow evaporation'
_exptl_crystal_size_max          0.541
_exptl_crystal_size_mid          0.227
_exptl_crystal_size_min          0.142
_refine_diff_density_max         0.193
_refine_diff_density_min         -0.156
_refine_diff_density_rms         0.034
_refine_ls_extinction_method     none
_refine_ls_goodness_of_fit_ref   1.166
_refine_ls_hydrogen_treatment    constr
_refine_ls_matrix_type           full
_refine_ls_number_parameters     88
_refine_ls_number_reflns         901
_refine_ls_number_restraints     86
_refine_ls_restrained_S_all      1.140
_refine_ls_R_factor_all          0.0430
_refine_ls_R_factor_gt           0.0421
_refine_ls_shift/su_max          0.000
_refine_ls_shift/su_mean         0.000
_refine_ls_structure_factor_coef Fsqd
_refine_ls_weighting_details
'w=1/[\s^2^(Fo^2^)+(0.0469P)^2^+0.1052P] where P=(Fo^2^+2Fc^2^)/3'
_refine_ls_weighting_scheme      calc
_refine_ls_wR_factor_gt          0.1120
_refine_ls_wR_factor_ref         0.1126
_reflns_Friedel_coverage         0.000
_reflns_number_gt                870
_reflns_number_total             901
_reflns_threshold_expression     'I > 2\s(I)'
_cod_data_source_file            ja0c02724_si_002.cif
_cod_data_source_block           14
_cod_depositor_comments
;Adding full bibliography for 4134935--4134938.cif.

 Adding full bibliography for 4134935--4134938.cif.
;
_cod_database_code               4134937
_shelx_shelxl_version_number     2018/3
_shelx_space_group_comment
;
The symmetry employed for this shelxl refinement is uniquely defined
by the following loop, which should always be used as a source of
symmetry information in preference to the above space-group names.
They are only intended as comments.
;
_shelx_estimated_absorpt_t_max   0.988
_shelx_estimated_absorpt_t_min   0.956
_olex2_refinement_description
;
1. Fixed Uiso
 At 1.2 times of:
  All C(H) groups
2. Restrained distances
 C3-C2 = C10-C11
 1.317 with sigma of 0.02
 O1-C2 \\sim O1-C11
 with sigma of 0.01
 C3-C2 \\sim C10-C11
 with sigma of 0.01
 C5-C4 \\sim C9-C4 \\sim C9-C8 \\sim C8-C7 \\sim C7-C6 \\sim C6-C5
 with sigma of 0.01
 C4-C3 \\sim C9-C10
 with sigma of 0.01
3. Uiso/Uaniso restraints and constraints
Uanis(C10) = Uanis(C5)
Uanis(C3) = Uanis(C8)
4. Rigid body (RIGU) restrains
 O1, C2, C3, C4, C5, C6, C7, C8, C9, C10
 with sigma for 1-2 distances of 0.004 and sigma for 1-3 distances of 0.004
5. Others
 Fixed Sof: O1(0.5) C2(0.5) H2(0.5) C3(0.5) H3(0.5) C4(0.5) C5(0.5) H5(0.5)
 C6(0.5) H6(0.5) C7(0.5) H7(0.5) C8(0.5) H8(0.5) C9(0.5) C10(0.5) H10(0.5)
 C11(0.5) H11(0.5)
6.a Aromatic/amide H refined with riding coordinates:
 C2(H2), C3(H3), C5(H5), C6(H6), C7(H7), C8(H8), C10(H10), C11(H11)
;
_shelx_res_file
;
TITL 14 in P21/c #14
    14.res
    created by SHELXL-2018/3 at 11:06:19 on 04-Mar-2020
REM reset to P21/c #14
CELL 0.71073 7.8858 6.0451 8.4347 90 114.3054 90
ZERR 2 0.0002 0.0002 0.0003 0 0.001 0
LATT 1
SYMM -X,0.5+Y,0.5-Z
SFAC C H O
UNIT 20 16 2
EADP C10 C5
EADP C3 C8
SADI 0.01 O1 C2 O1 C11
SADI 0.01 C3 C2 C10 C11
SADI 0.01 C5 C4 C9 C4 C9 C8 C8 C7 C7 C6 C6 C5
DFIX 1.317 C3 C2 C10 C11
SADI 0.01 C4 C3 C9 C10
RIGU O1 > C10

L.S. 50 0 0
PLAN  15
SIZE 0.142 0.227 0.541
TEMP -173.15
CONF
htab
MORE -1
BOND $H
fmap 2 53
acta
OMIT -3 3 3
OMIT -6 3 6
REM <olex2.extras>
REM <HklSrc "%.\\14.hkl">
REM </olex2.extras>

WGHT    0.046900    0.105200
FVAR       0.84982
PART -1
O1    3    0.163482    0.433565    0.146202    10.50000    0.04053    0.04535 =
         0.03137   -0.00832    0.00149    0.00456
C2    1    0.151772    0.600328    0.251324    10.50000    0.02833    0.03826 =
         0.03157   -0.00206    0.01291    0.00138
AFIX  43
H2    2    0.035002    0.673975    0.205813    10.50000   -1.20000
AFIX   0
C3    1    0.268225    0.679587    0.401803    10.50000    0.02325    0.02572 =
         0.02603    0.00006    0.01173    0.00946
AFIX  43
H3    2    0.221150    0.797901    0.446029    10.50000   -1.20000
AFIX   0
C4    1    0.461158    0.612980    0.512818    10.50000    0.03022    0.01852 =
         0.02541    0.00268    0.01873    0.00671
C5    1    0.572297    0.743125    0.652511    10.50000    0.02942    0.03364 =
         0.02266   -0.00349    0.01174    0.00017
AFIX  43
H5    2    0.524889    0.880041    0.672017    10.50000   -1.20000
AFIX   0
C6    1    0.751655    0.678914    0.765230    10.50000    0.02555    0.03546 =
         0.02368    0.00050    0.00433   -0.00490
AFIX  43
H6    2    0.824401    0.773974    0.858047    10.50000   -1.20000
AFIX   0
C7    1    0.824522    0.480858    0.744141    10.50000    0.02385    0.04058 =
         0.02428   -0.00181    0.00603   -0.00293
AFIX  43
H7    2    0.946988    0.437273    0.819925    10.50000   -1.20000
AFIX   0
C8    1    0.712207    0.346118    0.607465    10.50000    0.02325    0.02572 =
         0.02603    0.00006    0.01173    0.00946
AFIX  43
H8    2    0.758084    0.205661    0.593116    10.50000   -1.20000
AFIX   0
C9    1    0.534586    0.410186    0.490808    10.50000    0.01841    0.02712 =
         0.01268   -0.00364    0.00134   -0.00306
C10   1    0.433853    0.241283    0.357245    10.50000    0.02942    0.03364 =
         0.02266   -0.00349    0.01174    0.00017
AFIX  43
H10   2    0.491598    0.099962    0.376979    10.50000   -1.20000
AFIX   0
C11   1    0.277386    0.255000    0.215667    10.50000    0.02850    0.03413 =
         0.03227   -0.00354    0.01347   -0.00398
AFIX  43
H11   2    0.237648    0.120965    0.152300    10.50000   -1.20000
AFIX   0
HKLF 4




REM  14 in P21/c #14
REM wR2 = 0.1126, GooF = S = 1.166, Restrained GooF = 1.140 for all data
REM R1 = 0.0421 for 870 Fo > 4sig(Fo) and 0.0430 for all 901 data
REM 88 parameters refined using 86 restraints

END

WGHT      0.0469      0.1050

REM No hydrogen bonds found for HTAB generation

REM Highest difference peak  0.193,  deepest hole -0.156,  1-sigma level  0.034
Q1    1   0.6374  0.3810  0.5442  11.00000  0.05    0.19
Q2    1   0.6628  0.7088  0.6894  11.00000  0.05    0.19
Q3    1   0.7813  0.4382  0.6564  11.00000  0.05    0.18
Q4    1   0.7408  0.3873  0.6838  11.00000  0.05    0.18
Q5    1   0.8681  0.6398  0.7727  11.00000  0.05    0.17
Q6    1   0.5152  0.6613  0.5955  11.00000  0.05    0.16
Q7    1   0.2211  0.1750  0.0931  11.00000  0.05    0.13
Q8    1   0.4644  0.4913  0.4613  11.00000  0.05    0.10
Q9    1   0.0654  0.4854 -0.0021  11.00000  0.05    0.08
Q10   1   0.0416  0.3800  0.0248  11.00000  0.05    0.07
Q11   1   0.1713  0.4392  0.0071  11.00000  0.05    0.07
Q12   1   0.2786  0.8845  0.4705  11.00000  0.05    0.07
Q13   1   0.2627  0.1338  0.0006  11.00000  0.05    0.06
Q14   1   0.7530  0.6820  1.0289  11.00000  0.05    0.06
Q15   1   0.1598  0.5595  0.0369  11.00000  0.05    0.06
;
_shelx_res_checksum              32845
_shelx_hkl_file
;
   2   0   0  269.26    5.05
  -2   0   0  263.59    5.05
   3   0   0  581.45    9.90
  -3   0   0  592.63   11.10
  -4   0   0  141.81    1.91
   4   0   0  147.05    2.00
   4   0   0  143.39    1.99
  -5   0   0    1.96    0.11
   5   0   0    2.16    0.15
   5   0   0    1.80    0.11
   6   0   0    3.01    0.19
   6   0   0    3.04    0.16
  -6   0   0    2.86    0.15
   7   0   0  115.95    1.70
   7   0   0  110.28    1.80
   8   0   0    5.95    0.31
   8   0   0    5.57    0.25
   8   0   0    5.43    0.33
   9   0   0   10.14    0.49
   9   0   0   11.57    0.46
   9   0   0   10.78    0.33
   9   0   0   10.69    0.46
   0  -1   0    0.01    0.01
   0  -1   0    0.00    0.01
   0  -1   0    0.00    0.01
   0   1   0    0.00    0.01
   0   1   0    0.00    0.01
   0   1   0    0.00    0.01
   1  -1   0   19.86    0.30
  -1  -1   0   19.79    0.33
  -1  -1   0   19.90    0.28
  -1  -1   0   19.53    0.31
   1  -1   0   19.69    0.31
  -1  -1   0   19.11    0.32
  -1   1   0   19.13    0.31
   1   1   0   20.23    0.33
   1   1   0   19.74    0.30
   1   1   0   20.32    0.32
   2  -1   0   31.02    0.47
   2  -1   0   32.16    0.48
  -2  -1   0   31.28    0.49
  -2  -1   0   32.10    0.52
   2   1   0   32.09    0.49
   2   1   0   31.82    0.50
   2   1   0   32.53    0.53
  -3  -1   0   20.55    0.41
   3  -1   0   20.65    0.37
  -3  -1   0   20.16    0.34
   3  -1   0   20.39    0.38
   3  -1   0   19.79    0.37
  -3  -1   0   20.08    0.38
   3  -1   0   20.79    0.34
   3   1   0   20.54    0.42
   3   1   0   19.77    0.38
   3   1   0   19.91    0.37
  -4  -1   0   41.16    0.72
  -4  -1   0   40.78    0.58
   4  -1   0   38.61    0.66
   4  -1   0   40.82    0.67
  -4  -1   0   41.56    0.58
  -4  -1   0   40.82    0.67
   4  -1   0   40.20    0.68
   4  -1   0   40.35    0.60
   4   1   0   40.48    0.73
   4   1   0   40.68    0.67
  -5  -1   0    5.58    0.23
   5  -1   0    5.62    0.20
   5  -1   0    5.33    0.20
   5  -1   0    5.71    0.22
  -5  -1   0    5.68    0.20
   5  -1   0    5.33    0.15
   5   1   0    5.41    0.20
   5   1   0    5.32    0.19
   5   1   0    5.49    0.24
   6  -1   0    3.12    0.17
  -6  -1   0    3.52    0.17
   6  -1   0    3.51    0.13
   6  -1   0    3.56    0.22
   6  -1   0    3.17    0.19
   6  -1   0    3.34    0.17
   6   1   0    3.28    0.16
   6   1   0    3.19    0.21
   6   1   0    3.28    0.17
   7  -1   0    7.50    0.32
   7  -1   0    7.33    0.27
   7  -1   0    7.78    0.28
  -7  -1   0    7.23    0.27
   7  -1   0    7.54    0.34
   7  -1   0    7.72    0.19
   7   1   0    7.31    0.26
   7   1   0    7.71    0.29
   7   1   0    7.99    0.35
   8  -1   0    0.90    0.14
   8  -1   0    1.12    0.18
   8  -1   0    1.03    0.12
   8  -1   0    1.00    0.12
  -8  -1   0    1.17    0.12
   8   1   0    1.09    0.12
   8   1   0    1.01    0.12
   8   1   0    0.88    0.17
   9  -1   0    3.31    0.25
   9  -1   0    3.25    0.27
   9  -1   0    3.45    0.21
   9  -1   0    3.74    0.21
   9   1   0    3.79    0.22
   9   1   0    4.20    0.30
   9   1   0    4.16    0.32
   9   1   0    3.42    0.19
   0  -2   0  188.38    5.78
   0   2   0  186.70    5.76
   1  -2   0  235.91    6.04
  -1  -2   0  235.27    7.10
   1   2   0  236.87    7.62
  -1   2   0  235.95    6.14
  -2  -2   0   25.97    0.52
  -2  -2   0   26.66    0.39
   2  -2   0   25.95    0.38
  -2  -2   0   25.61    0.48
  -2  -2   0   25.02    0.47
   2  -2   0   26.13    0.42
   2   2   0   26.12    0.50
  -2   2   0   25.55    0.45
   2   2   0   26.60    0.44
  -3  -2   0  154.30    2.09
  -3  -2   0  158.33    2.06
   3  -2   0  156.87    2.03
  -3  -2   0  153.61    2.13
   3   2   0  156.90    2.15
   3   2   0  156.17    2.09
   4  -2   0   63.04    0.94
  -4  -2   0   63.98    0.94
   4  -2   0   62.68    0.98
  -4  -2   0   63.15    0.99
   4  -2   0   63.92    0.93
   4  -2   0   63.58    0.97
  -4  -2   0   62.48    1.04
   4   2   0   63.64    0.96
   4   2   0   62.11    1.06
   4   2   0   63.20    0.99
  -5  -2   0    7.53    0.33
   5  -2   0    7.80    0.26
   5  -2   0    7.96    0.22
   5  -2   0    7.74    0.25
   5  -2   0    7.82    0.24
  -5  -2   0    7.94    0.22
   5  -2   0    7.84    0.27
  -5  -2   0    7.48    0.25
   5   2   0    8.13    0.25
   5   2   0    7.49    0.30
   5   2   0    7.94    0.27
   6  -2   0  109.93    1.53
   6  -2   0  110.26    1.64
   6  -2   0  111.51    1.70
   6  -2   0  110.85    1.59
   6  -2   0  110.08    1.66
  -6  -2   0  112.24    1.65
  -6  -2   0  111.71    1.48
   6   2   0  110.58    1.60
   6   2   0  109.48    1.65
  -7  -2   0   19.94    0.50
   7  -2   0   20.87    0.51
   7  -2   0   20.45    0.56
   7  -2   0   20.52    0.54
   7  -2   0   20.64    0.42
   7  -2   0   20.18    0.46
   7   2   0   20.74    0.52
   7   2   0   20.21    0.60
   7   2   0   20.27    0.47
   8  -2   0    0.47    0.08
  -8  -2   0    0.38    0.10
   8  -2   0    0.47    0.12
   8  -2   0    0.44    0.10
   8  -2   0    0.53    0.16
   8  -2   0    0.41    0.08
   8   2   0    0.57    0.12
   8   2   0    0.42    0.12
   8   2   0    0.42    0.09
   9  -2   0    0.81    0.11
   9  -2   0    0.61    0.09
   9  -2   0    0.58    0.13
   9  -2   0    0.74    0.14
  -9  -2   0    0.69    0.13
   9  -2   0    0.52    0.13
   9   2   0    0.87    0.14
   9   2   0    0.72    0.18
   9   2   0    0.62    0.11
   0  -3   0    0.04    0.03
   0  -3   0    0.03    0.03
   0  -3   0    0.00    0.02
   0   3   0   -0.01    0.02
   0   3   0    0.01    0.02
  -1  -3   0   91.17    1.30
  -1  -3   0   89.78    1.28
   1  -3   0   87.15    1.27
  -1  -3   0   90.96    1.24
   1  -3   0   93.63    1.25
   1  -3   0   90.34    1.23
  -1  -3   0   90.48    1.33
   1   3   0   91.82    1.26
  -1   3   0   92.51    1.28
  -1   3   0   89.88    1.15
   1   3   0   91.09    1.28
  -2  -3   0  103.59    1.38
  -2  -3   0  101.64    1.50
   2  -3   0  107.14    1.38
   2  -3   0  105.72    1.41
  -2  -3   0  105.51    1.50
   2  -3   0   99.98    1.44
  -2  -3   0  103.18    1.47
  -2   3   0  102.25    1.46
   2   3   0  102.94    1.43
   3  -3   0   52.98    0.81
  -3  -3   0   53.86    0.90
   3  -3   0   53.70    0.85
  -3  -3   0   52.97    0.91
   3  -3   0   53.49    0.73
  -3  -3   0   54.25    0.75
   3   3   0   53.25    0.83
  -3   3   0   52.68    0.88
   3   3   0   53.63    0.93
   4  -3   0   41.25    0.68
  -4  -3   0   41.85    0.80
  -4  -3   0   42.05    0.73
   4  -3   0   42.01    0.71
  -4  -3   0   41.22    0.76
   4  -3   0   41.79    0.65
   4   3   0   41.38    0.71
   4   3   0   42.12    0.82
   5  -3   0   70.69    1.14
   5  -3   0   70.49    1.08
   5  -3   0   69.13    1.08
  -5  -3   0   69.80    1.22
   5  -3   0   71.29    1.08
  -5  -3   0   70.27    1.16
  -5  -3   0   69.96    1.10
   5  -3   0   69.71    1.06
   5   3   0   69.92    1.13
   5   3   0   71.50    1.26
   5   3   0   70.29    1.16
   6  -3   0   45.66    0.80
   6  -3   0   47.26    0.84
   6  -3   0   46.51    0.84
  -6  -3   0   46.20    0.88
  -6  -3   0   46.46    0.80
   6  -3   0   46.54    0.87
   6  -3   0   47.23    0.78
   6   3   0   45.46    0.98
   6   3   0   46.99    0.89
   6   3   0   46.45    0.82
  -7  -3   0    5.42    0.19
  -7  -3   0    5.63    0.45
   7  -3   0    5.25    0.25
   7  -3   0    4.91    0.21
   7  -3   0    5.16    0.25
  -7  -3   0    5.15    0.19
   7  -3   0    5.24    0.25
   7  -3   0    5.20    0.21
  -7  -3   0    4.65    0.24
   7   3   0    4.91    0.30
   7   3   0    4.83    0.22
   7   3   0    4.87    0.25
   8  -3   0    0.02    0.05
   8  -3   0    0.00    0.05
   8  -3   0    0.00    0.06
   8  -3   0   -0.04    0.05
   8  -3   0   -0.06    0.06
   8   3   0    0.03    0.06
   8   3   0    0.03    0.08
   8   3   0    0.04    0.06
   0  -4   0    2.36    0.13
   0  -4   0    3.18    0.15
   0  -4   0    2.31    0.13
   0   4   0    3.12    0.15
   0   4   0    2.95    0.10
   0   4   0    2.55    0.13
   1  -4   0    0.08    0.04
   1  -4   0    0.19    0.06
  -1  -4   0    0.10    0.04
  -1  -4   0    0.15    0.06
  -1  -4   0    0.10    0.05
  -1  -4   0    0.14    0.06
   1  -4   0    0.15    0.06
  -1   4   0    0.10    0.02
  -1   4   0    0.07    0.04
   1   4   0    0.08    0.04
   1   4   0    0.18    0.05
  -2  -4   0    1.80    0.11
  -2  -4   0    1.72    0.13
   2  -4   0    2.15    0.12
  -2  -4   0    1.98    0.14
   2  -4   0    1.80    0.12
  -2  -4   0    1.70    0.14
   2  -4   0    1.73    0.10
   2   4   0    1.86    0.13
  -2   4   0    1.99    0.14
   2   4   0    1.98    0.13
  -3  -4   0    6.02    0.25
  -3  -4   0    6.38    0.26
   3  -4   0    6.20    0.23
  -3  -4   0    6.38    0.26
   3  -4   0    6.37    0.21
  -3  -4   0    6.20    0.18
   3  -4   0    6.21    0.19
   3   4   0    6.28    0.26
  -3   4   0    5.84    0.24
   4  -4   0    6.19    0.21
  -4  -4   0    6.52    0.26
  -4  -4   0    6.44    0.27
  -4  -4   0    6.65    0.20
  -4  -4   0    6.17    0.28
   4  -4   0    6.44    0.25
  -4   4   0    6.56    0.27
   4   4   0    6.42    0.29
   4   4   0    6.35    0.23
  -5  -4   0   16.34    0.43
   5  -4   0   16.36    0.38
  -5  -4   0   15.92    0.46
  -5  -4   0   15.54    0.48
   5  -4   0   15.52    0.41
   5  -4   0   15.77    0.30
   5   4   0   16.35    0.53
   5   4   0   15.90    0.41
   6  -4   0    5.06    0.20
  -6  -4   0    4.95    0.26
   6  -4   0    4.97    0.36
  -6  -4   0    5.41    0.24
  -6  -4   0    4.59    0.28
   6  -4   0    5.03    0.18
   6  -4   0    5.34    0.23
   6   4   0    5.01    0.23
   6   4   0    4.92    0.30
   7  -4   0    2.44    0.19
  -7  -4   0    1.99    0.20
   7  -4   0    2.24    0.16
   7  -4   0    2.05    0.13
   7  -4   0    2.08    0.14
  -7  -4   0    2.29    0.16
  -7  -4   0    2.15    0.24
   7  -4   0    2.15    0.16
   7   4   0    2.18    0.16
   7   4   0    2.33    0.23
   8  -4   0    6.94    0.27
   8  -4   0    7.34    0.25
  -8  -4   0    6.91    0.24
   8  -4   0    6.75    0.28
   8  -4   0    6.70    0.32
   8  -4   0    6.91    0.31
  -8  -4   0    6.98    0.24
  -8  -4   0    6.47    0.47
   8   4   0    6.54    0.28
   8   4   0    7.29    0.41
   0  -5   0    0.06    0.06
   0  -5   0    0.07    0.07
   0  -5   0    0.12    0.05
   0   5   0    0.08    0.04
   0   5   0    0.11    0.06
   0   5   0    0.12    0.06
  -1  -5   0   46.83    0.85
  -1  -5   0   47.81    0.81
   1  -5   0   46.21    0.79
  -1  -5   0   47.63    0.92
  -1  -5   0   46.88    0.86
   1  -5   0   47.72    0.82
  -1   5   0   46.64    0.67
   1   5   0   48.41    0.85
  -1   5   0   47.49    0.86
   1   5   0   48.64    0.83
   2  -5   0   17.10    0.40
   2  -5   0   16.19    0.37
  -2  -5   0   16.48    0.45
  -2  -5   0   16.91    0.39
  -2  -5   0   15.98    0.45
   2  -5   0   16.50    0.43
  -2  -5   0   16.95    0.48
   2   5   0   16.38    0.43
  -2   5   0   16.62    0.45
   3  -5   0    0.25    0.07
  -3  -5   0    0.39    0.11
   3  -5   0    0.37    0.08
  -3  -5   0    0.41    0.08
   3  -5   0    0.41    0.07
  -3  -5   0    0.24    0.09
  -3  -5   0    0.29    0.10
   3   5   0    0.33    0.09
  -3   5   0    0.42    0.10
   3   5   0    0.38    0.10
   4  -5   0    0.95    0.11
   4  -5   0    0.74    0.08
  -4  -5   0    0.71    0.13
  -4  -5   0    0.79    0.13
  -4  -5   0    0.85    0.09
  -4  -5   0    0.64    0.12
   4  -5   0    0.78    0.12
   4   5   0    0.90    0.12
   4   5   0    0.71    0.18
  -4   5   0    0.73    0.13
  -5  -5   0   10.65    0.25
   5  -5   0   10.96    0.32
  -5  -5   0   11.15    0.39
  -5  -5   0   10.62    0.41
   5  -5   0   10.65    0.36
   5  -5   0   10.97    0.29
   5   5   0   11.33    0.44
   5   5   0   10.21    0.34
  -6  -5   0   17.47    0.57
   6  -5   0   18.62    0.43
  -6  -5   0   18.39    0.55
   6  -5   0   19.04    0.55
   6  -5   0   17.25    0.48
   6  -5   0   17.77    0.44
  -6  -5   0   18.55    0.52
   6   5   0   18.69    0.61
   6   5   0   17.47    0.48
   7  -5   0    0.00    0.06
   7  -5   0    0.01    0.04
   7  -5   0    0.00    0.06
   7  -5   0    0.12    0.08
  -7  -5   0    0.02    0.09
  -7  -5   0   -0.05    0.06
   7   5   0    0.14    0.16
   0  -6   0   16.04    0.43
   0  -6   0   16.08    0.46
   0  -6   0   16.21    0.44
   0   6   0   15.85    0.32
  -1  -6   0   15.65    0.47
   1  -6   0   15.72    0.44
   1  -6   0   16.14    0.45
  -1  -6   0   16.17    0.46
  -1  -6   0   15.65    0.42
   1  -6   0   14.75    0.40
   1   6   0   16.27    0.42
   1   6   0   15.46    0.33
   2  -6   0   37.60    0.70
   2  -6   0   37.64    0.78
  -2  -6   0   36.20    0.84
   2  -6   0   38.51    0.74
  -2  -6   0   36.17    0.81
  -2  -6   0   39.06    0.72
  -2  -6   0   37.21    0.79
   2   6   0   38.71    0.77
  -3  -6   0   16.25    0.53
  -3  -6   0   16.58    0.50
   3  -6   0   16.74    0.40
  -3  -6   0   16.19    0.52
  -3  -6   0   17.35    0.42
  -3  -6   0   16.41    0.50
   3  -6   0   16.94    0.48
   3  -6   0   17.36    0.44
   3   6   0   17.64    0.50
   3   6   0   16.62    0.47
  -4  -6   0    5.21    0.21
   4  -6   0    5.30    0.27
  -4  -6   0    5.10    0.28
   4  -6   0    5.22    0.20
  -4  -6   0    5.32    0.29
   4  -6   0    5.51    0.24
  -4  -6   0    6.18    0.46
   4   6   0    5.15    0.26
   4   6   0    4.96    0.28
  -5  -6   0    0.75    0.16
   5  -6   0    0.97    0.10
  -5  -6   0    0.73    0.15
   5  -6   0    0.82    0.13
   5  -6   0    0.81    0.11
  -5  -6   0    1.06    0.17
  -5  -6   0    0.79    0.09
   5   6   0    1.00    0.18
   5   6   0    0.62    0.15
  -5   6   0    0.84    0.16
  -6  -6   0    0.47    0.12
   6  -6   0    0.56    0.10
   6  -6   0    0.38    0.11
   6  -6   0    0.45    0.10
   6  -6   0    0.53    0.14
   6  -6   0    0.52    0.10
   6  -6   0    0.57    0.11
   6   6   0    0.51    0.18
   0  -7   0    0.07    0.07
   0  -7   0    0.16    0.08
   0  -7   0    0.26    0.09
   0  -7   0    0.24    0.10
   0   7   0    0.11    0.08
   0   7   0    0.10    0.04
  -1  -7   0    3.25    0.21
   1  -7   0    3.46    0.23
   1  -7   0    3.42    0.22
  -1  -7   0    3.43    0.25
  -1  -7   0    3.52    0.26
  -1  -7   0    3.37    0.21
   1   7   0    3.62    0.16
   1   7   0    3.58    0.20
   1   7   0    3.17    0.23
  -1   7   0    3.44    0.24
  -2  -7   0    3.69    0.24
  -2  -7   0    3.12    0.26
   2  -7   0    3.50    0.22
  -2  -7   0    3.11    0.25
  -2  -7   0    3.37    0.21
   2  -7   0    3.20    0.22
   2  -7   0    3.14    0.18
   2   7   0    3.21    0.17
  -2   7   0    3.01    0.24
   2   7   0    3.22    0.21
  -3  -7   0    1.75    0.19
  -3  -7   0    2.09    0.19
   3  -7   0    1.87    0.17
   3  -7   0    1.80    0.18
  -3  -7   0    1.93    0.16
   3  -7   0    1.76    0.14
   3   7   0    2.01    0.19
  -3   7   0    1.96    0.21
   4  -7   0    3.08    0.21
   4  -7   0    2.91    0.17
  -4  -7   0    3.05    0.24
  -4  -7   0    3.21    0.19
   4  -7   0    3.38    0.23
  -4   7   0    2.93    0.26
   4   7   0    3.47    0.25
   0  -8   0    2.42    0.19
   0  -8   0    2.58    0.22
   0  -8   0    2.70    0.23
   0  -8   0    2.55    0.24
  -1  -8   0    4.23    0.25
  -1  -8   0    4.64    0.31
   1  -8   0    4.43    0.29
   1  -8   0    4.13    0.27
   1  -8   0    4.34    0.24
  -1  -8   0    5.03    0.29
  -1  -8   0    4.80    0.31
   1   8   0    4.16    0.18
   1   8   0    4.27    0.22
   9   0  -1   -0.02    0.06
   9   0  -1    0.12    0.05
   9   0  -1    0.15    0.09
   8   0  -1    0.05    0.05
   8   0  -1    0.02    0.06
   8   0  -1   -0.02    0.06
  -8   0   1    0.05    0.06
   7   0  -1    0.04    0.05
   7   0  -1   -0.03    0.04
   7   0  -1   -0.03    0.06
   6   0  -1    0.13    0.06
   6   0  -1    0.08    0.05
  -6   0   1    0.01    0.04
   5   0  -1    0.07    0.05
  -5   0   1    0.12    0.04
   5   0  -1    0.14    0.05
   5   0  -1    0.09    0.02
   4   0  -1    0.11    0.05
   4   0  -1    0.07    0.03
  -4   0   1    0.12    0.03
  -4   0   1    0.15    0.05
   4   0  -1    0.13    0.05
   2   0  -1    0.10    0.02
  -2   0   1    0.08    0.02
   2   0  -1    0.13    0.03
   2   0  -1    0.08    0.03
  -2   0   1    0.11    0.02
  -1   0   1   -0.01    0.01
   1   0  -1    0.02    0.01
  -1   0   1    0.01    0.01
   1   0  -1    0.00    0.01
   1   0  -1    0.01    0.01
  -1   0   1    0.00    0.01
   1   0  -1    0.00    0.01
  -1   0   1    0.00    0.01
   0   0   1    0.02    0.01
   0   0  -1    0.02    0.01
   0   0   1    0.03    0.01
   0   0  -1    0.05    0.02
   0   0   1    0.02    0.02
   0   0  -1    0.01    0.01
   0   0  -1    0.03    0.02
   0   0   1    0.04    0.01
   1   0   1    0.34    0.04
   1   0   1    0.17    0.04
  -1   0  -1    0.23    0.04
   1   0   1    0.19    0.04
   2   0   1    0.05    0.03
   2   0   1    0.02    0.02
   2   0   1    0.02    0.02
  -2   0  -1    0.04    0.02
   2   0   1    0.03    0.02
  -2   0  -1    0.02    0.02
  -3   0  -1    0.11    0.04
   3   0   1    0.12    0.03
   3   0   1    0.11    0.04
  -3   0  -1    0.13    0.04
   3   0   1    0.11    0.03
   3   0   1    0.09    0.04
   4   0   1    0.10    0.05
   4   0   1    0.12    0.04
  -4   0  -1    0.12    0.04
   4   0   1    0.06    0.03
   4   0   1    0.22    0.04
  -4   0  -1    0.10    0.04
   4   0   1    0.12    0.03
  -5   0  -1    0.03    0.04
   5   0   1    0.06    0.04
   5   0   1    0.01    0.04
   5   0   1    0.04    0.04
   6   0   1   -0.04    0.05
   6   0   1    0.03    0.04
   6   0   1    0.01    0.04
   7   0   1    0.37    0.11
   7   0   1    0.38    0.11
   8   0   1    0.13    0.08
   8   0   1    0.07    0.08
   8   0   1    0.07    0.06
   9   0   1    0.13    0.10
   9   0   1   -0.06    0.07
   9   0   1   -0.04    0.06
  -9  -1   1   -0.01    0.08
   9  -1  -1    0.01    0.07
   9  -1  -1    0.12    0.09
   9  -1  -1    0.13    0.06
   9  -1  -1    0.04    0.05
   9   1  -1    0.04    0.06
   9   1  -1    0.15    0.08
   9   1  -1   -0.02    0.08
  -8  -1   1   18.95    0.50
   8  -1  -1   19.26    0.56
   8  -1  -1   17.65    0.50
   8  -1  -1   18.13    0.41
   8   1  -1   18.32    0.51
   8   1  -1   17.45    0.39
   8   1  -1   17.85    0.57
   7  -1  -1    1.91    0.10
   7  -1  -1    1.98    0.12
  -7  -1   1    1.91    0.15
   7  -1  -1    1.80    0.15
   7  -1  -1    1.86    0.16
   7   1  -1    2.02    0.16
   7   1  -1    1.93    0.12
   6  -1  -1    0.44    0.06
   6  -1  -1    0.40    0.07
  -6  -1   1    0.64    0.10
   6  -1  -1    0.51    0.07
   6  -1  -1    0.40    0.09
   6  -1  -1    0.44    0.09
   6   1  -1    0.40    0.08
   6   1  -1    0.38    0.09
   6   1  -1    0.54    0.08
   5  -1  -1    0.52    0.09
   5  -1  -1    0.55    0.09
   5  -1  -1    0.49    0.06
  -5  -1   1    0.39    0.04
  -5  -1   1    0.37    0.04
   5  -1  -1    0.35    0.05
  -5  -1   1    0.61    0.10
   5   1  -1    0.45    0.09
   5   1  -1    0.49    0.08
  -4  -1   1  179.72    2.41
  -4  -1   1  180.16    2.33
   4   1  -1  183.33    2.42
   4   1  -1  183.83    2.46
   3  -1  -1   11.56    0.27
   3  -1  -1   11.53    0.20
   3  -1  -1   11.33    0.19
  -3  -1   1   10.60    0.26
   3  -1  -1   11.39    0.22
  -3   1   1   11.70    0.23
   3   1  -1   11.67    0.22
   3   1  -1   11.87    0.28
   3   1  -1   11.73    0.27
  -2  -1   1  112.36    4.17
   2  -1  -1  114.94    3.41
   2   1  -1  113.24    4.16
  -2   1   1  117.05    3.50
   0  -1   1  133.27    3.69
   0  -1  -1  134.57    4.22
   0   1  -1  133.01    3.67
  -1  -1  -1   89.70    1.17
  -1  -1  -1   90.27    1.19
  -3  -1  -1   13.39    0.27
   3  -1   1   13.75    0.39
   3  -1   1   13.15    0.29
   3  -1   1   13.08    0.27
  -3  -1  -1   13.31    0.25
  -3  -1  -1   13.31    0.33
   3   1   1   12.92    0.33
   3   1   1   13.50    0.27
  -4  -1  -1    0.44    0.09
   4  -1   1    0.36    0.08
   4  -1   1    0.37    0.06
   4  -1   1    0.42    0.06
  -4  -1  -1    0.38    0.06
   4  -1   1    0.44    0.07
   4   1   1    0.36    0.06
   4   1   1    0.31    0.07
   5  -1   1   59.69    0.93
   5  -1   1   58.40    0.99
   5  -1   1   60.10    0.86
  -5  -1  -1   59.66    0.92
  -5  -1  -1   59.64    1.03
   5  -1   1   59.63    1.07
   5   1   1   59.03    0.93
   5   1   1   60.40    1.06
  -6  -1  -1    4.12    0.18
   6  -1   1    4.02    0.22
   6  -1   1    4.07    0.18
   6  -1   1    4.35    0.14
   6  -1   1    4.45    0.25
   6  -1   1    4.19    0.22
   6   1   1    4.20    0.19
   6   1   1    4.64    0.25
  -7  -1  -1    6.20    0.23
   7  -1   1    5.75    0.27
   7  -1   1    6.12    0.33
   7  -1   1    5.52    0.27
   7  -1   1    5.73    0.23
   7  -1   1    5.69    0.16
   7   1   1    5.14    0.32
   7   1   1    5.80    0.31
   7   1   1    5.47    0.25
   7   1   1    5.37    0.23
   8  -1   1   10.53    0.46
   8  -1   1   10.42    0.41
   8  -1   1   10.75    0.39
   8  -1   1   10.91    0.35
   8   1   1   10.78    0.34
   8   1   1   10.34    0.49
   8   1   1   10.80    0.45
   8   1   1   10.61    0.36
   9  -1   1    1.54    0.18
   9  -1   1    1.77    0.21
   9  -1   1    2.04    0.16
   9  -1   1    1.30    0.17
   9   1   1    1.97    0.30
   9   1   1    1.79    0.16
   9   1   1    2.04    0.17
   9   1   1    1.89    0.25
   9  -2  -1    0.53    0.13
   9  -2  -1    0.30    0.11
   9  -2  -1    0.62    0.09
  -9  -2   1    0.41    0.11
   9  -2  -1    0.48    0.12
   9   2  -1    0.49    0.15
   9   2  -1    0.35    0.08
   9   2  -1    0.42    0.11
   8  -2  -1    1.08    0.09
   8  -2  -1    0.92    0.09
  -8  -2   1    1.20    0.16
   8  -2  -1    0.97    0.14
   8  -2  -1    1.01    0.17
   8  -2  -1    0.98    0.13
   8   2  -1    1.21    0.22
   8   2  -1    0.83    0.10
   8   2  -1    1.17    0.21
   7  -2  -1   30.83    0.69
   7  -2  -1   31.48    0.57
   7  -2  -1   30.65    0.53
   7  -2  -1   31.06    0.70
   7  -2  -1   31.30    0.68
  -7  -2   1   31.58    0.68
   7   2  -1   30.96    0.76
   7   2  -1   30.44    0.69
   7   2  -1   30.45    0.57
  -6  -2   1   31.28    0.55
   6  -2  -1   31.00    0.65
   6  -2  -1   31.52    0.56
  -6  -2   1   31.14    0.53
   6  -2  -1   31.84    0.65
  -6  -2   1   31.23    0.65
   6   2  -1   30.88    0.56
   6   2  -1   31.61    0.72
   6   2  -1   30.95    0.66
  -5  -2   1   10.59    0.33
   5  -2  -1   10.37    0.23
  -5  -2   1   10.02    0.31
   5  -2  -1   10.50    0.26
  -5  -2   1   10.29    0.26
   5  -2  -1   10.56    0.31
   5   2  -1   10.83    0.35
   5   2  -1   10.75    0.26
   5   2  -1   10.85    0.33
   4  -2  -1   19.38    0.43
   4  -2  -1   20.09    0.34
  -4  -2   1   19.97    0.45
   4  -2  -1   20.35    0.39
  -4  -2   1   20.30    0.44
   4   2  -1   20.36    0.38
   4   2  -1   20.26    0.45
   4   2  -1   20.64    0.47
  -4   2   1   20.48    0.40
  -3  -2   1    5.72    0.20
  -3  -2   1    5.73    0.20
   3  -2  -1    6.06    0.14
   3  -2  -1    6.08    0.17
  -3  -2   1    5.91    0.18
  -3   2   1    5.82    0.18
   3   2  -1    6.07    0.17
   3   2  -1    5.71    0.21
   3   2  -1    6.18    0.21
  -3   2   1    5.87    0.17
  -2  -2   1   26.57    0.46
  -2  -2   1   26.12    0.43
   2  -2  -1   26.96    0.40
  -2  -2   1   26.81    0.48
  -2   2   1   25.98    0.41
  -2   2   1   26.39    0.44
   2   2  -1   26.51    0.43
   2   2  -1   22.10    0.50
   2   2  -1   25.75    0.47
   1  -2  -1  191.41    5.88
   1  -2  -1  185.23    5.93
  -1  -2   1  190.93    6.19
   1   2  -1  190.83    6.24
   0  -2  -1   29.81    0.49
   0  -2   1   30.63    0.48
   0  -2  -1   31.06    0.50
   0  -2   1   29.72    0.43
   0  -2  -1   31.03    0.47
   0  -2  -1   31.29    0.49
   0  -2   1   30.54    0.43
   0   2   1   30.36    0.47
   0   2  -1   30.64    0.45
   0   2   1   31.05    0.50
   0   2  -1   30.53    0.42
   0   2   1   30.60    0.47
  -1  -2  -1  134.38    5.38
   1  -2   1  136.39    4.29
  -1   2  -1  136.26    4.33
   1   2   1  140.08    5.60
  -2  -2  -1   18.97    0.41
   2  -2   1   18.46    0.38
  -2  -2  -1   19.01    0.37
  -2  -2  -1   19.18    0.31
   2  -2   1   19.11    0.35
  -2  -2  -1   18.32    0.36
  -2   2  -1   17.71    0.40
   2   2   1   19.95    0.31
   2   2   1   19.12    0.38
  -2   2  -1   18.63    0.36
   3  -2   1    0.10    0.04
   3  -2   1    0.13    0.04
   3  -2   1    0.10    0.04
  -3  -2  -1    0.16    0.05
   3  -2   1    0.15    0.03
  -3  -2  -1    0.10    0.04
  -3  -2  -1    0.14    0.05
   3   2   1    0.07    0.04
   3   2   1    0.13    0.05
   4  -2   1    9.88    0.26
   4  -2   1    9.91    0.29
  -4  -2  -1   10.03    0.26
   4  -2   1   10.58    0.31
  -4  -2  -1   10.21    0.28
   4  -2   1   10.55    0.27
  -4  -2  -1   10.06    0.33
   4  -2   1    9.80    0.27
   4   2   1   10.35    0.28
   4   2   1   10.06    0.34
   4   2   1   10.06    0.30
  -5  -2  -1   42.52    0.75
  -5  -2  -1   44.38    0.86
   5  -2   1   43.59    0.75
   5  -2   1   44.47    0.72
   5  -2   1   43.83    0.83
   5  -2   1   42.91    0.79
  -5  -2  -1   44.42    0.76
   5  -2   1   43.66    0.77
   5   2   1   43.94    0.76
   5   2   1   42.38    0.78
   5   2   1   43.29    0.88
   6  -2   1   51.14    0.92
   6  -2   1   50.83    0.82
   6  -2   1   50.67    0.88
   6  -2   1   50.95    0.92
  -6  -2  -1   50.44    0.87
   6  -2   1   52.48    1.00
   6   2   1   51.71    0.89
   6   2   1   51.62    1.04
   6   2   1   50.72    0.91
   7  -2   1    0.26    0.08
   7  -2   1    0.26    0.09
   7  -2   1    0.38    0.07
  -7  -2  -1    0.28    0.08
   7  -2   1    0.32    0.08
   7  -2   1    0.35    0.10
   7   2   1    0.36    0.10
   7   2   1    0.37    0.09
   7   2   1    0.33    0.11
   8  -2   1    0.01    0.06
   8  -2   1    0.11    0.05
  -8  -2  -1    0.19    0.08
   8  -2   1    0.14    0.08
   8  -2   1    0.07    0.07
   8  -2   1   -0.03    0.05
   8   2   1    0.21    0.10
   8   2   1    0.02    0.08
   8   2   1    0.05    0.07
   8   2   1    0.12    0.07
   9  -3  -1   10.05    0.39
   9  -3  -1    9.80    0.41
   9  -3  -1    9.21    0.35
   9  -3  -1   10.04    0.41
  -9  -3   1   10.15    0.40
   9   3  -1    9.71    0.47
   9   3  -1   10.04    0.41
   9   3  -1    9.24    0.31
   8  -3  -1    1.44    0.12
   8  -3  -1    1.32    0.15
   8  -3  -1    1.28    0.14
   8  -3  -1    1.47    0.10
  -8  -3   1    1.48    0.16
   8  -3  -1    1.43    0.16
   8   3  -1    1.41    0.13
   8   3  -1    1.84    0.17
   8   3  -1    1.24    0.21
  -7  -3   1   37.14    0.80
  -7  -3   1   38.12    0.67
  -7  -3   1   37.67    0.68
   7  -3  -1   37.09    0.74
   7  -3  -1   38.22    0.61
   7  -3  -1   35.63    0.86
   7  -3  -1   38.63    0.78
   7  -3  -1   37.47    0.69
   7   3  -1   36.42    0.68
   7   3  -1   35.92    0.87
   7   3  -1   36.97    0.81
   6  -3  -1    4.23    0.19
   6  -3  -1    4.68    0.20
   6  -3  -1    4.65    0.16
   6  -3  -1    4.24    0.22
  -6  -3   1    4.50    0.19
  -6  -3   1    4.25    0.22
  -6  -3   1    4.35    0.24
   6   3  -1    4.67    0.30
   6   3  -1    4.45    0.33
   6   3  -1    4.22    0.23
   5  -3  -1   60.80    0.85
   5  -3  -1   61.83    0.89
  -5  -3   1   61.67    1.07
   5  -3  -1   60.98    0.97
  -5  -3   1   60.18    1.05
   5  -3  -1   59.95    1.04
   5  -3  -1   62.12    0.92
   5   3  -1   61.36    1.11
   5   3  -1   61.01    1.06
   5   3  -1   60.89    0.95
   4  -3  -1    4.81    0.19
  -4  -3   1    4.72    0.21
   4  -3  -1    4.33    0.12
  -4  -3   1    4.79    0.21
  -4  -3   1    4.62    0.13
   4  -3  -1    4.93    0.15
   4   3  -1    4.69    0.22
  -4   3   1    4.55    0.18
   4   3  -1    4.69    0.17
   4   3  -1    4.60    0.22
  -3  -3   1   28.89    0.59
  -3  -3   1   28.91    0.47
   3  -3  -1   29.84    0.54
  -3  -3   1   28.03    0.54
  -3  -3   1   28.91    0.57
   3  -3  -1   29.65    0.48
  -3   3   1   28.62    0.55
   3   3  -1   29.74    0.59
  -3   3   1   29.18    0.52
   3   3  -1   28.33    0.51
  -2  -3   1    1.59    0.11
  -2  -3   1    1.45    0.10
   2  -3  -1    1.56    0.10
  -2  -3   1    1.53    0.09
   2  -3  -1    1.87    0.09
   2  -3  -1    1.60    0.09
  -2  -3   1    1.53    0.10
  -2   3   1    1.61    0.09
   2   3  -1    1.59    0.10
  -2   3   1    1.58    0.10
   2   3  -1    1.48    0.10
  -1  -3   1   71.33    1.01
   1  -3  -1   70.40    1.01
   1  -3  -1   69.58    0.99
  -1  -3   1   69.45    1.07
  -1  -3   1   68.27    0.99
  -1  -3   1   69.40    1.00
  -1   3   1   69.33    1.02
  -1   3   1   68.58    0.98
   1   3  -1   69.53    1.01
   1   3  -1   67.83    0.99
   1   3  -1   68.39    0.94
  -1   3   1   68.90    0.90
   0  -3  -1   91.65    1.32
   0  -3   1   91.53    1.28
   0  -3   1   92.02    1.30
   0  -3  -1   92.33    1.30
   0  -3  -1   91.02    1.27
   0   3   1   92.32    1.29
   0   3   1   90.36    1.27
   0   3  -1   93.38    1.32
   0   3  -1   93.40    1.21
   0   3  -1   94.36    1.22
   0   3   1   92.71    1.29
   1  -3   1    1.98    0.07
  -1  -3  -1    2.29    0.12
   1  -3   1    2.06    0.12
   1  -3   1    2.20    0.11
  -1  -3  -1    1.87    0.12
  -1  -3  -1    2.05    0.10
   1  -3   1    2.18    0.08
  -1  -3  -1    2.20    0.13
  -1   3  -1    1.97    0.12
   1   3   1    2.00    0.11
   1   3   1    2.06    0.10
   1   3   1    2.10    0.12
   2  -3   1   50.15    0.70
  -2  -3  -1   50.87    0.83
   2  -3   1   49.53    0.79
   2  -3   1   50.84    0.82
  -2  -3  -1   50.04    0.83
  -2  -3  -1   49.42    0.73
   2  -3   1   51.18    0.69
  -2  -3  -1   50.39    0.87
   2   3   1   50.03    0.74
   2   3   1   49.63    0.80
  -2   3  -1   50.13    0.75
   2   3   1   50.35    0.86
  -2   3  -1   49.41    0.86
  -3  -3  -1   20.40    0.45
   3  -3   1   20.23    0.37
  -3  -3  -1   20.65    0.45
  -3  -3  -1   20.55    0.35
   3  -3   1   19.93    0.42
   3  -3   1   20.73    0.44
  -3  -3  -1   19.90    0.49
   3   3   1   20.41    0.50
  -3   3  -1   18.71    0.47
   3   3   1   20.25    0.44
  -4  -3  -1   53.37    0.90
  -4  -3  -1   54.44    0.89
   4  -3   1   53.11    0.88
   4  -3   1   52.87    0.82
   4  -3   1   52.86    0.87
   4  -3   1   53.67    0.85
  -4  -3  -1   53.18    0.99
   4   3   1   53.76    1.00
   4   3   1   52.92    0.90
  -5  -3  -1    3.26    0.17
   5  -3   1    3.31    0.16
   5  -3   1    3.10    0.17
   5  -3   1    3.46    0.18
   5  -3   1    3.22    0.16
  -5  -3  -1    3.26    0.18
   5  -3   1    3.28    0.17
   5   3   1    3.17    0.22
   5   3   1    3.30    0.19
   6  -3   1    7.21    0.27
   6  -3   1    6.95    0.28
   6  -3   1    7.00    0.25
   6  -3   1    7.44    0.28
   6  -3   1    7.31    0.27
  -6  -3  -1    7.02    0.23
   6   3   1    7.09    0.35
   6   3   1    7.07    0.28
   7  -3   1    2.55    0.17
   7  -3   1    2.19    0.16
   7  -3   1    2.31    0.15
   7  -3   1    2.22    0.17
  -7  -3  -1    2.10    0.21
   7  -3   1    2.40    0.16
  -7  -3  -1    2.08    0.16
   7   3   1    2.18    0.22
   7   3   1    2.18    0.17
   8  -3   1    0.72    0.14
   8  -3   1    0.86    0.12
  -8  -3  -1    0.94    0.15
   8  -3   1    0.83    0.14
   8  -3   1    0.68    0.12
   8  -3   1    0.58    0.12
   8   3   1    0.54    0.18
   8   3   1    0.64    0.24
   8   3   1    0.66    0.13
   8  -4  -1    1.07    0.11
   8  -4  -1    1.10    0.10
  -8  -4   1    1.06    0.16
   8  -4  -1    1.15    0.15
   8  -4  -1    1.17    0.16
   8  -4  -1    1.15    0.17
  -8  -4   1    1.12    0.12
   8   4  -1    1.70    0.27
   8   4  -1    0.89    0.12
   7  -4  -1    2.80    0.20
   7  -4  -1    2.78    0.18
  -7  -4   1    2.81    0.18
   7  -4  -1    2.89    0.19
   7  -4  -1    2.85    0.14
  -7  -4   1    2.82    0.21
   7  -4  -1    2.80    0.14
   7   4  -1    2.53    0.17
   7   4  -1    3.03    0.25
  -6  -4   1    0.22    0.09
  -6  -4   1    0.58    0.13
   6  -4  -1    0.82    0.08
   6  -4  -1    0.61    0.08
   6  -4  -1    0.50    0.10
  -6  -4   1    0.68    0.12
   6  -4  -1    0.41    0.11
   6   4  -1    0.58    0.10
   6   4  -1    0.47    0.12
   5  -4  -1    0.38    0.06
   5  -4  -1    0.18    0.07
  -5  -4   1    0.31    0.09
   5  -4  -1    0.22    0.06
  -5  -4   1    0.21    0.09
   5  -4  -1    0.23    0.09
  -5  -4   1    0.23    0.05
   5   4  -1    0.34    0.09
   5   4  -1    0.17    0.06
   4  -4  -1   24.02    0.52
  -4  -4   1   23.54    0.55
   4  -4  -1   24.21    0.45
  -4  -4   1   24.43    0.43
  -4  -4   1   23.66    0.58
  -4  -4   1   23.34    0.57
  -4   4   1   23.38    0.52
   4   4  -1   24.20    0.58
   4   4  -1   24.19    0.50
   3  -4  -1   12.49    0.29
  -3  -4   1   12.03    0.28
  -3  -4   1   11.92    0.35
   3  -4  -1   12.08    0.33
  -3  -4   1   11.99    0.35
   3  -4  -1   12.00    0.30
  -3  -4   1   11.54    0.37
   3   4  -1   12.39    0.33
  -3   4   1   11.91    0.33
   3   4  -1   11.57    0.35
  -2  -4   1    3.51    0.15
  -2  -4   1    3.81    0.17
   2  -4  -1    3.95    0.16
  -2  -4   1    3.74    0.20
  -2  -4   1    3.76    0.18
   2  -4  -1    3.65    0.17
   2  -4  -1    3.71    0.16
  -2   4   1    3.84    0.17
   2   4  -1    3.87    0.17
   2   4  -1    3.89    0.17
  -1  -4   1    0.13    0.05
   1  -4  -1    0.17    0.05
   1  -4  -1    0.23    0.06
   1  -4  -1    0.13    0.05
  -1  -4   1    0.19    0.07
  -1  -4   1    0.20    0.05
  -1  -4   1    0.18    0.05
  -1   4   1    0.17    0.03
   1   4  -1    0.10    0.05
  -1   4   1    0.17    0.05
   1   4  -1    0.16    0.04
   1   4  -1    0.11    0.04
  -1   4   1    0.24    0.03
   0  -4  -1   -0.05    0.04
   0  -4   1   -0.03    0.03
   0  -4  -1    0.00    0.03
   0  -4   1   -0.01    0.02
   0  -4   1    0.02    0.03
   0  -4  -1    0.08    0.05
   0   4  -1   -0.01    0.02
   0   4   1   -0.03    0.03
   0   4  -1    0.01    0.04
   0   4   1   -0.01    0.03
   0   4  -1    0.07    0.03
  -1  -4  -1    0.79    0.08
   1  -4   1    0.96    0.09
  -1  -4  -1    0.82    0.10
   1  -4   1    0.91    0.06
  -1  -4  -1    0.86    0.10
   1  -4   1    0.88    0.09
   1   4   1    0.82    0.09
  -1   4  -1    0.91    0.06
  -1   4  -1    1.03    0.11
   1   4   1    0.79    0.09
   2  -4   1    4.84    0.20
  -2  -4  -1    4.96    0.17
   2  -4   1    4.97    0.19
   2  -4   1    4.87    0.14
  -2  -4  -1    4.59    0.22
  -2  -4  -1    5.29    0.22
  -2  -4  -1    5.01    0.23
  -2   4  -1    4.79    0.22
   2   4   1    4.88    0.20
   2   4   1    5.10    0.23
  -2   4  -1    4.78    0.17
   3  -4   1   26.46    0.52
  -3  -4  -1   25.50    0.46
  -3  -4  -1   26.50    0.59
  -3  -4  -1   25.75    0.61
   3  -4   1   26.47    0.43
  -3  -4  -1   26.34    0.57
   3  -4   1   25.16    0.40
   3  -4   1   25.28    0.54
   3   4   1   26.15    0.54
  -3   4  -1   25.54    0.61
   3   4   1   26.52    0.61
   4  -4   1   26.55    0.55
   4  -4   1   27.30    0.48
   4  -4   1   26.98    0.58
  -4  -4  -1   27.38    0.67
  -4  -4  -1   27.73    0.60
   4  -4   1   27.11    0.45
   4   4   1   26.87    0.57
   4   4   1   26.89    0.67
   5  -4   1    4.19    0.21
  -5  -4  -1    3.98    0.25
   5  -4   1    3.64    0.16
   5  -4   1    3.84    0.21
   5  -4   1    3.94    0.16
   5  -4   1    3.90    0.19
  -5  -4  -1    4.22    0.22
  -5  -4  -1    3.99    0.22
   5   4   1    4.61    0.27
   5   4   1    3.81    0.20
   6  -4   1    0.89    0.12
   6  -4   1    0.67    0.11
  -6  -4  -1    0.56    0.12
   6  -4   1    0.63    0.10
  -6  -4  -1    0.60    0.11
  -6  -4  -1    0.71    0.12
   6  -4   1    0.77    0.12
   6  -4   1    0.92    0.11
   6   4   1    0.76    0.17
   6   4   1    0.96    0.12
  -7  -4  -1   12.35    0.36
   7  -4   1   12.42    0.38
   7  -4   1   12.88    0.38
   7  -4   1   12.27    0.38
   7  -4   1   12.27    0.41
   7   4   1   12.56    0.40
   7   4   1   13.06    0.53
  -7  -5   1    1.97    0.18
  -7  -5   1    1.96    0.20
   7  -5  -1    1.86    0.16
   7  -5  -1    1.86    0.17
   7  -5  -1    1.96    0.13
   7  -5  -1    1.96    0.13
   7  -5  -1    1.74    0.19
   7   5  -1    1.74    0.17
  -6  -5   1    0.07    0.08
  -6  -5   1    0.14    0.08
   6  -5  -1    0.09    0.05
  -6  -5   1    0.13    0.08
   6  -5  -1    0.10    0.07
   6  -5  -1    0.14    0.06
   6  -5  -1    0.17    0.08
   6   5  -1    0.14    0.08
   6   5  -1    0.25    0.09
   5  -5  -1    7.84    0.26
  -5  -5   1    9.13    0.57
   5  -5  -1    8.12    0.26
   5  -5  -1    8.07    0.31
   5  -5  -1    7.97    0.25
  -5  -5   1    8.30    0.22
  -5  -5   1    8.51    0.35
   5   5  -1    7.77    0.30
   5   5  -1    8.00    0.36
  -5   5   1    8.09    0.33
   4  -5  -1    6.20    0.26
   4  -5  -1    7.06    0.24
  -4  -5   1    6.41    0.31
   4  -5  -1    7.01    0.24
  -4  -5   1    6.91    0.22
  -4  -5   1    6.91    0.30
  -4   5   1    7.08    0.34
   4   5  -1    6.76    0.30
   4   5  -1    6.94    0.27
   3  -5  -1   35.71    0.65
  -3  -5   1   35.64    0.73
   3  -5  -1   35.79    0.70
   3  -5  -1   35.29    0.65
  -3  -5   1   33.83    0.77
  -3  -5   1   35.60    0.64
   3   5  -1   34.75    0.69
   3   5  -1   34.96    0.72
   2  -5  -1    6.43    0.23
   2  -5  -1    6.48    0.24
  -2  -5   1    6.18    0.25
  -2  -5   1    6.47    0.26
  -2  -5   1    6.52    0.29
  -2  -5   1    6.46    0.23
   2  -5  -1    6.43    0.25
   2   5  -1    5.97    0.25
   2   5  -1    6.66    0.25
  -2   5   1    6.54    0.27
   2   5  -1    6.31    0.20
  -1  -5   1    5.90    0.28
  -1  -5   1    6.03    0.23
   1  -5  -1    5.91    0.24
   1  -5  -1    5.94    0.24
  -1  -5   1    6.54    0.25
   1  -5  -1    6.51    0.25
  -1  -5   1    6.01    0.23
   1   5  -1    5.79    0.18
  -1   5   1    6.36    0.24
   1   5  -1    6.28    0.22
   1   5  -1    6.11    0.25
   0  -5   1    5.73    0.20
   0  -5  -1    5.68    0.24
   0  -5   1    5.81    0.23
   0  -5   1    5.44    0.23
   0  -5  -1    5.74    0.23
   0  -5  -1    5.35    0.24
   0   5   1    5.59    0.23
   0   5   1    5.85    0.22
   0   5  -1    5.63    0.17
   0   5  -1    5.77    0.25
  -1  -5  -1   33.79    0.64
  -1  -5  -1   34.49    0.71
   1  -5   1   34.06    0.68
   1  -5   1   33.80    0.58
  -1  -5  -1   32.96    0.73
  -1  -5  -1   33.13    0.69
   1  -5   1   34.83    0.65
  -1  -5  -1   32.90    0.71
  -1   5  -1   33.34    0.55
   1   5   1   34.63    0.68
  -1   5  -1   34.66    0.72
   1   5   1   34.43    0.66
  -2  -5  -1   45.63    0.90
   2  -5   1   45.33    0.80
  -2  -5  -1   45.48    0.89
  -2  -5  -1   45.98    0.77
   2  -5   1   45.18    0.70
  -2  -5  -1   44.37    0.86
   2  -5   1   46.12    0.84
  -2   5  -1   44.12    0.90
   2   5   1   45.31    0.87
  -3  -5  -1    0.09    0.06
  -3  -5  -1    0.01    0.06
  -3  -5  -1    0.05    0.05
   3  -5   1    0.06    0.06
   3  -5   1    0.02    0.03
   3  -5   1    0.01    0.05
   3   5   1    0.03    0.05
   3   5   1    0.01    0.06
  -3   5  -1    0.04    0.06
   4  -5   1    0.56    0.07
   4  -5   1    0.61    0.10
   4  -5   1    0.33    0.08
  -4  -5  -1    0.45    0.07
  -4  -5  -1    0.48    0.11
  -4  -5  -1    0.62    0.12
  -4  -5  -1    0.45    0.12
  -4   5  -1    0.49    0.12
   4   5   1    0.47    0.10
   4   5   1    0.53    0.12
   5  -5   1    8.39    0.32
   5  -5   1    8.83    0.23
   5  -5   1    8.43    0.25
  -5  -5  -1    8.80    0.34
  -5  -5  -1    8.35    0.39
   5   5   1    8.63    0.48
   5   5   1    9.11    0.40
  -6  -5  -1    0.01    0.07
   6  -5   1    0.05    0.06
   6  -5   1   -0.01    0.05
   6  -5   1    0.09    0.08
   6  -5   1    0.07    0.06
  -6  -5  -1   -0.03    0.07
   6   5   1    0.05    0.07
   6   5   1    0.02    0.09
   7  -5   1    0.09    0.06
   7  -5   1   -0.04    0.06
  -7  -5  -1    0.04    0.07
   7  -5   1    0.03    0.07
  -7  -5  -1    0.13    0.08
   7  -5   1    0.10    0.06
   7  -5   1    0.00    0.04
   7   5   1   -0.07    0.08
   6  -6  -1    2.65    0.17
  -6  -6   1    2.90    0.23
   6  -6  -1    2.87    0.17
   6  -6  -1    2.23    0.22
   6  -6  -1    2.55    0.17
   6  -6  -1    2.99    0.21
   6   6  -1    2.88    0.25
   5  -6  -1    2.17    0.18
   5  -6  -1    2.46    0.16
  -5  -6   1    2.28    0.21
  -5  -6   1    2.49    0.36
  -5  -6   1    2.32    0.14
   5  -6  -1    2.55    0.17
  -5  -6   1    2.43    0.20
   5  -6  -1    2.46    0.16
   5   6  -1    2.39    0.19
   5   6  -1    2.21    0.20
  -4  -6   1    0.58    0.16
  -4  -6   1    0.79    0.11
  -4  -6   1    0.59    0.14
   4  -6  -1    0.53    0.12
   4  -6  -1    0.87    0.10
  -4  -6   1    1.03    0.17
   4  -6  -1    0.77    0.12
   4  -6  -1    0.72    0.14
   4   6  -1    0.66    0.13
  -4   6   1    0.66    0.14
   4   6  -1    0.48    0.12
  -3  -6   1    0.99    0.13
  -3  -6   1    0.90    0.16
  -3  -6   1    1.22    0.16
  -3  -6   1    1.09    0.17
   3  -6  -1    1.18    0.17
   3  -6  -1    1.02    0.13
   3   6  -1    1.18    0.14
   3   6  -1    0.78    0.12
   3   6  -1    1.01    0.15
  -3   6   1    1.10    0.17
  -2  -6   1    7.42    0.28
  -2  -6   1    7.54    0.32
   2  -6  -1    7.17    0.28
   2  -6  -1    7.17    0.33
  -2  -6   1    6.96    0.29
   2  -6  -1    7.42    0.30
   2   6  -1    7.03    0.27
   2   6  -1    6.99    0.23
   1  -6  -1    0.05    0.07
   1  -6  -1    0.02    0.06
   1  -6  -1   -0.03    0.08
  -1  -6   1    0.14    0.08
  -1  -6   1    0.10    0.06
   1   6  -1    0.02    0.05
   0  -6   1    2.57    0.15
   0  -6  -1    2.68    0.19
   0  -6  -1    2.42    0.18
   0  -6  -1    2.64    0.20
   0  -6  -1    2.83    0.19
   0  -6   1    2.80    0.19
   0  -6   1    2.81    0.21
   0  -6   1    2.91    0.19
   0   6   1    2.69    0.11
   0   6   1    2.82    0.15
   0   6  -1    2.56    0.13
  -1  -6  -1    0.24    0.09
  -1  -6  -1    0.12    0.09
   1  -6   1    0.23    0.09
  -1  -6  -1    0.21    0.08
   1  -6   1    0.36    0.07
  -1  -6  -1    0.18    0.09
   1  -6   1    0.22    0.07
  -1   6  -1    0.20    0.05
   1   6   1    0.23    0.09
   1   6   1    0.28    0.09
   2  -6   1    0.07    0.04
   2  -6   1    0.02    0.06
  -2  -6  -1    0.07    0.07
  -2  -6  -1    0.11    0.08
  -2  -6  -1    0.16    0.07
  -2  -6  -1    0.02    0.06
   2  -6   1    0.09    0.06
   2   6   1    0.04    0.06
  -3  -6  -1    2.17    0.19
  -3  -6  -1    2.38    0.20
   3  -6   1    2.34    0.12
   3  -6   1    2.26    0.18
  -3  -6  -1    2.32    0.20
   3  -6   1    2.67    0.18
  -3  -6  -1    2.15    0.15
   3   6   1    2.01    0.17
   3   6   1    2.61    0.21
  -3   6  -1    2.40    0.22
   4  -6   1    1.54    0.10
   4  -6   1    1.78    0.16
  -4  -6  -1    1.78    0.26
   4  -6   1    1.57    0.16
  -4  -6  -1    1.61    0.12
  -4  -6  -1    1.45    0.17
  -4  -6  -1    1.70    0.18
   4   6   1    1.30    0.15
  -4   6  -1    1.61    0.19
   4   6   1    1.68    0.17
   5  -6   1    2.86    0.21
  -5  -6  -1    2.95    0.23
   5  -6   1    3.08    0.19
   5  -6   1    3.05    0.14
   5  -6   1    3.10    0.13
  -5  -6  -1    3.17    0.15
  -5  -6  -1    3.13    0.24
   5   6   1    3.10    0.25
   5  -7  -1    0.71    0.15
   5  -7  -1    0.71    0.13
   5  -7  -1    0.87    0.14
  -5  -7   1    0.58    0.15
   5  -7  -1    0.70    0.12
   5   7  -1    0.55    0.13
  -5   7   1    0.64    0.16
   4  -7  -1    0.07    0.07
   4  -7  -1   -0.08    0.05
   4  -7  -1    0.10    0.15
  -4  -7   1   -0.03    0.08
  -4  -7   1    0.09    0.17
   4  -7  -1    0.11    0.07
  -4  -7   1    0.01    0.06
   4   7  -1    0.05    0.07
  -4   7   1   -0.02    0.09
   4   7  -1    0.00    0.07
  -3  -7   1    0.36    0.11
  -3  -7   1    0.35    0.11
   3  -7  -1    0.50    0.12
   3  -7  -1    0.32    0.09
  -3  -7   1    0.30    0.11
   3  -7  -1    0.28    0.09
   3  -7  -1    0.39    0.10
   3   7  -1    0.33    0.10
  -3   7   1    0.46    0.12
  -2  -7   1    0.97    0.15
   2  -7  -1    1.07    0.16
   2  -7  -1    1.05    0.16
  -2  -7   1    0.98    0.15
   2  -7  -1    1.16    0.17
  -2  -7   1    1.20    0.16
   2  -7  -1    1.20    0.15
  -2  -7   1    1.00    0.19
  -2   7   1    0.95    0.17
   2   7  -1    1.33    0.14
   2   7  -1    1.24    0.28
   2   7  -1    1.03    0.12
  -1  -7   1    0.23    0.10
   1  -7  -1    0.19    0.08
   1  -7  -1    0.21    0.08
  -1  -7   1    0.27    0.09
  -1  -7   1    0.20    0.10
   1  -7  -1    0.27    0.10
  -1  -7   1    0.18    0.08
   1  -7  -1    0.19    0.07
   1   7  -1    0.11    0.09
  -1   7   1    0.23    0.10
   1   7  -1    0.15    0.06
   0  -7   1    1.33    0.15
   0  -7   1    2.09    0.27
   0  -7  -1    1.47    0.16
   0  -7  -1    1.48    0.21
   0  -7  -1    1.31    0.15
   0  -7  -1    1.59    0.17
   0  -7   1    1.50    0.17
   0  -7   1    1.53    0.13
   0  -7  -1    1.51    0.17
   0   7  -1    1.29    0.10
   0   7  -1    1.42    0.18
   0   7   1    1.39    0.16
   0   7   1    1.45    0.09
   0   7   1    1.55    0.11
  -1  -7  -1    0.54    0.13
   1  -7   1    0.40    0.10
   1  -7   1    0.50    0.09
   1  -7   1    0.52    0.13
  -1  -7  -1    0.56    0.13
   1  -7   1    0.48    0.13
  -1  -7  -1    0.71    0.15
  -1  -7  -1    0.75    0.15
  -1  -7  -1    0.37    0.12
   1   7   1    0.42    0.12
   1   7   1    0.52    0.11
   1   7   1    0.58    0.13
   1   7   1    0.58    0.09
  -1   7  -1    0.21    0.10
  -2  -7  -1    4.24    0.27
  -2  -7  -1    4.58    0.27
   2  -7   1    4.47    0.25
  -2  -7  -1    4.27    0.23
   2  -7   1    4.25    0.25
   2  -7   1    4.14    0.17
  -2  -7  -1    4.19    0.29
   2   7   1    4.44    0.25
  -2   7  -1    4.18    0.29
   2   7   1    4.31    0.26
   3  -7   1    0.53    0.15
   3  -7   1    0.38    0.10
  -3  -7  -1    0.41    0.10
  -3  -7  -1    0.24    0.09
  -3  -7  -1    0.42    0.12
   3   7   1    0.32    0.10
  -3   7  -1    0.34    0.13
  -4  -7  -1   -0.03    0.10
   4  -7   1    0.31    0.10
   4  -7   1    0.31    0.10
  -4  -7  -1    0.29    0.08
   4   7   1    0.28    0.12
  -1  -8   1    0.18    0.11
  -1  -8   1    0.07    0.16
   1  -8  -1    0.07    0.10
   1  -8  -1   -0.06    0.10
   1  -8  -1   -0.03    0.08
  -1  -8   1    0.13    0.09
   1  -8  -1    0.16    0.10
   1   8  -1   -0.04    0.06
   0  -8  -1    0.69    0.16
   0  -8  -1    0.76    0.17
   0  -8  -1    1.23    0.20
   0  -8   1    0.89    0.14
   0  -8   1    0.88    0.17
   0  -8  -1    0.70    0.16
   0  -8   1    1.06    0.20
  10   0  -2    0.13    0.09
  10   0  -2    0.05    0.07
   9   0  -2   35.50    0.88
   9   0  -2   34.11    0.80
   8   0  -2    8.40    0.36
  -8   0   2    7.79    0.31
   8   0  -2    8.10    0.33
   7   0  -2    2.67    0.19
   7   0  -2    2.58    0.18
  -7   0   2    2.69    0.17
  -6   0   2   21.34    0.49
   6   0  -2   21.24    0.37
   6   0  -2   21.38    0.50
   6   0  -2   20.57    0.51
  -6   0   2   21.27    0.35
  -5   0   2  274.12    9.37
   5   0  -2  278.78    7.98
   4   0  -2   28.20    0.53
  -4   0   2   28.23    0.52
  -4   0   2   28.16    0.43
   4   0  -2   27.50    0.48
  -4   0   2   27.60    0.43
   4   0  -2   28.45    0.45
   3   0  -2    3.84    0.13
   3   0  -2    3.93    0.15
   3   0  -2    3.84    0.12
  -3   0   2    3.76    0.14
  -3   0   2    3.86    0.11
   1   0  -2  789.64   13.81
   0   0   2  339.47    7.59
   0   0  -2  331.45    7.64
   1   0   2  144.31    4.61
  -1   0  -2  138.62    4.52
  -2   0  -2    0.89    0.07
   2   0   2    0.91    0.07
   2   0   2    0.83    0.07
   2   0   2    0.95    0.09
   3   0   2   13.34    0.24
   3   0   2   13.94    0.27
   3   0   2   13.84    0.34
   3   0   2   14.03    0.39
  -3   0  -2   13.70    0.33
  -4   0  -2   21.23    0.47
   4   0   2   21.69    0.55
   4   0   2   20.78    0.38
   4   0   2   21.06    0.37
   4   0   2   20.85    0.48
   5   0   2    8.68    0.31
   5   0   2    8.71    0.22
  -5   0  -2    8.73    0.30
   5   0   2    8.69    0.36
   5   0   2    8.53    0.22
   5   0   2    8.42    0.19
   6   0   2   13.80    0.44
   6   0   2   13.77    0.32
   6   0   2   13.95    0.52
   7   0   2   19.86    0.65
   7   0   2   20.15    0.58
   7   0   2   19.75    0.43
   8   0   2    1.04    0.13
   8   0   2    0.95    0.16
   8   0   2    1.11    0.22
  10  -1  -2    0.72    0.15
 -10  -1   2    0.63    0.14
  10   1  -2    1.02    0.17
  10   1  -2    0.64    0.18
   9  -1  -2    8.43    0.36
   9  -1  -2    8.88    0.40
  -9  -1   2    8.19    0.34
   9   1  -2    8.70    0.41
   9   1  -2    8.22    0.22
   9   1  -2    8.36    0.37
   8  -1  -2    8.30    0.23
   8  -1  -2    7.95    0.40
   8  -1  -2    7.94    0.35
  -8  -1   2    8.35    0.33
   8   1  -2    7.96    0.21
   8   1  -2    8.54    0.38
   8   1  -2    7.86    0.39
   7  -1  -2    0.05    0.06
   7  -1  -2    0.14    0.07
   7  -1  -2    0.09    0.04
   7  -1  -2    0.10    0.04
  -7  -1   2    0.05    0.05
   7   1  -2    0.11    0.06
   7   1  -2    0.09    0.04
   7   1  -2    0.17    0.07
   6  -1  -2   17.15    0.34
   6  -1  -2   17.22    0.44
   6  -1  -2   17.07    0.44
  -6  -1   2   17.38    0.44
  -6  -1   2   18.29    0.42
   6  -1  -2   17.26    0.36
   6   1  -2   16.68    0.46
  -6   1   2   17.40    0.35
   6   1  -2   17.37    0.32
   6   1  -2   17.39    0.45
   5  -1  -2   30.77    0.50
  -5  -1   2   30.39    0.51
   5  -1  -2   30.15    0.50
  -5  -1   2   29.97    0.59
   5  -1  -2   29.48    0.59
   5   1  -2   30.50    0.46
  -5   1   2   29.87    0.50
   5   1  -2   29.63    0.61
   5   1  -2   29.77    0.60
   4  -1  -2   19.87    0.42
   4  -1  -2   20.17    0.36
  -4  -1   2   19.87    0.32
  -4  -1   2   19.65    0.38
   4  -1  -2   19.81    0.36
  -4  -1   2   19.66    0.42
   4   1  -2   19.70    0.43
  -4   1   2   20.34    0.36
   4   1  -2   19.05    0.43
  -4   1   2   19.51    0.42
   4   1  -2   19.90    0.32
  -3  -1   2    0.90    0.07
   3  -1  -2    0.73    0.06
   3  -1  -2    0.72    0.07
   3  -1  -2    0.63    0.04
  -3  -1   2    0.73    0.07
   3  -1  -2    0.72    0.06
  -3  -1   2    0.74    0.05
  -3   1   2    0.73    0.06
  -3   1   2    0.66    0.04
   3   1  -2    0.62    0.07
  -1  -1   2 1000.00   16.99
   0  -1   2   37.52    0.54
   0  -1   2   37.67    0.57
   0  -1  -2   37.30    0.56
   0  -1   2   36.98    0.60
   0  -1  -2   36.42    0.59
   0  -1  -2   37.91    0.58
   0  -1  -2   37.92    0.58
   0   1   2   37.43    0.55
   0   1  -2   37.78    0.49
   0   1   2   37.85    0.58
   0   1   2   37.12    0.59
   0   1  -2   38.22    0.58
   0   1   2   36.98    0.57
   1  -1   2    9.93    0.24
  -1  -1  -2    9.88    0.25
  -1  -1  -2    9.85    0.21
  -1  -1  -2    9.88    0.23
   1  -1   2    9.26    0.25
   1  -1   2    9.73    0.18
  -1   1  -2    9.40    0.18
  -1   1  -2    9.47    0.25
   1   1   2    9.57    0.20
   1   1   2    9.44    0.24
   1   1   2    9.67    0.23
  -2  -1  -2  141.14    1.94
  -2  -1  -2  138.10    1.80
  -2  -1  -2  145.65    1.86
   2  -1   2  145.99    1.85
   2   1   2  141.53    1.94
   2   1   2  139.54    2.00
  -2   1  -2  144.60    1.84
  -2   1  -2  143.25    1.97
   2   1   2  140.37    1.87
   3  -1   2   48.72    0.78
   3  -1   2   49.23    0.86
   3  -1   2   49.12    0.70
  -3  -1  -2   49.19    0.84
  -3  -1  -2   49.05    0.71
   3   1   2   49.14    0.91
   3   1   2   48.70    0.75
   3   1   2   48.31    0.68
   3   1   2   48.43    0.84
   3   1   2   48.99    0.70
   4  -1   2   31.64    0.69
  -4  -1  -2   32.78    0.52
   4  -1   2   31.29    0.52
   4  -1   2   31.85    0.60
  -4  -1  -2   32.23    0.65
   4   1   2   32.55    0.74
   4   1   2   31.83    0.56
   4   1   2   32.84    0.53
   4   1   2   32.10    0.67
   5  -1   2  159.77    2.35
   5  -1   2  156.27    2.07
   5  -1   2  154.62    2.08
   5  -1   2  155.59    2.21
  -5  -1  -2  154.42    2.26
  -5  -1  -2  156.57    2.07
   5   1   2  156.31    2.22
   5   1   2  158.03    2.30
   5   1   2  158.86    2.42
  -6  -1  -2   23.12    0.61
   6  -1   2   25.54    0.50
   6  -1   2   25.70    0.46
   6  -1   2   26.39    0.70
  -6  -1  -2   25.40    0.48
   6  -1   2   26.07    0.61
   6   1   2   27.04    0.81
   6   1   2   26.34    0.74
   6   1   2   25.32    0.49
   7  -1   2    1.77    0.19
   7  -1   2    1.55    0.17
   7  -1   2    1.68    0.10
   7  -1   2    1.85    0.21
   7  -1   2    1.56    0.12
   7   1   2    1.77    0.19
   7   1   2    1.55    0.19
   7   1   2    1.47    0.12
   8  -1   2    9.93    0.41
   8  -1   2    9.68    0.40
   8  -1   2    9.66    0.30
   8  -1   2    9.48    0.45
   8   1   2    9.70    0.36
   8   1   2    9.53    0.30
   8   1   2   10.77    0.51
   8   1   2    9.67    0.44
   9  -2  -2   -0.01    0.04
   9  -2  -2    0.10    0.08
   9  -2  -2   -0.04    0.08
  -9  -2   2    0.15    0.11
   9  -2  -2    0.03    0.09
   9   2  -2   -0.12    0.06
   9   2  -2    0.03    0.07
   8  -2  -2   10.88    0.28
   8  -2  -2   11.25    0.41
   8  -2  -2   10.53    0.40
   8  -2  -2   10.85    0.30
   8   2  -2   11.01    0.29
   8   2  -2   10.86    0.44
   8   2  -2   11.71    0.42
   7  -2  -2    5.79    0.19
  -7  -2   2    5.95    0.19
  -7  -2   2    5.96    0.18
   7  -2  -2    5.63    0.20
   7  -2  -2    5.60    0.26
   7  -2  -2    5.69    0.26
  -7  -2   2    5.29    0.26
   7   2  -2    6.15    0.28
   7   2  -2    5.78    0.19
   7   2  -2    5.81    0.30
   6  -2  -2   78.04    1.29
  -6  -2   2   79.51    1.19
   6  -2  -2   80.80    1.18
   6  -2  -2   79.52    1.13
  -6  -2   2   80.03    1.44
   6   2  -2   79.96    1.32
   6   2  -2   80.77    1.13
   6   2  -2   79.70    1.35
  -6   2   2   79.95    1.19
   5  -2  -2    0.04    0.04
   5  -2  -2    0.05    0.04
   5  -2  -2    0.04    0.03
  -5  -2   2    0.02    0.04
  -5  -2   2    0.04    0.04
   5   2  -2    0.03    0.04
   5   2  -2    0.03    0.05
   5   2  -2    0.03    0.03
  -5   2   2    0.11    0.04
   4  -2  -2    1.08    0.08
  -4  -2   2    1.15    0.09
   4  -2  -2    1.10    0.05
  -4  -2   2    1.15    0.10
   4  -2  -2    0.99    0.07
   4  -2  -2    1.05    0.10
  -4   2   2    1.13    0.09
   4   2  -2    1.07    0.08
   4   2  -2    1.06    0.10
   4   2  -2    1.08    0.11
   3  -2  -2  135.18    1.77
  -3  -2   2  132.77    1.86
   3  -2  -2  135.84    1.85
  -3   2   2  133.77    1.79
   3   2  -2  133.83    1.84
   2  -2  -2    6.07    0.13
  -2  -2   2    6.17    0.20
   2  -2  -2    6.18    0.18
   2  -2  -2    6.03    0.15
   2  -2  -2    6.08    0.18
  -2  -2   2    6.07    0.17
   2   2  -2    6.02    0.17
   2   2  -2    6.15    0.16
  -2   2   2    6.05    0.14
   2   2  -2    6.09    0.20
   2   2  -2    5.95    0.17
  -2   2   2    6.26    0.18
  -2   2   2    5.96    0.11
  -1  -2   2    0.93    0.06
   1  -2  -2    0.57    0.05
  -1  -2   2    0.86    0.08
   1  -2  -2    0.61    0.07
  -1  -2   2    0.56    0.07
   1  -2  -2    0.70    0.06
  -1   2   2    0.70    0.06
  -1   2   2    0.71    0.05
  -1   2   2    0.88    0.07
   1   2  -2    0.53    0.05
   1   2  -2    0.80    0.07
   0  -2  -2   17.51    0.36
   0  -2   2   18.16    0.31
   0  -2  -2   18.28    0.33
   0  -2   2   18.06    0.35
   0   2   2   17.67    0.35
   0   2   2   17.85    0.35
   0   2   2   17.16    0.35
   0   2   2   17.94    0.36
   0   2   2   17.62    0.32
   0   2  -2   17.25    0.33
   0   2  -2   17.83    0.38
  -1  -2  -2  357.30   10.16
  -1  -2  -2  336.34   10.21
   1  -2   2  351.95    8.17
  -1   2  -2  359.54    8.19
  -2  -2  -2   39.36    0.66
  -2  -2  -2   38.33    0.58
   2  -2   2   38.87    0.55
  -2  -2  -2   38.27    0.61
   2  -2   2   37.78    0.69
  -2  -2  -2   38.13    0.70
  -2   2  -2   39.32    0.68
   2   2   2   38.89    0.74
   2   2   2   38.55    0.56
   3  -2   2    0.46    0.08
   3  -2   2    0.47    0.08
  -3  -2  -2    0.44    0.07
   3  -2   2    0.46    0.05
  -3  -2  -2    0.54    0.08
  -3  -2  -2    0.64    0.11
   3   2   2    0.61    0.12
   3   2   2    0.34    0.08
   3   2   2    0.55    0.04
  -4  -2  -2   95.11    1.35
   4  -2   2   95.13    1.38
  -4  -2  -2   96.23    1.36
   4  -2   2   96.34    1.37
   4  -2   2   97.12    1.48
  -4  -2  -2   92.44    1.66
   4  -2   2   95.40    1.49
   4  -2   2   95.34    1.35
   4   2   2   97.02    1.61
   4   2   2   97.38    1.53
   5  -2   2   23.78    0.47
  -5  -2  -2   24.09    0.42
   5  -2   2   23.89    0.51
  -5  -2  -2   23.65    0.60
   5  -2   2   24.85    0.59
   5  -2   2   24.55    0.49
   5  -2   2   24.52    0.60
  -5  -2  -2   23.62    0.47
   5   2   2   24.30    0.68
   5   2   2   22.80    0.55
   5   2   2   24.06    0.62
   6  -2   2    2.55    0.19
  -6  -2  -2    2.39    0.24
   6  -2   2    2.63    0.17
   6  -2   2    2.71    0.20
   6  -2   2    2.38    0.14
  -6  -2  -2    2.47    0.14
   6  -2   2    2.58    0.14
   6   2   2    2.54    0.21
   6   2   2    2.67    0.24
   6   2   2    2.40    0.18
  -7  -2  -2    0.03    0.07
   7  -2   2    0.15    0.06
  -7  -2  -2    0.22    0.06
   7  -2   2    0.06    0.06
   7  -2   2    0.10    0.05
   7  -2   2    0.07    0.05
   7  -2   2    0.03    0.07
   7   2   2    0.11    0.07
   7   2   2    0.10    0.08
   7   2   2    0.71    0.20
   8  -2   2    0.53    0.10
   8  -2   2    0.49    0.08
  -8  -2  -2    0.42    0.10
   8  -2   2    0.43    0.11
   8  -2   2    0.40    0.12
   8  -2   2    0.35    0.11
   8   2   2    0.37    0.16
   8   2   2    0.52    0.15
   8   2   2    0.68    0.12
   9  -3  -2    6.42    0.33
   9  -3  -2    6.40    0.33
  -9  -3   2    5.64    0.31
   9  -3  -2    6.10    0.29
   9   3  -2    5.73    0.43
   9   3  -2    6.25    0.33
   9   3  -2    6.07    0.24
   8  -3  -2   58.22    0.99
  -8  -3   2   58.46    0.94
  -8  -3   2   58.76    0.92
   8  -3  -2   57.38    1.12
  -8  -3   2   57.41    1.12
   8  -3  -2   58.18    0.91
   8  -3  -2   58.70    1.11
   8  -3  -2   58.04    1.04
   8   3  -2   57.80    0.95
   8   3  -2   58.67    1.15
   8   3  -2   56.60    1.21
   7  -3  -2   38.79    0.72
   7  -3  -2   38.83    0.82
   7  -3  -2   39.67    0.74
  -7  -3   2   40.17    0.75
  -7  -3   2   39.93    0.71
   7  -3  -2   38.84    0.65
   7   3  -2   39.38    0.70
   7   3  -2   37.71    0.86
   7   3  -2   37.99    0.89
   6  -3  -2    4.16    0.19
  -6  -3   2    4.11    0.23
   6  -3  -2    4.01    0.13
   6  -3  -2    4.09    0.22
   6  -3  -2    4.20    0.16
   6   3  -2    4.10    0.24
   6   3  -2    3.76    0.24
   6   3  -2    4.03    0.18
  -5  -3   2   61.13    0.84
   5  -3  -2   60.75    0.83
   5  -3  -2   61.04    0.81
   5  -3  -2   60.24    0.86
   5  -3  -2   58.46    1.03
  -5  -3   2   56.04    0.96
   5  -3  -2   59.70    0.95
   5  -3  -2   60.23    0.90
  -5   3   2   58.62    0.97
   5   3  -2   59.47    1.07
   5   3  -2   59.09    0.92
   5   3  -2   59.09    1.05
  -4  -3   2   58.12    0.92
   4  -3  -2   59.22    0.82
  -4  -3   2   57.28    0.95
   4  -3  -2   57.77    0.91
   4  -3  -2   56.65    0.86
  -4  -3   2   57.61    1.00
   4   3  -2   56.68    0.98
  -4   3   2   57.84    0.87
  -4   3   2   58.01    0.93
   4   3  -2   57.62    0.89
   4   3  -2   56.02    0.99
  -3  -3   2    1.04    0.09
   3  -3  -2    0.75    0.09
   3  -3  -2    0.78    0.08
  -3   3   2    0.76    0.09
   3   3  -2    0.91    0.09
   2  -3  -2    3.26    0.14
  -2  -3   2    3.13    0.13
  -2  -3   2    3.42    0.14
  -2  -3   2    3.29    0.17
   2  -3  -2    3.26    0.14
   2  -3  -2    3.02    0.14
   2  -3  -2    3.40    0.14
  -2   3   2    3.08    0.14
  -2   3   2    3.44    0.13
   2   3  -2    3.40    0.13
   2   3  -2    3.09    0.14
   2   3  -2    3.62    0.16
   1  -3  -2   76.56    1.14
   1  -3  -2   79.38    1.15
   1  -3  -2   75.99    1.12
   1  -3  -2   77.49    1.15
  -1  -3   2   77.19    1.12
  -1  -3   2   78.75    1.06
  -1   3   2   78.27    1.06
   1   3  -2   76.91    1.06
   1   3  -2   78.29    1.17
  -1   3   2   78.31    1.09
   1   3  -2   78.64    1.08
  -1   3   2   80.68    1.13
   0  -3   2   71.33    0.97
   0  -3  -2   70.71    1.10
   0  -3   2   71.30    1.09
   0  -3  -2   71.89    1.09
   0  -3   2   71.22    1.05
   0  -3  -2   71.42    1.03
   0   3   2   71.99    1.06
   0   3   2   71.48    1.04
   0   3  -2   71.21    1.11
   0   3   2   70.60    1.03
   0   3   2   71.56    1.07
   0   3  -2   72.47    1.02
  -1  -3  -2   15.21    0.39
  -1  -3  -2   15.82    0.32
   1  -3   2   15.44    0.29
  -1  -3  -2   15.72    0.37
  -1   3  -2   15.09    0.40
   1   3   2   15.61    0.32
  -1   3  -2   15.45    0.34
   1   3   2   15.22    0.35
   1   3   2   14.98    0.38
   1   3   2   15.12    0.39
  -2  -3  -2   20.05    0.45
  -2  -3  -2   20.16    0.43
  -2  -3  -2   19.79    0.37
   2  -3   2   19.14    0.43
  -2  -3  -2   18.99    0.48
   2   3   2   20.11    0.44
   2   3   2   19.61    0.50
   2   3   2   19.50    0.47
   2   3   2   20.05    0.36
  -2   3  -2   20.15    0.43
  -2   3  -2   19.08    0.49
   3  -3   2   63.64    1.04
   3  -3   2   63.40    0.88
  -3  -3  -2   63.40    1.01
  -3  -3  -2   64.65    0.91
   3  -3   2   64.53    0.98
   3  -3   2   63.28    1.02
  -3  -3  -2   65.35    1.04
   3   3   2   62.90    0.89
   3   3   2   62.45    1.10
   3   3   2   63.55    1.05
  -4  -3  -2    1.15    0.11
   4  -3   2    1.28    0.12
   4  -3   2    1.33    0.13
   4  -3   2    1.40    0.11
   4  -3   2    1.16    0.09
  -4  -3  -2    1.12    0.17
  -4  -3  -2    1.31    0.11
   4   3   2    1.18    0.15
   4   3   2    1.43    0.19
   4   3   2    1.11    0.13
   5  -3   2    1.10    0.11
   5  -3   2    1.06    0.10
   5  -3   2    0.98    0.11
   5  -3   2    1.02    0.10
  -5  -3  -2    1.11    0.11
   5  -3   2    1.16    0.13
  -5  -3  -2    1.01    0.11
   5   3   2    0.95    0.16
   5   3   2    1.09    0.13
   5   3   2    0.70    0.12
   6  -3   2    0.03    0.05
  -6  -3  -2    0.08    0.05
   6  -3   2    0.06    0.04
   6  -3   2    0.06    0.06
   6  -3   2    0.05    0.05
  -6  -3  -2    0.08    0.04
   6  -3   2    0.12    0.05
   6   3   2    0.07    0.07
   6   3   2    0.18    0.10
   6   3   2    0.12    0.09
  -7  -3  -2    0.06    0.06
   7  -3   2    0.06    0.05
   7  -3   2    0.12    0.07
   7  -3   2    0.14    0.06
   7  -3   2    0.06    0.06
   7   3   2    0.16    0.11
   7   3   2    0.19    0.09
   7   3   2    0.11    0.09
   8  -4  -2    9.25    0.37
  -8  -4   2    8.82    0.39
  -8  -4   2    9.41    0.32
   8  -4  -2    9.27    0.28
   8  -4  -2   10.33    0.41
   8  -4  -2    9.36    0.33
  -8  -4   2    9.30    0.33
   8  -4  -2    9.23    0.21
   8  -4  -2    9.69    0.27
   8   4  -2    9.55    0.42
   8   4  -2    9.16    0.32
   8   4  -2    9.82    0.45
   7  -4  -2    7.55    0.24
   7  -4  -2    7.41    0.20
  -7  -4   2    7.93    0.35
   7  -4  -2    7.79    0.29
   7  -4  -2    7.52    0.34
  -7  -4   2    6.98    0.28
   7   4  -2    7.40    0.35
   7   4  -2    7.73    0.28
   7   4  -2    7.82    0.38
   6  -4  -2    0.71    0.12
   6  -4  -2    0.75    0.11
   6  -4  -2    0.77    0.10
   6  -4  -2    0.70    0.07
   6   4  -2    0.69    0.10
   6   4  -2    0.92    0.15
   6   4  -2    0.95    0.17
  -5  -4   2    0.21    0.06
   5  -4  -2    0.37    0.08
   5  -4  -2    0.36    0.07
  -5  -4   2    0.37    0.09
  -5  -4   2    0.37    0.09
   5  -4  -2    0.32    0.08
   5   4  -2    0.33    0.10
   5   4  -2    0.40    0.11
  -5   4   2    0.32    0.07
  -4  -4   2    4.46    0.23
   4  -4  -2    4.51    0.19
   4  -4  -2    4.74    0.17
   4  -4  -2    4.51    0.20
  -4  -4   2    4.62    0.17
  -4  -4   2    4.83    0.22
  -4  -4   2    4.50    0.21
   4  -4  -2    4.74    0.19
  -4   4   2    4.57    0.22
  -4   4   2    4.40    0.19
   4   4  -2    4.21    0.22
   4   4  -2    4.52    0.23
   3  -4  -2   31.95    0.60
  -3  -4   2   32.63    0.62
   3  -4  -2   32.62    0.62
   3  -4  -2   31.57    0.60
   3  -4  -2   32.23    0.57
  -3  -4   2   32.43    0.58
  -3  -4   2   31.06    0.79
  -3  -4   2   31.94    0.61
  -3   4   2   32.73    0.58
   3   4  -2   32.90    0.62
   3   4  -2   32.81    0.64
   3   4  -2   32.24    0.57
  -2  -4   2    0.34    0.07
  -2  -4   2    0.36    0.07
   2  -4  -2    0.34    0.07
   2  -4  -2    0.33    0.07
   2  -4  -2    0.48    0.08
   2   4  -2    0.33    0.07
   2   4  -2    0.31    0.07
   2   4  -2    0.59    0.07
  -1  -4   2   59.21    0.87
  -1  -4   2   59.53    0.93
   1  -4  -2   60.73    0.98
   1  -4  -2   58.49    0.96
   1  -4  -2   59.69    0.97
  -1  -4   2   59.03    1.01
   1  -4  -2   59.69    0.94
  -1   4   2   57.58    0.95
   1   4  -2   59.69    0.88
  -1   4   2   60.43    0.85
  -1   4   2   59.44    0.91
   1   4  -2   58.52    0.86
   1   4  -2   60.17    0.99
   0  -4   2   64.55    0.88
   0  -4  -2   60.62    1.04
   0  -4   2   63.85    1.06
   0  -4  -2   64.79    1.04
   0  -4  -2   63.49    0.98
   0  -4  -2   62.88    1.05
   0   4  -2   63.43    1.07
   0   4   2   65.54    1.00
   0   4   2   64.33    1.02
   0   4  -2   63.68    0.95
   0   4   2   61.87    1.07
   0   4   2   65.08    0.98
  -1  -4  -2   33.08    0.66
   1  -4   2   33.72    0.64
  -1  -4  -2   31.08    0.67
   1  -4   2   32.60    0.61
   1  -4   2   31.18    0.63
  -1  -4  -2   32.56    0.58
  -1   4  -2   32.31    0.58
   1   4   2   32.30    0.65
  -1   4  -2   31.32    0.68
   1   4   2   32.25    0.60
   1   4   2   32.20    0.59
   1   4   2   32.89    0.65
   2  -4   2   14.52    0.39
  -2  -4  -2   15.02    0.34
  -2  -4  -2   13.76    0.39
  -2  -4  -2   15.00    0.44
   2  -4   2   14.97    0.38
  -2  -4  -2   14.04    0.40
   2  -4   2   14.28    0.30
  -2   4  -2   14.23    0.35
   2   4   2   14.23    0.34
   2   4   2   14.72    0.44
  -2   4  -2   14.28    0.46
   2   4   2   14.90    0.42
   2   4   2   14.39    0.37
  -3  -4  -2   54.47    1.04
   3  -4   2   54.34    0.82
  -3  -4  -2   54.38    0.96
  -3  -4  -2   54.64    0.98
   3  -4   2   54.62    0.94
   3  -4   2   55.04    0.96
  -3  -4  -2   54.21    0.84
   3   4   2   55.42    1.03
   3   4   2   53.40    0.94
   4  -4   2   64.86    0.92
   4  -4   2   65.46    1.10
   4  -4   2   65.97    1.09
  -4  -4  -2   63.89    1.10
  -4  -4  -2   57.23    1.28
   4  -4   2   64.81    0.99
  -4  -4  -2   66.62    1.13
  -4  -4  -2   66.70    0.96
   4   4   2   63.76    1.10
   4   4   2   67.01    1.22
   5  -4   2    3.93    0.21
  -5  -4  -2    4.39    0.22
   5  -4   2    4.77    0.23
  -5  -4  -2    3.69    0.31
   5  -4   2    4.25    0.16
  -5  -4  -2    4.02    0.22
   5  -4   2    4.13    0.19
   5  -4   2    4.12    0.21
   5   4   2    4.71    0.31
   5   4   2    4.07    0.27
   5   4   2    3.97    0.22
   6  -4   2    0.12    0.06
  -6  -4  -2    0.12    0.07
   6  -4   2    0.09    0.07
  -6  -4  -2    0.21    0.08
   6  -4   2    0.07    0.05
   6  -4   2    0.28    0.10
   6  -4   2    0.12    0.07
  -6  -4  -2    0.25    0.10
   6   4   2    0.08    0.10
   6   4   2    0.04    0.07
   6   4   2    0.15    0.11
   7  -4   2    0.09    0.06
   7  -4   2    0.01    0.06
  -7  -4  -2    0.15    0.06
  -7  -4  -2    0.15    0.07
   7  -4   2    0.12    0.07
   7  -4   2    0.11    0.07
   7  -4   2    0.05    0.07
   7   4   2    0.13    0.11
   7   4   2    0.06    0.09
   8  -5  -2    2.39    0.19
  -8  -5   2    2.41    0.19
   8  -5  -2    2.52    0.20
  -8  -5   2    2.34    0.21
   8  -5  -2    2.20    0.26
   8  -5  -2    2.41    0.16
   8   5  -2    2.32    0.24
   8   5  -2    2.14    0.19
  -7  -5   2    6.71    0.30
   7  -5  -2    6.96    0.30
   7  -5  -2    7.02    0.26
   7  -5  -2    7.22    0.23
  -7  -5   2    7.11    0.36
   7  -5  -2    6.75    0.35
   7   5  -2    6.74    0.36
   6  -5  -2    9.71    0.31
   6  -5  -2   10.45    0.41
   6  -5  -2    9.49    0.34
  -6  -5   2   10.09    0.24
   6  -5  -2    9.57    0.27
   6   5  -2    9.35    0.34
   6   5  -2    9.64    0.41
  -5  -5   2    0.41    0.09
   5  -5  -2    0.78    0.15
  -5  -5   2    0.62    0.09
   5  -5  -2    0.62    0.09
   5  -5  -2    0.52    0.09
  -5  -5   2    0.43    0.11
  -5  -5   2    0.56    0.13
   5  -5  -2    0.70    0.11
   5   5  -2    0.61    0.12
  -5   5   2    0.52    0.10
   5   5  -2    0.50    0.16
  -4  -5   2    2.10    0.16
  -4  -5   2    2.18    0.13
  -4  -5   2    2.54    0.28
   4  -5  -2    2.38    0.15
   4  -5  -2    2.26    0.17
   4  -5  -2    2.35    0.14
   4  -5  -2    2.15    0.15
   4   5  -2    2.31    0.18
  -4   5   2    2.18    0.16
   4   5  -2    2.25    0.17
   3  -5  -2    1.10    0.12
   3  -5  -2    1.24    0.13
  -3  -5   2    1.05    0.13
  -3  -5   2    1.33    0.11
   3  -5  -2    1.49    0.12
   3  -5  -2    1.38    0.13
  -3  -5   2    1.18    0.12
   3   5  -2    1.29    0.13
  -3   5   2    1.42    0.13
   3   5  -2    1.32    0.14
   3   5  -2    1.24    0.12
   2  -5  -2    3.87    0.20
   2  -5  -2    3.68    0.20
  -2  -5   2    4.14    0.18
  -2  -5   2    4.09    0.20
   2  -5  -2    4.06    0.20
  -2  -5   2    4.25    0.21
   2  -5  -2    4.11    0.20
   2   5  -2    4.13    0.18
  -2   5   2    3.87    0.21
   2   5  -2    3.96    0.17
  -2   5   2    4.34    0.22
   2   5  -2    3.85    0.21
   1  -5  -2   17.97    0.47
   1  -5  -2   18.18    0.47
  -1  -5   2   18.14    0.50
  -1  -5   2   18.17    0.44
  -1  -5   2   17.62    0.45
   1  -5  -2   17.38    0.46
  -1  -5   2   17.24    0.37
   1  -5  -2   18.57    0.45
  -1   5   2   18.03    0.34
   1   5  -2   18.03    0.39
  -1   5   2   17.46    0.45
  -1   5   2   17.62    0.42
   1   5  -2   18.30    0.37
   0  -5  -2   16.58    0.41
   0  -5  -2   16.51    0.46
   0  -5   2   16.97    0.42
   0  -5  -2   16.19    0.46
   0  -5   2   16.51    0.33
   0  -5   2   17.08    0.48
   0  -5   2   17.03    0.45
   0  -5  -2   17.18    0.55
   0   5   2   17.12    0.40
   0   5  -2   17.51    0.49
   0   5  -2   16.82    0.37
   0   5   2   16.76    0.43
   0   5   2   17.23    0.42
   0   5   2   17.07    0.43
   1  -5   2   23.26    0.55
  -1  -5  -2   23.54    0.57
  -1  -5  -2   22.51    0.58
   1  -5   2   22.91    0.51
  -1  -5  -2   23.40    0.50
  -1   5  -2   22.86    0.60
   1   5   2   22.76    0.51
  -1   5  -2   23.30    0.47
   1   5   2   23.42    0.55
   1   5   2   23.54    0.55
   2  -5   2    1.08    0.16
   2  -5   2    1.10    0.12
  -2  -5  -2    1.09    0.15
  -2  -5  -2    1.01    0.15
  -2  -5  -2    1.03    0.11
   2   5   2    1.07    0.14
   2   5   2    1.24    0.14
  -2   5  -2    0.88    0.09
  -2   5  -2    0.96    0.15
  -3  -5  -2    8.78    0.34
  -3  -5  -2    9.40    0.35
   3  -5   2    8.96    0.20
   3  -5   2    9.35    0.33
  -3  -5  -2    9.05    0.37
   3  -5   2    8.96    0.46
  -3  -5  -2    8.83    0.26
  -3   5  -2    8.08    0.37
   3   5   2    8.52    0.35
   3   5   2    9.49    0.39
  -4  -5  -2    4.85    0.27
  -4  -5  -2    4.34    0.28
  -4  -5  -2    4.37    0.17
   4  -5   2    4.55    0.23
   4  -5   2    4.34    0.14
  -4  -5  -2    4.36    0.24
   4  -5   2    4.09    0.23
   4   5   2    4.55    0.30
   4   5   2    4.18    0.26
   4   5   2    4.42    0.23
   5  -5   2    0.01    0.04
  -5  -5  -2    0.01    0.05
   5  -5   2    0.04    0.07
   5  -5   2    0.03    0.07
  -5  -5  -2    0.45    0.13
   5   5   2    0.05    0.07
   5   5   2   -0.01    0.06
   5   5   2   -0.05    0.05
   6  -5   2   16.67    0.36
   6  -5   2   16.83    0.33
   6  -5   2   17.14    0.38
  -6  -5  -2   16.77    0.50
   6  -5   2   17.21    0.50
   6  -5   2   17.18    0.50
   6  -5   2   16.83    0.47
  -6  -5  -2   16.34    0.51
   6   5   2   17.41    0.68
   6   5   2   17.69    0.64
  -6  -6   2    1.06    0.10
   6  -6  -2    1.21    0.21
   6  -6  -2    1.41    0.13
   6  -6  -2    1.10    0.15
   6  -6  -2    1.29    0.13
   6   6  -2    0.86    0.23
  -6   6   2    0.94    0.15
  -5  -6   2    0.11    0.09
   5  -6  -2    0.15    0.08
   5  -6  -2    0.01    0.05
  -5  -6   2   -0.01    0.06
  -5  -6   2    0.04    0.05
   5  -6  -2   -0.04    0.05
  -5  -6   2   -0.09    0.06
   5   6  -2   -0.02    0.07
   5   6  -2    0.05    0.07
  -5   6   2   -0.03    0.06
   5   6  -2    0.09    0.07
  -4  -6   2   22.50    0.50
   4  -6  -2   21.96    0.52
   4  -6  -2   21.86    0.57
  -4  -6   2   20.88    0.63
   4  -6  -2   21.94    0.54
  -4  -6   2   21.42    0.56
  -4  -6   2   22.30    0.60
  -4   6   2   21.99    0.57
   4   6  -2   21.51    0.65
   3  -6  -2   43.80    0.85
  -3  -6   2   45.26    0.90
   3  -6  -2   45.78    0.88
   3  -6  -2   44.15    0.91
  -3  -6   2   42.94    0.83
   3  -6  -2   43.23    0.87
  -3  -6   2   43.47    0.81
   3   6  -2   44.33    0.78
   3   6  -2   43.79    0.90
   3   6  -2   44.87    0.85
  -3   6   2   44.38    0.87
  -2  -6   2   15.39    0.60
   2  -6  -2   16.05    0.46
   2  -6  -2   16.09    0.46
   2  -6  -2   14.97    0.50
   2  -6  -2   15.20    0.45
  -2  -6   2   15.84    0.45
  -2  -6   2   15.57    0.40
   2   6  -2   15.59    0.39
   1  -6  -2    2.33    0.18
   1  -6  -2    2.13    0.19
   1  -6  -2    2.50    0.19
  -1  -6   2    2.45    0.20
  -1  -6   2    2.21    0.13
   1  -6  -2    2.38    0.18
  -1  -6   2    2.47    0.18
  -1  -6   2    2.46    0.18
   1   6  -2    2.32    0.13
   1   6  -2    2.35    0.14
   0  -6   2    0.16    0.08
   0  -6  -2    0.10    0.08
   0  -6  -2    0.20    0.09
   0  -6   2    0.19    0.08
   0  -6  -2    0.25    0.08
   0  -6   2    0.14    0.05
   0  -6   2    0.12    0.09
   0  -6  -2    0.21    0.09
   0   6  -2    0.11    0.05
   0   6   2    0.08    0.05
   0   6  -2    0.15    0.09
   0   6   2    0.06    0.06
  -1  -6  -2   19.56    0.57
   1  -6   2   20.49    0.58
   1  -6   2   20.12    0.54
  -1  -6  -2   20.32    0.51
  -1  -6  -2   20.45    0.57
  -1  -6  -2   19.87    0.67
   1  -6   2   20.55    0.51
  -1   6  -2   20.01    0.43
   1   6   2   20.09    0.51
   1   6   2   20.12    0.52
   1   6   2   20.64    0.54
  -1   6  -2   20.99    0.61
  -2  -6  -2    0.23    0.10
  -2  -6  -2    0.20    0.09
  -2  -6  -2    0.16    0.08
  -2  -6  -2    0.27    0.10
   2  -6   2    0.18    0.08
   2  -6   2    0.24    0.08
   2   6   2    0.37    0.11
  -2   6  -2    0.30    0.11
   2   6   2    0.14    0.08
  -2   6  -2    0.27    0.06
  -3  -6  -2    4.23    0.26
   3  -6   2    4.32    0.25
  -3  -6  -2    4.31    0.26
   3  -6   2    4.31    0.23
  -3  -6  -2    4.50    0.29
  -3  -6  -2    4.26    0.20
   3   6   2    4.23    0.26
  -3   6  -2    4.41    0.30
   3   6   2    4.01    0.23
   3   6   2    4.16    0.28
  -4  -6  -2    1.69    0.34
  -4  -6  -2    1.24    0.19
   4  -6   2    1.29    0.19
  -4  -6  -2    1.51    0.12
   4  -6   2    1.43    0.15
  -4  -6  -2    1.41    0.21
   4   6   2    1.56    0.18
   4   6   2    1.37    0.21
   5  -6   2    1.12    0.17
   5  -6   2    1.66    0.16
  -5  -6  -2    1.84    0.19
  -5  -6  -2    1.66    0.18
   5   6   2    1.85    0.23
   5   6   2    1.79    0.21
   5  -7  -2    3.65    0.25
  -5  -7   2    3.08    0.23
  -5  -7   2    3.33    0.27
  -5  -7   2    3.53    0.19
   5  -7  -2    3.84    0.23
   5  -7  -2    3.25    0.21
   5  -7  -2    3.43    0.22
   5   7  -2    4.03    0.27
   4  -7  -2    8.90    0.35
  -4  -7   2    8.97    0.32
  -4  -7   2    9.06    0.42
   4  -7  -2    9.11    0.37
   4  -7  -2    9.12    0.35
  -4  -7   2    8.65    0.35
   4   7  -2    9.04    0.34
   4   7  -2    9.10    0.36
  -3  -7   2    7.39    0.31
   3  -7  -2    8.02    0.35
  -3  -7   2    8.25    0.37
  -3  -7   2    7.71    0.31
   3  -7  -2    7.57    0.34
   3  -7  -2    7.22    0.32
   3  -7  -2    7.65    0.34
  -3   7   2    7.69    0.39
   3   7  -2    6.87    0.30
   2  -7  -2    3.18    0.22
  -2  -7   2    3.43    0.22
  -2  -7   2    3.08    0.18
   2  -7  -2    3.24    0.21
  -2  -7   2    3.53    0.24
   2  -7  -2    3.64    0.24
   2  -7  -2    3.19    0.23
  -2   7   2    3.42    0.23
   2   7  -2    3.25    0.18
   2   7  -2    3.30    0.18
   1  -7  -2    5.48    0.30
  -1  -7   2    5.55    0.27
  -1  -7   2    5.58    0.29
   1  -7  -2    5.99    0.29
   1  -7  -2    5.78    0.30
   1  -7  -2    5.52    0.29
  -1  -7   2    5.59    0.32
  -1  -7   2    5.66    0.22
   1   7  -2    5.77    0.35
  -1   7   2    5.47    0.28
   1   7  -2    5.33    0.22
   0  -7   2   15.82    0.56
   0  -7   2   16.77    0.49
   0  -7  -2   17.73    0.50
   0  -7   2   16.72    0.50
   0  -7  -2   16.82    0.54
   0  -7   2   15.67    0.36
   0  -7  -2   16.67    0.53
   0   7   2   16.60    0.50
   0   7  -2   15.94    0.39
   0   7  -2   16.50    0.59
   0   7   2   16.68    0.32
   0   7   2   16.94    0.40
   1  -7   2    3.98    0.28
  -1  -7  -2    4.06    0.24
   1  -7   2    3.95    0.24
  -1  -7  -2    4.36    0.28
   1  -7   2    4.04    0.24
  -1  -7  -2    3.67    0.27
  -1  -7  -2    4.08    0.34
  -1   7  -2    3.90    0.16
   1   7   2    3.90    0.24
   1   7   2    4.65    0.24
  -1   7  -2    3.78    0.36
  -2  -7  -2    3.49    0.26
   2  -7   2    3.43    0.24
  -2  -7  -2    3.52    0.38
   2  -7   2    3.78    0.23
  -2  -7  -2    3.47    0.22
  -2  -7  -2    3.56    0.27
   2   7   2    3.30    0.23
   2   7   2    3.44    0.24
   3  -7   2    3.44    0.22
  -3  -7  -2    3.29    0.29
   3  -7   2    2.90    0.22
  -3  -7  -2    3.08    0.20
   3   7   2    3.13    0.25
   3   7   2    3.39    0.27
  10   0  -3   -0.02    0.07
   9   0  -3    0.14    0.09
  -9   0   3   -0.01    0.07
   9   0  -3    0.07    0.07
  -8   0   3   -0.01    0.05
   8   0  -3    0.11    0.08
   8   0  -3    0.08    0.07
   7   0  -3    0.06    0.06
   7   0  -3   -0.07    0.03
   7   0  -3    0.05    0.04
  -7   0   3   -0.06    0.04
  -7   0   3    0.05    0.03
   6   0  -3    0.19    0.06
  -6   0   3    0.09    0.06
   6   0  -3    0.12    0.06
  -6   0   3    0.17    0.04
   6   0  -3    0.10    0.05
   5   0  -3    0.14    0.05
   5   0  -3    0.12    0.05
  -5   0   3    0.27    0.05
  -5   0   3    0.09    0.05
   5   0  -3    0.17    0.05
  -5   0   3    0.18    0.03
  -4   0   3   -0.02    0.02
  -4   0   3   -0.01    0.03
   4   0  -3    0.00    0.03
   4   0  -3    0.02    0.03
  -4   0   3   -0.01    0.02
   4   0  -3    0.04    0.03
   4   0  -3   -0.01    0.02
   3   0  -3    0.87    0.08
  -3   0   3    0.91    0.08
  -2   0   3    0.01    0.03
   2   0  -3    0.02    0.02
  -2   0   3    0.00    0.02
  -2   0   3   -0.01    0.02
   2   0  -3    0.00    0.02
   2   0  -3    0.04    0.03
  -2   0   3   -0.02    0.02
   2   0  -3    0.00    0.02
  -2   0   3    0.01    0.03
  -1   0   3    1.54    0.10
   0   0  -3    0.23    0.05
   0   0   3    0.17    0.04
   0   0   3    0.09    0.03
   0   0  -3    0.11    0.02
   0   0   3    0.12    0.02
   0   0  -3    0.12    0.03
   0   0   3    0.22    0.05
   0   0  -3    0.17    0.05
   0   0   3    0.16    0.04
  -1   0  -3    0.26    0.04
  -1   0  -3    0.16    0.05
  -1   0  -3    0.19    0.04
   1   0   3    0.20    0.05
   1   0   3    0.17    0.06
   2   0   3    0.29    0.08
   2   0   3    0.31    0.06
  -2   0  -3    0.32    0.08
   3   0   3    0.13    0.05
  -3   0  -3    0.02    0.03
   3   0   3    0.07    0.04
   3   0   3    0.08    0.03
   4   0   3    0.18    0.05
   4   0   3    0.24    0.07
   4   0   3    0.11    0.06
   4   0   3    0.22    0.05
  -4   0  -3    0.21    0.07
  -5   0  -3    0.22    0.07
   5   0   3    0.18    0.05
   5   0   3    0.16    0.08
   5   0   3    0.29    0.05
   5   0   3    0.08    0.05
   6   0   3    0.09    0.08
   6   0   3    0.08    0.05
   6   0   3    0.01    0.05
   7   0   3    0.19    0.09
   7   0   3    0.27    0.08
   8   0   3   -0.02    0.07
   8   0   3    0.05    0.10
  10  -1  -3    4.39    0.29
  10  -1  -3    4.72    0.35
  10   1  -3    4.00    0.30
  10   1  -3    4.36    0.29
   9  -1  -3    3.40    0.16
   9  -1  -3    3.36    0.24
   9  -1  -3    3.80    0.26
  -9  -1   3    3.31    0.23
   9   1  -3    3.68    0.25
   9   1  -3    2.99    0.25
   8  -1  -3    1.63    0.11
   8  -1  -3    1.59    0.16
   8  -1  -3    1.50    0.16
   8   1  -3    1.50    0.17
   8   1  -3    1.44    0.15
  -7  -1   3    8.10    0.31
   7  -1  -3    7.42    0.23
  -7  -1   3    7.91    0.18
   7  -1  -3    8.02    0.31
   7  -1  -3    7.80    0.25
   7  -1  -3    8.07    0.31
   7   1  -3    7.69    0.33
  -7   1   3    7.67    0.22
   7   1  -3    7.54    0.31
   6  -1  -3   17.54    0.37
  -6  -1   3   16.83    0.36
   6  -1  -3   17.06    0.39
  -6  -1   3   17.42    0.46
   6  -1  -3   17.22    0.46
  -6  -1   3   17.67    0.31
  -6   1   3   17.49    0.36
   6   1  -3   17.66    0.31
  -6   1   3   17.56    0.47
   6   1  -3   16.78    0.46
   6   1  -3   17.70    0.47
  -5  -1   3    9.58    0.21
   5  -1  -3    9.09    0.22
   5  -1  -3    9.58    0.30
   5  -1  -3    9.20    0.25
  -5  -1   3    9.50    0.26
   5  -1  -3    9.21    0.25
  -5  -1   3    9.20    0.30
  -5   1   3    9.31    0.23
   5   1  -3    9.26    0.30
  -5   1   3    9.20    0.29
   5   1  -3    9.66    0.20
   5   1  -3    9.17    0.29
  -4  -1   3   38.11    0.59
   4  -1  -3   37.18    0.67
   4  -1  -3   37.16    0.64
  -4  -1   3   37.43    0.65
  -4  -1   3   37.25    0.68
   4  -1  -3   37.35    0.62
  -4  -1   3   37.75    0.54
   4  -1  -3   37.91    0.57
  -4   1   3   37.97    0.57
   4   1  -3   37.09    0.69
  -4   1   3   38.16    0.60
   4   1  -3   36.85    0.60
   4   1  -3   37.71    0.56
  -3  -1   3   77.61    1.03
   3  -1  -3   78.77    1.05
   3  -1  -3   77.54    1.10
   3  -1  -3   77.44    1.23
  -3  -1   3   76.42    1.13
  -3  -1   3   76.27    1.14
  -3  -1   3   77.46    1.09
   3  -1  -3   75.91    1.13
  -3   1   3   79.51    1.14
  -3   1   3   79.84    1.09
  -3   1   3   78.30    1.09
   3   1  -3   75.92    1.07
   3   1  -3   77.47    1.08
   3   1  -3   77.16    1.15
   2  -1  -3  258.97    8.04
  -2  -1   3  267.73    8.14
  -2   1   3  256.97    8.08
   2   1  -3  257.45    7.89
   1  -1  -3    0.74    0.06
  -1  -1   3    0.74    0.07
   1  -1  -3    0.80    0.07
  -1  -1   3    0.61    0.06
  -1  -1   3    0.78    0.07
   1  -1  -3    0.70    0.07
  -1  -1   3    0.80    0.06
   1  -1  -3    0.87    0.08
   1   1  -3    0.69    0.07
  -1   1   3    0.82    0.07
  -1   1   3    0.82    0.06
   1   1  -3    0.61    0.06
  -1   1   3    0.66    0.06
   0  -1   3  219.84    6.88
   0  -1  -3  232.69    7.72
   0   1  -3  227.04    6.89
   0   1   3  223.83    7.65
  -1  -1  -3   73.27    1.10
  -1  -1  -3   72.04    1.15
   1  -1   3   72.28    1.03
   1  -1   3   75.57    0.98
   1  -1   3   74.34    0.96
   1  -1   3   72.85    1.11
   1  -1   3   70.34    1.14
  -1  -1  -3   74.96    1.08
   1   1   3   74.90    1.03
   1   1   3   73.66    1.08
  -1   1  -3   73.96    0.99
   1   1   3   71.75    1.15
   1   1   3   73.07    1.07
  -1   1  -3   74.07    1.14
   2  -1   3    1.19    0.11
  -2  -1  -3    1.19    0.08
  -2  -1  -3    0.99    0.10
   2  -1   3    1.22    0.08
   2  -1   3    1.14    0.07
   2   1   3    1.03    0.08
   2   1   3    1.16    0.08
   2   1   3    1.15    0.10
   2   1   3    1.19    0.12
  -2   1  -3    1.15    0.08
  -2   1  -3    1.10    0.11
  -3  -1  -3   79.04    1.25
  -3  -1  -3   80.35    1.10
   3  -1   3   80.98    1.17
   3  -1   3   79.58    1.30
   3  -1   3   78.78    1.10
   3   1   3   79.28    1.10
   3   1   3   80.04    1.25
  -3   1  -3   78.49    1.15
   3   1   3   78.88    1.17
   3   1   3   79.46    1.35
  -4  -1  -3   27.47    0.62
   4  -1   3   27.22    0.66
  -4  -1  -3   28.13    0.42
   4  -1   3   28.32    0.56
   4  -1   3   27.06    0.43
   4  -1   3   27.87    0.47
   4   1   3   27.61    0.53
   4   1   3   27.49    0.70
   4   1   3   27.87    0.45
   4   1   3   27.47    0.62
   5  -1   3    1.69    0.14
   5  -1   3    1.49    0.10
   5  -1   3    1.78    0.17
   5  -1   3    1.68    0.09
  -5  -1  -3    1.75    0.16
   5   1   3    1.72    0.16
   5   1   3    1.33    0.28
   5   1   3    1.99    0.13
   6  -1   3    1.92    0.10
   6  -1   3    1.72    0.11
   6  -1   3    1.86    0.11
   6  -1   3    2.21    0.42
   6  -1   3    1.90    0.16
   6  -1   3    1.72    0.18
   6   1   3    1.85    0.21
   6   1   3    1.87    0.18
   7  -1   3    1.75    0.11
   7  -1   3    1.40    0.10
   7  -1   3    1.49    0.16
   7  -1   3    1.38    0.18
   7  -1   3    1.40    0.19
   7   1   3    1.68    0.18
   7   1   3    1.42    0.22
   8  -1   3    0.11    0.09
   8  -1   3    0.28    0.11
   8  -1   3    0.09    0.10
   8   1   3    0.06    0.11
   8   1   3    0.34    0.12
  10  -2  -3    0.18    0.10
  10  -2  -3   -0.01    0.14
  10  -2  -3    0.21    0.07
  10   2  -3    0.13    0.12
  10   2  -3    0.11    0.09
   9  -2  -3    1.13    0.11
   9  -2  -3    1.30    0.11
   9  -2  -3    1.03    0.18
   9  -2  -3    1.33    0.19
  -9  -2   3    1.39    0.21
   9   2  -3    1.16    0.10
   9   2  -3    1.29    0.20
   9   2  -3    1.16    0.18
   8  -2  -3    8.40    0.35
   8  -2  -3    7.59    0.26
   8  -2  -3    7.80    0.34
  -8  -2   3    9.42    0.48
   8  -2  -3    8.33    0.27
  -8  -2   3    8.35    0.22
   8   2  -3    8.29    0.38
   8   2  -3    8.52    0.36
   8   2  -3    7.94    0.23
   7  -2  -3   16.10    0.39
  -7  -2   3   16.60    0.39
   7  -2  -3   16.48    0.48
   7  -2  -3   16.42    0.38
  -7  -2   3   16.30    0.48
   7   2  -3   16.11    0.34
   7   2  -3   17.78    0.55
   7   2  -3   16.14    0.49
  -7   2   3   16.37    0.40
  -6  -2   3   73.27    1.14
  -6  -2   3   73.24    0.99
   6  -2  -3   72.75    1.22
  -6  -2   3   70.22    1.22
   6  -2  -3   72.74    1.02
   6  -2  -3   71.98    1.11
   6  -2  -3   71.73    1.09
   6   2  -3   72.57    1.04
   6   2  -3   71.84    1.24
  -6   2   3   74.49    1.11
   6   2  -3   73.16    1.25
  -5  -2   3    4.21    0.21
   5  -2  -3    4.10    0.17
   5  -2  -3    3.88    0.12
   5  -2  -3    3.97    0.16
   5  -2  -3    3.89    0.20
  -5  -2   3    3.98    0.15
  -5  -2   3    3.80    0.14
  -5  -2   3    3.82    0.18
   5   2  -3    3.94    0.15
   5   2  -3    3.66    0.20
   5   2  -3    4.59    0.21
  -5   2   3    3.85    0.16
  -4  -2   3   24.52    0.43
   4  -2  -3   24.30    0.39
  -4  -2   3   24.16    0.51
   4  -2  -3   25.06    0.48
   4  -2  -3   25.07    0.52
   4  -2  -3   23.94    0.47
   4   2  -3   24.03    0.53
  -4   2   3   24.74    0.47
   4   2  -3   24.46    0.46
   4   2  -3   24.84    0.45
   4   2  -3   24.43    0.51
  -3  -2   3  304.54    9.86
   3   2  -3  292.65    9.74
   2  -2  -3  223.90    7.97
  -2  -2   3  222.96    7.91
  -2   2   3  217.50    7.96
   2   2  -3  221.84    7.92
   1  -2  -3   91.25    1.29
   1  -2  -3   88.85    1.27
  -1  -2   3   90.89    1.22
   1  -2  -3   88.28    1.26
  -1  -2   3   88.59    1.26
   1  -2  -3   89.37    1.25
   1   2  -3   86.04    1.30
  -1   2   3   87.63    1.24
  -1   2   3   86.22    1.26
   1   2  -3   88.78    1.25
  -1   2   3   89.94    1.24
   1   2  -3   89.12    1.27
   1   2  -3   89.10    1.15
   0  -2  -3    5.47    0.18
   0  -2  -3    5.65    0.20
   0  -2   3    5.65    0.17
   0  -2  -3    5.35    0.20
   0  -2  -3    5.56    0.20
   0  -2   3    5.18    0.17
   0  -2   3    5.72    0.21
   0   2   3    5.56    0.17
   0   2  -3    5.58    0.20
   0   2   3    5.49    0.19
   0   2   3    5.52    0.21
   0   2   3    5.57    0.19
  -1  -2  -3    2.13    0.13
   1  -2   3    2.22    0.12
   1  -2   3    2.03    0.10
  -1  -2  -3    2.28    0.11
  -1  -2  -3    2.18    0.14
   1  -2   3    2.20    0.14
   1   2   3    2.03    0.14
   1   2   3    2.06    0.13
   1   2   3    2.14    0.10
  -1   2  -3    2.06    0.13
   1   2   3    2.24    0.12
  -2  -2  -3    2.95    0.15
   2  -2   3    3.08    0.18
   2  -2   3    2.63    0.09
  -2  -2  -3    2.82    0.17
  -2  -2  -3    2.62    0.19
   2  -2   3    2.80    0.15
  -2  -2  -3    2.60    0.11
   2   2   3    2.68    0.18
   2   2   3    2.79    0.15
  -2   2  -3    2.80    0.17
   2   2   3    2.75    0.11
   2   2   3    2.82    0.16
  -3  -2  -3    1.66    0.09
  -3  -2  -3    1.72    0.12
   3  -2   3    1.72    0.15
   3  -2   3    1.62    0.13
  -3  -2  -3    1.71    0.15
   3  -2   3    1.75    0.09
   3   2   3    1.62    0.16
   3   2   3    1.96    0.13
  -3   2  -3    1.81    0.15
   3   2   3    1.76    0.15
   3   2   3    1.90    0.09
   4  -2   3   58.61    0.92
   4  -2   3   57.70    0.83
  -4  -2  -3   60.15    0.91
  -4  -2  -3   58.47    1.08
   4  -2   3   57.80    1.08
  -4  -2  -3   58.29    0.86
   4  -2   3   58.28    1.05
   4   2   3   57.79    1.16
   4   2   3   58.09    1.07
   4   2   3   58.57    0.81
  -5  -2  -3   31.18    0.53
   5  -2   3   30.18    0.73
   5  -2   3   32.02    0.74
   5  -2   3   31.14    0.62
   5  -2   3   31.43    0.61
   5  -2   3   30.01    0.54
   5   2   3   31.98    0.75
   5   2   3   29.39    0.80
  -6  -2  -3    8.06    0.22
   6  -2   3    8.35    0.36
  -6  -2  -3    8.36    0.37
   6  -2   3    7.93    0.36
   6  -2   3    8.05    0.26
   6  -2   3    8.09    0.30
   6  -2   3    8.08    0.24
   6   2   3    7.97    0.42
   6   2   3    8.43    0.38
   7  -2   3    3.89    0.27
   7  -2   3    4.15    0.27
   7  -2   3    3.53    0.16
   7  -2   3    4.03    0.18
   7  -2   3    4.12    0.23
   7   2   3    3.69    0.27
   7   2   3    3.98    0.32
   7   2   3    4.02    0.25
   9  -3  -3    9.57    0.33
  -9  -3   3    9.92    0.42
   9  -3  -3   10.46    0.42
   9  -3  -3    9.84    0.36
   9  -3  -3    9.16    0.27
   9  -3  -3    9.73    0.31
   9  -3  -3    9.83    0.42
   9   3  -3   10.02    0.44
   9   3  -3    9.17    0.29
   9   3  -3   10.08    0.47
  -8  -3   3    6.46    0.26
   8  -3  -3    6.42    0.20
   8  -3  -3    6.26    0.24
   8  -3  -3    6.52    0.32
  -8  -3   3    6.09    0.23
   8  -3  -3    6.38    0.26
  -8  -3   3    5.97    0.31
   8   3  -3    7.23    0.37
   8   3  -3    6.29    0.23
   8   3  -3    6.83    0.34
   7  -3  -3    5.72    0.17
   7  -3  -3    5.98    0.22
   7  -3  -3    5.72    0.28
   7  -3  -3    5.86    0.24
   7   3  -3    6.17    0.31
   7   3  -3    5.67    0.31
  -7   3   3    5.93    0.25
   7   3  -3    5.93    0.22
   6  -3  -3    4.79    0.25
   6  -3  -3    4.47    0.13
   6  -3  -3    4.56    0.21
  -6  -3   3    4.52    0.26
  -6  -3   3    4.66    0.25
  -6  -3   3    4.72    0.15
   6  -3  -3    4.54    0.19
   6   3  -3    4.65    0.26
   6   3  -3    4.79    0.19
  -6   3   3    4.48    0.21
   6   3  -3    4.23    0.24
   5  -3  -3    0.88    0.12
   5  -3  -3    0.75    0.10
  -5  -3   3    0.69    0.09
   5  -3  -3    0.50    0.09
  -5  -3   3    0.64    0.11
   5  -3  -3    0.59    0.06
   5  -3  -3    0.51    0.06
  -5   3   3    0.68    0.07
   5   3  -3    0.81    0.13
  -5   3   3    0.58    0.09
   5   3  -3    0.70    0.12
   5   3  -3    0.62    0.09
  -4  -3   3    2.47    0.16
   4  -3  -3    2.48    0.14
   4  -3  -3    2.46    0.08
  -4  -3   3    2.48    0.13
   4  -3  -3    2.37    0.11
   4  -3  -3    2.40    0.16
   4  -3  -3    2.51    0.14
  -4   3   3    2.57    0.11
   4   3  -3    2.41    0.13
   4   3  -3    2.45    0.15
   4   3  -3    2.42    0.13
   4   3  -3    2.42    0.16
  -4   3   3    2.59    0.14
   3  -3  -3    5.33    0.20
   3  -3  -3    5.32    0.13
   3  -3  -3    5.47    0.20
  -3  -3   3    5.90    0.19
  -3  -3   3    6.34    0.24
  -3   3   3    5.01    0.15
   3   3  -3    6.59    0.21
   3   3  -3    5.42    0.21
  -3   3   3    5.08    0.20
   2  -3  -3   37.91    0.67
   2  -3  -3   37.32    0.65
   2  -3  -3   35.27    0.65
  -2  -3   3   36.55    0.62
   2   3  -3   36.79    0.60
   2   3  -3   37.21    0.68
  -2   3   3   37.03    0.59
  -2   3   3   36.72    0.53
  -2   3   3   37.06    0.64
   2   3  -3   36.91    0.62
  -1  -3   3   29.13    0.48
  -1  -3   3   27.73    0.52
   1  -3  -3   28.64    0.56
   1  -3  -3   27.96    0.56
   1  -3  -3   28.35    0.53
  -1  -3   3   28.13    0.56
   1   3  -3   27.36    0.42
   1   3  -3   28.02    0.51
   1   3  -3   27.49    0.58
  -1   3   3   28.34    0.50
  -1   3   3   27.35    0.51
  -1   3   3   28.12    0.50
   0  -3   3    0.51    0.06
   0  -3  -3    0.51    0.08
   0  -3  -3    0.50    0.08
   0  -3   3    0.39    0.07
   0  -3  -3    0.40    0.07
   0  -3   3    0.74    0.08
   0   3   3    0.43    0.07
   0   3  -3    0.39    0.07
   0   3   3    0.39    0.07
   0   3   3    0.54    0.09
   0   3   3    0.61    0.08
   0   3  -3    0.24    0.06
   1  -3   3    0.32    0.07
  -1  -3  -3    0.37    0.07
  -1  -3  -3    0.43    0.09
   1   3   3    0.37    0.08
   1   3   3    0.49    0.09
  -1   3  -3    0.38    0.07
  -1   3  -3    0.44    0.08
  -2  -3  -3    5.65    0.26
   2  -3   3    5.80    0.20
  -2  -3  -3    5.65    0.19
  -2  -3  -3    5.72    0.20
  -2  -3  -3    5.59    0.23
   2  -3   3    5.87    0.24
   2   3   3    5.65    0.18
   2   3   3    5.77    0.25
   2   3   3    4.91    0.23
   2   3   3    5.88    0.27
  -2   3  -3    5.76    0.24
  -3  -3  -3    9.57    0.27
  -3  -3  -3    9.60    0.25
  -3  -3  -3   10.07    0.37
   3  -3   3    9.51    0.33
   3  -3   3    9.47    0.29
  -3  -3  -3    9.63    0.31
  -3   3  -3    9.88    0.34
   3   3   3    9.88    0.23
   3   3   3    9.13    0.33
   3   3   3    9.74    0.39
   3   3   3    9.20    0.34
  -4  -3  -3    5.71    0.21
   4  -3   3    5.80    0.18
   4  -3   3    5.83    0.27
  -4  -3  -3    5.75    0.23
   4  -3   3    6.23    0.26
   4   3   3    5.67    0.27
   4   3   3    5.93    0.38
   4   3   3    5.73    0.33
   4   3   3    5.82    0.16
   5  -3   3    0.08    0.07
  -5  -3  -3    0.10    0.06
  -5  -3  -3    0.09    0.05
   5  -3   3    0.18    0.11
   5  -3   3    0.01    0.04
   5  -3   3    0.10    0.06
   5  -3   3    0.10    0.05
  -5  -3  -3    0.05    0.06
   5   3   3    0.10    0.07
   5   3   3    0.00    0.06
   5   3   3    0.01    0.06
   6  -3   3    2.66    0.16
   6  -3   3    2.63    0.15
  -6  -3  -3    2.40    0.22
  -6  -3  -3    2.59    0.15
   6  -3   3    2.95    0.28
   6  -3   3    2.85    0.21
   6   3   3    2.48    0.26
   6   3   3    2.52    0.20
   6   3   3    3.04    0.24
  -7  -3  -3    0.15    0.07
   7  -3   3    0.06    0.07
   7  -3   3    0.07    0.06
   7  -3   3    0.04    0.07
   7  -3   3    0.13    0.09
   7  -3   3    0.02    0.05
   7   3   3    0.23    0.11
   7   3   3    0.19    0.13
  -9  -4   3   10.53    0.33
   9  -4  -3   11.01    0.43
   9  -4  -3   10.39    0.30
   9  -4  -3   10.04    0.24
  -9  -4   3   10.92    0.37
   9  -4  -3   10.31    0.37
   9  -4  -3   10.60    0.34
   9   4  -3   10.71    0.58
   9   4  -3   10.09    0.49
   9   4  -3   10.28    0.35
  -8  -4   3    3.89    0.23
   8  -4  -3    3.73    0.12
  -8  -4   3    3.82    0.26
   8  -4  -3    4.27    0.28
   8  -4  -3    3.97    0.22
   8  -4  -3    3.96    0.20
   8   4  -3    3.88    0.28
   8   4  -3    3.91    0.21
   8   4  -3    4.72    0.31
  -7  -4   3   10.85    0.39
   7  -4  -3   11.41    0.43
   7  -4  -3   10.78    0.33
   7  -4  -3   11.31    0.37
  -7  -4   3   11.13    0.43
   7   4  -3   10.31    0.43
   7   4  -3   11.16    0.34
   7   4  -3   11.37    0.45
   6  -4  -3    3.49    0.18
  -6  -4   3    3.76    0.14
   6  -4  -3    4.26    0.25
   6  -4  -3    3.54    0.14
   6  -4  -3    3.92    0.27
  -6  -4   3    3.17    0.20
   6   4  -3    3.58    0.24
   6   4  -3    4.11    0.30
   6   4  -3    3.57    0.19
   5  -4  -3   40.74    0.84
  -5  -4   3   39.72    0.85
   5  -4  -3   40.74    0.77
   5  -4  -3   40.73    0.74
   5  -4  -3   40.05    0.66
  -5  -4   3   40.20    0.76
   5   4  -3   40.93    0.75
   5   4  -3   40.66    0.86
   5   4  -3   40.43    0.74
  -5   4   3   40.04    0.78
   5   4  -3   38.92    0.82
  -5   4   3   39.98    0.69
   4  -4  -3    2.49    0.16
   4  -4  -3    2.36    0.15
   4  -4  -3    2.20    0.14
   4  -4  -3    2.23    0.13
  -4  -4   3    1.93    0.16
  -4  -4   3    2.08    0.15
   4   4  -3    2.33    0.16
   4   4  -3    2.22    0.16
  -4   4   3    2.17    0.15
  -4   4   3    2.58    0.14
   4   4  -3    2.11    0.14
   3  -4  -3    1.81    0.13
  -3  -4   3    1.69    0.15
   3  -4  -3    1.80    0.14
   3  -4  -3    1.69    0.13
  -3  -4   3    1.81    0.13
   3  -4  -3    1.70    0.14
  -3   4   3    1.81    0.11
   3   4  -3    1.61    0.12
   3   4  -3    1.91    0.15
   3   4  -3    1.75    0.12
  -3   4   3    1.73    0.13
  -2  -4   3    6.09    0.26
  -2  -4   3    5.82    0.21
   2  -4  -3    6.38    0.24
   2  -4  -3    5.83    0.24
   2  -4  -3    6.27    0.24
   2   4  -3    6.28    0.26
  -2   4   3    5.96    0.13
   2   4  -3    6.06    0.21
   2   4  -3    6.18    0.29
  -2   4   3    5.90    0.20
  -2   4   3    6.07    0.27
  -1  -4   3    0.81    0.10
   1  -4  -3    1.00    0.10
   1  -4  -3    0.70    0.11
   1  -4  -3    1.06    0.12
  -1  -4   3    0.65    0.10
  -1   4   3    0.80    0.09
   1   4  -3    0.69    0.08
   1   4  -3    0.85    0.11
   1   4  -3    0.64    0.05
  -1   4   3    0.73    0.08
   0  -4  -3  100.28    1.56
   0  -4   3  100.96    1.50
   0  -4  -3  101.29    1.58
   0  -4  -3  101.39    1.48
   0  -4   3  101.20    1.39
   0  -4   3  100.48    1.54
   0   4  -3  101.39    1.48
   0   4   3   99.97    1.47
   0   4   3  102.58    1.53
   0   4  -3  112.60    1.91
   0   4   3  100.66    1.51
   0   4   3  101.68    1.47
   1  -4   3    0.44    0.07
  -1  -4  -3    0.49    0.08
  -1  -4  -3    0.58    0.12
  -1  -4  -3    0.48    0.11
   1  -4   3    0.49    0.09
   1  -4   3    0.38    0.08
   1   4   3    0.39    0.08
   1   4   3    0.54    0.11
   1   4   3    0.42    0.09
   1   4   3    0.54    0.09
  -1   4  -3    0.43    0.09
  -1   4  -3    0.49    0.11
  -2  -4  -3   92.19    1.42
  -2  -4  -3   91.02    1.53
   2  -4   3   91.47    1.43
  -2  -4  -3   91.24    1.47
  -2  -4  -3   92.20    1.35
   2  -4   3   93.69    1.31
   2   4   3   93.85    1.50
   2   4   3   94.40    1.33
  -2   4  -3   93.89    1.43
  -2   4  -3   87.80    1.55
   2   4   3   94.66    1.55
  -3  -4  -3    2.53    0.14
  -3  -4  -3    2.15    0.15
   3  -4   3    2.22    0.17
  -3  -4  -3    2.30    0.17
   3  -4   3    2.24    0.17
   3  -4   3    2.15    0.13
   3   4   3    2.13    0.20
   3   4   3    1.88    0.17
   3   4   3    2.17    0.12
  -3   4  -3    2.27    0.16
   3   4   3    2.13    0.18
   4  -4   3    7.80    0.26
  -4  -4  -3    7.45    0.30
   4  -4   3    7.85    0.31
  -4  -4  -3    7.46    0.22
  -4  -4  -3    7.53    0.28
   4  -4   3    7.88    0.32
   4   4   3    7.18    0.30
   4   4   3    7.52    0.38
   4   4   3    7.12    0.34
  -5  -4  -3    8.19    0.39
   5  -4   3    8.16    0.29
   5  -4   3    8.16    0.33
  -5  -4  -3    7.78    0.31
   5  -4   3    8.01    0.29
   5  -4   3    7.96    0.31
   5   4   3    7.76    0.42
   5   4   3    7.70    0.33
   5   4   3    8.32    0.38
  -6  -4  -3    7.05    0.27
  -6  -4  -3    7.00    0.28
   6  -4   3    7.67    0.33
   6  -4   3    7.95    0.31
   6  -4   3    7.67    0.23
   6  -4   3    7.37    0.30
   6  -4   3    7.03    0.28
   6   4   3    7.06    0.38
   6   4   3    7.76    0.45
  -8  -5   3    0.23    0.10
   8  -5  -3    0.10    0.17
   8  -5  -3   -0.01    0.08
  -8  -5   3   -0.03    0.08
   8  -5  -3    0.08    0.08
   8   5  -3    0.01    0.08
   8   5  -3    0.16    0.20
  -7  -5   3    1.74    0.24
   7  -5  -3    1.93    0.12
   7  -5  -3    1.82    0.15
   7  -5  -3    1.80    0.17
   7  -5  -3    1.56    0.21
   7   5  -3    1.62    0.16
   7   5  -3    2.03    0.21
   6  -5  -3    1.59    0.12
   6  -5  -3    1.78    0.18
   6  -5  -3    1.41    0.15
   6  -5  -3    1.45    0.14
  -6  -5   3    1.45    0.17
   6  -5  -3    1.33    0.13
  -6  -5   3    1.45    0.17
  -6  -5   3    1.43    0.11
   6   5  -3    1.48    0.26
  -6   5   3    1.68    0.15
   6   5  -3    1.44    0.15
   6   5  -3    1.88    0.24
  -5  -5   3    2.69    0.15
   5  -5  -3    2.63    0.15
  -5  -5   3    2.70    0.21
   5  -5  -3    2.73    0.18
   5  -5  -3    2.92    0.18
  -5  -5   3    2.69    0.19
   5  -5  -3    2.49    0.18
  -5   5   3    2.83    0.20
  -5   5   3    2.65    0.16
   5   5  -3    2.93    0.20
   5   5  -3    2.46    0.18
   4  -5  -3    5.24    0.25
   4  -5  -3    4.70    0.23
  -4  -5   3    5.12    0.22
  -4  -5   3    5.64    0.36
   4  -5  -3    4.63    0.21
   4  -5  -3    4.83    0.23
   4   5  -3    4.94    0.21
   4   5  -3    4.73    0.23
   4   5  -3    5.20    0.25
  -4   5   3    4.86    0.21
   3  -5  -3    5.84    0.26
   3  -5  -3    5.74    0.25
  -3  -5   3    6.16    0.25
   3  -5  -3    5.00    0.30
  -3  -5   3    6.03    0.24
   3  -5  -3    5.68    0.24
   3   5  -3    5.76    0.23
   3   5  -3    6.17    0.28
   3   5  -3    6.06    0.23
  -3   5   3    6.09    0.26
   2  -5  -3    7.05    0.29
   2  -5  -3    7.18    0.29
  -2  -5   3    7.21    0.27
  -2  -5   3    7.06    0.31
   2  -5  -3    7.53    0.28
   2   5  -3    7.13    0.24
  -2   5   3    7.21    0.25
   2   5  -3    7.04    0.22
   2   5  -3    6.96    0.30
  -2   5   3    7.24    0.28
  -1  -5   3   10.92    0.39
   1  -5  -3   12.18    0.39
   1  -5  -3   12.23    0.36
   1  -5  -3   11.90    0.39
  -1  -5   3   11.61    0.35
   1   5  -3   11.93    0.33
   1   5  -3   11.82    0.24
  -1   5   3   11.70    0.36
  -1   5   3   12.20    0.34
  -1   5   3   11.89    0.29
   0  -5   3   25.46    0.56
   0  -5   3   25.64    0.62
   0  -5  -3   25.98    0.62
   0  -5  -3   25.65    0.56
   0  -5  -3   25.21    0.63
   0   5   3   25.59    0.55
   0   5   3   25.77    0.56
   0   5  -3   25.55    0.54
   0   5   3   25.39    0.56
   0   5   3   26.18    0.59
   1  -5   3    9.58    0.35
  -1  -5  -3   10.27    0.38
   1  -5   3    9.84    0.36
  -1  -5  -3    9.69    0.31
  -1  -5  -3    9.51    0.38
   1   5   3   10.04    0.35
   1   5   3   10.07    0.31
  -1   5  -3    9.90    0.31
   1   5   3   10.50    0.36
  -2  -5  -3   10.51    0.37
  -2  -5  -3    9.81    0.40
  -2  -5  -3   10.98    0.40
  -2  -5  -3   10.39    0.31
   2  -5   3    9.84    0.25
   2  -5   3   10.62    0.35
   2  -5   3   10.60    0.37
   2   5   3   10.81    0.40
  -2   5  -3   10.00    0.32
   2   5   3   10.22    0.38
  -3  -5  -3   14.51    0.47
   3  -5   3   14.93    0.33
   3  -5   3   15.25    0.46
  -3  -5  -3   15.45    0.52
  -3  -5  -3   15.13    0.38
  -3  -5  -3   15.11    0.46
   3  -5   3   15.59    0.44
  -3   5  -3   15.57    0.42
   3   5   3   15.53    0.50
   3   5   3   15.63    0.55
   3   5   3   14.98    0.44
  -4  -5  -3   -0.02    0.08
  -4  -5  -3   -0.03    0.06
  -4  -5  -3    0.02    0.06
  -4  -5  -3    0.00    0.04
   4  -5   3   -0.07    0.05
   4  -5   3    0.00    0.04
   4  -5   3    0.03    0.05
   4   5   3    0.08    0.06
   4   5   3   -0.04    0.07
   4   5   3   -0.05    0.06
  -5  -5  -3    0.36    0.09
   5  -5   3    0.46    0.11
   5  -5   3    0.37    0.11
   5  -5   3    0.46    0.09
  -5  -5  -3    0.38    0.11
   5   5   3    0.42    0.14
   5   5   3    0.20    0.12
  -7  -6   3    0.91    0.10
   7  -6  -3    1.00    0.11
   7  -6  -3    0.81    0.16
   7  -6  -3    1.29    0.22
   7  -6  -3    0.93    0.17
   7   6  -3    0.72    0.16
   6  -6  -3    0.82    0.14
  -6  -6   3    0.58    0.13
   6  -6  -3    0.55    0.13
   6  -6  -3    0.70    0.11
   6  -6  -3    0.49    0.12
   6  -6  -3    0.54    0.14
  -6  -6   3    0.37    0.08
   6   6  -3    0.52    0.12
   6   6  -3    0.71    0.18
   6   6  -3    0.65    0.15
  -6   6   3    0.57    0.13
  -5  -6   3    4.94    0.28
   5  -6  -3    4.72    0.23
  -5  -6   3    4.46    0.21
   5  -6  -3    5.09    0.27
  -5  -6   3    4.82    0.31
   5  -6  -3    4.77    0.26
   5  -6  -3    4.69    0.25
   5   6  -3    4.14    0.26
   5   6  -3    4.90    0.27
  -5   6   3    4.55    0.25
   4  -6  -3    7.34    0.31
  -4  -6   3    7.35    0.28
  -4  -6   3    7.50    0.33
   4  -6  -3    7.39    0.32
   4  -6  -3    7.44    0.30
   4  -6  -3    7.20    0.31
  -4  -6   3    7.33    0.36
   4   6  -3    7.48    0.30
   4   6  -3    7.58    0.44
  -4   6   3    7.36    0.30
   3  -6  -3    0.68    0.12
   3  -6  -3    0.77    0.13
  -3  -6   3    0.59    0.12
   3  -6  -3    0.52    0.15
  -3  -6   3    0.83    0.14
   3  -6  -3    0.77    0.14
  -3  -6   3    0.47    0.16
   3   6  -3    0.52    0.10
   3   6  -3    0.77    0.12
   3   6  -3    0.69    0.14
  -3   6   3    0.49    0.11
  -3   6   3    0.66    0.16
   2  -6  -3    0.62    0.13
   2  -6  -3    0.51    0.11
   2  -6  -3    0.59    0.12
  -2  -6   3    0.59    0.12
  -2  -6   3    0.24    0.09
  -2  -6   3    0.51    0.10
   2   6  -3    0.51    0.09
  -2   6   3    0.51    0.12
   2   6  -3    0.58    0.13
   2   6  -3    0.55    0.09
   1  -6  -3    5.55    0.28
   1  -6  -3    5.30    0.26
  -1  -6   3    5.36    0.29
   1  -6  -3    4.55    0.26
  -1  -6   3    5.47    0.25
  -1  -6   3    5.01    0.26
  -1   6   3    5.56    0.27
  -1   6   3    5.39    0.17
   1   6  -3    5.58    0.23
   0  -6  -3    0.92    0.15
   0  -6  -3    0.52    0.10
   0  -6   3    0.80    0.14
   0  -6   3    0.54    0.12
   0  -6  -3    0.88    0.13
   0  -6   3    0.98    0.13
   0   6   3    0.74    0.13
   0   6   3    0.79    0.10
   0   6  -3    0.88    0.10
   0   6   3    0.70    0.12
   0   6  -3    0.76    0.15
  -1  -6  -3    0.36    0.12
   1  -6   3    0.23    0.09
  -1  -6  -3    0.42    0.12
   1  -6   3    0.25    0.09
  -1  -6  -3    0.21    0.08
  -1  -6  -3    0.30    0.09
   1  -6   3    0.46    0.13
  -1   6  -3    0.40    0.09
   1   6   3    0.31    0.15
   1   6   3    0.38    0.10
  -1   6  -3    0.26    0.11
   1   6   3    0.42    0.11
  -2  -6  -3    0.00    0.07
   2  -6   3    0.04    0.07
   2  -6   3   -0.03    0.05
  -2  -6  -3   -0.01    0.07
  -2  -6  -3    0.12    0.06
   2  -6   3    0.02    0.06
  -2  -6  -3   -0.05    0.07
  -2   6  -3    0.06    0.08
   2   6   3    0.16    0.09
   2   6   3    0.12    0.08
  -2   6  -3    0.05    0.05
   2   6   3    0.06    0.07
   3  -6   3    1.66    0.17
  -3  -6  -3    1.49    0.21
  -3  -6  -3    1.66    0.22
  -3  -6  -3    1.54    0.14
   3  -6   3    1.45    0.16
  -3  -6  -3    1.56    0.18
   3   6   3    1.42    0.21
   3   6   3    1.70    0.19
  -4  -6  -3    1.23    0.12
  -4  -6  -3    1.57    0.23
   4  -6   3    1.39    0.20
  -4  -6  -3    1.00    0.18
   4  -6   3    1.09    0.15
   4   6   3    1.59    0.25
   4   6   3    1.15    0.27
  -5  -7   3    1.48    0.20
   5  -7  -3    1.60    0.21
   5  -7  -3    1.29    0.19
   5  -7  -3    1.62    0.16
  -5  -7   3    1.36    0.17
   5   7  -3    1.52    0.18
  -5   7   3    1.26    0.20
   4  -7  -3    1.50    0.21
  -4  -7   3    1.53    0.16
   4  -7  -3    1.67    0.17
   4  -7  -3    1.27    0.17
   4  -7  -3    1.41    0.17
  -4  -7   3    2.25    0.29
   4   7  -3    1.82    0.17
   4   7  -3    1.23    0.20
   3  -7  -3    1.71    0.18
  -3  -7   3    1.81    0.17
   3  -7  -3    1.94    0.19
  -3  -7   3    1.61    0.19
   3  -7  -3    1.84    0.18
  -3   7   3    1.83    0.19
   3   7  -3    1.79    0.29
   3   7  -3    1.73    0.15
  -2  -7   3    2.58    0.21
   2  -7  -3    2.27    0.21
   2  -7  -3    2.50    0.21
  -2  -7   3    2.65    0.20
   2  -7  -3    2.40    0.21
   2   7  -3    2.26    0.17
   2   7  -3    2.56    0.14
  -2   7   3    2.31    0.19
  -1  -7   3    0.27    0.10
   1  -7  -3    0.22    0.10
   1  -7  -3    0.34    0.13
   1  -7  -3    0.14    0.08
  -1  -7   3    0.09    0.07
   1   7  -3    0.29    0.09
  -1   7   3    0.29    0.11
   0  -7  -3    3.98    0.25
   0  -7  -3    3.39    0.25
   0  -7   3    4.56    0.45
   0  -7   3    3.56    0.24
   0  -7  -3    3.76    0.27
   0  -7   3    3.92    0.24
   0   7   3    3.75    0.18
   0   7  -3    3.67    0.20
  -1  -7  -3    0.63    0.15
  -1  -7  -3    0.50    0.12
   1  -7   3    0.58    0.13
  -1  -7  -3    0.56    0.18
  -1  -7  -3    0.46    0.13
   1  -7   3    0.46    0.12
  -1   7  -3    0.50    0.09
   1   7   3    0.47    0.13
   1   7   3    0.68    0.14
  -2  -7  -3    0.15    0.11
   2  -7   3    0.35    0.13
   2  -7   3    0.33    0.11
  -2  -7  -3    0.50    0.12
  -2   7  -3    0.32    0.08
   2   7   3    0.34    0.11
   2   7   3    0.28    0.12
  10   0  -4    0.11    0.09
  10   0  -4    0.30    0.17
   9   0  -4    1.11    0.19
  -9   0   4    1.00    0.08
   9   0  -4    1.04    0.17
   8   0  -4    1.70    0.18
  -8   0   4    1.65    0.10
   8   0  -4    1.69    0.17
   7   0  -4    0.68    0.14
   7   0  -4    0.84    0.11
  -7   0   4    0.74    0.07
   7   0  -4    0.67    0.12
   7   0  -4    0.63    0.08
  -7   0   4    0.82    0.14
   6   0  -4   33.70    0.71
   6   0  -4   33.70    0.66
   6   0  -4   33.23    0.59
  -6   0   4   33.45    0.56
  -6   0   4   33.84    0.70
   6   0  -4   33.90    0.61
  -6   0   4   33.07    0.57
   5   0  -4    2.66    0.16
   5   0  -4    2.77    0.14
  -5   0   4    2.70    0.13
   5   0  -4    2.75    0.13
   5   0  -4    3.08    0.16
  -5   0   4    2.84    0.13
  -5   0   4    2.73    0.16
  -4   0   4   29.08    0.55
   4   0  -4   29.57    0.58
   4   0  -4   29.19    0.57
  -4   0   4   28.95    0.51
   4   0  -4   28.71    0.51
   4   0  -4   29.78    0.55
  -3   0   4   30.00    0.53
  -3   0   4   28.98    0.54
  -3   0   4   28.60    0.47
   3   0  -4   29.93    0.52
  -3   0   4   30.66    0.49
   3   0  -4   29.70    0.56
  -3   0   4   29.39    0.55
   3   0  -4   28.71    0.54
   3   0  -4   29.56    0.55
  -2   0   4   13.83    0.29
   2   0  -4   13.48    0.32
  -2   0   4   13.14    0.32
  -2   0   4   13.62    0.30
   2   0  -4   13.64    0.33
   2   0  -4   13.68    0.30
  -2   0   4   13.50    0.31
  -1   0   4   92.91    1.36
   1   0  -4   97.61    1.31
  -1   0   4   93.95    1.35
   1   0  -4   94.00    1.28
   1   0  -4   97.88    1.37
  -1   0   4   95.49    1.27
   0   0  -4    2.61    0.12
   0   0  -4    2.48    0.11
   0   0   4    2.41    0.13
   0   0   4    2.67    0.11
   0   0  -4    2.39    0.08
   0   0   4    2.44    0.14
   0   0  -4    2.48    0.15
   0   0   4    2.42    0.08
   0   0   4    2.56    0.13
   1   0   4   89.94    1.25
   1   0   4   87.74    1.38
   1   0   4   88.16    1.29
   1   0   4   88.02    1.29
  -1   0  -4   89.46    1.24
  -1   0  -4   89.28    1.28
   2   0   4   26.48    0.51
   2   0   4   26.33    0.51
   2   0   4   26.51    0.51
  -2   0  -4   26.29    0.53
  -2   0  -4   26.61    0.63
   3   0   4  164.93    2.27
  -3   0  -4  163.16    2.28
   3   0   4  164.82    2.23
   3   0   4  162.28    2.22
   3   0   4  167.13    2.45
   4   0   4   40.61    0.92
   4   0   4   41.37    0.79
   4   0   4   40.43    0.70
  -4   0  -4   40.39    0.78
   4   0   4   41.55    0.72
   5   0   4    1.09    0.10
   5   0   4    1.00    0.09
   5   0   4    1.08    0.18
   5   0   4    1.20    0.16
  -5   0  -4    1.35    0.18
   6   0   4    5.45    0.34
   6   0   4    5.10    0.18
   6   0   4    5.24    0.27
   7   0   4   18.40    0.57
   7   0   4   18.35    0.68
  10  -1  -4    6.59    0.36
  10  -1  -4    6.16    0.41
  10  -1  -4    5.91    0.36
  10   1  -4    6.49    0.39
  10   1  -4    6.34    0.35
   9  -1  -4    0.30    0.11
  -9  -1   4    0.27    0.10
   9  -1  -4    0.29    0.07
   9  -1  -4    0.13    0.06
   9  -1  -4    0.30    0.12
   9   1  -4    0.16    0.10
  -9   1   4    0.22    0.07
   9   1  -4    0.16    0.09
   8  -1  -4   20.58    0.50
   8  -1  -4   20.54    0.45
   8  -1  -4   21.13    0.47
   8  -1  -4   21.66    0.59
  -8  -1   4   21.40    0.37
   8  -1  -4   20.96    0.59
   8   1  -4   21.42    0.61
   8   1  -4   21.47    0.60
  -8   1   4   20.97    0.44
   7  -1  -4   73.44    1.18
   7  -1  -4   74.16    1.14
   7  -1  -4   72.16    1.27
  -7  -1   4   74.11    1.03
   7  -1  -4   71.95    1.09
  -7  -1   4   74.45    1.27
  -7  -1   4   71.73    1.10
   7   1  -4   73.41    1.29
  -7   1   4   73.72    1.27
   7   1  -4   73.73    1.28
  -7   1   4   73.55    1.10
  -6  -1   4   15.72    0.44
   6  -1  -4   15.60    0.44
  -6  -1   4   15.64    0.38
   6  -1  -4   14.89    0.37
   6  -1  -4   15.27    0.34
   6  -1  -4   15.82    0.40
  -6  -1   4   16.08    0.33
   6   1  -4   16.15    0.44
  -6   1   4   15.61    0.35
  -6   1   4   15.61    0.43
   6   1  -4   15.91    0.46
   6   1  -4   15.18    0.43
  -5  -1   4    0.08    0.04
   5  -1  -4    0.20    0.05
   5  -1  -4    0.21    0.06
   5  -1  -4    0.14    0.05
  -5  -1   4    0.13    0.05
   5  -1  -4    0.07    0.03
  -5  -1   4    0.16    0.04
  -5   1   4    0.11    0.05
   5   1  -4    0.11    0.04
  -5   1   4    0.20    0.04
   5   1  -4    0.18    0.04
   5   1  -4    0.07    0.05
  -5   1   4    0.11    0.04
  -4  -1   4  307.94   10.42
   4  -1  -4  300.31    9.76
   4   1  -4  313.71   10.40
  -3  -1   4  529.76   13.76
   3  -1  -4  527.38   13.65
   3   1  -4  510.70   13.35
  -3   1   4  513.85   13.61
  -2  -1   4   12.59    0.31
  -2  -1   4   12.53    0.30
   2  -1  -4   12.29    0.30
   2  -1  -4   12.35    0.32
   2  -1  -4   12.29    0.29
  -2  -1   4   12.12    0.31
  -2  -1   4   13.41    0.29
   2  -1  -4   12.03    0.31
  -2  -1   4   12.23    0.32
   2   1  -4   13.56    0.31
  -2   1   4   12.27    0.27
   2   1  -4   12.41    0.30
  -2   1   4   12.43    0.32
  -2   1   4   12.37    0.29
   1  -1  -4   50.37    0.84
  -1  -1   4   48.85    0.82
  -1  -1   4   49.29    0.78
  -1  -1   4   49.34    0.81
   1  -1  -4   49.94    0.82
  -1  -1   4   49.05    0.74
   1  -1  -4   48.28    0.78
   1  -1  -4   48.31    0.80
   1  -1  -4   49.48    0.73
   1   1  -4   49.31    0.70
  -1   1   4   49.26    0.78
   1   1  -4   49.39    0.75
  -1   1   4   49.58    0.81
  -1   1   4   49.61    0.80
   1   1  -4   50.09    0.83
   0  -1  -4    6.97    0.16
   0  -1  -4    7.01    0.22
   0  -1  -4    6.74    0.22
   0  -1  -4    6.43    0.25
   0  -1  -4    7.05    0.22
   0  -1   4    6.65    0.23
   0  -1   4    6.83    0.22
   0  -1   4    6.36    0.25
   0   1  -4    7.00    0.17
   0   1   4    6.75    0.24
   0   1   4    7.32    0.23
   0   1   4    6.48    0.20
   0   1  -4    7.08    0.25
   0   1   4    6.81    0.21
   1  -1   4    0.48    0.06
  -1  -1  -4    0.39    0.07
  -1  -1  -4    0.23    0.07
  -1  -1  -4    0.24    0.06
   1  -1   4    0.40    0.08
   1   1   4    0.20    0.06
  -1   1  -4    0.26    0.05
  -1   1  -4    0.28    0.07
   1   1   4    0.28    0.08
  -2  -1  -4    4.47    0.17
   2  -1   4    4.07    0.21
   2  -1   4    4.05    0.16
  -2  -1  -4    4.23    0.20
   2   1   4    4.41    0.19
  -2   1  -4    4.32    0.16
  -2   1  -4    4.18    0.23
   2   1   4    4.18    0.16
   2   1   4    4.34    0.23
   2   1   4    4.21    0.19
   3  -1   4  113.06    1.58
  -3  -1  -4  115.28    1.53
   3  -1   4  114.01    1.60
  -3  -1  -4  113.09    1.71
   3  -1   4  112.82    1.78
   3   1   4  113.99    1.64
  -3   1  -4  115.13    1.60
   3   1   4  113.82    1.70
   3   1   4  115.10    1.57
   3   1   4  110.34    1.83
   4  -1   4   78.95    1.21
  -4  -1  -4   76.80    1.30
   4  -1   4   78.32    1.39
   4  -1   4   76.57    1.15
   4   1   4   75.94    1.20
  -4   1  -4   75.14    1.19
   4   1   4   76.55    1.11
   4   1   4   78.99    1.46
   4   1   4   77.81    1.30
   5  -1   4    4.32    0.18
   5  -1   4    4.24    0.21
   5  -1   4    4.29    0.27
   5   1   4    4.21    0.29
   5   1   4    4.17    0.20
   5   1   4    4.17    0.14
   5   1   4    4.01    0.29
   6  -1   4    0.17    0.08
   6  -1   4    0.15    0.06
  -6  -1  -4    0.36    0.11
   6  -1   4    0.31    0.11
   6  -1   4    0.29    0.07
   6  -1   4    0.30    0.09
   6  -1   4    0.23    0.06
   6   1   4    0.20    0.09
   6   1   4    0.18    0.09
   7  -1   4    9.66    0.29
   7  -1   4    9.23    0.44
   7  -1   4    9.55    0.27
   7  -1   4    9.61    0.38
   7  -1   4    9.80    0.47
   7  -1   4   10.47    0.30
   7   1   4    9.25    0.51
   7   1   4    9.40    0.42
  10  -2  -4    7.21    0.56
  10  -2  -4    6.42    0.25
  10  -2  -4    6.65    0.39
  10  -2  -4    7.22    0.28
  10   2  -4    6.77    0.38
  10   2  -4    7.04    0.40
   9  -2  -4    5.32    0.24
   9  -2  -4    4.63    0.20
   9  -2  -4    5.22    0.23
   9  -2  -4    5.00    0.30
  -9  -2   4    5.02    0.29
   9  -2  -4    5.01    0.29
   9   2  -4    4.80    0.31
   9   2  -4    4.71    0.17
   9   2  -4    5.40    0.31
   8  -2  -4   10.95    0.30
   8  -2  -4   11.27    0.35
  -8  -2   4   11.78    0.42
  -8  -2   4   11.35    0.32
   8  -2  -4   11.15    0.42
   8  -2  -4   11.03    0.34
   8   2  -4   10.88    0.28
  -8   2   4   10.80    0.32
   8   2  -4   11.38    0.44
   8   2  -4   10.87    0.43
  -7  -2   4    5.30    0.23
  -7  -2   4    5.60    0.17
   7  -2  -4    5.57    0.23
   7  -2  -4    4.60    0.29
   7  -2  -4    5.17    0.22
   7  -2  -4    5.65    0.19
   7   2  -4    5.69    0.35
   7   2  -4    5.38    0.19
   7   2  -4    5.51    0.41
   6  -2  -4    4.13    0.19
   6  -2  -4    3.87    0.15
  -6  -2   4    3.93    0.22
   6  -2  -4    4.22    0.22
  -6  -2   4    3.98    0.16
  -6  -2   4    4.21    0.16
  -6  -2   4    4.12    0.20
   6  -2  -4    3.89    0.19
   6   2  -4    4.06    0.23
  -6   2   4    4.26    0.18
   6   2  -4    4.25    0.16
   6   2  -4    3.66    0.18
   6   2  -4    4.39    0.23
   5  -2  -4   17.55    0.34
  -5  -2   4   17.91    0.38
  -5  -2   4   18.10    0.35
  -5  -2   4   17.61    0.44
   5  -2  -4   17.85    0.42
   5  -2  -4   17.95    0.42
  -5  -2   4   17.19    0.47
   5  -2  -4   17.78    0.46
   5   2  -4   17.61    0.47
   5   2  -4   17.47    0.44
   5   2  -4   17.57    0.38
  -5   2   4   17.65    0.39
   5   2  -4   18.26    0.42
  -4  -2   4   14.13    0.39
   4  -2  -4   15.30    0.38
   4  -2  -4   14.99    0.39
  -4  -2   4   15.24    0.31
   4  -2  -4   14.48    0.31
  -4  -2   4   14.56    0.35
   4  -2  -4   14.58    0.36
   4   2  -4   15.12    0.37
  -4   2   4   15.33    0.35
   4   2  -4   14.87    0.35
   4   2  -4   15.61    0.41
   4   2  -4   14.80    0.35
  -4   2   4   14.28    0.32
  -3  -2   4  155.67    2.17
   3  -2  -4  155.69    2.15
  -3  -2   4  155.76    2.18
   3  -2  -4  157.31    2.08
   3  -2  -4  154.79    2.13
   3  -2  -4  155.96    2.16
  -3   2   4  156.92    2.10
   3   2  -4  156.79    2.08
   3   2  -4  157.75    2.14
  -3   2   4  157.77    2.11
   3   2  -4  156.69    2.18
   2  -2  -4   41.85    0.70
   2  -2  -4   40.34    0.70
   2  -2  -4   41.83    0.74
  -2  -2   4   41.82    0.72
  -2  -2   4   41.73    0.66
  -2  -2   4   42.45    0.69
   2  -2  -4   41.09    0.70
  -2  -2   4   40.90    0.73
   2  -2  -4   40.69    0.71
   2   2  -4   41.35    0.72
  -2   2   4   42.71    0.69
   2   2  -4   39.99    0.74
  -2   2   4   39.97    0.66
   2   2  -4   41.62    0.70
  -2   2   4   40.86    0.66
  -2   2   4   40.44    0.70
   1  -2  -4   11.99    0.33
  -1  -2   4   12.21    0.32
   1  -2  -4   11.61    0.32
   1  -2  -4   11.71    0.31
   1  -2  -4   11.77    0.33
  -1  -2   4   12.23    0.29
  -1  -2   4   12.02    0.30
   1   2  -4   12.28    0.30
  -1   2   4   12.36    0.31
   1   2  -4   11.37    0.34
   1   2  -4   12.10    0.32
  -1   2   4   11.94    0.32
  -1   2   4   12.05    0.29
   0  -2  -4   63.95    1.04
   0  -2  -4   66.24    1.00
   0  -2   4   63.30    1.05
   0  -2   4   64.43    0.95
   0  -2  -4   64.14    1.07
   0  -2   4   64.47    0.99
   0  -2  -4   64.67    1.04
   0   2  -4   64.27    1.06
   0   2   4   63.08    1.05
   0   2   4   62.72    0.96
   0   2   4   65.42    1.01
   0   2   4   63.39    1.02
  -1  -2  -4   76.81    1.19
   1  -2   4   74.23    1.24
  -1  -2  -4   74.73    1.22
   1  -2   4   75.78    1.13
   1  -2   4   76.84    1.08
   1  -2   4   77.88    1.18
  -1  -2  -4   75.78    1.14
   1   2   4   76.86    1.20
   1   2   4   74.91    1.18
   1   2   4   74.26    1.26
   1   2   4   77.72    1.11
  -1   2  -4   75.93    1.24
   2  -2   4   15.80    0.35
  -2  -2  -4   15.46    0.44
  -2  -2  -4   15.67    0.30
   2  -2   4   15.58    0.28
   2  -2   4   15.37    0.31
   2  -2   4   15.46    0.41
  -2  -2  -4   15.98    0.40
   2  -2   4   15.59    0.46
   2   2   4   15.51    0.48
   2   2   4   15.27    0.39
  -2   2  -4   15.96    0.46
   2   2   4   16.21    0.34
   2   2   4   15.84    0.42
  -3  -2  -4    6.31    0.23
  -3  -2  -4    5.82    0.28
   3  -2   4    6.16    0.30
   3  -2   4    6.06    0.20
   3  -2   4    5.97    0.18
   3  -2   4    5.83    0.26
  -3  -2  -4    5.98    0.16
   3  -2   4    5.96    0.16
   3  -2   4    5.93    0.17
  -3   2  -4    6.02    0.30
   3   2   4    5.92    0.31
   3   2   4    5.92    0.27
   3   2   4    6.06    0.18
   4  -2   4   15.19    0.50
  -4  -2  -4   15.33    0.48
   4  -2   4   15.90    0.49
   4  -2   4   15.22    0.29
   4  -2   4   15.42    0.35
   4  -2   4   15.44    0.36
  -4  -2  -4   15.65    0.35
   4   2   4   15.48    0.41
   4   2   4   15.68    0.55
   4   2   4   15.41    0.48
   4   2   4   15.45    0.31
  -5  -2  -4    0.06    0.07
   5  -2   4   -0.02    0.05
   5  -2   4    0.02    0.05
   5  -2   4    0.01    0.03
   5  -2   4    0.10    0.07
   5   2   4   -0.03    0.07
   5   2   4    0.08    0.08
   6  -2   4    0.32    0.12
   6  -2   4    0.44    0.09
   6  -2   4    0.38    0.08
  -6  -2  -4    0.42    0.13
   6  -2   4    0.62    0.15
   6  -2   4    0.61    0.10
   6   2   4    0.33    0.13
   6   2   4    0.60    0.14
   7  -2   4    8.13    0.40
   7  -2   4    8.34    0.42
   7  -2   4    8.77    0.34
   7  -2   4    8.68    0.29
   7   2   4    7.38    0.45
  -9  -3   4    5.77    0.25
   9  -3  -4    5.64    0.33
  -9  -3   4    5.75    0.22
   9  -3  -4    5.37    0.26
   9  -3  -4    5.27    0.25
   9  -3  -4    5.94    0.26
   9   3  -4    5.96    0.24
   9   3  -4    6.04    0.35
   9   3  -4    5.56    0.35
   8  -3  -4    3.48    0.19
  -8  -3   4    3.40    0.20
   8  -3  -4    3.75    0.21
   8  -3  -4    3.87    0.25
  -8  -3   4    3.67    0.25
   8  -3  -4    3.83    0.15
   8   3  -4    3.50    0.26
  -8   3   4    2.91    0.19
   8   3  -4    3.64    0.26
   8   3  -4    3.78    0.18
   7  -3  -4    8.72    0.23
   7  -3  -4    8.33    0.35
  -7  -3   4    9.04    0.33
   7  -3  -4    8.33    0.30
  -7  -3   4    9.02    0.38
   7  -3  -4    8.22    0.29
  -7  -3   4    8.73    0.23
   7   3  -4    9.32    0.38
  -7   3   4    8.78    0.31
   7   3  -4    8.46    0.37
   7   3  -4    8.74    0.28
   6  -3  -4   19.08    0.36
   6  -3  -4   19.26    0.47
  -6  -3   4   19.10    0.43
   6  -3  -4   19.48    0.56
  -6  -3   4   19.22    0.51
  -6  -3   4   18.97    0.41
   6  -3  -4   19.00    0.46
   6   3  -4   18.92    0.52
   6   3  -4   18.44    0.56
  -6   3   4   18.94    0.46
   6   3  -4   19.19    0.44
   5  -3  -4   21.86    0.54
   5  -3  -4   21.41    0.39
   5  -3  -4   21.16    0.49
  -5  -3   4   21.41    0.55
  -5  -3   4   21.62    0.44
  -5  -3   4   21.47    0.53
   5  -3  -4   21.30    0.49
   5   3  -4   21.35    0.56
   5   3  -4   21.62    0.47
   5   3  -4   21.17    0.47
   5   3  -4   21.40    0.52
  -5   3   4   21.70    0.48
  -4  -3   4    0.24    0.06
   4  -3  -4    0.30    0.07
   4  -3  -4    0.36    0.08
   4  -3  -4    0.25    0.06
   4  -3  -4    0.30    0.05
   4   3  -4    0.20    0.05
   4   3  -4    0.22    0.08
  -4   3   4    0.29    0.06
   4   3  -4    0.32    0.07
  -4   3   4    0.29    0.05
  -3  -3   4    6.13    0.26
   3  -3  -4    6.37    0.24
   3  -3  -4    6.54    0.25
  -3  -3   4    7.39    0.22
   3  -3  -4    6.17    0.23
   3  -3  -4    6.45    0.19
   3  -3  -4    6.42    0.25
   3   3  -4    6.69    0.22
  -3   3   4    6.45    0.15
   3   3  -4    6.63    0.22
   3   3  -4    6.64    0.25
   3   3  -4    6.61    0.27
  -3   3   4    6.78    0.18
  -3   3   4    6.42    0.23
   2  -3  -4    6.88    0.26
   2  -3  -4    6.95    0.25
  -2  -3   4    6.89    0.23
   2  -3  -4    6.58    0.21
   2  -3  -4    6.65    0.24
  -2  -3   4    6.36    0.25
  -2   3   4    6.89    0.23
   2   3  -4    6.85    0.23
  -2   3   4    6.73    0.21
   2   3  -4    6.74    0.25
   2   3  -4    6.88    0.19
  -2   3   4    6.82    0.23
   2   3  -4    6.86    0.27
  -2   3   4    6.81    0.19
  -1  -3   4   92.25    1.39
  -1  -3   4   96.36    1.33
   1  -3  -4   92.93    1.44
   1  -3  -4   92.79    1.38
   1  -3  -4   94.09    1.43
  -1  -3   4   94.87    1.40
  -1   3   4   95.20    1.36
   1   3  -4   90.98    1.48
  -1   3   4   93.04    1.37
   1   3  -4   93.58    1.40
  -1   3   4   94.99    1.37
  -1   3   4   94.27    1.39
   0  -3  -4   19.88    0.49
   0  -3   4   20.75    0.41
   0  -3   4   19.89    0.44
   0  -3  -4   20.03    0.49
   0  -3   4   19.64    0.47
   0  -3  -4   19.47    0.44
   0   3   4   20.09    0.47
   0   3   4   20.08    0.48
   0   3  -4   20.47    0.48
   0   3   4   19.57    0.42
   0   3  -4   19.13    0.52
   0   3   4   19.67    0.46
   0   3   4   20.11    0.46
   1  -3   4   16.60    0.38
   1  -3   4   15.97    0.44
   1  -3   4   16.44    0.38
  -1  -3  -4   15.97    0.38
  -1  -3  -4   17.12    0.44
   1   3   4   16.94    0.37
  -1   3  -4   16.44    0.44
   1   3   4   14.85    0.60
   1   3   4   16.35    0.47
   1   3   4   16.31    0.43
   1   3   4   14.45    0.47
  -2  -3  -4   50.89    0.82
   2  -3   4   51.16    0.87
  -2  -3  -4   50.84    0.98
  -2  -3  -4   50.19    0.84
  -2  -3  -4   51.13    0.92
   2  -3   4   51.38    0.96
   2  -3   4   51.14    0.82
  -2   3  -4   51.70    0.97
   2   3   4   50.76    1.02
   2   3   4   50.24    0.95
   2   3   4   51.02    0.80
   2   3   4   46.06    0.91
  -3  -3  -4   20.13    0.42
   3  -3   4   20.76    0.43
  -3  -3  -4   20.65    0.58
   3  -3   4   20.71    0.51
   3  -3   4   20.83    0.56
  -3  -3  -4   20.93    0.51
  -3   3  -4   20.81    0.58
   3   3   4   19.03    0.53
   3   3   4   21.75    0.63
   3   3   4   21.91    0.60
   3   3   4   20.59    0.40
   4  -3   4   11.11    0.41
  -4  -3  -4   10.70    0.42
   4  -3   4   11.12    0.38
  -4  -3  -4   10.74    0.28
   4  -3   4   10.51    0.28
  -4  -3  -4   11.15    0.34
   4  -3   4   10.88    0.29
   4  -3   4   10.88    0.24
   4   3   4   10.33    0.40
   4   3   4   11.30    0.25
   4   3   4   10.47    0.39
   4   3   4   10.39    0.46
   5  -3   4    0.15    0.06
   5  -3   4    0.14    0.05
  -5  -3  -4    0.19    0.06
  -5  -3  -4    0.18    0.10
  -5  -3  -4    0.17    0.05
   5  -3   4    0.14    0.05
   5  -3   4    0.13    0.07
   5  -3   4    0.25    0.08
   5  -3   4    0.18    0.08
   5   3   4    0.21    0.09
   5   3   4    0.23    0.09
   5   3   4    0.45    0.10
   6  -3   4    5.37    0.30
   6  -3   4    5.35    0.25
  -6  -3  -4    5.64    0.18
   6  -3   4    5.50    0.31
   6  -3   4    5.50    0.21
   6  -3   4    5.61    0.20
   6   3   4    5.99    0.34
   6   3   4    5.90    0.41
   9  -4  -4   19.67    0.52
   9  -4  -4   20.13    0.65
   9  -4  -4   19.82    0.43
  -9  -4   4   20.91    0.51
   9  -4  -4   20.13    0.55
   9   4  -4   19.69    0.68
   9   4  -4   19.29    0.51
   9   4  -4   20.13    0.67
   8  -4  -4    5.82    0.27
   8  -4  -4    5.30    0.25
  -8  -4   4    5.44    0.40
   8  -4  -4    5.72    0.33
   8   4  -4    5.30    0.25
   8   4  -4    5.55    0.33
   8   4  -4    5.84    0.34
   7  -4  -4    3.14    0.19
   7  -4  -4    2.94    0.23
   7  -4  -4    2.65    0.19
  -7  -4   4    2.94    0.14
  -7  -4   4    2.88    0.23
  -7   4   4    3.11    0.20
   7   4  -4    3.32    0.24
   7   4  -4    2.98    0.18
   7   4  -4    2.65    0.22
   7   4  -4    2.57    0.18
  -6  -4   4    1.98    0.16
   6  -4  -4    2.19    0.16
   6  -4  -4    2.17    0.19
   6  -4  -4    1.98    0.15
   6   4  -4    1.77    0.17
   6   4  -4    2.31    0.16
   6   4  -4    2.26    0.20
   6   4  -4    2.13    0.16
  -5  -4   4    2.48    0.16
   5  -4  -4    2.60    0.18
   5  -4  -4    2.86    0.18
   5  -4  -4    2.81    0.20
   5   4  -4    2.71    0.16
  -5   4   4    2.39    0.17
   5   4  -4    2.61    0.20
   5   4  -4    2.76    0.18
   5   4  -4    3.03    0.19
  -5   4   4    2.60    0.13
   4  -4  -4    1.01    0.12
  -4  -4   4    1.23    0.14
  -4  -4   4    0.95    0.11
   4  -4  -4    0.74    0.12
   4  -4  -4    0.71    0.12
   4  -4  -4    1.05    0.12
   4   4  -4    0.78    0.10
  -4   4   4    0.75    0.11
  -4   4   4    0.91    0.09
   4   4  -4    1.42    0.13
   4   4  -4    0.90    0.11
   4   4  -4    1.43    0.15
   3  -4  -4   46.61    0.87
  -3  -4   4   48.81    0.82
   3  -4  -4   47.20    0.88
  -3  -4   4   46.78    0.91
  -3   4   4   47.86    0.76
  -3   4   4   47.74    0.85
   3   4  -4   47.08    1.04
   3   4  -4   47.86    0.80
  -3   4   4   47.23    0.64
   3   4  -4   47.21    0.90
   2  -4  -4   85.99    1.35
  -2  -4   4   87.76    1.33
   2  -4  -4   88.90    1.41
   2  -4  -4   88.51    1.40
  -2  -4   4   87.73    1.42
   2   4  -4   85.08    1.43
   2   4  -4   87.24    1.22
  -2   4   4   90.02    1.28
  -2   4   4   88.87    1.34
   2   4  -4   89.35    1.34
  -2   4   4   86.38    1.21
   1  -4  -4   44.28    0.81
   1  -4  -4   44.66    0.87
  -1  -4   4   45.23    0.81
  -1  -4   4   45.24    0.86
   1  -4  -4   47.02    0.88
  -1   4   4   45.81    0.78
   1   4  -4   45.38    0.92
  -1   4   4   45.22    0.78
   1   4  -4   45.22    0.81
  -1   4   4   45.60    0.81
   0  -4  -4   15.85    0.40
   0  -4  -4   16.15    0.46
   0  -4   4   15.49    0.42
   0  -4   4   15.62    0.42
   0  -4  -4   15.07    0.46
   0  -4   4   15.56    0.35
   0   4  -4   15.39    0.49
   0   4   4   15.71    0.38
   0   4   4   15.23    0.40
   0   4   4   15.71    0.43
   0   4  -4   15.54    0.42
   0   4   4   15.77    0.43
  -1  -4  -4   20.34    0.56
  -1  -4  -4   20.03    0.53
   1  -4   4   20.49    0.42
   1  -4   4   19.63    0.48
  -1  -4  -4   19.76    0.46
   1   4   4   20.61    0.53
  -1   4  -4   18.68    0.57
   1   4   4   20.77    0.55
   1   4   4   19.89    0.49
  -1   4  -4   19.78    0.51
   1   4   4   19.84    0.44
  -2  -4  -4   41.04    0.77
  -2  -4  -4   42.46    0.86
  -2  -4  -4   41.22    0.75
   2  -4   4   43.40    1.17
   2  -4   4   42.13    0.74
   2  -4   4   42.10    0.79
   2   4   4   42.67    0.88
   2   4   4   41.64    0.72
   2   4   4   41.74    0.92
  -2   4  -4   42.56    0.85
   3  -4   4    4.78    0.21
  -3  -4  -4    5.50    0.27
   3  -4   4    4.66    0.21
  -3  -4  -4    4.90    0.20
  -3  -4  -4    5.01    0.22
   3  -4   4    4.91    0.26
   3   4   4    5.09    0.28
   3   4   4    4.80    0.18
  -3   4  -4    4.70    0.30
   3   4   4    4.89    0.30
  -4  -4  -4    4.44    0.28
  -4  -4  -4    4.96    0.22
   4  -4   4    4.67    0.27
   4  -4   4    4.97    0.26
  -4  -4  -4    4.80    0.25
   4  -4   4    4.76    0.22
   4   4   4    4.85    0.17
   4   4   4    4.55    0.31
   4   4   4    4.98    0.27
   4   4   4    4.66    0.28
   5  -4   4    0.76    0.14
   5  -4   4    0.89    0.14
  -5  -4  -4    0.99    0.14
  -5  -4  -4    0.90    0.12
   5  -4   4    1.20    0.14
   5   4   4    0.98    0.18
   5   4   4    0.82    0.19
   6  -4   4    0.14    0.10
  -6  -4  -4    0.11    0.07
   6  -4   4    0.00    0.08
   6  -4   4    0.10    0.07
   6  -4   4    0.19    0.07
  -6  -4  -4    0.04    0.08
   6   4   4    0.23    0.12
   6   4   4    0.15    0.10
   8  -5  -4    1.65    0.25
   8  -5  -4    1.51    0.21
   8  -5  -4    1.38    0.17
  -8  -5   4    1.52    0.21
   8   5  -4    1.15    0.16
   8   5  -4    1.19    0.21
   7  -5  -4    0.40    0.13
  -7  -5   4    0.26    0.06
  -7  -5   4    0.30    0.08
   7  -5  -4    0.31    0.11
  -7  -5   4    0.30    0.10
   7  -5  -4    0.51    0.13
   7   5  -4    0.34    0.12
  -7   5   4    0.40    0.12
   7   5  -4    0.27    0.10
   6  -5  -4    5.20    0.26
  -6  -5   4    5.46    0.22
  -6  -5   4    5.48    0.27
  -6  -5   4    5.32    0.30
   6  -5  -4    5.21    0.29
   6  -5  -4    5.06    0.29
   6  -5  -4    5.35    0.27
  -6   5   4    5.19    0.22
  -6   5   4    5.43    0.27
   6   5  -4    5.51    0.26
   6   5  -4    5.62    0.29
   6   5  -4    5.15    0.27
   5  -5  -4   14.68    0.44
   5  -5  -4   13.57    0.47
   5  -5  -4   14.09    0.43
  -5  -5   4   14.87    0.43
   5  -5  -4   14.25    0.44
   5   5  -4   13.82    0.44
  -5   5   4   14.61    0.45
  -5   5   4   14.27    0.37
   5   5  -4   14.18    0.41
   5   5  -4   14.47    0.45
   4  -5  -4   22.98    0.57
   4  -5  -4   22.22    0.56
   4  -5  -4   22.56    0.57
  -4  -5   4   23.11    0.53
   4   5  -4   20.38    0.50
   4   5  -4   22.84    0.59
  -4   5   4   22.65    0.48
   4   5  -4   21.82    0.53
   3  -5  -4    0.47    0.11
  -3  -5   4    0.56    0.10
  -3  -5   4    0.29    0.09
   3  -5  -4    0.60    0.12
   3  -5  -4    0.55    0.11
   3   5  -4    0.52    0.11
   3   5  -4    0.65    0.11
  -3   5   4    0.52    0.09
   3   5  -4    0.50    0.09
  -2  -5   4   11.69    0.36
  -2  -5   4   10.55    0.39
   2  -5  -4   10.44    0.43
   2  -5  -4   11.00    0.38
   2   5  -4   11.52    0.35
   2   5  -4   11.51    0.26
   2   5  -4   11.01    0.41
  -2   5   4   11.13    0.23
  -2   5   4   11.62    0.32
  -2   5   4   11.57    0.37
  -1  -5   4   15.16    0.47
   1  -5  -4   15.37    0.47
   1  -5  -4   14.42    0.42
  -1  -5   4   15.32    0.42
   1  -5  -4   14.80    0.47
  -1   5   4   14.42    0.41
  -1   5   4   14.71    0.36
   1   5  -4   14.94    0.41
  -1   5   4   14.28    0.38
   0  -5   4    1.77    0.16
   0  -5  -4    1.46    0.14
   0  -5   4    1.58    0.15
   0  -5  -4    1.44    0.15
   0  -5  -4    1.66    0.16
   0   5  -4    1.70    0.14
   0   5   4    1.59    0.16
   0   5   4    1.58    0.14
   0   5   4    1.76    0.15
  -1  -5  -4   42.08    0.90
   1  -5   4   42.75    0.70
   1  -5   4   42.21    0.83
  -1  -5  -4   41.61    0.93
   1  -5   4   42.06    0.85
  -1  -5  -4   42.33    0.80
   1   5   4   40.76    0.91
   1   5   4   42.71    0.88
   1   5   4   41.96    0.78
  -1   5  -4   40.64    1.01
  -1   5  -4   42.74    0.84
   1   5   4   41.76    0.88
   2  -5   4   11.39    0.30
   2  -5   4   11.50    0.39
   2  -5   4   11.64    0.39
  -2  -5  -4   11.89    0.46
  -2  -5  -4   11.06    0.42
  -2  -5  -4   11.48    0.35
  -2  -5  -4   11.66    0.38
   2   5   4   11.42    0.33
  -2   5  -4   11.21    0.39
   2   5   4   10.93    0.39
   2   5   4   11.72    0.45
   2   5   4   12.02    0.43
  -3  -5  -4    0.97    0.16
   3  -5   4    1.08    0.15
  -3  -5  -4    0.99    0.19
  -3  -5  -4    1.14    0.15
   3  -5   4    0.84    0.09
   3  -5   4    0.96    0.14
   3  -5   4    1.15    0.17
  -3  -5  -4    1.05    0.11
   3   5   4    0.96    0.11
   3   5   4    0.90    0.15
   3   5   4    1.07    0.18
   3   5   4    0.87    0.15
   4  -5   4    2.27    0.18
   4  -5   4    2.46    0.20
   4  -5   4    2.32    0.15
  -4  -5  -4    2.25    0.14
  -4  -5  -4    2.49    0.18
  -4  -5  -4    2.17    0.20
   4  -5   4    2.36    0.20
   4   5   4    2.37    0.22
   4   5   4    2.02    0.23
   5  -5   4    0.07    0.10
   5  -5   4    0.02    0.06
   5  -5   4    0.04    0.07
  -5  -5  -4    0.08    0.09
  -5  -5  -4    0.09    0.08
   5  -5   4   -0.04    0.06
   5  -5   4    0.10    0.08
   5   5   4    0.10    0.10
   5   5   4    0.05    0.13
   6  -6  -4    0.43    0.11
   6  -6  -4    0.25    0.10
  -6  -6   4    0.34    0.09
   6  -6  -4    0.21    0.15
   6  -6  -4    0.32    0.11
  -6  -6   4    0.31    0.11
   6   6  -4    0.21    0.09
   6   6  -4    0.16    0.10
  -6   6   4    0.46    0.11
   5  -6  -4    2.92    0.24
  -5  -6   4    3.50    0.23
   5  -6  -4    3.04    0.22
   5  -6  -4    3.29    0.23
   5  -6  -4    3.13    0.22
  -5  -6   4    3.12    0.19
   5   6  -4    3.23    0.24
   5   6  -4    3.07    0.20
  -5   6   4    3.19    0.20
   5   6  -4    3.47    0.24
   4  -6  -4    1.93    0.18
   4  -6  -4    1.94    0.18
  -4  -6   4    1.94    0.18
   4  -6  -4    1.86    0.18
  -4  -6   4    2.01    0.17
  -4  -6   4    1.77    0.20
   4   6  -4    1.93    0.19
   4   6  -4    1.70    0.15
  -4   6   4    1.54    0.18
  -4   6   4    1.80    0.16
   4   6  -4    1.77    0.15
  -3  -6   4    4.68    0.25
   3  -6  -4    4.53    0.27
   3  -6  -4    3.95    0.24
  -3  -6   4    4.38    0.24
   3  -6  -4    4.51    0.26
  -3  -6   4    4.55    0.28
   3   6  -4    4.52    0.29
  -3   6   4    4.06    0.25
   3   6  -4    4.31    0.19
  -2  -6   4    7.04    0.31
   2  -6  -4    7.17    0.31
   2  -6  -4    6.88    0.32
  -2  -6   4    6.84    0.35
  -2  -6   4    7.22    0.30
   2  -6  -4    6.97    0.34
   2   6  -4    6.91    0.22
   2   6  -4    7.35    0.39
  -2   6   4    7.15    0.33
   2   6  -4    7.00    0.28
   1  -6  -4    0.08    0.07
  -1  -6   4    0.00    0.07
  -1  -6   4    0.01    0.07
  -1  -6   4    0.00    0.06
   1  -6  -4   -0.01    0.05
   1  -6  -4    0.07    0.07
  -1   6   4    0.14    0.08
  -1   6   4   -0.03    0.06
   1   6  -4    0.02    0.08
  -1   6   4    0.06    0.05
   1   6  -4   -0.02    0.05
   0  -6  -4    1.46    0.15
   0  -6  -4    1.27    0.19
   0  -6   4    1.21    0.15
   0  -6   4    1.34    0.16
   0  -6  -4    1.80    0.24
   0  -6   4    1.40    0.15
   0   6  -4    1.94    0.21
   0   6   4    1.18    0.25
   0   6   4    1.41    0.13
   0   6   4    1.44    0.18
   0   6  -4    1.31    0.17
  -1  -6  -4    4.14    0.23
   1  -6   4    3.87    0.23
  -1  -6  -4    3.53    0.23
  -1  -6  -4    3.87    0.26
   1  -6   4    3.52    0.23
   1  -6   4    4.14    0.25
  -1  -6  -4    3.89    0.27
  -1   6  -4    3.85    0.29
   1   6   4    4.01    0.22
   1   6   4    3.68    0.24
  -1   6  -4    4.07    0.23
   1   6   4    3.44    0.21
   1   6   4    4.07    0.24
  -2  -6  -4    2.62    0.43
  -2  -6  -4    2.20    0.18
  -2  -6  -4    2.08    0.16
  -2  -6  -4    1.68    0.23
   2  -6   4    1.93    0.18
   2  -6   4    2.20    0.20
   2  -6   4    1.79    0.17
   2   6   4    1.97    0.20
   2   6   4    2.04    0.20
  -2   6  -4    1.73    0.16
   2   6   4    1.65    0.14
  -3  -6  -4    0.07    0.08
   3  -6   4    0.34    0.10
  -3  -6  -4    0.09    0.10
  -3  -6  -4    0.29    0.10
   3  -6   4    0.09    0.08
   3  -6   4    0.18    0.08
   3  -6   4    0.10    0.05
   3   6   4    0.16    0.11
   3   6   4    0.22    0.12
  -4  -7   4   12.20    0.41
   4  -7  -4   11.80    0.46
   4  -7  -4   11.58    0.46
  -4  -7   4   14.02    0.51
   4  -7  -4   11.95    0.45
  -4   7   4   10.64    0.52
   4   7  -4   11.14    0.40
   4   7  -4   12.46    0.38
   3  -7  -4    0.80    0.16
  -3  -7   4    1.02    0.18
  -3  -7   4    1.03    0.23
   3  -7  -4    1.17    0.19
   3  -7  -4    1.13    0.30
   3   7  -4    0.86    0.15
   3   7  -4    1.01    0.11
  -3   7   4    0.80    0.14
   2  -7  -4    1.43    0.22
   2  -7  -4    1.38    0.18
   2  -7  -4    1.87    0.25
  -2  -7   4    1.45    0.20
  -2  -7   4    1.69    0.19
  -2   7   4    1.40    0.16
  -1  -7   4    6.54    0.33
   1  -7  -4    6.55    0.35
   1  -7  -4    7.33    0.38
   1  -7  -4    6.74    0.32
  -1  -7   4    6.68    0.33
   1   7  -4    6.35    0.29
   0  -7  -4    0.54    0.12
   0  -7   4    1.03    0.30
   0  -7  -4    0.37    0.22
   0  -7   4    0.64    0.21
   0   7  -4    0.53    0.12
   0   7   4    0.53    0.11
  -1  -7  -4    6.52    0.36
   1  -7   4    6.16    0.31
  -1  -7  -4    5.89    0.29
   1  -7   4    6.59    0.34
   1   7   4    6.80    0.32
   1   7   4    6.13    0.34
  10   0  -5    0.13    0.09
  10   0  -5   -0.02    0.12
  10   0  -5   -0.02    0.06
 -10   0   5    0.05    0.05
  -9   0   5   -0.05    0.04
  -9   0   5    0.01    0.07
   9   0  -5   -0.03    0.07
   9   0  -5    0.08    0.08
   9   0  -5    0.02    0.05
   8   0  -5   -0.03    0.07
   8   0  -5    0.02    0.04
  -8   0   5    0.27    0.07
   8   0  -5    0.01    0.06
  -8   0   5    0.01    0.07
  -7   0   5    0.06    0.04
   7   0  -5    0.00    0.05
   7   0  -5    0.05    0.04
  -7   0   5    0.20    0.06
   6   0  -5    0.05    0.05
  -6   0   5    0.04    0.05
  -6   0   5    0.03    0.05
   6   0  -5   -0.03    0.04
   6   0  -5   -0.02    0.04
  -6   0   5    0.02    0.04
   6   0  -5   -0.02    0.04
  -5   0   5    2.35    0.13
   5   0  -5    2.33    0.15
   5   0  -5    2.26    0.16
   5   0  -5    1.94    0.13
  -5   0   5    1.98    0.15
  -5   0   5    2.27    0.14
   4   0  -5    0.04    0.04
  -4   0   5    0.01    0.03
   4   0  -5    0.02    0.04
   4   0  -5   -0.02    0.03
  -4   0   5    0.00    0.04
  -4   0   5    0.04    0.03
  -4   0   5   -0.01    0.04
  -4   0   5    0.01    0.02
   3   0  -5    0.29    0.06
  -3   0   5    0.36    0.07
   3   0  -5    0.28    0.07
   3   0  -5    0.27    0.07
  -3   0   5    0.26    0.05
  -2   0   5    0.27    0.06
   2   0  -5    0.17    0.04
   2   0  -5    0.24    0.06
  -2   0   5    0.20    0.04
   2   0  -5    0.20    0.06
  -2   0   5    0.24    0.06
  -2   0   5    0.21    0.06
  -1   0   5    0.07    0.03
  -1   0   5    0.07    0.04
   1   0  -5    0.04    0.03
   1   0  -5    0.08    0.04
   1   0  -5    0.08    0.04
   1   0  -5    0.08    0.03
  -1   0   5    0.11    0.05
  -1   0   5    0.07    0.05
   0   0   5    0.87    0.10
   0   0  -5    0.92    0.09
   0   0  -5    0.72    0.05
   0   0   5    0.82    0.09
   0   0  -5    0.88    0.08
  -1   0  -5   -0.01    0.05
  -1   0  -5   -0.04    0.03
   1   0   5    0.01    0.03
  -1   0  -5    0.03    0.03
   1   0   5   -0.02    0.04
   1   0   5   -0.02    0.04
   1   0   5    0.01    0.04
   2   0   5    0.18    0.06
   2   0   5    0.20    0.06
   2   0   5    0.17    0.07
  -2   0  -5    0.13    0.06
  -2   0  -5    0.22    0.09
   2   0   5    0.28    0.07
   3   0   5    0.03    0.05
   3   0   5    0.06    0.05
   3   0   5   -0.04    0.05
  -3   0  -5    0.05    0.05
   3   0   5    0.01    0.05
   4   0   5   -0.02    0.04
   4   0   5    0.01    0.05
  -4   0  -5   -0.05    0.05
   4   0   5    0.01    0.05
   4   0   5    0.07    0.05
  -5   0  -5   -0.09    0.05
   5   0   5    0.01    0.06
   5   0   5    0.07    0.06
   5   0   5    0.06    0.07
  -6   0  -5   -0.05    0.07
   6   0   5    0.07    0.08
   6   0   5   -0.01    0.06
   6   0   5   -0.02    0.05
   6   0   5    0.08    0.06
  10  -1  -5    1.75    0.29
  10  -1  -5    1.77    0.25
  10   1  -5    1.46    0.23
 -10   1   5    1.73    0.13
  10   1  -5    1.84    0.21
  -9  -1   5    3.99    0.26
   9  -1  -5    4.27    0.21
   9  -1  -5    4.23    0.20
   9  -1  -5    4.51    0.29
   9  -1  -5    4.42    0.28
  -9  -1   5    4.21    0.15
   9   1  -5    3.88    0.28
  -9   1   5    4.26    0.19
   9   1  -5    4.44    0.28
   9   1  -5    4.40    0.23
   8  -1  -5   10.27    0.36
  -8  -1   5   10.51    0.40
   8  -1  -5    9.95    0.30
  -8  -1   5   10.20    0.29
   8  -1  -5   10.90    0.42
   8  -1  -5    9.84    0.33
  -8  -1   5   10.17    0.26
   8   1  -5   10.75    0.42
   8   1  -5    9.85    0.32
   8   1  -5   10.17    0.41
  -7  -1   5    0.50    0.09
   7  -1  -5    0.39    0.09
   7  -1  -5    0.45    0.09
   7  -1  -5    0.79    0.10
  -7  -1   5    0.42    0.07
   7   1  -5    0.32    0.07
  -7   1   5    0.48    0.09
   7   1  -5    0.51    0.12
  -6  -1   5    2.04    0.12
   6  -1  -5    2.02    0.16
   6  -1  -5    1.68    0.13
  -6  -1   5    2.21    0.17
   6  -1  -5    1.69    0.11
  -6  -1   5    1.99    0.14
   6  -1  -5    1.81    0.14
  -6   1   5    1.97    0.16
   6   1  -5    1.85    0.13
  -6   1   5    1.95    0.11
   6   1  -5    2.18    0.17
  -6   1   5    2.10    0.13
  -5  -1   5    7.55    0.27
   5  -1  -5    7.74    0.27
   5  -1  -5    7.59    0.28
  -5  -1   5    7.70    0.18
  -5  -1   5    7.56    0.24
  -5  -1   5    7.47    0.28
   5  -1  -5    7.60    0.29
   5  -1  -5    7.75    0.24
   5   1  -5    7.58    0.25
   5   1  -5    7.60    0.30
  -5   1   5    7.61    0.24
  -5   1   5    7.59    0.28
  -5   1   5    7.53    0.24
   4  -1  -5   -0.01    0.04
  -4  -1   5    0.04    0.05
  -4  -1   5    0.07    0.04
   4  -1  -5    0.11    0.06
  -4  -1   5    0.05    0.04
  -4  -1   5    0.02    0.04
   4  -1  -5    0.09    0.04
   4  -1  -5    0.08    0.05
   4   1  -5    0.29    0.07
  -4   1   5    0.00    0.04
   4   1  -5    0.07    0.04
  -4   1   5    0.05    0.04
  -4   1   5    0.07    0.05
  -4   1   5    0.14    0.06
  -3  -1   5   24.87    0.47
  -3  -1   5   24.91    0.47
  -3  -1   5   24.50    0.50
  -3  -1   5   24.02    0.51
   3  -1  -5   24.63    0.52
  -3  -1   5   24.62    0.53
   3  -1  -5   24.24    0.50
   3  -1  -5   25.12    0.51
  -3   1   5   24.62    0.52
  -3   1   5   23.89    0.49
   3   1  -5   24.65    0.51
  -3   1   5   24.63    0.45
   3   1  -5   24.41    0.51
   2  -1  -5   33.02    0.64
   2  -1  -5   31.85    0.63
   2  -1  -5   32.29    0.57
  -2  -1   5   32.50    0.64
   2  -1  -5   33.28    0.64
  -2  -1   5   33.68    0.59
  -2  -1   5   32.96    0.59
   2  -1  -5   32.68    0.59
  -2  -1   5   32.65    0.62
  -2  -1   5   31.31    0.62
  -2   1   5   33.20    0.60
  -2   1   5   33.18    0.59
   2   1  -5   32.88    0.59
   2   1  -5   32.55    0.64
  -2   1   5   32.35    0.63
  -1  -1   5   46.85    0.79
   1  -1  -5   46.12    0.71
   1  -1  -5   46.19    0.82
  -1  -1   5   46.42    0.81
   1  -1  -5   47.01    0.86
   1  -1  -5   46.13    0.79
  -1  -1   5   46.00    0.72
   1  -1  -5   46.67    0.82
   1   1  -5   45.92    0.85
  -1   1   5   46.72    0.78
   1   1  -5   47.08    0.71
  -1   1   5   46.88    0.81
   1   1  -5   46.82    0.73
  -1   1   5   45.68    0.82
   0  -1  -5    4.92    0.20
   0  -1  -5    5.02    0.14
   0  -1   5    5.02    0.21
   0  -1  -5    5.40    0.25
   0  -1  -5    4.97    0.21
   0  -1   5    4.91    0.14
   0  -1   5    4.86    0.21
   0   1  -5    4.75    0.16
   0   1   5    5.02    0.23
   0   1  -5    5.22    0.24
   0   1   5    5.23    0.19
   0   1   5    4.91    0.19
   0   1   5    4.86    0.21
   1  -1   5    4.84    0.23
  -1  -1  -5    5.38    0.27
   1  -1   5    4.51    0.18
  -1  -1  -5    4.65    0.21
   1  -1   5    4.76    0.20
  -1  -1  -5    4.69    0.20
   1   1   5    4.91    0.25
   1   1   5    4.87    0.21
   1   1   5    4.72    0.19
  -1   1  -5    4.89    0.17
  -1   1  -5    4.50    0.24
   1   1   5    4.93    0.20
  -2  -1  -5   44.52    0.85
   2  -1   5   46.05    0.72
  -2  -1  -5   44.88    0.76
   2  -1   5   44.28    0.78
   2  -1   5   45.38    0.89
   2   1   5   43.95    0.81
   2   1   5   44.61    0.76
  -2   1  -5   44.04    0.94
   2   1   5   43.91    0.93
  -2   1  -5   45.08    0.75
   2   1   5   44.57    0.81
  -3  -1  -5   30.16    0.68
   3  -1   5   30.82    0.58
   3  -1   5   30.92    0.74
   3  -1   5   30.71    0.60
  -3  -1  -5   31.45    0.55
  -3   1  -5   29.72    0.58
   3   1   5   28.22    0.78
   3   1   5   28.97    0.76
   3   1   5   30.30    0.66
   3   1   5   30.49    0.57
   4  -1   5    0.35    0.08
  -4  -1  -5    0.50    0.12
   4  -1   5    0.58    0.14
   4  -1   5    0.35    0.08
   4   1   5    0.47    0.08
   4   1   5    0.49    0.14
  -4   1  -5    0.39    0.09
   4   1   5    0.38    0.09
   4   1   5    0.36    0.10
  -5  -1  -5    0.50    0.12
   5  -1   5    0.33    0.10
   5  -1   5    0.35    0.08
   5  -1   5    0.29    0.13
   5  -1   5    0.34    0.08
   5  -1   5    0.37    0.09
   5   1   5    0.25    0.11
   5   1   5    0.39    0.07
   5   1   5    0.30    0.09
   5   1   5    0.31    0.09
   6  -1   5    6.29    0.25
   6  -1   5    6.49    0.28
   6  -1   5    6.39    0.37
  -6  -1  -5    5.66    0.31
   6  -1   5    6.71    0.27
   6  -1   5    5.93    0.37
   6   1   5    5.66    0.26
   6   1   5    6.22    0.43
   6   1   5    6.28    0.32
  10  -2  -5    0.11    0.10
  10  -2  -5    0.02    0.06
  10  -2  -5   -0.07    0.06
  10  -2  -5   -0.03    0.06
  10   2  -5    0.01    0.09
  10   2  -5    0.01    0.10
   9  -2  -5    0.81    0.13
   9  -2  -5    0.64    0.14
  -9  -2   5    0.75    0.15
   9  -2  -5    0.67    0.10
   9  -2  -5    0.74    0.13
  -9  -2   5    0.76    0.11
   9   2  -5    0.92    0.19
  -9   2   5    0.91    0.14
   9   2  -5    0.60    0.16
   9   2  -5    0.41    0.10
   8  -2  -5   34.84    0.75
  -8  -2   5   34.89    0.73
   8  -2  -5   36.48    0.89
  -8  -2   5   34.29    0.82
   8  -2  -5   34.58    0.72
   8  -2  -5   36.35    0.85
  -8  -2   5   34.67    0.59
   8   2  -5   35.25    0.84
  -8   2   5   35.46    0.69
   8   2  -5   34.67    0.72
   8   2  -5   36.46    0.86
   7  -2  -5   31.01    0.74
  -7  -2   5   30.89    0.57
  -7  -2   5   33.59    0.78
   7  -2  -5   30.75    0.68
   7  -2  -5   31.57    0.58
   7  -2  -5   30.97    0.66
   7   2  -5   30.75    0.64
   7   2  -5   31.38    0.58
   7   2  -5   31.49    0.76
  -7   2   5   31.78    0.63
   7   2  -5   32.10    0.77
   6  -2  -5   11.80    0.40
   6  -2  -5   12.31    0.38
  -6  -2   5   12.21    0.28
  -6  -2   5   12.26    0.32
   6  -2  -5   11.83    0.30
   6  -2  -5   11.63    0.36
  -6  -2   5   11.91    0.45
   6   2  -5   11.92    0.39
   6   2  -5   12.22    0.35
   6   2  -5   12.03    0.41
  -6   2   5   12.31    0.34
   6   2  -5   11.79    0.32
  -5  -2   5   21.27    0.40
   5  -2  -5   21.18    0.52
   5  -2  -5   21.55    0.44
  -5  -2   5   21.75    0.47
   5  -2  -5   20.53    0.49
  -5  -2   5   21.91    0.54
  -5  -2   5   20.81    0.53
   5  -2  -5   21.41    0.51
   5   2  -5   21.87    0.50
  -5   2   5   21.02    0.49
   5   2  -5   21.30    0.48
   5   2  -5   21.20    0.47
  -5   2   5   22.08    0.44
   4  -2  -5  216.85    2.90
  -4  -2   5  217.61    2.93
   4  -2  -5  212.58    2.90
   4  -2  -5  212.61    2.92
  -4  -2   5  212.81    2.94
   4  -2  -5  214.01    2.82
  -4  -2   5  213.00    2.88
   4   2  -5  213.78    2.86
  -4   2   5  214.21    2.83
   4   2  -5  215.59    2.94
   4   2  -5  208.30    2.87
  -4   2   5  210.88    2.84
   3  -2  -5    4.31    0.19
   3  -2  -5    4.44    0.20
   3  -2  -5    4.42    0.19
  -3  -2   5    4.84    0.18
  -3  -2   5    4.53    0.21
  -3  -2   5    4.44    0.20
   3  -2  -5    4.77    0.19
  -3  -2   5    4.31    0.17
   3  -2  -5    4.54    0.21
   3   2  -5    4.22    0.21
  -3   2   5    4.41    0.19
  -3   2   5    4.28    0.18
  -3   2   5    4.15    0.16
   3   2  -5    4.15    0.20
   3   2  -5    4.42    0.19
  -3   2   5    4.48    0.16
  -2  -2   5    8.02    0.24
  -2  -2   5    7.30    0.27
   2  -2  -5    6.98    0.27
   2  -2  -5    7.27    0.25
   2  -2  -5    7.20    0.23
  -2  -2   5    7.47    0.25
   2  -2  -5    8.05    0.27
   2  -2  -5    6.81    0.25
  -2  -2   5    7.36    0.25
   2   2  -5    7.61    0.25
   2   2  -5    7.22    0.26
  -2   2   5    6.94    0.25
  -2   2   5    7.49    0.23
  -2   2   5    7.26    0.24
   1  -2  -5   14.18    0.32
  -1  -2   5   13.79    0.37
   1  -2  -5   13.68    0.40
   1  -2  -5   13.81    0.38
  -1  -2   5   13.73    0.34
   1  -2  -5   14.17    0.40
  -1  -2   5   13.98    0.39
  -1  -2   5   13.93    0.33
  -1   2   5   14.43    0.38
  -1   2   5   14.04    0.38
   1   2  -5   14.32    0.33
   1   2  -5   13.37    0.39
  -1   2   5   14.16    0.35
   1   2  -5   13.80    0.26
   0  -2  -5    0.20    0.07
   0  -2  -5    0.35    0.06
   0  -2  -5    0.26    0.07
   0  -2   5    0.28    0.07
   0  -2   5    0.25    0.07
   0  -2   5    0.24    0.07
   0  -2  -5    0.29    0.08
   0  -2   5    0.20    0.05
   0  -2  -5    0.25    0.08
   0   2  -5    0.23    0.07
   0   2   5    0.36    0.07
   0   2   5    0.27    0.06
   0   2   5    0.23    0.07
   0   2  -5    0.29    0.04
   0   2   5    0.37    0.08
  -1  -2  -5   39.93    0.76
   1  -2   5   40.16    0.63
  -1  -2  -5   40.29    0.61
   1  -2   5   39.03    0.76
   1  -2   5   39.23    0.72
  -1  -2  -5   40.96    0.91
  -1  -2  -5   39.53    0.74
   1   2   5   39.44    0.76
   1   2   5   39.67    0.69
  -1   2  -5   40.11    0.84
   1   2   5   39.60    0.84
  -1   2  -5   41.38    0.63
   2  -2   5    0.86    0.14
  -2  -2  -5    1.16    0.17
   2  -2   5    0.87    0.06
  -2  -2  -5    0.85    0.12
   2  -2   5    0.91    0.13
   2  -2   5    1.03    0.11
   2   2   5    1.04    0.12
   2   2   5    1.10    0.12
  -2   2  -5    0.89    0.07
  -2   2  -5    1.06    0.14
   2   2   5    0.91    0.10
   2   2   5    0.94    0.16
   3  -2   5   41.25    0.86
   3  -2   5   40.72    0.65
  -3  -2  -5   40.60    0.87
   3  -2   5   42.16    0.98
  -3  -2  -5   40.39    0.74
   3  -2   5   39.61    0.73
   3   2   5   38.93    0.79
  -3   2  -5   41.78    0.93
   3   2   5   40.52    0.84
   3   2   5   42.10    0.96
   3   2   5   40.32    0.69
   4  -2   5    0.09    0.07
  -4  -2  -5    0.19    0.08
  -4  -2  -5    0.10    0.04
   4  -2   5    0.15    0.05
   4  -2   5    0.11    0.05
   4  -2   5    0.08    0.07
   4   2   5    0.20    0.07
   4   2   5    0.09    0.05
   4   2   5    0.11    0.07
   4   2   5    0.14    0.09
   5  -2   5    0.18    0.05
   5  -2   5    0.15    0.09
  -5  -2  -5    0.31    0.10
   5  -2   5    0.30    0.07
   5  -2   5    0.16    0.08
   5   2   5    0.19    0.05
   5   2   5    0.34    0.14
   5   2   5    0.21    0.08
   6  -2   5   11.20    0.34
   6  -2   5   11.48    0.36
   6  -2   5   13.10    0.51
   6  -2   5   11.87    0.51
   6  -2   5   11.61    0.37
   6   2   5   11.18    0.55
   6   2   5   11.30    0.46
   9  -3  -5    1.90    0.17
   9  -3  -5    1.69    0.19
  -9  -3   5    1.87    0.17
   9  -3  -5    1.92    0.20
   9  -3  -5    1.64    0.17
   9   3  -5    1.90    0.15
  -9   3   5    1.92    0.17
   9   3  -5    2.03    0.22
   9   3  -5    1.85    0.21
  -8  -3   5    1.70    0.10
   8  -3  -5    1.51    0.21
   8  -3  -5    1.42    0.11
   8  -3  -5    1.68    0.15
  -8  -3   5    1.54    0.16
  -8  -3   5    1.57    0.18
   8  -3  -5    1.41    0.14
   8   3  -5    1.79    0.25
   8   3  -5    1.67    0.19
   8   3  -5    1.30    0.15
   8   3  -5    1.47    0.13
   7  -3  -5    0.19    0.06
   7  -3  -5    0.27    0.09
   7  -3  -5    0.18    0.07
   7  -3  -5    0.25    0.08
  -7  -3   5    0.29    0.07
  -7  -3   5    0.25    0.09
  -7  -3   5    0.28    0.08
   7   3  -5    0.25    0.09
   7   3  -5    0.33    0.12
   7   3  -5    0.23    0.07
  -7   3   5    0.02    0.06
  -6  -3   5    3.47    0.17
   6  -3  -5    3.15    0.14
   6  -3  -5    3.40    0.20
   6  -3  -5    3.57    0.20
   6  -3  -5    3.37    0.22
  -6  -3   5    3.58    0.22
  -6  -3   5    3.53    0.17
   6   3  -5    3.65    0.22
   6   3  -5    3.49    0.23
  -6   3   5    3.53    0.19
   6   3  -5    3.43    0.19
   5  -3  -5    2.17    0.12
  -5  -3   5    2.07    0.15
   5  -3  -5    2.00    0.16
  -5  -3   5    2.08    0.17
   5  -3  -5    2.22    0.16
  -5  -3   5    2.14    0.17
  -5  -3   5    2.25    0.13
   5  -3  -5    2.43    0.18
   5   3  -5    2.06    0.15
   5   3  -5    2.51    0.19
   5   3  -5    2.27    0.17
  -5   3   5    2.05    0.15
   5   3  -5    2.36    0.16
  -4  -3   5   14.94    0.44
   4  -3  -5   15.81    0.41
   4  -3  -5   14.69    0.42
   4  -3  -5   14.96    0.43
  -4  -3   5   15.86    0.45
  -4  -3   5   15.03    0.35
   4  -3  -5   15.08    0.36
   4  -3  -5   15.27    0.42
   4   3  -5   14.72    0.38
   4   3  -5   15.47    0.45
   4   3  -5   14.91    0.39
  -4   3   5   14.85    0.29
   4   3  -5   15.31    0.43
  -4   3   5   15.03    0.39
  -4   3   5   14.87    0.30
  -4   3   5   15.45    0.37
  -3  -3   5    2.35    0.16
   3  -3  -5    2.19    0.15
  -3  -3   5    2.48    0.17
   3  -3  -5    2.33    0.14
   3  -3  -5    2.42    0.17
   3  -3  -5    2.30    0.15
  -3  -3   5    2.30    0.14
   3  -3  -5    2.10    0.15
   3   3  -5    2.28    0.17
   3   3  -5    2.22    0.16
  -3   3   5    2.47    0.13
  -3   3   5    2.36    0.15
   3   3  -5    2.41    0.13
  -3   3   5    2.26    0.14
  -3   3   5    2.73    0.12
   2  -3  -5   49.77    0.88
   2  -3  -5   49.48    0.85
  -2  -3   5   48.75    0.85
   2  -3  -5   48.91    0.91
  -2  -3   5   48.61    0.87
   2  -3  -5   50.02    0.86
  -2  -3   5   49.50    0.80
   2  -3  -5   48.54    0.90
  -2   3   5   48.94    0.82
   2   3  -5   48.74    0.72
  -2   3   5   49.20    0.86
   2   3  -5   47.65    0.94
   2   3  -5   47.54    0.87
  -2   3   5   49.10    0.80
   1  -3  -5    7.16    0.28
   1  -3  -5    7.25    0.27
  -1  -3   5    7.42    0.28
  -1  -3   5    7.18    0.24
  -1  -3   5    7.05    0.25
   1  -3  -5    6.92    0.28
   1  -3  -5    7.16    0.29
  -1   3   5    7.30    0.25
  -1   3   5    7.21    0.27
  -1   3   5    7.31    0.26
   1   3  -5    7.49    0.29
  -1   3   5    7.56    0.27
   0  -3   5   23.29    0.49
   0  -3  -5   23.61    0.58
   0  -3   5   23.10    0.56
   0  -3  -5   23.60    0.57
   0  -3   5   23.21    0.49
   0  -3  -5   22.54    0.52
   0   3   5   23.10    0.54
   0   3  -5   23.88    0.58
   0   3   5   22.48    0.54
   0   3   5   23.42    0.57
   0   3   5   23.58    0.49
   0   3   5   23.78    0.54
   1  -3   5    0.07    0.06
   1  -3   5    0.06    0.04
  -1  -3  -5    0.03    0.06
  -1  -3  -5    0.06    0.06
  -1  -3  -5    0.06    0.06
   1  -3   5    0.11    0.05
   1   3   5    0.06    0.05
   1   3   5    0.09    0.06
   1   3   5    0.04    0.05
   1   3   5    0.14    0.06
  -2  -3  -5   33.27    0.72
  -2  -3  -5   32.99    0.66
  -2  -3  -5   32.28    0.58
   2  -3   5   33.96    0.60
   2  -3   5   33.55    0.65
   2  -3   5   33.86    0.69
   2   3   5   33.80    0.82
  -2   3  -5   33.55    0.78
   2   3   5   33.33    0.61
   2   3   5   32.66    0.70
   3  -3   5    7.71    0.35
   3  -3   5    7.57    0.22
  -3  -3  -5    7.66    0.21
  -3  -3  -5    7.25    0.29
   3  -3   5    7.65    0.27
   3  -3   5    8.03    0.32
  -3  -3  -5    7.42    0.35
   3   3   5    7.70    0.24
   3   3   5    7.84    0.39
   3   3   5    7.78    0.34
  -3   3  -5    7.93    0.36
   4  -3   5    3.43    0.22
  -4  -3  -5    3.85    0.20
  -4  -3  -5    3.94    0.26
   4  -3   5    3.51    0.16
   4  -3   5    3.19    0.13
   4  -3   5    3.51    0.25
   4  -3   5    3.47    0.18
   4   3   5    3.04    0.22
   4   3   5    3.83    0.15
   4   3   5    3.78    0.29
   4   3   5    3.53    0.24
   5  -3   5    5.17    0.29
   5  -3   5    5.08    0.17
   5  -3   5    4.83    0.22
   5  -3   5    5.44    0.33
   5   3   5    5.31    0.31
   5   3   5    5.18    0.36
   9  -4  -5    1.89    0.26
  -9  -4   5    1.52    0.19
   9  -4  -5    1.93    0.17
   9  -4  -5    1.75    0.17
   9   4  -5    1.86    0.27
   9   4  -5    1.53    0.16
   9   4  -5    1.95    0.29
  -9   4   5    2.14    0.34
   8  -4  -5    1.28    0.20
   8  -4  -5    1.09    0.15
   8  -4  -5    1.40    0.19
  -8  -4   5    1.09    0.10
  -8  -4   5    1.17    0.17
  -8   4   5    1.42    0.19
   8   4  -5    1.45    0.21
   8   4  -5    1.21    0.19
   8   4  -5    0.98    0.15
  -7  -4   5    8.13    0.38
   7  -4  -5    8.29    0.35
  -7  -4   5    7.67    0.35
   7  -4  -5    8.88    0.39
  -7  -4   5    8.16    0.30
  -7  -4   5    8.36    0.28
   7  -4  -5    7.84    0.33
   7   4  -5    8.44    0.37
   7   4  -5    8.25    0.32
  -7   4   5    8.59    0.33
   7   4  -5    8.33    0.39
   7   4  -5    8.08    0.32
  -6  -4   5    6.56    0.41
   6  -4  -5    6.69    0.30
   6  -4  -5    7.06    0.30
   6  -4  -5    7.54    0.34
  -6  -4   5    7.15    0.27
  -6  -4   5    6.99    0.32
  -6   4   5    7.21    0.29
   6   4  -5    6.92    0.30
   6   4  -5    7.41    0.35
   6   4  -5    6.80    0.28
   6   4  -5    7.27    0.32
   5  -4  -5   15.06    0.44
  -5  -4   5   15.36    0.49
   5  -4  -5   15.94    0.46
   5  -4  -5   15.66    0.46
  -5  -4   5   15.73    0.39
   5  -4  -5   15.86    0.48
   5  -4  -5   14.77    0.40
   5   4  -5   15.62    0.44
  -5   4   5   15.58    0.33
   5   4  -5   15.27    0.45
   5   4  -5   15.44    0.50
  -4  -4   5    0.29    0.08
   4  -4  -5    0.27    0.08
   4  -4  -5    0.61    0.12
  -4  -4   5    0.45    0.09
   4  -4  -5    0.44    0.07
   4  -4  -5    0.52    0.12
   4   4  -5    0.28    0.09
   4   4  -5    0.46    0.09
   4   4  -5    0.44    0.09
   4   4  -5    0.69    0.14
  -4   4   5    0.50    0.08
   3  -4  -5    9.87    0.35
   3  -4  -5   10.21    0.37
   3  -4  -5    9.93    0.34
  -3  -4   5   10.48    0.37
  -3  -4   5   10.57    0.32
  -3   4   5    8.96    0.31
   3   4  -5   11.00    0.34
   3   4  -5   10.49    0.28
  -3   4   5   10.42    0.28
   3   4  -5   10.42    0.39
  -2  -4   5   49.11    0.86
   2  -4  -5   48.48    0.95
   2  -4  -5   46.42    0.92
  -2  -4   5   47.75    0.91
   2  -4  -5   48.61    0.90
   2   4  -5   46.29    0.97
  -2   4   5   48.61    0.79
   2   4  -5   48.23    0.89
   2   4  -5   48.81    0.71
  -2   4   5   49.44    0.84
  -2   4   5   48.57    0.87
   1  -4  -5   28.28    0.67
  -1  -4   5   28.68    0.55
   1  -4  -5   27.71    0.67
   1  -4  -5   28.32    0.62
  -1  -4   5   28.86    0.62
  -1   4   5   28.33    0.59
   1   4  -5   26.84    0.71
   1   4  -5   27.96    0.64
  -1   4   5   28.19    0.59
  -1   4   5   29.21    0.60
   0  -4  -5   27.61    0.67
   0  -4   5   27.91    0.83
   0  -4   5   28.29    0.55
   0  -4   5   27.22    0.60
   0  -4  -5   27.66    0.61
   0   4   5   26.93    0.57
   0   4  -5   26.89    0.65
   0   4   5   27.79    0.64
   0   4   5   29.09    0.83
   0   4   5   26.98    0.61
   1  -4   5    0.13    0.06
  -1  -4  -5    0.07    0.07
   1  -4   5    0.03    0.06
   1  -4   5    0.01    0.04
   1   4   5    0.00    0.05
   1   4   5    0.03    0.05
   1   4   5    0.07    0.07
  -1   4  -5    0.06    0.06
  -2  -4  -5    1.79    0.15
  -2  -4  -5    1.70    0.16
  -2  -4  -5    1.91    0.13
   2  -4   5    1.92    0.18
   2  -4   5    1.75    0.13
   2  -4   5    1.86    0.14
  -2   4  -5    1.76    0.17
   2   4   5    1.89    0.17
   2   4   5    1.73    0.13
   2   4   5    1.79    0.18
   3  -4   5    6.81    0.25
   3  -4   5    7.37    0.34
  -3  -4  -5    7.52    0.37
  -3  -4  -5    7.20    0.32
   3  -4   5    7.13    0.28
  -3  -4  -5    7.43    0.25
   3   4   5    6.95    0.33
   3   4   5    6.81    0.34
   3   4   5    6.83    0.37
   3   4   5    7.35    0.24
  -3   4  -5    7.60    0.35
   4  -4   5    0.46    0.11
   4  -4   5    0.51    0.12
  -4  -4  -5    0.65    0.10
   4  -4   5    0.65    0.10
  -4  -4  -5    0.54    0.14
   4  -4   5    0.63    0.10
   4   4   5    0.63    0.09
   4   4   5    0.65    0.17
   4   4   5    0.65    0.15
   5  -4   5    1.05    0.13
   5  -4   5    0.94    0.15
   5  -4   5    0.86    0.18
  -5  -4  -5    1.01    0.10
  -5  -4  -5    0.97    0.15
   5  -4   5    0.90    0.10
   5  -4   5    0.75    0.14
   5  -4   5    1.19    0.23
   5   4   5    0.73    0.15
   5   4   5    0.89    0.18
  -8  -5   5    0.81    0.12
   8  -5  -5    0.66    0.15
  -8  -5   5    0.71    0.10
   8  -5  -5    0.63    0.13
   8  -5  -5    0.37    0.10
   8   5  -5    0.62    0.17
   8   5  -5    0.39    0.16
   8   5  -5    0.55    0.13
   7  -5  -5    3.99    0.28
  -7  -5   5    3.57    0.19
  -7  -5   5    3.13    0.25
   7  -5  -5    3.36    0.24
   7  -5  -5    3.55    0.23
   7  -5  -5    3.67    0.24
  -7  -5   5    3.65    0.23
   7   5  -5    3.54    0.26
   7   5  -5    4.10    0.29
   7   5  -5    3.16    0.23
  -6  -5   5    0.67    0.13
  -6  -5   5    0.82    0.17
   6  -5  -5    0.77    0.15
   6  -5  -5    0.75    0.14
   6  -5  -5    0.62    0.12
   6   5  -5    0.47    0.13
  -6   5   5    0.52    0.11
   6   5  -5    0.64    0.13
   6   5  -5    0.44    0.09
  -6   5   5    0.45    0.08
  -5  -5   5    0.56    0.15
  -5  -5   5    0.57    0.11
   5  -5  -5    0.66    0.13
   5  -5  -5    0.69    0.14
   5  -5  -5    0.48    0.12
   5  -5  -5    0.51    0.12
  -5   5   5    0.52    0.10
   5   5  -5    0.53    0.11
  -5   5   5    0.55    0.14
   5   5  -5    0.60    0.14
   5   5  -5    0.57    0.12
   4  -5  -5    3.89    0.23
   4  -5  -5    3.72    0.24
  -4  -5   5    3.99    0.25
   4  -5  -5    3.90    0.24
   4  -5  -5    4.09    0.25
  -4  -5   5    4.08    0.22
   4   5  -5    3.95    0.26
   4   5  -5    3.84    0.20
  -4   5   5    4.19    0.22
  -3  -5   5    3.38    0.19
   3  -5  -5    3.29    0.22
  -3  -5   5    3.47    0.24
   3  -5  -5    3.53    0.22
   3  -5  -5    3.65    0.24
   3   5  -5    3.57    0.16
   3   5  -5    3.60    0.21
  -3   5   5    3.52    0.21
   3   5  -5    3.34    0.24
  -3   5   5    3.65    0.18
  -3   5   5    3.35    0.10
  -2  -5   5    0.24    0.09
   2  -5  -5    0.16    0.08
   2  -5  -5    0.31    0.10
   2  -5  -5    0.27    0.08
  -2  -5   5    0.24    0.08
  -2   5   5    0.39    0.10
  -2   5   5    0.28    0.06
   2   5  -5    0.28    0.09
  -2   5   5    0.21    0.07
   2   5  -5    0.33    0.10
   1  -5  -5    1.73    0.16
   1  -5  -5    1.95    0.18
  -1  -5   5    2.18    0.17
   1  -5  -5    1.83    0.18
  -1  -5   5    2.09    0.18
  -1   5   5    1.97    0.14
  -1   5   5    2.02    0.16
   1   5  -5    1.98    0.17
   1   5  -5    2.18    0.25
   0  -5  -5   22.29    0.57
   0  -5  -5   21.60    0.62
   0  -5  -5   19.85    0.61
   0  -5   5   22.10    0.47
   0  -5   5   22.99    0.57
   0  -5   5   21.54    0.57
   0   5   5   21.45    0.58
   0   5   5   21.04    0.53
   0   5  -5   21.90    0.58
   0   5   5   21.18    0.52
   0   5   5   21.79    0.56
  -1  -5  -5   22.03    0.63
  -1  -5  -5   21.53    0.55
   1  -5   5   22.42    0.58
  -1  -5  -5   22.26    0.56
   1  -5   5   21.92    0.56
   1  -5   5   21.43    0.47
  -1  -5  -5   18.47    0.84
   1   5   5   22.04    0.52
   1   5   5   22.16    0.62
   1   5   5   22.66    0.61
   1   5   5   22.41    0.61
  -1   5  -5   22.04    0.60
  -2  -5  -5    0.69    0.12
   2  -5   5    0.43    0.09
   2  -5   5    0.46    0.12
  -2  -5  -5    0.45    0.12
   2  -5   5    0.53    0.12
  -2  -5  -5    0.73    0.13
  -2  -5  -5    0.62    0.14
   2   5   5    0.56    0.13
   2   5   5    0.46    0.12
   2   5   5    0.51    0.13
   2   5   5    0.48    0.11
  -2   5  -5    0.57    0.13
  -3  -5  -5    0.17    0.08
   3  -5   5    0.03    0.07
   3  -5   5    0.03    0.05
   3  -5   5    0.10    0.06
  -3  -5  -5    0.05    0.08
  -3  -5  -5    0.10    0.06
   3   5   5    0.08    0.06
   3   5   5    0.09    0.09
   3   5   5    0.00    0.07
  -3   5  -5   -0.08    0.07
   4  -5   5   15.97    0.54
  -4  -5  -5   16.95    0.54
  -4  -5  -5   16.00    0.45
   4  -5   5   16.52    0.44
   4  -5   5   16.49    0.66
   4  -5   5   15.84    0.45
   4   5   5   16.55    0.41
   4   5   5   16.08    0.58
   4   5   5   17.08    0.66
   6  -6  -5    6.07    0.38
   6  -6  -5    6.52    0.34
   6  -6  -5    5.97    0.35
  -6  -6   5    6.46    0.28
   6  -6  -5    7.42    0.36
  -6  -6   5    6.55    0.32
   6   6  -5    6.81    0.33
  -6   6   5    6.52    0.28
   5  -6  -5    0.74    0.17
   5  -6  -5    0.48    0.11
  -5  -6   5    0.56    0.12
   5  -6  -5    0.77    0.15
   5  -6  -5    0.59    0.13
  -5  -6   5    1.12    0.17
   5   6  -5    0.67    0.14
   5   6  -5    0.82    0.14
  -5   6   5    0.68    0.13
   5   6  -5    0.65    0.15
  -4  -6   5    2.44    0.23
   4  -6  -5    2.62    0.21
   4  -6  -5    2.44    0.20
  -4  -6   5    2.41    0.19
   4  -6  -5    2.98    0.23
   4   6  -5    2.27    0.15
   4   6  -5    2.25    0.19
   4   6  -5    2.53    0.23
   3  -6  -5    9.17    0.40
   3  -6  -5    9.23    0.37
   3  -6  -5    8.37    0.38
  -3  -6   5    9.17    0.34
  -3  -6   5    8.28    0.39
   3   6  -5    8.83    0.24
  -3   6   5    8.53    0.36
   3   6  -5    8.99    0.42
   3   6  -5    8.36    0.34
   2  -6  -5    1.66    0.17
  -2  -6   5    1.58    0.17
   2  -6  -5    1.66    0.19
  -2  -6   5    1.47    0.16
   2  -6  -5    1.57    0.17
  -2   6   5    1.50    0.14
   2   6  -5    1.40    0.19
  -2   6   5    1.40    0.16
  -1  -6   5    0.46    0.17
   1  -6  -5    0.24    0.07
  -1  -6   5    0.41    0.11
   1  -6  -5    0.60    0.14
   1  -6  -5    0.15    0.09
   1   6  -5    0.36    0.13
  -1   6   5    0.27    0.15
   1   6  -5    0.26    0.10
  -1   6   5    0.40    0.11
  -1   6   5    0.35    0.09
   0  -6   5    0.80    0.14
   0  -6   5    1.08    0.15
   0  -6  -5    0.78    0.13
   0  -6  -5    0.99    0.20
   0  -6  -5    1.07    0.18
   0   6   5    1.02    0.13
   0   6  -5    1.24    0.28
   0   6   5    0.78    0.15
   0   6  -5    1.02    0.17
   0   6   5    0.66    0.13
  -1  -6  -5    0.07    0.07
   1  -6   5    0.05    0.08
  -1  -6  -5    0.03    0.07
   1  -6   5    0.10    0.08
  -1  -6  -5   -0.03    0.07
   1  -6   5    0.01    0.07
  -1   6  -5    0.03    0.08
   1   6   5   -0.03    0.07
   1   6   5    0.11    0.07
   1   6   5    0.07    0.07
  -2  -6  -5    0.45    0.10
   2  -6   5    0.68    0.18
  -2  -6  -5    0.54    0.13
  -2  -6  -5    0.43    0.13
   2  -6   5    0.61    0.13
   2  -6   5    0.41    0.08
   2  -6   5    0.39    0.16
   2   6   5    0.35    0.16
   2   6   5    0.48    0.13
   2   6   5    0.63    0.16
  -2   6  -5    0.52    0.12
  -4  -7   5    0.25    0.10
   4  -7  -5    0.32    0.11
  -4  -7   5    0.16    0.11
   4   7  -5    0.20    0.08
  -4   7   5    0.22    0.12
   4   7  -5    0.09    0.11
  -3  -7   5    0.04    0.09
  -3  -7   5    0.02    0.07
   3  -7  -5   -0.01    0.09
   3  -7  -5    0.13    0.09
   3   7  -5   -0.16    0.07
  -3   7   5   -0.17    0.07
   2  -7  -5    0.82    0.20
  -2  -7   5    0.67    0.13
   2  -7  -5    0.58    0.14
   2   7  -5    0.61    0.13
  -1  -7   5    0.16    0.10
   1  -7  -5    0.01    0.09
  -1  -7   5   -0.09    0.07
   1  -7  -5    0.09    0.09
  -1   7   5   -0.02    0.04
   0  -7  -5    2.35    0.24
   0  -7   5    1.92    0.20
   0  -7  -5    2.17    0.21
   0  -7   5    2.33    0.20
   0   7   5    2.00    0.17
  10   0  -6    3.22    0.30
  10   0  -6    3.59    0.29
  10   0  -6    3.53    0.22
 -10   0   6    3.73    0.18
   9   0  -6   37.02    0.76
   9   0  -6   36.74    0.91
  -9   0   6   38.06    0.89
  -9   0   6   37.79    0.68
   9   0  -6   37.71    0.90
  -8   0   6    6.28    0.22
  -8   0   6    6.15    0.23
   8   0  -6    6.40    0.26
   8   0  -6    6.88    0.34
  -7   0   6    5.84    0.23
   7   0  -6    5.90    0.24
   7   0  -6    6.06    0.30
  -6   0   6   63.63    1.14
   6   0  -6   65.68    1.07
  -6   0   6   66.12    1.05
   6   0  -6   64.41    1.15
  -6   0   6   65.71    1.09
   6   0  -6   65.04    1.17
  -5   0   6  178.02    2.45
  -5   0   6  179.69    2.54
  -5   0   6  177.93    2.51
  -5   0   6  178.60    2.29
   5   0  -6  180.49    2.47
   5   0  -6  180.29    2.56
   5   0  -6  180.33    2.55
  -4   0   6    0.21    0.07
  -4   0   6    0.17    0.05
  -4   0   6    0.13    0.05
   4   0  -6    0.02    0.05
  -4   0   6    0.19    0.07
  -4   0   6    0.09    0.04
   4   0  -6    0.21    0.07
   3   0  -6   39.30    0.77
   3   0  -6   40.56    0.78
  -3   0   6   39.60    0.77
  -3   0   6   40.52    0.71
   3   0  -6   41.82    0.73
  -3   0   6   38.63    0.72
  -3   0   6   39.28    0.74
  -3   0   6   41.00    0.70
  -2   0   6   59.17    1.00
   2   0  -6   59.93    1.02
  -2   0   6   59.49    1.03
   2   0  -6   59.33    0.94
  -2   0   6   59.51    0.91
   2   0  -6   60.29    0.93
  -2   0   6   59.90    0.97
   1   0  -6   11.27    0.26
  -1   0   6   11.16    0.35
  -1   0   6   11.16    0.25
   1   0  -6   11.24    0.31
   1   0  -6   11.02    0.33
   1   0  -6   11.90    0.39
  -1   0   6   10.93    0.34
  -1   0   6   10.48    0.33
   0   0  -6    1.47    0.12
   0   0  -6    1.46    0.07
   0   0   6    1.47    0.13
   0   0  -6    1.04    0.13
   0   0  -6    1.29    0.11
   0   0   6    1.39    0.13
   0   0   6    1.63    0.14
   1   0   6  152.67    2.24
   1   0   6  159.59    2.34
  -1   0  -6  154.97    2.40
   1   0   6  159.13    2.14
   1   0   6  156.50    2.22
  -1   0  -6  157.43    2.21
   2   0   6  303.68    3.95
   2   0   6  300.61    4.13
  -2   0  -6  304.22    4.01
   2   0   6  300.49    4.03
   3   0   6    4.66    0.29
   3   0   6    4.62    0.23
   3   0   6    4.65    0.21
   3   0   6    4.66    0.22
  -3   0  -6    4.42    0.22
  -4   0  -6    2.70    0.19
   4   0   6    2.68    0.17
   4   0   6    2.83    0.18
   4   0   6    2.67    0.18
   4   0   6    2.59    0.24
  -5   0  -6   26.18    0.66
   5   0   6   27.42    0.66
   5   0   6   25.68    0.62
   5   0   6   27.15    0.82
   5   0   6   26.71    0.57
 -10  -1   6    3.00    0.14
  10  -1  -6    2.60    0.19
  10  -1  -6    2.47    0.24
  10  -1  -6    3.02    0.26
  10   1  -6    3.48    0.28
  10   1  -6    2.67    0.25
 -10   1   6    2.97    0.18
  -9  -1   6   17.28    0.57
   9  -1  -6   16.86    0.47
   9  -1  -6   16.03    0.44
   9  -1  -6   16.78    0.58
  -9  -1   6   17.12    0.39
  -9  -1   6   16.09    0.38
  -9   1   6   16.58    0.42
   9   1  -6   17.27    0.57
   9   1  -6   17.45    0.59
   9   1  -6   16.64    0.47
  -8  -1   6   31.59    0.60
  -8  -1   6   32.08    0.66
  -8  -1   6   31.06    0.82
   8  -1  -6   31.54    0.64
   8  -1  -6   32.14    0.70
   8  -1  -6   32.46    0.80
  -8   1   6   31.79    0.63
   8   1  -6   32.14    0.78
   8   1  -6   32.57    0.81
   8   1  -6   31.70    0.68
   7  -1  -6    5.13    0.26
   7  -1  -6    4.73    0.24
  -7  -1   6    5.18    0.21
   7  -1  -6    4.68    0.27
   7  -1  -6    5.10    0.22
   7   1  -6    5.18    0.23
   7   1  -6    5.12    0.28
  -7   1   6    4.55    0.21
  -7   1   6    4.76    0.19
   6  -1  -6    6.27    0.28
  -6  -1   6    5.54    0.27
   6  -1  -6    5.79    0.26
  -6  -1   6    6.01    0.27
  -6  -1   6    5.66    0.15
  -6  -1   6    5.95    0.23
   6  -1  -6    5.89    0.23
   6  -1  -6    6.17    0.28
   6   1  -6    5.44    0.23
  -6   1   6    5.93    0.27
  -6   1   6    5.53    0.22
  -6   1   6    5.08    0.22
   6   1  -6    6.13    0.29
  -5  -1   6   18.04    0.44
   5  -1  -6   18.57    0.44
   5  -1  -6   18.96    0.49
   5  -1  -6   18.13    0.49
  -5  -1   6   18.14    0.48
   5  -1  -6   17.78    0.47
  -5  -1   6   17.78    0.35
  -5   1   6   18.09    0.47
  -5   1   6   17.53    0.48
  -5   1   6   18.28    0.45
   5   1  -6   18.54    0.50
   5   1  -6   18.71    0.45
   4  -1  -6    3.57    0.20
   4  -1  -6    3.85    0.20
  -4  -1   6    3.70    0.17
   4  -1  -6    3.74    0.21
  -4  -1   6    3.69    0.21
   4  -1  -6    3.60    0.19
  -4  -1   6    3.37    0.18
  -4  -1   6    3.53    0.19
  -4  -1   6    3.76    0.16
  -4   1   6    3.84    0.16
   4   1  -6    3.76    0.20
  -4   1   6    3.68    0.19
  -4   1   6    3.50    0.19
   4   1  -6    3.86    0.25
   3  -1  -6    1.68    0.14
  -3  -1   6    1.83    0.13
  -3  -1   6    1.76    0.12
   3  -1  -6    1.85    0.13
   3  -1  -6    1.91    0.14
   3  -1  -6    1.82    0.15
  -3  -1   6    1.75    0.14
   3  -1  -6    1.80    0.12
  -3  -1   6    1.75    0.12
  -3  -1   6    1.76    0.13
  -3   1   6    1.75    0.12
   3   1  -6    1.91    0.15
  -3   1   6    1.62    0.13
  -3   1   6    1.84    0.13
   3   1  -6    1.90    0.13
   2  -1  -6    0.53    0.09
  -2  -1   6    0.62    0.10
  -2  -1   6    0.82    0.13
  -2  -1   6    0.71    0.08
  -2  -1   6    0.62    0.10
  -2  -1   6    0.65    0.11
   2  -1  -6    0.53    0.11
   2  -1  -6    0.66    0.11
   2  -1  -6    0.59    0.09
   2  -1  -6    0.70    0.12
   2   1  -6    0.61    0.09
   2   1  -6    0.96    0.14
  -2   1   6    0.54    0.10
   2   1  -6    0.60    0.07
  -2   1   6    0.67    0.10
  -2   1   6    0.52    0.09
   1  -1  -6   49.10    0.83
  -1  -1   6   49.60    0.76
   1  -1  -6   50.75    0.91
   1  -1  -6   48.15    0.86
  -1  -1   6   48.45    0.93
   1  -1  -6   48.63    0.96
  -1  -1   6   48.37    0.86
  -1  -1   6   48.86    0.89
  -1   1   6   50.22    0.90
   1   1  -6   50.44    0.79
  -1   1   6   49.23    0.91
  -1   1   6   50.04    0.86
   1   1  -6   48.44    0.97
   0  -1   6    2.86    0.18
   0  -1  -6    3.09    0.18
   0  -1  -6    3.25    0.22
   0  -1   6    3.00    0.18
   0  -1  -6    2.85    0.10
   0  -1  -6    2.85    0.17
   0  -1   6    2.99    0.23
   0  -1   6    2.93    0.21
   0  -1   6    2.97    0.11
   0   1   6    2.81    0.16
   0   1  -6    2.94    0.14
   0   1   6    3.12    0.20
   0   1   6    2.95    0.21
   0   1  -6    3.05    0.21
   1  -1   6    2.61    0.17
   1  -1   6    2.56    0.21
  -1  -1  -6    2.61    0.16
  -1  -1  -6    2.53    0.21
   1  -1   6    2.70    0.18
   1  -1   6    2.96    0.20
  -1  -1  -6    2.72    0.18
   1   1   6    2.57    0.20
   1   1   6    2.74    0.16
  -1   1  -6    2.97    0.15
  -1   1  -6    2.82    0.22
   1   1   6    2.70    0.18
   1   1   6    2.95    0.17
   2  -1   6    0.18    0.08
  -2  -1  -6    0.30    0.09
  -2  -1  -6    0.25    0.07
   2  -1   6    0.34    0.07
   2  -1   6    0.38    0.10
   2  -1   6    0.27    0.12
   2  -1   6    0.44    0.13
   2   1   6    0.41    0.10
  -2   1  -6    0.43    0.09
   2   1   6    0.27    0.10
   2   1   6    0.31    0.08
   2   1   6    0.20    0.08
  -2   1  -6    0.28    0.10
   3  -1   6    1.42    0.11
   3  -1   6    1.50    0.14
   3  -1   6    1.65    0.15
   3  -1   6    1.18    0.18
  -3  -1  -6    1.51    0.16
   3  -1   6    1.71    0.18
   3   1   6    1.47    0.15
   3   1   6    1.32    0.13
   3   1   6    1.50    0.18
   3   1   6    1.31    0.13
  -3   1  -6    1.54    0.12
  -4  -1  -6    0.68    0.15
   4  -1   6    0.98    0.15
   4  -1   6    0.64    0.11
   4  -1   6    0.59    0.10
   4  -1   6    0.64    0.15
   4  -1   6    0.54    0.14
  -4   1  -6    0.67    0.12
   4   1   6    0.51    0.14
   4   1   6    0.62    0.14
   4   1   6    0.52    0.12
   4   1   6    0.64    0.12
  -5  -1  -6    0.01    0.09
   5  -1   6    0.00    0.08
   5  -1   6   -0.03    0.06
   5  -1   6    0.08    0.08
   5  -1   6    0.04    0.08
   5  -1   6   -0.03    0.04
   5   1   6   -0.03    0.09
   5   1   6    0.07    0.06
   5   1   6    0.00    0.05
   5   1   6    0.06    0.07
  10  -2  -6    0.38    0.14
  10  -2  -6    0.33    0.10
  10  -2  -6    0.30    0.10
  10  -2  -6    0.14    0.08
 -10   2   6    0.37    0.10
  10   2  -6    0.28    0.13
  10   2  -6    0.29    0.14
  -9  -2   6    0.04    0.05
  -9  -2   6    0.19    0.07
   9  -2  -6    0.16    0.11
   9  -2  -6    0.06    0.07
   9  -2  -6    0.05    0.06
   9  -2  -6    0.19    0.07
   9   2  -6    0.16    0.10
   9   2  -6    0.02    0.08
  -8  -2   6    0.42    0.10
  -8  -2   6    0.44    0.12
   8  -2  -6    0.49    0.12
   8  -2  -6    0.36    0.09
   8  -2  -6    0.50    0.10
  -8  -2   6    0.51    0.09
   8  -2  -6    0.62    0.13
   8   2  -6    0.41    0.12
   8   2  -6    0.34    0.09
   8   2  -6    0.44    0.13
   7  -2  -6    0.37    0.08
   7  -2  -6    0.43    0.11
  -7  -2   6    0.44    0.07
  -7  -2   6    0.48    0.09
  -7  -2   6    0.30    0.09
   7  -2  -6    0.26    0.09
   7  -2  -6    0.28    0.08
   7   2  -6    0.46    0.11
  -7   2   6    0.25    0.08
   7   2  -6    0.33    0.08
   7   2  -6    0.41    0.13
   7   2  -6    0.44    0.10
  -6  -2   6    7.86    0.21
   6  -2  -6    8.09    0.32
  -6  -2   6    7.67    0.32
   6  -2  -6    7.66    0.30
   6  -2  -6    7.66    0.26
  -6  -2   6    7.69    0.27
  -6  -2   6    8.02    0.33
   6   2  -6    8.01    0.29
   6   2  -6    7.88    0.31
  -6   2   6    7.78    0.28
  -6   2   6    7.46    0.24
   6   2  -6    6.99    0.26
   5  -2  -6   63.75    1.14
  -5  -2   6   64.20    1.15
   5  -2  -6   64.51    1.12
   5  -2  -6   63.98    1.13
  -5  -2   6   64.97    1.14
   5  -2  -6   63.36    1.04
  -5  -2   6   62.71    1.08
  -5  -2   6   65.29    0.96
  -5   2   6   64.45    1.05
  -5   2   6   64.47    1.06
   5   2  -6   63.27    1.08
   5   2  -6   65.29    1.16
   4  -2  -6   45.17    0.84
  -4  -2   6   44.99    0.95
  -4  -2   6   43.94    0.75
  -4  -2   6   43.37    0.87
   4  -2  -6   44.75    0.88
   4  -2  -6   44.16    0.81
   4   2  -6   44.70    0.86
  -4   2   6   43.71    0.81
  -4   2   6   43.95    0.80
  -4   2   6   44.01    0.71
   4   2  -6   45.85    0.84
  -4   2   6   44.80    0.72
  -3  -2   6   14.13    0.39
   3  -2  -6   13.56    0.40
   3  -2  -6   14.39    0.38
  -3  -2   6   14.43    0.37
   3  -2  -6   13.86    0.42
  -3  -2   6   15.38    0.54
  -3  -2   6   14.32    0.36
   3  -2  -6   12.72    0.37
   3  -2  -6   14.14    0.41
  -3  -2   6   14.06    0.42
   3   2  -6   14.39    0.40
   3   2  -6   13.68    0.40
  -3   2   6   13.78    0.42
  -3   2   6   13.95    0.34
  -3   2   6   14.06    0.37
  -2  -2   6    4.95    0.21
   2  -2  -6    4.86    0.20
   2  -2  -6    5.18    0.25
   2  -2  -6    5.15    0.27
   2  -2  -6    4.92    0.24
  -2  -2   6    5.40    0.24
   2  -2  -6    4.81    0.23
  -2  -2   6    4.83    0.20
  -2  -2   6    5.32    0.32
   2   2  -6    4.93    0.24
  -2   2   6    5.07    0.23
  -2   2   6    4.85    0.21
  -2   2   6    5.11    0.22
   2   2  -6    5.05    0.21
   2   2  -6    4.94    0.16
   1  -2  -6   39.65    0.80
   1  -2  -6   39.07    0.82
   1  -2  -6   40.25    0.67
  -1  -2   6   38.95    0.80
   1  -2  -6   38.95    0.77
  -1  -2   6   39.47    0.68
  -1  -2   6   39.74    0.73
   1  -2  -6   37.88    0.77
  -1  -2   6   39.85    0.80
  -1   2   6   38.02    0.77
   1   2  -6   38.01    0.82
   1   2  -6   39.01    0.61
  -1   2   6   40.23    0.78
   0  -2  -6    0.17    0.07
   0  -2   6    0.35    0.09
   0  -2   6    0.35    0.09
   0  -2   6    0.34    0.08
   0  -2  -6    0.37    0.09
   0  -2  -6    0.21    0.08
   0  -2  -6    0.33    0.08
   0  -2  -6    0.35    0.09
   0  -2   6    0.30    0.06
   0   2   6    0.34    0.11
   0   2   6    0.34    0.08
   0   2  -6    0.33    0.09
   0   2   6    0.29    0.09
   0   2  -6    0.47    0.05
   0   2   6    0.30    0.08
  -1  -2  -6   42.07    0.62
   1  -2   6   41.57    0.81
  -1  -2  -6   40.77    0.86
   1  -2   6   41.56    0.91
  -1  -2  -6   41.81    0.62
   1  -2   6   42.10    0.64
   1  -2   6   42.35    0.84
  -1  -2  -6   42.23    0.82
  -1   2  -6   43.03    0.94
   1   2   6   43.11    0.92
   1   2   6   42.71    0.86
   1   2   6   43.65    0.83
  -1   2  -6   42.45    0.65
   1   2   6   40.65    0.83
  -2  -2  -6   14.23    0.47
   2  -2   6   14.71    0.51
  -2  -2  -6   14.33    0.41
   2  -2   6   14.45    0.43
   2   2   6   14.74    0.50
   2   2   6   13.85    0.43
  -2   2  -6   14.43    0.30
   2   2   6   15.75    0.53
   2   2   6   13.77    0.43
   3  -2   6    0.71    0.07
  -3  -2  -6    0.88    0.17
  -3  -2  -6    0.60    0.09
   3  -2   6    0.59    0.14
   3  -2   6    0.69    0.13
   3  -2   6    0.67    0.16
   3   2   6    0.61    0.15
   3   2   6    0.80    0.11
   3   2   6    0.80    0.15
  -3   2  -6    0.61    0.16
   3   2   6    0.54    0.11
  -4  -2  -6    3.31    0.26
   4  -2   6    3.42    0.15
   4  -2   6    3.71    0.29
   4  -2   6    3.44    0.20
   4  -2   6    3.65    0.26
   4   2   6    3.80    0.17
   4   2   6    3.12    0.21
   4   2   6    3.41    0.23
   4   2   6    3.25    0.28
   5  -2   6    1.21    0.22
   5  -2   6    0.86    0.10
   5  -2   6    1.07    0.14
   5  -2   6    1.17    0.20
   5   2   6    1.07    0.19
   5   2   6    0.94    0.10
   5   2   6    1.37    0.25
   5   2   6    1.14    0.18
   9  -3  -6    0.07    0.06
  -9  -3   6    0.15    0.06
   9  -3  -6   -0.02    0.13
   9  -3  -6    0.07    0.07
   9  -3  -6    0.07    0.07
  -9   3   6    0.12    0.09
   9   3  -6   -0.09    0.18
   9   3  -6    0.15    0.07
   9   3  -6   -0.01    0.08
   8  -3  -6    4.92    0.30
   8  -3  -6    4.30    0.26
  -8  -3   6    4.45    0.19
   8  -3  -6    4.63    0.26
   8  -3  -6    4.40    0.20
  -8  -3   6    4.57    0.29
   8   3  -6    4.41    0.22
  -8   3   6    4.08    0.23
   8   3  -6    4.40    0.25
   8   3  -6    4.35    0.28
   8   3  -6    4.31    0.30
   7  -3  -6    2.77    0.15
   7  -3  -6    2.76    0.22
  -7  -3   6    2.46    0.26
   7  -3  -6    2.77    0.20
  -7  -3   6    2.66    0.17
  -7  -3   6    2.79    0.16
   7  -3  -6    2.16    0.22
   7   3  -6    2.51    0.22
  -7   3   6    2.37    0.18
   7   3  -6    2.61    0.18
   7   3  -6    2.71    0.29
   7   3  -6    2.73    0.21
   6  -3  -6    4.40    0.24
  -6  -3   6    4.22    0.18
  -6  -3   6    4.60    0.22
  -6  -3   6    4.71    0.27
   6  -3  -6    4.08    0.19
   6  -3  -6    4.41    0.24
   6   3  -6    4.79    0.25
   6   3  -6    4.06    0.22
   6   3  -6    5.68    0.30
  -5  -3   6   57.25    1.12
  -5  -3   6   62.33    0.97
   5  -3  -6   61.13    1.00
   5  -3  -6   60.26    1.12
   5  -3  -6   60.17    1.13
  -5  -3   6   62.54    1.14
  -5  -3   6   61.83    1.08
   5   3  -6   62.92    1.06
  -5   3   6   63.25    1.00
   5   3  -6   60.20    1.09
  -5   3   6   55.58    1.03
   5   3  -6   65.05    1.23
  -5   3   6   63.01    0.87
   4  -3  -6   25.15    0.56
  -4  -3   6   26.01    0.62
   4  -3  -6   26.26    0.61
   4  -3  -6   24.60    0.60
   4  -3  -6   25.15    0.63
  -4  -3   6   26.21    0.53
  -4   3   6   25.59    0.47
   4   3  -6   25.45    0.59
   4   3  -6   25.26    0.53
  -4   3   6   25.27    0.46
   4   3  -6   25.84    0.62
  -3  -3   6   64.12    1.02
   3  -3  -6   63.75    1.15
   3  -3  -6   63.06    1.10
  -3  -3   6   63.73    1.10
  -3  -3   6   62.28    1.14
  -3  -3   6   62.80    1.04
   3  -3  -6   63.63    1.08
   3  -3  -6   63.10    1.08
   3   3  -6   60.02    1.15
  -3   3   6   62.52    0.99
  -3   3   6   62.25    1.07
  -3   3   6   62.83    0.97
  -3   3   6   63.07    1.06
   3   3  -6   61.63    1.10
   3   3  -6   64.15    1.11
   3   3  -6   64.85    0.96
   2  -3  -6   63.41    1.06
   2  -3  -6   65.33    1.17
  -2  -3   6   66.34    1.11
  -2  -3   6   65.02    1.09
   2  -3  -6   64.27    1.13
  -2  -3   6   66.74    1.04
  -2  -3   6   63.93    1.15
   2  -3  -6   65.61    1.13
  -2   3   6   64.86    1.07
  -2   3   6   64.98    1.12
   2   3  -6   64.42    0.92
  -2   3   6   64.41    1.07
   2   3  -6   62.88    1.14
  -2   3   6   65.93    1.05
  -1  -3   6    2.73    0.19
   1  -3  -6    2.46    0.18
   1  -3  -6    2.34    0.18
   1  -3  -6    2.74    0.15
  -1  -3   6    2.60    0.16
  -1  -3   6    2.88    0.16
   1  -3  -6    2.72    0.19
   1  -3  -6    2.83    0.20
  -1  -3   6    2.69    0.19
  -1   3   6    2.85    0.18
  -1   3   6    2.52    0.16
  -1   3   6    2.75    0.18
  -1   3   6    2.08    0.17
   1   3  -6    2.68    0.20
   0  -3  -6   51.12    0.84
   0  -3  -6   51.92    1.00
   0  -3   6   50.55    0.90
   0  -3  -6   49.70    0.94
   0  -3   6   51.18    0.95
   0  -3  -6   50.75    1.01
   0  -3   6   54.03    1.08
   0  -3   6   50.84    0.86
   0   3   6   50.38    0.99
   0   3   6   50.83    0.89
   0   3  -6   51.93    1.04
   0   3   6   51.29    0.95
  -1  -3  -6   19.47    0.51
  -1  -3  -6   20.19    0.41
   1  -3   6   19.86    0.58
   1  -3   6   20.19    0.43
   1  -3   6   20.13    0.50
  -1  -3  -6   19.27    0.54
   1  -3   6   19.79    0.51
   1   3   6   19.69    0.58
  -1   3  -6   20.82    0.61
   1   3   6   20.48    0.54
   1   3   6   19.85    0.46
   1   3   6   19.26    0.53
  -2  -3  -6   31.74    0.71
  -2  -3  -6   31.59    0.53
   2  -3   6   31.46    0.55
   2  -3   6   32.48    0.71
  -2  -3  -6   30.72    0.77
  -2  -3  -6   30.90    0.53
   2  -3   6   30.67    0.67
   2  -3   6   31.90    0.79
   2   3   6   31.86    0.82
   2   3   6   30.25    0.71
   2   3   6   30.41    0.72
   2   3   6   31.93    0.62
  -3  -3  -6    4.15    0.22
   3  -3   6    4.09    0.28
   3  -3   6    3.85    0.24
  -3  -3  -6    3.81    0.26
   3  -3   6    3.76    0.21
   3   3   6    3.81    0.18
  -3   3  -6    3.50    0.27
   3   3   6    3.89    0.25
   3   3   6    3.72    0.29
   4  -3   6    1.05    0.17
   4  -3   6    1.11    0.21
  -4  -3  -6    1.06    0.12
   4  -3   6    1.00    0.14
   4   3   6    0.95    0.16
   4   3   6    1.11    0.12
   4   3   6    0.62    0.15
   8  -4  -6    2.74    0.21
   8  -4  -6    2.53    0.21
   8  -4  -6    2.70    0.13
  -8  -4   6    2.95    0.24
  -8  -4   6    2.94    0.17
  -8  -4   6    2.70    0.22
   8  -4  -6    2.74    0.25
   8   4  -6    3.06    0.25
   8   4  -6    2.60    0.20
  -8   4   6    2.99    0.21
   8   4  -6    2.81    0.27
  -7  -4   6    2.48    0.26
   7  -4  -6    2.31    0.12
   7  -4  -6    2.05    0.20
  -7  -4   6    2.78    0.23
   7  -4  -6    2.49    0.19
   7  -4  -6    2.63    0.21
  -7  -4   6    2.65    0.18
  -7  -4   6    2.34    0.17
   7   4  -6    2.17    0.19
   7   4  -6    2.23    0.19
   7   4  -6    2.52    0.23
   7   4  -6    2.51    0.21
  -7   4   6    2.27    0.19
  -6  -4   6   11.18    0.33
  -6  -4   6   10.45    0.42
   6  -4  -6   10.79    0.41
   6  -4  -6   10.80    0.42
   6  -4  -6   11.26    0.29
   6  -4  -6   10.64    0.39
  -6  -4   6   11.08    0.37
  -6  -4   6   10.87    0.55
   6  -4  -6   11.62    0.41
   6   4  -6   11.19    0.40
   6   4  -6   11.25    0.45
  -6   4   6   10.16    0.37
   6   4  -6   11.57    0.40
  -5  -4   6    4.76    0.21
   5  -4  -6    4.29    0.18
  -5  -4   6    4.59    0.27
   5  -4  -6    4.41    0.24
   5  -4  -6    4.44    0.26
   5  -4  -6    5.02    0.27
   5  -4  -6    4.72    0.26
  -5  -4   6    4.84    0.28
   5   4  -6    5.00    0.25
   5   4  -6    4.77    0.23
  -5   4   6    4.69    0.17
  -5   4   6    4.42    0.23
   5   4  -6    4.83    0.27
   5   4  -6    4.93    0.29
  -4  -4   6    5.76    0.24
   4  -4  -6    5.16    0.28
   4  -4  -6    5.70    0.28
   4  -4  -6    5.44    0.27
   4  -4  -6    5.55    0.28
  -4  -4   6    5.54    0.28
   4  -4  -6    5.53    0.22
   4   4  -6    5.24    0.29
  -4   4   6    5.64    0.20
   4   4  -6    5.99    0.30
  -4   4   6    5.56    0.17
   4   4  -6    5.66    0.23
   3  -4  -6   10.67    0.34
   3  -4  -6   11.23    0.38
  -3  -4   6   11.42    0.41
   3  -4  -6   11.10    0.41
   3  -4  -6   11.04    0.39
  -3  -4   6   11.31    0.40
  -3  -4   6   11.34    0.36
   3  -4  -6   10.81    0.39
  -3   4   6   11.20    0.36
   3   4  -6   11.07    0.43
  -3   4   6   11.19    0.28
   3   4  -6   11.30    0.28
   3   4  -6   10.79    0.38
  -2  -4   6    9.57    0.34
   2  -4  -6    9.18    0.35
   2  -4  -6    9.89    0.39
  -2  -4   6    9.53    0.30
   2  -4  -6    9.07    0.32
  -2  -4   6    9.24    0.34
  -2   4   6    9.73    0.33
   2   4  -6    8.79    0.39
   2   4  -6    8.96    0.35
  -2   4   6    9.39    0.31
  -2   4   6    9.55    0.29
  -1  -4   6    1.02    0.15
  -1  -4   6    0.95    0.11
   1  -4  -6    0.97    0.16
   1  -4  -6    1.02    0.21
  -1  -4   6    0.96    0.13
  -1   4   6    0.92    0.14
  -1   4   6    1.06    0.15
   1   4  -6    1.03    0.16
  -1   4   6    1.08    0.13
   0  -4   6    0.04    0.05
   0  -4   6    0.05    0.06
   0  -4  -6    0.07    0.06
   0  -4  -6    0.03    0.05
   0  -4   6   -0.03    0.05
   0  -4   6    0.08    0.07
   0   4   6    0.04    0.06
   0   4   6   -0.01    0.05
   0   4  -6    0.05    0.07
  -1  -4  -6    0.22    0.08
  -1  -4  -6    0.22    0.10
   1  -4   6    0.09    0.07
   1  -4   6    0.06    0.05
  -1  -4  -6    0.05    0.07
  -1  -4  -6   -0.02    0.04
   1  -4   6    0.09    0.06
   1   4   6    0.10    0.06
   1   4   6    0.15    0.09
  -1   4  -6    0.02    0.07
   1   4   6    0.11    0.07
   1   4   6    0.01    0.06
  -2  -4  -6    0.32    0.10
  -2  -4  -6    0.29    0.08
   2  -4   6    0.35    0.07
   2  -4   6    0.29    0.09
  -2  -4  -6    0.34    0.13
   2  -4   6    0.37    0.10
   2  -4   6    0.18    0.07
  -2  -4  -6    0.16    0.06
   2   4   6    0.23    0.08
   2   4   6    0.31    0.09
   2   4   6    0.27    0.10
   2   4   6    0.17    0.10
  -3  -4  -6    0.64    0.09
   3  -4   6    0.70    0.13
  -3  -4  -6    0.59    0.13
   3  -4   6    0.67    0.13
   3  -4   6    0.61    0.14
   3  -4   6    0.75    0.11
   3   4   6    0.43    0.12
   3   4   6    0.73    0.17
  -3   4  -6    0.64    0.15
   3   4   6    0.57    0.10
   4  -4   6    0.80    0.17
   4  -4   6    0.90    0.09
   4  -4   6    0.70    0.14
   4  -4   6    0.70    0.09
   4  -4   6    0.73    0.13
  -4  -4  -6    0.84    0.14
   4   4   6    0.82    0.19
   4   4   6    1.09    0.18
   4   4   6    1.03    0.13
   7  -5  -6    2.35    0.33
  -7  -5   6    3.16    0.21
   7  -5  -6    2.90    0.23
   7  -5  -6    2.74    0.22
   7   5  -6    2.93    0.24
   7   5  -6    2.54    0.27
   6  -5  -6    7.78    0.35
   6  -5  -6    7.79    0.36
  -6  -5   6    8.51    0.32
   6  -5  -6    8.54    0.39
   6  -5  -6    8.33    0.36
  -6  -5   6    8.16    0.46
   6   5  -6    7.60    0.35
  -6   5   6    8.27    0.26
   6   5  -6    7.90    0.34
   6   5  -6    8.10    0.37
   5  -5  -6    2.31    0.20
   5  -5  -6    2.27    0.19
   5  -5  -6    2.45    0.21
  -5  -5   6    2.31    0.17
   5  -5  -6    2.22    0.21
  -5  -5   6    2.07    0.20
  -5  -5   6    2.07    0.20
   5   5  -6    2.64    0.18
   5   5  -6    2.05    0.20
  -5   5   6    2.26    0.15
   5   5  -6    2.14    0.18
  -5   5   6    2.31    0.20
   4  -5  -6   38.57    0.89
  -4  -5   6   37.29    1.01
   4  -5  -6   38.78    0.85
   4  -5  -6   37.73    0.86
   4  -5  -6   37.69    1.22
  -4  -5   6   38.45    0.77
   4   5  -6   40.24    0.72
  -4   5   6   38.63    0.70
   4   5  -6   38.27    0.83
   4   5  -6   37.72    0.91
  -4   5   6   38.56    0.82
   3  -5  -6    2.30    0.19
  -3  -5   6    2.15    0.19
   3  -5  -6    2.05    0.20
  -3  -5   6    2.02    0.17
   3  -5  -6    2.44    0.21
   3  -5  -6    2.34    0.20
   3   5  -6    2.56    0.24
  -3   5   6    2.24    0.26
  -3   5   6    2.31    0.11
   3   5  -6    2.05    0.14
  -3   5   6    2.26    0.15
   3   5  -6    1.91    0.20
   2  -5  -6    0.80    0.16
  -2  -5   6    1.12    0.14
   2  -5  -6    0.80    0.16
  -2  -5   6    0.71    0.13
   2  -5  -6    0.90    0.16
  -2   5   6    0.97    0.15
   2   5  -6    1.10    0.20
  -2   5   6    1.02    0.10
  -1  -5   6   11.69    0.40
   1  -5  -6   10.74    0.44
   1  -5  -6   11.71    0.41
  -1  -5   6   11.00    0.40
  -1  -5   6   11.61    0.34
   1  -5  -6   10.87    0.46
  -1   5   6   11.36    0.38
   1   5  -6   11.06    0.49
  -1   5   6   11.29    0.37
  -1   5   6   11.22    0.36
   0  -5   6    9.31    0.30
   0  -5   6    9.11    0.35
   0  -5   6    9.10    0.36
   0  -5  -6    8.95    0.36
   0  -5  -6    8.73    0.41
   0  -5  -6    9.26    0.41
   0   5   6    8.83    0.39
   0   5   6    8.80    0.33
   0   5   6    8.86    0.36
  -1  -5  -6    2.41    0.18
  -1  -5  -6    2.37    0.32
   1  -5   6    2.23    0.16
   1  -5   6    2.36    0.20
  -1  -5  -6    2.40    0.22
   1  -5   6    2.35    0.18
  -1  -5  -6    2.51    0.19
   1   5   6    2.32    0.18
   1   5   6    2.45    0.20
   1   5   6    2.21    0.21
   1   5   6    2.42    0.21
   2  -5   6    0.00    0.07
   2  -5   6    0.04    0.08
  -2  -5  -6   -0.09    0.07
  -2  -5  -6    0.09    0.07
  -2  -5  -6    0.04    0.07
   2  -5   6    0.07    0.06
   2   5   6    0.14    0.10
   2   5   6    0.02    0.09
  -2   5  -6    0.03    0.08
   2   5   6   -0.14    0.06
  -3  -5  -6   11.90    0.37
  -3  -5  -6   11.56    0.46
   3  -5   6   11.02    0.40
   3  -5   6   11.16    0.37
   3  -5   6   11.50    0.37
  -3   5  -6   11.21    0.48
   3   5   6   11.75    0.53
   3   5   6   11.46    0.48
   3   5   6   11.75    0.36
   6  -6  -6    7.04    0.36
   6  -6  -6    6.92    0.38
  -6  -6   6    7.17    0.33
   6  -6  -6    6.78    0.36
  -6   6   6    6.30    0.27
   6   6  -6    7.04    0.32
   5  -6  -6    2.20    0.23
   5  -6  -6    2.24    0.22
  -5  -6   6    2.14    0.19
  -5   6   6    1.73    0.16
   5   6  -6    1.78    0.16
   4  -6  -6    0.45    0.14
  -4  -6   6    0.54    0.11
   4  -6  -6    0.40    0.13
   4  -6  -6    0.40    0.12
   4   6  -6    0.41    0.11
   4   6  -6    0.56    0.09
   3  -6  -6    0.59    0.16
   3  -6  -6    0.84    0.15
  -3  -6   6    0.91    0.15
  -3  -6   6    0.96    0.19
  -3   6   6    0.74    0.12
  -2  -6   6    1.67    0.18
   2  -6  -6    1.96    0.18
   2  -6  -6    2.05    0.22
  -2  -6   6    2.51    0.20
  -2   6   6    2.02    0.12
  -2   6   6    1.96    0.17
  -2   6   6    2.64    0.33
   2   6  -6    1.99    0.19
  -1  -6   6   12.82    0.44
   1  -6  -6   14.33    0.54
   1  -6  -6   12.54    0.46
  -1  -6   6   12.04    0.46
  -1   6   6   13.24    0.39
  -1   6   6   12.26    0.41
  -1   6   6   13.37    0.44
   1   6  -6   13.11    0.48
   0  -6  -6   35.87    1.02
   0  -6   6   32.90    0.85
   0  -6  -6   33.40    0.79
   0  -6   6   34.15    1.14
   0   6   6   35.89    1.10
   0   6  -6   33.66    0.84
   0   6   6   32.79    0.75
  -1  -6  -6    5.63    0.30
   1  -6   6    6.07    0.32
  -1  -6  -6    5.50    0.36
   1  -6   6    5.82    0.24
  -1  -6  -6    5.37    0.29
   1   6   6    5.78    0.33
   1   6   6    7.15    0.31
  -1   6  -6    5.78    0.33
   1   6   6    6.11    0.33
  10   0  -7    0.16    0.11
 -10   0   7   -0.03    0.06
  10   0  -7    0.12    0.10
  -9   0   7    0.16    0.08
  -9   0   7    0.27    0.07
   9   0  -7    0.26    0.10
   9   0  -7    0.24    0.08
  -8   0   7   -0.04    0.05
  -8   0   7    0.02    0.06
   8   0  -7    0.03    0.06
   8   0  -7   -0.04    0.05
  -7   0   7    2.39    0.16
   7   0  -7    1.92    0.16
  -7   0   7    2.87    0.20
   7   0  -7    2.88    0.22
  -6   0   7   -0.03    0.04
   6   0  -7   -0.02    0.04
   6   0  -7   -0.03    0.06
  -6   0   7    0.03    0.05
  -6   0   7    0.02    0.06
   5   0  -7   -0.01    0.04
  -5   0   7    0.44    0.11
  -5   0   7   -0.02    0.05
  -5   0   7    0.05    0.05
  -5   0   7    0.02    0.04
   5   0  -7    0.03    0.06
   5   0  -7    0.00    0.05
  -5   0   7    0.01    0.04
   4   0  -7    0.30    0.08
  -4   0   7    0.25    0.07
   4   0  -7    0.27    0.08
  -4   0   7    0.30    0.07
  -4   0   7    0.26    0.08
  -4   0   7    0.35    0.07
   4   0  -7    0.33    0.08
  -3   0   7    0.09    0.05
  -3   0   7    0.04    0.05
  -3   0   7    0.05    0.05
   3   0  -7    0.06    0.04
   3   0  -7    0.04    0.05
  -3   0   7    0.07    0.05
   3   0  -7    0.03    0.05
  -3   0   7    0.10    0.05
   3   0  -7    0.11    0.05
   2   0  -7    0.39    0.07
  -2   0   7    0.42    0.08
   2   0  -7    0.47    0.09
  -2   0   7    0.50    0.10
   2   0  -7    0.39    0.07
   2   0  -7    0.28    0.07
   1   0  -7   -0.04    0.04
  -1   0   7    0.03    0.06
  -1   0   7   -0.01    0.05
  -1   0   7   -0.02    0.05
   1   0  -7    0.00    0.04
   1   0  -7    0.02    0.04
   1   0  -7    0.00    0.03
   0   0   7    0.56    0.12
   0   0  -7    0.51    0.10
   0   0   7    0.70    0.12
   0   0   7    0.60    0.11
   1   0   7    0.02    0.06
   1   0   7   -0.02    0.05
  -1   0  -7    0.01    0.06
   1   0   7    0.01    0.07
  -2   0  -7    0.07    0.06
   2   0   7    0.00    0.06
   2   0   7   -0.04    0.06
   2   0   7    0.03    0.06
   2   0   7    0.05    0.05
   3   0   7    0.00    0.07
   3   0   7    0.02    0.05
   3   0   7    0.01    0.06
  -3   0  -7    0.00    0.05
   3   0   7    0.07    0.06
   4   0   7    0.11    0.07
   4   0   7    0.01    0.05
   4   0   7    0.12    0.08
   4   0   7   -0.01    0.09
  10  -1  -7   10.63    0.38
  10  -1  -7   10.15    0.48
 -10  -1   7   10.36    0.31
 -10   1   7   10.86    0.35
  10   1  -7   10.71    0.49
  10   1  -7   10.56    0.49
  -9  -1   7   12.48    0.38
   9  -1  -7   12.38    0.50
   9  -1  -7   12.87    0.46
  -9  -1   7   11.47    0.34
   9  -1  -7   12.05    0.39
   9   1  -7   12.22    0.49
   9   1  -7   11.95    0.41
   9   1  -7   12.27    0.51
   8  -1  -7    3.21    0.23
   8  -1  -7    2.99    0.24
   8  -1  -7    3.04    0.21
  -8  -1   7    2.78    0.22
   8  -1  -7    2.97    0.19
  -8  -1   7    3.18    0.20
  -8  -1   7    2.98    0.18
   8   1  -7    2.83    0.23
   8   1  -7    2.99    0.23
   8   1  -7    2.85    0.20
  -8   1   7    2.95    0.16
  -7  -1   7    1.92    0.17
   7  -1  -7    2.06    0.18
   7  -1  -7    1.88    0.20
   7  -1  -7    1.97    0.16
  -7  -1   7    1.91    0.15
  -7  -1   7    1.93    0.18
   7  -1  -7    1.90    0.19
  -7   1   7    1.79    0.15
   7   1  -7    1.90    0.16
  -7   1   7    1.91    0.15
   7   1  -7    2.08    0.20
  -6  -1   7   24.22    0.55
  -6  -1   7   24.15    0.42
   6  -1  -7   24.39    0.88
   6  -1  -7   23.24    0.56
   6  -1  -7   23.92    0.60
  -6  -1   7   23.53    0.60
  -6  -1   7   24.26    0.61
  -6   1   7   23.77    0.56
  -6   1   7   24.33    0.55
   6   1  -7   22.63    0.83
   6   1  -7   23.94    0.58
  -5  -1   7    2.19    0.13
   5  -1  -7    2.16    0.16
   5  -1  -7    2.22    0.17
   5  -1  -7    2.18    0.18
  -5  -1   7    2.18    0.17
   5  -1  -7    2.31    0.19
  -5  -1   7    2.27    0.17
  -5  -1   7    2.35    0.16
  -5   1   7    2.06    0.12
   5   1  -7    2.41    0.18
  -5   1   7    2.31    0.14
  -5   1   7    2.49    0.17
   5   1  -7    2.31    0.17
  -5   1   7    2.26    0.16
   4  -1  -7    1.08    0.15
   4  -1  -7    0.76    0.12
  -4  -1   7    1.12    0.16
   4  -1  -7    0.84    0.15
  -4  -1   7    0.71    0.11
  -4  -1   7    0.84    0.12
   4  -1  -7    0.87    0.14
  -4  -1   7    0.86    0.11
  -4  -1   7    1.21    0.11
  -4   1   7    0.87    0.10
  -4   1   7    0.75    0.11
  -4   1   7    0.71    0.12
   4   1  -7    0.63    0.11
   4   1  -7    0.68    0.12
  -3  -1   7    1.71    0.13
   3  -1  -7    2.02    0.15
  -3  -1   7    1.88    0.16
  -3  -1   7    1.93    0.14
  -3  -1   7    1.83    0.16
   3  -1  -7    1.83    0.16
   3  -1  -7    1.92    0.14
  -3  -1   7    1.93    0.15
   3  -1  -7    1.78    0.17
  -3   1   7    1.64    0.13
  -3   1   7    1.90    0.14
  -3   1   7    1.91    0.16
   3   1  -7    1.83    0.16
   3   1  -7    1.73    0.14
  -2  -1   7   29.51    0.68
   2  -1  -7   29.69    0.64
  -2  -1   7   29.70    0.68
  -2  -1   7   29.03    0.66
   2  -1  -7   29.62    0.68
   2  -1  -7   29.01    0.71
  -2  -1   7   28.66    0.61
   2  -1  -7   29.88    0.57
  -2  -1   7   29.84    0.56
  -2   1   7   28.71    0.67
   2   1  -7   29.46    0.56
   2   1  -7   29.70    0.58
   2   1  -7   28.55    0.70
  -2   1   7   29.40    0.63
  -2   1   7   30.02    0.63
  -1  -1   7    1.76    0.10
  -1  -1   7    1.75    0.15
   1  -1  -7    1.67    0.14
  -1  -1   7    1.90    0.16
   1  -1  -7    1.75    0.18
  -1  -1   7    1.87    0.18
  -1  -1   7    1.71    0.15
   1  -1  -7    1.85    0.11
   1  -1  -7    1.88    0.16
  -1   1   7    1.78    0.16
   1   1  -7    1.82    0.11
   1   1  -7    1.73    0.12
  -1   1   7    1.65    0.15
  -1   1   7    1.68    0.14
   0  -1   7    0.35    0.11
   0  -1  -7    0.36    0.09
   0  -1  -7    0.45    0.13
   0  -1   7    0.30    0.08
   0  -1   7    0.33    0.11
   0  -1   7    0.29    0.10
   0  -1   7    0.34    0.05
   0  -1  -7    0.30    0.08
   0   1  -7    0.30    0.08
   0   1   7    0.17    0.06
   0   1   7    0.57    0.11
   0   1   7    0.44    0.11
   1  -1   7   74.43    1.42
   1  -1   7   74.72    1.29
   1  -1   7   73.30    1.33
  -1  -1  -7   74.45    1.45
   1  -1   7   73.37    1.27
  -1  -1  -7   75.01    1.22
  -1  -1  -7   74.29    1.29
   1   1   7   74.30    1.23
   1   1   7   75.77    1.22
   1   1   7   75.42    1.38
  -1   1  -7   74.55    1.17
   1   1   7   73.33    1.29
  -2  -1  -7    3.32    0.22
   2  -1   7    3.42    0.27
   2  -1   7    3.04    0.20
   2  -1   7    3.45    0.21
   2  -1   7    3.30    0.24
   2   1   7    3.58    0.22
  -2   1  -7    3.30    0.18
   2   1   7    3.28    0.25
   2   1   7    3.19    0.19
  -2   1  -7    3.19    0.26
   2   1   7    3.19    0.20
   3  -1   7    1.24    0.11
   3  -1   7    1.21    0.19
   3  -1   7    1.48    0.24
   3  -1   7    1.30    0.15
   3  -1   7    1.33    0.14
  -3  -1  -7    1.34    0.15
   3   1   7    1.47    0.13
   3   1   7    1.44    0.19
  -3   1  -7    1.45    0.19
   3   1   7    1.28    0.14
   3   1   7    1.33    0.15
   4  -1   7   15.47    0.47
   4  -1   7   15.54    0.41
   4  -1   7   14.92    0.57
   4  -1   7   15.19    0.61
   4  -1   7   15.66    0.48
  -4  -1  -7   14.55    0.52
  -4   1  -7   15.28    0.43
   4   1   7   16.08    0.49
   4   1   7   15.61    0.42
   4   1   7   15.82    0.77
   4   1   7   15.58    0.49
  -9  -2   7    9.98    0.31
   9  -2  -7   10.91    0.50
   9  -2  -7   10.22    0.35
   9  -2  -7   10.05    0.41
   9  -2  -7   10.38    0.40
  -9   2   7   10.53    0.42
   9   2  -7   10.78    0.46
   9   2  -7   10.83    0.51
   8  -2  -7    2.27    0.20
   8  -2  -7    2.18    0.21
  -8  -2   7    2.38    0.22
   8  -2  -7    2.08    0.16
  -8  -2   7    2.20    0.15
   8  -2  -7    2.37    0.19
   8   2  -7    2.11    0.20
   8   2  -7    2.34    0.21
  -8   2   7    2.07    0.16
   8   2  -7    1.99    0.18
   7  -2  -7    0.10    0.08
  -7  -2   7    0.23    0.09
  -7  -2   7    0.22    0.06
   7  -2  -7    0.27    0.08
   7  -2  -7    0.24    0.10
   7  -2  -7    0.31    0.10
  -7  -2   7    0.22    0.07
   7   2  -7    0.09    0.08
   7   2  -7    0.16    0.07
   7   2  -7    0.18    0.07
  -7   2   7    0.25    0.07
   6  -2  -7   20.14    0.57
   6  -2  -7   19.36    0.56
   6  -2  -7   19.08    0.54
  -6  -2   7   19.59    0.40
  -6  -2   7   18.62    0.49
  -6  -2   7   19.37    0.55
   6   2  -7   19.28    0.52
  -6   2   7   18.94    0.47
   6   2  -7   19.25    0.57
  -5  -2   7   12.88    0.40
  -5  -2   7   13.74    0.43
   5  -2  -7   13.78    0.41
   5  -2  -7   13.55    0.43
  -5  -2   7   11.28    0.42
  -5  -2   7   13.98    0.34
  -5   2   7   13.52    0.40
  -5   2   7   13.35    0.29
   5   2  -7   13.46    0.44
  -5   2   7   13.75    0.33
   4  -2  -7   24.54    0.58
  -4  -2   7   25.10    0.59
   4  -2  -7   24.11    0.61
  -4  -2   7   24.96    0.60
  -4  -2   7   24.95    0.54
   4  -2  -7   24.79    0.63
   4  -2  -7   24.54    0.58
  -4  -2   7   24.74    0.53
   4  -2  -7   25.61    0.61
  -4   2   7   25.32    0.60
   4   2  -7   24.84    0.60
  -4   2   7   25.06    0.50
   3  -2  -7   44.26    0.91
  -3  -2   7   43.03    0.90
  -3  -2   7   45.61    0.84
  -3  -2   7   45.17    0.83
   3  -2  -7   44.43    1.02
   3  -2  -7   44.68    0.90
  -3  -2   7   45.67    0.90
   3  -2  -7   42.96    0.85
  -3  -2   7   45.92    0.81
   3  -2  -7   45.12    0.82
  -3   2   7   46.06    0.80
  -3   2   7   43.50    0.87
   3   2  -7   44.91    0.84
  -2  -2   7    0.86    0.12
  -2  -2   7    0.67    0.12
   2  -2  -7    0.83    0.14
   2  -2  -7    0.83    0.15
  -2  -2   7    0.57    0.11
  -2  -2   7    0.75    0.11
   2  -2  -7    0.72    0.12
   2  -2  -7    1.12    0.17
   2  -2  -7    0.81    0.11
   2   2  -7    0.70    0.07
   2   2  -7    0.77    0.14
   2   2  -7    0.83    0.11
  -2   2   7    0.81    0.12
  -2   2   7    0.78    0.12
  -1  -2   7    3.04    0.19
   1  -2  -7    3.06    0.15
   1  -2  -7    2.91    0.20
   1  -2  -7    3.22    0.23
  -1  -2   7    2.98    0.20
  -1  -2   7    3.24    0.22
   1  -2  -7    2.90    0.20
  -1  -2   7    3.15    0.15
   1  -2  -7    2.95    0.20
   1   2  -7    2.82    0.22
   1   2  -7    3.21    0.14
  -1   2   7    2.82    0.18
  -1   2   7    3.11    0.20
   0  -2  -7   34.94    0.78
   0  -2   7   34.66    0.76
   0  -2  -7   34.20    0.85
   0  -2   7   34.30    0.82
   0  -2   7   35.00    0.58
   0  -2  -7   34.99    0.58
   0  -2   7   35.81    0.76
   0  -2  -7   36.30    0.78
   0   2   7   34.32    0.83
   0   2   7   33.74    0.76
   0   2   7   34.69    0.70
   0   2  -7   34.64    0.58
   1  -2   7    0.35    0.10
   1  -2   7    0.41    0.09
   1  -2   7    0.26    0.10
  -1  -2  -7    0.29    0.09
   1   2   7    0.44    0.09
   1   2   7    0.42    0.09
   1   2   7    0.36    0.11
  -1   2  -7    0.50    0.07
   1   2   7    0.40    0.11
  -2  -2  -7    1.18    0.19
   2  -2   7    1.10    0.16
   2  -2   7    0.93    0.17
   2  -2   7    0.66    0.13
  -2  -2  -7    1.06    0.12
   2   2   7    0.75    0.16
   2   2   7    1.17    0.17
   2   2   7    1.05    0.14
  -2   2  -7    0.79    0.14
   2   2   7    0.96    0.14
  -2   2  -7    0.73    0.08
  -3  -2  -7    1.72    0.19
   3  -2   7    1.89    0.19
   3  -2   7    2.28    0.19
   3  -2   7    1.66    0.16
   3  -2   7    2.03    0.22
  -3  -2  -7    1.83    0.14
   3   2   7    1.91    0.22
   3   2   7    1.92    0.18
  -3   2  -7    2.28    0.23
   3   2   7    2.15    0.15
   3   2   7    1.88    0.18
   4  -2   7    5.62    0.34
   4  -2   7    5.96    0.31
   4  -2   7    6.40    0.46
   4  -2   7    5.70    0.28
   4   2   7    6.51    0.40
   4   2   7    5.97    0.24
   4   2   7    5.98    0.31
   9  -3  -7    2.85    0.22
  -9  -3   7    2.44    0.16
   9  -3  -7    2.72    0.26
   9  -3  -7    2.83    0.23
   9  -3  -7    3.09    0.19
   9   3  -7    3.11    0.27
   9   3  -7    2.55    0.26
  -9   3   7    2.70    0.25
  -8  -3   7    1.78    0.21
   8  -3  -7    1.68    0.18
   8  -3  -7    1.72    0.19
   8  -3  -7    1.58    0.21
  -8  -3   7    1.56    0.13
   8  -3  -7    1.43    0.15
  -8  -3   7    1.48    0.14
   8   3  -7    1.63    0.25
   8   3  -7    1.68    0.23
  -8   3   7    1.44    0.19
  -7  -3   7    5.31    0.25
   7  -3  -7    5.24    0.29
   7  -3  -7    4.82    0.23
  -7  -3   7    5.00    0.29
  -7  -3   7    4.96    0.30
  -7  -3   7    5.29    0.21
   7  -3  -7    5.00    0.28
   7  -3  -7    5.01    0.30
   7   3  -7    5.27    0.28
  -7   3   7    5.98    0.39
   7   3  -7    5.18    0.27
   7   3  -7    4.94    0.30
   7   3  -7    5.11    0.26
  -6  -3   7    8.77    0.37
  -6  -3   7    8.86    0.34
   6  -3  -7    8.55    0.31
  -6  -3   7    8.13    0.36
   6  -3  -7    8.86    0.37
   6  -3  -7    8.58    0.37
   6  -3  -7    8.31    0.35
  -6  -3   7    8.90    0.27
   6   3  -7    8.74    0.34
  -6   3   7    8.83    0.29
  -6   3   7    8.27    0.32
   6   3  -7    9.38    0.40
  -5  -3   7   17.89    0.42
   5  -3  -7   17.65    0.52
   5  -3  -7   17.72    0.47
   5  -3  -7   17.54    0.52
  -5  -3   7   16.54    0.54
   5  -3  -7   17.66    0.54
  -5  -3   7   16.91    0.50
  -5  -3   7   17.72    0.52
  -5   3   7   17.13    0.48
  -5   3   7   17.31    0.46
  -5   3   7   17.89    0.35
   5   3  -7   17.52    0.53
  -5   3   7   17.76    0.37
   5   3  -7   17.56    0.46
   4  -3  -7   15.08    0.47
   4  -3  -7   14.59    0.44
  -4  -3   7   13.91    0.44
  -4  -3   7   14.04    0.39
   4  -3  -7   14.15    0.43
   4  -3  -7   15.10    0.49
   4   3  -7   14.03    0.45
  -4   3   7   14.02    0.34
   4   3  -7   14.63    0.38
  -4   3   7   14.06    0.35
  -4   3   7   14.21    0.42
  -3  -3   7   31.76    0.64
   3  -3  -7   30.99    0.73
   3  -3  -7   31.22    0.75
  -3  -3   7   30.62    0.66
  -3  -3   7   32.27    0.69
  -3  -3   7   31.30    0.75
   3  -3  -7   32.61    0.69
   3  -3  -7   32.74    0.73
  -3   3   7   31.70    0.67
  -3   3   7   29.49    0.68
  -3   3   7   31.32    0.73
   3   3  -7   32.66    0.57
   3   3  -7   33.69    0.71
  -3   3   7   30.92    0.61
   2  -3  -7    5.61    0.28
  -2  -3   7    5.17    0.24
   2  -3  -7    5.81    0.29
   2  -3  -7    5.74    0.30
  -2  -3   7    5.70    0.25
   2  -3  -7    5.65    0.24
  -2  -3   7    5.30    0.41
  -2  -3   7    5.20    0.27
  -2   3   7    5.35    0.25
  -2   3   7    5.57    0.25
   2   3  -7    5.49    0.16
   2   3  -7    5.59    0.17
  -2   3   7    5.10    0.24
  -1  -3   7   10.55    0.34
  -1  -3   7   10.32    0.39
  -1  -3   7   10.59    0.32
   1  -3  -7   10.34    0.31
   1  -3  -7   10.68    0.49
   1  -3  -7   10.06    0.39
  -1  -3   7   10.37    0.38
   1  -3  -7   10.27    0.41
  -1   3   7   10.08    0.37
  -1   3   7    9.95    0.34
   0  -3   7    6.58    0.23
   0  -3  -7    6.74    0.32
   0  -3   7    6.55    0.33
   0  -3  -7    6.53    0.22
   0  -3   7    6.75    0.28
   0  -3   7    5.93    0.29
   0  -3  -7    6.57    0.32
   0   3   7    6.79    0.33
   0   3   7    6.48    0.27
   0   3   7    6.13    0.42
  -1  -3  -7    8.31    0.38
   1  -3   7    8.78    0.40
  -1  -3  -7    8.76    0.23
  -1  -3  -7    8.61    0.36
   1  -3   7    8.84    0.35
   1  -3   7    8.40    0.33
  -1  -3  -7    8.14    0.23
   1  -3   7    8.61    0.24
   1   3   7    8.63    0.46
   1   3   7    8.78    0.40
   1   3   7    8.60    0.30
  -1   3  -7    9.25    0.42
   1   3   7    8.46    0.35
  -2  -3  -7    1.57    0.16
   2  -3   7    1.72    0.16
  -2  -3  -7    1.56    0.23
   2  -3   7    1.75    0.20
   2  -3   7    2.16    0.18
  -2   3  -7    1.63    0.29
   2   3   7    1.81    0.18
   2   3   7    1.83    0.20
   2   3   7    1.47    0.17
   2   3   7    1.77    0.15
   3  -3   7    1.01    0.15
  -3  -3  -7    0.95    0.14
   3  -3   7    0.93    0.17
   3  -3   7    1.14    0.15
   3   3   7    0.96    0.19
   3   3   7    1.17    0.15
   3   3   7    1.22    0.19
  -3   3  -7    0.83    0.19
  -8  -4   7    0.30    0.09
   8  -4  -7    0.53    0.15
   8  -4  -7    0.14    0.09
   8  -4  -7    0.32    0.11
   8  -4  -7    0.44    0.09
   8   4  -7    0.32    0.14
   8   4  -7    0.38    0.12
   8   4  -7    0.33    0.12
   7  -4  -7    4.28    0.20
   7  -4  -7    4.48    0.28
   7  -4  -7    4.80    0.28
  -7  -4   7    4.23    0.29
   7  -4  -7    4.60    0.30
  -7  -4   7    4.66    0.22
  -7   4   7    4.82    0.32
   7   4  -7    4.54    0.30
   7   4  -7    4.30    0.26
   7   4  -7    4.58    0.28
  -6  -4   7   10.67    0.44
   6  -4  -7   10.82    0.33
   6  -4  -7   10.71    0.43
  -6  -4   7   11.07    0.34
   6  -4  -7   11.62    0.45
   6  -4  -7   10.33    0.40
   6  -4  -7   11.53    0.43
  -6  -4   7   10.84    0.45
   6   4  -7   11.83    0.47
   6   4  -7   10.76    0.41
   6   4  -7   10.49    0.38
   6   4  -7   10.23    0.41
  -6   4   7   10.45    0.38
   5  -4  -7    0.09    0.08
  -5  -4   7    0.07    0.06
  -5  -4   7    0.02    0.07
   5  -4  -7    0.06    0.07
   5  -4  -7    0.15    0.07
   5  -4  -7    0.07    0.08
   5  -4  -7    0.09    0.05
  -5  -4   7    0.20    0.08
   5   4  -7    0.14    0.08
  -5   4   7    0.08    0.05
   5   4  -7    0.32    0.17
   5   4  -7    0.05    0.08
  -5   4   7    0.04    0.07
   5   4  -7    0.07    0.07
   4  -4  -7    0.46    0.12
   4  -4  -7    0.53    0.14
  -4  -4   7    0.45    0.10
  -4  -4   7    0.65    0.15
   4  -4  -7    0.67    0.12
   4  -4  -7    0.55    0.12
   4  -4  -7    0.54    0.12
  -4  -4   7    0.79    0.16
  -4   4   7    0.65    0.09
   4   4  -7    0.61    0.13
   4   4  -7    1.10    0.18
  -4   4   7    1.23    0.17
  -4   4   7    0.43    0.09
   4   4  -7    0.63    0.10
   4   4  -7    0.61    0.14
   3  -4  -7    8.82    0.36
  -3  -4   7    8.80    0.32
  -3  -4   7    8.70    0.35
  -3  -4   7    7.94    0.36
   3  -4  -7    8.56    0.33
   3  -4  -7    8.65    0.39
  -3   4   7    8.59    0.27
  -3   4   7    8.74    0.30
  -3   4   7    8.54    0.33
   3   4  -7    8.04    0.35
  -2  -4   7    0.88    0.13
   2  -4  -7    1.05    0.15
  -2  -4   7    0.88    0.15
   2  -4  -7    0.91    0.16
  -2  -4   7    0.97    0.12
   2  -4  -7    0.90    0.16
  -2  -4   7    1.02    0.15
  -2   4   7    0.85    0.11
  -2   4   7    1.07    0.16
  -2   4   7    1.00    0.15
   2   4  -7    1.10    0.22
  -2   4   7    0.98    0.15
   1  -4  -7    5.59    0.31
  -1  -4   7    5.58    0.25
   1  -4  -7    5.99    0.30
  -1  -4   7    5.85    0.29
   1  -4  -7    5.59    0.25
  -1  -4   7    5.42    0.25
  -1  -4   7    5.82    0.30
   1  -4  -7    5.44    0.38
  -1   4   7    6.03    0.27
   1   4  -7    5.98    0.35
  -1   4   7    5.60    0.28
  -1   4   7    5.38    0.30
  -1   4   7    6.10    0.29
   0  -4  -7    0.41    0.09
   0  -4  -7    0.50    0.13
   0  -4   7    0.40    0.10
   0  -4   7    0.47    0.10
   0  -4  -7    0.33    0.12
   0  -4  -7    0.31    0.10
   0  -4   7    0.36    0.10
   0  -4   7    0.25    0.09
   0   4   7    0.23    0.17
   0   4   7    0.25    0.10
   0   4   7    0.24    0.09
   0   4  -7    0.50    0.13
   0   4   7    0.30    0.10
   1  -4   7   12.11    0.46
   1  -4   7   11.25    0.41
   1  -4   7   11.81    0.39
   1  -4   7   11.50    0.34
  -1  -4  -7   11.75    0.34
  -1  -4  -7   11.86    0.33
  -1  -4  -7   11.64    0.48
  -1  -4  -7   11.90    0.45
  -1  -4  -7   12.18    0.42
   1   4   7   11.68    0.47
  -1   4  -7   11.53    0.48
   1   4   7   12.44    0.45
   1   4   7   11.57    0.44
   1   4   7   11.69    0.37
  -2  -4  -7    1.78    0.19
   2  -4   7    1.81    0.13
   2  -4   7    1.67    0.19
   2  -4   7    1.64    0.17
   2  -4   7    1.65    0.16
  -2  -4  -7    1.87    0.12
  -2  -4  -7    2.16    0.12
   2   4   7    1.95    0.22
   2   4   7    1.82    0.16
   2   4   7    1.86    0.20
  -2   4  -7    1.59    0.24
   3  -4   7    8.05    0.22
   3  -4   7    8.25    0.42
  -3  -4  -7    8.39    0.36
   3  -4   7    7.56    0.34
   3  -4   7    8.04    0.22
   3  -4   7    8.04    0.35
   3   4   7    7.59    0.29
  -3   4  -7    9.34    0.72
   3   4   7    8.07    0.40
   3   4   7    8.62    0.47
   7  -5  -7    2.31    0.23
   7  -5  -7    2.37    0.23
   7  -5  -7    2.53    0.23
  -7  -5   7    2.40    0.19
  -7  -5   7    2.74    0.25
   7   5  -7    2.28    0.25
   7   5  -7    1.97    0.21
   7   5  -7    2.49    0.22
   6  -5  -7    0.42    0.12
  -6  -5   7    0.69    0.19
   6  -5  -7    0.54    0.14
   6  -5  -7    0.42    0.13
  -6  -5   7    0.62    0.12
  -6   5   7    0.48    0.09
   6   5  -7    0.46    0.14
   6   5  -7    0.53    0.13
  -5  -5   7    1.10    0.14
   5  -5  -7    1.13    0.18
  -5  -5   7    1.01    0.18
   5  -5  -7    0.81    0.15
   5  -5  -7    1.20    0.18
   5   5  -7    0.79    0.14
   5   5  -7    1.06    0.19
   5   5  -7    1.20    0.13
  -5   5   7    0.96    0.12
   4  -5  -7    0.29    0.09
  -4  -5   7    0.38    0.10
   4  -5  -7    0.42    0.11
  -4  -5   7    0.45    0.11
  -4  -5   7    0.21    0.16
   4  -5  -7    0.50    0.14
   4  -5  -7    0.46    0.12
  -4   5   7    0.31    0.12
   4   5  -7    0.69    0.14
  -4   5   7    0.40    0.07
   4   5  -7    0.52    0.15
   4   5  -7    0.53    0.09
  -4   5   7    0.56    0.11
   3  -5  -7    2.75    0.23
  -3  -5   7    2.54    0.22
  -3  -5   7    3.07    0.23
   3  -5  -7    3.04    0.22
   3  -5  -7    2.92    0.23
  -3  -5   7    3.10    0.21
   3  -5  -7    2.90    0.24
   3   5  -7    2.90    0.30
  -3   5   7    3.00    0.15
  -3   5   7    2.95    0.21
   3   5  -7    2.86    0.26
  -2  -5   7    5.87    0.30
  -2  -5   7    5.86    0.29
   2  -5  -7    5.40    0.32
   2  -5  -7    5.50    0.28
  -2  -5   7    5.78    0.32
   2  -5  -7    6.18    0.31
   2  -5  -7    6.07    0.34
  -2   5   7    6.13    0.29
   2   5  -7    5.96    0.33
  -2   5   7    5.55    0.24
  -2   5   7    6.06    0.27
   1  -5  -7   17.12    0.59
   1  -5  -7   16.03    0.53
  -1  -5   7   17.03    0.51
  -1  -5   7   17.08    0.45
  -1  -5   7   16.44    0.54
   1  -5  -7   16.92    0.49
  -1  -5   7   16.81    0.51
  -1   5   7   15.93    0.48
  -1   5   7   17.01    0.49
   1   5  -7   15.99    0.56
  -1   5   7   17.41    0.50
   0  -5  -7    3.75    0.25
   0  -5  -7    4.18    0.29
   0  -5   7    3.44    0.25
   0  -5   7    3.62    0.21
   0  -5   7    4.06    0.26
   0  -5   7    3.45    0.22
   0   5   7    3.45    0.22
   0   5   7    3.69    0.25
   0   5  -7    3.83    0.33
  -1  -5  -7    1.39    0.16
   1  -5   7    1.31    0.20
   1  -5   7    1.89    0.16
  -1  -5  -7    1.51    0.23
   1  -5   7    1.61    0.16
  -1  -5  -7    1.62    0.18
   1  -5   7    1.40    0.18
   1   5   7    1.69    0.20
   1   5   7    1.46    0.18
  -1   5  -7    1.51    0.20
   4  -6  -7    0.48    0.12
   4  -6  -7    0.81    0.17
   4  -6  -7    0.94    0.19
   4   6  -7    0.71    0.08
  -4   6   7    0.60    0.13
   3  -6  -7    0.64    0.16
  -3  -6   7    0.64    0.17
   3  -6  -7    0.64    0.14
   3  -6  -7    0.73    0.16
  -3   6   7    0.59    0.13
   3   6  -7    0.83    0.18
  -3   6   7    0.86    0.09
  -2  -6   7    1.25    0.26
   2  -6  -7    1.46    0.23
   2  -6  -7    1.01    0.16
   2  -6  -7    1.55    0.24
  -2  -6   7    1.19    0.17
  -2   6   7    1.28    0.13
  -2   6   7    1.13    0.25
   2   6  -7    1.02    0.18
   1  -6  -7    0.21    0.10
   1  -6  -7    0.33    0.12
  -1  -6   7    0.25    0.10
  -1  -6   7    0.07    0.08
   1   6  -7    0.18    0.11
  -1   6   7    0.09    0.10
   9   0  -8    1.50    0.17
   9   0  -8    2.07    0.24
  -9   0   8    1.71    0.15
  -9   0   8    1.48    0.15
  -8   0   8    5.93    0.26
  -8   0   8    6.05    0.28
  -8   0   8    5.84    0.32
   8   0  -8    5.71    0.31
   8   0  -8    7.04    0.36
   7   0  -8   51.49    1.07
  -7   0   8   52.81    1.05
  -7   0   8   45.42    0.96
   7   0  -8   51.13    1.00
   6   0  -8    0.04    0.07
  -6   0   8   -0.02    0.04
  -6   0   8    0.03    0.05
   6   0  -8    0.02    0.07
  -6   0   8    0.08    0.04
   6   0  -8    0.05    0.07
   5   0  -8    6.19    0.31
  -5   0   8    5.59    0.33
  -5   0   8    6.13    0.23
   5   0  -8    5.77    0.29
  -5   0   8    6.00    0.27
   5   0  -8    5.95    0.28
   4   0  -8    5.61    0.26
   4   0  -8    5.68    0.30
   4   0  -8    5.93    0.29
  -4   0   8    5.40    0.24
  -4   0   8    6.14    0.27
  -4   0   8    6.18    0.26
   4   0  -8    5.58    0.24
   3   0  -8   86.31    1.37
  -3   0   8   87.48    1.34
   3   0  -8   89.35    1.37
  -3   0   8   91.31    1.57
  -3   0   8   85.74    1.46
   3   0  -8   85.39    1.53
   3   0  -8   88.85    1.51
  -2   0   8    9.05    0.33
   2   0  -8    8.84    0.34
   2   0  -8    8.82    0.31
   2   0  -8    8.95    0.39
  -2   0   8    8.89    0.36
   2   0  -8    9.63    0.28
  -2   0   8    8.75    0.34
  -2   0   8    8.90    0.37
   1   0  -8    1.69    0.14
  -1   0   8    1.68    0.16
   1   0  -8    1.58    0.18
  -1   0   8    1.55    0.16
  -1   0   8    1.62    0.16
   1   0  -8    1.51    0.12
   0   0  -8  119.18    1.81
   0   0   8  119.37    1.92
   0   0   8  118.16    1.89
   0   0   8  118.19    1.85
  -1   0  -8   13.49    0.56
   1   0   8   13.27    0.43
   1   0   8   14.19    0.51
  -1   0  -8   14.23    0.43
   1   0   8   13.39    0.45
   2   0   8    8.13    0.35
   2   0   8    7.11    0.37
   2   0   8    7.08    0.31
  -2   0  -8    6.16    0.41
  -2   0  -8    6.79    0.31
   3   0   8   12.68    0.39
   3   0   8   10.08    0.68
   3   0   8   12.34    0.41
  -3   0  -8   11.21    0.55
   3   0   8   12.22    0.44
   9  -1  -8    3.85    0.27
  -9  -1   8    3.52    0.20
   9  -1  -8    2.28    0.38
   9  -1  -8    3.31    0.25
   9   1  -8    2.84    0.43
   9   1  -8    3.09    0.25
  -9   1   8    3.58    0.17
  -9   1   8    3.02    0.24
  -8  -1   8    1.53    0.22
   8  -1  -8    1.04    0.16
   8  -1  -8    1.19    0.20
   8  -1  -8    1.31    0.21
   8   1  -8    1.20    0.18
  -8   1   8    0.91    0.14
   8   1  -8    0.89    0.16
  -8   1   8    1.14    0.15
  -7  -1   8   10.51    0.45
   7  -1  -8   11.23    0.44
   7  -1  -8   10.48    0.38
   7  -1  -8   10.68    0.43
  -7   1   8   10.58    0.36
   7   1  -8   10.34    0.39
  -7   1   8   10.43    0.37
   7   1  -8   10.47    0.43
   6  -1  -8    6.77    0.31
  -6  -1   8    6.60    0.31
  -6  -1   8    7.11    0.21
   6  -1  -8    6.73    0.32
   6  -1  -8    7.31    0.35
  -6   1   8    7.34    0.31
  -6   1   8    6.73    0.37
   6   1  -8    6.75    0.31
   6   1  -8    6.66    0.32
  -5  -1   8    2.41    0.17
   5  -1  -8    2.25    0.18
  -5  -1   8    2.26    0.15
   5  -1  -8    2.49    0.21
   5  -1  -8    2.19    0.18
  -5  -1   8    2.53    0.18
   5   1  -8    2.40    0.19
  -5   1   8    2.43    0.16
   5   1  -8    2.17    0.18
  -5   1   8    2.23    0.15
   4  -1  -8   20.26    0.58
  -4  -1   8   19.86    0.48
   4  -1  -8   20.62    0.58
   4  -1  -8   19.63    0.51
  -4  -1   8   20.12    0.50
  -4  -1   8   20.46    0.51
   4  -1  -8   20.19    0.52
  -4   1   8   20.04    0.48
   4   1  -8   19.85    0.58
   4   1  -8   20.87    0.53
   3  -1  -8    1.28    0.19
  -3  -1   8    1.30    0.14
  -3  -1   8    1.00    0.16
  -3  -1   8    1.02    0.13
   3  -1  -8    1.16    0.16
   3  -1  -8    0.95    0.13
   3  -1  -8    1.02    0.18
   3   1  -8    1.01    0.14
   3   1  -8    0.82    0.10
  -3   1   8    1.01    0.12
  -2  -1   8    3.45    0.22
  -2  -1   8    4.04    0.25
  -2  -1   8    3.93    0.21
   2  -1  -8    3.74    0.21
  -2  -1   8    3.60    0.17
   2  -1  -8    3.50    0.17
   2  -1  -8    3.41    0.25
  -2   1   8    3.85    0.22
  -2   1   8    4.02    0.34
   2   1  -8    3.80    0.19
   2   1  -8    3.69    0.17
   1  -1  -8   32.81    0.73
   1  -1  -8   33.62    0.86
  -1  -1   8   33.46    0.57
   1  -1  -8   34.64    0.76
  -1  -1   8   32.68    0.73
  -1  -1   8   33.68    0.82
  -1  -1   8   33.22    0.77
   1  -1  -8   34.22    0.58
  -1  -1   8   32.72    0.76
  -1   1   8   33.27    0.72
  -1   1   8   32.02    0.76
   1   1  -8   34.45    0.66
  -1   1   8   34.04    0.76
   0  -1  -8   71.04    1.23
   0  -1  -8   71.52    1.27
   0  -1   8   69.62    1.28
   0  -1   8   70.23    1.39
   0  -1   8   70.73    1.28
   0  -1  -8   70.74    1.43
   0  -1   8   69.78    1.28
   0   1  -8   72.03    1.15
   0   1   8   72.81    1.33
   0   1   8   69.22    1.29
   0   1   8   69.52    1.22
   1  -1   8   13.92    0.47
  -1  -1  -8   14.90    0.42
  -1  -1  -8   14.33    0.58
   1  -1   8   15.01    0.48
   1  -1   8   14.96    0.57
   1  -1   8   14.58    0.50
   1   1   8   15.06    0.53
  -1   1  -8   14.96    0.41
   1   1   8   14.50    0.44
   1   1   8   15.31    0.50
  -1   1  -8   14.59    0.57
   2  -1   8    1.52    0.21
   2  -1   8    0.81    0.15
   2  -1   8    0.81    0.15
  -2  -1  -8    1.03    0.16
   2  -1   8    0.96    0.16
   2   1   8    1.20    0.18
   2   1   8    1.30    0.17
  -2   1  -8    0.73    0.16
   2   1   8    1.78    0.26
   2   1   8    1.16    0.13
  -3  -1  -8    0.31    0.11
   3  -1   8    0.79    0.15
   3  -1   8    0.40    0.13
   3   1   8    0.49    0.11
   3   1   8    0.62    0.17
   3   1   8    0.61    0.15
   3   1   8    0.67    0.13
   9  -2  -8    3.38    0.24
  -9  -2   8    3.06    0.23
   9  -2  -8    3.21    0.25
   9  -2  -8    3.03    0.21
   9  -2  -8    3.46    0.28
  -9  -2   8    3.11    0.19
  -9   2   8    3.27    0.22
   9   2  -8    3.27    0.26
   9   2  -8    3.35    0.29
  -8  -2   8    0.38    0.13
   8  -2  -8    0.22    0.10
  -8  -2   8    0.25    0.10
   8  -2  -8    0.44    0.12
   8  -2  -8    0.24    0.10
   8  -2  -8    0.33    0.12
   8   2  -8    0.36    0.11
   8   2  -8    0.41    0.13
  -8   2   8    0.14    0.08
  -7  -2   8    0.01    0.05
   7  -2  -8   -0.01    0.07
   7  -2  -8   -0.03    0.07
   7  -2  -8    0.05    0.07
  -7  -2   8    0.06    0.07
  -7  -2   8    0.03    0.08
   7  -2  -8    0.10    0.08
   7   2  -8    0.03    0.07
  -7   2   8    0.01    0.06
   7   2  -8    0.03    0.07
   7   2  -8    0.03    0.07
  -6  -2   8    4.06    0.18
   6  -2  -8    3.96    0.26
   6  -2  -8    4.09    0.24
   6  -2  -8    4.17    0.26
   6  -2  -8    4.16    0.26
  -6  -2   8    4.00    0.25
  -6  -2   8    3.79    0.25
   6   2  -8    4.10    0.27
  -6   2   8    3.83    0.22
  -6   2   8    3.72    0.22
   6   2  -8    3.75    0.25
  -5  -2   8    9.10    0.38
   5  -2  -8    9.08    0.35
   5  -2  -8    9.14    0.37
   5  -2  -8    9.80    0.41
   5  -2  -8    9.46    0.38
  -5  -2   8    9.30    0.30
   5  -2  -8    9.85    0.40
  -5  -2   8    9.80    0.36
  -5   2   8    9.13    0.27
  -5   2   8    9.70    0.29
  -5   2   8    9.00    0.34
   5   2  -8   10.13    0.39
  -4  -2   8   34.88    0.71
  -4  -2   8   34.84    0.74
   4  -2  -8   34.50    0.74
   4  -2  -8   34.55    0.81
  -4  -2   8   33.51    0.69
   4  -2  -8   35.46    0.83
   4  -2  -8   34.69    0.80
   4   2  -8   35.50    0.77
  -4   2   8   35.56    0.68
  -3  -2   8    0.42    0.11
   3  -2  -8    0.03    0.08
  -3  -2   8    0.20    0.07
   3  -2  -8    0.14    0.08
  -3  -2   8    0.18    0.08
  -3  -2   8    0.12    0.07
   3  -2  -8    0.13    0.06
   3  -2  -8    0.13    0.08
  -3   2   8    0.23    0.08
   3   2  -8    0.05    0.07
   3   2  -8    0.14    0.06
  -3   2   8    0.22    0.07
  -2  -2   8    3.30    0.23
   2  -2  -8    3.27    0.25
   2  -2  -8    3.18    0.23
  -2  -2   8    3.27    0.22
  -2  -2   8    3.17    0.20
  -2  -2   8    3.09    0.17
   2  -2  -8    3.04    0.17
   2   2  -8    3.24    0.16
  -2   2   8    3.52    0.33
   2   2  -8    3.02    0.17
  -2   2   8    3.34    0.20
   1  -2  -8   23.33    0.63
   1  -2  -8   23.07    0.69
  -1  -2   8   23.33    0.64
  -1  -2   8   23.08    0.66
   1  -2  -8   24.19    0.48
  -1  -2   8   23.29    0.47
  -1  -2   8   22.97    0.58
  -1  -2   8   23.53    0.63
   1   2  -8   23.86    0.47
   1   2  -8   22.90    0.69
  -1   2   8   24.49    0.63
  -1   2   8   23.14    0.65
  -1   2   8   23.38    0.57
   0  -2  -8    1.48    0.19
   0  -2   8    1.50    0.09
   0  -2   8    1.59    0.17
   0  -2  -8    1.37    0.16
   0  -2   8    1.43    0.16
   0  -2   8    1.46    0.18
   0  -2  -8    1.42    0.19
   0  -2   8    1.64    0.16
   0   2  -8    1.56    0.11
   0   2  -8    1.44    0.19
   0   2   8    1.60    0.15
   0   2   8    1.35    0.17
   0   2   8    1.60    0.22
   1  -2   8    1.86    0.21
  -1  -2  -8    2.17    0.20
   1  -2   8    1.95    0.18
   1  -2   8    1.83    0.21
   1  -2   8    2.10    0.19
   1   2   8    1.57    0.21
  -1   2  -8    1.75    0.20
   1   2   8    2.37    0.18
   1   2   8    1.88    0.21
  -1   2  -8    2.12    0.12
   2  -2   8    0.25    0.10
  -2  -2  -8    0.20    0.09
   2  -2   8    0.25    0.13
   2  -2   8    0.16    0.08
   2  -2   8    0.34    0.11
  -2  -2  -8    0.17    0.10
   2   2   8    0.10    0.10
   2   2   8    0.02    0.09
   2   2   8    0.18    0.08
  -2   2  -8    0.21    0.06
   2   2   8    0.12    0.08
   3  -2   8   15.74    0.63
   3  -2   8   16.65    0.67
   3   2   8   14.72    0.50
   3   2   8   15.18    0.43
   3   2   8   15.04    0.61
   8  -3  -8    6.69    0.54
   8  -3  -8    5.20    0.31
   8  -3  -8    4.77    0.31
   8  -3  -8    4.92    0.26
  -8  -3   8    5.09    0.21
  -8  -3   8    5.59    0.26
  -8  -3   8    5.11    0.31
   8   3  -8    5.12    0.31
   7  -3  -8   36.79    0.79
  -7  -3   8   36.82    0.80
   7  -3  -8   35.68    0.87
   7  -3  -8   37.09    0.91
  -7  -3   8   35.47    0.88
  -7  -3   8   36.71    0.67
  -7  -3   8   37.13    0.93
   7  -3  -8   36.50    0.89
  -7   3   8   35.55    0.71
   7   3  -8   40.23    0.95
   7   3  -8   37.43    0.84
  -7   3   8   36.39    0.80
   6  -3  -8   32.49    0.78
   6  -3  -8   33.75    0.84
  -6  -3   8   34.27    0.85
  -6  -3   8   34.09    0.85
   6  -3  -8   34.34    0.83
  -6  -3   8   35.14    0.79
   6  -3  -8   34.71    0.82
  -6  -3   8   35.06    0.66
   6  -3  -8   33.82    0.76
  -6   3   8   33.32    0.75
  -6   3   8   33.09    0.71
   6   3  -8   32.39    0.80
   6   3  -8   34.07    0.84
   6   3  -8   35.53    0.77
  -5  -3   8   15.54    0.49
   5  -3  -8   15.17    0.48
  -5  -3   8   15.78    0.61
   5  -3  -8   15.38    0.52
  -5  -3   8   14.88    0.49
   5  -3  -8   15.61    0.50
   5  -3  -8   15.49    0.49
  -5  -3   8   14.89    0.41
   5  -3  -8   15.64    0.53
   5   3  -8   15.25    0.43
  -5   3   8   15.56    0.38
  -5   3   8   15.66    0.36
   5   3  -8   15.16    0.51
  -5   3   8   15.95    0.48
   5   3  -8   15.17    0.52
   4  -3  -8   23.87    0.64
   4  -3  -8   25.50    0.73
   4  -3  -8   24.96    0.69
  -4  -3   8   24.44    0.66
  -4  -3   8   25.02    0.58
   4  -3  -8   24.32    0.65
  -4  -3   8   25.82    0.79
  -4  -3   8   24.89    0.63
  -4  -3   8   24.29    0.57
   4   3  -8   24.79    0.53
  -4   3   8   24.03    0.62
  -4   3   8   24.66    0.54
   4   3  -8   25.99    0.65
   4   3  -8   24.49    0.68
  -4   3   8   25.68    0.53
  -4   3   8   23.89    0.62
  -3  -3   8   13.28    0.48
  -3  -3   8   13.36    0.47
   3  -3  -8   13.13    0.41
  -3  -3   8   13.99    0.43
  -3  -3   8   13.63    0.40
   3  -3  -8   13.64    0.48
   3  -3  -8   13.33    0.49
   3  -3  -8   13.12    0.47
   3  -3  -8   13.17    0.46
  -3  -3   8   13.09    0.41
   3   3  -8   13.15    0.31
  -3   3   8   13.23    0.42
   3   3  -8   13.59    0.43
   3   3  -8   13.75    0.33
  -3   3   8   12.80    0.40
  -3   3   8   13.32    0.39
  -3   3   8   12.98    0.44
   3   3  -8   12.29    0.47
   2  -3  -8    9.79    0.40
   2  -3  -8    9.75    0.40
  -2  -3   8    9.93    0.34
   2  -3  -8    9.52    0.41
   2  -3  -8    9.04    0.31
  -2  -3   8    9.75    0.33
  -2  -3   8   10.06    0.39
   2  -3  -8    9.24    0.40
  -2  -3   8    9.55    0.40
   2   3  -8    9.30    0.42
   2   3  -8    9.74    0.24
  -2   3   8    9.42    0.38
  -2   3   8    9.87    0.53
  -2   3   8    9.97    0.36
   1  -3  -8    2.01    0.19
   1  -3  -8    2.06    0.24
   1  -3  -8    2.10    0.19
   1  -3  -8    1.90    0.20
   1  -3  -8    2.04    0.14
  -1  -3   8    1.91    0.17
  -1  -3   8    2.42    0.22
  -1  -3   8    2.13    0.19
  -1  -3   8    2.02    0.14
  -1   3   8    2.00    0.17
  -1   3   8    2.05    0.19
  -1   3   8    2.20    0.19
   1   3  -8    2.25    0.22
   0  -3   8   12.93    0.33
   0  -3  -8   13.11    0.47
   0  -3  -8   12.86    0.32
   0  -3   8   12.63    0.42
   0  -3  -8   11.73    0.46
   0  -3   8   12.79    0.49
   0  -3   8   12.81    0.45
   0   3  -8   12.90    0.53
   0   3   8   12.92    0.41
   0   3   8   12.31    0.45
   0   3   8   13.56    0.49
   1  -3   8    4.49    0.26
   1  -3   8    4.45    0.31
   1  -3   8    3.98    0.25
  -1  -3  -8    4.22    0.29
  -1  -3  -8    4.24    0.27
   1   3   8    4.22    0.23
  -1   3  -8    4.15    0.31
   1   3   8    4.03    0.29
   2  -3   8    0.38    0.13
  -2  -3  -8    0.57    0.14
   2  -3   8    0.32    0.10
   2   3   8    0.32    0.09
   2   3   8    0.53    0.14
   2   3   8    0.32    0.13
  -7  -4   8    1.25    0.18
   7  -4  -8    0.60    0.16
   7  -4  -8    0.67    0.15
   7  -4  -8    0.97    0.25
   7  -4  -8    0.78    0.13
  -7  -4   8    0.74    0.12
   7   4  -8    1.02    0.30
   7   4  -8    0.58    0.14
  -6  -4   8   11.36    0.43
   6  -4  -8   11.54    0.48
   6  -4  -8   11.61    0.46
   6  -4  -8   10.93    0.38
  -6  -4   8   11.56    0.36
   6   4  -8   11.44    0.48
   6   4  -8   11.06    0.46
  -5  -4   8    2.69    0.22
  -5  -4   8    2.66    0.18
   5  -4  -8    2.63    0.22
  -5  -4   8    2.98    0.23
   5  -4  -8    2.39    0.22
   5  -4  -8    2.72    0.32
   5  -4  -8    2.84    0.24
  -5  -4   8    2.86    0.31
  -5   4   8    2.87    0.15
  -5   4   8    2.67    0.31
   5   4  -8    3.07    0.19
  -5   4   8    3.13    0.19
   5   4  -8    2.61    0.22
   5   4  -8    2.49    0.22
  -4  -4   8    0.22    0.08
   4  -4  -8    0.26    0.11
   4  -4  -8    0.22    0.08
  -4  -4   8    0.10    0.09
   4  -4  -8    0.08    0.09
   4  -4  -8    0.26    0.11
  -4  -4   8    0.17    0.07
   4  -4  -8    0.23    0.10
   4   4  -8    0.05    0.07
  -4   4   8    0.23    0.08
  -4   4   8    0.14    0.08
  -4   4   8    0.17    0.07
  -4   4   8    0.17    0.07
   4   4  -8    0.32    0.07
   3  -4  -8    0.62    0.13
   3  -4  -8    0.86    0.17
   3  -4  -8    0.56    0.11
   3  -4  -8    0.53    0.12
   3  -4  -8    0.58    0.13
  -3  -4   8    0.77    0.14
  -3  -4   8    0.67    0.13
  -3  -4   8    0.68    0.13
  -3  -4   8    0.75    0.15
  -3   4   8    0.47    0.11
   3   4  -8    0.67    0.06
  -3   4   8    0.65    0.11
   3   4  -8    0.61    0.07
  -3   4   8    0.38    0.11
   3   4  -8    0.50    0.14
  -2  -4   8    6.96    0.30
  -2  -4   8    6.79    0.32
  -2  -4   8    6.41    0.33
   2  -4  -8    6.85    0.36
   2  -4  -8    6.89    0.34
   2  -4  -8    5.65    0.32
   2  -4  -8    6.88    0.29
  -2  -4   8    6.77    0.28
  -2   4   8    5.94    0.31
  -2   4   8    6.72    0.30
  -2   4   8    6.83    0.31
   2   4  -8    6.34    0.36
  -2   4   8    6.55    0.30
   1  -4  -8    2.68    0.23
  -1  -4   8    2.85    0.19
  -1  -4   8    2.87    0.20
   1  -4  -8    2.69    0.22
   1  -4  -8    3.54    0.33
  -1  -4   8    3.07    0.24
  -1  -4   8    2.35    0.21
   1  -4  -8    2.67    0.18
  -1   4   8    2.75    0.22
  -1   4   8    2.95    0.22
   1   4  -8    2.85    0.26
  -1   4   8    2.79    0.20
   0  -4   8    3.23    0.24
   0  -4   8    3.08    0.18
   0  -4  -8    2.93    0.23
   0  -4  -8    3.05    0.26
   0  -4   8    3.22    0.25
   0  -4   8    2.91    0.21
   0  -4  -8    2.84    0.17
   0   4   8    3.29    0.25
   0   4  -8    2.90    0.27
   0   4   8    2.86    0.20
  -1  -4  -8   11.56    0.47
  -1  -4  -8   11.53    0.31
   1  -4   8   11.97    0.33
   1  -4   8   11.56    0.45
   1  -4   8   11.99    0.41
   1  -4   8   11.67    0.49
  -1  -4  -8   11.60    0.30
   1   4   8   12.06    0.40
   1   4   8   12.56    0.51
   6  -5  -8    6.06    0.36
  -6  -5   8    5.58    0.27
   6  -5  -8    5.73    0.34
   6  -5  -8    5.54    0.33
  -6   5   8    5.56    0.32
   6   5  -8    4.52    0.36
  -5  -5   8    3.51    0.22
   5  -5  -8    3.01    0.49
   5  -5  -8    3.41    0.27
   5  -5  -8    3.65    0.27
  -5   5   8    3.35    0.19
   5   5  -8    3.58    0.20
   4  -5  -8    3.90    0.62
  -4  -5   8    2.54    0.23
   4  -5  -8    2.26    0.22
  -4  -5   8    2.76    0.21
  -4   5   8    2.38    0.18
   4   5  -8    2.57    0.13
  -4   5   8    2.38    0.14
   3  -5  -8    0.72    0.16
  -3  -5   8    0.65    0.14
  -3  -5   8    0.65    0.13
   3  -5  -8    0.66    0.25
   3  -5  -8    0.73    0.15
  -3   5   8    0.68    0.11
  -3   5   8    0.56    0.14
   2  -5  -8    2.91    0.24
  -2  -5   8    2.55    0.21
   2  -5  -8    2.57    0.20
  -2  -5   8    2.94    0.23
  -2   5   8    2.71    0.19
  -2   5   8    2.58    0.20
   2   5  -8    2.93    0.33
  -1  -5   8    1.67    0.17
   1  -5  -8    1.54    0.27
  -1  -5   8    1.71    0.16
   1  -5  -8    1.70    0.17
   1  -5  -8    1.91    0.20
  -1  -5   8    1.85    0.20
  -1   5   8    1.64    0.18
   0  -5  -8    0.14    0.10
   0  -5  -8    0.05    0.09
   0  -5   8    0.09    0.10
   0  -5   8    0.03    0.08
   0  -5   8   -0.02    0.06
   0  -5  -8    0.12    0.09
   0   5   8    0.00    0.09
  -9   0   9    0.06    0.08
   9   0  -9   -0.04    0.09
  -9   0   9    0.00    0.08
   8   0  -9    0.01    0.08
   8   0  -9    0.05    0.10
  -8   0   9   -0.06    0.07
  -8   0   9    0.06    0.07
   7   0  -9    0.16    0.10
   7   0  -9    0.07    0.08
  -7   0   9    0.12    0.08
  -7   0   9    0.06    0.07
  -7   0   9    0.00    0.06
  -6   0   9    0.72    0.17
   6   0  -9    0.29    0.09
  -6   0   9    0.29    0.09
   6   0  -9    0.43    0.11
  -6   0   9    0.38    0.10
   5   0  -9    0.06    0.07
   5   0  -9    0.10    0.08
  -5   0   9    0.05    0.06
  -5   0   9   -0.07    0.05
   5   0  -9    0.03    0.06
  -5   0   9    0.10    0.07
  -5   0   9    0.13    0.07
  -5   0   9    0.03    0.07
  -4   0   9    0.46    0.10
  -4   0   9    0.50    0.10
  -4   0   9    0.50    0.12
   4   0  -9    0.29    0.09
   4   0  -9    0.34    0.10
   4   0  -9    0.35    0.09
   4   0  -9    0.33    0.09
  -4   0   9    0.42    0.10
  -3   0   9    0.05    0.05
   3   0  -9    0.01    0.05
  -3   0   9    0.15    0.08
  -3   0   9    0.08    0.08
   3   0  -9    0.02    0.05
   3   0  -9    0.01    0.07
  -2   0   9    0.07    0.06
   2   0  -9    0.00    0.06
   2   0  -9    0.04    0.07
  -2   0   9   -0.03    0.06
  -1   0   9   -0.09    0.06
   1   0  -9   -0.04    0.07
   1   0  -9    0.01    0.06
  -1   0   9   -0.06    0.08
  -1   0   9    0.00    0.06
   0   0   9    0.03    0.06
   0   0  -9   -0.04    0.06
   0   0   9    0.03    0.07
   0   0  -9   -0.04    0.06
   0   0   9    0.07    0.08
   1   0   9    0.13    0.08
   1   0   9    0.18    0.09
  -2   0  -9    0.06    0.09
   2   0   9    0.09    0.10
   2   0   9   -0.07    0.07
  -9  -1   9    0.01    0.10
   9  -1  -9    0.18    0.10
  -9  -1   9    0.01    0.07
   9  -1  -9    0.01    0.08
   9   1  -9    0.01    0.09
   9   1  -9    0.17    0.10
  -8  -1   9   11.85    0.45
   8  -1  -9   11.57    0.45
   8  -1  -9   11.19    0.48
   8  -1  -9   12.04    0.49
  -8  -1   9   11.64    0.40
  -8   1   9   11.35    0.44
   8   1  -9   11.39    0.49
  -8   1   9   11.60    0.40
  -7  -1   9    0.62    0.15
  -7  -1   9    0.63    0.08
  -7  -1   9    0.76    0.15
   7  -1  -9    0.41    0.13
   7  -1  -9    0.98    0.16
  -7  -1   9    0.85    0.16
   7  -1  -9    0.52    0.11
   7   1  -9    0.73    0.15
   7   1  -9    0.59    0.13
  -7   1   9    0.56    0.11
  -7   1   9    0.52    0.12
  -6  -1   9    1.03    0.20
  -6  -1   9    0.22    0.11
   6  -1  -9    0.66    0.15
  -6  -1   9    0.61    0.13
   6  -1  -9    0.53    0.12
   6  -1  -9    0.63    0.13
  -6  -1   9    0.48    0.09
   6   1  -9    0.61    0.15
  -6   1   9    0.63    0.12
   6   1  -9    0.63    0.15
  -6   1   9    0.68    0.13
  -6   1   9    0.59    0.10
  -5  -1   9    9.75    0.33
   5  -1  -9    9.08    0.40
   5  -1  -9    9.24    0.37
  -5  -1   9    9.46    0.33
   5  -1  -9    9.51    0.36
   5  -1  -9    9.75    0.42
  -5  -1   9    9.20    0.38
  -5  -1   9    9.36    0.36
   5   1  -9   10.09    0.59
  -5   1   9    8.65    0.37
   5   1  -9    9.90    0.38
  -5   1   9    9.56    0.33
  -5   1   9    9.58    0.32
  -5   1   9    8.60    0.45
  -4  -1   9   11.44    0.39
   4  -1  -9   11.67    0.45
   4  -1  -9   11.59    0.46
   4  -1  -9   11.80    0.41
  -4  -1   9   11.52    0.38
  -4  -1   9   11.61    0.38
  -4  -1   9   11.96    0.56
  -4  -1   9   11.37    0.43
   4  -1  -9   12.32    0.40
  -4   1   9   11.89    0.38
  -4   1   9   10.97    0.40
   4   1  -9   11.62    0.36
   4   1  -9   11.68    0.39
  -4   1   9   11.61    0.52
  -4   1   9   10.88    0.42
   4   1  -9   11.39    0.46
  -3  -1   9    1.74    0.23
   3  -1  -9    1.75    0.14
  -3  -1   9    1.71    0.17
  -3  -1   9    1.81    0.18
  -3  -1   9    1.83    0.26
   3  -1  -9    1.43    0.18
   3  -1  -9    1.83    0.19
   3   1  -9    1.74    0.14
  -3   1   9    1.50    0.18
  -3   1   9    2.03    0.18
   3   1  -9    1.98    0.15
  -3   1   9    1.78    0.16
   3   1  -9    1.75    0.26
  -2  -1   9   11.10    0.45
  -2  -1   9   10.02    0.53
   2  -1  -9   11.75    0.44
  -2  -1   9   11.37    0.40
   2  -1  -9   11.59    0.49
   2  -1  -9   12.00    0.33
  -2  -1   9   11.34    0.31
  -2  -1   9   11.86    0.57
  -2   1   9   10.54    0.48
  -2   1   9   11.12    0.40
  -2   1   9   12.02    0.47
   2   1  -9   11.97    0.36
   2   1  -9   11.27    0.53
   2   1  -9   11.80    0.33
  -1  -1   9   18.74    0.55
  -1  -1   9   19.11    0.86
   1  -1  -9   17.89    0.42
  -1  -1   9   19.15    0.63
  -1  -1   9   18.82    0.57
   1  -1  -9   18.65    0.66
   1  -1  -9   19.55    0.56
  -1   1   9   18.54    0.56
  -1   1   9   17.62    0.57
   1   1  -9   18.52    0.66
   1   1  -9   18.98    0.58
   0  -1  -9   13.04    0.43
   0  -1  -9   12.01    0.54
   0  -1   9   13.24    0.47
   0  -1   9   11.87    0.46
   0  -1  -9   12.87    0.46
   0  -1   9   12.62    0.46
   0  -1   9   12.75    0.53
   0   1   9   12.88    0.48
   0   1  -9   12.70    0.58
   0   1  -9   12.68    0.39
   0   1   9   12.44    0.48
   0   1   9   12.62    0.43
   1  -1   9    0.70    0.14
   1  -1   9    0.50    0.12
   1  -1   9    0.75    0.15
  -1  -1  -9    0.99    0.18
   1  -1   9    0.59    0.15
   1   1   9    0.66    0.13
   1   1   9    0.74    0.16
   2  -1   9   15.55    0.64
  -2  -1  -9   15.25    0.53
   2  -1   9   16.36    0.59
   2   1   9   15.09    0.48
   2   1   9   15.75    0.60
  -2   1  -9   15.17    0.44
   8  -2  -9    0.75    0.18
  -8  -2   9    0.59    0.11
   8  -2  -9    0.40    0.14
   8  -2  -9    0.36    0.12
   8  -2  -9    0.46    0.13
  -8  -2   9    0.35    0.13
   8   2  -9    0.28    0.12
   8   2  -9    0.44    0.19
  -7  -2   9    1.07    0.18
  -7  -2   9    1.32    0.15
   7  -2  -9    1.25    0.19
  -7  -2   9    1.64    0.22
  -7  -2   9    1.25    0.11
   7  -2  -9    1.22    0.19
   7  -2  -9    1.39    0.22
   7  -2  -9    0.93    0.16
   7   2  -9    1.50    0.21
  -7   2   9    1.14    0.17
  -7   2   9    1.06    0.19
   6  -2  -9    7.12    0.35
  -6  -2   9    6.94    0.32
   6  -2  -9    6.95    0.33
  -6  -2   9    7.22    0.26
   6  -2  -9    7.39    0.38
   6  -2  -9    6.70    0.34
  -6  -2   9    7.27    0.36
   6  -2  -9    7.39    0.37
  -6  -2   9    6.73    0.50
   6   2  -9    7.07    0.36
   6   2  -9    7.12    0.35
  -6   2   9    7.45    0.32
  -6   2   9    7.00    0.32
  -6   2   9    7.20    0.25
  -6   2   9    7.45    0.23
  -5  -2   9   33.77    0.85
   5  -2  -9   32.95    0.78
   5  -2  -9   34.80    0.79
  -5  -2   9   35.00    0.81
  -5  -2   9   34.12    0.78
   5  -2  -9   34.67    0.85
   5  -2  -9   34.48    0.87
   5  -2  -9   33.70    0.83
  -5  -2   9   33.64    0.70
  -5   2   9   35.19    0.69
  -5   2   9   32.82    0.79
  -5   2   9   32.35    0.75
   5   2  -9   34.66    0.81
   5   2  -9   33.98    0.86
  -4  -2   9   15.65    0.54
   4  -2  -9   15.13    0.53
  -4  -2   9   15.84    0.45
  -4  -2   9   15.75    0.52
  -4  -2   9   15.99    0.47
  -4  -2   9   15.81    0.46
   4  -2  -9   17.07    0.70
   4  -2  -9   15.71    0.55
   4  -2  -9   15.76    0.47
   4   2  -9   14.41    0.54
   4   2  -9   15.05    0.48
  -4   2   9   15.36    0.48
  -4   2   9   15.73    0.44
   4   2  -9   15.42    0.40
   3  -2  -9    0.27    0.12
   3  -2  -9    0.35    0.12
  -3  -2   9    0.08    0.07
  -3  -2   9    0.21    0.09
  -3  -2   9    0.19    0.07
   3  -2  -9    0.24    0.08
  -3  -2   9    0.23    0.10
   3  -2  -9    0.27    0.10
  -3  -2   9    0.19    0.09
  -3   2   9    0.28    0.10
  -3   2   9    0.19    0.07
   3   2  -9    0.36    0.09
  -3   2   9    0.15    0.07
   3   2  -9    0.17    0.07
   3   2  -9    0.15    0.10
   2  -2  -9    5.50    0.34
   2  -2  -9    5.75    0.32
  -2  -2   9    6.62    0.34
  -2  -2   9    5.42    0.31
   2  -2  -9    5.46    0.30
  -2  -2   9    5.62    0.23
   2  -2  -9    5.67    0.23
  -2  -2   9    5.99    0.32
  -2  -2   9    5.99    0.29
   2   2  -9    5.91    0.23
  -2   2   9    5.96    0.30
   2   2  -9    5.25    0.34
  -2   2   9    5.70    0.28
  -2   2   9    5.48    0.30
  -1  -2   9   25.04    0.69
  -1  -2   9   24.15    0.48
  -1  -2   9   24.08    0.63
   1  -2  -9   24.80    0.68
   1  -2  -9   25.28    0.78
  -1  -2   9   24.00    0.68
  -1  -2   9   24.23    0.71
   1  -2  -9   24.23    0.47
  -1   2   9   24.55    0.62
   1   2  -9   23.57    0.76
  -1   2   9   23.34    0.68
  -1   2   9   24.89    0.67
   1   2  -9   25.30    0.52
   0  -2  -9    6.53    0.34
   0  -2   9    6.38    0.38
   0  -2   9    7.23    0.54
   0  -2  -9    6.41    0.50
   0  -2   9    6.10    0.32
   0  -2  -9    6.31    0.32
   0  -2   9    6.55    0.32
   0   2   9    6.15    0.29
   0   2   9    6.05    0.34
   0   2  -9    6.22    0.22
   1  -2   9    0.78    0.22
  -1  -2  -9    0.90    0.19
   1  -2   9    1.29    0.25
   1  -2   9    1.02    0.18
  -1  -2  -9    0.77    0.14
  -1   2  -9    0.85    0.10
   1   2   9    0.91    0.15
   1   2   9    0.64    0.21
   7  -3  -9    7.83    0.35
   7  -3  -9    7.65    0.42
   7  -3  -9    7.67    0.42
  -7  -3   9    8.30    0.32
  -7  -3   9    8.46    0.37
   7  -3  -9    8.09    0.39
  -7   3   9    7.98    0.32
   7   3  -9    8.12    0.36
   7   3  -9    8.05    0.40
   6  -3  -9    1.72    0.19
  -6  -3   9    1.61    0.23
   6  -3  -9    1.44    0.17
  -6  -3   9    1.60    0.14
  -6  -3   9    1.95    0.19
   6  -3  -9    1.79    0.20
   6  -3  -9    1.50    0.22
  -6   3   9    1.45    0.16
   6   3  -9    1.18    0.16
   6   3  -9    1.73    0.20
  -6   3   9    1.32    0.11
  -5  -3   9    4.82    0.29
  -5  -3   9    4.83    0.24
  -5  -3   9    4.82    0.32
   5  -3  -9    4.40    0.30
   5  -3  -9    5.12    0.31
   5  -3  -9    4.32    0.27
   5  -3  -9    4.87    0.28
   5   3  -9    4.61    0.28
  -5   3   9    4.60    0.27
  -5   3   9    4.65    0.21
   5   3  -9    4.24    0.22
  -5   3   9    4.55    0.21
   4  -3  -9    0.09    0.07
   4  -3  -9    0.17    0.09
   4  -3  -9    0.25    0.12
  -4  -3   9    0.21    0.09
  -4  -3   9    0.19    0.10
  -4  -3   9    0.24    0.10
   4  -3  -9    0.22    0.11
  -4  -3   9    0.17    0.09
  -4  -3   9    0.15    0.11
   4  -3  -9    0.38    0.12
   4   3  -9    0.14    0.07
   4   3  -9    0.25    0.10
   4   3  -9    0.30    0.12
  -4   3   9    0.22    0.10
  -4   3   9    0.29    0.10
   4   3  -9    0.17    0.06
  -4   3   9    0.29    0.09
  -4   3   9    0.14    0.07
  -3  -3   9    0.33    0.13
  -3  -3   9    0.67    0.14
  -3  -3   9    0.72    0.15
   3  -3  -9    0.61    0.16
   3  -3  -9    0.34    0.12
   3  -3  -9    0.68    0.17
   3  -3  -9    0.65    0.12
  -3  -3   9    0.64    0.13
  -3  -3   9    0.71    0.14
   3  -3  -9    0.84    0.17
  -3   3   9    0.59    0.13
   3   3  -9    0.74    0.10
   3   3  -9    0.85    0.17
  -3   3   9    0.61    0.12
  -3   3   9    0.51    0.11
  -3   3   9    0.76    0.18
   2  -3  -9    0.00    0.08
   2  -3  -9   -0.13    0.07
  -2  -3   9    0.02    0.07
  -2  -3   9   -0.01    0.07
  -2  -3   9    0.00    0.07
   2  -3  -9    0.03    0.08
   2  -3  -9    0.14    0.07
  -2  -3   9    0.14    0.09
  -2   3   9    0.19    0.09
   2   3  -9   -0.01    0.07
  -2   3   9    0.10    0.07
   2   3  -9    0.17    0.06
  -1  -3   9    0.58    0.13
  -1  -3   9    0.44    0.09
   1  -3  -9    0.51    0.14
  -1  -3   9    0.45    0.13
   1  -3  -9    0.24    0.11
   1  -3  -9    0.41    0.08
  -1  -3   9    0.50    0.15
   1  -3  -9    0.72    0.22
  -1   3   9    0.50    0.14
  -1   3   9    0.32    0.11
   0  -3   9    1.76    0.27
   0  -3  -9    1.79    0.24
   0  -3   9    1.70    0.11
   0  -3   9    1.78    0.18
   0   3   9    2.03    0.22
   0   3   9    1.48    0.17
   1  -3   9    5.73    0.31
   1  -3   9    5.88    0.38
  -1  -3  -9    6.16    0.33
   1   3   9    6.33    0.31
   1   3   9    6.02    0.37
  -6  -4   9    0.21    0.09
   6  -4  -9    0.19    0.11
   6  -4  -9    0.19    0.10
   6  -4  -9    0.30    0.13
   6  -4  -9    0.27    0.09
   6   4  -9    0.22    0.12
  -6   4   9    0.14    0.07
  -5  -4   9    1.22    0.15
   5  -4  -9    1.31    0.19
   5  -4  -9    1.53    0.37
  -5  -4   9    1.57    0.21
   5  -4  -9    0.93    0.18
   5  -4  -9    1.53    0.18
  -5   4   9    1.29    0.12
  -5   4   9    1.56    0.18
   5   4  -9    1.45    0.21
   5   4  -9    1.60    0.14
  -5   4   9    1.48    0.14
   4  -4  -9    0.90    0.15
   4  -4  -9    1.05    0.18
  -4  -4   9    0.79    0.14
   4  -4  -9    1.15    0.21
  -4  -4   9    0.97    0.16
   4  -4  -9    1.14    0.28
  -4   4   9    0.85    0.15
   4   4  -9    0.92    0.09
   4   4  -9    0.91    0.12
  -4   4   9    0.85    0.13
   3  -4  -9   12.50    0.49
   3  -4  -9   13.39    0.52
  -3  -4   9   12.93    0.46
   3  -4  -9   14.01    0.60
  -3  -4   9   12.76    0.44
   3  -4  -9   12.99    0.44
  -3  -4   9   13.50    0.43
  -3   4   9   13.00    0.41
  -3   4   9   13.61    0.54
  -2  -4   9    3.92    0.24
  -2  -4   9    4.06    0.23
   2  -4  -9    4.12    0.28
   2  -4  -9    4.48    0.24
   2  -4  -9    4.32    0.35
  -2  -4   9    3.85    0.26
  -2   4   9    4.04    0.25
  -2   4   9    4.37    0.26
   1  -4  -9    1.95    0.15
   1  -4  -9    1.79    0.29
  -1  -4   9    2.10    0.19
  -1  -4   9    1.83    0.21
  -1  -4   9    1.71    0.15
  -1   4   9    1.96    0.20
  -8   0  10    0.45    0.15
   8   0 -10    0.56    0.16
  -7   0  10    0.44    0.20
   7   0 -10    0.44    0.13
  -7   0  10    0.43    0.14
  -7   0  10    0.43    0.08
   6   0 -10    8.74    0.38
  -6   0  10    8.28    0.42
  -6   0  10    8.31    0.39
   6   0 -10    7.61    0.33
   6   0 -10    8.21    0.41
  -6   0  10    8.47    0.29
  -5   0  10    9.75    0.44
   5   0 -10    9.18    0.45
  -5   0  10    9.15    0.35
   5   0 -10    9.01    0.37
   5   0 -10    9.55    0.38
  -5   0  10    9.86    0.36
   4   0 -10   19.73    0.68
   4   0 -10   19.59    0.55
  -4   0  10   20.49    0.55
   4   0 -10   20.07    0.54
  -4   0  10   20.05    0.72
  -4   0  10   20.03    0.58
  -4   0  10   22.73    0.88
   3   0 -10    9.92    0.33
   3   0 -10   10.04    0.38
  -3   0  10   10.02    0.39
   3   0 -10    9.92    0.49
  -3   0  10   10.02    0.43
  -2   0  10    1.25    0.23
  -2   0  10    0.46    0.11
   2   0 -10    0.73    0.10
   1   0 -10    0.08    0.08
  -1   0  10    0.14    0.08
  -1   0  10    0.15    0.12
   0   0  10    2.06    0.22
   0   0  10    2.31    0.26
   0   0 -10    2.80    0.22
   8  -1 -10    2.06    0.29
   8  -1 -10    1.83    0.27
  -8   1  10    1.81    0.23
   8   1 -10    1.87    0.27
   7  -1 -10    1.69    0.25
   7  -1 -10    1.45    0.24
  -7  -1  10    1.33    0.11
   7  -1 -10    1.55    0.24
   7   1 -10    1.51    0.21
  -7   1  10    1.62    0.21
  -6  -1  10   16.72    0.44
   6  -1 -10   17.84    0.66
   6  -1 -10   16.81    0.55
   6  -1 -10   17.64    0.61
  -6  -1  10   16.15    0.52
   6  -1 -10   17.35    0.60
  -6   1  10   17.13    0.57
   6   1 -10   16.96    0.56
  -6   1  10   17.63    0.48
  -6   1  10   17.17    0.44
   5  -1 -10   20.98    0.60
  -5  -1  10   21.00    0.55
   5  -1 -10   20.21    0.65
  -5  -1  10   21.97    0.56
  -5  -1  10   19.85    0.56
   5  -1 -10   21.07    0.68
   5  -1 -10   21.23    0.59
   5   1 -10   21.03    0.60
  -5   1  10   21.66    0.57
  -5   1  10   20.91    0.54
  -5   1  10   20.32    0.65
   5   1 -10   21.04    0.55
   4  -1 -10    3.10    0.20
   4  -1 -10    2.82    0.22
  -4  -1  10    3.28    0.22
  -4  -1  10    2.85    0.22
   4  -1 -10    2.99    0.25
   4  -1 -10    2.59    0.25
  -4  -1  10    2.84    0.19
   4   1 -10    2.93    0.21
  -4   1  10    2.57    0.21
  -4   1  10    3.00    0.21
   3  -1 -10    8.24    0.43
   3  -1 -10    9.49    0.32
  -3  -1  10    8.92    0.36
  -3  -1  10    8.51    0.30
   3  -1 -10    8.07    0.39
  -3  -1  10    8.20    0.38
  -3   1  10    8.75    0.40
   3   1 -10    8.77    0.32
   3   1 -10    8.70    0.33
  -3   1  10    8.60    0.35
  -2  -1  10   42.48    0.91
   2  -1 -10   42.39    0.74
  -2  -1  10   41.89    1.01
   2  -1 -10   41.84    0.96
  -2   1  10   42.55    0.93
   2   1 -10   42.33    0.85
  -1  -1  10   17.26    0.63
   1  -1 -10   17.98    0.57
  -1  -1  10   20.83    0.90
   1   1 -10   18.60    0.51
  -1   1  10   18.34    0.59
   0  -1 -10    0.53    0.14
   0  -1  10    0.48    0.15
   0  -1  10    0.32    0.13
   0   1  10    0.23    0.11
   0   1 -10    0.39    0.11
   7  -2 -10    1.81    0.21
  -7  -2  10    1.63    0.13
   7  -2 -10    2.36    0.25
   7  -2 -10    1.40    0.20
  -7   2  10    1.71    0.22
   7   2 -10    1.69    0.22
   6  -2 -10   10.20    0.45
   6  -2 -10   10.63    0.43
  -6  -2  10   10.03    0.33
  -6  -2  10   10.26    0.42
  -6   2  10   10.60    0.36
  -6   2  10   10.12    0.34
  -6   2  10    9.86    0.34
  -6   2  10    9.53    0.43
   6   2 -10   10.18    0.44
  -5  -2  10    2.17    0.18
   5  -2 -10    2.21    0.23
  -5  -2  10    1.76    0.18
   5  -2 -10    1.98    0.22
   5  -2 -10    2.14    0.19
  -5  -2  10    2.19    0.19
   5   2 -10    2.53    0.21
  -5   2  10    2.08    0.19
  -5   2  10    2.16    0.17
   4  -2 -10    1.57    0.21
   4  -2 -10    2.00    0.21
  -4  -2  10    1.51    0.17
  -4  -2  10    1.57    0.16
  -4  -2  10    1.88    0.18
   4  -2 -10    1.80    0.27
   4  -2 -10    2.08    0.18
   4   2 -10    1.79    0.17
  -4   2  10    1.57    0.17
   4   2 -10    1.73    0.15
   3  -2 -10    3.06    0.26
   3  -2 -10    3.63    0.27
  -3  -2  10    3.32    0.25
  -3  -2  10    3.45    0.20
  -3  -2  10    3.37    0.23
   3  -2 -10    3.24    0.28
   3  -2 -10    3.43    0.20
  -3   2  10    3.58    0.24
   3   2 -10    3.53    0.21
   3   2 -10    3.54    0.19
   2  -2 -10   16.28    0.64
  -2  -2  10   16.43    0.41
   2  -2 -10   16.10    0.40
   2  -2 -10   17.03    0.58
  -2  -2  10   16.10    0.57
  -2  -2  10   16.08    0.55
  -2   2  10   15.93    0.52
   2   2 -10   16.85    0.44
  -1  -2  10   18.39    0.57
  -1  -2  10   17.43    0.92
   1  -2 -10   18.95    0.60
   1   2 -10   19.26    0.45
  -1   2  10   19.66    0.64
   6  -3 -10    0.19    0.16
   6  -3 -10    0.17    0.12
   6  -3 -10    0.32    0.13
  -6  -3  10    0.19    0.08
   6  -3 -10    0.19    0.11
  -6   3  10    0.33    0.09
  -6   3  10    0.16    0.07
   6   3 -10    0.42    0.11
   6   3 -10    0.21    0.11
   5  -3 -10    4.12    0.45
   5  -3 -10    4.93    0.29
   5  -3 -10    4.57    0.34
  -5  -3  10    4.19    0.27
  -5  -3  10    4.47    0.25
   5  -3 -10    4.58    0.32
  -5   3  10    4.58    0.23
  -5   3  10    3.50    0.21
   5   3 -10    5.19    0.25
   5   3 -10    5.07    0.30
   5   3 -10    4.29    0.22
  -4  -3  10    0.66    0.13
  -4  -3  10    0.36    0.11
  -4  -3  10    0.69    0.14
   4  -3 -10    0.42    0.12
   4  -3 -10    0.37    0.14
   4  -3 -10    0.52    0.17
  -4   3  10    0.80    0.13
   4   3 -10    0.63    0.16
   4   3 -10    0.69    0.12
  -4   3  10    0.47    0.12
   4   3 -10    0.39    0.10
   3  -3 -10    1.19    0.14
  -3  -3  10    1.43    0.18
  -3  -3  10    1.20    0.18
   3  -3 -10    0.91    0.25
   3  -3 -10    1.36    0.24
  -3  -3  10    1.23    0.18
  -3   3  10    1.39    0.17
   3   3 -10    1.15    0.11
  -3   3  10    1.15    0.15
  -2  -3  10    0.00    0.06
   2  -3 -10    0.15    0.07
  -2  -3  10    0.02    0.09
  -2  -3  10    0.00    0.08
  -2   3  10   -0.03    0.09
  -6   0  11   -0.03    0.08
  -6   0  11   -0.04    0.07
   6   0 -11   -0.09    0.08
   5   0 -11    0.19    0.10
  -5   0  11    0.05    0.08
  -5   0  11   -0.06    0.07
   5   0 -11    0.10    0.08
  -4   0  11   -0.01    0.08
   4   0 -11   -0.02    0.07
  -4   0  11   -0.03    0.08
   4   0 -11   -0.13    0.08
   5  -1 -11    1.74    0.24
   5  -1 -11    1.86    0.18
  -5  -1  11    2.01    0.20
  -5  -1  11    1.66    0.18
  -5   1  11    1.91    0.20
  -5   1  11    1.98    0.20
   5   1 -11    2.07    0.20
   5   1 -11    2.09    0.19
   4  -1 -11    3.23    0.21
   4  -1 -11    3.59    0.28
  -4  -1  11    3.23    0.25
  -4  -1  11    3.10    0.23
  -4   1  11    3.48    0.27
   4   1 -11    3.30    0.23
   4   1 -11    3.29    0.22
  -4   1  11    3.08    0.32
  -3  -1  11    0.12    0.10
   3  -1 -11    0.15    0.08
   3  -1 -11    0.07    0.16
  -3  -1  11   -0.03    0.07
   3   1 -11   -0.06    0.08
  -3   1  11    0.09    0.09
   3   1 -11    0.14    0.09
  -3   1  11    0.02    0.09
   0   0   0    0.00    0.00
;
_shelx_hkl_checksum              58683
_olex2_date_sample_data_collection 2019-04-08
_olex2_date_sample_submission    2019-04-05
_olex2_exptl_crystal_mounting_method
'Mounted using Krytox oil on a Cryo-Loop with (5 -2 1) face roughly perpendicular to the spindle axis'
_olex2_submission_original_sample_id D64U
_olex2_submission_special_instructions 'No special instructions were received'
loop_
_space_group_symop_operation_xyz
'x, y, z'
'-x, y+1/2, -z+1/2'
'-x, -y, -z'
'x, -y-1/2, z-1/2'
loop_
_atom_site_label
_atom_site_type_symbol
_atom_site_fract_x
_atom_site_fract_y
_atom_site_fract_z
_atom_site_U_iso_or_equiv
_atom_site_adp_type
_atom_site_occupancy
_atom_site_site_symmetry_order
_atom_site_calc_flag
_atom_site_refinement_flags_posn
_atom_site_refinement_flags_adp
_atom_site_refinement_flags_occupancy
_atom_site_disorder_assembly
_atom_site_disorder_group
O1 O 0.1635(2) 0.4336(3) 0.1462(2) 0.0435(5) Uani 0.5 1 d D . P A -1
C2 C 0.1518(6) 0.6003(6) 0.2513(6) 0.0325(8) Uani 0.5 1 d D . P A -1
H2 H 0.035002 0.673975 0.205813 0.039 Uiso 0.5 1 calc R U P A -1
C3 C 0.2682(12) 0.680(2) 0.4018(14) 0.0245(10) Uani 0.5 1 d D . P A -1
H3 H 0.221150 0.797901 0.446029 0.029 Uiso 0.5 1 calc R U P A -1
C4 C 0.4612(13) 0.613(2) 0.5128(13) 0.0223(14) Uani 0.5 1 d D . P A -1
C5 C 0.5723(17) 0.743(3) 0.6525(18) 0.0282(7) Uani 0.5 1 d D . P A -1
H5 H 0.524889 0.880041 0.672017 0.034 Uiso 0.5 1 calc R U P A -1
C6 C 0.7517(5) 0.6789(6) 0.7652(5) 0.0301(7) Uani 0.5 1 d D . P A -1
H6 H 0.824401 0.773974 0.858047 0.036 Uiso 0.5 1 calc R U P A -1
C7 C 0.8245(6) 0.4809(6) 0.7441(5) 0.0308(7) Uani 0.5 1 d D . P A -1
H7 H 0.946988 0.437273 0.819925 0.037 Uiso 0.5 1 calc R U P A -1
C8 C 0.7122(12) 0.346(2) 0.6075(13) 0.0245(10) Uani 0.5 1 d D . P A -1
H8 H 0.758084 0.205661 0.593116 0.029 Uiso 0.5 1 calc R U P A -1
C9 C 0.5346(11) 0.410(2) 0.4908(12) 0.0211(15) Uani 0.5 1 d D . P A -1
C10 C 0.4339(17) 0.241(3) 0.3572(18) 0.0282(7) Uani 0.5 1 d D . P A -1
H10 H 0.491598 0.099962 0.376979 0.034 Uiso 0.5 1 calc R U P A -1
C11 C 0.2774(6) 0.2550(6) 0.2157(6) 0.0313(8) Uani 0.5 1 d D . P A -1
H11 H 0.237648 0.120965 0.152300 0.038 Uiso 0.5 1 calc R U P A -1
loop_
_atom_site_aniso_label
_atom_site_aniso_U_11
_atom_site_aniso_U_22
_atom_site_aniso_U_33
_atom_site_aniso_U_23
_atom_site_aniso_U_13
_atom_site_aniso_U_12
O1 0.0405(10) 0.0453(10) 0.0314(9) -0.0083(9) 0.0015(7) 0.0046(8)
C2 0.0283(14) 0.038(2) 0.0316(14) -0.0021(16) 0.0129(11) 0.0014(14)
C3 0.0233(14) 0.026(3) 0.0260(10) 0.0001(8) 0.0117(10) 0.0095(14)
C4 0.030(2) 0.0185(18) 0.025(2) 0.0027(15) 0.019(2) 0.0067(14)
C5 0.0294(8) 0.0336(17) 0.0227(12) -0.0035(12) 0.0117(6) 0.0002(7)
C6 0.0255(15) 0.035(2) 0.0237(14) 0.0005(14) 0.0043(11) -0.0049(13)
C7 0.0239(13) 0.041(2) 0.0243(12) -0.0018(16) 0.0060(9) -0.0029(14)
C8 0.0233(14) 0.026(3) 0.0260(10) 0.0001(8) 0.0117(10) 0.0095(14)
C9 0.018(2) 0.027(3) 0.0127(18) -0.0036(16) 0.0013(17) -0.0031(17)
C10 0.0294(8) 0.0336(17) 0.0227(12) -0.0035(12) 0.0117(6) 0.0002(7)
C11 0.0285(15) 0.034(2) 0.0323(15) -0.0035(14) 0.0135(11) -0.0040(13)
loop_
_atom_type_symbol
_atom_type_description
_atom_type_scat_dispersion_real
_atom_type_scat_dispersion_imag
_atom_type_scat_source
C C 0.0033 0.0016 'International Tables Vol C Tables 4.2.6.8 and 6.1.1.4'
H H 0.0000 0.0000 'International Tables Vol C Tables 4.2.6.8 and 6.1.1.4'
O O 0.0106 0.0060 'International Tables Vol C Tables 4.2.6.8 and 6.1.1.4'
loop_
_exptl_crystal_face_index_h
_exptl_crystal_face_index_k
_exptl_crystal_face_index_l
_exptl_crystal_face_perp_dist
2.00 3.00 -2.00 0.0860
-2.00 -3.00 2.00 0.1090
3.00 1.00 3.00 0.1960
-3.00 0.00 -2.00 0.2450
4.00 -3.00 -4.00 0.0710
-4.00 3.00 4.00 0.0670
-3.00 -4.00 -1.00 0.1690
1.00 -4.00 -1.00 0.0880
-4.00 0.00 -1.00 0.2320
-4.00 1.00 4.00 0.0960
3.00 2.00 -3.00 0.0850
-3.00 -2.00 3.00 0.1140
loop_
_geom_angle_atom_site_label_1
_geom_angle_atom_site_label_2
_geom_angle_atom_site_label_3
_geom_angle
_geom_angle_site_symmetry_1
_geom_angle_site_symmetry_3
_geom_angle_publ_flag
C2 O1 C11 120.6(3) . . ?
O1 C2 H2 113.3 . . ?
C3 C2 O1 133.4(5) . . ?
C3 C2 H2 113.3 . . ?
C2 C3 H3 115.0 . . ?
C2 C3 C4 129.9(8) . . ?
C4 C3 H3 115.0 . . ?
C5 C4 C3 120.6(8) . . ?
C5 C4 C9 117.2(6) . . ?
C9 C4 C3 121.9(6) . . ?
C4 C5 H5 119.0 . . ?
C4 C5 C6 122.0(10) . . ?
C6 C5 H5 119.0 . . ?
C5 C6 H6 119.5 . . ?
C7 C6 C5 121.1(7) . . ?
C7 C6 H6 119.5 . . ?
C6 C7 H7 121.3 . . ?
C6 C7 C8 117.4(5) . . ?
C8 C7 H7 121.3 . . ?
C7 C8 H8 118.9 . . ?
C7 C8 C9 122.3(8) . . ?
C9 C8 H8 118.9 . . ?
C4 C9 C10 125.5(5) . . ?
C8 C9 C4 120.0(6) . . ?
C8 C9 C10 114.4(7) . . ?
C9 C10 H10 114.7 . . ?
C11 C10 C9 130.7(10) . . ?
C11 C10 H10 114.7 . . ?
O1 C11 H11 115.1 . . ?
C10 C11 O1 129.8(8) . . ?
C10 C11 H11 115.1 . . ?
loop_
_geom_bond_atom_site_label_1
_geom_bond_atom_site_label_2
_geom_bond_distance
_geom_bond_site_symmetry_2
_geom_bond_publ_flag
O1 C2 1.371(4) . ?
O1 C11 1.372(4) . ?
C2 H2 0.9500 . ?
C2 C3 1.313(7) . ?
C3 H3 0.9500 . ?
C3 C4 1.477(8) . ?
C4 C5 1.388(8) . ?
C4 C9 1.400(4) . ?
C5 H5 0.9500 . ?
C5 C6 1.396(8) . ?
C6 H6 0.9500 . ?
C6 C7 1.371(4) . ?
C7 H7 0.9500 . ?
C7 C8 1.392(7) . ?
C8 H8 0.9500 . ?
C8 C9 1.395(7) . ?
C9 C10 1.485(9) . ?
C10 H10 0.9500 . ?
C10 C11 1.320(7) . ?
C11 H11 0.9500 . ?
loop_
_geom_torsion_atom_site_label_1
_geom_torsion_atom_site_label_2
_geom_torsion_atom_site_label_3
_geom_torsion_atom_site_label_4
_geom_torsion
_geom_torsion_site_symmetry_1
_geom_torsion_site_symmetry_2
_geom_torsion_site_symmetry_3
_geom_torsion_site_symmetry_4
_geom_torsion_publ_flag
O1 C2 C3 C4 1(2) . . . . ?
C2 O1 C11 C10 -29.1(14) . . . . ?
C2 C3 C4 C5 168.5(17) . . . . ?
C2 C3 C4 C9 -17(2) . . . . ?
C3 C4 C5 C6 176.5(15) . . . . ?
C3 C4 C9 C8 -174.8(19) . . . . ?
C3 C4 C9 C10 0.6(13) . . . . ?
C4 C5 C6 C7 -1(2) . . . . ?
C4 C9 C10 C11 14(3) . . . . ?
C5 C4 C9 C8 0.4(13) . . . . ?
C5 C4 C9 C10 176(2) . . . . ?
C5 C6 C7 C8 -0.6(14) . . . . ?
C6 C7 C8 C9 2.4(17) . . . . ?
C7 C8 C9 C4 -2.3(17) . . . . ?
C7 C8 C9 C10 -178.2(14) . . . . ?
C8 C9 C10 C11 -169.9(18) . . . . ?
C9 C4 C5 C6 1(2) . . . . ?
C9 C10 C11 O1 2(3) . . . . ?
C11 O1 C2 C3 28.4(12) . . . . ?
