#------------------------------------------------------------------------------
#$Date: 2020-04-07 01:44:57 +0300 (Tue, 07 Apr 2020) $
#$Revision: 250405 $
#$URL: file:///home/coder/svn-repositories/cod/cif/4/13/46/4134614.cif $
#------------------------------------------------------------------------------
#
# This file is available in the Crystallography Open Database (COD),
# http://www.crystallography.net/
#
# All data on this site have been placed in the public domain by the
# contributors.
#
data_4134614
loop_
_publ_author_name
'Deng, Bin-Bin'
'Xu, Chu-Chu'
'Cheng, Ting-Ting'
'Yang, Yi-Ting'
'Hu, Yan-Ting'
'Wang, Pan'
'He, Wen-Hui'
'Yang, Meng-Juan'
'Liao, Wei-Qiang'
_publ_section_title
;
 Homochiral Nickel Nitrite ABX<sub>3</sub> (X =
 NO<sub>2</sub><sup>-</sup>) Perovskite Ferroelectrics.
;
_journal_name_full               'Journal of the American Chemical Society'
_journal_paper_doi               10.1021/jacs.0c02580
_journal_year                    2020
_chemical_absolute_configuration rm
_chemical_formula_moiety         'N3 Ni O6, C8 H15 F N O'
_chemical_formula_sum            'C8 H15 F N4 Ni O7'
_chemical_formula_weight         356.93
_space_group_crystal_system      monoclinic
_space_group_IT_number           4
_space_group_name_Hall           'P 2yb'
_space_group_name_H-M_alt        'P 1 21 1'
_atom_sites_solution_hydrogens   geom
_audit_creation_method           SHELXL-2014/7
_cell_angle_alpha                90
_cell_angle_beta                 113.921(2)
_cell_angle_gamma                90
_cell_formula_units_Z            2
_cell_length_a                   9.9112(2)
_cell_length_b                   6.87710(10)
_cell_length_c                   10.4391(2)
_cell_measurement_reflns_used    3218
_cell_measurement_temperature    293(2)
_cell_measurement_theta_max      75.9900
_cell_measurement_theta_min      4.8750
_cell_volume                     650.42(2)
_computing_cell_refinement       'CrysAlisPro 1.171.39.46 (Rigaku OD, 2018)'
_computing_data_collection       'CrysAlisPro 1.171.39.46 (Rigaku OD, 2018)'
_computing_data_reduction        'CrysAlisPro 1.171.39.46 (Rigaku OD, 2018)'
_computing_molecular_graphics    'DIAMOND (Brandenburg & Putz, 2005)'
_computing_publication_material  'SHELXL-2014/7 (Sheldrick, 2014)'
_computing_structure_refinement  'SHELXL-2014/7 (Sheldrick, 2014)'
_computing_structure_solution    'SHELXL-2014/7 (Sheldrick, 2014)'
_diffrn_ambient_temperature      293(2)
_diffrn_measured_fraction_theta_full 0.997
_diffrn_measured_fraction_theta_max 0.948
_diffrn_measurement_device_type  'XtaLAB Synergy R, DW system, HyPix'
_diffrn_measurement_method       'four-circle diffractometer'
_diffrn_radiation_type           CuK\a
_diffrn_radiation_wavelength     1.54178
_diffrn_reflns_av_R_equivalents  0.0253
_diffrn_reflns_av_unetI/netI     0.0300
_diffrn_reflns_Laue_measured_fraction_full 0.997
_diffrn_reflns_Laue_measured_fraction_max 0.948
_diffrn_reflns_limit_h_max       12
_diffrn_reflns_limit_h_min       -12
_diffrn_reflns_limit_k_max       7
_diffrn_reflns_limit_k_min       -8
_diffrn_reflns_limit_l_max       13
_diffrn_reflns_limit_l_min       -13
_diffrn_reflns_number            4082
_diffrn_reflns_point_group_measured_fraction_full 0.997
_diffrn_reflns_point_group_measured_fraction_max 0.946
_diffrn_reflns_theta_full        67.679
_diffrn_reflns_theta_max         76.298
_diffrn_reflns_theta_min         4.634
_diffrn_source                   'Rotating-anode X-ray tube'
_exptl_absorpt_coefficient_mu    2.708
_exptl_absorpt_correction_T_max  0.780
_exptl_absorpt_correction_T_min  0.763
_exptl_absorpt_correction_type   multi-scan
_exptl_absorpt_process_details   'CrysAlisPro 1.171.39.46 (Rigaku OD, 2018)'
_exptl_crystal_colour            Brown
_exptl_crystal_density_diffrn    1.822
_exptl_crystal_description       Prism
_exptl_crystal_F_000             368
_exptl_crystal_size_max          0.110
_exptl_crystal_size_mid          0.110
_exptl_crystal_size_min          0.100
_refine_diff_density_max         0.746
_refine_diff_density_min         -0.283
_refine_diff_density_rms         0.056
_refine_ls_abs_structure_details
;
 Refined as an inversion twin.
;
_refine_ls_abs_structure_Flack   0.02(6)
_refine_ls_extinction_method     none
_refine_ls_goodness_of_fit_ref   1.001
_refine_ls_hydrogen_treatment    constr
_refine_ls_matrix_type           full
_refine_ls_number_parameters     192
_refine_ls_number_reflns         2738
_refine_ls_number_restraints     1
_refine_ls_restrained_S_all      1.000
_refine_ls_R_factor_all          0.0342
_refine_ls_R_factor_gt           0.0301
_refine_ls_shift/su_max          0.006
_refine_ls_shift/su_mean         0.001
_refine_ls_structure_factor_coef Fsqd
_refine_ls_weighting_details
'w=1/[\s^2^(Fo^2^)+(0.0170P)^2^+0.7932P] where P=(Fo^2^+2Fc^2^)/3'
_refine_ls_weighting_scheme      calc
_refine_ls_wR_factor_gt          0.0669
_refine_ls_wR_factor_ref         0.0740
_reflns_Friedel_coverage         0.836
_reflns_Friedel_fraction_full    0.996
_reflns_Friedel_fraction_max     0.942
_reflns_number_gt                2738
_reflns_number_total             2738
_reflns_threshold_expression     'I > 2\s(I)'
_cod_data_source_file            ja0c02580_si_002.cif
_cod_data_source_block           P21
_cod_original_sg_symbol_H-M      'P 21'
_cod_database_code               4134614
_shelx_shelxl_version_number     2014/7
_shelx_space_group_comment
;
The symmetry employed for this shelxl refinement is uniquely defined
by the following loop, which should always be used as a source of
symmetry information in preference to the above space-group names.
They are only intended as comments.
;
_shelx_estimated_absorpt_t_min   0.755
_shelx_estimated_absorpt_t_max   0.773
_shelx_res_file
;

    P21.res created by SHELXL-2014/7


TITL P21 in P2(1)
CELL 1.54178   9.9112   6.8771  10.4391  90.000 113.921  90.000
ZERR    2.00   0.0002   0.0001   0.0002   0.000   0.002   0.000
LATT -1
SYMM -X, 0.5+Y, -Z
SFAC C  H  N  O  F  Ni
UNIT 16 30 8 14 2 2
OMIT -2 3 11
OMIT 8 -3 3
OMIT -1 -3 10
L.S. 4
ACTA
BOND
FMAP 2
PLAN 5
SIZE 0.10 0.11 0.11
TWIN
CONF
HTAB C1 O3
EQIV $1 -x+1, y-1/2, -z+1
HTAB C3 O4_$1
EQIV $2 x+1, y, z
HTAB C3 O2_$2
EQIV $3 -x, y+1/2, -z
HTAB O7 O6_$3
TEMP 20
WGHT    0.017000    0.793200
BASF  -0.01526
FVAR       0.66042
MOLE 1
NI1   6    0.009125    0.212579    0.510855    11.00000    0.02751    0.02414 =
         0.03104    0.00184    0.00922   -0.00144
MOLE 2
F1    5    0.501899    0.075931    0.494733    11.00000    0.06927    0.08110 =
         0.03153    0.00840    0.01418    0.00487
C1    1    0.358923    0.266421    0.242413    11.00000    0.04569    0.03944 =
         0.03422    0.00256    0.00930    0.00949
AFIX  23
H1A   2    0.436361    0.363699    0.268995    11.00000   -1.20000
H1B   2    0.309309    0.277360    0.305338    11.00000   -1.20000
AFIX   0
C2    1    0.248850    0.301738    0.092004    11.00000    0.03952    0.05260 =
         0.04099    0.00752    0.00876    0.00933
AFIX  13
H2    2    0.157109    0.353903    0.092641    11.00000   -1.20000
AFIX   0
C3    1    0.551545    0.043962    0.393118    11.00000    0.03450    0.04616 =
         0.04030    0.00986    0.00556    0.00190
AFIX  23
H3A   2    0.591857   -0.086294    0.401803    11.00000   -1.20000
H3B   2    0.628843    0.136229    0.401925    11.00000   -1.20000
AFIX   0
C4    1    0.354891    0.036621    0.000291    11.00000    0.07671    0.07386 =
         0.03883   -0.01386    0.02490   -0.00723
AFIX  23
H4A   2    0.376003    0.117479   -0.065480    11.00000   -1.20000
H4B   2    0.340073   -0.095732   -0.034847    11.00000   -1.20000
AFIX   0
C5    1    0.483699    0.043705    0.143018    11.00000    0.04713    0.07003 =
         0.04934   -0.00018    0.02983    0.00800
AFIX  23
H5A   2    0.540690   -0.075341    0.158873    11.00000   -1.20000
H5B   2    0.547889    0.151958    0.146642    11.00000   -1.20000
AFIX   0
C6    1    0.309592   -0.084816    0.234183    11.00000    0.04620    0.04927 =
         0.05520    0.00631    0.01278   -0.01989
AFIX  23
H6A   2    0.282856   -0.085667    0.313865    11.00000   -1.20000
H6B   2    0.347896   -0.212184    0.226828    11.00000   -1.20000
AFIX   0
C7    1    0.173330   -0.038963    0.099700    11.00000    0.04130    0.07126 =
         0.06054    0.00146    0.00688   -0.02054
AFIX  23
H7A   2    0.137066   -0.156925    0.045683    11.00000   -1.20000
H7B   2    0.095447    0.013819    0.123161    11.00000   -1.20000
AFIX   0
C8    1    0.216676    0.109025    0.013635    11.00000    0.04385    0.06766 =
         0.03522   -0.00423    0.00212   -0.00529
AFIX  13
H8    2    0.136397    0.124643   -0.079342    11.00000   -1.20000
AFIX   0
MOLE 1
N1    3   -0.091487    0.040706    0.612865    11.00000    0.03153    0.04435 =
         0.04326    0.00294    0.01073    0.00458
N2    3    0.196514    0.040218    0.589733    11.00000    0.03178    0.03324 =
         0.02966    0.00075    0.01141   -0.00197
N3    3   -0.083041    0.056027    0.321357    11.00000    0.03721    0.03810 =
         0.02455    0.00278    0.00379   -0.00083
MOLE 2
N4    3    0.425005    0.067326    0.254524    11.00000    0.02567    0.03126 =
         0.03080    0.00232    0.01003   -0.00038
MOLE 1
O1    4    0.096081    0.376157    0.689954    11.00000    0.04961    0.03469 =
         0.03783    0.00205    0.01030    0.00303
O2    4   -0.187650    0.359746    0.431766    11.00000    0.03065    0.02950 =
         0.05954    0.00595    0.00963   -0.00286
O3    4    0.115962    0.364057    0.411284    11.00000    0.04621    0.03787 =
         0.05806    0.00158    0.02429   -0.00128
O4    4    0.321069    0.104527    0.656197    11.00000    0.02659    0.05193 =
         0.05825   -0.00867    0.00773   -0.00978
O5    4   -0.139932    0.109966    0.695022    11.00000    0.06800    0.05046 =
         0.06650   -0.01061    0.04848    0.00398
O6    4   -0.131708    0.147053    0.210628    11.00000    0.08471    0.04404 =
         0.03440    0.01026    0.00419   -0.00275
MOLE 2
O7    4    0.313220    0.443222    0.033604    11.00000    0.06666    0.06339 =
         0.05522    0.02848    0.00536   -0.00103
AFIX 147
H7    2    0.251223    0.480509   -0.041952    11.00000   -1.50000
AFIX   0
HKLF 4

REM  P21 in P2(1)
REM R1 =  0.0301 for    2065 Fo > 4sig(Fo)  and  0.0342 for all    2167 data
REM    192 parameters refined using      1 restraints

END

WGHT      0.0197      0.5711

REM Highest difference peak  0.746,  deepest hole -0.283,  1-sigma level  0.056
Q1    1  -0.0630 -0.0399  0.5576  11.00000  0.05    0.75
Q2    1  -0.1367 -0.0461  0.6590  11.00000  0.05    0.57
Q3    1  -0.0632  0.4667  0.5607  11.00000  0.05    0.31
Q4    1   0.2363  0.4648  0.0661  11.00000  0.05    0.28
Q5    1   0.1252 -0.0293  0.3398  11.00000  0.05    0.27
;
_shelx_res_checksum              36322
_shelx_hkl_file
;
   0  -8   0   27.81    1.88
   0  -8  -1   35.70    2.06
   0  -8   1   39.93    2.19
   0  -8   2   52.11    2.18
   0  -8  -2   -0.06    0.52
   0  -7   0    0.26    1.26
   0  -7   1   12.11    1.85
   0  -7  -1   15.63    1.91
   0  -7  -2    3.57    1.32
   0  -7   2    6.09    1.56
   0  -7  -2    4.27    1.33
   0  -7  -3    4.36    1.38
   0  -7   3    3.29    1.42
   0  -7  -3    3.50    1.43
   0  -7   4   15.53    1.87
   0  -7  -4   14.98    1.94
   0  -7   5   -0.11    0.36
   0  -7  -6   -0.21    0.32
   0  -6   0  327.09   10.43
   0  -6   1  399.62   12.28
   0  -6  -1  413.54   11.97
   0  -6   2  125.34    4.64
   0  -6  -2  141.81    5.88
   0  -6   2  132.67    5.90
   0  -6   3   62.67    3.00
   0  -6  -3   66.36    4.01
   0  -6   3   57.75    3.31
   0  -6   3   63.93    4.00
   0  -6  -3   54.64    3.34
   0  -6   4   51.69    2.75
   0  -6  -4   58.77    3.87
   0  -6   4   59.35    3.70
   0  -6  -4   51.65    3.12
   0  -6   5   25.75    1.85
   0  -6  -5   25.24    2.14
   0  -6  -5   30.56    2.93
   0  -6   6   29.61    1.81
   0  -6  -6   24.69    1.95
   0  -6  -7    0.85    0.71
   0  -5   0   -0.54    1.00
   0  -5   0   -0.28    0.98
   0  -5   1    9.89    1.63
   0  -5  -1   10.29    1.73
   0  -5  -1    9.24    1.41
   0  -5   1   12.25    1.55
   0  -5  -2   13.54    1.63
   0  -5   2   11.57    1.73
   0  -5  -2   13.08    1.97
   0  -5   2   14.12    1.51
   0  -5  -3   71.06    3.35
   0  -5   3   79.65    4.19
   0  -5  -3   76.34    3.70
   0  -5   3   82.12    3.86
   0  -5   3   87.33    3.75
   0  -5  -3   87.34    4.41
   0  -5  -4  148.54    5.42
   0  -5   4  157.36    5.79
   0  -5   4  158.77    6.44
   0  -5   4  166.72    5.71
   0  -5  -4  166.47    6.77
   0  -5  -4  154.96    5.72
   0  -5   5   43.15    2.76
   0  -5  -5   47.46    2.86
   0  -5   5   48.11    2.76
   0  -5  -5   42.61    2.58
   0  -5   5   44.27    3.29
   0  -5  -6   11.66    2.24
   0  -5   6    7.36    1.28
   0  -5  -6    8.65    1.41
   0  -5  -6    9.43    1.36
   0  -5  -7   10.10    1.29
   0  -5  -7    7.58    1.95
   0  -5   7   10.89    1.30
   0  -5  -7   10.06    1.42
   0  -5  -8   11.85    1.27
   0  -5  -8   11.33    1.18
   0  -5  -9    8.25    0.83
   0  -4   0  130.16    4.37
   0  -4   1    0.07    0.77
   0  -4  -1   -0.06    0.73
   0  -4  -2  331.13    9.51
   0  -4   3  433.04   12.52
   0  -4  -3  466.38   11.94
   0  -4   3  463.24   12.12
   0  -4  -3  470.14   12.73
   0  -4   3  475.47   12.21
   0  -4  -4  235.18    6.98
   0  -4   4  224.41    7.88
   0  -4   4  247.33    7.41
   0  -4   4  241.99    7.41
   0  -4  -4  250.68    7.28
   0  -4   5   94.74    4.02
   0  -4  -5  101.35    3.94
   0  -4   5   96.92    4.09
   0  -4  -5  100.29    4.88
   0  -4   5  101.34    4.76
   0  -4  -6   70.65    3.29
   0  -4   6   64.34    3.14
   0  -4  -6   67.34    4.15
   0  -4   6   67.21    3.30
   0  -4  -7  121.63    4.69
   0  -4  -7  125.75    5.83
   0  -4  -8   68.04    3.12
   0  -4   8   63.21    2.93
   0  -4  -9   33.56    1.89
   0  -4  -9   35.70    2.05
   0  -4 -10    0.63    0.49
   0  -3   0    0.26    0.57
   0  -3  -1  120.88    3.70
   0  -3   1  124.04    3.84
   0  -3  -2   34.15    1.23
   0  -3   2   36.01    1.84
   0  -3  -3  203.61    5.82
   0  -3   3  218.62    6.06
   0  -3  -4  133.45    4.93
   0  -3   4  133.04    4.38
   0  -3  -4  130.38    4.65
   0  -3  -5   84.71    3.91
   0  -3   5   89.64    4.14
   0  -3  -5   78.49    3.90
   0  -3   5   82.80    3.33
   0  -3   6  115.06    4.10
   0  -3   6  113.16    4.34
   0  -3  -6  110.87    4.31
   0  -3  -6  114.76    5.03
   0  -3  -6  108.64    5.01
   0  -3  -7   45.48    2.73
   0  -3  -7   40.52    3.01
   0  -3   7   52.22    2.74
   0  -3  -7   47.26    3.41
   0  -3  -8   14.58    1.63
   0  -3   8   11.84    1.40
   0  -3  -9   43.19    2.38
   0  -3 -10   11.47    1.07
   0  -3 -10   -0.10    0.31
   0  -3 -11    4.69    0.54
   0  -2   0 1216.34   26.88
   0  -2  -1  627.88   14.07
   0  -2  -1  616.75   13.73
   0  -2  -2   80.98    2.71
   0  -2  -4  537.56   13.87
   0  -2  -5  304.86    9.36
   0  -2  -6  340.42   11.06
   0  -2  -6  371.87   10.52
   0  -2  -6  355.36   10.07
   0  -2   6  372.55    9.72
   0  -2  -7  266.57    9.39
   0  -2   7  256.39    7.53
   0  -2  -7  263.23    8.21
   0  -2  -7  256.54    8.49
   0  -2  -8  112.58    4.80
   0  -2  -8   96.85    5.32
   0  -2  -9   28.94    2.37
   0  -2 -10   21.23    1.84
   0  -2 -11    6.07    0.86
   0  -1   0    0.22    0.29
   0  -1  -1  336.12    7.58
   0  -1  -1  335.97    7.52
   0  -1  -2  903.23   20.02
   0  -1  -3  795.05   18.01
   0  -1  -4  109.45    3.51
   0  -1  -5   74.05    2.97
   0  -1  -6  104.74    4.29
   0  -1  -6   95.17    4.92
   0  -1  -7   98.44    4.30
   0  -1  -7   92.84    5.04
   0  -1  -8   40.90    2.88
   0  -1  -8   37.87    3.42
   0  -1  -9   14.22    1.92
   0  -1 -10   31.57    2.41
   0  -1 -11   16.08    1.46
   0   0  -1 2192.17   47.34
   0   0  -2  887.52   19.65
   0   0  -3    6.00    0.71
   0   0  -4  700.46   16.30
   0   0  -5  152.17    4.78
   0   0  -6  112.26    5.33
   0   0  -6  137.32    4.77
   0   0  -7   82.01    4.73
   0   0  -7   86.74    3.95
   0   0  -8  133.07    6.54
   0   0  -8  144.83    5.70
   0   0  -9   13.36    2.35
   0   0  -9   14.00    1.99
   0   0 -10  132.20    5.30
   0   0 -11   75.95    3.30
   0   1  -1  339.61    7.59
   0   1  -2  892.42   19.78
   0   1  -3  788.92   17.89
   0   1  -4  104.91    3.41
   0   1  -5   72.43    2.93
   0   1  -6  100.98    5.05
   0   1  -6  106.41    4.34
   0   1  -7   96.91    5.20
   0   1  -7   97.89    4.35
   0   1  -7  107.55    3.88
   0   1  -8   39.33    3.54
   0   1  -8   45.26    2.39
   0   1  -8   44.56    3.00
   0   1  -9   16.71    2.12
   0   1 -10   32.14    2.45
   0   1 -11   14.90    1.44
   0   2  -1  591.56   13.03
   0   2  -2   85.06    2.76
   0   2  -3 1054.84   23.68
   0   2  -4  536.16   13.78
   0   2  -5  305.25    9.34
   0   2  -6  331.79   10.57
   0   2  -6  347.48    9.67
   0   2  -6  337.89    9.30
   0   2  -7  257.36    7.62
   0   2  -7  259.72    8.10
   0   2  -8   99.96    5.24
   0   2  -8  100.44    4.05
   0   2  -8   95.96    4.49
   0   2  -9   29.47    2.39
   0   2 -10   -0.10    0.35
   0   2 -10   18.60    1.72
   0   2 -11    5.55    0.85
   0   3  -3  207.84    5.72
   0   3  -4  136.61    4.74
   0   3  -5   79.96    3.48
   0   3  -5   84.03    3.84
   0   3  -6  101.14    4.24
   0   3  -6  110.40    4.82
   0   3  -7   51.53    2.94
   0   3  -7   53.90    2.97
   0   3  -8   11.38    1.54
   0   3  -8   12.66    1.60
   0   3  -9   44.74    2.47
   0   3 -10   12.11    1.09
   0   4  -3  467.18   12.11
   0   4  -4  232.40    7.19
   0   4  -5   99.52    4.24
   0   4  -6   59.96    3.28
   0   4  -8   67.35    3.32
   0   4 -10    0.04    0.51
   0   5  -2   15.62    1.45
   0   5  -3   88.18    3.76
   0   5  -4  168.06    5.88
   0   5  -5   45.45    2.82
   0   5  -6   12.32    1.66
   0   5  -7   10.61    1.51
   0   6  -3   58.87    2.86
   0   6  -4   63.47    3.08
   0   6  -5   30.11    2.09
   0   6  -8   24.99    1.35
   0   7  -6    1.71    0.47
   1  -8  -3   17.85    1.42
   1  -8  -2   38.80    2.24
   1  -8  -1   27.97    2.00
   1  -8   0   38.23    2.35
   1  -8   1   34.38    2.16
   1  -8   2   26.08    1.79
   1  -7  -5    6.96    1.54
   1  -7  -4    2.15    1.32
  -1  -7   3    8.34    1.52
   1  -7  -3    7.78    1.62
  -1  -7   2    5.35    1.48
   1  -7  -2    3.76    1.38
   1  -7  -2    4.94    1.34
  -1  -7   1    3.46    1.29
   1  -7  -1    3.65    1.47
  -1  -7   0    1.38    1.18
   1  -7   0    1.95    1.45
   1  -7   1   11.55    1.98
  -1  -7  -1    6.37    1.41
   1  -7   2    8.38    1.05
  -1  -7  -2    7.93    1.36
   1  -7   2   10.09    1.89
   1  -7   3   22.62    1.52
  -1  -7  -3   24.04    1.86
   1  -7   3   25.98    2.42
   1  -7   4   13.85    1.09
  -1  -7  -4    0.38    0.52
   1  -7   5    4.43    0.67
   1  -6  -8    3.52    0.78
   1  -6  -7   39.21    2.39
   1  -6  -7   37.09    2.83
   1  -6  -6   79.29    3.85
  -1  -6   6   85.14    3.22
   1  -6  -5  101.59    4.65
   1  -6  -5  110.07    5.30
  -1  -6   5  110.00    3.92
  -1  -6   4   26.21    1.73
  -1  -6   4   24.37    2.42
   1  -6  -4   21.08    2.49
   1  -6  -4   23.53    2.28
   1  -6  -3   80.62    4.20
   1  -6  -3   78.96    4.38
  -1  -6   3   83.29    4.43
   1  -6  -2  129.10    5.64
  -1  -6   2  134.46    5.75
   1  -6  -1  326.13    9.93
  -1  -6   1  324.06   10.21
  -1  -6   0  169.41    6.51
   1  -6   0  173.79    6.92
   1  -6   1  125.54    5.10
   1  -6   1  130.49    5.86
  -1  -6  -1  127.25    5.51
   1  -6   2   81.94    3.77
  -1  -6  -2   86.08    4.58
   1  -6   2   80.01    4.57
   1  -6   2   81.23    4.00
   1  -6   3   23.94    2.16
   1  -6   3   21.93    1.96
   1  -6   3   23.84    2.65
  -1  -6  -3   21.73    2.02
  -1  -6  -3   23.28    2.63
  -1  -6  -4   69.83    3.45
   1  -6   4   76.28    4.28
  -1  -6  -4   72.95    4.39
   1  -6   4   67.43    3.31
   1  -6   5   49.10    2.55
  -1  -6  -5   43.67    2.52
   1  -6   6   12.12    1.22
  -1  -6  -6   10.06    1.14
   1  -5  -9   11.73    1.19
   1  -5  -8   26.82    2.05
   1  -5  -8   22.71    2.44
   1  -5  -7   70.80    4.33
  -1  -5   7   79.59    3.31
   1  -5  -7   71.14    3.65
   1  -5  -6    1.40    1.70
   1  -5  -6    1.35    1.10
  -1  -5   6    0.77    0.81
  -1  -5   5  101.37    4.05
  -1  -5   5   99.58    4.85
  -1  -5   5   99.39    4.24
   1  -5  -5   96.77    4.38
  -1  -5   4   13.82    1.65
   1  -5  -4   12.09    2.03
  -1  -5   4   14.08    1.95
  -1  -5   4   15.49    1.56
   1  -5  -4   14.07    1.74
  -1  -5   3   37.98    2.52
   1  -5  -3   33.38    2.78
  -1  -5   3   36.62    2.14
   1  -5  -3   32.13    2.38
  -1  -5   3   30.01    2.56
   1  -5  -2    6.64    1.32
   1  -5  -2    7.59    1.56
  -1  -5   2    5.79    1.39
   1  -5  -1   51.05    3.06
   1  -5  -1   56.47    2.90
   1  -5  -1   57.05    3.27
  -1  -5   1   58.08    3.23
   1  -5  -1   60.11    3.10
  -1  -5   0   30.68    2.36
   1  -5   0   33.49    2.35
   1  -5   0   34.59    2.42
   1  -5   0   30.68    2.20
  -1  -5  -1   33.73    2.31
   1  -5   1   37.08    2.46
   1  -5   1   33.63    2.64
  -1  -5  -1   33.81    2.67
  -1  -5  -2   19.54    2.29
   1  -5   2   17.31    2.08
  -1  -5  -2   19.92    1.84
  -1  -5  -3   69.73    4.20
   1  -5   3   70.45    3.52
  -1  -5  -3   65.50    3.35
   1  -5   3   67.62    4.02
   1  -5   3   74.28    3.72
  -1  -5  -3   69.84    3.42
  -1  -5  -4  172.52    7.08
  -1  -5  -4  173.78    6.03
   1  -5   4  181.82    6.31
   1  -5   4  170.04    6.09
  -1  -5  -4  161.48    5.94
   1  -5   5    1.19    1.03
  -1  -5  -5    2.28    1.04
   1  -5   5    1.06    1.05
  -1  -5  -5    1.85    0.95
  -1  -5  -5    2.94    1.92
  -1  -5  -6   41.67    3.44
  -1  -5  -6   35.27    2.43
   1  -5   6   35.82    2.30
  -1  -5  -6   36.94    2.32
  -1  -5  -7   28.35    1.98
  -1  -5  -7   28.60    1.86
  -1  -5  -8    2.46    0.73
  -1  -5  -8   -0.19    0.45
   1  -4 -10   27.11    1.69
   1  -4  -9   48.08    2.67
   1  -4  -8  149.35    4.99
   1  -4  -8  138.61    6.07
   1  -4  -7   77.33    4.58
   1  -4  -7   84.09    3.55
  -1  -4   7   86.10    3.67
   1  -4  -6  158.51    5.26
   1  -4  -6  163.33    6.57
  -1  -4   6  162.43    5.56
  -1  -4   6  154.41    5.28
  -1  -4   5  233.30    7.08
   1  -4  -5  240.71    8.00
  -1  -4   5  214.66    7.67
  -1  -4   5  225.88    6.94
  -1  -4   4  380.20   11.19
  -1  -4   4  400.46   10.50
   1  -4  -4  389.81   10.54
  -1  -4   4  385.30   10.48
   1  -4  -3  378.13   10.62
  -1  -4   3  366.64    9.93
   1  -4  -3  365.72    9.91
   1  -4  -2  314.49    9.05
   1  -4  -2  305.18    8.29
  -1  -4   2  313.91    8.55
  -1  -4   1  185.98    5.76
   1  -4  -1  195.36    5.74
   1  -4   0  394.56   10.32
   1  -4   1  464.58   11.96
  -1  -4  -2  444.24   12.19
  -1  -4  -3  711.36   17.02
  -1  -4  -3  694.46   17.07
  -1  -4  -3  679.41   17.98
   1  -4   3  697.27   17.36
   1  -4   4  255.60    7.90
  -1  -4  -4  267.29    7.65
   1  -4   4  261.58    7.96
  -1  -4  -4  236.67    8.51
  -1  -4  -4  266.11    7.75
   1  -4   5  172.98    5.97
  -1  -4  -5  171.06    5.86
  -1  -4  -5  165.45    6.80
   1  -4   5  168.84    6.70
   1  -4   6   64.76    3.24
  -1  -4  -6   69.07    4.33
  -1  -4  -6   60.28    3.20
   1  -4   6   67.45    3.25
  -1  -4  -7  158.83    5.57
   1  -4   7  148.77    5.22
  -1  -4  -7  156.94    5.38
  -1  -4  -8  123.96    4.32
   1  -4   8  120.77    4.19
  -1  -4  -8  123.15    4.49
  -1  -4  -9   21.93    1.37
  -1  -4  -9   25.04    1.52
   1  -3 -11    0.58    0.54
   1  -3 -10    0.25    0.50
   1  -3  -9    6.59    1.26
   1  -3  -8   77.21    4.20
   1  -3  -8   72.37    4.16
   1  -3  -8   73.49    3.55
   1  -3  -7   16.33    2.15
   1  -3  -7   20.82    2.33
   1  -3  -7   22.61    1.87
  -1  -3   6   46.16    2.47
   1  -3  -6   40.43    2.91
  -1  -3   6   45.81    2.23
   1  -3  -6   47.99    3.07
  -1  -3   5   50.81    2.51
  -1  -3   5   47.81    2.29
   1  -3  -5   45.73    2.84
  -1  -3   5   51.70    2.98
   1  -3  -5   42.03    2.72
  -1  -3   4   57.13    2.47
  -1  -3   3  210.98    5.91
  -1  -3   2  223.61    4.98
  -1  -3   2  245.57    6.15
   1  -3  -2  235.87    5.92
   1  -3  -1  209.04    5.68
   1  -3   0   58.56    2.37
  -1  -3   0   64.42    2.40
  -1  -3  -1    4.72    0.28
  -1  -3  -2  155.61    4.14
  -1  -3  -3  143.81    4.41
   1  -3   4   31.85    2.07
  -1  -3  -4   29.70    1.99
  -1  -3  -4   32.58    2.44
   1  -3   4   33.52    2.45
  -1  -3  -5   66.35    3.71
  -1  -3  -5   67.50    3.38
   1  -3   5   65.21    3.13
   1  -3   5   73.31    3.92
   1  -3   6   79.63    3.55
   1  -3   6   87.51    3.57
  -1  -3  -6   80.49    3.98
  -1  -3  -6   85.37    4.50
  -1  -3  -6   82.72    3.64
   1  -3   7  101.38    4.01
  -1  -3  -7   98.74    4.19
  -1  -3  -7  103.42    4.65
   1  -3   8   44.64    2.35
  -1  -3  -8   37.96    2.37
  -1  -3  -9   -0.13    0.53
  -1  -3 -10    2.13    0.62
  -1  -3 -10    2.64    0.56
   1  -2 -12    3.55    0.50
   1  -2 -11   22.02    1.63
   1  -2 -10   25.11    2.15
   1  -2  -9  110.82    4.84
   1  -2  -8  147.78    6.79
   1  -2  -8  149.28    5.76
   1  -2  -7  133.65    6.25
   1  -2  -7  140.55    5.35
   1  -2  -7  145.35    5.55
  -1  -2   7  153.34    4.97
   1  -2  -6  186.93    6.29
  -1  -2   6  195.85    5.85
   1  -2  -6  194.58    6.07
  -1  -2   6  191.15    5.27
   1  -2  -6  189.34    6.13
  -1  -2   5  277.89    7.11
   1  -2  -5  278.01    7.56
   1  -2  -4  719.36   16.67
  -1  -2   4  716.03   16.49
   1  -2  -3  803.70   18.00
  -1  -2   3  789.38   18.05
   1  -2  -2  526.94   11.86
  -1  -2   2  516.56   12.18
   1  -2  -2  537.34   12.03
  -1  -2   1  410.38    8.97
   1  -2  -1  405.95    9.03
  -1  -2   0 1005.59   21.75
  -1  -2   0  996.12   22.35
  -1  -2  -1  588.69   13.27
  -1  -2  -2 1245.29   28.03
  -1  -2  -3  613.95   15.13
  -1  -2  -4  561.17   14.59
  -1  -2  -5   85.61    3.57
  -1  -2  -5   84.52    3.93
  -1  -2  -5   82.14    4.12
   1  -2   5   84.08    3.34
  -1  -2  -6  365.69   10.55
  -1  -2  -6  357.70   11.00
  -1  -2  -6  352.12   11.38
   1  -2   6  364.21    9.97
  -1  -2  -7  133.94    5.31
  -1  -2  -7  130.09    5.91
   1  -2   7  133.32    4.66
  -1  -2  -8  101.41    4.52
  -1  -2  -8   99.54    4.99
  -1  -2  -9   14.83    1.77
  -1  -2 -10   16.26    1.46
  -1  -2 -11    3.03    0.49
   1  -1 -12    3.15    0.69
   1  -1 -11   23.86    1.94
   1  -1 -10   66.71    3.69
   1  -1  -9  106.76    4.88
   1  -1  -9   97.84    5.65
   1  -1  -8   88.20    4.29
   1  -1  -8   87.57    5.20
   1  -1  -7   66.54    3.44
   1  -1  -7   74.48    3.44
   1  -1  -6  129.99    4.53
   1  -1  -6  130.89    4.65
  -1  -1   5  128.96    3.40
   1  -1  -5  127.04    4.13
   1  -1  -4  331.55    8.27
   1  -1  -3  165.93    4.40
  -1  -1   3  171.89    4.15
   1  -1  -2   52.25    1.63
   1  -1  -2   54.06    1.41
  -1  -1   2   51.61    1.55
  -1  -1   1  587.00   13.01
   1  -1  -1  585.55   12.89
  -1  -1   0  271.58    6.12
  -1  -1  -1   57.79    2.05
  -1  -1  -2  499.58   12.16
  -1  -1  -3  349.17    9.37
  -1  -1  -4  372.06   10.36
  -1  -1  -5   79.29    3.99
  -1  -1  -6  106.94    4.53
   1  -1   6  117.85    4.04
  -1  -1  -6  102.74    5.18
  -1  -1  -7  110.59    5.63
  -1  -1  -7  117.29    5.03
   1  -1   7  122.14    4.28
  -1  -1  -8   30.14    2.57
  -1  -1  -8   28.04    2.85
  -1  -1  -9   27.07    2.36
  -1  -1 -10   33.95    2.29
  -1  -1 -11    6.50    0.86
   1   0 -12    2.79    0.74
   1   0 -11   17.00    1.84
   1   0 -10   73.76    4.00
   1   0  -9    4.05    1.94
   1   0  -9    6.43    1.71
   1   0  -8    6.23    1.50
   1   0  -8    5.12    1.87
   1   0  -7  205.93    6.51
   1   0  -7  185.69    6.49
   1   0  -6  139.42    4.73
   1   0  -5   28.81    1.67
   1   0  -4  334.79    8.30
   1   0  -3  116.99    3.26
   1   0  -2 2370.29   51.38
   1   0  -1 1212.31   26.31
  -1   0   0  855.05   19.18
  -1   0   0  893.99   19.07
  -1   0  -1 2493.25   54.41
  -1   0  -2   91.52    3.24
  -1   0  -3   16.05    1.55
  -1   0  -4   77.19    3.61
  -1   0  -5  554.58   15.00
  -1   0  -6   67.61    3.43
  -1   0  -6   65.87    4.10
  -1   0  -7   -0.16    1.48
  -1   0  -7    1.65    1.09
  -1   0  -7   -0.22    1.07
  -1   0  -8   26.97    2.47
  -1   0  -8   28.48    2.92
  -1   0  -9   46.55    3.04
  -1   0 -10   87.54    3.86
  -1   0 -11   16.68    1.31
   1   1 -12    5.29    0.79
   1   1 -11   26.93    2.06
   1   1 -10   56.41    3.36
   1   1  -9   97.22    4.63
   1   1  -9   98.16    3.66
   1   1  -9   95.32    5.52
   1   1  -8  108.34    4.70
   1   1  -8  104.66    3.94
   1   1  -7   70.76    3.43
   1   1  -7   72.00    3.07
   1   1  -7   72.23    3.57
   1   1  -6  128.57    4.50
   1   1  -6  126.60    4.61
   1   1  -5  121.77    4.01
   1   1  -4  307.41    7.77
   1   1  -3  175.47    4.54
   1   1  -2   48.87    1.54
   1   1  -1  581.28   12.79
  -1   1   0  265.39    5.98
  -1   1  -1   57.00    1.97
  -1   1  -2  497.95   12.06
  -1   1  -3  345.22    9.28
  -1   1  -4  356.74   10.06
  -1   1  -5   77.71    3.96
  -1   1  -6  106.79    5.20
  -1   1  -6  107.77    3.98
  -1   1  -6  104.83    4.48
  -1   1  -7  118.65    5.88
  -1   1  -7  122.03    5.20
  -1   1  -8   34.71    3.04
  -1   1  -8   34.84    2.71
  -1   1  -8   35.54    2.05
  -1   1  -9   31.51    2.51
  -1   1 -10   29.93    2.16
  -1   1 -11   10.48    1.03
   1   2 -11   22.63    1.66
   1   2 -10   22.79    2.10
   1   2  -9  119.67    4.48
   1   2  -9  114.57    4.96
   1   2  -8  146.60    5.29
   1   2  -8  152.91    5.79
   1   2  -8  143.22    6.65
   1   2  -7  154.74    5.61
   1   2  -7  138.03    6.35
   1   2  -7  153.83    5.30
   1   2  -6  193.39    6.27
   1   2  -6  202.63    6.23
   1   2  -5  272.78    7.45
   1   2  -4  725.58   16.84
   1   2  -3  793.27   17.92
   1   2  -2  560.39   12.57
   1   2  -1  397.59    8.87
  -1   2   1  401.53    8.77
  -1   2  -1  627.64   14.03
  -1   2  -2 1234.63   27.72
  -1   2  -3  622.64   15.23
  -1   2  -4  563.96   14.60
  -1   2  -5   84.63    3.58
  -1   2  -5   90.36    4.27
  -1   2  -5   89.00    3.44
  -1   2  -6  350.51    9.93
  -1   2  -6  352.43   11.25
  -1   2  -6  374.35   10.53
  -1   2  -7  122.28    5.04
  -1   2  -7  125.33    4.60
  -1   2  -7  113.39    5.48
  -1   2  -8  111.41    5.23
  -1   2  -8  113.94    4.85
  -1   2  -9   17.24    1.81
  -1   2  -9   15.71    1.39
  -1   2 -10   18.27    1.54
   1   3 -10   17.86    1.44
   1   3  -9    9.22    1.36
   1   3  -9    9.34    1.41
   1   3  -8   75.78    3.63
   1   3  -8   77.30    3.70
   1   3  -7   20.31    1.85
   1   3  -7   16.91    1.84
   1   3  -6   41.60    2.92
   1   3  -5   39.50    2.60
   1   3  -4   54.05    2.70
   1   3  -4   61.59    2.32
   1   3  -3  194.44    4.98
  -1   3  -2  150.94    3.96
  -1   3  -3  150.92    4.51
  -1   3  -4   33.94    2.06
  -1   3  -4   30.55    1.96
  -1   3  -5   75.36    3.57
  -1   3  -6   77.50    3.57
  -1   3  -6   77.67    3.53
  -1   3  -7  110.06    4.41
  -1   3  -7  106.16    4.39
  -1   3  -8   42.80    2.54
  -1   3  -9   11.74    1.24
  -1   3  -9   11.71    1.24
  -1   3 -10   -0.26    0.28
   1   4  -9   44.15    2.53
   1   4  -8  136.46    5.20
   1   4  -6  160.61    5.91
  -1   4  -2  450.70   11.48
  -1   4  -3  675.71   16.68
  -1   4  -4  254.06    7.71
  -1   4  -5  172.73    6.01
  -1   4  -6   67.62    3.46
  -1   4  -9   25.74    1.57
   1   5 -10    9.92    0.74
   1   5  -8   19.88    1.75
   1   5  -7   71.10    3.50
   1   5  -6    0.53    1.07
   1   5  -5  109.74    4.60
   1   5  -4   18.82    1.90
   1   5  -3   34.47    2.28
  -1   5  -2   21.39    1.68
  -1   5  -3   71.18    3.33
  -1   5  -4  191.71    6.43
  -1   5  -5    0.79    1.08
  -1   5  -8    1.83    0.81
  -1   5  -9   15.56    0.98
   1   6  -6   85.01    3.55
   1   6  -5  106.22    4.21
   1   6  -4   21.86    1.84
  -1   6  -6   13.50    1.33
  -1   6  -7    9.58    0.99
  -1   6  -8    6.73    0.61
   1   7  -6    3.69    0.59
   2  -8  -4   25.76    1.59
   2  -8  -3   52.91    2.59
   2  -8  -2   27.10    1.93
   2  -8  -1   24.75    1.94
   2  -8   0   30.41    2.10
   2  -8   1   59.66    2.83
   2  -8   2   17.14    1.44
   2  -7  -6    3.85    1.30
   2  -7  -5    6.57    1.45
   2  -7  -4    7.59    1.60
  -2  -7   3    3.09    1.05
   2  -7  -3    2.02    1.28
   2  -7  -3    1.42    1.25
   2  -7  -2    2.24    1.43
   2  -7  -2    1.73    1.11
  -2  -7   2    1.67    0.96
   2  -7  -1    9.55    1.84
   2  -7   0    3.07    1.49
   2  -7   0    3.15    0.86
   2  -7   1    0.94    0.79
   2  -7   1    0.69    1.32
   2  -7   2    7.99    1.11
   2  -7   3    7.26    1.01
   2  -7   4   11.58    1.06
   2  -7   5    0.17    0.42
   2  -6  -9   13.85    1.02
   2  -6  -8   44.59    2.72
   2  -6  -8   48.65    2.50
   2  -6  -7  105.34    4.82
   2  -6  -7  108.36    4.44
   2  -6  -6  178.88    6.50
   2  -6  -5   96.38    4.55
   2  -6  -5   91.84    4.78
  -2  -6   5   94.87    3.33
   2  -6  -4    8.64    1.63
  -2  -6   4    8.51    1.63
   2  -6  -4    9.58    1.99
  -2  -6   3   27.99    2.50
   2  -6  -3   31.21    2.60
   2  -6  -3   26.75    2.61
   2  -6  -2  119.03    4.91
   2  -6  -2  121.74    5.33
  -2  -6   2  122.00    5.19
  -2  -6   1  125.56    5.24
   2  -6  -1  122.83    4.92
  -2  -6   0  268.38    8.39
   2  -6   0  257.46    8.21
  -2  -6  -1   22.36    2.04
   2  -6   1   18.64    1.93
   2  -6   2   29.06    2.36
  -2  -6  -2   34.03    3.02
   2  -6   2   33.50    2.47
   2  -6   3   67.50    3.42
   2  -6   4  108.06    4.34
   2  -6   4  107.87    5.15
   2  -6   5   87.15    3.52
   2  -6   6    3.53    0.82
   2  -5 -10    8.50    0.90
   2  -5  -9   15.12    1.52
   2  -5  -8   29.95    2.28
   2  -5  -8   27.71    2.64
   2  -5  -7   14.04    2.24
   2  -5  -7   13.78    1.74
   2  -5  -6   20.23    2.55
  -2  -5   6   16.99    1.55
   2  -5  -6   17.17    1.88
  -2  -5   5   14.51    1.96
  -2  -5   5   14.80    1.42
  -2  -5   4    1.41    0.73
  -2  -5   4    2.77    1.32
   2  -5  -4    0.82    1.51
   2  -5  -3   78.61    3.85
  -2  -5   3   82.33    4.08
   2  -5  -3   81.86    4.24
   2  -5  -2  160.75    5.93
   2  -5  -2  163.21    6.08
   2  -5  -2  146.08    5.21
  -2  -5   2  155.10    5.77
   2  -5  -1   77.95    3.52
   2  -5  -1   79.49    3.88
  -2  -5   1   78.87    3.70
   2  -5  -1   81.84    4.02
   2  -5   0  146.80    5.45
   2  -5   0  151.04    5.40
   2  -5   0  153.38    5.95
  -2  -5   0  147.52    5.75
   2  -5   1   50.00    3.34
  -2  -5  -1   49.04    3.34
   2  -5   1   51.49    2.97
  -2  -5  -2    2.33    0.95
  -2  -5  -2    2.21    1.10
   2  -5   2    1.44    1.42
  -2  -5  -2    3.57    1.71
  -2  -5  -3   25.11    1.92
  -2  -5  -3   25.51    2.15
   2  -5   3   20.81    2.53
   2  -5   3   29.47    2.40
  -2  -5  -3   23.52    2.76
   2  -5   3   28.02    2.25
   2  -5   4   13.95    2.14
  -2  -5  -4   10.35    1.59
  -2  -5  -4   11.64    1.40
  -2  -5  -4    7.22    2.07
   2  -5   4    9.24    1.56
   2  -5   4   10.60    1.59
  -2  -5  -5   31.12    2.38
  -2  -5  -5   29.64    2.00
   2  -5   6   17.25    1.58
  -2  -5  -6   15.23    1.31
  -2  -5  -6   14.86    1.64
  -2  -5  -7   39.84    2.27
   2  -5   7   42.02    2.10
  -2  -5  -8    2.00    0.61
   2  -4 -11   12.81    0.99
   2  -4 -10   28.57    1.89
   2  -4  -9   12.37    1.94
   2  -4  -8    4.94    1.84
  -2  -4   7   48.59    2.62
   2  -4  -7   43.06    3.30
  -2  -4   6   58.36    2.87
   2  -4  -6   54.86    3.60
   2  -4  -5   67.29    3.78
  -2  -4   5   65.34    2.94
  -2  -4   5   68.26    3.70
  -2  -4   4   59.38    3.27
  -2  -4   4   61.20    2.65
  -2  -4   4   58.60    2.84
   2  -4  -3  230.71    7.02
   2  -4  -3  238.42    7.61
   2  -4  -3  238.44    6.61
   2  -4  -2  443.16   11.94
   2  -4  -2  438.86   11.19
   2  -4  -1  264.70    7.44
   2  -4   0  194.58    5.99
  -2  -4  -1  245.14    7.81
   2  -4   1  241.25    7.82
   2  -4   1  250.29    7.89
  -2  -4  -1  261.77    7.43
  -2  -4  -2  196.32    6.13
   2  -4   2  189.10    6.72
  -2  -4  -2  183.22    6.72
   2  -4   3   67.27    3.81
  -2  -4  -3   65.17    2.84
  -2  -4  -3   66.29    3.14
  -2  -4  -3   56.70    3.59
   2  -4   4   69.49    3.55
   2  -4   4   81.16    4.37
  -2  -4  -4   74.59    4.34
  -2  -4  -4   82.53    3.33
  -2  -4  -4   79.50    3.61
   2  -4   5   49.86    2.88
  -2  -4  -5   50.34    2.55
  -2  -4  -5   42.05    3.51
   2  -4   5   43.61    2.72
  -2  -4  -5   45.55    2.76
   2  -4   6  112.63    4.46
  -2  -4  -6  114.65    4.22
  -2  -4  -6  118.35    4.70
   2  -4   7   12.88    1.36
  -2  -4  -7   16.96    1.69
  -2  -4  -7   12.74    1.27
  -2  -4  -8   29.09    1.88
  -2  -4  -9    2.89    0.67
   2  -3 -10   12.39    1.27
   2  -3  -9   29.60    2.15
   2  -3  -9   31.37    2.54
   2  -3  -8   56.23    3.75
   2  -3  -8   58.46    3.09
   2  -3  -8   63.30    3.70
   2  -3  -7   36.20    2.30
   2  -3  -7   30.48    2.73
  -2  -3   7   40.64    2.35
   2  -3  -7   37.90    2.91
  -2  -3   6    3.99    0.97
   2  -3  -6    2.57    0.75
   2  -3  -6    3.38    1.31
  -2  -3   6    2.89    0.73
  -2  -3   5   18.32    1.35
   2  -3  -5   15.56    1.24
   2  -3  -5   15.87    1.86
   2  -3  -4    4.84    0.68
  -2  -3   4    3.95    0.81
   2  -3  -3   72.18    2.46
  -2  -3   3   70.28    2.65
   2  -3  -3   67.60    2.19
   2  -3  -2   67.61    1.94
  -2  -3   2   71.24    1.86
   2  -3  -2   71.97    2.55
   2  -3  -1  259.99    5.89
   2  -3   0  192.17    4.49
  -2  -3  -1  138.00    3.59
  -2  -3  -2   91.22    2.93
  -2  -3  -3   13.86    1.22
  -2  -3  -3    8.95    1.63
   2  -3   4   78.36    3.46
  -2  -3  -4   71.67    3.93
  -2  -3  -4   82.33    3.45
  -2  -3  -5   43.89    2.13
  -2  -3  -5   33.49    2.97
  -2  -3  -5   40.59    2.40
   2  -3   5   40.23    2.41
  -2  -3  -5   39.62    2.56
  -2  -3  -6  100.26    4.13
  -2  -3  -6   97.22    4.32
   2  -3   6   97.56    3.99
  -2  -3  -7    3.41    1.11
   2  -3   7    3.56    0.99
  -2  -3  -8   29.93    1.93
  -2  -3  -9    0.45    0.35
  -2  -3  -9    0.05    0.27
  -2  -3 -10    4.82    0.62
   2  -2 -11   25.25    1.89
   2  -2 -10   49.11    2.99
   2  -2  -9   47.37    3.88
   2  -2  -9   52.25    3.20
   2  -2  -8  141.82    6.78
   2  -2  -8  161.37    5.94
   2  -2  -7   21.30    1.95
   2  -2  -7   18.35    1.92
   2  -2  -7   21.49    1.82
   2  -2  -6   99.63    3.76
  -2  -2   6  101.49    3.56
   2  -2  -6   94.04    3.91
   2  -2  -5  340.93    8.75
  -2  -2   5  328.83    8.12
   2  -2  -4 1345.85   30.41
  -2  -2   4 1373.86   30.19
   2  -2  -3  872.82   19.36
   2  -2  -3  844.62   19.09
  -2  -2   3  868.41   19.37
   2  -2  -2  668.67   14.99
  -2  -2   1  400.84    8.95
   2  -2  -1  395.06    9.04
  -2  -2   0  855.69   18.89
  -2  -2  -1  491.04   11.48
  -2  -2  -2 1168.83   26.56
  -2  -2  -3  469.02   12.05
  -2  -2  -4  136.78    5.17
  -2  -2  -4  146.83    5.46
  -2  -2  -5  115.02    4.54
   2  -2   5  111.17    4.18
  -2  -2  -5  115.43    4.96
  -2  -2  -6  116.47    4.79
  -2  -2  -6  105.49    5.04
   2  -2   6  107.05    4.18
   2  -2   7  179.65    5.76
  -2  -2  -7  185.17    6.60
  -2  -2  -7  187.60    7.07
  -2  -2  -8   13.39    1.67
  -2  -2  -9   30.27    2.07
  -2  -2 -10    2.16    0.66
   2  -1 -12    1.14    0.78
   2  -1 -11   20.98    2.04
   2  -1 -10   17.20    2.13
   2  -1  -9    3.16    1.92
   2  -1  -9    4.52    1.58
   2  -1  -8   40.12    2.71
   2  -1  -8   36.81    2.72
   2  -1  -7   91.90    4.02
   2  -1  -7   84.63    3.76
   2  -1  -6   54.52    2.63
   2  -1  -5  133.70    4.24
   2  -1  -4  153.19    4.35
   2  -1  -3  937.33   20.37
   2  -1  -3  958.27   21.05
   2  -1  -2 2101.03   45.74
  -2  -1   1  116.77    2.84
  -2  -1   1  109.37    2.87
  -2  -1   0  950.23   21.00
  -2  -1  -1  806.45   18.43
  -2  -1  -2  390.87    9.97
  -2  -1  -3  193.28    6.13
  -2  -1  -4    2.98    1.20
  -2  -1  -5  122.72    4.80
  -2  -1  -5  121.93    5.34
  -2  -1  -6   73.10    3.72
  -2  -1  -6   69.48    4.10
   2  -1   6   78.96    3.15
  -2  -1  -7   15.51    2.07
  -2  -1  -7   14.70    1.62
  -2  -1  -7   11.81    1.80
  -2  -1  -8   26.85    2.36
  -2  -1  -9   38.70    2.56
  -2  -1 -10   23.38    1.67
   2   0 -12   20.45    1.58
   2   0 -11   32.53    2.51
   2   0 -10    4.60    1.54
   2   0  -9  234.71    9.85
   2   0  -9  279.47    8.94
   2   0  -8  354.24   10.40
   2   0  -8  350.80   10.53
   2   0  -7  382.96   10.96
   2   0  -7  401.56   10.87
   2   0  -6  676.83   16.52
   2   0  -5 2280.15   50.46
   2   0  -4  768.29   17.64
   2   0  -3  163.61    4.33
   2   0  -2   15.39    0.85
  -2   0   1 4987.56  107.20
  -2   0   1 4963.14  107.18
  -2   0   0  234.48    5.66
  -2   0  -1 1185.10   26.59
  -2   0  -2  518.95   12.83
  -2   0  -3 3445.01   76.20
  -2   0  -4  187.90    6.45
  -2   0  -5  101.96    4.19
  -2   0  -5   90.67    4.62
  -2   0  -6  273.35    9.45
  -2   0  -6  286.00    7.71
  -2   0  -6  256.79    8.63
  -2   0  -7   48.39    3.10
  -2   0  -7   41.27    3.28
  -2   0  -8   52.65    3.25
  -2   0  -8   52.82    3.53
  -2   0  -9  103.81    4.44
  -2   0 -10   56.17    2.68
   2   1 -12    1.90    0.76
   2   1 -11   20.12    1.99
   2   1 -10   16.12    2.03
   2   1  -9    5.62    2.15
   2   1  -9    4.64    1.00
   2   1  -9    6.30    1.52
   2   1  -8   38.32    2.75
   2   1  -8   39.03    2.29
   2   1  -8   34.93    2.52
   2   1  -7   85.14    3.93
   2   1  -7   89.77    3.81
   2   1  -6   51.98    2.56
   2   1  -5  119.17    3.91
   2   1  -4  151.95    4.34
   2   1  -3  965.56   21.59
   2   1  -2 2099.96   45.73
  -2   1   1  116.63    2.91
  -2   1   1  110.28    2.82
  -2   1   0  943.35   20.84
  -2   1  -1  826.42   18.80
  -2   1  -2  371.94    9.52
  -2   1  -3  189.09    5.99
  -2   1  -4    5.72    1.36
  -2   1  -5  125.89    4.87
  -2   1  -5  123.45    5.38
  -2   1  -6   76.25    4.29
  -2   1  -6   80.10    3.89
  -2   1  -7   11.91    1.32
  -2   1  -7   11.58    1.98
  -2   1  -7   16.18    2.00
  -2   1  -7   18.23    1.77
  -2   1  -8   29.08    1.76
  -2   1  -8   23.87    2.26
  -2   1  -9   40.57    2.63
  -2   1 -10   21.79    1.60
   2   2 -11   25.25    1.89
   2   2 -10   52.99    3.10
   2   2 -10   47.90    2.45
   2   2  -9   49.90    3.14
   2   2  -9   41.14    3.55
   2   2  -9   48.45    2.74
   2   2  -8  155.29    5.45
   2   2  -8  149.75    5.74
   2   2  -7   20.20    1.92
   2   2  -7   20.19    1.80
   2   2  -6  102.02    3.87
   2   2  -6  101.37    3.98
   2   2  -5  315.44    8.37
   2   2  -4 1346.58   30.11
   2   2  -3  840.17   18.95
   2   2  -2  689.20   15.45
   2   2  -1  403.88    9.16
  -2   2   1  402.01    9.04
  -2   2   0  837.01   18.50
  -2   2  -1  455.79   10.66
  -2   2  -2 1119.18   25.43
  -2   2  -3  448.74   11.53
  -2   2  -4  153.46    4.88
  -2   2  -4  155.47    5.48
  -2   2  -5  119.44    3.98
  -2   2  -5  106.27    4.34
  -2   2  -5  105.64    4.01
  -2   2  -5  105.29    4.68
  -2   2  -6  111.21    4.70
  -2   2  -6  102.97    4.93
  -2   2  -7  177.38    5.84
  -2   2  -7  179.82    6.47
  -2   2  -7  178.05    6.86
  -2   2  -8   13.91    1.39
  -2   2  -8   13.80    1.72
  -2   2  -9   -0.10    0.44
  -2   2  -9   27.35    1.89
  -2   2 -10    2.16    0.65
   2   3 -11    0.11    0.33
   2   3 -10   21.28    1.70
   2   3 -10   23.19    1.73
   2   3  -9   29.51    2.18
   2   3  -9   30.65    2.31
   2   3  -8   71.33    3.47
   2   3  -8   70.09    3.63
   2   3  -7   29.88    2.68
   2   3  -7   30.74    2.17
   2   3  -6    4.38    0.91
   2   3  -5   15.83    1.27
   2   3  -4    4.40    0.67
   2   3  -3   68.83    2.22
   2   3  -2   70.89    2.02
  -2   3  -1  148.18    3.77
  -2   3  -2   84.79    2.73
  -2   3  -3   10.49    1.22
  -2   3  -3   12.22    1.15
  -2   3  -4   75.58    3.29
  -2   3  -4   82.00    3.40
  -2   3  -5   39.85    2.50
  -2   3  -6  102.33    4.21
  -2   3  -7    3.34    1.10
  -2   3  -8   30.01    1.97
  -2   3  -8   33.43    2.08
  -2   3  -9   15.94    1.22
   2   4  -9   13.91    1.61
   2   4  -7   40.21    2.79
  -2   4  -2  189.61    5.83
  -2   4  -3   64.68    3.04
  -2   4  -4   84.94    3.73
  -2   4  -8   31.17    1.88
  -2   4  -9    1.54    0.56
   2   5  -8   32.74    2.27
   2   5  -7   15.51    1.77
   2   5  -6   15.94    1.85
   2   5  -5   17.33    1.84
  -2   5  -6   13.16    1.57
  -2   5  -7   41.77    2.23
   2   6  -8   48.17    2.19
   2   6  -7  104.10    3.89
   2   6  -6  180.03    5.88
   2   6  -5   97.43    4.03
   2   6  -4   10.42    1.41
  -2   6  -3   72.73    3.14
  -2   6  -4  107.65    4.00
  -2   6  -5   82.47    3.28
  -2   6  -6    2.60    0.78
  -2   6  -7   10.96    0.86
   3  -8  -4    9.56    1.10
   3  -8  -3   28.77    1.88
   3  -8  -2   23.47    1.75
   3  -7  -6   10.86    1.51
   3  -7  -5    7.79    1.54
   3  -7  -4    9.81    1.63
   3  -7  -3   23.65    2.17
   3  -7  -2    3.19    1.18
   3  -7   0   20.82    1.69
   3  -7   0   25.13    2.47
   3  -7   1    8.05    1.75
   3  -7   1    8.10    1.21
   3  -7   2   11.35    1.77
   3  -7   2    8.53    1.13
   3  -7   3   23.15    1.99
   3  -7   3   22.46    1.49
   3  -7   4   14.95    1.06
   3  -7   5    7.65    0.58
   3  -6  -9    7.84    0.93
   3  -6  -8   41.85    2.65
   3  -6  -7  132.22    5.44
   3  -6  -5   63.49    3.86
   3  -6  -4   40.09    2.96
   3  -6  -4   46.73    2.85
   3  -6  -4   47.19    3.28
   3  -6  -3   26.63    2.31
   3  -6  -3   28.18    2.64
   3  -6  -2   88.28    4.36
   3  -6  -2   83.64    4.26
   3  -6  -1   15.56    1.97
   3  -6  -1   13.02    2.07
   3  -6  -1   13.69    1.81
   3  -6  -1   13.02    1.62
   3  -6   0   38.24    3.18
   3  -6   0   34.75    2.48
   3  -6   1   22.56    2.63
   3  -6   2   30.94    2.92
   3  -6   2   25.33    2.20
   3  -6   3  119.49    4.83
   3  -6   3  131.14    5.72
   3  -6   4  146.55    5.10
   3  -5  -9   31.46    2.40
   3  -5  -8   25.67    2.18
   3  -5  -8   25.81    2.54
   3  -5  -7    1.75    1.15
   3  -5  -7    2.02    1.51
   3  -5  -6   17.31    1.87
   3  -5  -6   15.33    1.90
   3  -5  -6   19.32    2.38
   3  -5  -5   34.03    2.58
   3  -5  -5   36.93    2.69
   3  -5  -4  105.85    4.68
   3  -5  -4  106.13    4.82
   3  -5  -4  107.86    5.06
   3  -5  -3  102.33    4.72
   3  -5  -3  105.06    4.80
   3  -5  -3   93.34    3.74
   3  -5  -3   90.34    4.33
   3  -5  -2    9.97    1.85
   3  -5  -2    9.49    1.58
   3  -5  -2    8.57    1.26
   3  -5  -2   10.48    1.75
   3  -5  -1   13.64    1.88
   3  -5  -1   11.59    1.74
   3  -5  -1   11.53    1.48
   3  -5   0   84.55    4.36
   3  -5   0   82.21    4.35
   3  -5   0   80.68    3.81
   3  -5   0   82.48    3.80
   3  -5   1   99.07    5.00
   3  -5   1  105.45    4.53
   3  -5   2   20.62    2.09
  -3  -5  -2   21.97    2.08
   3  -5   2   23.39    2.54
  -3  -5  -3    7.27    1.48
   3  -5   3    9.45    2.02
   3  -5   3    6.45    1.48
   3  -5   4   32.92    2.99
   3  -5   4   35.09    2.49
  -3  -5  -4   39.26    2.67
   3  -5   5   53.84    2.90
  -3  -5  -5   60.56    3.18
   3  -5   6   43.96    2.28
  -3  -5  -6   47.27    2.60
  -3  -5  -7   12.87    1.24
   3  -5   7   14.69    1.11
   3  -4 -11   30.71    1.66
   3  -4 -10   54.86    2.75
   3  -4  -9  141.32    5.30
   3  -4  -9  136.04    5.54
   3  -4  -8   20.47    2.03
   3  -4  -8   20.93    2.40
   3  -4  -7    4.78    1.28
   3  -4  -7    2.14    1.57
  -3  -4   6   72.52    3.07
   3  -4  -6   67.38    3.41
   3  -4  -6   70.71    4.10
   3  -4  -5  236.59    7.49
   3  -4  -5  253.84    8.42
  -3  -4   5  252.12    6.96
   3  -4  -4  546.72   14.14
   3  -4  -3  316.22    9.04
   3  -4  -3  313.36    9.48
   3  -4  -3  319.86    8.45
   3  -4  -2  549.27   14.35
   3  -4  -2  547.43   14.17
   3  -4  -2  536.81   13.59
   3  -4  -2  556.55   14.64
   3  -4  -1  625.83   16.32
   3  -4  -1  648.25   16.36
   3  -4  -1  649.21   15.87
   3  -4  -1  665.97   16.95
   3  -4   0  731.94   18.10
   3  -4   0  743.27   18.87
  -3  -4   0  722.14   18.62
  -3  -4   0  736.85   18.14
   3  -4   1  282.17    8.89
  -3  -4  -1  281.90    8.28
  -3  -4  -1  283.06    9.04
   3  -4   2  261.61    8.69
  -3  -4  -2  249.35    8.65
  -3  -4  -2  259.72    7.87
  -3  -4  -3  197.99    6.59
   3  -4   3  197.70    7.50
  -3  -4  -4  149.65    5.48
   3  -4   4  132.91    5.29
   3  -4   4  151.05    6.39
  -3  -4  -5   12.79    1.60
   3  -4   5   12.03    1.55
   3  -4   6   43.09    2.44
  -3  -4  -6   44.86    2.69
  -3  -4  -7   37.24    2.23
   3  -4   7   35.71    1.96
  -3  -4  -8   33.77    1.83
   3  -3 -12    6.29    0.70
   3  -3 -11   -0.09    0.25
   3  -3 -10    4.27    1.04
   3  -3  -9    3.20    1.08
   3  -3  -9    4.97    1.39
   3  -3  -8    6.25    1.26
   3  -3  -8    5.63    1.58
   3  -3  -8    4.30    1.55
   3  -3  -7   11.47    1.31
   3  -3  -7   13.91    1.49
   3  -3  -7   14.75    1.93
   3  -3  -6    2.46    0.73
   3  -3  -6    2.28    1.29
  -3  -3   6    2.39    0.83
   3  -3  -5   49.79    2.97
   3  -3  -5   49.92    2.24
   3  -3  -4   69.85    2.49
   3  -3  -4   69.16    3.35
  -3  -3   3  194.17    4.83
   3  -3  -3  191.28    5.06
   3  -3  -3  194.16    5.31
  -3  -3   2   66.67    1.96
   3  -3  -2   66.19    2.09
   3  -3  -1  130.39    3.46
  -3  -3   0   37.46    1.42
  -3  -3  -1    9.74    0.78
  -3  -3  -2   56.69    3.29
  -3  -3  -2   57.63    2.29
  -3  -3  -3   13.32    1.27
   3  -3   3   15.31    2.01
  -3  -3  -4   12.61    1.15
   3  -3   4   13.55    1.99
   3  -3   4   10.66    1.44
  -3  -3  -4   12.92    1.42
  -3  -3  -4   13.56    1.47
   3  -3   5    7.09    1.21
  -3  -3  -5    9.02    1.37
  -3  -3  -5    9.47    1.20
  -3  -3  -5    8.35    1.31
   3  -3   6   67.10    3.13
  -3  -3  -6   69.90    2.88
  -3  -3  -6   70.67    3.30
   3  -3   7   46.00    2.34
  -3  -3  -7   46.71    2.49
  -3  -3  -8   24.40    1.64
  -3  -3  -8    0.17    0.43
  -3  -3  -9   11.98    1.03
   3  -2 -12   12.90    1.08
   3  -2 -11   36.23    2.34
   3  -2 -10   70.08    3.65
   3  -2  -9  101.51    4.62
   3  -2  -8  132.14    5.30
   3  -2  -8  125.26    5.06
   3  -2  -7   45.56    2.75
   3  -2  -7   46.15    2.80
   3  -2  -7   42.77    2.55
   3  -2  -6  115.01    4.30
   3  -2  -6  115.13    4.45
   3  -2  -6  114.55    4.17
   3  -2  -5  538.43   13.18
   3  -2  -4  242.35    6.45
   3  -2  -3 1262.00   28.13
  -3  -2   2  426.57    9.69
   3  -2  -2  411.25    9.87
  -3  -2   1 1133.79   25.16
  -3  -2   1 1152.26   25.26
  -3  -2   0  789.62   17.82
  -3  -2  -1 1064.86   24.09
  -3  -2  -2  389.74   10.09
  -3  -2  -3  333.20    9.27
   3  -2   4  183.78    5.86
  -3  -2  -4  185.97    6.09
  -3  -2  -4  190.20    6.38
  -3  -2  -5  157.99    5.12
   3  -2   5  152.38    5.21
  -3  -2  -5  153.38    5.61
  -3  -2  -5  151.62    5.88
  -3  -2  -6   48.41    3.00
   3  -2   6   50.59    2.57
  -3  -2  -6   43.48    3.02
   3  -2   7   83.42    3.30
  -3  -2  -7   85.53    3.50
  -3  -2  -7   80.21    3.90
  -3  -2  -8   42.01    2.50
  -3  -2  -9   24.63    1.59
  -3  -2 -10    3.71    0.51
   3  -1 -12    3.16    0.99
   3  -1 -11   39.09    2.68
   3  -1 -10   83.95    4.29
   3  -1  -9   56.12    3.37
   3  -1  -9   57.00    3.57
   3  -1  -8   39.05    2.77
   3  -1  -8   39.83    2.73
   3  -1  -7   86.16    3.89
   3  -1  -7   80.04    3.66
   3  -1  -6   23.50    1.71
   3  -1  -5  144.18    4.54
   3  -1  -4  579.64   13.67
   3  -1  -3  158.64    4.39
  -3  -1   2  678.98   15.10
   3  -1  -2  661.38   15.21
  -3  -1   1  957.04   20.87
  -3  -1   1  925.55   20.93
  -3  -1   0  706.69   16.08
  -3  -1  -1  672.04   15.82
  -3  -1  -2  103.02    3.77
  -3  -1  -3  322.49    9.10
  -3  -1  -4  241.75    7.84
  -3  -1  -4  241.64    7.50
  -3  -1  -4  262.55    7.03
   3  -1   5   58.67    2.58
  -3  -1  -5   61.56    2.82
  -3  -1  -5   54.99    3.05
  -3  -1  -5   52.61    3.30
  -3  -1  -6    9.12    1.39
  -3  -1  -6    6.60    1.62
  -3  -1  -6    9.23    1.64
  -3  -1  -7   40.18    2.86
  -3  -1  -7   39.69    2.97
  -3  -1  -8   57.61    3.19
  -3  -1  -9   33.66    2.11
  -3  -1 -10    6.30    0.74
   3   0 -12   16.48    1.56
   3   0 -11   23.15    2.25
   3   0 -10    7.65    1.77
   3   0  -9    0.77    1.13
   3   0  -9    0.53    1.28
   3   0  -8  389.38   11.31
   3   0  -8  377.55   11.04
   3   0  -7  839.87   21.14
   3   0  -7  874.99   21.00
   3   0  -6  370.98    9.89
   3   0  -5   44.01    2.13
   3   0  -4  285.75    7.34
   3   0  -3    8.33    0.77
  -3   0   2    1.53    0.45
  -3   0   1   15.01    0.86
  -3   0   1   16.72    0.83
  -3   0   0   11.38    0.92
  -3   0  -1    2.60    0.79
  -3   0  -2  467.68   11.90
  -3   0  -3   14.84    1.65
  -3   0  -4  981.18   24.01
  -3   0  -4  981.91   23.41
  -3   0  -5  163.27    4.97
  -3   0  -5  148.97    5.65
  -3   0  -5  150.46    6.10
  -3   0  -6  146.11    4.59
  -3   0  -6  160.21    5.36
  -3   0  -6  140.44    5.57
  -3   0  -6  126.05    5.73
  -3   0  -7    8.54    1.44
  -3   0  -7    7.44    1.57
  -3   0  -7    6.64    1.53
  -3   0  -8   11.70    1.69
  -3   0  -9   23.55    1.85
  -3   0 -10    0.46    0.57
   3   1 -12    2.04    0.94
   3   1 -11   38.14    2.66
   3   1 -10   76.89    4.09
   3   1  -9   50.98    3.19
   3   1  -9   51.12    3.37
   3   1  -9   48.55    2.61
   3   1  -8   41.78    2.91
   3   1  -8   38.17    2.62
   3   1  -7   81.72    3.65
   3   1  -7   81.01    3.77
   3   1  -6   27.58    1.85
   3   1  -5  150.36    4.67
   3   1  -4  605.19   14.22
   3   1  -3  161.09    4.44
  -3   1   2  679.64   15.15
   3   1  -2  666.90   15.28
  -3   1   1  949.94   20.86
  -3   1   1  933.96   20.97
  -3   1   0  744.30   16.86
  -3   1  -1  678.51   15.94
  -3   1  -2  101.40    3.68
  -3   1  -3  312.59    8.92
  -3   1  -4  238.81    6.82
  -3   1  -4  226.86    7.24
  -3   1  -4  238.32    7.72
  -3   1  -5   50.91    2.52
  -3   1  -5   53.76    2.64
  -3   1  -5   53.03    3.00
  -3   1  -5   51.17    3.24
  -3   1  -6    7.92    1.63
  -3   1  -6   11.69    1.44
  -3   1  -6    8.63    1.24
  -3   1  -6    7.67    1.53
  -3   1  -7   50.31    2.77
  -3   1  -7   43.09    2.28
  -3   1  -7   40.28    2.85
  -3   1  -7   42.21    3.04
  -3   1  -8   16.86    1.19
  -3   1  -8   54.97    2.92
  -3   1  -9   31.78    2.06
  -3   1 -10    8.31    0.84
   3   2 -12   11.04    1.05
   3   2 -11   37.29    2.38
   3   2 -10   70.65    3.74
   3   2 -10   73.48    3.24
   3   2  -9  113.54    4.95
   3   2  -9  114.17    4.55
   3   2  -8  140.82    5.40
   3   2  -8  139.97    5.57
   3   2  -7   45.81    2.63
   3   2  -7   48.19    2.83
   3   2  -6  115.54    4.44
   3   2  -6  133.11    4.49
   3   2  -5  549.51   13.46
   3   2  -4  243.32    6.48
   3   2  -3 1267.81   28.28
  -3   2   2  401.93    9.23
   3   2  -2  395.84    9.44
  -3   2   1 1156.20   25.46
  -3   2   0  815.95   18.36
  -3   2  -1 1018.58   23.06
  -3   2  -2  374.30    9.65
  -3   2  -3  363.47    9.88
  -3   2  -4  206.83    6.63
  -3   2  -4  216.28    6.92
  -3   2  -5  148.21    5.13
  -3   2  -5  160.37    5.06
  -3   2  -5  143.61    5.48
  -3   2  -5  154.97    5.87
  -3   2  -6   54.67    2.87
  -3   2  -6   48.37    2.62
  -3   2  -6   43.77    2.92
  -3   2  -6   47.60    3.14
  -3   2  -7   87.74    3.52
  -3   2  -7   87.57    3.52
  -3   2  -8   47.18    2.26
  -3   2  -8   44.96    2.63
  -3   2  -9   26.15    1.63
   3   3 -10    2.89    1.03
   3   3 -10    3.38    1.03
   3   3  -9    1.66    1.08
   3   3  -9    2.39    1.02
   3   3  -8    3.83    1.14
   3   3  -7   13.99    1.56
   3   3  -7   13.15    1.40
   3   3  -6    2.01    0.78
   3   3  -5   51.41    2.31
   3   3  -4   69.55    2.51
  -3   3   3  191.15    4.73
   3   3  -3  187.52    5.01
  -3   3   2   67.30    1.94
   3   3  -2   65.30    2.12
   3   3  -1  126.71    3.43
  -3   3  -1    7.72    0.72
  -3   3  -2   56.64    2.26
  -3   3  -3   17.09    1.39
  -3   3  -4   10.22    1.29
  -3   3  -5    4.20    1.17
  -3   3  -6   76.65    3.47
  -3   3  -6   75.24    3.48
  -3   3  -7   44.38    2.48
  -3   3  -7   48.01    2.54
  -3   3  -8   23.53    1.56
  -3   3  -8   21.87    1.45
  -3   3  -9    0.09    0.24
   3   4 -10   53.16    2.58
   3   4  -9  130.64    4.97
  -3   4  -5   17.96    1.80
  -3   4  -7   35.07    2.09
  -3   4  -8   31.37    1.63
   3   5  -9   34.00    2.09
   3   5  -8   24.32    2.06
   3   5  -7    3.33    1.26
  -3   5  -1  101.79    3.76
  -3   5  -2   19.55    1.68
  -3   5  -3   10.20    1.47
  -3   5  -4   34.35    2.33
  -3   5  -5   56.40    2.90
  -3   5  -6   47.12    2.42
  -3   5  -7   16.61    1.25
   3   6  -8   38.42    1.96
   3   6  -7  130.99    4.53
   3   6  -6  154.84    5.31
   3   6  -5   59.18    3.01
   3   6  -4   44.76    2.59
  -3   6  -3  122.57    4.24
  -3   6  -4  150.42    4.82
  -3   6  -5   87.33    3.15
  -3   6  -6   17.77    1.12
   4  -8  -4   30.58    1.60
   4  -8  -3   20.34    1.44
   4  -8  -2   26.30    1.64
   4  -8  -1   37.72    1.96
   4  -8   0   30.97    1.67
   4  -7  -6    6.57    1.24
   4  -7  -5    2.42    1.15
   4  -7  -5    3.03    1.21
   4  -7  -4   15.19    1.78
   4  -7  -4   14.23    1.79
   4  -7  -3   14.95    1.84
   4  -7  -3   14.35    1.72
   4  -7  -2    1.86    1.31
   4  -7  -2    0.25    0.64
   4  -7  -1   23.33    2.29
   4  -7   0    6.26    1.56
   4  -7   0    5.50    1.11
   4  -7   1   10.00    1.55
   4  -7   1   10.20    1.21
   4  -7   2   34.19    2.30
   4  -7   2   29.65    1.75
   4  -7   3   19.22    1.21
   4  -7   4    1.37    0.40
   4  -6  -9   23.19    1.55
   4  -6  -9   27.12    1.57
   4  -6  -8   30.69    2.09
   4  -6  -8   31.02    2.30
   4  -6  -7  106.02    4.39
   4  -6  -7  100.21    4.57
   4  -6  -6   90.82    4.08
   4  -6  -6   68.04    3.27
   4  -6  -5   74.46    3.90
   4  -6  -5   78.89    4.20
   4  -6  -5   78.64    3.83
   4  -6  -4   22.60    2.25
   4  -6  -4   23.60    2.49
   4  -6  -3   42.21    3.06
   4  -6  -3   43.68    3.09
   4  -6  -2   47.33    3.31
   4  -6  -2   46.90    3.17
   4  -6  -2   46.49    3.24
   4  -6  -1   63.75    3.87
   4  -6  -1   67.79    4.05
   4  -6  -1   64.30    3.52
   4  -6   0   48.29    3.51
   4  -6   1   73.37    4.34
   4  -6   2   74.42    3.67
   4  -6   2   79.94    4.36
   4  -6   3  211.28    7.47
   4  -6   5   12.48    1.04
   4  -5 -10    0.84    0.71
   4  -5  -9    0.43    1.00
   4  -5  -9    0.95    1.16
   4  -5  -8    3.78    1.21
   4  -5  -8    1.38    0.68
   4  -5  -8    4.34    1.55
   4  -5  -7   16.23    1.88
   4  -5  -7   16.98    2.34
   4  -5  -7   17.87    1.94
   4  -5  -6    6.05    1.46
   4  -5  -6    6.98    1.97
   4  -5  -6    5.52    1.36
   4  -5  -5    3.06    1.23
   4  -5  -5    3.45    1.38
   4  -5  -4   68.91    3.96
   4  -5  -4   62.97    3.88
   4  -5  -4   68.13    3.68
   4  -5  -3   36.69    2.91
   4  -5  -3   37.86    2.94
   4  -5  -3   30.65    2.49
   4  -5  -2   24.30    2.47
   4  -5  -2   21.86    2.34
   4  -5  -2   23.98    1.92
   4  -5  -1   57.79    3.69
   4  -5  -1   50.73    3.25
   4  -5  -1   49.68    2.92
   4  -5  -1   56.87    3.64
   4  -5   0   39.66    3.13
   4  -5   0   41.84    2.79
   4  -5   0   38.46    2.70
   4  -5   0   40.20    3.15
   4  -5   1   45.12    3.45
   4  -5   1   43.01    2.90
  -4  -5  -2   42.32    2.88
   4  -5   2   39.96    3.26
   4  -5   2   38.05    2.75
   4  -5   3   37.22    2.64
  -4  -5  -3   33.77    2.55
   4  -5   3   35.66    3.08
   4  -5   4   17.97    1.83
  -4  -5  -4   21.88    1.99
  -4  -5  -5   16.03    1.65
   4  -5   5   14.43    1.42
   4  -5   6   28.18    1.57
  -4  -5  -6   31.18    1.89
   4  -4 -11   26.08    1.58
   4  -4 -10   44.13    2.46
   4  -4  -9   10.44    1.49
   4  -4  -9    8.27    1.70
   4  -4  -8   11.67    2.03
   4  -4  -8   13.69    1.70
   4  -4  -7    5.13    1.23
   4  -4  -7    7.41    1.93
   4  -4  -6   93.03    4.11
   4  -4  -6  100.60    4.88
   4  -4  -5  134.79    5.06
   4  -4  -5  139.96    5.81
   4  -4  -4  405.56   11.24
   4  -4  -3  225.38    7.54
   4  -4  -3  225.48    7.21
   4  -4  -3  227.25    6.59
   4  -4  -2  109.02    4.49
   4  -4  -2  111.51    4.67
   4  -4  -2  109.89    4.06
   4  -4  -2  111.34    4.90
   4  -4  -1  124.18    5.29
   4  -4  -1  118.58    4.86
  -4  -4   0  293.18    8.79
   4  -4   0  297.19    8.94
   4  -4   0  304.25    9.46
   4  -4   1  425.74   12.39
   4  -4   1  408.21   11.45
  -4  -4  -1  418.42   11.56
   4  -4   1  420.25   12.23
   4  -4   2   51.42    3.56
   4  -4   3   36.25    3.06
   4  -4   4    8.44    1.41
   4  -4   5   29.86    2.15
  -4  -4  -5   37.34    2.49
  -4  -4  -6   19.09    1.74
   4  -4   6   21.97    1.57
  -4  -4  -7   36.17    1.99
   4  -4   7   33.90    1.63
  -4  -4  -8   16.94    1.08
   4  -3 -12    7.34    0.80
  -4  -3  11   -0.20    0.26
   4  -3 -11    0.41    0.33
   4  -3 -10   27.02    1.92
   4  -3  -9   14.64    1.63
   4  -3  -9   14.65    1.85
   4  -3  -8   24.25    2.03
   4  -3  -8   22.07    1.84
   4  -3  -8   24.15    2.38
   4  -3  -7   18.02    1.61
   4  -3  -7   17.99    1.73
   4  -3  -7   22.24    2.35
   4  -3  -6   93.46    3.73
   4  -3  -6   91.44    3.61
  -4  -3   5   13.74    1.02
   4  -3  -5   14.58    1.21
   4  -3  -5   16.47    1.92
   4  -3  -5   15.26    1.42
   4  -3  -4   85.02    3.06
  -4  -3   4   91.58    2.84
   4  -3  -4   90.74    4.02
  -4  -3   3   45.84    1.70
   4  -3  -3   45.43    1.89
   4  -3  -2   96.88    3.05
   4  -3  -1   14.91    0.97
  -4  -3   0   51.04    2.00
   4  -3   1   58.48    3.19
  -4  -3  -1   67.59    2.92
  -4  -3  -1   61.94    2.42
  -4  -3  -2    8.23    1.20
   4  -3   2    8.49    1.63
  -4  -3  -2    6.91    0.91
  -4  -3  -3   27.70    1.87
   4  -3   3   28.18    2.61
  -4  -3  -3   26.46    1.78
   4  -3   4   32.35    2.25
  -4  -3  -4   34.38    1.90
  -4  -3  -4   35.35    2.23
  -4  -3  -4   33.61    2.13
   4  -3   5   14.03    1.55
  -4  -3  -5   16.41    1.61
  -4  -3  -5   12.27    1.44
   4  -3   6    4.82    0.97
  -4  -3  -6    4.78    0.90
  -4  -3  -6    4.31    1.04
   4  -3   7   35.45    1.67
  -4  -3  -7   12.07    1.16
   4  -2 -12   15.90    1.29
   4  -2 -11   18.53    1.78
   4  -2 -10   70.30    3.68
   4  -2  -9  131.64    5.45
   4  -2  -9  131.15    5.33
   4  -2  -8   87.30    4.19
   4  -2  -8   83.62    3.98
   4  -2  -7   92.33    4.09
   4  -2  -7   95.48    4.13
   4  -2  -7   90.00    3.92
   4  -2  -6   82.82    3.43
   4  -2  -6   84.68    3.78
   4  -2  -5  484.80   12.19
  -4  -2   4  366.22    8.82
   4  -2  -4  347.87    9.08
  -4  -2   3  442.35   10.38
   4  -2  -3  431.91   10.67
   4  -2  -2 1368.25   30.79
  -4  -2   2 1392.73   30.58
  -4  -2   1  806.22   18.36
  -4  -2   0  360.82    8.95
  -4  -2  -1  236.47    6.51
  -4  -2  -2  260.91    7.44
  -4  -2  -3   89.02    3.72
  -4  -2  -3   91.94    3.81
  -4  -2  -3   82.81    3.18
   4  -2   4   53.22    2.76
  -4  -2  -4   62.99    3.18
  -4  -2  -4   54.81    3.16
   4  -2   5   66.86    3.03
  -4  -2  -5   61.87    2.92
  -4  -2  -5   69.80    3.50
  -4  -2  -5   64.11    3.50
   4  -2   6  137.37    4.68
  -4  -2  -6  132.75    5.30
  -4  -2  -6  132.43    5.40
  -4  -2  -7   33.87    2.30
  -4  -2  -8   33.03    1.93
  -4  -2  -9    4.82    0.68
   4  -1 -12    8.33    1.22
   4  -1 -11    2.85    1.32
   4  -1 -10    0.78    1.34
   4  -1  -9   36.85    2.94
   4  -1  -9   37.51    2.77
   4  -1  -8   62.95    3.45
   4  -1  -8   63.08    3.55
   4  -1  -7   35.10    2.46
   4  -1  -7   32.40    2.24
   4  -1  -6   74.44    3.22
   4  -1  -5   39.52    2.08
   4  -1  -4  364.14    9.21
  -4  -1   3  170.16    4.57
   4  -1  -3  167.91    4.75
  -4  -1   2   10.63    0.80
  -4  -1   1  104.25    3.18
  -4  -1   1  102.90    3.03
  -4  -1   0  459.21   11.13
  -4  -1  -1  151.54    4.75
  -4  -1  -2  170.13    5.55
  -4  -1  -3    0.84    0.62
  -4  -1  -3    0.68    1.01
  -4  -1  -3    0.94    0.94
  -4  -1  -4  129.05    5.03
  -4  -1  -4  132.92    5.27
  -4  -1  -4  130.00    4.41
  -4  -1  -5   87.20    3.63
  -4  -1  -5   84.76    4.06
  -4  -1  -5   91.19    4.39
  -4  -1  -6   33.56    2.23
  -4  -1  -6   34.77    2.63
  -4  -1  -6   35.24    2.70
  -4  -1  -7   44.33    2.49
  -4  -1  -7   38.33    2.64
  -4  -1  -8   32.37    2.14
   4   0 -12   13.28    1.51
   4   0 -11    7.19    1.64
   4   0 -10   27.22    2.58
   4   0  -9  223.67    7.87
   4   0  -9  217.72    7.68
   4   0  -8  594.53   16.12
   4   0  -8  608.01   15.96
   4   0  -7  602.03   15.67
   4   0  -7  609.48   15.50
   4   0  -6 1124.71   26.34
   4   0  -5  178.78    5.35
   4   0  -4   60.30    2.42
  -4   0   3  642.09   14.82
   4   0  -3  648.86   15.04
  -4   0   2 1486.58   32.80
  -4   0   1  421.06   10.04
  -4   0   1  418.74    9.86
  -4   0   0    1.30    0.60
  -4   0  -1  130.44    4.32
  -4   0  -2 1555.15   35.65
  -4   0  -3 1535.52   33.80
  -4   0  -3 1481.23   33.61
  -4   0  -3 1444.68   34.38
  -4   0  -3 1496.90   34.78
  -4   0  -4  762.13   17.93
  -4   0  -4  732.27   18.79
  -4   0  -4  726.00   19.21
  -4   0  -4  774.10   18.14
  -4   0  -5  485.44   11.99
  -4   0  -5  487.68   12.37
  -4   0  -5  447.80   12.95
  -4   0  -5  461.36   13.37
  -4   0  -6   17.90    1.35
  -4   0  -6   17.10    1.68
  -4   0  -6   17.27    1.96
  -4   0  -6   15.28    2.01
  -4   0  -7    7.69    1.29
  -4   0  -7    6.95    1.42
  -4   0  -8    8.01    1.28
  -4   0  -9   24.75    1.56
   4   1 -12    8.69    1.24
   4   1 -11    3.59    1.37
   4   1 -10    1.30    1.39
   4   1  -9   40.65    3.01
   4   1  -9   36.35    2.71
   4   1  -8   59.81    3.33
   4   1  -8   64.76    3.60
   4   1  -7   35.47    2.46
   4   1  -7   37.03    2.40
   4   1  -6   78.08    3.29
   4   1  -5   36.43    1.97
   4   1  -4  367.32    9.31
  -4   1   3  174.81    4.61
   4   1  -3  166.87    4.79
  -4   1   2   13.51    0.88
  -4   1   1   99.26    3.11
  -4   1   1  102.50    2.99
  -4   1   0  449.18   10.91
  -4   1  -1  149.73    4.68
  -4   1  -2  176.73    5.68
  -4   1  -3    2.63    0.75
  -4   1  -3    2.17    0.87
  -4   1  -3    2.71    1.01
  -4   1  -3    2.98    1.04
  -4   1  -4  132.36    4.55
  -4   1  -4  130.06    5.05
  -4   1  -4  138.59    5.43
  -4   1  -4  135.73    4.51
  -4   1  -5   93.24    3.73
  -4   1  -5   89.68    3.61
  -4   1  -5   87.76    4.20
  -4   1  -5   90.01    4.41
  -4   1  -6   29.84    1.95
  -4   1  -6   32.32    2.50
  -4   1  -6   33.28    2.63
  -4   1  -6   31.90    2.20
  -4   1  -7   37.99    2.27
  -4   1  -7   34.89    1.94
  -4   1  -7   35.27    2.54
  -4   1  -8   27.36    1.99
  -4   1  -9   15.96    1.18
   4   2 -12   16.39    1.29
   4   2 -11   16.22    1.67
   4   2 -11   -0.15    0.35
   4   2 -10   73.88    3.84
   4   2 -10   70.99    3.25
   4   2  -9  126.77    5.33
   4   2  -9  124.20    5.17
   4   2  -8   70.21    3.60
   4   2  -8   73.07    3.79
   4   2  -7   83.70    3.92
   4   2  -7   93.92    3.94
   4   2  -6   75.20    3.23
   4   2  -5  495.33   12.41
  -4   2   4  362.29    8.67
   4   2  -4  337.63    8.97
  -4   2   3  445.51   10.45
   4   2  -3  437.74   10.79
   4   2  -2 1353.61   30.05
  -4   2   2 1338.68   29.78
  -4   2   1  790.35   18.02
  -4   2   0  350.15    8.69
  -4   2  -1  242.27    6.58
  -4   2  -2  240.81    6.89
  -4   2  -2  249.87    7.04
  -4   2  -3   71.81    3.29
  -4   2  -3   78.49    3.45
  -4   2  -3   77.16    2.93
  -4   2  -4   51.37    2.66
  -4   2  -4   48.92    2.86
  -4   2  -4   55.64    3.08
  -4   2  -5   69.94    3.08
  -4   2  -5   66.28    3.15
  -4   2  -5   67.39    3.50
  -4   2  -5   74.19    3.74
  -4   2  -6  141.68    5.01
  -4   2  -6  141.26    5.47
  -4   2  -6  140.10    5.51
  -4   2  -7   35.08    2.35
  -4   2  -7   36.81    2.06
  -4   2  -8    0.47    0.40
  -4   2  -8   34.18    1.82
   4   3 -11    9.76    1.02
   4   3 -10   25.17    1.94
   4   3 -10   29.53    2.07
   4   3  -9   14.37    1.66
   4   3  -8   21.55    1.95
   4   3  -7   19.54    1.65
   4   3  -7   20.90    1.85
   4   3  -6   98.83    3.79
  -4   3   5   16.02    1.07
   4   3  -5   15.85    1.27
   4   3  -4   89.55    3.13
  -4   3   4   87.34    2.76
  -4   3   3   45.62    1.67
   4   3  -3   44.75    1.90
   4   3  -2   95.94    3.06
   4   3  -1   17.59    1.07
  -4   3   0   43.84    1.82
  -4   3  -1   63.35    2.44
  -4   3  -1   62.28    2.73
  -4   3  -2    7.67    0.96
  -4   3  -2   10.23    1.31
  -4   3  -3   28.84    1.83
  -4   3  -3   28.65    2.01
  -4   3  -4   33.79    2.29
  -4   3  -4   36.08    2.30
  -4   3  -5   13.85    1.35
  -4   3  -5   15.87    1.63
  -4   3  -6    3.74    1.05
  -4   3  -6    4.30    1.05
  -4   3  -7   33.18    1.93
  -4   3  -8   31.41    1.49
   4   4 -11   24.30    1.32
   4   4 -10   41.30    2.30
   4   4  -9   11.70    1.61
  -4   4   0  313.40    8.39
  -4   4  -1  429.40   11.20
  -4   4  -2   60.71    2.93
  -4   4  -3   37.46    2.40
  -4   4  -4    6.45    1.34
  -4   4  -5   32.55    2.19
  -4   4  -7   35.10    1.80
  -4   4  -8   12.49    0.79
   4   5  -9    0.74    0.90
   4   5  -8    2.51    1.16
  -4   5  -1   38.35    2.18
  -4   5  -2   40.76    2.34
  -4   5  -3   30.02    2.07
  -4   5  -4   20.15    1.74
  -4   5  -5   15.69    1.47
  -4   5  -6   29.09    1.66
  -4   5  -7    9.15    0.77
   4   6  -9   26.47    1.32
   4   6  -8   26.55    1.60
   4   6  -7   95.53    3.64
   4   6  -6   85.44    3.57
   4   6  -5   69.01    3.22
  -4   6  -2   80.58    3.05
  -4   6  -3  188.30    5.53
  -4   6  -4   90.78    3.17
  -4   6  -5   11.38    0.94
   5  -7  -7    0.90    0.63
   5  -7  -6    6.12    1.07
   5  -7  -6    6.13    1.17
   5  -7  -5    1.97    0.98
   5  -7  -5    2.11    1.10
   5  -7  -4    4.08    1.15
   5  -7  -4    3.45    1.14
   5  -7  -3    3.56    1.20
   5  -7  -3    3.61    1.10
   5  -7  -2    0.60    1.04
   5  -7  -2   -0.13    0.33
   5  -7  -1    9.55    1.51
   5  -7   0    0.63    1.01
   5  -7   0    0.64    0.72
   5  -7   1    5.12    1.12
   5  -7   1    6.55    0.92
   5  -7   2    2.32    0.61
   5  -7   3    7.56    0.58
   5  -6  -8   21.52    1.86
   5  -6  -7   36.66    2.47
   5  -6  -7   -0.07    0.54
   5  -6  -6    8.16    1.43
   5  -6  -5   18.00    2.01
   5  -6  -5   18.94    2.32
   5  -6  -4   98.76    4.65
   5  -6  -4   90.93    4.60
   5  -6  -3  111.46    5.12
   5  -6  -3  118.26    5.19
   5  -6  -3  107.86    5.03
   5  -6  -2   94.48    4.68
   5  -6  -2  102.08    4.84
   5  -6  -2   92.17    4.46
   5  -6  -1   67.23    3.93
   5  -6  -1   63.65    3.40
   5  -6   0   40.75    3.09
   5  -6   1   55.40    3.50
   5  -6   2   42.61    2.89
   5  -6   3   25.73    1.75
   5  -6   4   21.15    1.32
   5  -6   5    6.46    0.54
   5  -5 -10   10.66    1.08
   5  -5  -9   11.62    1.36
   5  -5  -9    9.47    1.51
   5  -5  -8   -0.50    1.01
   5  -5  -8    0.73    1.05
   5  -5  -8    0.70    1.38
   5  -5  -7   41.61    3.02
   5  -5  -7   45.25    3.26
   5  -5  -7   44.99    2.89
   5  -5  -6   31.20    2.48
   5  -5  -6   38.71    2.96
   5  -5  -6   36.79    3.07
   5  -5  -5   11.80    1.72
   5  -5  -5    9.22    1.83
   5  -5  -4    2.45    1.21
   5  -5  -4    2.39    1.31
   5  -5  -4    1.83    1.70
   5  -5  -3    2.13    1.43
   5  -5  -3    4.26    1.73
   5  -5  -2    0.77    1.38
   5  -5  -2   -0.14    1.28
   5  -5  -2    1.59    1.50
   5  -5  -2    0.29    0.92
   5  -5  -1   23.34    2.46
   5  -5  -1   22.80    2.40
   5  -5  -1   23.20    2.10
   5  -5   0   15.00    2.17
   5  -5   0   13.98    1.84
   5  -5   0   14.88    1.80
   5  -5   1   28.12    2.74
   5  -5   1   29.49    2.45
   5  -5   2   16.67    2.23
   5  -5   3   60.90    3.23
   5  -5   4   10.69    1.37
   5  -5   5   12.23    1.11
   5  -4 -11   24.04    1.48
   5  -4 -10   72.07    3.18
   5  -4  -9   92.68    4.03
   5  -4  -9   93.51    4.26
   5  -4  -8   68.16    3.49
   5  -4  -8   66.54    3.85
   5  -4  -7   89.84    4.10
   5  -4  -7   89.94    4.72
   5  -4  -6  214.32    7.20
   5  -4  -6  224.54    8.01
   5  -4  -5  318.86    9.52
   5  -4  -5  321.73   10.29
   5  -4  -4   69.47    3.53
   5  -4  -3  198.15    7.25
   5  -4  -3  190.67    6.64
   5  -4  -3  211.60    7.26
   5  -4  -3  186.28    5.93
   5  -4  -2   65.76    3.68
   5  -4  -1  348.89   10.35
   5  -4  -1  324.42   10.10
   5  -4  -1  319.81   10.50
  -5  -4   0  214.10    7.14
   5  -4   0  224.79    7.83
   5  -4   0  211.51    7.85
   5  -4   1  164.00    6.60
   5  -4   1  157.59    6.44
  -5  -4  -1  160.01    5.88
   5  -4   2  137.44    6.01
  -5  -4  -2  137.02    5.36
   5  -4   3   39.30    2.68
  -5  -4  -3   47.56    2.90
   5  -4   4   20.70    1.83
  -5  -4  -4   19.63    1.93
  -5  -4  -5   74.84    3.39
   5  -4   5   69.22    3.00
  -5  -4  -6   60.80    2.74
   5  -4   6   60.26    2.30
  -5  -4  -7   31.47    1.55
   5  -3 -12    1.33    0.46
  -5  -3  11    0.06    0.23
   5  -3 -11   -0.20    0.31
   5  -3 -10    2.79    1.01
  -5  -3  10    1.98    0.65
   5  -3 -10    0.79    0.85
   5  -3  -9   12.94    1.58
   5  -3  -9   12.88    1.77
   5  -3  -8   22.73    1.99
  -5  -3   8   20.38    1.49
   5  -3  -8   17.78    2.10
   5  -3  -7    4.03    0.99
   5  -3  -7    7.98    1.25
  -5  -3   7    7.73    0.97
   5  -3  -7    6.09    1.24
   5  -3  -7    6.53    1.64
   5  -3  -6    4.31    1.02
   5  -3  -6    2.76    0.82
  -5  -3   6    3.07    0.65
  -5  -3   6    3.05    0.71
   5  -3  -6    2.47    0.96
   5  -3  -6    3.46    1.53
   5  -3  -5   84.18    3.49
  -5  -3   5   78.03    2.85
   5  -3  -5   79.74    3.21
   5  -3  -5   86.07    4.17
   5  -3  -4   24.59    1.79
   5  -3  -4   20.45    1.41
  -5  -3   4   21.70    1.25
   5  -3  -4   22.90    2.19
  -5  -3   3   15.06    1.00
   5  -3  -3   14.64    1.14
   5  -3  -2   23.30    1.41
   5  -3  -1    6.10    1.39
  -5  -3   1    3.65    0.92
   5  -3   0   46.60    2.97
  -5  -3   0   49.70    2.20
   5  -3   0   51.92    2.98
  -5  -3   0   49.31    2.59
   5  -3   1  111.98    4.89
  -5  -3  -1  115.88    3.93
  -5  -3  -1  116.41    3.96
   5  -3   1  114.23    4.93
  -5  -3  -1  107.77    4.28
  -5  -3  -2  168.89    5.43
  -5  -3  -2  178.86    5.93
   5  -3   2  172.98    6.57
  -5  -3  -2  166.03    5.09
  -5  -3  -2  177.44    5.51
  -5  -3  -3   15.21    1.43
  -5  -3  -3   17.19    1.70
  -5  -3  -3   13.26    1.50
   5  -3   4   16.92    1.70
  -5  -3  -4   17.83    1.41
  -5  -3  -4   20.19    1.88
  -5  -3  -4   16.22    1.60
  -5  -3  -5   15.13    1.62
  -5  -3  -5   16.18    1.46
   5  -3   5   13.09    1.40
  -5  -3  -5   14.88    1.46
  -5  -3  -6   29.37    1.98
   5  -3   6   29.07    1.63
  -5  -3  -6   28.78    1.71
  -5  -3  -7   -0.13    0.16
  -5  -3  -7   13.05    1.17
  -5  -3  -8   10.70    0.77
  -5  -2  12   17.42    1.04
   5  -2 -12   19.32    1.30
   5  -2 -12   16.55    1.30
   5  -2 -11   24.13    2.01
   5  -2 -10   36.13    2.67
   5  -2  -9  138.76    5.61
   5  -2  -9  129.86    5.30
   5  -2  -8   96.01    4.44
   5  -2  -8   88.71    4.17
   5  -2  -7  130.11    5.13
   5  -2  -7  129.59    4.95
   5  -2  -7  140.27    5.31
   5  -2  -6  381.23   10.53
   5  -2  -6  395.24   11.02
   5  -2  -5  306.24    8.58
  -5  -2   5  316.66    8.21
   5  -2  -5  323.18    9.31
  -5  -2   4  445.12   10.77
   5  -2  -4  435.81   11.15
  -5  -2   3   60.45    2.26
   5  -2  -3   58.24    2.48
  -5  -2   2  367.44    9.08
  -5  -2   1  304.27    7.91
  -5  -2   0  479.85   11.93
  -5  -2  -1  203.86    6.23
  -5  -2  -1  227.44    6.13
   5  -2   1  206.06    6.79
  -5  -2  -1  206.60    6.29
  -5  -2  -2  126.07    4.20
  -5  -2  -2  125.54    4.57
  -5  -2  -2  126.04    4.67
   5  -2   3  176.62    5.94
  -5  -2  -3  188.49    6.24
  -5  -2  -3  184.98    5.65
  -5  -2  -3  180.03    6.07
   5  -2   4  116.67    4.32
  -5  -2  -4  115.12    4.70
  -5  -2  -4  108.55    4.56
  -5  -2  -5   47.93    2.49
  -5  -2  -5   48.05    2.87
  -5  -2  -5   44.61    2.70
  -5  -2  -6   76.15    3.24
  -5  -2  -6   66.43    3.30
  -5  -2  -7   27.49    1.79
  -5  -2  -8   16.08    1.08
  -5  -2  -8   15.31    0.98
   5  -1 -12   33.69    2.10
   5  -1 -11   21.07    2.11
   5  -1 -10    1.81    1.51
   5  -1  -9   28.91    2.47
   5  -1  -9   26.79    2.55
   5  -1  -8   33.10    2.62
   5  -1  -8   33.33    2.49
   5  -1  -7   46.70    2.75
   5  -1  -6   81.09    3.51
   5  -1  -5   32.19    1.94
  -5  -1   4    9.86    0.92
   5  -1  -4    9.51    1.07
  -5  -1   3   83.41    2.81
   5  -1  -3   80.07    2.99
  -5  -1   2   86.85    2.88
  -5  -1   1   51.11    2.23
  -5  -1   0   76.18    2.96
  -5  -1  -1    9.16    1.17
  -5  -1  -1    9.02    1.23
  -5  -1  -2    6.44    1.20
  -5  -1  -2    7.07    0.93
  -5  -1  -2    7.19    1.26
  -5  -1  -2    7.14    0.99
  -5  -1  -3   96.99    3.43
  -5  -1  -3   91.29    4.05
  -5  -1  -3   98.49    4.20
  -5  -1  -3   94.97    3.62
  -5  -1  -4  175.69    5.20
  -5  -1  -4  173.41    6.23
  -5  -1  -4  173.98    6.24
  -5  -1  -4  172.48    5.52
  -5  -1  -5   34.34    2.18
  -5  -1  -5   38.56    2.65
  -5  -1  -5   30.81    2.38
  -5  -1  -6   37.20    2.27
  -5  -1  -6   36.00    2.51
  -5  -1  -7   25.47    1.67
  -5  -1  -7   24.65    1.91
  -5  -1  -8    9.46    1.02
   5   0 -13   23.15    1.33
   5   0 -12   58.95    2.93
   5   0 -11    1.25    1.32
   5   0 -10    8.36    1.79
   5   0  -9   14.44    1.86
   5   0  -9   19.61    2.26
   5   0  -8   70.07    3.79
   5   0  -8   64.77    3.47
   5   0  -7   62.75    3.19
   5   0  -6    2.48    0.95
   5   0  -5   41.12    2.21
  -5   0   4  202.46    5.64
   5   0  -4  213.99    6.03
  -5   0   3  568.27   13.50
   5   0  -3  578.22   13.83
  -5   0   2 1054.42   23.84
  -5   0   1  173.42    5.04
  -5   0   0    2.42    0.91
  -5   0  -1   66.20    3.03
  -5   0  -1   69.04    3.01
  -5   0  -2  244.74    6.72
  -5   0  -2  231.41    6.61
  -5   0  -2  224.92    7.14
  -5   0  -2  229.80    7.19
  -5   0  -3  274.85    7.44
  -5   0  -3  250.94    8.00
  -5   0  -3  253.15    8.12
  -5   0  -3  259.97    7.42
  -5   0  -4  164.74    5.20
  -5   0  -4  147.59    5.78
  -5   0  -4  162.79    6.04
  -5   0  -4  157.30    5.18
  -5   0  -5   12.19    1.42
  -5   0  -5   11.27    1.59
  -5   0  -5   14.22    1.33
  -5   0  -5   13.42    1.76
  -5   0  -6    3.55    1.05
  -5   0  -6    4.18    0.76
  -5   0  -6    3.46    1.29
  -5   0  -7    0.96    0.85
  -5   0  -7    1.81    1.04
  -5   0  -8   34.27    1.84
  -5   1  13    4.53    0.46
   5   1 -12   33.62    2.10
   5   1 -11   20.63    2.09
   5   1 -10    1.41    0.81
   5   1 -10    1.55    1.36
   5   1  -9   29.57    2.42
   5   1  -9   28.29    2.59
   5   1  -8   34.34    2.50
   5   1  -8   32.74    2.56
   5   1  -7   42.14    2.59
   5   1  -6   78.45    3.42
   5   1  -5   29.93    1.87
  -5   1   4   10.47    0.92
   5   1  -4   11.12    1.13
  -5   1   3   79.90    2.71
   5   1  -3   76.44    2.90
  -5   1   2   86.12    2.84
  -5   1   1   53.79    2.27
  -5   1   0   83.66    3.12
  -5   1  -1    7.58    1.10
  -5   1  -1    9.25    1.23
  -5   1  -2    8.98    1.06
  -5   1  -2    8.60    1.19
  -5   1  -2    7.11    1.27
  -5   1  -2    9.90    1.34
  -5   1  -3  103.19    3.81
  -5   1  -3   94.64    4.12
  -5   1  -3   89.94    4.07
  -5   1  -3   98.64    3.68
  -5   1  -4  184.48    5.69
  -5   1  -4  171.18    6.15
  -5   1  -4  162.31    6.09
  -5   1  -4  164.16    5.41
  -5   1  -5   37.24    2.29
  -5   1  -5   41.23    2.31
  -5   1  -5   37.78    2.66
  -5   1  -5   36.08    2.60
  -5   1  -6   34.36    2.18
  -5   1  -6   34.47    2.00
  -5   1  -6   31.43    2.40
  -5   1  -7   22.53    1.51
  -5   1  -7   24.00    1.82
  -5   1  -8    8.88    0.99
   5   2 -12   14.07    1.25
  -5   2  12   16.75    1.03
   5   2 -11   23.18    1.90
   5   2 -11   -0.05    0.43
   5   2 -10   31.87    2.57
   5   2  -9  139.53    5.63
   5   2  -9  128.87    5.30
   5   2  -8   88.22    4.25
   5   2  -8   82.63    3.97
   5   2  -7  148.29    5.38
   5   2  -6  399.20   10.83
   5   2  -5  333.08    9.13
  -5   2   5  344.75    8.75
  -5   2   4  432.81   10.53
   5   2  -4  426.40   10.95
  -5   2   3   61.44    2.29
   5   2  -3   60.29    2.53
  -5   2   2  364.02    8.99
  -5   2   1  337.31    8.58
  -5   2   0  487.60   12.10
  -5   2   0  484.66   12.01
  -5   2  -1  219.25    6.37
  -5   2  -1  221.20    6.37
  -5   2  -1  207.69    6.34
  -5   2  -2  138.90    4.35
  -5   2  -2  126.70    4.57
  -5   2  -2  133.97    4.61
  -5   2  -2  120.40    4.63
  -5   2  -3  188.12    6.24
  -5   2  -3  193.96    6.41
  -5   2  -3  191.91    5.79
  -5   2  -4  107.39    4.21
  -5   2  -4  112.59    4.55
  -5   2  -4  103.14    4.35
  -5   2  -5   53.55    2.63
  -5   2  -5   48.90    2.62
  -5   2  -5   49.41    2.97
  -5   2  -5   50.92    2.84
  -5   2  -6   75.92    3.21
  -5   2  -6   70.20    3.03
  -5   2  -6   67.10    3.32
  -5   2  -7   33.55    1.71
  -5   2  -7   32.77    1.92
  -5   2  -8   16.21    0.96
   5   3 -11    6.80    0.94
  -5   3  11    5.12    0.63
   5   3 -10    2.77    1.05
   5   3 -10    3.47    1.03
   5   3  -9   11.36    1.55
   5   3  -8   22.62    2.04
   5   3  -7    5.54    1.21
   5   3  -7    4.74    1.07
   5   3  -6    4.80    0.91
  -5   3   6    2.93    0.65
  -5   3   5   80.15    2.84
   5   3  -5   80.94    3.25
   5   3  -4   20.76    1.43
  -5   3   4   20.88    1.21
  -5   3   3   14.41    0.98
   5   3  -3   16.06    1.21
   5   3  -2   23.71    1.44
  -5   3   1    5.23    0.92
  -5   3   0   48.41    2.15
  -5   3   0   50.11    2.45
  -5   3  -1  111.49    4.21
  -5   3  -1  122.31    4.01
  -5   3  -2  180.66    5.55
  -5   3  -2  169.99    5.71
  -5   3  -3   10.53    1.44
  -5   3  -3   11.65    1.35
  -5   3  -4   13.36    1.23
  -5   3  -4   14.08    1.49
  -5   3  -5   15.78    1.38
  -5   3  -5   15.76    1.59
  -5   3  -5   13.59    1.42
  -5   3  -6   28.66    1.81
  -5   3  -6   32.14    1.76
  -5   3  -7   14.96    1.11
   5   4 -11   24.57    1.36
   5   4 -10   67.08    3.04
  -5   4   1  331.45    8.74
  -5   4   0  217.79    6.49
  -5   4  -1  157.66    5.31
  -5   4  -2  124.00    4.62
  -5   4  -3   40.69    2.47
  -5   4  -4   20.88    1.77
  -5   4  -5   73.03    3.12
  -5   4  -7   32.54    1.39
   5   5  -9   10.44    1.29
  -5   5  -1   31.96    2.00
  -5   5  -2   17.91    1.60
  -5   5  -3   65.62    2.98
  -5   5  -4    9.30    1.16
  -5   5  -5   14.93    1.22
  -5   5  -6   14.48    0.94
   5   6  -9    4.35    0.59
   5   6  -8   21.08    1.38
   5   6  -7   29.57    1.82
   5   6  -6    6.51    1.07
  -5   6  -2   36.87    1.78
  -5   6  -3   28.36    1.48
  -5   6  -4   19.29    1.08
   6  -7  -6    6.84    0.85
   6  -7  -6    6.92    0.96
   6  -7  -5    8.35    1.03
   6  -7  -5    6.95    1.09
   6  -7  -4    1.58    0.84
   6  -7  -4    0.45    0.83
   6  -7  -3    3.40    0.97
   6  -7  -3    0.22    0.43
   6  -7  -2    8.39    1.19
   6  -7  -1    9.01    0.98
   6  -7  -1    8.99    1.11
   6  -7   0    2.81    0.66
   6  -7   1    8.81    0.73
   6  -6  -8   19.98    1.63
   6  -6  -7    7.25    1.12
   6  -6  -7    9.40    1.52
   6  -6  -6   20.30    1.91
   6  -6  -5   46.98    2.97
   6  -6  -5   45.54    2.83
   6  -6  -5   42.22    2.99
   6  -6  -4  132.01    5.40
   6  -6  -4  123.20    5.17
   6  -6  -4  132.20    5.44
   6  -6  -3  183.04    6.74
   6  -6  -3  179.69    6.52
   6  -6  -3  176.24    6.53
   6  -6  -2  108.18    4.85
   6  -6  -2  116.94    4.94
   6  -6  -2  106.47    4.61
   6  -6  -1   47.61    2.90
   6  -6  -1    0.17    0.70
   6  -6   0   10.54    1.63
   6  -6   1    4.49    1.12
   6  -6   1    5.05    1.22
   6  -6   2   45.36    2.26
   6  -6   3   38.93    1.74
   6  -5 -10    9.90    0.91
   6  -5  -9    5.80    1.07
   6  -5  -9    5.47    1.06
   6  -5  -9    6.77    1.31
   6  -5  -8    2.95    1.10
   6  -5  -8    1.27    1.32
   6  -5  -8    3.04    1.24
   6  -5  -7   20.20    2.29
   6  -5  -7   18.04    1.85
   6  -5  -7   22.04    2.39
   6  -5  -6   53.56    3.15
   6  -5  -6   55.24    3.63
   6  -5  -6   54.29    3.60
   6  -5  -5   43.82    3.23
   6  -5  -4   21.28    2.60
   6  -5  -4   20.20    2.36
   6  -5  -3    5.93    1.68
   6  -5  -3   10.48    1.79
   6  -5  -3   10.86    2.15
   6  -5  -2    9.29    1.70
   6  -5  -2    9.91    1.92
   6  -5  -1   62.67    3.94
   6  -5  -1   59.59    3.64
   6  -5  -1   53.67    3.47
   6  -5   0   26.86    2.57
   6  -5   0   23.53    2.20
   6  -5   1   73.44    3.94
   6  -5   2   20.33    1.88
   6  -5   3    5.39    1.04
   6  -5   4   21.58    1.38
   6  -4 -11    9.98    0.90
   6  -4 -10   24.84    1.71
   6  -4  -9   56.39    2.93
   6  -4  -9   57.49    3.16
   6  -4  -8   92.32    4.06
   6  -4  -8   83.78    4.33
   6  -4  -7  102.35    4.42
   6  -4  -7   95.63    4.83
   6  -4  -6    6.69    1.32
   6  -4  -6   10.28    2.06
   6  -4  -5   70.62    3.63
   6  -4  -5   67.43    4.11
   6  -4  -4   60.55    3.30
   6  -4  -3   36.99    3.02
   6  -4  -3   44.99    3.32
   6  -4  -2   29.82    2.83
   6  -4  -2   32.56    2.62
   6  -4  -2   31.80    2.91
   6  -4  -1   17.25    2.31
   6  -4  -1   14.86    1.99
   6  -4  -1   13.74    2.16
   6  -4   0  136.61    5.80
   6  -4   0  142.95    6.14
  -6  -4  -1   33.64    2.49
   6  -4   1   38.29    2.93
  -6  -4  -2   46.37    2.91
  -6  -4  -3   33.35    2.40
   6  -4   3   33.80    2.30
  -6  -4  -4   56.73    2.90
   6  -4   4   57.08    2.66
  -6  -4  -5   41.47    2.15
   6  -4   5   33.19    1.60
   6  -3 -11   12.15    1.20
   6  -3 -10   47.98    2.35
  -6  -3  10   47.56    1.78
  -6  -3   9   15.60    1.28
   6  -3  -9   15.15    1.64
   6  -3  -9   16.23    1.70
   6  -3  -9   18.41    1.90
   6  -3  -8   12.08    1.51
   6  -3  -8   11.49    1.58
  -6  -3   8   12.36    1.19
   6  -3  -8   13.37    1.93
   6  -3  -7   25.51    2.00
  -6  -3   7   23.45    1.56
   6  -3  -7   22.83    1.99
   6  -3  -7   24.32    2.52
  -6  -3   7   23.36    1.57
   6  -3  -7   20.44    1.74
   6  -3  -6   10.47    1.41
  -6  -3   6    9.46    1.00
   6  -3  -6    7.99    1.17
   6  -3  -6    9.84    1.88
  -6  -3   6    9.97    1.03
   6  -3  -5   27.20    1.99
   6  -3  -5   23.28    1.73
  -6  -3   5   26.59    1.54
  -6  -3   5   25.22    1.54
   6  -3  -5   27.38    2.57
  -6  -3   4   16.43    1.23
  -6  -3   4   16.39    1.18
   6  -3  -4   17.57    2.18
   6  -3  -4   18.23    1.44
  -6  -3   3   18.23    1.29
   6  -3  -3   15.59    1.34
  -6  -3   2   39.89    1.92
   6  -3  -2   34.05    2.73
   6  -3  -2   34.80    1.99
  -6  -3   1   67.89    2.73
   6  -3  -1   63.98    2.79
   6  -3  -1   67.40    3.82
  -6  -3   1   63.39    2.63
  -6  -3   0   40.26    2.54
  -6  -3   0   46.83    2.29
   6  -3   0   42.48    3.03
  -6  -3   0   44.88    2.14
  -6  -3  -1   29.75    1.90
  -6  -3  -1   27.39    2.10
  -6  -3  -1   26.88    1.79
  -6  -3  -1   26.92    1.66
  -6  -3  -2   16.03    1.50
  -6  -3  -2   17.76    1.71
  -6  -3  -2   16.50    1.47
  -6  -3  -2   15.16    1.28
  -6  -3  -3  103.01    3.95
   6  -3   3  100.96    4.21
  -6  -3  -3   97.40    3.57
  -6  -3  -3  101.91    4.29
  -6  -3  -4   42.70    2.56
  -6  -3  -4   41.88    2.29
   6  -3   4   43.94    2.35
  -6  -3  -4   39.37    2.04
  -6  -3  -5   29.50    1.92
  -6  -3  -5   28.88    1.47
  -6  -3  -6    0.03    0.18
  -6  -3  -6   22.65    1.41
  -6  -2  12   13.39    0.89
   6  -2 -12   12.13    0.97
   6  -2 -12   12.42    1.13
   6  -2 -11   49.31    2.40
  -6  -2  11   48.01    2.17
   6  -2 -11   43.74    2.56
   6  -2 -10   84.72    4.05
   6  -2  -9   44.39    2.99
   6  -2  -8   74.70    3.85
  -6  -2   8   77.63    3.29
   6  -2  -8   75.15    3.68
   6  -2  -8   69.12    3.63
  -6  -2   7  183.22    5.66
   6  -2  -7  168.31    6.10
   6  -2  -7  177.90    6.39
   6  -2  -6  438.25   11.95
  -6  -2   6  440.47   11.30
  -6  -2   6  446.32   11.33
   6  -2  -6  450.11   12.48
  -6  -2   5  113.47    3.90
  -6  -2   5  120.28    3.94
   6  -2  -5  111.04    4.26
  -6  -2   4  159.84    4.83
  -6  -2   4  159.52    4.80
   6  -2  -4  153.86    5.17
  -6  -2   3  134.43    4.18
  -6  -2   3  124.97    4.04
   6  -2  -3  123.47    4.41
  -6  -2   2   71.72    2.81
  -6  -2   2   66.22    2.75
  -6  -2   1  231.86    6.65
  -6  -2   1  240.85    6.67
   6  -2  -1  216.64    7.45
  -6  -2   1  231.51    6.66
  -6  -2   0  177.83    5.59
  -6  -2   0  179.95    5.43
   6  -2   0  167.63    6.19
  -6  -2   0  177.84    5.58
  -6  -2   0  168.18    5.43
  -6  -2  -1  495.94   12.49
  -6  -2  -1  488.42   12.63
  -6  -2  -1  497.13   12.82
   6  -2   1  487.44   13.40
  -6  -2  -1  490.47   12.83
  -6  -2  -2   46.14    2.40
  -6  -2  -2   49.01    2.63
  -6  -2  -2   47.06    2.67
  -6  -2  -2   48.68    2.76
  -6  -2  -3   67.30    3.32
  -6  -2  -3   66.02    3.18
  -6  -2  -3   62.97    3.26
  -6  -2  -3   64.53    2.88
  -6  -2  -4   80.23    3.31
  -6  -2  -4   79.86    3.73
  -6  -2  -5   85.48    3.58
  -6  -2  -5   82.85    3.33
  -6  -2  -5   86.12    3.64
  -6  -2  -6   11.40    1.16
  -6  -2  -6    9.79    1.02
  -6  -2  -6   11.27    1.20
  -6  -2  -7   12.67    0.90
  -6  -2  -7   12.84    0.94
  -6  -1  12    2.84    0.70
   6  -1 -12    2.95    1.00
   6  -1 -11    6.18    1.43
   6  -1 -10   81.95    4.24
   6  -1  -9   10.94    1.90
   6  -1  -9    6.53    1.33
   6  -1  -8    5.28    1.28
   6  -1  -7  142.43    5.43
  -6  -1   7  146.41    4.91
   6  -1  -6    8.88    1.25
  -6  -1   6   11.14    1.15
   6  -1  -6    9.70    1.49
  -6  -1   5   88.73    3.23
   6  -1  -5   92.96    3.69
  -6  -1   5   82.71    3.18
  -6  -1   4  189.76    5.49
   6  -1  -4  186.03    5.90
  -6  -1   3    7.30    0.86
   6  -1  -3    7.47    1.05
  -6  -1   2    1.90    0.78
  -6  -1   1   14.30    1.37
  -6  -1   1   14.83    1.26
  -6  -1   1   13.04    1.29
  -6  -1   1   13.59    1.24
  -6  -1   0  242.20    6.86
  -6  -1   0  253.67    7.17
  -6  -1   0  229.74    6.71
  -6  -1   0  234.45    7.10
  -6  -1  -1  121.23    4.21
  -6  -1  -1  115.93    4.47
  -6  -1  -1  112.28    4.00
  -6  -1  -1  121.86    4.57
  -6  -1  -2  234.03    7.46
  -6  -1  -2  244.99    6.90
  -6  -1  -2  234.31    7.52
  -6  -1  -2  239.54    7.05
  -6  -1  -3   76.97    3.05
  -6  -1  -3   70.58    3.53
  -6  -1  -3   69.57    3.16
  -6  -1  -4   45.59    2.82
  -6  -1  -4   49.44    2.24
  -6  -1  -5   13.76    1.42
  -6  -1  -5   12.54    1.62
  -6  -1  -6   19.97    1.65
  -6  -1  -6   15.96    1.53
  -6  -1  -7   15.33    1.03
  -6  -1  -7   18.33    1.28
   6   0 -12   33.24    2.14
   6   0 -11   32.13    2.53
   6   0 -10   17.26    2.15
   6   0  -9   10.42    1.59
   6   0  -9   13.47    1.94
   6   0  -8   31.93    2.47
   6   0  -7  118.12    4.77
   6   0  -6  533.07   13.91
  -6   0   6  542.58   13.36
  -6   0   5  357.71    9.30
  -6   0   5  357.28    9.26
   6   0  -5  361.09    9.83
  -6   0   4  584.75   14.11
   6   0  -4  590.07   14.65
  -6   0   3  985.20   23.39
   6   0  -3 1075.02   24.04
  -6   0   2  975.67   22.73
  -6   0   2  985.91   22.65
  -6   0   1  338.16    9.07
  -6   0   1  338.13    9.07
  -6   0   0  437.76   11.00
  -6   0   0  430.85   11.31
  -6   0   0  424.97   10.94
  -6   0   0  421.21   11.28
  -6   0  -1  103.03    3.78
  -6   0  -1   98.47    4.04
  -6   0  -1  101.53    3.75
  -6   0  -1   98.67    4.10
  -6   0  -2  166.43    6.00
  -6   0  -2  183.80    5.71
  -6   0  -2  176.36    5.61
  -6   0  -3  101.24    3.80
  -6   0  -3   95.64    4.32
  -6   0  -3   94.01    3.75
  -6   0  -4   61.48    2.77
  -6   0  -4   54.43    3.12
  -6   0  -4   55.60    3.27
  -6   0  -5    9.84    1.25
  -6   0  -5    9.93    1.08
  -6   0  -5    8.39    1.49
  -6   0  -6   25.29    1.83
  -6   0  -6   19.36    1.73
  -6   0  -7   -0.17    0.30
  -6   0  -7   27.13    1.51
  -6   1  12    3.79    0.73
   6   1 -12    2.88    0.96
   6   1 -11   10.23    1.68
   6   1 -10   95.74    4.61
   6   1  -9    8.73    1.55
   6   1  -9   10.61    1.82
   6   1  -8    6.40    1.26
   6   1  -7  140.81    5.35
  -6   1   7  141.83    4.80
   6   1  -6   10.36    1.36
  -6   1   6   10.32    1.13
  -6   1   5   91.70    3.31
  -6   1   5   88.84    3.25
   6   1  -5   88.99    3.66
  -6   1   4  195.51    5.63
   6   1  -4  196.81    6.07
  -6   1   3    8.17    0.91
  -6   1   3    9.41    1.02
   6   1  -3    7.94    1.07
  -6   1   2    2.67    0.79
  -6   1   2    2.62    0.81
  -6   1   1   14.80    1.37
  -6   1   1   14.01    1.25
  -6   1   1   12.70    1.26
  -6   1   1   13.20    1.27
  -6   1   0  240.62    6.68
  -6   1   0  229.21    6.85
  -6   1   0  223.28    6.83
  -6   1   0  224.51    6.64
  -6   1  -1  112.31    4.33
  -6   1  -1  116.95    4.13
  -6   1  -1  115.62    4.44
  -6   1  -2  219.81    7.08
  -6   1  -2  224.83    6.67
  -6   1  -2  220.73    6.75
  -6   1  -2  222.76    7.14
  -6   1  -3   74.33    3.67
  -6   1  -3   81.46    3.48
  -6   1  -3   79.17    3.33
  -6   1  -4   51.89    2.97
  -6   1  -4   52.57    2.72
  -6   1  -4   53.46    3.13
  -6   1  -5   15.52    1.48
  -6   1  -5   16.30    1.44
  -6   1  -5   15.79    1.74
  -6   1  -6   19.13    1.60
  -6   1  -6   16.95    1.23
  -6   1  -6   16.80    1.58
  -6   1  -7   18.53    1.29
   6   2 -12   12.24    1.11
  -6   2  12   12.89    0.88
  -6   2  11   42.48    1.83
   6   2 -11   42.40    2.35
   6   2 -10   85.58    4.08
   6   2  -9   42.07    2.91
   6   2  -8   80.79    4.05
  -6   2   8   80.37    3.38
   6   2  -8   77.73    3.83
  -6   2   7  183.04    5.69
   6   2  -7  179.91    6.30
   6   2  -6  438.29   11.82
  -6   2   6  430.08   11.07
  -6   2   6  436.26   11.14
  -6   2   5  106.85    3.64
  -6   2   5  101.56    3.60
   6   2  -5  103.02    4.05
  -6   2   4  170.73    5.07
  -6   2   4  174.89    5.13
   6   2  -4  168.41    5.53
  -6   2   3  138.05    4.28
  -6   2   3  135.17    4.19
  -6   2   3  132.72    4.16
   6   2  -3  128.22    4.55
  -6   2   2   68.62    2.72
  -6   2   2   68.30    2.75
  -6   2   2   61.82    2.67
  -6   2   1  247.57    6.70
  -6   2   1  224.04    6.64
  -6   2   1  230.82    6.74
  -6   2   0  168.19    5.43
  -6   2   0  178.64    5.36
  -6   2   0  168.83    5.40
  -6   2   0  171.59    5.50
  -6   2  -1  478.04   12.59
  -6   2  -1  496.90   12.34
  -6   2  -1  480.51   12.60
  -6   2  -1  485.06   12.58
  -6   2  -2   38.90    2.38
  -6   2  -2   34.12    2.03
  -6   2  -2   36.06    2.38
  -6   2  -3   52.14    2.87
  -6   2  -3   52.38    2.82
  -6   2  -3   56.33    2.63
  -6   2  -3   57.57    3.09
  -6   2  -4   74.38    3.22
  -6   2  -4   80.77    3.46
  -6   2  -4   83.41    3.71
  -6   2  -5   82.68    3.26
  -6   2  -5   74.83    3.20
  -6   2  -5   82.34    3.52
  -6   2  -6   10.50    1.16
  -6   2  -6    9.96    1.03
  -6   2  -6   11.10    1.08
  -6   2  -7   11.48    0.84
   6   3 -11   13.98    1.21
  -6   3  10   49.48    2.11
   6   3 -10   45.60    2.48
  -6   3   9   17.66    1.38
   6   3  -9   13.22    1.64
  -6   3   8   11.88    1.21
   6   3  -8   11.39    1.55
   6   3  -7   21.04    1.92
  -6   3   7   22.70    1.55
   6   3  -6    8.16    1.19
   6   3  -5   24.50    1.78
  -6   3   5   24.16    1.45
  -6   3   4   16.03    1.15
   6   3  -4   19.09    1.49
   6   3  -3   13.98    1.32
  -6   3   2   42.00    2.10
   6   3  -2   33.11    1.95
  -6   3   1   66.09    2.92
  -6   3   0   45.60    2.47
  -6   3  -1   22.31    1.68
  -6   3  -1   21.96    1.83
  -6   3  -2   15.62    1.47
  -6   3  -2   15.00    1.58
  -6   3  -2   11.85    1.14
  -6   3  -3  108.80    3.99
  -6   3  -3   96.15    3.50
  -6   3  -3   98.90    4.02
  -6   3  -4   45.85    2.32
  -6   3  -4   38.33    1.98
  -6   3  -5   30.24    1.64
  -6   3  -5   27.58    1.48
  -6   3  -5   28.86    1.81
  -6   3  -6   21.23    1.31
   6   4 -11   12.28    0.95
   6   4 -10   21.86    1.69
  -6   4   1   18.03    1.52
  -6   4   0  142.89    4.92
  -6   4  -1   35.55    2.25
  -6   4  -2   49.68    2.67
  -6   4  -3   32.49    2.15
  -6   4  -4   57.53    2.67
  -6   4  -5   40.16    1.95
  -6   4  -6    8.71    0.75
   6   5  -9    6.39    1.08
  -6   5   0   25.81    1.67
  -6   5  -1   80.80    3.23
  -6   5  -2   22.34    1.64
  -6   5  -3    5.37    0.97
  -6   5  -4   22.28    1.38
  -6   5  -5    7.07    0.67
   6   6  -8   18.20    1.17
   6   6  -7    8.45    1.00
   7  -7  -2    2.28    0.53
   7  -7  -1    5.91    0.62
   7  -6  -8    8.36    1.03
   7  -6  -7    6.25    1.01
   7  -6  -7    5.81    0.86
   7  -6  -7    7.41    1.23
   7  -6  -6    2.31    1.00
   7  -6  -6    0.62    0.81
   7  -6  -5   48.71    2.80
   7  -6  -5   45.01    2.50
   7  -6  -5   46.89    2.87
   7  -6  -4  119.01    4.82
   7  -6  -4  119.20    4.49
   7  -6  -4  122.46    4.90
   7  -6  -3  125.37    4.94
   7  -6  -3  128.60    4.69
   7  -6  -3  121.41    4.84
   7  -6  -2   62.07    3.01
   7  -6  -2   64.45    3.06
   7  -6  -1   14.88    1.40
   7  -6  -1   -0.06    0.26
   7  -6   0    5.99    1.00
   7  -6   1   12.94    1.12
   7  -6   2    6.02    0.65
   7  -5  -9    1.86    0.81
   7  -5  -9    3.36    0.93
   7  -5  -8   13.80    1.68
   7  -5  -8   15.68    1.76
   7  -5  -7   29.51    2.46
   7  -5  -7   26.94    2.41
   7  -5  -6    9.99    1.74
   7  -5  -6    6.84    1.69
   7  -5  -5    2.20    1.31
   7  -5  -5    2.09    1.16
   7  -5  -4    2.37    1.17
   7  -5  -4    0.69    1.64
   7  -5  -3   21.71    2.32
   7  -5  -3   17.54    1.89
   7  -5  -3   17.94    2.34
   7  -5  -2   52.32    3.50
   7  -5  -2   51.73    3.14
   7  -5  -2   53.18    3.47
   7  -5  -1   10.84    1.85
   7  -5   0   20.13    1.84
   7  -5   1   15.34    1.62
   7  -5   2   14.04    1.32
   7  -5   3   15.14    1.07
   7  -4 -10   28.36    1.56
   7  -4  -9   27.63    1.87
   7  -4  -9   26.17    2.07
   7  -4  -8   69.98    3.27
   7  -4  -8   61.49    3.54
   7  -4  -7  125.26    5.52
   7  -4  -7  129.79    4.93
   7  -4  -6  171.25    6.07
   7  -4  -6  179.00    6.96
   7  -4  -5   38.14    3.19
   7  -4  -4   46.43    3.44
   7  -4  -3   11.50    2.00
   7  -4  -3    8.61    2.09
   7  -4  -2  104.92    5.24
   7  -4  -2  102.59    5.24
   7  -4  -1   28.69    2.76
   7  -4  -1   29.13    2.75
   7  -4   0  122.44    5.31
   7  -4   1  107.50    4.51
   7  -4   2   96.81    4.02
   7  -4   3   75.79    3.01
  -7  -3  10    3.06    0.56
   7  -3 -10   -0.26    0.51
   7  -3  -9    7.68    1.25
  -7  -3   9    7.85    0.94
   7  -3  -9    7.60    1.30
   7  -3  -9    6.83    1.39
  -7  -3   8    0.99    0.64
   7  -3  -8    0.29    0.95
   7  -3  -8    2.63    1.43
   7  -3  -7   20.64    2.30
  -7  -3   7   18.70    1.45
  -7  -3   6    3.03    0.79
   7  -3  -6    2.01    0.84
  -7  -3   6    2.53    0.66
   7  -3  -6    4.12    1.76
  -7  -3   5    8.78    1.04
  -7  -3   5    7.83    0.94
   7  -3  -5    5.96    1.07
   7  -3  -5    9.68    1.97
   7  -3  -4    7.64    1.12
  -7  -3   4    7.20    1.01
  -7  -3   3   21.39    1.53
   7  -3  -3   23.46    2.44
   7  -3  -3   23.66    1.75
  -7  -3   2    1.61    0.73
   7  -3  -2    1.77    1.34
   7  -3  -2    1.49    0.72
   7  -3  -1   13.34    1.96
  -7  -3   1   13.63    1.28
   7  -3  -1   14.62    1.39
  -7  -3   0   58.32    2.61
  -7  -3   0   59.55    2.76
   7  -3   0   61.48    3.70
  -7  -3  -1   64.94    3.26
  -7  -3  -1   74.47    3.13
  -7  -3  -1   65.12    2.78
  -7  -3  -2   45.34    2.63
  -7  -3  -2   47.39    2.42
   7  -3   2   43.05    2.59
  -7  -3  -3   35.75    2.24
  -7  -3  -3   39.45    2.05
   7  -3   3   34.55    2.01
  -7  -3  -3   32.63    1.75
  -7  -3  -4   36.39    1.91
  -7  -3  -4   38.72    1.61
  -7  -3  -5   21.40    1.32
  -7  -2  12    6.61    0.58
   7  -2 -12    0.34    0.43
  -7  -2  11   25.97    1.47
   7  -2 -11   24.05    1.84
  -7  -2  10   48.81    2.35
   7  -2 -10   45.63    2.84
   7  -2  -9   58.44    3.41
  -7  -2   9   58.99    2.76
  -7  -2   8   74.91    3.18
   7  -2  -8   68.04    3.64
  -7  -2   8   64.91    3.00
   7  -2  -8   67.68    3.51
   7  -2  -8   70.76    3.61
  -7  -2   7   94.20    3.70
  -7  -2   7   97.60    3.74
   7  -2  -7   90.74    4.16
   7  -2  -7   96.58    4.49
   7  -2  -6  306.15    9.25
  -7  -2   6  309.77    8.62
   7  -2  -6  318.98    9.90
  -7  -2   6  319.86    8.65
  -7  -2   5  139.54    4.59
  -7  -2   5  137.75    4.54
   7  -2  -5  124.65    4.91
  -7  -2   4   15.55    1.36
  -7  -2   4   14.07    1.25
   7  -2  -4   16.68    1.64
  -7  -2   3  116.91    4.14
   7  -2  -3  114.48    4.46
  -7  -2   2   81.24    3.31
   7  -2  -2   72.41    3.97
   7  -2  -2   82.50    3.61
  -7  -2   1  269.16    7.47
  -7  -2   1  247.27    7.45
   7  -2  -1  242.30    8.31
  -7  -2   0  148.10    4.95
  -7  -2   0  135.96    4.83
   7  -2   0  138.67    5.61
  -7  -2   0  144.40    5.07
  -7  -2   0  143.30    5.06
  -7  -2  -1   95.98    4.03
  -7  -2  -1   96.05    3.83
  -7  -2  -1   96.16    3.76
  -7  -2  -1   97.03    4.01
  -7  -2  -2  273.18    8.02
  -7  -2  -2  247.85    7.62
  -7  -2  -2  266.38    8.02
  -7  -2  -2  260.35    7.54
  -7  -2  -3   57.09    2.97
  -7  -2  -3   57.45    2.79
  -7  -2  -4   65.34    2.89
  -7  -2  -4   65.10    2.78
  -7  -2  -4   70.37    3.09
  -7  -2  -5   22.32    1.49
  -7  -2  -5   20.54    1.36
  -7  -2  -5   23.91    1.56
  -7  -2  -6   15.92    0.96
  -7  -1  12   12.29    0.98
   7  -1 -12    9.90    1.20
   7  -1 -11    3.11    1.24
  -7  -1  11    3.57    0.88
  -7  -1  10   13.84    1.41
   7  -1 -10   14.41    1.93
  -7  -1   9    8.34    1.22
   7  -1  -9    8.47    1.69
   7  -1  -8    3.69    1.19
  -7  -1   8    4.77    1.02
  -7  -1   8    3.06    0.84
  -7  -1   7  105.82    4.01
   7  -1  -7  112.47    4.74
  -7  -1   7  103.52    3.98
  -7  -1   6   71.87    3.07
   7  -1  -6   71.99    3.52
  -7  -1   6   68.26    2.99
  -7  -1   5   29.52    1.81
   7  -1  -5   28.83    2.12
  -7  -1   5   27.76    1.79
  -7  -1   4   18.08    1.47
  -7  -1   4   17.58    1.39
   7  -1  -4   21.03    1.84
  -7  -1   3    0.35    0.66
   7  -1  -3    1.16    0.91
  -7  -1   2    1.52    0.87
  -7  -1   2    1.47    0.78
  -7  -1   1   85.53    3.66
  -7  -1   1   87.55    3.55
  -7  -1   1   90.39    3.73
  -7  -1   0  182.69    5.90
  -7  -1   0  185.88    6.17
  -7  -1   0  179.84    6.05
  -7  -1   0  184.01    5.80
  -7  -1  -1   47.72    2.76
  -7  -1  -1   42.59    2.38
  -7  -1  -1   43.60    2.43
  -7  -1  -2   16.79    1.71
  -7  -1  -2   16.80    1.50
  -7  -1  -2   18.50    1.94
  -7  -1  -2   16.65    1.57
  -7  -1  -3    8.46    1.08
  -7  -1  -3    8.24    1.46
  -7  -1  -3    9.10    1.22
  -7  -1  -4   57.94    2.56
  -7  -1  -4   60.11    2.81
  -7  -1  -4   58.89    3.03
  -7  -1  -5   14.00    1.29
  -7  -1  -5   12.56    1.32
  -7  -1  -6   46.83    2.02
  -7  -1  -6   47.78    1.95
   7   0 -12    0.57    0.86
  -7   0  12    1.29    0.67
  -7   0  11    8.27    1.07
   7   0 -11    7.38    1.46
  -7   0  10   36.43    2.22
   7   0 -10   32.32    2.68
   7   0  -9   30.93    2.66
  -7   0   9   31.30    2.04
   7   0  -9   31.48    2.46
  -7   0   8    9.06    1.28
  -7   0   8    9.42    1.17
   7   0  -8    6.96    1.37
  -7   0   7   34.14    2.08
   7   0  -7   34.97    2.50
  -7   0   7   30.64    1.95
  -7   0   6    5.28    0.95
   7   0  -6    5.73    1.25
  -7   0   6    4.69    0.90
  -7   0   5  190.15    5.84
   7   0  -5  204.64    6.59
  -7   0   5  190.29    5.85
  -7   0   4  437.79   11.49
   7   0  -4  479.28   12.44
  -7   0   4  457.53   11.60
  -7   0   3  660.58   15.85
   7   0  -3  677.41   16.66
  -7   0   2  301.01    8.14
  -7   0   2  283.60    8.18
  -7   0   2  279.61    7.98
  -7   0   1  161.76    5.45
  -7   0   1  153.97    5.20
  -7   0   1  158.11    5.44
  -7   0   0   48.79    2.78
  -7   0   0   47.06    2.54
  -7   0   0   47.69    2.73
  -7   0   0   48.40    2.52
  -7   0  -1   34.64    2.19
  -7   0  -1   33.46    2.43
  -7   0  -1   31.31    2.32
  -7   0  -1   35.97    2.19
  -7   0  -2   31.38    2.34
  -7   0  -2   39.23    2.30
  -7   0  -2   33.73    2.47
  -7   0  -2   34.87    2.18
  -7   0  -3    2.66    1.21
  -7   0  -3    1.35    0.81
  -7   0  -3    0.73    0.92
  -7   0  -3    1.14    0.87
  -7   0  -4    3.14    1.25
  -7   0  -4    3.12    0.84
  -7   0  -5   19.25    1.47
  -7   0  -5   20.26    1.61
  -7   0  -6    2.41    0.73
  -7   0  -6    3.33    0.72
  -7   1  12   10.78    0.95
   7   1 -12    9.30    1.20
  -7   1  11    3.08    0.82
   7   1 -11    3.51    1.24
  -7   1  10   17.39    1.54
   7   1 -10   17.26    2.05
  -7   1   9    5.99    1.11
   7   1  -9    4.53    1.58
  -7   1   8    5.36    1.06
  -7   1   8    3.72    0.84
   7   1  -8    3.68    1.24
   7   1  -7  110.21    4.70
  -7   1   7  104.60    3.99
  -7   1   7  106.35    4.02
  -7   1   6   73.37    3.11
   7   1  -6   72.97    3.56
  -7   1   6   67.99    2.99
  -7   1   5   26.57    1.73
   7   1  -5   28.63    2.15
  -7   1   5   28.55    1.81
  -7   1   4   18.31    1.37
   7   1  -4   18.99    1.74
  -7   1   4   18.47    1.46
  -7   1   3    0.98    0.72
  -7   1   3    0.99    0.83
   7   1  -3    0.10    0.80
  -7   1   2    1.58    0.86
  -7   1   2    1.46    0.76
  -7   1   2    1.98    0.88
  -7   1   1   83.66    3.57
  -7   1   1   87.22    3.50
  -7   1   1   87.28    3.64
  -7   1   1   84.07    3.47
  -7   1   0  174.63    5.86
  -7   1   0  177.43    5.65
  -7   1   0  162.24    5.72
  -7   1   0  169.69    5.63
  -7   1  -1   35.45    2.19
  -7   1  -1   37.88    2.53
  -7   1  -1   39.62    2.54
  -7   1  -2   20.15    1.88
  -7   1  -2   18.53    1.59
  -7   1  -2   18.31    1.71
  -7   1  -2   20.66    1.98
  -7   1  -3    8.59    1.20
  -7   1  -3   11.08    1.48
  -7   1  -3   12.63    1.48
  -7   1  -4   64.79    2.91
  -7   1  -4   64.24    2.89
  -7   1  -4   70.89    3.32
  -7   1  -5   14.46    1.31
  -7   1  -5   12.61    1.11
  -7   1  -5   11.94    1.33
  -7   1  -6   47.50    2.04
  -7   1  -6   48.67    1.97
   7   2 -12    6.01    0.81
  -7   2  12    7.30    0.64
  -7   2  11   26.19    1.40
   7   2 -11   21.83    1.70
  -7   2  10   50.66    2.39
   7   2 -10   44.36    2.85
  -7   2   9   55.75    2.68
   7   2  -9   56.68    3.33
  -7   2   8   73.69    3.20
  -7   2   8   69.38    3.10
   7   2  -8   73.32    3.69
  -7   2   7  100.29    3.79
  -7   2   7   98.88    3.78
   7   2  -7   92.82    4.27
   7   2  -6  310.28    9.34
  -7   2   6  308.86    8.62
  -7   2   6  325.72    8.72
  -7   2   5  131.01    4.42
  -7   2   5  138.69    4.57
   7   2  -5  127.45    4.93
  -7   2   4   17.74    1.45
  -7   2   4   17.54    1.34
   7   2  -4   16.23    1.61
  -7   2   3  117.16    4.13
   7   2  -3  112.56    4.49
  -7   2   2   90.55    3.49
   7   2  -2   78.53    3.62
  -7   2   2   87.52    3.49
  -7   2   1  247.93    7.17
  -7   2   1  247.28    7.29
  -7   2   1  243.07    7.30
  -7   2   0  147.28    4.98
  -7   2   0  150.40    5.18
  -7   2   0  147.44    5.14
  -7   2   0  148.24    5.19
  -7   2  -1  100.92    4.12
  -7   2  -1  100.94    4.08
  -7   2  -1   98.84    4.04
  -7   2  -1   98.35    3.82
  -7   2  -2  288.32    8.30
  -7   2  -2  282.97    8.28
  -7   2  -2  260.52    7.77
  -7   2  -3   56.90    2.93
  -7   2  -3   51.93    2.73
  -7   2  -4   68.94    3.02
  -7   2  -4   63.50    2.71
  -7   2  -4   60.22    2.76
  -7   2  -5   21.15    1.45
  -7   2  -5   23.84    1.54
  -7   2  -5   22.12    1.41
  -7   2  -6   17.25    0.88
  -7   2  -6    0.03    0.24
   7   3 -11    0.73    0.64
  -7   3  10    3.57    0.64
   7   3 -10    3.91    0.94
  -7   3   9    9.56    1.04
   7   3  -9    7.88    1.31
  -7   3   8    0.45    0.61
   7   3  -8    0.97    0.94
  -7   3   7   22.48    1.57
  -7   3   6    3.70    0.84
   7   3  -4    5.71    1.03
  -7   3   3   22.61    1.61
   7   3  -3   22.37    1.72
  -7   3   2    2.84    0.95
   7   3  -2    1.69    0.77
  -7   3   1   14.20    1.50
  -7   3   0   56.66    2.67
  -7   3   0   56.98    2.92
  -7   3   0   54.92    2.47
  -7   3  -1   77.97    3.20
  -7   3  -1   73.16    3.36
  -7   3  -1   67.60    2.80
  -7   3  -2   47.40    2.39
  -7   3  -2   42.83    2.51
  -7   3  -3   36.87    2.01
  -7   3  -3   34.45    1.77
  -7   3  -3   35.96    2.15
  -7   3  -4   40.27    1.84
  -7   3  -5   24.09    1.37
   7   4 -10   33.73    1.93
  -7   4   2  102.10    3.65
  -7   4   1   32.35    1.99
  -7   4   0  123.23    4.41
  -7   4  -1  118.98    4.34
  -7   4  -2  104.02    3.88
  -7   4  -3   77.59    3.05
  -7   4  -4   21.56    1.35
   7   5  -9    1.52    0.75
  -7   5   0   25.67    1.57
  -7   5  -1   19.04    1.36
  -7   5  -2   14.44    1.15
  -7   5  -3   17.84    1.12
   7   6  -7    5.01    0.67
   8  -6  -7    8.23    0.84
   8  -6  -7    8.99    1.04
   8  -6  -6   32.06    1.86
   8  -6  -5   18.03    1.54
   8  -6  -5   19.56    1.64
   8  -6  -4   27.15    1.92
   8  -6  -3   33.81    1.95
   8  -6  -1    5.39    0.79
   8  -6   0    5.05    0.64
   8  -5  -9    1.66    0.65
   8  -5  -8    3.06    1.06
   8  -5  -8    3.41    0.99
   8  -5  -7    0.71    1.00
   8  -5  -7    0.09    1.13
   8  -5  -6    5.61    1.51
   8  -5  -5    4.50    1.46
   8  -5  -4    2.89    1.28
   8  -5  -4    0.24    1.34
   8  -5  -3    1.07    1.13
   8  -5  -3    1.63    1.46
   8  -5  -2    9.25    1.66
   8  -5  -1    7.93    1.36
   8  -5   1   10.88    1.08
   8  -4 -10    4.79    0.96
   8  -4  -9    9.49    1.29
   8  -4  -8   34.51    2.50
   8  -4  -7   59.43    3.54
   8  -4  -6   54.99    3.63
   8  -4  -6   60.50    3.74
   8  -4  -5   21.49    2.40
   8  -4  -5   21.97    2.57
   8  -4  -4   17.66    2.25
   8  -4  -3   10.18    1.90
   8  -4  -3    8.73    2.06
   8  -4  -2   56.22    3.60
   8  -4  -2   52.26    3.60
   8  -4  -1  151.81    6.07
   8  -4   0   37.66    2.63
   8  -4   1   49.39    2.33
   8  -4   1    0.21    0.54
   8  -4   2    1.46    0.66
  -8  -3  10   -0.03    0.31
   8  -3  -9   -0.15    0.58
   8  -3  -9    2.53    1.12
  -8  -3   8   14.93    1.23
   8  -3  -8   14.18    1.56
   8  -3  -8   14.86    1.95
  -8  -3   7    7.31    1.00
   8  -3  -7    6.95    1.81
  -8  -3   6   24.86    1.68
   8  -3  -6   25.17    2.56
  -8  -3   5   21.43    1.56
   8  -3  -5   24.87    2.66
  -8  -3   4    8.72    1.09
   8  -3  -4    6.27    1.72
  -8  -3   3    6.53    1.01
   8  -3  -3    5.49    1.65
  -8  -3   2   28.37    1.78
   8  -3  -2   24.37    2.50
  -8  -3   1    9.45    1.09
   8  -3  -1   10.98    1.86
  -8  -3   0   10.81    1.10
  -8  -3  -1    5.13    0.80
  -8  -3  -1    4.22    0.89
   8  -3   1    4.58    1.06
  -8  -3  -2   18.98    1.35
  -8  -3  -2   17.56    1.21
  -8  -3  -3    0.15    0.38
   8  -2 -11   23.31    1.65
  -8  -2  11   22.89    1.28
   8  -2 -10   21.01    1.94
  -8  -2  10   27.29    1.60
   8  -2  -9   23.52    2.15
  -8  -2   9   22.70    1.63
   8  -2  -8   62.62    3.41
  -8  -2   8   62.07    2.86
  -8  -2   7   70.55    3.12
   8  -2  -7   74.94    3.72
   8  -2  -7   74.05    3.95
  -8  -2   7   76.68    3.23
   8  -2  -6   42.15    2.73
  -8  -2   6   45.68    2.35
   8  -2  -6   45.68    3.32
  -8  -2   6   50.19    2.54
  -8  -2   5  116.54    4.25
   8  -2  -5  110.74    4.67
  -8  -2   4  142.84    4.82
   8  -2  -4  123.37    5.10
  -8  -2   3  126.39    4.49
   8  -2  -3  117.56    5.38
   8  -2  -3  110.78    4.72
  -8  -2   2   81.03    3.44
   8  -2  -2   77.86    4.18
   8  -2  -2   79.55    3.84
  -8  -2   1  128.46    4.69
  -8  -2   1  142.14    4.95
   8  -2  -1  128.31    5.41
  -8  -2   0  200.77    6.34
  -8  -2   0  206.27    6.55
  -8  -2  -1   19.24    1.73
  -8  -2  -1   18.86    1.55
  -8  -2  -2   52.12    2.67
  -8  -2  -2   47.39    2.34
  -8  -2  -3   47.67    2.37
  -8  -2  -3   44.76    2.16
  -8  -2  -4   35.46    1.77
  -8  -2  -4   36.10    1.72
  -8  -1  12    2.63    0.54
   8  -1 -12    2.62    0.81
  -8  -1  11    8.66    0.97
   8  -1 -11    6.70    1.33
  -8  -1  10    7.28    1.10
   8  -1 -10    8.99    1.60
  -8  -1   9    7.94    1.17
   8  -1  -9    9.70    1.75
  -8  -1   8    7.88    1.17
  -8  -1   8    5.96    1.00
   8  -1  -8    5.02    1.29
   8  -1  -7   39.14    2.78
  -8  -1   7   40.34    2.28
   8  -1  -7   37.87    2.71
  -8  -1   7   39.25    2.31
  -8  -1   6   27.83    1.88
   8  -1  -6   27.29    2.31
  -8  -1   6   29.84    2.00
   8  -1  -5   -0.12    0.93
  -8  -1   5   -0.15    0.59
  -8  -1   4    6.18    1.08
   8  -1  -4    7.53    1.39
  -8  -1   3   56.61    2.81
   8  -1  -3   51.38    3.20
  -8  -1   2    9.46    1.36
  -8  -1   2    9.23    1.30
  -8  -1   1   60.08    3.02
  -8  -1   1   60.70    3.16
  -8  -1   0   18.83    1.66
  -8  -1   0   16.00    1.77
  -8  -1   0   15.51    1.69
  -8  -1  -1   40.58    2.58
  -8  -1  -1   39.46    2.52
  -8  -1  -1   39.95    2.36
  -8  -1  -2   44.27    2.60
  -8  -1  -2   38.28    2.25
  -8  -1  -3   31.98    2.11
  -8  -1  -4   12.14    1.26
  -8  -1  -4   11.95    1.15
  -8  -1  -5   22.94    1.30
  -8  -1  -5   25.76    1.36
   8   0 -12    9.89    1.19
  -8   0  12    9.24    0.87
   8   0 -11   37.05    2.49
  -8   0  11   38.36    1.97
  -8   0  10  102.70    3.85
   8   0 -10  105.00    4.67
  -8   0   9  141.89    4.90
   8   0  -9  140.05    5.72
  -8   0   8   35.38    2.15
   8   0  -8   37.84    2.73
  -8   0   8   37.59    2.26
   8   0  -7   39.05    2.81
  -8   0   7   36.95    2.21
  -8   0   7   39.15    2.27
  -8   0   6   87.12    3.54
   8   0  -6   89.05    4.24
  -8   0   6   87.92    3.59
   8   0  -5  283.38    8.73
  -8   0   5  270.18    7.71
  -8   0   4  415.28   11.31
   8   0  -4  451.51   12.53
  -8   0   3  388.95   10.86
   8   0  -3  432.56   12.13
  -8   0   2   64.26    3.10
  -8   0   2   59.79    3.13
  -8   0   1    7.96    1.40
  -8   0   1    8.46    1.28
  -8   0   0   16.29    1.62
  -8   0   0   16.89    1.80
  -8   0   0   15.73    1.67
  -8   0   0   16.36    1.65
  -8   0  -1   73.14    3.30
  -8   0  -1   71.39    3.53
  -8   0  -1   64.58    3.38
  -8   0  -1   73.86    3.30
  -8   0  -2  101.33    4.20
  -8   0  -2  100.98    3.84
  -8   0  -2   91.19    3.78
  -8   0  -3   72.86    3.30
  -8   0  -3   70.48    2.93
  -8   0  -4    8.01    1.13
  -8   0  -4    9.42    1.06
  -8   0  -5   22.43    1.33
  -8   0  -5   23.94    1.44
  -8   1  12    2.79    0.55
   8   1 -12    2.65    0.81
   8   1 -11    7.45    1.35
  -8   1  11    9.46    1.01
   8   1 -10    7.67    1.57
  -8   1  10    8.26    1.09
  -8   1   9    6.60    1.13
   8   1  -9    6.31    1.60
  -8   1   8    7.02    1.16
   8   1  -8    6.74    1.32
   8   1  -7   42.83    2.88
  -8   1   7   38.32    2.24
  -8   1   7   41.75    2.35
  -8   1   6   24.87    1.77
  -8   1   6   27.10    1.89
  -8   1   5    0.79    0.76
  -8   1   5   -0.23    0.58
   8   1  -5   -0.36    0.90
  -8   1   4    7.28    1.15
   8   1  -4    5.01    1.28
  -8   1   3   50.15    2.67
   8   1  -3   56.09    3.28
  -8   1   2    8.71    1.22
  -8   1   2    9.32    1.43
  -8   1   2    9.34    1.38
  -8   1   1   55.54    2.86
  -8   1   1   54.95    3.00
  -8   1   1   59.10    2.98
  -8   1   0   14.11    1.50
  -8   1   0   13.21    1.65
  -8   1   0   14.86    1.63
  -8   1  -1   37.38    2.46
  -8   1  -1   40.00    2.49
  -8   1  -1   35.18    2.28
  -8   1  -1   35.09    2.21
  -8   1  -2   46.57    2.70
  -8   1  -2   43.32    2.43
  -8   1  -2   42.58    2.36
  -8   1  -3   32.87    2.14
  -8   1  -3   32.93    1.95
  -8   1  -4   14.27    1.29
  -8   1  -4   13.20    1.17
  -8   1  -4   13.98    1.12
  -8   1  -5   23.80    1.31
  -8   1  -5   25.07    1.34
  -8   2  11   22.91    1.20
   8   2 -11   23.59    1.63
   8   2 -10   23.43    1.98
  -8   2  10   24.42    1.55
   8   2  -9   23.44    2.13
  -8   2   9   22.97    1.64
  -8   2   8   71.35    3.08
  -8   2   7   67.33    3.02
   8   2  -7   74.97    3.74
  -8   2   7   72.55    3.16
   8   2  -6   40.05    2.62
  -8   2   6   34.19    2.01
  -8   2   6   40.07    2.24
  -8   2   5  112.24    4.16
   8   2  -5  107.97    4.62
  -8   2   4  135.26    4.63
   8   2  -4  117.40    4.97
  -8   2   3  111.19    4.17
  -8   2   3  112.13    4.17
   8   2  -3  106.78    4.58
  -8   2   2   82.61    3.46
   8   2  -2   76.93    3.78
  -8   2   2   83.61    3.59
  -8   2   1  141.52    4.91
  -8   2   1  145.34    5.05
  -8   2   1  135.42    5.02
  -8   2   0  201.04    6.24
  -8   2   0  200.23    6.45
  -8   2   0  200.48    6.43
  -8   2  -1   17.47    1.70
  -8   2  -1   18.24    1.74
  -8   2  -1   17.90    1.51
  -8   2  -2   48.47    2.54
  -8   2  -2   43.05    2.21
  -8   2  -3   46.25    2.32
  -8   2  -3   41.94    2.06
  -8   2  -3   45.13    2.24
  -8   2  -4   36.26    1.74
  -8   2  -4   32.56    1.62
  -8   2  -4   31.34    1.62
   8   3 -11    0.16    0.51
  -8   3   9    6.04    0.81
   8   3  -9    3.48    1.02
  -8   3   8   14.34    1.21
   8   3  -8   15.60    1.61
  -8   3   7    8.90    1.08
  -8   3   6   27.26    1.74
  -8   3   5   26.29    1.69
  -8   3   4    8.15    1.06
  -8   3   3    5.26    0.91
  -8   3   2   28.90    1.73
  -8   3   2   25.02    1.89
  -8   3   1    8.70    1.02
  -8   3   1    9.04    1.35
  -8   3   0   12.96    1.47
  -8   3   0   10.94    1.08
  -8   3  -1    5.51    0.79
  -8   3  -1    7.52    1.24
  -8   3  -2   18.37    1.19
  -8   3  -2   20.80    1.59
  -8   3  -3   20.85    1.44
  -8   3  -4   16.15    1.05
  -8   4   2   58.10    2.53
  -8   4   1  142.21    4.64
  -8   4   0   45.98    2.31
  -8   4  -1   47.02    2.26
  -8   4  -2    1.75    0.70
  -8   4  -3   15.37    1.05
   8   5  -9    0.67    0.52
  -8   5   0   14.00    0.98
  -8   5  -1   14.32    0.95
   9  -5  -8    2.17    0.72
   9  -5  -7    3.09    1.02
   9  -5  -6   11.81    1.47
   9  -5  -6   11.32    1.50
   9  -5  -5    8.12    1.35
   9  -5  -4    9.14    1.40
   9  -5  -4    8.90    1.46
   9  -5  -3    5.58    1.25
   9  -5  -2   11.21    1.27
   9  -5  -1    5.93    0.85
   9  -4 -10    1.88    0.60
   9  -4  -8   21.48    1.98
   9  -4  -8   19.90    1.76
   9  -4  -7   64.74    3.57
   9  -4  -7   65.73    3.38
   9  -4  -6   79.83    4.12
   9  -4  -6   85.31    4.10
   9  -4  -5   58.61    3.47
   9  -4  -5   54.26    3.39
   9  -4  -4   38.00    2.83
   9  -4  -3  122.53    5.13
   9  -4  -3  120.67    5.17
   9  -4  -2   69.28    3.67
   9  -4  -1   49.59    2.85
   9  -4   0    4.13    0.80
   9  -4   0   -0.58    0.62
  -9  -3   9    0.41    0.36
  -9  -3   8    1.83    0.60
   9  -3  -8   -0.07    0.55
   9  -3  -8    1.75    1.21
  -9  -3   7    3.59    0.79
   9  -3  -7    4.78    1.51
  -9  -3   6    0.31    0.59
   9  -3  -6    0.85    1.27
   9  -3  -6    0.13    1.50
  -9  -3   5    2.82    0.79
   9  -3  -5    1.30    1.39
   9  -3  -5    3.02    1.64
  -9  -3   4   11.44    1.19
   9  -3  -4    9.36    1.76
   9  -3  -4   10.02    2.11
  -9  -3   3    5.88    0.92
   9  -3  -3    5.35    1.50
  -9  -3   2    1.57    0.64
   9  -3  -2    0.84    1.09
  -9  -3   1   16.54    1.21
  -9  -3   0   16.05    1.11
  -9  -3  -1    0.47    0.37
  -9  -2  11   14.93    0.85
   9  -2 -11    0.65    0.53
  -9  -2  10   10.90    1.00
   9  -2 -10   12.54    1.42
   9  -2  -9    7.17    1.36
  -9  -2   8   28.71    1.83
   9  -2  -8   26.37    2.20
  -9  -2   7   94.44    3.67
   9  -2  -7   89.97    4.41
  -9  -2   6  103.00    3.91
   9  -2  -6   89.76    4.68
  -9  -2   5   73.51    3.23
   9  -2  -5   68.91    4.08
  -9  -2   4  107.43    4.14
   9  -2  -4  110.92    5.10
  -9  -2   3  122.04    4.44
   9  -2  -3  120.40    5.25
  -9  -2   2   79.32    3.39
  -9  -2   1   17.68    1.57
  -9  -2   0   35.44    2.02
  -9  -2  -1   26.48    1.75
  -9  -2  -1   23.43    1.53
  -9  -2  -2   13.21    1.17
  -9  -2  -3   23.31    1.20
  -9  -1  11    1.22    0.55
   9  -1 -11    2.21    1.01
  -9  -1  10    3.25    0.81
   9  -1 -10    4.76    1.38
  -9  -1   9    3.09    0.89
   9  -1  -9    3.84    1.40
  -9  -1   8    1.74    0.85
   9  -1  -7    2.04    1.37
  -9  -1   6   53.03    2.75
   9  -1  -6   53.17    3.27
  -9  -1   5   14.57    1.53
   9  -1  -5   18.76    2.10
  -9  -1   4    3.74    1.05
   9  -1  -4    3.38    1.17
  -9  -1   3   51.09    2.78
   9  -1  -3   59.57    3.64
  -9  -1   2   26.63    1.99
   9  -1  -2   26.55    2.44
  -9  -1   1   13.70    1.53
  -9  -1   1   14.49    1.63
  -9  -1   0   24.48    1.82
  -9  -1   0   25.52    2.06
  -9  -1  -1   15.60    1.59
  -9  -1  -1   14.61    1.37
  -9  -1  -2   27.12    1.81
  -9  -1  -2   28.67    1.67
  -9  -1  -3   20.94    1.36
  -9  -1  -3   20.49    1.29
  -9  -1  -4    4.20    0.57
  -9   0  12    5.34    0.57
   9   0 -12    6.33    0.90
   9   0 -11   32.89    2.19
  -9   0  11   32.38    1.65
   9   0 -10   97.37    4.28
  -9   0  10   92.89    3.45
  -9   0   9  117.52    4.18
  -9   0   8   60.99    2.86
  -9   0   7    8.16    1.22
   9   0  -6    0.97    1.10
  -9   0   6    1.32    0.87
  -9   0   6    1.31    0.68
  -9   0   5   32.23    2.15
   9   0  -5   37.82    2.87
  -9   0   4   92.78    3.90
   9   0  -4   97.53    4.85
  -9   0   3    3.11    0.98
   9   0  -3    4.79    1.50
  -9   0   2    4.08    1.10
   9   0  -2    5.57    1.55
  -9   0   1   33.62    2.26
  -9   0   1   38.42    2.52
  -9   0   0  135.02    4.88
  -9   0   0  143.17    5.18
  -9   0  -1  105.34    4.11
  -9   0  -1   96.37    3.77
  -9   0  -2   51.63    2.53
  -9   0  -2   46.06    2.26
  -9   0  -3    4.49    0.87
  -9   0  -3    3.85    0.75
  -9   0  -4    4.42    0.60
  -9   0  -4    5.45    0.68
  -9   1  11    1.48    0.59
   9   1 -11    3.04    1.00
  -9   1  10    2.97    0.80
   9   1 -10    4.02    1.26
  -9   1   9    4.67    0.97
   9   1  -9    3.29    1.39
  -9   1   8    1.14    0.78
  -9   1   6   57.11    2.87
   9   1  -6   59.48    3.46
  -9   1   5   16.15    1.56
   9   1  -5   16.81    1.94
  -9   1   4    3.98    1.09
   9   1  -4    2.26    1.13
  -9   1   3   57.30    2.93
   9   1  -3   57.97    3.59
  -9   1   2   23.75    1.88
   9   1  -2   28.84    2.49
  -9   1   1   15.31    1.57
  -9   1   1   16.89    1.73
  -9   1   0   27.70    1.95
  -9   1   0   31.75    2.17
  -9   1  -1   15.41    1.56
  -9   1  -1   16.69    1.54
  -9   1  -1   14.38    1.37
  -9   1  -2   30.02    1.88
  -9   1  -2   26.75    1.70
  -9   1  -3   21.65    1.38
  -9   1  -3   19.75    1.26
  -9   1  -4    5.02    0.61
  -9   2  11   15.88    0.90
   9   2 -11   16.46    1.20
  -9   2  10    9.20    0.91
   9   2 -10   10.70    1.38
  -9   2   9    7.89    1.00
   9   2  -9    6.53    1.31
  -9   2   8   26.30    1.75
  -9   2   7  102.23    3.88
  -9   2   6  104.07    3.97
  -9   2   5   74.35    3.27
  -9   2   4  110.02    4.18
  -9   2   3  128.31    4.57
  -9   2   2   84.25    3.50
  -9   2   1   17.17    1.51
  -9   2   1   17.97    1.67
  -9   2   0   36.91    2.19
  -9   2   0   31.07    1.89
  -9   2  -1   26.64    1.80
  -9   2  -1   25.76    1.56
  -9   2  -2   11.99    1.02
  -9   2  -3   25.22    1.25
  -9   3   8    2.08    0.64
   9   3  -8    2.17    0.87
  -9   3   7    3.69    0.77
  -9   3   6    0.12    0.63
  -9   3   5    1.33    0.68
  -9   3   4   11.46    1.13
  -9   3   3    5.27    0.85
  -9   3   2    2.16    0.67
  -9   3   1   17.63    1.52
  -9   3   1   15.46    1.16
  -9   3   0   20.83    1.56
  -9   3   0   17.58    1.13
  -9   3  -1    5.37    0.93
  -9   3  -2    8.80    0.92
  -9   4   0    5.32    0.80
  -9   4  -1    9.72    0.87
  10  -4  -8   13.99    1.32
  10  -4  -7   13.54    1.43
  10  -4  -7   14.87    1.45
  10  -4  -6   35.43    2.27
  10  -4  -6   35.34    2.30
  10  -4  -5   64.51    3.13
  10  -4  -5   66.89    3.24
  10  -4  -4   38.16    2.26
  10  -4  -3   21.56    1.86
  10  -4  -2   15.48    1.46
  10  -4  -1   10.93    1.02
  10  -3 -10    0.49    0.56
  10  -3  -9    1.53    0.90
 -10  -3   8    0.06    0.20
  10  -3  -8    3.44    1.18
  10  -3  -8    2.14    0.98
 -10  -3   7    0.04    0.36
  10  -3  -7    5.73    1.38
  10  -3  -7    0.05    0.34
  10  -3  -7    3.48    1.40
 -10  -3   6    2.77    0.63
  10  -3  -6    3.02    1.31
  10  -3  -6    1.49    1.27
 -10  -3   5    3.97    0.71
  10  -3  -5    3.26    1.22
  10  -3  -5    4.64    1.59
 -10  -3   4    3.95    0.71
  10  -3  -4    3.88    1.19
  10  -3  -4    5.27    1.65
 -10  -3   3   31.04    1.53
  10  -3  -2   16.06    1.95
 -10  -3   2   12.18    0.89
 -10  -3   1    0.18    0.27
  10  -3  -1    2.15    1.12
  10  -3   0    7.27    1.08
 -10  -2  10    9.68    0.75
  10  -2 -10    2.93    0.70
 -10  -2   9   23.91    1.38
  10  -2  -9   21.40    1.70
 -10  -2   8   43.12    2.07
 -10  -2   7   45.48    2.23
  10  -2  -7   42.60    2.93
  10  -2  -7   40.38    2.81
 -10  -2   6   45.54    2.28
  10  -2  -6   39.47    2.82
  10  -2  -6   39.73    3.00
 -10  -2   5   67.34    2.90
  10  -2  -5   61.29    3.42
  10  -2  -5   67.10    3.94
 -10  -2   4   50.36    2.46
 -10  -2   3   51.69    2.48
 -10  -2   2   76.66    3.03
 -10  -2   1   24.00    1.48
 -10  -2   0    2.93    0.65
 -10  -2  -1    6.82    0.73
 -10  -1  11    2.58    0.48
  10  -1 -11    2.91    0.82
 -10  -1  10    6.49    0.81
  10  -1 -10    7.10    1.23
 -10  -1   9    0.23    0.64
  10  -1  -9    1.18    1.21
 -10  -1   8   18.70    1.48
 -10  -1   7   42.22    2.29
  10  -1  -7   46.79    2.92
 -10  -1   6   25.22    1.84
  10  -1  -6   26.24    2.67
 -10  -1   5    0.47    0.79
 -10  -1   4    4.16    1.04
 -10  -1   3   54.24    2.72
 -10  -1   2   60.06    2.81
 -10  -1   1   10.33    1.19
 -10  -1   0   31.33    1.77
 -10  -1  -1   34.17    1.65
 -10  -1  -2   13.44    0.90
 -10   0  11   46.29    1.78
  10   0 -11   49.31    2.34
 -10   0  10   45.68    2.03
  10   0 -10   45.34    2.67
 -10   0   9   68.41    2.79
  10   0  -9   71.22    3.66
 -10   0   8   69.64    2.97
 -10   0   7   18.33    1.56
 -10   0   6   30.23    2.01
 -10   0   5    1.04    0.87
 -10   0   4   31.46    2.07
 -10   0   3   53.68    2.72
 -10   0   2   32.56    2.06
 -10   0   1   71.81    3.08
 -10   0   0   77.72    3.05
 -10   0  -1   63.78    2.48
 -10   0  -2   34.43    1.53
 -10   1  11    1.98    0.44
  10   1 -11    2.05    0.78
 -10   1  10    7.46    0.85
  10   1 -10    7.17    1.26
 -10   1   9    0.91    0.64
  10   1  -9    0.69    1.08
 -10   1   8   18.10    1.45
 -10   1   7   41.83    2.28
 -10   1   6   24.22    1.75
 -10   1   5    0.63    0.81
 -10   1   4    5.86    1.07
 -10   1   3   56.25    2.76
 -10   1   2   60.07    2.82
 -10   1   1   10.95    1.22
 -10   1   0   32.50    1.79
 -10   1  -1   34.27    1.64
 -10   1  -2   13.70    0.91
 -10   2  10   10.57    0.76
  10   2 -10   10.50    1.06
 -10   2   9   23.15    1.34
  10   2  -9   20.96    1.72
 -10   2   8   37.10    1.88
 -10   2   7   43.72    2.18
 -10   2   6   49.79    2.40
 -10   2   5   67.19    2.88
 -10   2   4   48.02    2.38
 -10   2   3   43.25    2.23
 -10   2   2   72.82    2.90
 -10   2   1   23.72    1.45
 -10   2   0    2.66    0.60
 -10   2  -1    7.50    0.72
 -10   3   5    3.71    0.68
 -10   3   4    4.99    0.72
 -10   3   3   32.03    1.50
  11  -3  -7    1.62    0.64
  11  -3  -7    2.20    0.86
  11  -3  -6    1.34    0.62
  11  -3  -6    2.55    1.05
  11  -3  -5    4.86    1.20
  11  -3  -4   15.35    1.58
  11  -3  -2    7.05    1.04
 -11  -2   8   23.81    1.19
  11  -2  -8   23.03    1.51
 -11  -2   7   23.15    1.31
  11  -2  -7   22.34    1.83
 -11  -2   6   19.63    1.26
  11  -2  -6   21.40    2.01
 -11  -2   5   19.75    1.30
  11  -2  -5   22.69    2.14
 -11  -2   4   43.04    1.92
  11  -2  -4   48.28    2.94
 -11  -2   3   26.64    1.40
 -11  -2   2   13.59    0.92
 -11  -2   1    7.07    0.59
 -11  -1  10    0.57    0.36
 -11  -1   9    3.11    0.59
  11  -1  -9    5.30    1.17
 -11  -1   8    0.86    0.56
 -11  -1   7    4.63    0.85
 -11  -1   6   11.78    1.16
  11  -1  -6    9.64    1.66
 -11  -1   5    5.41    0.92
 -11  -1   4   25.48    1.61
 -11  -1   3    2.58    0.77
 -11  -1   2   22.32    1.37
 -11  -1   1   17.33    1.10
 -11   0  10   30.69    1.36
  11   0 -10   40.78    2.09
 -11   0   9   11.56    0.95
  11   0  -9   14.65    1.62
 -11   0   8   28.52    1.59
 -11   0   7    4.79    0.87
 -11   0   6    8.33    1.05
 -11   0   5   32.11    1.83
 -11   0   4    2.59    0.75
 -11   0   3   18.40    1.36
 -11   0   2   28.39    1.59
 -11   0   1   46.90    1.96
 -11   0  -1   14.26    0.75
 -11   1  10    0.78    0.34
 -11   1   9    2.60    0.57
  11   1  -9    4.53    1.13
 -11   1   8    0.52    0.55
 -11   1   7    6.33    0.89
 -11   1   6    9.47    1.06
 -11   1   5    7.16    0.97
 -11   1   4   29.71    1.75
 -11   1   3    2.44    0.72
 -11   1   2   23.84    1.39
 -11   1   1   17.68    1.11
 -11   2   8   22.29    1.15
  11   2  -8   23.93    1.56
 -11   2   7   23.88    1.31
 -11   2   6   20.47    1.29
 -11   2   5   20.77    1.31
 -11   2   4   46.69    1.98
 -11   2   3   26.92    1.39
 -11   2   2   12.27    0.87
 -12  -1   7    0.82    0.38
 -12  -1   6    2.22    0.48
 -12  -1   5    6.04    0.64
  12  -1  -5    3.48    0.98
  12  -1  -4    7.14    1.14
 -12  -1   4    8.58    0.68
 -12  -1   3    1.46    0.36
  12  -1  -3    1.18    0.77
 -12   0   8    7.22    0.62
  12   0  -8    9.15    1.09
 -12   0   7   49.27    1.83
 -12   0   6   36.93    1.59
 -12   0   5   49.24    1.90
 -12   0   4   16.40    0.99
 -12   0   3   18.22    0.97
 -12   0   2    3.53    0.40
 -12   1   7    1.14    0.40
 -12   1   6    1.90    0.46
 -12   1   5    5.52    0.61
 -12   1   4    7.75    0.64
 -12   1   3    1.62    0.37
   0   0   0    0.00    0.00
;
_shelx_hkl_checksum              81109
loop_
_space_group_symop_operation_xyz
'x, y, z'
'-x, y+1/2, -z'
loop_
_atom_site_label
_atom_site_type_symbol
_atom_site_fract_x
_atom_site_fract_y
_atom_site_fract_z
_atom_site_U_iso_or_equiv
_atom_site_adp_type
_atom_site_occupancy
_atom_site_site_symmetry_order
_atom_site_calc_flag
_atom_site_refinement_flags_posn
_atom_site_refinement_flags_adp
_atom_site_refinement_flags_occupancy
_atom_site_disorder_assembly
_atom_site_disorder_group
Ni1 Ni 0.00913(7) 0.21258(15) 0.51086(7) 0.02842(17) Uani 1 1 d . . . . .
F1 F 0.5019(4) 0.0759(6) 0.4947(3) 0.0627(10) Uani 1 1 d . . . . .
C1 C 0.3589(6) 0.2664(7) 0.2424(5) 0.0420(12) Uani 1 1 d . . . . .
H1A H 0.4364 0.3637 0.2690 0.050 Uiso 1 1 calc R U . . .
H1B H 0.3093 0.2774 0.3053 0.050 Uiso 1 1 calc R U . . .
C2 C 0.2488(6) 0.3017(8) 0.0920(5) 0.0468(13) Uani 1 1 d . . . . .
H2 H 0.1571 0.3539 0.0926 0.056 Uiso 1 1 calc R U . . .
C3 C 0.5515(5) 0.0440(9) 0.3931(5) 0.0434(12) Uani 1 1 d . . . . .
H3A H 0.5919 -0.0863 0.4018 0.052 Uiso 1 1 calc R U . . .
H3B H 0.6288 0.1362 0.4019 0.052 Uiso 1 1 calc R U . . .
C4 C 0.3549(7) 0.0366(11) 0.0003(6) 0.0627(18) Uani 1 1 d . . . . .
H4A H 0.3760 0.1175 -0.0655 0.075 Uiso 1 1 calc R U . . .
H4B H 0.3401 -0.0957 -0.0348 0.075 Uiso 1 1 calc R U . . .
C5 C 0.4837(6) 0.0437(10) 0.1430(5) 0.0522(14) Uani 1 1 d . . . . .
H5A H 0.5407 -0.0753 0.1589 0.063 Uiso 1 1 calc R U . . .
H5B H 0.5479 0.1520 0.1466 0.063 Uiso 1 1 calc R U . . .
C6 C 0.3096(5) -0.0848(8) 0.2342(6) 0.0527(15) Uani 1 1 d . . . . .
H6A H 0.2829 -0.0857 0.3139 0.063 Uiso 1 1 calc R U . . .
H6B H 0.3479 -0.2122 0.2268 0.063 Uiso 1 1 calc R U . . .
C7 C 0.1733(5) -0.0390(13) 0.0997(6) 0.0622(15) Uani 1 1 d . . . . .
H7A H 0.1371 -0.1569 0.0457 0.075 Uiso 1 1 calc R U . . .
H7B H 0.0954 0.0138 0.1232 0.075 Uiso 1 1 calc R U . . .
C8 C 0.2167(6) 0.1090(9) 0.0136(6) 0.0534(15) Uani 1 1 d . . . . .
H8 H 0.1364 0.1246 -0.0793 0.064 Uiso 1 1 calc R U . . .
N1 N -0.0915(4) 0.0407(7) 0.6129(4) 0.0412(10) Uani 1 1 d . . . . .
N2 N 0.1965(4) 0.0402(6) 0.5897(4) 0.0319(8) Uani 1 1 d . . . . .
N3 N -0.0830(4) 0.0560(7) 0.3214(4) 0.0361(9) Uani 1 1 d . . . . .
N4 N 0.4250(4) 0.0673(6) 0.2545(4) 0.0297(8) Uani 1 1 d . . . . .
O1 O 0.0961(4) 0.3762(6) 0.6900(3) 0.0431(8) Uani 1 1 d . . . . .
O2 O -0.1877(3) 0.3597(5) 0.4318(4) 0.0427(9) Uani 1 1 d . . . . .
O3 O 0.1160(4) 0.3641(6) 0.4113(4) 0.0464(9) Uani 1 1 d . . . . .
O4 O 0.3211(3) 0.1045(6) 0.6562(4) 0.0487(9) Uani 1 1 d . . . . .
O5 O -0.1399(5) 0.1100(6) 0.6950(4) 0.0548(10) Uani 1 1 d . . . . .
O6 O -0.1317(5) 0.1471(6) 0.2106(4) 0.0608(11) Uani 1 1 d . . . . .
O7 O 0.3132(4) 0.4432(8) 0.0336(4) 0.0680(12) Uani 1 1 d . . . . .
H7 H 0.2512 0.4805 -0.0420 0.102 Uiso 1 1 calc R U . . .
loop_
_atom_site_aniso_label
_atom_site_aniso_U_11
_atom_site_aniso_U_22
_atom_site_aniso_U_33
_atom_site_aniso_U_23
_atom_site_aniso_U_13
_atom_site_aniso_U_12
Ni1 0.0275(3) 0.0241(3) 0.0310(3) 0.0018(3) 0.0092(2) -0.0014(3)
F1 0.069(2) 0.081(3) 0.0315(14) 0.0084(15) 0.0142(14) 0.0049(19)
C1 0.046(2) 0.039(3) 0.034(2) 0.003(2) 0.0093(19) 0.009(2)
C2 0.040(2) 0.053(3) 0.041(3) 0.008(2) 0.009(2) 0.009(2)
C3 0.035(2) 0.046(3) 0.040(3) 0.010(2) 0.0056(19) 0.002(2)
C4 0.077(4) 0.074(5) 0.039(3) -0.014(3) 0.025(3) -0.007(3)
C5 0.047(3) 0.070(4) 0.049(3) 0.000(3) 0.030(2) 0.008(3)
C6 0.046(3) 0.049(4) 0.055(3) 0.006(2) 0.013(2) -0.020(2)
C7 0.041(3) 0.071(4) 0.061(3) 0.001(3) 0.007(2) -0.021(3)
C8 0.044(3) 0.068(4) 0.035(3) -0.004(3) 0.002(2) -0.005(3)
N1 0.0315(19) 0.044(3) 0.043(2) 0.003(2) 0.0107(16) 0.0046(19)
N2 0.0318(18) 0.033(2) 0.0297(17) 0.0007(15) 0.0114(14) -0.0020(16)
N3 0.037(2) 0.038(3) 0.0246(17) 0.0028(17) 0.0038(14) -0.0008(19)
N4 0.0257(16) 0.031(2) 0.0308(18) 0.0023(15) 0.0100(13) -0.0004(15)
O1 0.0496(19) 0.035(2) 0.0378(17) 0.0020(15) 0.0103(14) 0.0030(17)
O2 0.0307(16) 0.030(2) 0.060(2) 0.0060(16) 0.0096(14) -0.0029(15)
O3 0.0462(19) 0.038(2) 0.058(2) 0.0016(17) 0.0243(16) -0.0013(17)
O4 0.0266(15) 0.052(2) 0.058(2) -0.0087(17) 0.0077(15) -0.0098(15)
O5 0.068(2) 0.050(2) 0.066(2) -0.0106(18) 0.048(2) 0.0040(19)
O6 0.085(3) 0.044(2) 0.0344(18) 0.0103(15) 0.0042(18) -0.0028(19)
O7 0.067(2) 0.063(3) 0.055(2) 0.028(2) 0.0054(18) -0.001(3)
loop_
_atom_type_symbol
_atom_type_description
_atom_type_scat_dispersion_real
_atom_type_scat_dispersion_imag
_atom_type_scat_source
C C 0.0181 0.0091 'International Tables Vol C Tables 4.2.6.8 and 6.1.1.4'
H H 0.0000 0.0000 'International Tables Vol C Tables 4.2.6.8 and 6.1.1.4'
N N 0.0311 0.0180 'International Tables Vol C Tables 4.2.6.8 and 6.1.1.4'
O O 0.0492 0.0322 'International Tables Vol C Tables 4.2.6.8 and 6.1.1.4'
F F 0.0727 0.0534 'International Tables Vol C Tables 4.2.6.8 and 6.1.1.4'
Ni Ni -3.0029 0.5091 'International Tables Vol C Tables 4.2.6.8 and 6.1.1.4'
loop_
_geom_angle_atom_site_label_1
_geom_angle_atom_site_label_2
_geom_angle_atom_site_label_3
_geom_angle
_geom_angle_site_symmetry_1
_geom_angle_site_symmetry_3
_geom_angle_publ_flag
O3 Ni1 O1 94.09(16) . . ?
O3 Ni1 O2 98.51(15) . . ?
O1 Ni1 O2 94.35(16) . . ?
O3 Ni1 N2 85.87(16) . . ?
O1 Ni1 N2 88.50(15) . . ?
O2 Ni1 N2 174.58(19) . . ?
O3 Ni1 N1 176.0(2) . . ?
O1 Ni1 N1 87.52(17) . . ?
O2 Ni1 N1 84.96(16) . . ?
N2 Ni1 N1 90.57(16) . . ?
O3 Ni1 N3 84.25(16) . . ?
O1 Ni1 N3 177.4(2) . . ?
O2 Ni1 N3 83.96(15) . . ?
N2 Ni1 N3 93.34(17) . . ?
N1 Ni1 N3 94.27(18) . . ?
N4 C1 C2 109.7(4) . . ?
O7 C2 C8 113.3(5) . . ?
O7 C2 C1 106.9(4) . . ?
C8 C2 C1 108.7(4) . . ?
F1 C3 N4 108.2(4) . . ?
C8 C4 C5 109.3(4) . . ?
N4 C5 C4 109.1(4) . . ?
N4 C6 C7 108.9(5) . . ?
C8 C7 C6 108.7(4) . . ?
C4 C8 C2 109.6(5) . . ?
C4 C8 C7 108.3(5) . . ?
C2 C8 C7 108.1(5) . . ?
O5 N1 O3 114.7(5) . 2_546 ?
O5 N1 Ni1 122.3(4) . . ?
O3 N1 Ni1 122.8(4) 2_546 . ?
O4 N2 O2 116.0(4) . 2_546 ?
O4 N2 Ni1 123.5(4) . . ?
O2 N2 Ni1 120.5(3) 2_546 . ?
O6 N3 O1 115.6(4) . 2_546 ?
O6 N3 Ni1 118.6(4) . . ?
O1 N3 Ni1 125.9(3) 2_546 . ?
C3 N4 C6 110.8(4) . . ?
C3 N4 C1 110.3(4) . . ?
C6 N4 C1 110.0(4) . . ?
C3 N4 C5 107.6(4) . . ?
C6 N4 C5 109.1(4) . . ?
C1 N4 C5 109.0(4) . . ?
N3 O1 Ni1 118.0(3) 2_556 . ?
N2 O2 Ni1 123.0(3) 2_556 . ?
N1 O3 Ni1 120.1(4) 2_556 . ?
loop_
_geom_bond_atom_site_label_1
_geom_bond_atom_site_label_2
_geom_bond_distance
_geom_bond_site_symmetry_2
_geom_bond_publ_flag
Ni1 O3 2.044(4) . ?
Ni1 O1 2.049(4) . ?
Ni1 O2 2.050(3) . ?
Ni1 N2 2.072(4) . ?
Ni1 N1 2.094(5) . ?
Ni1 N3 2.107(4) . ?
F1 C3 1.356(6) . ?
C1 N4 1.501(6) . ?
C1 C2 1.525(7) . ?
C2 O7 1.429(7) . ?
C2 C8 1.522(8) . ?
C3 N4 1.490(5) . ?
C4 C8 1.516(8) . ?
C4 C5 1.520(8) . ?
C5 N4 1.506(5) . ?
C6 N4 1.500(6) . ?
C6 C7 1.535(7) . ?
C7 C8 1.530(9) . ?
N1 O5 1.236(5) . ?
N1 O3 1.244(5) 2_546 ?
N2 O4 1.227(5) . ?
N2 O2 1.258(4) 2_546 ?
N3 O6 1.228(5) . ?
N3 O1 1.244(5) 2_546 ?
O1 N3 1.244(5) 2_556 ?
O2 N2 1.258(4) 2_556 ?
O3 N1 1.244(5) 2_556 ?
loop_
_geom_hbond_atom_site_label_D
_geom_hbond_atom_site_label_H
_geom_hbond_atom_site_label_A
_geom_hbond_distance_DH
_geom_hbond_distance_HA
_geom_hbond_distance_DA
_geom_hbond_angle_DHA
_geom_hbond_site_symmetry_A
C1 H1B O3 0.97 2.64 3.578(6) 162.7 .
C3 H3A O4 0.97 2.46 3.394(7) 161.3 2_646
C3 H3B O2 0.97 2.30 3.273(6) 177.6 1_655
O7 H7 O6 0.82 2.03 2.825(5) 163.0 2
loop_
_geom_torsion_atom_site_label_1
_geom_torsion_atom_site_label_2
_geom_torsion_atom_site_label_3
_geom_torsion_atom_site_label_4
_geom_torsion
_geom_torsion_site_symmetry_1
_geom_torsion_site_symmetry_2
_geom_torsion_site_symmetry_3
_geom_torsion_site_symmetry_4
_geom_torsion_publ_flag
N4 C1 C2 O7 -109.7(5) . . . . ?
N4 C1 C2 C8 13.0(6) . . . . ?
C8 C4 C5 N4 15.1(7) . . . . ?
N4 C6 C7 C8 15.3(7) . . . . ?
C5 C4 C8 C2 49.7(7) . . . . ?
C5 C4 C8 C7 -68.1(6) . . . . ?
O7 C2 C8 C4 52.6(6) . . . . ?
C1 C2 C8 C4 -66.1(6) . . . . ?
O7 C2 C8 C7 170.6(4) . . . . ?
C1 C2 C8 C7 51.8(6) . . . . ?
C6 C7 C8 C4 50.0(7) . . . . ?
C6 C7 C8 C2 -68.7(7) . . . . ?
F1 C3 N4 C6 -64.3(6) . . . . ?
F1 C3 N4 C1 57.8(5) . . . . ?
F1 C3 N4 C5 176.6(4) . . . . ?
C7 C6 N4 C3 172.6(5) . . . . ?
C7 C6 N4 C1 50.3(6) . . . . ?
C7 C6 N4 C5 -69.2(6) . . . . ?
C2 C1 N4 C3 169.8(4) . . . . ?
C2 C1 N4 C6 -67.6(5) . . . . ?
C2 C1 N4 C5 51.9(5) . . . . ?
C4 C5 N4 C3 171.7(5) . . . . ?
C4 C5 N4 C6 51.4(6) . . . . ?
C4 C5 N4 C1 -68.7(6) . . . . ?
