#------------------------------------------------------------------------------
#$Date: 2020-05-08 15:46:23 +0300 (Fri, 08 May 2020) $
#$Revision: 251921 $
#$URL: file:///home/coder/svn-repositories/cod/cif/4/13/49/4134934.cif $
#------------------------------------------------------------------------------
#
# This file is available in the Crystallography Open Database (COD),
# http://www.crystallography.net/
#
# All data on this site have been placed in the public domain by the
# contributors.
#
data_4134934
loop_
_publ_author_name
'Santos Hurtado, Carina'
'Bastien, Guillaume'
'Ma\<s\'at, Milan'
'Sto\<cek, Jakub Radek'
'Dracinsky, Martin'
'Ron\<cevi\'c, Igor'
'C\'isa\<rov\'a, Ivana'
'Rogers, Charles T.'
'Kaleta, Ji\<r\'i'
_publ_section_title
;
 Regular 2-D Arrays of Surface-Mounted Molecular Switches: Switching
 Monitored by UV-vis and NMR Spectroscopy.
;
_journal_name_full               'Journal of the American Chemical Society'
_journal_paper_doi               10.1021/jacs.0c01753
_journal_year                    2020
_chemical_compound_source        'synthesized by Dr. Guillaume Bastien'
_chemical_formula_moiety         'C22 H30 N2 O2, 2(C H Cl3)'
_chemical_formula_sum            'C24 H32 Cl6 N2 O2'
_chemical_formula_weight         593.21
_space_group_crystal_system      triclinic
_space_group_IT_number           2
_space_group_name_Hall           '-P 1'
_space_group_name_H-M_alt        'P -1'
_atom_sites_solution_hydrogens   geom
_atom_sites_solution_primary     direct
_audit_creation_method           SHELXL-2018/3
_cell_angle_alpha                108.089(2)
_cell_angle_beta                 95.389(2)
_cell_angle_gamma                100.572(2)
_cell_formula_units_Z            1
_cell_length_a                   6.2193(3)
_cell_length_b                   9.1548(6)
_cell_length_c                   13.0735(7)
_cell_measurement_reflns_used    9975
_cell_measurement_temperature    150(2)
_cell_measurement_theta_max      27.4795
_cell_measurement_theta_min      2.4018
_cell_volume                     686.43(7)
_computing_cell_refinement       'SAINT V8.37A (Bruker AXS Inc., 2015)'
_computing_data_collection       'Bruker Instrument Service vV6.2.4'
_computing_data_reduction        'SAINT V8.37A (Bruker AXS Inc., 2015)'
_computing_structure_refinement  'SHELXL-2018/3 (Sheldrick, 2018)'
_computing_structure_solution    'XT, VERSION 2014/5'
_diffrn_ambient_temperature      150(2)
_diffrn_measured_fraction_theta_full 0.997
_diffrn_measured_fraction_theta_max 0.996
_diffrn_measurement_device_type  'Bruker D8 VENTURE Kappa Duo PHOTON 100 CMOS'
_diffrn_measurement_method       '\f and \w scans'
_diffrn_radiation_monochromator  'Quazar Mo multilayer optic'
_diffrn_radiation_type           MoK\a
_diffrn_radiation_wavelength     0.71073
_diffrn_reflns_av_R_equivalents  0.0248
_diffrn_reflns_av_unetI/netI     0.0136
_diffrn_reflns_Laue_measured_fraction_full 0.997
_diffrn_reflns_Laue_measured_fraction_max 0.996
_diffrn_reflns_limit_h_max       8
_diffrn_reflns_limit_h_min       -8
_diffrn_reflns_limit_k_max       11
_diffrn_reflns_limit_k_min       -11
_diffrn_reflns_limit_l_max       16
_diffrn_reflns_limit_l_min       -16
_diffrn_reflns_number            26932
_diffrn_reflns_point_group_measured_fraction_full 0.997
_diffrn_reflns_point_group_measured_fraction_max 0.996
_diffrn_reflns_theta_full        25.242
_diffrn_reflns_theta_max         27.527
_diffrn_reflns_theta_min         2.402
_diffrn_source                   'I\mS  micro-focus sealed tube'
_exptl_absorpt_coefficient_mu    0.651
_exptl_absorpt_correction_T_max  0.96
_exptl_absorpt_correction_T_min  0.84
_exptl_absorpt_correction_type   multi-scan
_exptl_absorpt_process_details
;
SADABS-2016/2 - Bruker AXS area detector scaling and absorption correction
;
_exptl_crystal_colour            colourless-yellow
_exptl_crystal_density_diffrn    1.435
_exptl_crystal_description       plate
_exptl_crystal_F_000             308
_exptl_crystal_size_max          0.673
_exptl_crystal_size_mid          0.267
_exptl_crystal_size_min          0.070
_refine_diff_density_max         0.416
_refine_diff_density_min         -0.470
_refine_diff_density_rms         0.058
_refine_ls_extinction_method     none
_refine_ls_goodness_of_fit_ref   1.040
_refine_ls_hydrogen_treatment    constr
_refine_ls_matrix_type           full
_refine_ls_number_parameters     159
_refine_ls_number_reflns         3149
_refine_ls_number_restraints     0
_refine_ls_restrained_S_all      1.040
_refine_ls_R_factor_all          0.0401
_refine_ls_R_factor_gt           0.0362
_refine_ls_shift/su_max          0.001
_refine_ls_shift/su_mean         0.000
_refine_ls_structure_factor_coef Fsqd
_refine_ls_weighting_details
'w=1/[\s^2^(Fo^2^)+(0.0493P)^2^+0.5251P] where P=(Fo^2^+2Fc^2^)/3'
_refine_ls_weighting_scheme      calc
_refine_ls_wR_factor_gt          0.0965
_refine_ls_wR_factor_ref         0.0993
_reflns_Friedel_coverage         0.000
_reflns_number_gt                2851
_reflns_number_total             3149
_reflns_threshold_expression     'I > 2\s(I)'
_cod_data_source_file            ja0c01753_si_005.cif
_cod_data_source_block           mo_jk_ga192_kaleta
_cod_database_code               4134934
_shelx_shelxl_version_number     2018/3
_shelx_space_group_comment
;
The symmetry employed for this shelxl refinement is uniquely defined
by the following loop, which should always be used as a source of
symmetry information in preference to the above space-group names.
They are only intended as comments.
;
_shelx_estimated_absorpt_t_min   0.668
_shelx_estimated_absorpt_t_max   0.956
_shelx_res_file
;
TITL mo_jk_ga192_kaleta_0m_a.res in P-1
    mo_jk_ga192_kaleta.res
    created by SHELXL-2018/3 at 16:39:18 on 05-Sep-2019
REM Old TITL mo_jk_ga192_kaleta_0m in P-1
REM SHELXT solution in P-1
REM R1 0.236,  Rweak 0.018,  Alpha 0.031,  Orientation as input
REM Formula found by SHELXT:  C12 N O4
CELL  0.71073   6.2193   9.1548  13.0735  108.089   95.389  100.572
ZERR    1.000   0.0003   0.0006   0.0007    0.002    0.002    0.002
LATT  1
SFAC  C   H   N   O   CL
UNIT   24   32   2   2   6
TEMP -123.150
SIZE 0.07 0.267 0.673
L.S. 10
BOND $H
LIST 4
ACTA
FMAP 2
PLAN 20
WGHT    0.049300    0.525100
FVAR       1.01834
N1    3    0.558096    0.572492    0.509573    11.00000    0.01820    0.01650 =
         0.01255    0.00412    0.00186   -0.00099
O1    4    0.707511    0.640460    0.593171    11.00000    0.02908    0.02578 =
         0.01713    0.00778   -0.00738   -0.00802
C1    1    0.513030    0.649668    0.430141    11.00000    0.01823    0.01648 =
         0.01379    0.00570    0.00143   -0.00060
C2    1    0.623666    0.619479    0.340231    11.00000    0.01888    0.01808 =
         0.01723    0.00624    0.00481    0.00148
C3    1    0.574058    0.689302    0.261901    11.00000    0.02375    0.02170 =
         0.01679    0.00791    0.00610    0.00312
C4    1    0.423786    0.788691    0.276901    11.00000    0.02311    0.02105 =
         0.02042    0.00943    0.00284    0.00210
C5    1    0.323448    0.821343    0.370926    11.00000    0.01956    0.01779 =
         0.02284    0.00670    0.00366    0.00228
C6    1    0.369471    0.751708    0.450308    11.00000    0.01914    0.01641 =
         0.01810    0.00415    0.00452   -0.00003
C7    1    0.793699    0.519680    0.329880    11.00000    0.02427    0.02497 =
         0.02386    0.01085    0.00904    0.00730
AFIX 137
H7A   2    0.835813    0.507021    0.400247    11.00000   -1.50000
H7B   2    0.924997    0.571327    0.307848    11.00000   -1.50000
H7C   2    0.730741    0.415865    0.274822    11.00000   -1.50000
AFIX   0
C8    1    0.682927    0.656441    0.160979    11.00000    0.04444    0.03862 =
         0.02331    0.01716    0.01786    0.01688
AFIX 137
H8A   2    0.757070    0.569341    0.155831    11.00000   -1.50000
H8B   2    0.792254    0.750997    0.165425    11.00000   -1.50000
H8C   2    0.570024    0.627683    0.096266    11.00000   -1.50000
AFIX   0
C9    1    0.373318    0.863071    0.191538    11.00000    0.03918    0.04320 =
         0.03058    0.02349    0.00934    0.01564
AFIX 137
H9A   2    0.267512    0.785455    0.129909    11.00000   -1.50000
H9B   2    0.510485    0.898043    0.166073    11.00000   -1.50000
H9C   2    0.309290    0.953860    0.223377    11.00000   -1.50000
AFIX   0
C10   1    0.165102    0.930837    0.388834    11.00000    0.03073    0.02847 =
         0.03454    0.01284    0.00862    0.01266
AFIX 137
H10A  2    0.242990    1.035205    0.439163    11.00000   -1.50000
H10B  2    0.040894    0.888360    0.419946    11.00000   -1.50000
H10C  2    0.108858    0.939865    0.318991    11.00000   -1.50000
AFIX   0
C11   1    0.271763    0.790500    0.554264    11.00000    0.02909    0.02290 =
         0.02175    0.00532    0.01145    0.00533
AFIX 137
H11A  2    0.114988    0.736391    0.538716    11.00000   -1.50000
H11B  2    0.285127    0.904653    0.584302    11.00000   -1.50000
H11C  2    0.351718    0.755649    0.607287    11.00000   -1.50000
AFIX   0
C1S   1    0.828140    0.721309    0.844151    11.00000    0.02985    0.03241 =
         0.02080    0.01070    0.00144    0.00790
AFIX  13
H1S   2    0.770310    0.651342    0.767154    11.00000   -1.20000
AFIX   0
CL1   5    1.043770    0.873929    0.843199    11.00000    0.03297    0.04398 =
         0.06860    0.02410    0.01101    0.00457
CL2   5    0.608730    0.796868    0.901272    11.00000    0.03055    0.04488 =
         0.04645    0.02188    0.00823    0.01562
CL3   5    0.925324    0.607580    0.917335    11.00000    0.05743    0.05608 =
         0.03415    0.02658    0.01830    0.03570
HKLF 4




REM  mo_jk_ga192_kaleta_0m_a.res in P-1
REM wR2 = 0.0993, GooF = S = 1.040, Restrained GooF = 1.040 for all data
REM R1 = 0.0362 for 2851 Fo > 4sig(Fo) and 0.0401 for all 3149 data
REM 159 parameters refined using 0 restraints

END

WGHT      0.0493      0.5316

REM Highest difference peak  0.416,  deepest hole -0.470,  1-sigma level  0.058
Q1    1   1.0714  0.8776  0.9071  11.00000  0.05    0.42
Q2    1   1.0137  0.6882  0.9400  11.00000  0.05    0.36
Q3    1   0.2316  1.0407  0.3731  11.00000  0.05    0.32
Q4    1   0.4324  0.6933  0.4427  11.00000  0.05    0.32
Q5    1   0.2319  0.7883  0.0824  11.00000  0.05    0.32
Q6    1   0.2154  0.8599  0.1788  11.00000  0.05    0.31
Q7    1   0.4993  0.7484  0.2711  11.00000  0.05    0.30
Q8    1   0.3604  0.8036  0.4195  11.00000  0.05    0.29
Q9    1   0.5676  0.6359  0.3844  11.00000  0.05    0.29
Q10   1   0.6532  0.5406  0.1176  11.00000  0.05    0.27
Q11   1   0.8551  0.6599  0.1822  11.00000  0.05    0.27
Q12   1   0.7097  0.5787  0.3366  11.00000  0.05    0.27
Q13   1   0.3685  0.7978  0.3203  11.00000  0.05    0.26
Q14   1   0.2508  0.8751  0.3804  11.00000  0.05    0.26
Q15   1   0.0317  0.8824  0.3494  11.00000  0.05    0.26
Q16   1   0.6112  0.7778  0.8397  11.00000  0.05    0.25
Q17   1   0.5912  0.6493  0.2965  11.00000  0.05    0.25
Q18   1   0.5000  0.5000  0.5000  10.50000  0.05    0.25
Q19   1   0.4031  0.7824  0.1048  11.00000  0.05    0.25
Q20   1   0.4031  0.8163  0.2388  11.00000  0.05    0.23
;
_shelx_res_checksum              9544
_shelx_hkl_file
;
  -1   0   0  882.41   15.90
   1   0   0  872.31   15.90
   1   0   0  861.91   15.80
  -2   0   0  278.47    5.40
  -2   0   0  284.87    5.80
  -2   0   0  283.27    5.60
  -2   0   0  270.37    5.20
   2   0   0  277.47    5.80
   2   0   0  281.27    5.60
   2   0   0  273.67    5.50
   2   0   0  281.77    5.90
  -3   0   0  885.21   16.60
  -3   0   0  851.11   15.80
  -3   0   0  834.72   16.00
  -3   0   0  869.61   16.30
   3   0   0  880.91   16.50
   3   0   0  871.41   16.30
   3   0   0  871.81   16.90
  -4   0   0  250.27    6.70
  -4   0   0  273.47    5.30
  -4   0   0  278.37    5.80
  -4   0   0  269.17    5.50
  -4   0   0  266.17    6.20
   4   0   0  271.17    6.40
   4   0   0  270.37    5.90
   4   0   0  269.07    6.70
   4   0   0  265.67    6.40
   4   0   0  239.78    6.90
  -5   0   0  119.69    4.40
  -5   0   0  121.69    3.20
  -5   0   0  117.29    4.00
  -5   0   0  119.89    2.90
   5   0   0  118.49    4.20
   5   0   0  126.19    4.50
   5   0   0  118.89    4.50
   5   0   0  121.09    3.70
   5   0   0  117.89    4.50
  -6   0   0   59.99    4.20
  -6   0   0   59.19    3.00
   6   0   0   54.99    4.40
   6   0   0   67.09    4.20
   6   0   0   60.59    3.80
   6   0   0   56.79    2.90
   6   0   0   62.39    3.50
  -7   0   0    8.20    2.10
  -7   0   0    8.00    3.20
   7   0   0    7.40    2.80
   7   0   0   11.90    2.10
   7   0   0   15.90    3.60
   7   0   0   10.10    2.80
   7   0   0   13.00    2.70
   7  -1   0   33.30    3.40
   7  -1   0   28.00    3.70
   7  -1   0   29.60    2.90
   7  -1   0   27.40    3.30
   7  -1   0   31.10    2.80
  -7   1   0   28.30    3.30
  -7   1   0   26.60    2.80
   6  -1   0    8.70    2.00
   6  -1   0    9.10    2.40
   6  -1   0    9.00    1.70
   6  -1   0   10.30    2.00
   6  -1   0    8.40    1.80
  -6   1   0    8.20    1.70
  -6   1   0    7.60    2.20
   5  -1   0   52.19    3.30
   5  -1   0   46.70    2.70
   5  -1   0   46.40    2.80
   5  -1   0   51.79    3.10
   5  -1   0   45.00    2.90
  -5   1   0   48.10    2.60
  -5   1   0   47.00    2.80
  -5   1   0   48.50    1.50
  -5   1   0   45.30    1.50
   4  -1   0  271.37    6.30
   4  -1   0  269.87    6.20
   4  -1   0  271.47    6.60
   4  -1   0  272.87    6.60
   4  -1   0  272.87    6.50
  -4   1   0  266.97    5.50
  -4   1   0  270.77    6.50
  -4   1   0  264.47    6.40
  -4   1   0  270.37    5.40
   3  -1   0  841.72   16.30
   3  -1   0  827.82   16.10
   3  -1   0  864.71   16.30
   3  -1   0  840.12   16.00
  -3   1   0  834.32   15.50
  -3   1   0  825.82   15.50
  -3   1   0  848.62   16.20
  -3   1   0  847.72   16.20
   2  -1   0   97.69    2.40
   2  -1   0   98.49    2.60
   2  -1   0   96.69    2.40
   2  -1   0  100.19    2.60
  -2   1   0   97.99    2.20
  -2   1   0   97.09    2.20
  -2   1   0   94.69    2.60
   1  -1   0 1088.09   19.60
  -1   1   0 1077.79   19.70
   0  -1   0  529.55    9.70
   0  -1   0  537.15    9.70
   0  -1   0  540.95    9.80
   0   1   0  510.25    9.90
   0   1   0  516.35    9.60
  -1  -1   0   23.70    0.90
  -1  -1   0   23.90    0.70
  -1  -1   0   23.30    0.90
  -1  -1   0   24.70    1.00
  -1  -1   0   25.80    1.10
  -1  -1   0   24.10    0.80
   1   1   0   24.70    0.90
   1   1   0   24.30    0.90
   1   1   0   25.20    0.70
   1   1   0   23.00    1.00
   1   1   0   25.10    1.10
   1   1   0   22.80    0.90
  -2  -1   0  273.87    5.50
  -2  -1   0  272.77    5.50
  -2  -1   0  275.57    6.00
  -2  -1   0  271.97    5.70
   2   1   0  275.07    5.90
   2   1   0  281.27    5.90
   2   1   0  271.57    5.80
   2   1   0  286.67    5.70
   2   1   0  263.67    5.30
  -3  -1   0    0.90    0.80
  -3  -1   0    2.30    0.60
  -3  -1   0    0.80    0.80
  -3  -1   0    1.50    0.60
  -3  -1   0    2.50    0.70
   3   1   0    0.80    0.80
   3   1   0    1.40    0.90
   3   1   0    0.80    0.50
   3   1   0    0.10    0.80
   3   1   0    1.60    0.70
  -4  -1   0  121.39    3.20
  -4  -1   0  123.39    3.70
  -4  -1   0  124.19    3.80
  -4  -1   0  124.29    3.20
   4   1   0  126.69    4.00
   4   1   0  122.19    4.20
   4   1   0  117.89    3.10
   4   1   0  123.49    3.90
   4   1   0  135.49    4.20
  -5  -1   0  116.69    3.10
  -5  -1   0  119.59    3.30
  -5  -1   0  116.59    3.70
   5   1   0  119.39    3.30
   5   1   0  116.49    4.30
   5   1   0  115.49    4.50
   5   1   0  121.39    4.50
  -6  -1   0   30.20    1.60
  -6  -1   0   29.70    2.00
  -6  -1   0   29.20    2.90
  -6  -1   0   31.40    1.90
  -6  -1   0   31.80    3.30
   6   1   0   33.10    2.10
   6   1   0   27.80    3.00
   6   1   0   26.90    3.10
  -7  -1   0   42.90    4.60
  -7  -1   0   41.50    3.70
   7   1   0   40.50    4.70
   7   1   0   49.60    4.90
   7   1   0   48.80    4.50
   7   1   0   48.70    2.60
   7   1   0   45.60    4.70
   8  -2   0   20.10    3.50
   8  -2   0   25.60    3.60
   8  -2   0   27.60    5.00
   8  -2   0   22.50    3.70
   8  -2   0   22.50    4.70
  -8   2   0   23.40    2.50
   7  -2   0  236.98    7.30
   7  -2   0  235.88    8.10
   7  -2   0  214.68    7.80
   7  -2   0  231.78    7.50
  -7   2   0  213.98    7.10
  -7   2   0  228.28    6.70
   6  -2   0    2.70    1.40
   6  -2   0    2.70    1.80
   6  -2   0    1.40    1.70
   6  -2   0    1.30    1.60
   6  -2   0    0.20    1.60
  -6   2   0    3.00    1.50
  -6   2   0    1.70    1.30
   5  -2   0  735.33   15.20
   5  -2   0  731.13   15.20
   5  -2   0  742.13   15.10
   5  -2   0  728.13   15.10
  -5   2   0  730.43   14.90
  -5   2   0  693.73   13.10
  -5   2   0  746.33   15.00
  -5   2   0  697.93   13.10
   4  -2   0   98.79    3.40
   4  -2   0   99.29    3.30
   4  -2   0  104.09    3.50
   4  -2   0   98.99    3.30
  -4   2   0   98.19    2.30
  -4   2   0   94.99    2.30
  -4   2   0   91.59    3.20
  -4   2   0   97.19    3.30
   3  -2   0 2845.92   51.79
   3  -2   0 2839.92   51.69
   3  -2   0 2877.11   51.49
  -3   2   0 2820.42   51.59
  -3   2   0 2835.42   51.79
   2  -2   0   42.40    1.10
   2  -2   0   41.50    1.60
   2  -2   0   40.60    1.50
   2  -2   0   41.20    1.40
  -2   2   0   38.90    1.70
  -2   2   0   42.30    1.40
  -2   2   0   41.50    1.20
   1  -2   0  946.01   17.60
   1  -2   0  976.10   17.80
   1  -2   0  952.10   17.50
   1  -2   0  943.91   17.50
  -1   2   0  966.40   17.70
  -1   2   0  945.41   17.50
  -1   2   0  959.70   17.40
  -1   2   0  967.70   17.50
   0  -2   0 2549.34   48.00
   0   2   0 2557.64   48.00
  -2  -2   0   44.50    1.90
  -2  -2   0   48.50    1.70
  -2  -2   0   45.60    2.10
  -2  -2   0   44.50    1.30
  -2  -2   0   46.70    1.70
  -2  -2   0   44.20    1.80
   2   2   0   45.10    1.80
   2   2   0   46.60    1.30
   2   2   0   47.80    2.10
   2   2   0   48.80    1.90
   2   2   0   45.20    2.00
  -3  -2   0   35.60    1.70
  -3  -2   0   35.60    1.80
  -3  -2   0   33.90    1.70
  -3  -2   0   34.00    2.30
   3   2   0   35.40    2.00
   3   2   0   35.00    1.20
   3   2   0   36.00    2.10
   3   2   0   37.00    2.10
   3   2   0   39.40    2.00
  -4  -2   0 1074.49   21.10
  -4  -2   0 1050.09   20.10
  -4  -2   0 1013.40   19.60
  -4  -2   0 1056.79   19.80
  -4  -2   0 1056.59   20.40
   4   2   0 1043.30   21.00
   4   2   0 1046.60   20.30
   4   2   0 1031.50   20.50
   4   2   0 1027.10   20.60
   4   2   0 1007.60   19.00
  -5  -2   0   76.09    3.00
  -5  -2   0   69.99    3.30
  -5  -2   0   75.29    2.70
  -5  -2   0   67.09    3.80
   5   2   0   72.19    4.60
   5   2   0   66.29    3.60
   5   2   0   74.29    2.10
   5   2   0   72.89    3.80
   5   2   0   72.59    3.50
  -6  -2   0   14.30    1.80
  -6  -2   0   13.50    1.40
  -6  -2   0   17.40    1.90
  -6  -2   0   15.30    2.10
   6   2   0   11.70    2.20
   6   2   0   18.10    2.80
   6   2   0    8.90    2.70
   6   2   0   14.50    1.20
   6   2   0   11.40    2.90
  -7  -2   0   59.69    4.10
   7   2   0   68.89    5.60
   7   2   0   67.49    4.90
   7   2   0   71.69    6.20
   7   2   0   68.79    6.70
   8  -3   0   75.49    5.30
   8  -3   0   89.99    6.10
   8  -3   0   95.49    7.70
   8  -3   0   81.49    5.90
  -8   3   0   69.59    4.30
   7  -3   0   -1.50    2.70
   7  -3   0   -3.80    2.70
   7  -3   0   -0.30    3.20
   7  -3   0    5.80    2.80
   7  -3   0    1.90    2.50
  -7   3   0    1.60    2.20
  -7   3   0   -1.20    2.00
   6  -3   0   22.70    2.60
   6  -3   0   23.70    2.50
   6  -3   0   29.10    3.20
   6  -3   0   24.50    2.80
   6  -3   0   25.60    2.90
  -6   3   0   22.00    2.30
  -6   3   0   20.30    2.40
   5  -3   0  115.49    4.50
   5  -3   0  116.69    4.20
   5  -3   0  109.89    4.20
   5  -3   0  113.49    4.00
  -5   3   0  110.79    2.30
  -5   3   0  110.79    4.20
  -5   3   0  110.29    3.80
  -5   3   0  111.89    2.30
   4  -3   0  285.47    6.60
   4  -3   0  270.97    5.10
   4  -3   0  278.17    6.80
   4  -3   0  281.37    6.70
   4  -3   0  276.17    6.60
  -4   3   0  276.77    6.80
  -4   3   0  272.07    6.40
  -4   3   0  281.37    5.50
  -4   3   0  281.77    5.70
   3  -3   0  184.38    4.50
   3  -3   0  183.68    4.60
   3  -3   0  184.08    3.80
   3  -3   0  180.98    4.50
  -3   3   0  181.48    4.20
  -3   3   0  183.38    3.90
  -3   3   0  185.38    4.80
   2  -3   0  190.78    4.60
   2  -3   0  192.98    4.60
   2  -3   0  196.48    4.40
   2  -3   0  195.78    4.10
   2  -3   0  198.38    4.40
  -2   3   0  193.48    4.80
  -2   3   0  196.28    4.20
  -2   3   0  195.28    4.30
  -2   3   0  192.88    4.40
   1  -3   0  151.58    3.50
   1  -3   0  156.48    3.60
   1  -3   0  151.88    4.00
   1  -3   0  158.38    3.60
   1  -3   0  158.98    3.60
  -1   3   0  154.48    3.90
  -1   3   0  155.08    3.50
  -1   3   0  161.88    3.60
  -1   3   0  158.18    3.50
   0  -3   0  225.48    4.90
   0  -3   0  224.58    4.90
   0  -3   0  225.18    4.90
   0  -3   0  226.08    4.80
   0  -3   0  234.58    5.50
   0   3   0  230.48    4.90
   0   3   0  228.48    4.90
   0   3   0  225.88    4.90
   0   3   0  226.98    5.50
  -1  -3   0  163.28    3.90
  -1  -3   0  161.18    4.40
  -1  -3   0  172.38    4.00
  -1  -3   0  161.18    3.90
  -1  -3   0  159.38    3.70
  -1  -3   0  159.68    3.90
   1   3   0  161.68    4.00
   1   3   0  166.68    4.50
   1   3   0  163.38    3.80
   1   3   0  163.48    4.00
  -2  -3   0   27.10    1.60
  -2  -3   0   28.70    1.90
  -2  -3   0   27.60    1.60
  -2  -3   0   27.50    1.20
  -2  -3   0   28.20    1.60
  -2  -3   0   25.70    2.10
   2   3   0   27.80    1.60
   2   3   0   28.80    1.90
   2   3   0   26.90    2.10
   2   3   0   27.60    1.80
  -3  -3   0  160.18    3.50
  -3  -3   0  163.98    4.20
  -3  -3   0  160.38    4.40
  -3  -3   0  165.28    4.40
  -3  -3   0  163.28    5.10
  -3  -3   0  165.98    4.70
   3   3   0  160.58    4.90
   3   3   0  177.78    4.70
   3   3   0  162.78    4.40
   3   3   0  170.08    5.00
  -4  -3   0    0.60    1.80
  -4  -3   0    1.30    1.00
  -4  -3   0    0.90    1.30
  -4  -3   0    0.10    1.60
  -4  -3   0    1.80    1.10
   4   3   0    2.00    1.40
   4   3   0   -1.20    1.40
   4   3   0   -0.30    1.40
   4   3   0    0.80    1.20
  -5  -3   0  220.88    5.60
  -5  -3   0  232.68    6.20
  -5  -3   0  228.08    6.10
  -5  -3   0  213.38    6.40
  -5  -3   0  223.68    7.30
   5   3   0  219.98    7.00
   5   3   0  195.18    7.20
   5   3   0  224.68    7.40
  -6  -3   0  159.28    4.70
  -6  -3   0  157.18    5.50
  -6  -3   0  158.88    7.20
  -6  -3   0  157.58    5.40
  -6  -3   0  150.28    5.20
   6   3   0  156.88    7.20
   6   3   0  160.88    6.80
   6   3   0  158.18    6.70
   6   3   0  153.68    6.10
   7   3   0   16.80    3.60
   7   3   0   24.60    4.50
   7   3   0   20.70    3.80
   7  -4   0  181.28    7.00
   7  -4   0  187.88    6.80
   7  -4   0  180.68    7.10
   7  -4   0  185.88    6.80
   7  -4   0  159.78    8.30
  -7   4   0  174.48    6.40
  -7   4   0  187.78    5.90
   6  -4   0   70.59    4.50
   6  -4   0   74.79    4.10
   6  -4   0   68.59    3.70
   6  -4   0   70.49    4.00
  -6   4   0   68.59    3.40
  -6   4   0   74.39    4.10
   5  -4   0  299.07    7.80
   5  -4   0  295.37    7.50
   5  -4   0  296.87    7.80
   5  -4   0  296.97    7.30
  -5   4   0  293.57    5.80
  -5   4   0  289.87    5.70
  -5   4   0  295.27    7.90
  -5   4   0  291.67    6.90
   4  -4   0    1.10    1.20
   4  -4   0   -1.30    1.10
   4  -4   0    0.80    1.30
   4  -4   0   -0.10    0.50
  -4   4   0    0.60    0.70
  -4   4   0    1.20    0.80
  -4   4   0    2.90    1.40
   3  -4   0 1761.62   32.50
   3  -4   0 1718.03   31.90
   3  -4   0 1715.93   32.30
   3  -4   0 1755.72   31.50
   3  -4   0 1714.53   32.10
  -3   4   0 1707.73   32.50
  -3   4   0 1709.83   31.80
  -3   4   0 1745.33   31.90
  -3   4   0 1732.73   31.50
   2  -4   0 1275.97   24.70
   2  -4   0 1306.47   24.20
   2  -4   0 1286.47   24.30
   2  -4   0 1316.97   24.60
   2  -4   0 1314.07   24.20
  -2   4   0 1321.07   24.10
  -2   4   0 1345.07   24.40
  -2   4   0 1275.67   24.70
   1  -4   0  515.95   10.50
   1  -4   0  528.45   10.40
   1  -4   0  514.05   10.40
   1  -4   0  518.15   10.50
   1  -4   0  538.35   11.20
  -1   4   0  540.85   10.40
  -1   4   0  535.45   10.50
  -1   4   0  538.95   11.00
  -1   4   0  520.45   10.40
   0  -4   0 1370.46   25.70
   0  -4   0 1421.66   26.50
   0  -4   0 1418.96   25.80
   0  -4   0 1346.77   25.80
   0  -4   0 1387.16   25.60
   0   4   0 1369.46   25.70
   0   4   0 1376.66   26.50
   0   4   0 1385.86   25.80
   0   4   0 1397.66   25.70
  -1  -4   0  539.35   11.20
  -1  -4   0  530.65   10.90
  -1  -4   0  546.65   11.10
  -1  -4   0  548.45   11.10
  -1  -4   0  538.65   11.00
  -1  -4   0  545.15   11.70
   1   4   0  542.85   11.90
   1   4   0  616.14   11.30
   1   4   0  548.95   11.30
   1   4   0  546.75   11.00
  -2  -4   0  213.98    5.30
  -2  -4   0  217.08    4.70
  -2  -4   0  213.38    5.30
  -2  -4   0  217.68    5.40
  -2  -4   0  214.38    6.00
  -2  -4   0  220.88    5.60
   2   4   0  213.58    5.50
   2   4   0  214.28    5.10
   2   4   0  220.38    5.70
   2   4   0  212.38    6.10
  -3  -4   0    0.90    1.80
  -3  -4   0    0.50    1.00
  -3  -4   0    0.30    1.50
  -3  -4   0    1.10    1.20
  -3  -4   0   -0.40    1.00
  -3  -4   0    1.60    0.60
   3   4   0    0.50    1.20
   3   4   0   -0.80    1.20
   3   4   0    0.80    0.90
   3   4   0   -0.50    1.50
  -4  -4   0  187.88    5.60
  -4  -4   0  204.58    6.70
  -4  -4   0  199.48    6.10
  -4  -4   0  194.78    5.40
  -4  -4   0  200.38    5.60
   4   4   0  193.78    6.10
   4   4   0  195.08    6.60
   4   4   0  200.18    5.50
  -5  -4   0   87.79    4.80
  -5  -4   0   86.39    4.20
  -5  -4   0   85.89    5.30
  -5  -4   0   80.69    3.90
  -5  -4   0   85.29    3.40
   5   4   0   93.19    4.30
   5   4   0   80.29    5.40
   5   4   0   75.99    4.70
   5   4   0   81.59    5.20
  -6  -4   0   31.50    3.20
  -6  -4   0   26.00    3.10
  -6  -4   0   26.30    2.60
  -6  -4   0   22.80    3.70
  -6  -4   0   27.90    3.20
   6   4   0   24.40    2.70
   6   4   0   26.10    3.90
   6   4   0   30.90    4.70
   6   4   0   28.80    4.30
   7  -5   0    3.20    3.00
   7  -5   0    3.40    2.90
   7  -5   0   -1.30    3.30
   7  -5   0   -0.60    2.50
  -7   5   0   -1.40    1.80
  -7   5   0    2.40    2.60
   6  -5   0   65.19    4.90
   6  -5   0   61.89    4.10
   6  -5   0   75.79    4.30
   6  -5   0   67.59    4.10
  -6   5   0   62.69    3.00
  -6   5   0   66.79    4.40
   5  -5   0    8.60    1.00
   5  -5   0    7.70    1.80
   5  -5   0   10.20    1.50
   5  -5   0   10.20    1.80
   5  -5   0    7.30    1.60
  -5   5   0    9.00    1.00
  -5   5   0   12.50    1.10
  -5   5   0    8.60    2.10
  -5   5   0    9.40    1.40
   4  -5   0  343.07    8.40
   4  -5   0  348.47    8.30
   4  -5   0  359.76    7.50
   4  -5   0  351.96    8.80
   4  -5   0  369.26    8.20
  -4   5   0  350.26    8.70
  -4   5   0  365.06    7.40
  -4   5   0  350.46    7.70
   3  -5   0  400.76    8.50
   3  -5   0  399.36    9.10
   3  -5   0  402.46    8.30
   3  -5   0  398.16    9.10
   3  -5   0  398.76    8.80
  -3   5   0  391.36    9.20
  -3   5   0  393.56    8.20
  -3   5   0  390.06    8.70
   2  -5   0  195.28    4.80
   2  -5   0  197.38    5.10
   2  -5   0  202.58    5.20
   2  -5   0  198.98    5.60
   2  -5   0  201.28    4.90
  -2   5   0  202.68    5.00
  -2   5   0  197.58    5.50
  -2   5   0  194.48    4.80
  -2   5   0  201.38    4.80
   1  -5   0  958.90   18.10
   1  -5   0  935.91   18.00
   1  -5   0  928.11   17.80
   1  -5   0  913.21   18.00
   1  -5   0  940.51   18.90
  -1   5   0  920.11   17.90
  -1   5   0  913.91   18.60
  -1   5   0  920.71   17.90
  -1   5   0  951.00   17.90
   0  -5   0  611.14   12.30
   0  -5   0  605.24   12.10
   0  -5   0  598.84   12.40
   0  -5   0  607.14   12.30
   0  -5   0  604.44   13.20
   0   5   0  605.94   13.20
   0   5   0  630.54   12.40
   0   5   0  613.54   12.40
   0   5   0  613.74   12.20
  -1  -5   0  180.08    4.70
  -1  -5   0  182.68    4.80
  -1  -5   0  186.18    4.80
  -1  -5   0  184.18    5.00
  -1  -5   0  186.88    5.60
  -1  -5   0  187.38    4.90
   1   5   0  182.18    5.80
   1   5   0  184.98    5.10
   1   5   0  190.98    5.00
   1   5   0  183.88    4.80
  -2  -5   0   87.29    3.50
  -2  -5   0   89.99    3.30
  -2  -5   0   83.99    4.00
  -2  -5   0   89.79    3.40
  -2  -5   0   87.29    3.30
  -2  -5   0   88.49    2.80
   2   5   0   89.39    3.10
   2   5   0   88.49    3.50
   2   5   0   89.29    3.70
   2   5   0   91.69    4.40
  -3  -5   0   17.50    1.80
  -3  -5   0   15.50    2.30
  -3  -5   0   15.30    1.80
  -3  -5   0   17.10    2.50
  -3  -5   0   15.80    1.50
  -3  -5   0   16.90    2.00
   3   5   0   14.60    2.10
   3   5   0   12.90    2.50
   3   5   0   14.60    1.60
   3   5   0   18.50    2.30
  -4  -5   0   77.39    5.10
  -4  -5   0   84.39    4.10
  -4  -5   0   89.39    3.80
  -4  -5   0   83.19    4.50
  -4  -5   0   88.59    3.70
   4   5   0   82.49    4.90
   4   5   0   83.99    5.20
   4   5   0   83.19    3.70
   4   5   0   76.29    5.00
  -5  -5   0   40.40    3.90
  -5  -5   0   45.40    3.20
  -5  -5   0   49.10    4.60
  -5  -5   0   37.40    3.90
  -5  -5   0   37.00    3.30
   5   5   0   47.30    4.60
   5   5   0   48.10    5.00
   5   5   0   39.40    3.40
   5   5   0   38.50    4.90
  -6  -5   0  111.29    5.00
  -6  -5   0  110.69    6.60
  -6  -5   0  103.89    5.40
   6   5   0  103.99    7.60
   6   5   0  114.69    7.50
   6   5   0  102.79    7.20
   6   5   0  117.39    6.20
   7  -6   0   19.20    2.90
   7  -6   0   15.70    3.70
   7  -6   0   21.50    3.40
   7  -6   0   14.90    4.10
  -7   6   0   14.60    3.30
   6  -6   0  484.45   12.30
   6  -6   0  485.15   11.40
   6  -6   0  457.25   11.40
   6  -6   0  449.36    8.80
   6  -6   0  486.95   12.20
  -6   6   0  474.45   10.40
  -6   6   0  469.55   12.10
   5  -6   0   36.90    3.40
   5  -6   0   33.70    2.70
   5  -6   0   36.70    2.30
   5  -6   0   34.50    3.20
   5  -6   0   38.40    3.60
  -5   6   0   38.90    1.80
  -5   6   0   35.20    2.60
  -5   6   0   41.50    4.00
  -5   6   0   33.80    2.20
   4  -6   0  753.42   15.70
   4  -6   0  750.12   14.80
   4  -6   0  754.02   16.10
   4  -6   0  756.72   15.20
   4  -6   0  752.72   16.00
  -4   6   0  741.73   17.40
  -4   6   0  742.03   15.10
  -4   6   0  737.63   14.50
   3  -6   0 1062.99   21.10
   3  -6   0 1057.79   21.60
   3  -6   0 1065.89   20.60
   3  -6   0 1064.39   21.30
   3  -6   0 1087.79   20.60
  -3   6   0 1084.69   20.60
  -3   6   0 1059.79   21.60
  -3   6   0 1082.69   20.90
  -3   6   0 1049.09   20.30
   2  -6   0  140.19    4.40
   2  -6   0  142.39    4.10
   2  -6   0  141.09    5.20
   2  -6   0  135.09    4.30
   2  -6   0  138.59    4.00
  -2   6   0  138.89    4.30
  -2   6   0  140.59    4.00
  -2   6   0  140.39    4.10
  -2   6   0  141.09    4.80
   1  -6   0    2.60    1.50
   1  -6   0    2.40    1.10
   1  -6   0    4.60    1.00
   1  -6   0    2.30    1.10
   1  -6   0    6.70    1.30
  -1   6   0    4.60    1.30
  -1   6   0    1.70    1.00
  -1   6   0    3.70    1.50
  -1   6   0    3.00    1.10
   0  -6   0    3.50    1.20
   0  -6   0    0.90    1.10
   0  -6   0    4.60    1.20
   0  -6   0    2.40    1.60
   0   6   0    3.90    1.10
   0   6   0    2.40    1.00
   0   6   0    0.50    1.00
   0   6   0    2.10    1.60
  -1  -6   0  283.87    7.00
  -1  -6   0  272.07    7.80
  -1  -6   0  284.77    7.00
  -1  -6   0  280.27    6.80
  -1  -6   0  271.77    7.00
  -1  -6   0  275.97    6.90
   1   6   0  283.17    7.20
   1   6   0  282.27    8.10
   1   6   0  285.97    6.90
   1   6   0  274.27    7.00
  -2  -6   0    7.10    1.60
  -2  -6   0    4.70    1.20
  -2  -6   0    3.10    1.50
  -2  -6   0    4.50    1.50
  -2  -6   0    4.70    1.40
  -2  -6   0    3.70    2.10
   2   6   0    4.30    1.80
   2   6   0    6.40    1.60
   2   6   0    5.80    2.40
   2   6   0    4.50    1.40
  -3  -6   0  115.99    5.20
  -3  -6   0  116.99    5.80
  -3  -6   0  117.19    4.50
  -3  -6   0  120.79    4.50
  -3  -6   0  117.19    3.50
   3   6   0  115.39    5.30
   3   6   0  107.79    6.00
   3   6   0  114.89    4.30
   3   6   0  126.39    5.10
  -4  -6   0   66.19    3.90
  -4  -6   0   69.69    5.10
  -4  -6   0   70.19    3.70
  -4  -6   0   70.49    6.50
  -4  -6   0   70.09    4.40
   4   6   0   69.59    5.80
   4   6   0   72.29    5.50
   4   6   0   68.59    6.10
   4   6   0   64.69    3.80
  -5  -6   0   27.20    4.30
  -5  -6   0   24.00    3.30
  -5  -6   0   23.00    4.90
  -5  -6   0   28.40    3.10
  -5  -6   0   22.30    2.90
   5   6   0   35.20    4.70
   5   6   0   30.30    3.10
   5   6   0   28.10    4.10
   5   6   0   34.90    5.70
   7  -7   0   -3.70    3.00
   7  -7   0   -3.10    4.10
   7  -7   0    2.70    2.50
   7  -7   0   -0.70    3.10
  -7   7   0    2.10    1.90
  -7   7   0    7.10    3.40
   6  -7   0   53.59    5.70
   6  -7   0   41.00    4.30
   6  -7   0   47.70    5.20
   6  -7   0   41.60    2.90
   6  -7   0   44.00    3.70
  -6   7   0   44.10    4.20
  -6   7   0   49.10    3.00
   5  -7   0    4.90    1.60
   5  -7   0    9.60    2.70
   5  -7   0   11.60    1.90
   5  -7   0    3.80    2.80
   5  -7   0   10.30    2.40
  -5   7   0    8.10    1.80
  -5   7   0    6.80    1.30
  -5   7   0   10.50    2.40
   4  -7   0   19.10    2.60
   4  -7   0   19.90    2.20
   4  -7   0   22.50    2.40
   4  -7   0   17.80    2.50
   4  -7   0   20.80    2.30
  -4   7   0   24.30    2.20
  -4   7   0   18.40    2.50
  -4   7   0   21.60    2.20
  -4   7   0   16.40    1.60
   3  -7   0    3.10    1.50
   3  -7   0    6.70    2.10
   3  -7   0    5.60    1.80
   3  -7   0    6.10    1.30
   3  -7   0    3.30    1.30
  -3   7   0    4.50    1.30
  -3   7   0    5.20    1.80
  -3   7   0    1.70    1.80
  -3   7   0    4.10    1.40
   2  -7   0    2.40    1.30
   2  -7   0    3.80    2.00
   2  -7   0    0.70    1.50
   2  -7   0    3.20    1.40
   2  -7   0    4.10    1.50
  -2   7   0    2.10    1.20
  -2   7   0   -0.10    1.30
  -2   7   0    2.40    1.80
  -2   7   0    0.60    1.40
   1  -7   0  329.57    8.10
   1  -7   0  322.77    8.00
   1  -7   0  333.37    7.80
   1  -7   0  323.07    8.10
   1  -7   0  317.97    8.90
  -1   7   0  326.67    7.90
  -1   7   0  332.57    8.90
  -1   7   0  331.27    7.80
  -1   7   0  319.57    7.80
   0  -7   0  173.18    5.30
   0  -7   0  177.98    5.40
   0  -7   0  184.68    5.10
   0  -7   0  180.98    6.40
   0  -7   0  169.48    5.40
   0   7   0  178.28    5.50
   0   7   0  173.68    6.40
   0   7   0  172.88    5.40
   0   7   0  177.98    5.20
  -1  -7   0  146.49    6.00
  -1  -7   0  141.59    6.00
  -1  -7   0  146.59    4.70
  -1  -7   0  157.88    5.00
   1   7   0  132.89    5.80
   1   7   0  151.98    6.30
   1   7   0  146.49    4.90
   1   7   0  151.98    5.30
  -2  -7   0  199.98    6.20
  -2  -7   0  187.68    5.40
  -2  -7   0  196.78    6.50
  -2  -7   0  214.38    7.00
  -2  -7   0  185.18    6.80
  -2  -7   0  186.18    7.30
   2   7   0  199.98    6.80
   2   7   0  203.68    6.50
   2   7   0  199.78    5.90
   2   7   0  193.08    7.60
  -3  -7   0   28.70    2.80
  -3  -7   0   26.40    2.50
  -3  -7   0   24.40    2.90
  -3  -7   0   25.40    2.60
  -3  -7   0   26.30    3.30
  -3  -7   0   23.10    4.30
   3   7   0   26.80    3.50
   3   7   0   31.60    4.20
   3   7   0   25.40    2.60
   3   7   0   27.30    3.30
  -4  -7   0   12.00    1.30
  -4  -7   0    9.80    2.90
  -4  -7   0   13.30    2.60
  -4  -7   0   15.00    3.00
  -4  -7   0   17.10    4.40
  -4  -7   0   11.50    3.60
   4   7   0   18.40    3.50
   4   7   0   19.40    4.50
   4   7   0   14.70    3.00
   4   7   0   15.80    4.70
  -5  -7   0    0.40    3.10
  -5  -7   0    7.30    2.80
  -5  -7   0    4.60    4.60
  -5  -7   0   -2.10    3.20
   5   7   0    1.50    3.80
   5   7   0    7.30    4.70
   5   7   0    2.90    2.50
   5   7   0    2.20    3.40
   6  -8   0   10.30    3.10
   6  -8   0   13.90    2.40
   6  -8   0   11.00    3.40
   6  -8   0   13.90    4.10
   6  -8   0    8.60    2.50
  -6   8   0    8.30    2.20
  -6   8   0    5.60    1.00
  -6   8   0    6.70    3.20
  -6   8   0    8.30    0.90
   5  -8   0    1.80    2.50
   5  -8   0   -1.00    3.20
   5  -8   0    2.90    3.40
   5  -8   0    2.70    1.90
   5  -8   0    2.10    1.90
  -5   8   0    0.60    1.50
  -5   8   0    2.70    1.30
  -5   8   0    3.30    2.60
  -5   8   0   -1.50    2.00
   4  -8   0   37.60    3.80
   4  -8   0   35.80    3.80
   4  -8   0   39.20    3.10
   4  -8   0   38.50    3.10
   4  -8   0   36.00    3.70
  -4   8   0   39.10    3.70
  -4   8   0   39.20    2.80
  -4   8   0   37.60    4.20
  -4   8   0   41.20    2.80
   3  -8   0  140.09    6.30
   3  -8   0  143.59    5.00
   3  -8   0  149.49    5.40
   3  -8   0  151.18    5.90
  -3   8   0  160.88    5.00
  -3   8   0  159.18    5.00
  -3   8   0  154.48    6.30
  -3   8   0  145.79    5.30
   2  -8   0  321.37    8.60
   2  -8   0  297.97    7.80
   2  -8   0  343.17    9.60
  -2   8   0  309.17    7.90
  -2   8   0  302.07    8.30
  -2   8   0  318.87    7.80
  -2   8   0  308.27    9.40
   1  -8   0  188.68    7.10
   1  -8   0  195.68    5.60
   1  -8   0  192.38    6.10
   1  -8   0  191.18    6.10
  -1   8   0  189.78    5.90
  -1   8   0  191.28    7.10
   0  -8   0   33.90    2.90
   0  -8   0   39.00    3.20
   0  -8   0   31.80    3.10
   0  -8   0   40.40    3.30
   0  -8   0   25.00    3.30
   0   8   0   23.40    3.90
   0   8   0   32.70    3.20
   0   8   0   34.00    3.60
   0   8   0   33.30    3.20
  -1  -8   0  197.78    6.30
  -1  -8   0  188.08    7.40
  -1  -8   0  188.28    6.50
  -1  -8   0  197.78    6.20
  -1  -8   0  200.48    6.70
   1   8   0  195.58    6.50
   1   8   0  195.28    6.60
   1   8   0  184.38    7.60
   1   8   0  191.28    6.00
  -2  -8   0   13.70    2.40
  -2  -8   0   14.30    2.50
  -2  -8   0   12.10    2.60
  -2  -8   0   14.90    2.10
  -2  -8   0   14.20    2.80
  -2  -8   0   12.90    3.40
   2   8   0    9.70    2.90
   2   8   0   10.90    2.20
   2   8   0   18.30    3.70
   2   8   0   11.60    2.70
  -3  -8   0   10.80    2.10
  -3  -8   0   15.00    3.20
  -3  -8   0   11.70    4.10
  -3  -8   0   15.20    2.70
  -3  -8   0    8.20    2.60
  -3  -8   0    8.50    4.10
   3   8   0   12.60    3.20
   3   8   0   13.70    2.70
   3   8   0   14.90    4.30
   3   8   0   11.30    3.80
  -4  -8   0   19.80    3.20
  -4  -8   0   19.30    3.80
  -4  -8   0   18.00    6.20
  -4  -8   0   25.40    3.30
  -4  -8   0   24.60    5.40
   4   8   0   33.10    6.70
   4   8   0   12.90    2.90
   4   8   0   28.40    5.90
   4   8   0   26.30    3.90
   6  -9   0   84.79    6.90
   6  -9   0   91.79    6.00
   6  -9   0   94.79    6.90
   6  -9   0   90.89    5.10
   5  -9   0    4.80    3.20
   5  -9   0    7.20    2.90
   5  -9   0    2.30    3.10
   5  -9   0    3.60    3.60
  -5   9   0    2.40    1.70
  -5   9   0    3.30    3.30
  -5   9   0    4.00    1.70
  -5   9   0    5.10    2.40
   4  -9   0   28.70    3.60
   4  -9   0   31.40    3.30
   4  -9   0   29.50    3.90
   4  -9   0   24.40    4.60
   4  -9   0   30.20    3.90
  -4   9   0   27.70    2.60
  -4   9   0   36.90    3.40
  -4   9   0   28.30    3.40
  -4   9   0   31.30    4.00
   3  -9   0  173.78    6.70
   3  -9   0  179.78    7.20
   3  -9   0  185.48    7.80
   3  -9   0  176.38    6.20
   3  -9   0  179.08    6.00
  -3   9   0  168.58    7.30
  -3   9   0  174.68    6.10
  -3   9   0  181.88    6.20
   2  -9   0   99.09    4.50
   2  -9   0   98.39    4.90
   2  -9   0  105.69    6.20
   2  -9   0   97.09    5.30
   2  -9   0   93.09    4.90
  -2   9   0   95.29    4.50
  -2   9   0   98.39    5.90
  -2   9   0   98.39    4.60
  -2   9   0   87.69    5.30
   1  -9   0   57.89    5.50
   1  -9   0   64.79    4.30
   1  -9   0   69.79    4.30
   1  -9   0   62.49    4.50
   1  -9   0   64.49    4.40
  -1   9   0   67.29    5.30
  -1   9   0   66.29    4.10
  -1   9   0   62.09    4.00
  -1   9   0   60.99    4.70
   0  -9   0   12.20    2.40
   0  -9   0   12.90    2.60
   0  -9   0   11.90    2.20
   0  -9   0   14.10    2.60
   0  -9   0   14.80    3.40
   0   9   0   10.00    2.10
   0   9   0   10.90    2.60
   0   9   0   12.20    3.30
   0   9   0   12.20    2.60
  -1  -9   0   53.59    4.40
  -1  -9   0   39.80    4.20
  -1  -9   0   50.39    4.70
  -1  -9   0   45.10    4.20
  -1  -9   0   58.09    4.60
   1   9   0   45.20    4.70
   1   9   0   51.49    4.90
   1   9   0   55.79    4.50
   1   9   0   47.10    4.60
  -2  -9   0   10.40    3.20
  -2  -9   0    3.80    2.60
  -2  -9   0    7.90    3.80
  -2  -9   0    5.90    3.00
  -2  -9   0    5.90    2.30
   2   9   0    4.10    3.60
   2   9   0   11.10    4.40
   2   9   0   13.80    3.20
   2   9   0    9.00    2.50
  -3  -9   0  164.98    8.70
  -3  -9   0  163.58    5.60
  -3  -9   0  175.68   10.80
  -3  -9   0  157.58    7.10
  -3  -9   0  174.68    7.90
   3   9   0  161.08    9.30
   3   9   0  165.78    8.40
   3   9   0  167.58   10.00
   3   9   0  159.18    6.70
   5 -10   0    2.80    3.80
   5 -10   0    0.20    3.40
   5 -10   0   -1.90    2.80
   5 -10   0   -1.50    3.50
   5 -10   0    4.30    4.90
  -5  10   0    4.00    4.10
  -5  10   0   -3.40    3.40
  -5  10   0    5.60    2.40
  -5  10   0   -0.70    2.10
   4 -10   0  114.79    7.70
   4 -10   0  121.39    5.90
   4 -10   0  113.59    7.60
   4 -10   0  117.09    6.00
   4 -10   0  103.99    6.70
  -4  10   0  125.49    5.50
  -4  10   0  115.69    7.60
  -4  10   0  120.09    6.00
   3 -10   0    1.80    2.30
   3 -10   0   -5.40    3.10
   3 -10   0   -4.80    3.50
   3 -10   0    1.40    2.60
   3 -10   0    4.60    3.60
  -3  10   0    1.70    3.20
  -3  10   0    3.80    2.40
  -3  10   0    3.10    3.50
  -3  10   0    0.10    2.10
   2 -10   0    4.50    3.80
   2 -10   0    2.50    2.60
   2 -10   0    3.80    3.10
   2 -10   0    5.40    2.90
   2 -10   0    3.00    2.10
  -2  10   0    3.20    2.40
  -2  10   0    1.20    2.40
  -2  10   0    6.70    2.60
  -2  10   0    6.30    4.10
   1 -10   0   10.20    3.10
   1 -10   0    6.20    2.80
   1 -10   0    5.80    3.20
   1 -10   0    7.30    3.90
   1 -10   0   10.30    2.40
  -1  10   0    9.00    3.80
  -1  10   0    3.00    2.30
  -1  10   0    8.60    3.20
  -1  10   0    1.30    2.60
   0 -10   0   19.60    3.30
   0 -10   0   14.70    3.30
   0 -10   0   13.50    2.80
   0 -10   0   29.30    4.80
   0 -10   0   14.30    3.70
   0  10   0   20.20    3.30
   0  10   0   18.30    4.30
   0  10   0   21.20    3.00
   0  10   0   21.90    3.60
  -1 -10   0   14.10    4.80
  -1 -10   0    9.50    3.10
  -1 -10   0   15.60    3.50
  -1 -10   0   14.00    3.50
  -1 -10   0   10.80    3.20
  -1 -10   0   20.50    3.90
   1  10   0   14.10    2.80
   1  10   0   10.00    4.00
   1  10   0   18.40    3.90
   1  10   0   15.20    4.70
  -2 -10   0    9.90    4.30
  -2 -10   0   21.90    4.00
  -2 -10   0   11.90    5.40
   2  10   0   18.40    5.60
   2  10   0   14.70    4.70
   3 -11   0   22.00    2.90
   3 -11   0   30.60    4.70
   3 -11   0   20.10    4.80
   3 -11   0   22.40    3.70
   3 -11   0   23.60    4.90
  -3  11   0   19.20    4.00
  -3  11   0   12.90    4.30
  -3  11   0   20.60    3.40
  -3  11   0   24.90    4.70
   2 -11   0   29.30    3.50
   2 -11   0   38.40    5.80
   2 -11   0   28.60    3.90
   2 -11   0   29.70    5.50
   2 -11   0   32.90    4.20
  -2  11   0   34.50    4.10
  -2  11   0   29.10    3.80
  -2  11   0   27.90    5.20
  -2  11   0   37.60    3.90
   1 -11   0   -3.30    2.30
   1 -11   0    2.90    3.10
   1 -11   0    4.40    2.90
   1 -11   0    3.70    5.60
   1 -11   0    7.30    4.50
  -1  11   0    3.60    2.90
  -1  11   0    7.00    3.30
  -1  11   0    8.00    3.70
  -1  11   0   -1.40    4.20
   0 -11   0    9.90    3.90
   0  11   0    3.90    5.00
   0  11  -1    1.80    2.60
   0  11  -1    1.40    3.00
   0  11  -1    1.20    3.70
   0  11  -1   -4.40    4.40
   0 -11   1    0.60    6.00
   0 -11   1    4.40    3.90
   0 -11   1    2.20    3.20
   0 -11   1   -1.70    3.40
   0 -11   1    4.20    3.10
   0 -11   1   -4.10    2.40
  -1  11  -1    6.10    3.00
  -1  11  -1    6.70    4.40
  -1  11  -1    2.00    3.00
  -1  11  -1   -0.80    3.30
   1 -11   1    1.10    3.00
   1 -11   1    1.00    2.20
   1 -11   1   -1.40    3.20
   1 -11   1   -0.80    3.70
   1 -11   1   -0.50    4.60
  -2  11  -1    9.60    3.60
  -2  11  -1    3.20    3.20
  -2  11  -1    6.70    3.10
  -2  11  -1   19.20    4.50
   2 -11   1   10.80    4.70
   2 -11   1   11.20    3.60
   2 -11   1   14.80    3.10
   2 -11   1    8.60    4.30
   2 -11   1    3.10    3.10
  -3  11  -1   23.30    5.00
  -3  11  -1   34.70    3.50
  -3  11  -1   30.20    4.20
  -3  11  -1   37.10    4.80
   3 -11   1   38.00    5.60
   3 -11   1   26.00    4.00
   3 -11   1   33.00    3.30
   3 -11   1   31.60    4.20
   3 -11   1   39.60    5.20
  -4  11  -1    2.00    4.50
   2  10  -1   33.90    5.70
   2  10  -1   24.20    3.60
   2  10  -1   28.40    3.10
   2  10  -1   36.10    4.90
  -2 -10   1   41.20    4.20
  -2 -10   1   44.50    5.80
  -2 -10   1   34.60    4.70
  -2 -10   1   34.90    4.30
  -2 -10   1   38.70    4.60
  -2 -10   1   39.50    5.20
   1  10  -1    1.70    2.90
   1  10  -1   -0.80    3.90
   1  10  -1    2.60    3.10
   1  10  -1    3.80    2.50
  -1 -10   1    2.20    3.10
  -1 -10   1    4.30    4.00
  -1 -10   1   -5.10    3.30
  -1 -10   1    4.40    3.20
  -1 -10   1    0.90    2.90
  -1 -10   1    1.40    2.70
   0  10  -1  169.78    8.50
   0  10  -1  162.38    6.40
   0  10  -1  164.48    6.80
   0  10  -1  172.98    7.10
   0 -10   1  172.68    7.10
   0 -10   1  170.98    8.30
   0 -10   1  169.78    6.40
   0 -10   1  170.38    8.30
   0 -10   1  164.88    7.30
  -1  10  -1    0.30    2.20
  -1  10  -1    1.60    2.30
  -1  10  -1   -1.30    2.70
  -1  10  -1    4.10    3.30
   1 -10   1   -0.30    2.60
   1 -10   1   -0.50    2.00
   1 -10   1   -0.40    2.40
   1 -10   1    3.50    3.70
   1 -10   1    1.80    2.70
  -2  10  -1    0.70    3.30
  -2  10  -1    0.60    2.40
  -2  10  -1   -0.70    2.00
  -2  10  -1    6.50    2.80
   2 -10   1    7.50    3.90
   2 -10   1    0.40    2.10
   2 -10   1   -7.00    3.10
   2 -10   1    6.30    3.10
   2 -10   1    6.40    2.60
  -3  10  -1   61.79    4.40
  -3  10  -1   61.79    5.80
  -3  10  -1   57.89    6.30
  -3  10  -1   57.49    4.20
   3 -10   1   57.89    5.70
   3 -10   1   60.89    5.00
   3 -10   1   59.59    6.00
   3 -10   1   61.59    5.20
   3 -10   1   68.79    5.40
  -4  10  -1   63.19    6.00
  -4  10  -1   74.59    7.90
  -4  10  -1   56.29    4.30
  -4  10  -1   62.59    4.60
   4 -10   1   59.89    6.70
   4 -10   1   50.89    4.70
   4 -10   1   53.39    5.90
   4 -10   1   63.69    5.10
   4 -10   1   64.69    6.80
  -5  10  -1    4.60    2.10
  -5  10  -1    1.50    3.70
  -5  10  -1    5.10    2.50
   5 -10   1    9.40    3.40
   5 -10   1   11.70    4.70
   5 -10   1    6.00    4.30
   5 -10   1    1.40    3.80
   5 -10   1    0.40    3.40
   3   9  -1   36.90    4.70
   3   9  -1   15.40    4.30
   3   9  -1   32.30    5.60
   3   9  -1   29.40    3.40
  -3  -9   1   33.90    3.40
  -3  -9   1   27.40    3.50
  -3  -9   1   31.10    4.20
  -3  -9   1   29.70    5.10
  -3  -9   1   23.00    4.90
   2   9  -1   13.80    4.10
   2   9  -1   15.70    3.40
   2   9  -1    9.20    3.40
   2   9  -1   17.50    2.70
  -2  -9   1   19.00    4.10
  -2  -9   1   24.10    3.90
  -2  -9   1   20.40    2.60
  -2  -9   1   17.30    2.90
  -2  -9   1   21.50    3.40
  -2  -9   1   22.40    3.10
   1   9  -1   80.19    6.30
   1   9  -1   74.09    4.80
   1   9  -1   73.89    4.30
   1   9  -1   83.39    5.10
  -1  -9   1   63.99    5.40
  -1  -9   1   74.19    5.90
  -1  -9   1   77.39    5.10
  -1  -9   1   71.49    4.50
  -1  -9   1   82.19    4.80
  -1  -9   1   74.99    4.70
   0   9  -1    0.60    1.90
   0   9  -1    1.40    1.80
   0   9  -1    2.60    2.00
   0  -9   1   -1.50    2.00
   0  -9   1   -0.40    1.70
   0  -9   1    1.40    2.90
   0  -9   1   -1.70    2.00
   0  -9   1    4.00    2.10
  -1   9  -1    5.50    2.40
  -1   9  -1    4.20    2.70
  -1   9  -1    4.00    1.90
  -1   9  -1    4.30    1.90
   1  -9   1    5.90    2.10
   1  -9   1    4.90    2.30
   1  -9   1    3.60    2.10
   1  -9   1    7.80    1.80
   1  -9   1    1.50    3.00
  -2   9  -1   73.79    5.60
  -2   9  -1   86.99    4.20
  -2   9  -1   84.99    4.50
  -2   9  -1   86.69    5.60
   2  -9   1   71.09    5.70
   2  -9   1   84.49    4.20
   2  -9   1   85.69    4.60
   2  -9   1   80.79    5.00
   2  -9   1   83.69    4.80
  -3   9  -1    7.60    2.40
  -3   9  -1    8.20    2.20
  -3   9  -1   10.50    2.30
  -3   9  -1    7.40    3.00
   3  -9   1   12.80    3.00
   3  -9   1    6.80    2.80
   3  -9   1    9.50    2.20
   3  -9   1   10.00    3.20
  -4   9  -1   54.59    3.70
  -4   9  -1   51.79    4.20
  -4   9  -1   52.99    5.60
  -4   9  -1   47.90    4.20
   4  -9   1   56.29    4.00
   4  -9   1   57.29    4.10
   4  -9   1   52.89    5.60
   4  -9   1   56.89    5.50
   4  -9   1   56.09    5.10
  -5   9  -1   45.50    4.70
  -5   9  -1   35.70    3.20
  -5   9  -1   43.60    3.70
  -5   9  -1   33.70    3.40
   5  -9   1   33.10    4.10
   5  -9   1   38.20    4.00
   5  -9   1   32.00    4.40
   5  -9   1   37.60    3.30
   5  -9   1   36.00    4.30
  -6   9  -1   -1.30    2.70
  -6   9  -1    3.70    3.30
  -6   9  -1    1.00    1.60
  -6   9  -1    1.10    2.10
   6  -9   1    1.40    3.10
   6  -9   1    1.40    3.60
   6  -9   1   -0.20    2.80
   6  -9   1    4.30    4.00
   6  -9   1   -0.40    2.70
   4   8  -1   -0.40    3.90
   4   8  -1    2.10    2.60
   4   8  -1   -0.60    4.50
   4   8  -1   -1.00    3.20
  -4  -8   1   -8.40    4.20
  -4  -8   1    3.30    3.30
  -4  -8   1    0.90    2.60
  -4  -8   1    0.00    2.50
  -4  -8   1  -12.50    4.40
   3   8  -1   91.19    6.90
   3   8  -1   72.29    4.60
   3   8  -1   73.79    5.90
   3   8  -1   76.29    5.30
  -3  -8   1   63.69    3.30
  -3  -8   1   73.39    5.60
  -3  -8   1   71.39    4.50
  -3  -8   1   74.99    5.30
  -3  -8   1   70.79    4.50
  -3  -8   1   67.79    6.30
   2   8  -1    8.60    3.10
   2   8  -1    5.50    1.90
   2   8  -1    4.90    2.30
   2   8  -1    5.70    2.30
  -2  -8   1    3.40    1.60
  -2  -8   1    4.90    2.10
  -2  -8   1    6.50    2.30
  -2  -8   1    7.00    2.30
  -2  -8   1    8.10    3.00
   1   8  -1  114.49    5.00
   1   8  -1  121.19    6.10
   1   8  -1  122.69    4.90
   1   8  -1  122.29    4.90
  -1  -8   1  121.69    6.00
  -1  -8   1  124.69    5.30
  -1  -8   1  122.39    5.00
  -1  -8   1  120.59    4.90
  -1  -8   1  123.49    4.70
  -1  -8   1  121.99    4.90
   0   8  -1   59.69    3.40
   0   8  -1   55.89    3.50
   0   8  -1   62.39    4.00
   0   8  -1   58.29    4.50
   0  -8   1   56.39    3.20
   0  -8   1   58.29    4.60
   0  -8   1   71.69    6.30
   0  -8   1   62.09    3.70
  -1   8  -1  436.46   11.20
  -1   8  -1  410.96   10.90
  -1   8  -1  438.56   10.00
   1  -8   1  430.36   11.40
   1  -8   1  449.76   10.50
   1  -8   1  354.66   11.10
   1  -8   1  435.06    9.70
   1  -8   1  433.36   10.30
  -2   8  -1  425.56   11.30
  -2   8  -1  429.56   10.00
  -2   8  -1  439.06   10.00
  -2   8  -1  428.56   10.60
   2  -8   1  456.65   10.10
   2  -8   1  429.06   11.50
   2  -8   1  425.86   10.60
   2  -8   1  425.36   10.30
   2  -8   1  434.96   10.80
  -3   8  -1   35.30    5.40
  -3   8  -1   32.40    2.50
  -3   8  -1   29.00    3.00
  -3   8  -1   31.70    3.00
   3  -8   1   37.00    3.80
   3  -8   1   35.60    3.50
   3  -8   1   30.60    2.90
   3  -8   1   29.20    2.80
  -4   8  -1  197.18    7.50
  -4   8  -1  200.28    6.60
  -4   8  -1  199.08    5.70
  -4   8  -1  199.58    5.80
   4  -8   1  196.58    7.30
   4  -8   1  197.78    5.90
   4  -8   1  197.78    6.20
   4  -8   1  200.28    7.40
   4  -8   1  201.68    7.40
  -5   8  -1   46.70    3.10
  -5   8  -1   46.50    4.90
  -5   8  -1   53.09    3.90
  -5   8  -1   49.70    3.00
   5  -8   1   57.99    4.40
   5  -8   1   44.90    4.70
   5  -8   1   52.39    3.70
   5  -8   1   45.70    4.80
   5  -8   1   44.50    4.60
  -6   8  -1   14.90    2.20
  -6   8  -1   13.70    1.60
  -6   8  -1   13.00    3.50
   6  -8   1    8.80    3.20
   6  -8   1   15.50    4.20
   6  -8   1   18.90    2.80
   6  -8   1   11.30    4.30
   6  -8   1   10.40    2.20
   5   7  -1   59.09    6.60
   5   7  -1   68.09    7.00
   5   7  -1   65.29    4.80
   5   7  -1   65.69    6.60
  -5  -7   1   63.29    5.50
  -5  -7   1   62.09    4.40
  -5  -7   1   65.49    5.30
  -5  -7   1   65.99    7.20
   4   7  -1   -3.30    3.50
   4   7  -1    2.20    2.90
   4   7  -1   -0.90    3.30
   4   7  -1    4.40    2.10
  -4  -7   1    2.70    2.50
  -4  -7   1    0.70    2.00
  -4  -7   1    2.10    2.00
  -4  -7   1    1.90    3.40
  -4  -7   1   -1.10    3.50
   3   7  -1   72.29    4.50
   3   7  -1   73.09    5.70
   3   7  -1   70.09    3.90
   3   7  -1   71.49    5.40
  -3  -7   1   70.09    4.60
  -3  -7   1   56.19    5.10
  -3  -7   1   73.59    4.60
  -3  -7   1   73.59    5.30
  -3  -7   1   64.59    2.70
  -3  -7   1   68.39    3.80
   2   7  -1   -0.70    1.50
   2   7  -1    1.40    1.80
   2   7  -1    2.20    2.30
   2   7  -1   -0.40    2.20
  -2  -7   1   -0.50    1.50
  -2  -7   1   -1.30    2.80
  -2  -7   1    0.10    2.80
  -2  -7   1    0.30    1.30
  -2  -7   1   -0.60    1.70
   1   7  -1   13.60    1.90
   1   7  -1   10.20    1.90
   1   7  -1   10.50    1.80
   1   7  -1    9.10    2.50
  -1  -7   1   13.00    1.80
  -1  -7   1    9.30    2.40
  -1  -7   1    7.90    1.90
  -1  -7   1   12.10    1.80
   0   7  -1   33.80    2.50
   0   7  -1   31.10    2.80
   0   7  -1   34.30    2.50
   0   7  -1   33.80    3.40
   0  -7   1   29.70    2.60
   0  -7   1   29.90    2.60
   0  -7   1   29.90    2.70
   0  -7   1   36.70    3.50
   0  -7   1   31.30    2.30
  -1   7  -1    2.50    1.20
  -1   7  -1    4.30    1.90
  -1   7  -1    3.70    1.60
  -1   7  -1    3.90    1.30
   1  -7   1    4.10    1.90
   1  -7   1    6.60    1.60
   1  -7   1    2.90    1.50
   1  -7   1    4.60    1.40
   1  -7   1    5.10    1.30
  -2   7  -1  600.74   12.90
  -2   7  -1  600.84   12.40
  -2   7  -1  607.74   13.70
  -2   7  -1  588.74   12.50
   2  -7   1  602.54   12.80
   2  -7   1  579.04   13.70
   2  -7   1  594.04   13.00
   2  -7   1  598.84   12.50
   2  -7   1  598.04   13.20
  -3   7  -1    8.90    2.10
  -3   7  -1    8.60    1.40
  -3   7  -1    8.20    2.00
  -3   7  -1   10.00    1.50
   3  -7   1    8.10    1.40
   3  -7   1    8.10    2.00
   3  -7   1    8.90    1.90
   3  -7   1    7.60    1.70
   3  -7   1    7.20    1.70
  -4   7  -1    0.90    1.80
  -4   7  -1    2.40    1.30
   4  -7   1    1.70    1.30
   4  -7   1    1.20    2.00
   4  -7   1    2.50    1.50
   4  -7   1    6.10    2.40
   4  -7   1    6.20    1.90
  -5   7  -1    0.90    1.70
  -5   7  -1    3.10    1.20
  -5   7  -1    3.50    1.30
  -5   7  -1    0.70    2.70
   5  -7   1    3.40    2.70
   5  -7   1    0.40    2.80
   5  -7   1   -0.80    1.40
   5  -7   1    0.60    1.60
  -6   7  -1  110.69    6.00
  -6   7  -1  107.39    3.70
  -6   7  -1  104.69    3.20
   6  -7   1  106.39    6.10
   6  -7   1  100.49    3.50
   6  -7   1  107.49    5.60
   6  -7   1  104.89    5.50
   6  -7   1  100.29    6.10
  -7   7  -1   -3.00    2.30
  -7   7  -1    3.60    3.40
   7  -7   1    7.70    4.60
   7  -7   1    1.70    3.40
   7  -7   1    3.80    4.00
   7  -7   1   -1.90    2.40
   5   6  -1   -1.10    1.90
   5   6  -1    1.40    3.40
   5   6  -1    2.20    3.70
   5   6  -1   -4.30    2.80
  -5  -6   1   -6.20    3.10
  -5  -6   1    2.40    3.50
  -5  -6   1    1.10    2.00
   4   6  -1   27.70    3.40
   4   6  -1   33.50    4.00
   4   6  -1   32.70    3.10
   4   6  -1   31.90    3.20
  -4  -6   1   40.20    3.10
  -4  -6   1   31.90    2.80
  -4  -6   1   40.50    4.00
  -4  -6   1   36.70    3.60
  -4  -6   1   34.40    3.50
   3   6  -1  209.08    7.10
   3   6  -1  226.08    7.70
   3   6  -1  224.68    6.20
   3   6  -1  221.08    6.60
  -3  -6   1  213.48    6.10
  -3  -6   1  207.58    7.30
  -3  -6   1  220.38    6.70
  -3  -6   1  232.28    6.80
  -3  -6   1  221.58    6.10
  -3  -6   1  217.28    4.80
   2   6  -1  115.59    4.20
   2   6  -1  128.29    4.60
   2   6  -1  116.29    4.40
   2   6  -1  115.59    5.30
  -2  -6   1  115.59    4.30
  -2  -6   1  120.59    5.10
  -2  -6   1  118.79    4.10
  -2  -6   1  125.99    4.50
  -2  -6   1  120.19    4.30
  -2  -6   1  115.39    3.40
   1   6  -1 1012.40   20.00
   1   6  -1 1017.80   19.80
   1   6  -1 1001.50   21.00
   1   6  -1 1026.60   19.90
  -1  -6   1 1002.60   19.80
  -1  -6   1 1015.50   20.90
  -1  -6   1 1006.70   19.80
  -1  -6   1 1000.90   20.10
  -1  -6   1 1012.90   19.90
   0   6  -1    1.60    1.00
   0   6  -1    1.60    1.00
   0   6  -1    2.10    1.50
   0   6  -1    1.60    1.00
   0  -6   1    0.00    1.50
   0  -6   1    2.40    1.10
   0  -6   1    2.40    0.90
   0  -6   1    1.80    1.10
   0  -6   1    3.30    1.20
  -1   6  -1    0.70    0.90
  -1   6  -1    0.60    0.90
  -1   6  -1    1.30    1.20
  -1   6  -1    1.90    1.40
   1  -6   1    1.10    1.00
   1  -6   1    2.30    0.90
   1  -6   1    0.70    1.40
   1  -6   1    1.80    1.10
   1  -6   1    0.20    1.00
  -2   6  -1   -0.10    0.80
  -2   6  -1    0.20    1.00
  -2   6  -1    0.90    0.80
  -2   6  -1    1.10    1.30
   2  -6   1    0.30    0.80
   2  -6   1    0.50    1.40
   2  -6   1   -0.40    0.90
   2  -6   1    1.90    1.20
   2  -6   1    1.60    1.20
  -3   6  -1  837.42   16.50
  -3   6  -1  842.12   17.10
  -3   6  -1  849.91   17.90
   3  -6   1  845.32   17.70
   3  -6   1  868.31   17.40
   3  -6   1  872.21   16.80
   3  -6   1  842.22   17.60
   3  -6   1  839.42   16.70
  -4   6  -1   69.39    2.90
  -4   6  -1   68.19    2.60
  -4   6  -1   67.39    3.90
  -4   6  -1   70.09    3.40
   4  -6   1   65.09    3.70
   4  -6   1   70.09    3.60
   4  -6   1   66.09    2.80
   4  -6   1   65.89    4.20
   4  -6   1   72.09    3.20
  -5   6  -1  428.56    8.70
  -5   6  -1  399.76   10.60
  -5   6  -1  414.36    9.10
  -5   6  -1  422.56    9.40
   5  -6   1  412.16    9.70
   5  -6   1  400.76   10.10
   5  -6   1  416.66   10.70
   5  -6   1  406.76    8.70
   5  -6   1  404.06   10.60
  -6   6  -1    9.40    2.80
  -6   6  -1   15.30    1.60
  -6   6  -1   12.30    2.10
  -6   6  -1   10.80    1.30
   6  -6   1   10.20    2.40
   6  -6   1   14.50    2.80
   6  -6   1   11.00    3.30
   6  -6   1   14.40    2.80
  -7   6  -1    2.70    3.20
  -7   6  -1    3.80    2.00
   7  -6   1    1.70    2.90
   7  -6   1    5.10    3.60
   7  -6   1    1.00    3.80
   7  -6   1    4.70    3.20
   6   5  -1   -0.40    3.30
   6   5  -1    7.10    3.60
   6   5  -1    0.50    2.30
   6   5  -1   -1.60    3.20
  -6  -5   1   -0.90    3.80
  -6  -5   1    3.90    3.10
  -6  -5   1   10.60    4.10
  -6  -5   1    3.00    2.40
  -6  -5   1    0.80    2.20
   5   5  -1  137.59    7.20
   5   5  -1  131.39    6.20
   5   5  -1  133.49    6.70
   5   5  -1  145.79    5.40
  -5  -5   1  141.39    5.90
  -5  -5   1  135.39    4.90
  -5  -5   1  135.89    4.80
  -5  -5   1  130.39    5.70
  -5  -5   1  146.59    7.30
   4   5  -1  215.88    6.70
   4   5  -1  205.18    7.00
   4   5  -1  211.88    7.40
   4   5  -1  230.98    6.30
  -4  -5   1  215.58    7.40
  -4  -5   1  210.98    6.00
  -4  -5   1  214.88    5.80
  -4  -5   1  221.48    6.80
  -4  -5   1  227.68    6.90
   3   5  -1   65.29    2.80
   3   5  -1   62.09    4.00
   3   5  -1   62.69    3.40
   3   5  -1   64.99    3.30
  -3  -5   1   65.19    3.40
  -3  -5   1   64.49    3.20
  -3  -5   1   62.79    3.40
  -3  -5   1   64.09    2.90
  -3  -5   1   66.29    3.90
  -3  -5   1   63.99    1.90
   2   5  -1    8.60    1.90
   2   5  -1    8.70    1.30
   2   5  -1    9.90    1.30
   2   5  -1    8.70    1.40
  -2  -5   1   10.00    1.00
  -2  -5   1    8.90    1.60
  -2  -5   1    9.00    1.30
  -2  -5   1   12.20    1.50
  -2  -5   1   12.00    1.90
  -2  -5   1   10.40    1.30
   1   5  -1  132.49    3.90
   1   5  -1  150.88    4.10
   1   5  -1  135.49    4.70
   1   5  -1  134.09    3.90
   1   5  -1  132.49    3.80
  -1  -5   1  131.09    4.00
  -1  -5   1  133.69    3.90
  -1  -5   1  130.59    4.50
  -1  -5   1  124.49    3.80
  -1  -5   1  128.59    3.70
   0   5  -1   -0.90    0.80
   0   5  -1    0.00    1.30
   0   5  -1    1.30    0.80
   0   5  -1    0.00    0.80
   0   5  -1    1.30    0.80
   0  -5   1   -0.60    0.80
   0  -5   1   -0.20    0.60
   0  -5   1   -0.90    0.70
   0  -5   1   -1.10    0.80
   0  -5   1   -0.50    1.20
  -1   5  -1  311.97    6.90
  -1   5  -1  314.57    6.90
  -1   5  -1  318.07    7.00
  -1   5  -1  304.17    7.60
  -1   5  -1  316.57    6.90
   1  -5   1  317.37    6.90
   1  -5   1  325.77    7.10
   1  -5   1  313.67    7.10
   1  -5   1  314.77    7.80
   1  -5   1  316.17    7.20
  -2   5  -1   37.00    2.30
  -2   5  -1   34.60    2.40
  -2   5  -1   35.50    1.80
   2  -5   1   34.90    2.20
   2  -5   1   33.90    1.80
   2  -5   1   38.00    1.80
   2  -5   1   36.30    2.40
   2  -5   1   34.60    2.10
  -3   5  -1  489.85   10.00
  -3   5  -1  498.45   10.60
  -3   5  -1  476.65   11.10
  -3   5  -1  496.75   10.30
   3  -5   1  501.55   10.10
   3  -5   1  502.95   10.40
   3  -5   1  497.85   11.00
   3  -5   1  490.25   10.70
   3  -5   1  499.25   10.90
  -4   5  -1  603.54   11.90
  -4   5  -1  610.44   12.50
  -4   5  -1  600.64   13.40
  -4   5  -1  612.84   12.50
   4  -5   1  599.74   13.00
   4  -5   1  616.94   12.70
   4  -5   1  603.54   13.10
   4  -5   1  593.94   13.30
   4  -5   1  595.04   11.80
  -5   5  -1  102.59    3.60
  -5   5  -1  107.99    4.70
  -5   5  -1  111.09    3.10
   5  -5   1  109.69    4.70
   5  -5   1  110.09    4.10
   5  -5   1  115.19    4.80
   5  -5   1  114.39    4.40
   5  -5   1  106.39    2.70
  -6   5  -1   67.39    3.60
  -6   5  -1   63.19    2.20
  -6   5  -1   62.09    2.00
  -6   5  -1   66.59    4.80
   6  -5   1   65.29    4.60
   6  -5   1   67.09    4.00
  -7   5  -1   31.30    3.00
  -7   5  -1   27.60    3.60
   7  -5   1   32.80    3.90
   7  -5   1   25.90    4.40
   7  -5   1   26.90    3.70
   7  -5   1   33.50    4.00
   7  -5   1   32.90    3.60
   6   4  -1  222.78    8.70
   6   4  -1  198.28    8.40
   6   4  -1  205.68    6.80
   6   4  -1  198.88    8.80
  -6  -4   1  193.88    6.10
  -6  -4   1  212.88    7.10
  -6  -4   1  205.28    6.20
  -6  -4   1  192.38    5.40
   5   4  -1    3.70    2.80
   5   4  -1   -0.40    1.90
   5   4  -1    0.70    2.20
  -5  -4   1   -1.30    1.80
  -5  -4   1   -1.70    1.30
  -5  -4   1   -0.20    1.30
  -5  -4   1   -1.40    1.90
  -5  -4   1   -4.00    1.50
   4   4  -1  192.18    5.20
   4   4  -1  191.68    5.70
   4   4  -1  189.08    6.30
  -4  -4   1  201.48    6.40
  -4  -4   1  180.28    6.00
  -4  -4   1  194.38    5.80
  -4  -4   1  188.98    5.00
   3   4  -1   99.59    3.90
   3   4  -1  110.09    3.70
   3   4  -1  103.99    3.30
   3   4  -1  103.29    4.20
  -3  -4   1  106.99    3.70
  -3  -4   1   99.09    3.60
  -3  -4   1  109.69    3.40
  -3  -4   1  110.29    3.30
  -3  -4   1  109.49    4.20
  -3  -4   1  103.99    2.10
   2   4  -1 1041.70   20.40
   2   4  -1 1097.19   20.70
   2   4  -1 1100.09   21.60
   2   4  -1 1073.79   20.90
   2   4  -1 1122.49   20.70
  -2  -4   1 1087.19   21.40
  -2  -4   1 1064.79   19.80
  -2  -4   1 1072.79   20.60
  -2  -4   1 1072.59   20.60
  -2  -4   1 1072.29   20.80
  -2  -4   1 1112.29   20.80
   1   4  -1  130.09    3.40
   1   4  -1  126.09    3.50
   1   4  -1  132.09    3.60
   1   4  -1  135.99    3.60
   1   4  -1  130.19    4.20
  -1  -4   1  128.39    3.50
  -1  -4   1  126.29    3.60
  -1  -4   1  122.49    3.40
  -1  -4   1  127.39    3.50
  -1  -4   1  122.19    4.00
   0   4  -1  751.72   14.40
   0   4  -1  763.32   14.40
   0   4  -1  748.43   15.00
   0   4  -1  746.33   14.40
   0   4  -1  744.13   14.30
   0  -4   1  736.73   14.40
   0  -4   1  768.52   15.20
   0  -4   1  745.13   14.30
   0  -4   1  734.13   14.50
   0  -4   1  732.33   14.40
  -1   4  -1 1428.86   27.00
  -1   4  -1 1434.46   27.50
  -1   4  -1 1470.55   27.00
  -1   4  -1 1483.35   27.10
  -1   4  -1 1461.85   27.00
   1  -4   1 1474.75   27.70
   1  -4   1 1465.25   27.10
   1  -4   1 1475.45   27.20
   1  -4   1 1482.45   27.20
   1  -4   1 1468.25   26.90
  -2   4  -1    3.40    0.80
  -2   4  -1    5.10    0.80
  -2   4  -1    3.90    1.10
  -2   4  -1    4.50    0.90
   2  -4   1    8.70    1.00
   2  -4   1    5.00    1.00
   2  -4   1    5.40    0.80
   2  -4   1    5.20    1.00
   2  -4   1    5.10    1.00
  -3   4  -1 1034.30   19.40
  -3   4  -1 1042.00   20.50
  -3   4  -1 1021.20   19.90
  -3   4  -1 1043.20   19.80
   3  -4   1 1054.69   20.40
   3  -4   1 1040.50   20.20
   3  -4   1 1010.00   19.30
   3  -4   1 1033.90   19.80
   3  -4   1 1054.99   20.10
  -4   4  -1   10.80    1.70
  -4   4  -1   10.90    1.30
  -4   4  -1   13.10    1.30
  -4   4  -1   13.40    1.30
   4  -4   1   13.20    1.50
   4  -4   1   11.40    1.50
   4  -4   1   13.40    1.70
   4  -4   1   12.90    1.10
   4  -4   1   13.40    1.90
  -5   4  -1    5.50    1.00
  -5   4  -1    4.50    0.80
  -5   4  -1    4.30    1.90
   5  -4   1    5.80    1.80
   5  -4   1    3.50    1.50
   5  -4   1    5.60    1.80
   5  -4   1    4.10    1.90
  -6   4  -1   -0.40    1.30
  -6   4  -1   -1.00    0.60
  -6   4  -1    0.20    0.70
  -6   4  -1    0.90    1.80
   6  -4   1    3.70    2.00
   6  -4   1    1.30    2.10
   6  -4   1    0.50    1.70
   6  -4   1   -0.20    1.70
  -7   4  -1  109.59    5.30
  -7   4  -1  119.69    5.40
   7  -4   1  117.09    6.50
   7  -4   1  111.19    6.20
   7  -4   1  106.09    5.30
   7  -4   1  119.49    7.10
   7  -4   1  120.09    5.90
   7   3  -1   47.40    5.20
   7   3  -1   52.49    5.30
   7   3  -1   44.70    5.40
   7   3  -1   48.00    4.70
  -7  -3   1   37.10    3.40
   6   3  -1   11.10    2.90
   6   3  -1    8.10    2.00
   6   3  -1    9.00    2.50
   6   3  -1    6.50    2.40
  -6  -3   1   10.00    2.10
  -6  -3   1   14.10    2.90
  -6  -3   1    6.60    1.30
  -6  -3   1    9.50    1.80
  -6  -3   1    6.10    1.60
   5   3  -1    0.50    1.70
   5   3  -1   -1.90    1.60
   5   3  -1    0.50    1.30
   5   3  -1   -1.00    1.40
  -5  -3   1   -0.20    1.40
  -5  -3   1    0.00    1.10
  -5  -3   1    1.20    1.20
  -5  -3   1    0.40    1.40
  -5  -3   1   -0.20    1.20
   4   3  -1  207.98    5.30
   4   3  -1  203.18    5.90
   4   3  -1  201.58    6.10
   4   3  -1  204.18    5.80
  -4  -3   1  202.18    6.00
  -4  -3   1  199.78    5.50
  -4  -3   1  203.88    5.50
  -4  -3   1  202.38    5.20
  -4  -3   1  208.18    5.00
   3   3  -1    0.60    1.20
   3   3  -1    1.00    1.00
   3   3  -1    0.90    0.90
   3   3  -1    0.30    0.60
   3   3  -1   -0.20    1.00
  -3  -3   1    0.40    0.80
  -3  -3   1   -1.00    0.90
  -3  -3   1    1.20    0.80
  -3  -3   1    1.40    0.90
  -3  -3   1    2.50    1.00
   2   3  -1  156.88    3.80
   2   3  -1  161.78    4.00
   2   3  -1  160.18    4.20
   2   3  -1  161.18    3.90
   2   3  -1  157.48    4.50
  -2  -3   1  160.28    3.90
  -2  -3   1  152.18    4.40
  -2  -3   1  159.48    4.00
  -2  -3   1  156.38    4.10
  -2  -3   1  154.28    3.20
  -2  -3   1  161.68    3.90
   1   3  -1 2516.15   45.40
  -1  -3   1 2431.16   45.30
   0   3  -1  120.29    2.90
   0   3  -1  118.29    2.90
   0   3  -1  113.09    3.30
   0   3  -1  114.39    2.80
   0   3  -1  120.59    2.90
   0  -3   1  120.99    3.00
   0  -3   1  119.69    2.90
   0  -3   1  116.69    3.40
   0  -3   1  118.59    3.00
   0  -3   1  118.49    2.90
  -1   3  -1  402.36    7.90
  -1   3  -1  394.76    7.90
  -1   3  -1  390.56    8.20
  -1   3  -1  393.46    7.70
  -1   3  -1  394.26    7.80
   1  -3   1  399.16    8.00
   1  -3   1  390.36    7.80
   1  -3   1  394.16    8.20
   1  -3   1  395.56    8.00
   1  -3   1  391.96    7.80
  -2   3  -1    5.20    0.70
  -2   3  -1    3.30    0.90
  -2   3  -1    3.20    0.70
  -2   3  -1    3.70    0.90
  -2   3  -1    4.60    0.50
   2  -3   1    2.60    0.80
   2  -3   1    3.30    0.70
   2  -3   1    3.90    0.80
   2  -3   1    3.90    0.90
   2  -3   1    3.60    0.60
  -3   3  -1  180.48    4.40
  -3   3  -1  177.78    4.10
  -3   3  -1  174.48    4.90
  -3   3  -1  176.08    4.50
   3  -3   1  178.98    3.70
   3  -3   1  177.68    4.70
   3  -3   1  175.88    4.80
   3  -3   1  173.78    4.80
   3  -3   1  177.78    4.50
  -4   3  -1  149.59    4.80
  -4   3  -1  153.18    3.70
  -4   3  -1  150.38    3.90
   4  -3   1  148.79    4.70
   4  -3   1  148.99    4.50
   4  -3   1  153.78    4.40
   4  -3   1  148.79    4.60
  -5   3  -1  698.13   13.10
  -5   3  -1  677.93   15.00
  -5   3  -1  690.13   14.60
  -5   3  -1  686.23   13.00
   5  -3   1  583.14   15.60
   5  -3   1  712.33   14.70
   5  -3   1  689.83   14.50
   5  -3   1  697.03   14.70
  -6   3  -1  146.89    5.30
  -6   3  -1  146.29    3.30
  -6   3  -1  145.99    3.20
  -6   3  -1  147.49    5.20
   6  -3   1  146.79    5.40
   6  -3   1  151.38    5.40
   6  -3   1  145.79    5.80
   6  -3   1  146.69    5.80
   6  -3   1  152.38    5.40
  -7   3  -1   12.80    3.00
  -7   3  -1   23.60    2.70
   7  -3   1   18.20    3.20
   7  -3   1   18.00    3.80
   7  -3   1   20.70    3.10
   7  -3   1   20.10    3.50
   7  -3   1   22.10    3.00
   7   2  -1   -2.10    3.70
   7   2  -1   -0.60    3.50
   7   2  -1   -2.60    2.20
   7   2  -1    2.10    2.20
  -7  -2   1   -4.50    3.00
  -7  -2   1   -1.40    1.90
   6   2  -1   -0.70    2.00
   6   2  -1   -0.70    2.20
   6   2  -1    2.40    1.70
  -6  -2   1    0.80    2.00
  -6  -2   1   -0.50    1.50
  -6  -2   1    3.10    1.60
   5   2  -1   30.40    1.00
   5   2  -1   31.70    3.10
   5   2  -1   31.50    2.90
   5   2  -1   30.90    2.50
  -5  -2   1   31.20    2.30
  -5  -2   1   33.30    2.30
  -5  -2   1   32.10    2.20
  -5  -2   1   25.70    2.80
  -5  -2   1   32.70    1.70
   4   2  -1  980.70   19.00
   4   2  -1  996.70   19.50
   4   2  -1  941.31   17.50
   4   2  -1  990.00   19.30
   4   2  -1  973.40   18.90
  -4  -2   1  967.30   18.20
  -4  -2   1  984.90   18.70
  -4  -2   1  967.60   18.70
  -4  -2   1  955.70   18.60
   3   2  -1  629.44   12.40
   3   2  -1  604.84   12.30
   3   2  -1  606.84   12.00
   3   2  -1  603.84   11.70
   3   2  -1  606.64   12.00
  -3  -2   1  614.74   12.00
  -3  -2   1  592.44   11.60
  -3  -2   1  601.54   11.90
  -3  -2   1  607.34   12.00
   2   2  -1 4201.08   82.29
  -2  -2   1 4620.24   84.19
   1   2  -1 1123.79   20.20
   1   2  -1 1106.79   20.40
   1   2  -1 1095.19   20.30
   1   2  -1 1145.39   20.30
   1   2  -1 1112.99   20.70
  -1  -2   1 1105.49   20.40
  -1  -2   1 1113.39   20.60
  -1  -2   1 1082.89   20.30
  -1  -2   1 1109.69   20.20
  -1  -2   1 1090.59   20.30
   0   2  -1    1.50    0.40
   0   2  -1    1.50    0.40
   0   2  -1    2.60    0.40
   0   2  -1    1.10    0.50
   0   2  -1    1.20    0.40
   0  -2   1    0.50    0.50
   0  -2   1    1.00    0.40
   0  -2   1    1.80    0.40
   0  -2   1    1.60    0.40
   0  -2   1    1.90    0.40
   1  -2   1 1573.74   28.50
   1  -2   1 1556.34   28.60
  -2   2  -1 1440.36   27.00
  -2   2  -1 1496.15   27.20
  -2   2  -1 1483.95   27.40
  -2   2  -1 1435.66   26.80
   2  -2   1 1478.55   27.10
   2  -2   1 1474.05   27.10
   2  -2   1 1502.55   27.40
   2  -2   1 1466.25   27.30
  -3   2  -1  183.58    4.20
  -3   2  -1  178.08    4.30
  -3   2  -1  175.28    4.60
  -3   2  -1  175.78    4.90
   3  -2   1  186.68    4.80
   3  -2   1  180.18    4.80
   3  -2   1  186.88    4.80
   3  -2   1  182.58    4.60
  -4   2  -1  290.07    6.20
  -4   2  -1  290.67    7.20
  -4   2  -1  283.37    6.20
   4  -2   1  284.07    7.10
   4  -2   1  288.67    7.00
   4  -2   1  302.47    7.00
   4  -2   1  284.67    7.10
  -5   2  -1  350.26    7.10
  -5   2  -1  345.27    8.40
  -5   2  -1  352.16    7.20
   5  -2   1  353.96    8.70
   5  -2   1  285.07    9.20
   5  -2   1  354.26    8.50
   5  -2   1  345.17    8.20
   5  -2   1  344.57    8.60
  -6   2  -1   -1.50    1.50
  -6   2  -1    1.30    0.70
  -6   2  -1    0.20    1.80
  -6   2  -1    0.00    0.70
   6  -2   1   -0.60    2.30
   6  -2   1   -4.30    1.80
   6  -2   1   -0.40    1.60
   6  -2   1    0.60    1.90
   6  -2   1    3.20    2.30
  -7   2  -1   80.99    5.40
  -7   2  -1   83.19    4.30
   7  -2   1   72.29    5.10
   7  -2   1   78.89    5.40
   7  -2   1   86.89    5.10
   7  -2   1   85.69    6.00
   7  -2   1   76.29    5.90
   7   1  -1    3.20    2.80
   7   1  -1   11.20    3.50
   7   1  -1    6.70    2.70
   7   1  -1    6.00    1.20
   7   1  -1    4.90    3.20
  -7  -1   1    5.00    1.80
  -7  -1   1    7.80    3.20
   6   1  -1   74.59    4.20
   6   1  -1   67.99    3.90
   6   1  -1   74.09    2.60
   6   1  -1   69.79    4.40
   6   1  -1   73.49    4.70
  -6  -1   1   69.19    4.50
  -6  -1   1   70.69    3.20
   5   1  -1   32.70    2.50
   5   1  -1   33.30    1.60
   5   1  -1   34.10    2.70
   5   1  -1   27.60    2.50
   5   1  -1   31.60    2.80
  -5  -1   1   32.60    1.90
  -5  -1   1   33.80    3.00
  -5  -1   1   33.00    1.30
  -5  -1   1   32.50    1.20
  -5  -1   1   30.40    1.90
   4   1  -1   58.39    2.60
   4   1  -1   56.29    2.50
   4   1  -1   58.89    1.80
   4   1  -1   59.29    2.70
   4   1  -1   57.09    2.40
  -4  -1   1   57.79    2.30
  -4  -1   1   57.89    2.10
  -4  -1   1   54.09    2.90
  -4  -1   1   58.09    2.00
  -4  -1   1   60.39    1.80
   3   1  -1   76.59    2.00
   3   1  -1   77.89    2.40
   3   1  -1   76.99    2.60
   3   1  -1   77.49    2.50
   3   1  -1   76.49    1.90
   3   1  -1   79.59    2.50
  -3  -1   1   80.19    2.20
  -3  -1   1   77.19    2.00
  -3  -1   1   73.69    2.20
  -3  -1   1   77.29    2.30
  -3  -1   1   82.39    2.80
   2   1  -1    3.20    0.40
   2   1  -1    3.20    0.50
   2   1  -1    3.80    0.50
   2   1  -1    3.80    0.50
   2   1  -1    3.30    0.60
   2   1  -1    2.80    0.40
  -2  -1   1    3.20    0.50
  -2  -1   1    3.70    0.40
  -2  -1   1    4.00    0.50
  -2  -1   1    3.60    0.50
   1   1  -1    2.10    0.30
   1   1  -1    1.30    0.30
   1   1  -1    1.40    0.30
   1   1  -1    1.30    0.30
  -1  -1   1    1.50    0.30
  -1  -1   1    1.90    0.30
  -1  -1   1    1.40    0.30
   0   1  -1  290.07    5.50
   0   1  -1  279.57    5.30
   0   1  -1  276.07    5.30
   0   1  -1  277.37    5.30
   0   1  -1  278.17    5.30
   0  -1   1  285.57    5.20
   0  -1   1  284.97    5.30
   0  -1   1  277.77    5.30
   0  -1   1  278.07    5.30
   0  -1   1  257.77    5.30
  -1   1  -1  895.81   16.70
  -1   1  -1  897.11   16.60
  -1   1  -1  908.01   16.60
  -1   1  -1  908.91   16.80
   1  -1   1  903.21   16.80
   1  -1   1  908.01   16.70
   1  -1   1  921.31   16.80
   1  -1   1  903.01   16.60
  -2   1  -1  886.51   16.80
  -2   1  -1  919.71   16.80
  -2   1  -1  892.81   17.10
  -2   1  -1  880.81   17.10
   2  -1   1  914.41   17.10
   2  -1   1  915.51   16.90
   2  -1   1  906.81   17.10
   2  -1   1  881.41   17.00
  -3   1  -1  653.53   13.10
  -3   1  -1  646.14   12.60
  -3   1  -1  640.54   13.10
  -3   1  -1  654.43   12.40
   3  -1   1  656.33   13.20
   3  -1   1  651.33   13.10
   3  -1   1  650.53   12.70
   3  -1   1  641.84   12.80
   3  -1   1  641.24   13.00
  -4   1  -1  792.72   15.40
  -4   1  -1  815.92   16.30
  -4   1  -1  803.32   15.60
   4  -1   1  810.12   16.40
   4  -1   1  817.92   16.00
   4  -1   1  818.12   16.50
   4  -1   1  815.52   16.30
   4  -1   1  818.22   16.60
  -5   1  -1  106.99    4.00
  -5   1  -1  111.59    3.30
  -5   1  -1  108.69    3.10
   5  -1   1  103.99    3.90
   5  -1   1  101.79    4.10
   5  -1   1  101.09    4.70
   5  -1   1  110.19    4.50
  -6   1  -1    2.50    0.90
  -6   1  -1    2.40    1.50
  -6   1  -1    3.70    1.00
  -6   1  -1    4.00    2.20
   6  -1   1    4.50    2.40
   6  -1   1    3.00    2.10
   6  -1   1    2.70    1.70
   6  -1   1    2.50    2.30
  -7   1  -1   26.00    2.80
  -7   1  -1   23.70    3.20
   7  -1   1   17.10    3.20
   7  -1   1   18.90    3.40
   7  -1   1   17.40    3.60
   7  -1   1   25.00    3.10
   7  -1   1   23.00    2.90
   7   0  -1  150.38    6.80
   7   0  -1  136.99    4.70
   7   0  -1  141.49    6.60
   7   0  -1  153.38    6.00
  -7   0   1  142.79    4.70
  -7   0   1  136.69    6.00
   6   0  -1  172.38    6.10
   6   0  -1  164.58    5.70
   6   0  -1  163.68    4.80
   6   0  -1  166.18    5.40
   6   0  -1  169.68    5.80
  -6   0   1  174.38    5.80
  -6   0   1  163.78    4.70
   5   0  -1   23.00    2.20
   5   0  -1   26.80    2.10
   5   0  -1   28.20    2.50
   5   0  -1   27.40    2.20
   5   0  -1   26.60    2.60
  -5   0   1   27.60    2.30
  -5   0   1   29.20    2.00
   4   0  -1  470.25    9.60
   4   0  -1  477.95    9.70
   4   0  -1  463.65    9.40
   4   0  -1  466.35   10.00
  -4   0   1  461.25    9.90
  -4   0   1  460.05    8.90
  -4   0   1  462.05    9.50
   3   0  -1  541.55   10.70
   3   0  -1  560.24   10.80
   3   0  -1  561.84   10.50
   3   0  -1  557.64   10.90
   3   0  -1  543.95   10.00
  -3   0   1  526.05    9.90
  -3   0   1  539.75   10.30
  -3   0   1  558.04   10.60
  -3   0   1  542.95   10.80
  -3   0   1  527.45    9.90
   2   0  -1  351.46    6.90
   2   0  -1  362.66    6.80
   2   0  -1  352.36    6.70
   2   0  -1  361.46    7.00
   2   0  -1  363.16    7.10
  -2   0   1  360.96    6.90
  -2   0   1  356.96    7.00
  -2   0   1  360.96    6.80
  -1   0  -1  816.42   15.00
  -1   0  -1  829.12   15.30
  -1   0  -1  808.42   15.00
  -1   0  -1  816.52   15.20
  -1   0  -1  813.32   15.20
   1   0   1  835.12   15.30
   1   0   1  820.42   15.10
   1   0   1  800.22   15.00
   1   0   1  831.72   15.20
   1   0   1  813.92   15.20
  -2   0  -1 2060.19   37.70
  -2   0  -1 2086.49   37.60
  -2   0  -1 2028.70   37.80
   2   0   1 2041.60   37.80
   2   0   1 2048.90   37.80
   2   0   1 2120.99   37.60
  -3   0  -1   35.40    1.10
  -3   0  -1   38.00    2.20
  -3   0  -1   37.10    1.80
  -3   0  -1   33.90    1.90
  -3   0  -1   35.10    1.60
   3   0   1   36.40    2.00
   3   0   1   31.50    2.20
   3   0   1   36.40    1.70
   3   0   1   35.60    2.00
   3   0   1   36.20    1.90
  -4   0  -1   34.80    2.40
  -4   0  -1   34.50    2.10
  -4   0  -1   30.90    2.60
  -4   0  -1   34.80    1.70
  -4   0  -1   31.00    1.20
   4   0   1   30.40    2.40
   4   0   1   28.60    2.10
   4   0   1   32.30    1.70
   4   0   1   36.60    2.50
   4   0   1   33.80    2.60
  -5   0  -1  418.96    9.10
  -5   0  -1  422.46    8.60
  -5   0  -1  415.76    7.80
  -5   0  -1  420.26    9.60
   5   0   1  417.26    9.90
   5   0   1  410.06    9.90
   5   0   1  411.96   10.30
   5   0   1  436.16   10.10
   5   0   1  419.16    9.10
  -6   0  -1   26.20    2.50
  -6   0  -1   30.00    1.90
  -6   0  -1   26.80    2.20
   6   0   1   26.80    2.90
   6   0   1   38.30    3.80
   6   0   1   26.40    3.10
   6   0   1   29.00    2.60
  -7   0  -1    6.00    2.80
  -7   0  -1    0.70    2.20
   7   0   1    0.60    2.50
   7   0   1   -0.50    2.90
   7   0   1    1.70    3.70
   7   0   1    0.20    1.80
   8  -1  -1    5.10    3.00
   8  -1  -1   -2.80    2.90
   8  -1  -1    1.80    4.10
   8  -1  -1   -1.30    3.70
   8  -1  -1    7.00    2.80
  -8   1   1    1.00    2.40
  -8   1   1    1.50    1.70
   7  -1  -1   73.69    4.40
   7  -1  -1   58.49    5.70
   7  -1  -1   69.39    6.00
   7  -1  -1   75.89    5.00
   7  -1  -1   77.49    4.10
  -7   1   1   66.29    4.30
  -7   1   1   69.69    3.60
   6  -1  -1   82.49    4.20
   6  -1  -1   86.39    3.70
   6  -1  -1   82.49    3.50
   6  -1  -1   78.29    4.10
  -6   1   1   82.69    3.30
  -6   1   1   82.99    3.80
   5  -1  -1  217.18    5.70
   5  -1  -1  216.88    5.60
   5  -1  -1  210.38    5.90
   5  -1  -1  215.18    5.90
  -5   1   1  207.48    5.30
  -5   1   1  217.58    5.70
   4  -1  -1  320.77    7.10
   4  -1  -1  315.27    7.00
   4  -1  -1  317.77    7.00
   4  -1  -1  312.17    6.90
  -4   1   1  305.67    6.80
  -4   1   1  311.67    7.00
   3  -1  -1   56.89    1.80
   3  -1  -1   58.89    1.30
   3  -1  -1   55.19    2.00
   3  -1  -1   58.39    2.00
   3  -1  -1   60.79    2.00
  -3   1   1   54.89    1.90
  -3   1   1   54.99    2.00
   2  -1  -1 1134.69   20.30
   2  -1  -1 1088.79   20.30
   2  -1  -1 1109.19   20.10
  -2   1   1 1110.59   20.20
  -2   1   1 1110.29   20.30
   1  -1  -1  348.87    6.70
   1  -1  -1  354.96    6.60
   1  -1  -1  372.76    6.50
   1  -1  -1  351.16    6.60
  -1   1   1  355.86    6.50
  -1   1   1  350.46    6.70
  -1   1   1  357.96    6.60
   0  -1  -1  185.18    3.80
   0  -1  -1  190.08    3.80
   0  -1  -1  197.88    4.00
   0  -1  -1  193.38    3.70
   0  -1  -1  190.58    3.90
   0   1   1  190.98    3.80
   0   1   1  191.38    3.90
   0   1   1  190.38    3.80
   0   1   1  191.28    3.70
  -2  -1  -1 1519.35   28.40
  -2  -1  -1 1583.24   28.50
  -2  -1  -1 1509.15   27.90
  -2  -1  -1 1545.75   28.70
  -2  -1  -1 1556.44   28.10
  -2  -1  -1 1481.25   27.80
   2   1   1 1556.74   28.60
   2   1   1 1555.24   28.50
   2   1   1 1529.15   28.30
   2   1   1 1523.05   28.30
  -3  -1  -1   86.19    2.30
  -3  -1  -1   90.89    3.10
  -3  -1  -1   81.79    3.00
  -3  -1  -1   85.39    3.30
  -3  -1  -1   89.99    2.60
   3   1   1   91.89    3.30
   3   1   1   85.19    3.00
   3   1   1   90.19    3.00
   3   1   1   91.49    3.10
   3   1   1   86.69    2.50
  -4  -1  -1  288.47    6.30
  -4  -1  -1  292.67    6.90
  -4  -1  -1  288.37    7.50
  -4  -1  -1  285.07    6.10
  -4  -1  -1  284.37    6.90
   4   1   1  282.27    7.20
   4   1   1  291.07    7.20
   4   1   1  291.67    7.20
   4   1   1  286.77    6.20
   4   1   1  283.77    7.50
  -5  -1  -1  611.24   12.90
  -5  -1  -1  584.64   13.80
  -5  -1  -1  614.24   11.90
  -5  -1  -1  614.24   13.10
  -5  -1  -1  615.94   12.20
   5   1   1  622.84   13.50
   5   1   1  600.44   13.20
   5   1   1  580.54   14.30
   5   1   1  630.94   13.50
   5   1   1  603.04   12.10
  -6  -1  -1    7.30    2.50
  -6  -1  -1   12.20    1.90
  -6  -1  -1   11.40    1.50
  -6  -1  -1   10.30    1.20
  -6  -1  -1   12.20    1.80
   6   1   1   13.80    2.60
   6   1   1    9.10    2.70
   6   1   1    8.10    1.50
   6   1   1    8.30    2.10
  -7  -1  -1  118.39    5.40
  -7  -1  -1  116.99    3.50
   7   1   1  118.29    6.60
   7   1   1  117.29    6.50
   7   1   1  112.79    3.90
   7   1   1  100.79    6.80
   7   1   1  103.79    6.80
   8  -2  -1    1.50    3.10
   8  -2  -1    4.40    3.90
   8  -2  -1    1.60    2.80
   8  -2  -1    2.30    2.80
  -8   2   1    1.90    1.60
  -8   2   1    1.00    2.30
   7  -2  -1   -0.50    2.20
   7  -2  -1    1.30    2.30
   7  -2  -1   -1.30    2.40
   7  -2  -1    2.60    2.60
  -7   2   1    3.00    1.70
  -7   2   1    0.50    1.90
   6  -2  -1  153.78    5.10
   6  -2  -1  157.08    5.50
   6  -2  -1  152.08    5.10
   6  -2  -1  155.28    5.20
   6  -2  -1  157.38    5.10
  -6   2   1  154.68    4.70
  -6   2   1  150.48    4.70
   5  -2  -1  791.22   16.30
   5  -2  -1  800.92   16.20
   5  -2  -1  813.82   16.20
   5  -2  -1  805.02   16.30
  -5   2   1  823.32   16.00
  -5   2   1  793.92   15.80
   4  -2  -1   87.99    3.00
   4  -2  -1   88.49    2.90
   4  -2  -1   88.99    3.00
   4  -2  -1   87.89    3.00
  -4   2   1   92.89    3.00
  -4   2   1   85.19    2.70
   3  -2  -1  333.87    6.90
   3  -2  -1  324.77    6.80
   3  -2  -1  326.47    6.80
   3  -2  -1  336.27    7.10
  -3   2   1  332.77    6.70
  -3   2   1  328.37    7.00
   2  -2  -1 2531.95   49.50
  -2   2   1 2540.15   49.10
   1  -2  -1   34.70    1.10
   1  -2  -1   35.70    1.10
   1  -2  -1   35.50    1.10
   1  -2  -1   37.20    1.40
  -1   2   1   35.00    1.40
  -1   2   1   36.60    1.20
  -1   2   1   36.00    1.10
   0  -2  -1  530.15   10.30
   0  -2  -1  524.75   10.00
   0  -2  -1  516.05    9.90
   0  -2  -1  539.75   10.00
   0   2   1  515.05   10.00
   0   2   1  535.25   10.40
   0   2   1  538.45    9.90
   0   2   1  510.05   10.00
  -1  -2  -1   80.29    2.20
  -1  -2  -1   80.59    2.30
  -1  -2  -1   76.79    2.10
  -1  -2  -1   78.29    2.20
  -1  -2  -1   76.19    2.20
  -1  -2  -1   74.29    2.50
   1   2   1   76.09    2.50
   1   2   1   78.19    2.10
   1   2   1   78.29    2.40
   1   2   1   81.49    2.30
  -2  -2  -1   16.90    1.50
  -2  -2  -1   14.90    1.30
  -2  -2  -1   16.90    1.20
  -2  -2  -1   15.30    1.60
  -2  -2  -1   15.90    1.30
  -2  -2  -1   14.40    1.00
   2   2   1   13.20    1.40
   2   2   1   15.20    1.40
   2   2   1   15.00    1.00
   2   2   1   15.00    1.60
   2   2   1   14.10    1.60
  -3  -2  -1  182.88    5.40
  -3  -2  -1  182.08    4.40
  -3  -2  -1  183.18    4.80
  -3  -2  -1  184.28    4.20
  -3  -2  -1  195.58    4.60
   3   2   1  184.38    5.30
   3   2   1  188.08    4.10
   3   2   1  186.38    5.00
   3   2   1  185.98    4.90
   3   2   1  191.78    5.20
  -4  -2  -1  135.09    3.70
  -4  -2  -1  136.69    4.70
  -4  -2  -1  134.29    5.10
  -4  -2  -1  140.29    4.00
  -4  -2  -1  133.59    4.20
   4   2   1  137.09    4.60
   4   2   1  133.69    4.40
   4   2   1  136.89    3.40
   4   2   1  133.89    4.90
   4   2   1  132.59    5.00
  -5  -2  -1  237.18    7.60
  -5  -2  -1  229.88    6.60
  -5  -2  -1  217.18    6.40
  -5  -2  -1  227.68    5.70
  -5  -2  -1  237.58    5.80
   5   2   1  229.38    6.90
   5   2   1  231.08    7.00
   5   2   1  224.38    6.70
   5   2   1  231.28    5.20
   5   2   1  223.28    7.40
  -6  -2  -1  232.48    6.90
  -6  -2  -1  227.18    6.90
  -6  -2  -1  238.78    8.10
  -6  -2  -1  227.18    5.80
  -6  -2  -1  234.18    6.10
   6   2   1  233.08    7.50
   6   2   1  223.98    9.00
   6   2   1  225.28    5.20
   6   2   1  228.28    7.70
   6   2   1  223.28    7.90
  -7  -2  -1    5.90    2.00
  -7  -2  -1   -0.10    1.50
  -7  -2  -1    1.20    2.30
  -7  -2  -1    3.70    4.20
  -7  -2  -1    3.30    1.60
   7   2   1    7.40    2.80
   7   2   1    7.60    3.60
   7   2   1    5.60    3.90
   7   2   1    4.80    2.90
   8  -3  -1   17.70    3.40
   8  -3  -1   15.50    4.30
   8  -3  -1   15.80    3.00
   8  -3  -1   18.90    3.30
  -8   3   1   20.40    2.40
   7  -3  -1  103.89    4.90
   7  -3  -1  102.29    5.40
   7  -3  -1   97.29    5.00
   7  -3  -1   87.29    5.70
  -7   3   1   98.29    4.30
  -7   3   1   95.49    4.20
   6  -3  -1   21.70    2.20
   6  -3  -1   22.50    2.30
   6  -3  -1   23.00    2.60
   6  -3  -1   22.00    2.40
  -6   3   1   22.10    2.20
  -6   3   1   18.20    2.00
   5  -3  -1  111.99    3.70
   5  -3  -1  119.69    4.20
   5  -3  -1  113.59    3.80
   5  -3  -1  115.69    4.10
  -5   3   1  111.59    3.40
  -5   3   1  112.79    4.00
   4  -3  -1  205.78    5.30
   4  -3  -1  204.68    4.10
   4  -3  -1  201.88    5.00
   4  -3  -1  207.78    5.10
   4  -3  -1  204.68    5.10
  -4   3   1  205.68    4.80
  -4   3   1  198.68    5.30
   3  -3  -1 1151.78   21.10
   3  -3  -1 1169.38   21.70
   3  -3  -1 1157.18   21.80
   3  -3  -1 1143.29   21.50
   3  -3  -1 1165.68   21.50
  -3   3   1 1177.78   21.90
  -3   3   1 1144.19   20.90
  -3   3   1 1147.79   21.40
  -3   3   1 1136.39   21.00
  -2   3   1 2715.73   49.30
   1  -3  -1  820.72   15.80
   1  -3  -1  804.92   15.20
   1  -3  -1  836.92   15.10
  -1   3   1  801.32   15.20
  -1   3   1  800.62   15.10
  -1   3   1  813.12   15.10
  -1   3   1  789.22   15.60
   0  -3  -1  311.57    6.60
   0  -3  -1  312.97    7.00
   0  -3  -1  320.67    6.50
   0  -3  -1  311.67    6.50
   0  -3  -1  313.37    6.40
   0   3   1  311.07    6.60
   0   3   1  328.37    6.50
   0   3   1  321.57    7.20
   0   3   1  313.27    6.60
  -1  -3  -1  529.95   10.50
  -1  -3  -1  544.65   11.00
  -1  -3  -1  520.75   10.40
  -1  -3  -1  516.25   10.40
  -1  -3  -1  512.75   10.20
  -1  -3  -1  505.85   10.40
   1   3   1  527.95   10.50
   1   3   1  509.25   10.20
   1   3   1  531.85   10.60
   1   3   1  523.45   11.00
  -2  -3  -1 6953.70  131.29
   2   3   1 6709.73  127.99
  -3  -3  -1   26.10    2.00
  -3  -3  -1   33.60    1.50
  -3  -3  -1   33.10    2.40
  -3  -3  -1   31.90    2.70
  -3  -3  -1   33.70    2.00
  -3  -3  -1   30.50    2.10
   3   3   1   34.40    2.40
   3   3   1   33.10    2.60
   3   3   1   30.90    2.00
   3   3   1   33.80    2.60
  -4  -3  -1  312.27    7.40
  -4  -3  -1  322.07    8.80
  -4  -3  -1  323.67    7.40
  -4  -3  -1  316.37    7.70
  -4  -3  -1  316.47    8.40
   4   3   1  330.17    8.30
   4   3   1  310.07    7.70
   4   3   1  321.47    8.50
   4   3   1  319.07    8.70
  -5  -3  -1   12.20    2.60
  -5  -3  -1   13.40    1.60
  -5  -3  -1   13.60    1.90
  -5  -3  -1   16.80    2.00
  -5  -3  -1   15.70    2.80
   5   3   1   13.30    3.20
   5   3   1    8.60    2.30
   5   3   1   15.20    2.90
   5   3   1    8.60    2.80
  -6  -3  -1   38.70    4.20
  -6  -3  -1   36.20    4.00
  -6  -3  -1   34.50    3.20
  -6  -3  -1   36.50    3.40
  -6  -3  -1   45.80    5.10
   6   3   1   35.90    4.40
   6   3   1   41.60    4.50
   6   3   1   38.90    4.60
   6   3   1   37.10    3.90
   7  -4  -1  302.57    8.30
   7  -4  -1  303.07    9.60
   7  -4  -1  297.57    8.80
  -7   4   1  318.67    7.60
  -7   4   1  305.47    8.20
   6  -4  -1    5.30    2.20
   6  -4  -1    5.40    1.90
   6  -4  -1    5.50    1.90
   6  -4  -1    6.60    2.20
  -6   4   1    8.90    1.90
  -6   4   1    4.30    1.40
   5  -4  -1   35.10    2.50
   5  -4  -1   41.50    3.00
   5  -4  -1   42.20    1.30
   5  -4  -1   46.50    2.80
   5  -4  -1   42.30    3.00
  -5   4   1   39.40    2.90
  -5   4   1   41.90    2.20
   4  -4  -1  246.78    6.20
   4  -4  -1  238.18    5.70
   4  -4  -1  232.18    5.90
   4  -4  -1  243.38    5.10
   4  -4  -1  236.28    5.90
  -4   4   1  246.48    5.50
  -4   4   1  237.38    4.80
  -4   4   1  238.48    4.70
  -4   4   1  242.78    6.30
   3  -4  -1   10.50    1.40
   3  -4  -1   10.40    1.10
   3  -4  -1   10.20    1.20
   3  -4  -1   10.70    1.00
  -3   4   1    9.50    1.30
  -3   4   1    9.90    1.10
  -3   4   1   11.50    0.90
   2  -4  -1   23.50    1.80
   2  -4  -1   25.40    1.50
   2  -4  -1   25.10    1.60
   2  -4  -1   27.30    1.40
   2  -4  -1   27.50    1.50
  -2   4   1   25.30    1.60
  -2   4   1   24.20    1.40
  -2   4   1   26.90    1.80
  -2   4   1   24.90    1.30
   1  -4  -1 1979.20   35.90
   1  -4  -1 1879.31   35.10
   1  -4  -1 1875.11   35.10
   1  -4  -1 1908.81   35.00
  -1   4   1 1956.20   35.00
  -1   4   1 1881.41   35.00
  -1   4   1 1902.71   35.70
  -1   4   1 1935.41   35.10
   0  -4  -1   15.40    1.50
   0  -4  -1   15.90    1.40
   0  -4  -1   15.10    1.30
   0  -4  -1   14.60    1.60
   0  -4  -1   15.10    1.40
   0   4   1   12.40    1.60
   0   4   1   14.60    1.40
   0   4   1   15.20    1.40
   0   4   1   15.20    1.40
  -1  -4  -1  421.46    8.90
  -1  -4  -1  429.96    9.60
  -1  -4  -1  422.26    8.90
  -1  -4  -1  423.36    8.90
  -1  -4  -1  426.76    8.90
  -1  -4  -1  414.26    8.70
   1   4   1  417.96    9.00
   1   4   1  414.56    8.70
   1   4   1  410.46    9.10
   1   4   1  412.56    9.70
  -2  -4  -1   52.69    2.10
  -2  -4  -1   53.59    2.40
  -2  -4  -1   57.79    2.50
  -2  -4  -1   55.49    2.50
  -2  -4  -1   55.49    2.80
  -2  -4  -1   56.99    3.20
   2   4   1   62.29    2.80
   2   4   1   60.39    3.30
   2   4   1   60.69    3.00
   2   4   1   55.39    2.30
  -3  -4  -1  233.08    6.00
  -3  -4  -1  228.68    5.90
  -3  -4  -1  225.48    5.20
  -3  -4  -1  229.78    6.50
  -3  -4  -1  225.28    5.90
  -3  -4  -1  235.78    7.10
   3   4   1  230.28    6.80
   3   4   1  232.08    6.40
   3   4   1  239.68    7.00
   3   4   1  219.58    5.80
  -4  -4  -1   16.60    2.00
  -4  -4  -1   12.60    2.70
  -4  -4  -1   11.30    1.70
  -4  -4  -1   13.20    1.20
  -4  -4  -1   15.20    2.60
  -4  -4  -1   13.00    1.80
   4   4   1   15.00    2.60
   4   4   1   10.90    2.50
   4   4   1   13.00    1.70
   4   4   1   11.40    2.70
  -5  -4  -1    7.80    2.90
  -5  -4  -1    8.30    2.20
  -5  -4  -1    6.60    3.00
  -5  -4  -1    7.40    1.70
  -5  -4  -1    8.50    1.90
   5   4   1    8.80    3.00
   5   4   1    6.30    2.50
   5   4   1    7.30    3.10
   5   4   1    4.40    1.90
  -6  -4  -1   17.30    4.00
  -6  -4  -1   14.90    4.10
  -6  -4  -1   14.20    2.50
  -6  -4  -1   20.30    3.10
  -6  -4  -1   21.00    2.80
   6   4   1   28.00    4.40
   6   4   1   18.80    3.20
   6   4   1   30.60    4.80
   6   4   1   17.10    4.80
   7  -5  -1   45.50    4.70
   7  -5  -1   55.49    4.40
   7  -5  -1   61.69    4.40
  -7   5   1   48.70    4.20
  -7   5   1   54.79    3.20
   6  -5  -1    1.90    1.50
   6  -5  -1    1.20    2.20
   6  -5  -1   -0.50    1.60
   6  -5  -1    2.70    2.10
  -6   5   1   -0.70    1.90
  -6   5   1    2.30    1.30
   5  -5  -1  166.98    5.20
   5  -5  -1  174.18    5.60
   5  -5  -1  170.98    5.10
   5  -5  -1  175.08    4.10
   5  -5  -1  165.68    5.60
  -5   5   1  173.18    4.50
  -5   5   1  166.48    5.40
   4  -5  -1    3.30    1.40
   4  -5  -1    1.90    1.30
   4  -5  -1    2.10    0.80
   4  -5  -1    2.10    1.30
   4  -5  -1    1.40    1.10
  -4   5   1    0.60    0.70
  -4   5   1    0.80    0.90
  -4   5   1    0.20    1.20
   3  -5  -1  399.36    8.60
   3  -5  -1  393.46    8.90
   3  -5  -1  407.06    8.40
   3  -5  -1  394.66    8.30
   3  -5  -1  388.06    9.10
  -3   5   1  388.56    9.00
  -3   5   1  392.26    8.30
  -3   5   1  391.56    8.10
  -3   5   1  394.26    8.40
   2  -5  -1   13.40    1.70
   2  -5  -1   18.90    1.80
   2  -5  -1   13.60    1.50
   2  -5  -1   11.20    1.10
  -2   5   1   11.80    1.20
  -2   5   1   12.00    1.30
  -2   5   1   13.50    1.40
  -2   5   1   11.60    1.50
   1  -5  -1 2212.38   40.20
   1  -5  -1 2187.68   41.10
   1  -5  -1 2212.98   40.30
   1  -5  -1 2149.39   40.00
   1  -5  -1 2138.69   40.20
  -1   5   1 2265.47   41.10
  -1   5   1 2190.18   40.20
  -1   5   1 2173.58   40.10
  -1   5   1 2142.69   40.10
   0  -5  -1   58.69    2.40
   0  -5  -1   53.19    2.40
   0  -5  -1   58.29    3.10
   0  -5  -1   53.29    2.30
   0  -5  -1   59.89    2.30
   0   5   1   55.89    2.50
   0   5   1   54.29    3.20
   0   5   1   58.19    2.50
   0   5   1   56.29    2.40
  -1  -5  -1    7.70    1.30
  -1  -5  -1    7.50    1.30
  -1  -5  -1    5.90    1.60
  -1  -5  -1    7.00    1.30
  -1  -5  -1    7.80    1.30
  -1  -5  -1    7.30    1.30
   1   5   1    6.90    1.40
   1   5   1    5.10    1.10
   1   5   1    5.70    1.70
   1   5   1    8.20    1.40
  -2  -5  -1  179.08    5.00
  -2  -5  -1  179.48    5.50
  -2  -5  -1  176.08    4.60
  -2  -5  -1  179.88    5.00
  -2  -5  -1  179.48    5.10
  -2  -5  -1  172.38    5.90
   2   5   1  169.68    4.80
   2   5   1  175.38    6.20
   2   5   1  175.48    5.40
   2   5   1  179.58    5.60
  -3  -5  -1  254.67    6.70
  -3  -5  -1  236.38    7.20
  -3  -5  -1  244.68    7.90
  -3  -5  -1  251.37    6.50
  -3  -5  -1  255.27    6.70
  -3  -5  -1  246.68    5.90
   3   5   1  248.68    7.90
   3   5   1  240.98    7.60
  -4  -5  -1   71.29    3.80
  -4  -5  -1   73.89    3.80
  -4  -5  -1   72.99    2.60
  -4  -5  -1   71.89    5.30
   4   5   1   66.39    4.70
   4   5   1   72.49    5.30
   4   5   1   81.39    5.80
   4   5   1   70.79    3.90
  -5  -5  -1   10.90    3.90
  -5  -5  -1    0.90    2.10
  -5  -5  -1    1.30    2.10
  -5  -5  -1    1.00    2.60
  -5  -5  -1    5.20    2.90
   5   5   1    0.50    3.00
   5   5   1    6.10    2.00
   5   5   1    1.30    3.40
   5   5   1    2.40    3.50
  -6  -5  -1   76.49    4.80
  -6  -5  -1   67.49    6.20
  -6  -5  -1   84.99    7.30
   6   5   1   69.99    4.90
   6   5   1   63.79    6.90
   6   5   1   81.29    8.10
   6   5   1   62.69    5.90
   7  -6  -1    6.00    2.50
   7  -6  -1    2.30    2.70
   7  -6  -1   -2.60    3.30
   7  -6  -1    1.30    3.20
  -7   6   1   -0.10    1.60
  -7   6   1    1.40    2.70
   6  -6  -1  294.77    8.40
   6  -6  -1  293.47    8.90
   6  -6  -1  275.07    9.60
   6  -6  -1  289.27    6.20
   6  -6  -1  255.47    8.40
  -6   6   1  301.47    7.10
  -6   6   1  295.97    8.60
   5  -6  -1  167.88    6.00
   5  -6  -1  170.48    5.00
   5  -6  -1  165.18    5.90
   5  -6  -1  163.48    4.40
   5  -6  -1  164.88    5.60
  -5   6   1  159.48    3.40
  -5   6   1  157.78    3.40
  -5   6   1  161.58    4.60
  -5   6   1  157.28    5.70
   4  -6  -1   97.99    3.90
   4  -6  -1  103.69    4.20
   4  -6  -1  105.69    3.30
   4  -6  -1   99.29    3.50
  -4   6   1   99.99    3.00
  -4   6   1   92.79    3.30
   3  -6  -1  280.67    7.80
   3  -6  -1  282.07    7.20
   3  -6  -1  286.37    6.60
   3  -6  -1  283.67    6.70
   3  -6  -1  274.97    7.00
  -3   6   1  274.07    7.50
  -3   6   1  284.67    6.90
  -3   6   1  277.47    6.60
  -3   6   1  279.17    6.40
   2  -6  -1    3.30    1.20
   2  -6  -1    0.00    1.50
   2  -6  -1    1.50    1.10
   2  -6  -1    2.20    1.10
   2  -6  -1    2.80    1.00
  -2   6   1    2.10    1.00
  -2   6   1    1.90    1.20
  -2   6   1    6.90    1.10
  -2   6   1    1.50    1.30
   1  -6  -1   70.39    3.00
   1  -6  -1   70.09    2.70
   1  -6  -1   68.09    2.90
   1  -6  -1   69.29    3.00
   1  -6  -1   71.99    3.70
  -1   6   1   63.89    2.80
  -1   6   1   65.29    3.60
  -1   6   1   66.79    2.90
  -1   6   1   70.29    2.90
   0  -6  -1    2.20    1.10
   0  -6  -1    2.60    1.40
   0  -6  -1    4.50    1.30
   0  -6  -1    0.90    1.60
   0  -6  -1    5.30    1.10
   0   6   1    2.90    1.20
   0   6   1    3.10    1.20
   0   6   1    3.30    1.80
   0   6   1    4.10    1.30
  -1  -6  -1   43.60    2.70
  -1  -6  -1   41.10    3.50
  -1  -6  -1   38.60    2.80
  -1  -6  -1   42.20    2.60
  -1  -6  -1   39.60    2.60
  -1  -6  -1   38.90    2.40
   1   6   1   41.70    2.90
   1   6   1   36.20    3.60
   1   6   1   37.00    2.80
   1   6   1   34.50    2.80
  -2  -6  -1  187.58    5.60
  -2  -6  -1  178.08    4.90
  -2  -6  -1  179.98    5.30
  -2  -6  -1  169.58    6.40
  -2  -6  -1  177.48    5.40
  -2  -6  -1  169.18    5.80
   2   6   1  159.68    5.20
   2   6   1  177.98    6.10
   2   6   1  175.48    6.70
   2   6   1  147.09    6.40
  -3  -6  -1   32.20    3.20
  -3  -6  -1   32.20    3.50
  -3  -6  -1   36.50    2.60
  -3  -6  -1   31.70    3.20
  -3  -6  -1   34.00    3.70
  -3  -6  -1   34.10    2.90
   3   6   1   31.70    3.40
   3   6   1   32.90    2.90
   3   6   1   29.70    3.10
   3   6   1   34.30    4.20
  -4  -6  -1   69.09    4.50
  -4  -6  -1   59.79    6.10
  -4  -6  -1   70.29    2.80
  -4  -6  -1   69.49    5.50
  -4  -6  -1   75.59    4.40
  -4  -6  -1   70.79    4.00
   4   6   1   74.19    6.40
   4   6   1   68.49    5.50
   4   6   1   57.39    5.90
   4   6   1   69.59    4.00
  -5  -6  -1   19.50    5.00
  -5  -6  -1    2.30    3.60
  -5  -6  -1   12.20    2.90
  -5  -6  -1    4.50    3.40
  -5  -6  -1   10.70    2.80
   5   6   1    7.00    2.50
   5   6   1   13.30    5.60
   5   6   1   11.00    4.40
   5   6   1    8.20    4.50
   7  -7  -1    1.00    3.60
   7  -7  -1    2.40    3.00
   7  -7  -1   -4.10    2.90
   7  -7  -1   -0.10    3.30
  -7   7   1   -0.90    3.00
  -7   7   1    1.80    1.80
   6  -7  -1    6.10    2.60
   6  -7  -1    1.00    1.80
   6  -7  -1    8.70    3.20
   6  -7  -1    5.50    3.20
   6  -7  -1   -0.60    1.50
  -6   7   1    0.90    1.40
  -6   7   1    0.80    3.00
   5  -7  -1  441.86    9.60
   5  -7  -1  413.86   11.00
   5  -7  -1  446.86   11.10
   5  -7  -1  429.26   11.30
  -5   7   1  423.16   11.30
  -5   7   1  420.86    8.80
  -5   7   1  423.66    8.60
  -5   7   1  433.16    9.70
   4  -7  -1   69.69    4.40
   4  -7  -1   66.99    4.10
   4  -7  -1   67.89    4.60
   4  -7  -1   70.19    3.20
   4  -7  -1   70.99    3.20
  -4   7   1   64.59    3.30
  -4   7   1   76.09    4.70
  -4   7   1   66.99    3.00
  -4   7   1   68.49    2.90
   3  -7  -1  244.88    6.40
   3  -7  -1  249.48    6.30
   3  -7  -1  240.58    6.70
   3  -7  -1  193.68    9.50
   3  -7  -1  248.08    7.00
  -3   7   1  250.97    6.60
  -3   7   1  252.97    6.40
  -3   7   1  242.78    7.70
  -3   7   1  257.47    6.20
   2  -7  -1   95.69    3.90
   2  -7  -1   94.19    3.60
   2  -7  -1   93.59    4.60
   2  -7  -1   90.89    3.90
   2  -7  -1   92.69    3.70
  -2   7   1   91.99    3.60
  -2   7   1   95.39    3.70
  -2   7   1   94.69    3.80
  -2   7   1   92.89    4.50
   1  -7  -1  241.28    6.60
   1  -7  -1  244.38    6.20
   1  -7  -1  250.77    6.60
   1  -7  -1  238.38    7.50
   1  -7  -1  243.58    6.70
  -1   7   1  233.18    7.40
  -1   7   1  248.88    6.60
  -1   7   1  246.28    6.50
  -1   7   1  245.48    6.40
   0  -7  -1  344.57    9.80
   0  -7  -1  369.56    9.70
   0  -7  -1  358.86    9.80
   0  -7  -1  364.96    8.80
   0   7   1  369.36   10.10
   0   7   1  368.96    8.60
   0   7   1  368.46    8.90
   0   7   1  375.56    9.10
  -1  -7  -1  254.97    7.30
  -1  -7  -1  246.38    7.00
  -1  -7  -1  245.88    6.90
  -1  -7  -1  251.37    6.80
  -1  -7  -1  246.98    8.10
  -1  -7  -1  243.88    6.60
   1   7   1  241.28    6.70
   1   7   1  250.67    7.20
   1   7   1  244.08    7.30
   1   7   1  248.68    8.30
  -2  -7  -1    3.90    2.60
  -2  -7  -1    1.50    1.70
  -2  -7  -1    1.70    1.60
  -2  -7  -1    4.60    2.20
  -2  -7  -1    5.80    1.90
   2   7   1    4.00    3.00
   2   7   1    1.60    1.70
   2   7   1    5.70    2.20
   2   7   1    6.50    2.40
  -3  -7  -1   35.00    2.90
  -3  -7  -1   40.10    4.30
  -3  -7  -1   44.20    4.50
  -3  -7  -1   32.10    3.50
  -3  -7  -1   37.90    4.40
  -3  -7  -1   35.90    4.00
   3   7   1   44.90    4.70
   3   7   1   35.50    4.10
   3   7   1   35.70    3.60
   3   7   1   37.00    4.70
  -4  -7  -1   69.39    5.30
  -4  -7  -1   61.69    4.70
  -4  -7  -1   72.19    7.50
  -4  -7  -1   82.19    6.80
  -4  -7  -1   67.39    3.10
  -4  -7  -1   66.69    5.20
   4   7   1   62.99    7.10
   4   7   1   71.69    6.20
   4   7   1   63.59    4.60
   4   7   1   59.49    6.20
   6  -8  -1   67.59    4.50
   6  -8  -1   75.59    7.00
   6  -8  -1   62.79    6.20
   6  -8  -1   71.49    4.40
   6  -8  -1   73.99    5.80
  -6   8   1   84.39    6.50
   5  -8  -1   -5.20    2.50
   5  -8  -1   -0.20    2.50
   5  -8  -1    0.50    1.90
   5  -8  -1   -1.50    2.30
   5  -8  -1   -1.00    2.30
  -5   8   1    4.00    3.20
  -5   8   1   -1.40    1.40
  -5   8   1   -0.40    1.60
   4  -8  -1   58.39    3.50
   4  -8  -1   59.09    4.90
   4  -8  -1   64.09    4.20
   4  -8  -1   61.49    3.60
   4  -8  -1   60.19    4.50
  -4   8   1   62.59    3.10
  -4   8   1   59.79    4.60
  -4   8   1   58.99    3.90
  -4   8   1   63.09    3.10
   3  -8  -1    0.60    2.00
   3  -8  -1    2.10    1.60
   3  -8  -1    0.70    1.70
   3  -8  -1    3.60    2.30
  -3   8   1    1.70    1.40
  -3   8   1    0.80    1.50
  -3   8   1   -0.60    2.00
  -3   8   1    5.70    2.70
   2  -8  -1  213.08    7.50
   2  -8  -1  216.98    6.70
   2  -8  -1  213.08    7.00
   2  -8  -1  222.58    6.20
   2  -8  -1  214.98    6.40
  -2   8   1  215.68    6.20
  -2   8   1  215.28    6.30
  -2   8   1  207.88    6.30
   1  -8  -1   -0.50    1.70
   1  -8  -1    1.80    1.70
   1  -8  -1    1.00    1.80
   1  -8  -1    0.10    1.60
  -1   8   1    1.60    2.80
  -1   8   1    2.90    1.90
  -1   8   1    2.40    1.70
  -1   8   1    2.60    1.70
   0  -8  -1    0.80    1.70
   0  -8  -1    6.20    2.60
   0  -8  -1   -1.60    2.00
   0  -8  -1    1.40    1.40
   0  -8  -1    1.80    1.70
   0  -8  -1    3.20    2.00
   0   8   1   -1.30    2.50
   0   8   1    2.30    1.90
   0   8   1    0.00    1.90
   0   8   1    2.70    1.60
  -1  -8  -1   84.49    4.10
  -1  -8  -1   88.59    4.70
  -1  -8  -1   75.39    4.30
  -1  -8  -1   77.59    5.60
  -1  -8  -1   81.49    4.40
  -1  -8  -1   82.69    4.70
   1   8   1   86.49    4.90
   1   8   1   84.79    4.10
   1   8   1   88.79    4.90
   1   8   1   85.59    6.10
  -2  -8  -1    5.80    2.10
  -2  -8  -1    7.60    2.30
  -2  -8  -1   11.00    2.40
  -2  -8  -1    3.90    2.90
  -2  -8  -1   13.30    3.50
  -2  -8  -1    9.70    2.50
   2   8   1   15.20    3.20
   2   8   1   10.00    2.90
   2   8   1    7.90    2.30
   2   8   1    3.80    3.60
  -3  -8  -1   70.69    4.40
  -3  -8  -1   63.89    7.20
  -3  -8  -1   63.89    4.90
  -3  -8  -1   70.29    6.60
  -3  -8  -1   74.69    6.30
  -3  -8  -1   82.69    5.10
   3   8   1   80.19    5.00
   3   8   1   63.49    6.00
   3   8   1   81.99    7.00
   3   8   1   71.69    7.70
  -4  -8  -1    4.50    3.00
  -4  -8  -1   -4.50    3.60
  -4  -8  -1    4.40    3.50
  -4  -8  -1    2.80    5.40
   4   8   1    0.70    4.60
   6  -9  -1    7.50    4.80
   6  -9  -1    8.70    3.30
   6  -9  -1   10.50    2.90
   6  -9  -1    5.60    5.00
   5  -9  -1   35.60    3.80
   5  -9  -1   31.80    3.90
   5  -9  -1   30.10    4.30
   5  -9  -1   36.30    4.80
   5  -9  -1   36.50    3.40
  -5   9   1   29.10    2.50
  -5   9   1   38.50    5.00
  -5   9   1   36.00    3.00
  -5   9   1   28.70    3.00
   4  -9  -1  267.47    7.90
   4  -9  -1  274.47    9.30
   4  -9  -1  271.47   10.10
   4  -9  -1  282.47    9.30
   4  -9  -1  270.17    8.30
  -4   9   1  272.47    7.30
  -4   9   1  275.97   10.00
  -4   9   1  271.27    7.60
  -4   9   1  280.87    8.10
   3  -9  -1    2.60    3.00
   3  -9  -1    0.80    2.20
   3  -9  -1    2.20    2.60
   3  -9  -1    2.20    2.40
   3  -9  -1    0.30    2.40
  -3   9   1    0.30    2.90
  -3   9   1    2.20    1.90
  -3   9   1    3.50    3.30
   2  -9  -1  179.88    6.40
   2  -9  -1  176.88    6.50
   2  -9  -1  179.58    7.60
   2  -9  -1  175.48    6.30
   2  -9  -1  178.08    6.70
  -2   9   1  162.18    7.20
  -2   9   1  172.68    6.00
  -2   9   1  174.78    7.40
  -2   9   1  173.48    5.90
   1  -9  -1  275.17    8.30
   1  -9  -1  259.47    8.00
   1  -9  -1  269.47    7.50
   1  -9  -1  270.97    8.10
   1  -9  -1  269.67    9.30
  -1   9   1  272.97    8.00
  -1   9   1  256.57    7.90
  -1   9   1  270.57    8.10
  -1   9   1  267.57    9.20
   0  -9  -1    2.10    2.40
   0  -9  -1   -2.20    2.00
   0  -9  -1   -4.80    3.00
   0  -9  -1   -1.70    2.20
   0  -9  -1    2.00    2.20
   0  -9  -1    0.80    2.00
   0   9   1    4.40    3.20
   0   9   1    3.30    3.00
   0   9   1   -3.80    2.30
   0   9   1    1.40    2.30
  -1  -9  -1   17.60    3.60
  -1  -9  -1   21.10    3.20
  -1  -9  -1   20.80    2.80
  -1  -9  -1   20.10    4.30
  -1  -9  -1   17.30    2.90
   1   9   1   26.40    3.70
   1   9   1   18.80    2.60
   1   9   1   23.30    4.30
   1   9   1   24.50    3.40
  -2  -9  -1    2.10    2.90
  -2  -9  -1    3.80    5.30
  -2  -9  -1    4.70    2.50
  -2  -9  -1    7.90    2.90
  -2  -9  -1    0.30    3.30
  -2  -9  -1   -0.60    2.70
   2   9   1    7.40    2.60
   2   9   1    0.60    3.70
   2   9   1    3.30    4.40
   2   9   1    4.80    4.00
  -3  -9  -1   -7.90    4.70
  -3  -9  -1   -1.00    3.00
  -3  -9  -1   -5.80    3.20
   5 -10  -1    3.60    3.60
  -5  10   1    0.90    2.70
   4 -10  -1   28.60    3.40
   4 -10  -1   35.50    4.60
   4 -10  -1   24.70    4.50
   4 -10  -1   22.80    3.30
   4 -10  -1   36.50    4.80
  -4  10   1   23.20    4.30
  -4  10   1   28.80    3.40
  -4  10   1   26.90    3.10
  -4  10   1   36.40    4.70
   3 -10  -1   10.40    3.10
   3 -10  -1    7.00    3.10
   3 -10  -1    4.60    3.90
   3 -10  -1   14.10    3.60
   3 -10  -1    4.10    2.80
  -3  10   1    7.90    2.90
  -3  10   1    6.60    3.30
  -3  10   1    9.20    3.10
  -3  10   1   10.40    3.80
   2 -10  -1    6.00    3.10
   2 -10  -1   11.00    3.50
   2 -10  -1    3.90    2.30
   2 -10  -1    3.90    2.70
   2 -10  -1    1.40    3.70
  -2  10   1    4.10    3.00
  -2  10   1    1.70    2.60
  -2  10   1    3.70    3.30
  -2  10   1    1.80    2.60
   1 -10  -1   36.80    3.30
   1 -10  -1   33.80    4.80
   1 -10  -1   35.30    3.70
   1 -10  -1   30.30    3.60
   1 -10  -1   36.00    4.50
   1 -10  -1   37.80    4.00
  -1  10   1   34.70    3.80
  -1  10   1   37.30    3.80
  -1  10   1   37.40    4.80
  -1  10   1   37.80    4.30
   0 -10  -1   14.50    3.30
   0 -10  -1   19.10    4.70
   0 -10  -1   13.50    3.40
   0 -10  -1   15.90    3.10
   0 -10  -1   14.10    3.30
   0  10   1   14.90    3.40
   0  10   1   14.30    2.80
   0  10   1    9.40    4.20
   0  10   1   13.30    3.70
  -1 -10  -1   27.30    4.00
  -1 -10  -1   26.00    4.00
  -1 -10  -1   33.50    5.70
  -1 -10  -1   26.20    3.70
  -1 -10  -1   25.20    3.70
  -1 -10  -1   22.70    3.60
   1  10   1   25.70    3.90
   1  10   1   26.00    5.30
   1  10   1   25.60    3.20
   1  10   1   31.30    4.80
   2 -11  -1   13.20    3.10
   2 -11  -1   13.70    3.50
   2 -11  -1    8.60    5.50
   2 -11  -1   12.20    4.40
  -2  11   1   12.00    4.10
  -2  11   1   10.10    4.00
  -2  11   1    5.30    3.30
  -2  11   1    6.50    4.40
   1 -11  -1   -0.30    3.80
  -1  11   1   -2.20    2.90
  -1  11   1    2.30    3.40
  -1  11   1    2.70    4.70
  -1  11   1    6.40    4.70
   1  11  -2    1.00    3.90
   1  11  -2   10.90    5.30
  -1 -11   2   15.40    4.20
  -1 -11   2   10.50    5.30
  -1 -11   2    8.40    3.40
  -1 -11   2   11.60    3.10
  -1 -11   2    6.90    3.20
   0  11  -2   96.69    5.90
   0  11  -2  105.09    6.10
   0  11  -2  111.49    7.00
   0  11  -2  114.79    8.60
   0 -11   2  110.49    7.40
   0 -11   2  112.19    7.00
   0 -11   2  116.49    6.50
   0 -11   2  112.79    6.70
   0 -11   2  115.09    8.80
  -1  11  -2    5.50    3.50
  -1  11  -2    1.20    3.00
  -1  11  -2   -1.90    4.20
  -1  11  -2    0.60    2.90
   1 -11   2   -1.80    3.30
   1 -11   2    7.40    3.30
   1 -11   2   -1.70    3.60
   1 -11   2    2.70    4.70
   1 -11   2    6.30    2.40
  -2  11  -2    7.60    4.40
  -2  11  -2   11.20    3.30
  -2  11  -2   18.90    3.60
  -2  11  -2   14.40    4.10
   2 -11   2   17.40    5.10
   2 -11   2   10.50    2.70
   2 -11   2    6.40    3.50
   2 -11   2   11.70    3.60
  -3  11  -2   63.79    5.20
  -3  11  -2   69.09    5.90
  -3  11  -2   80.29    7.30
  -3  11  -2   70.89    6.90
   3 -11   2   69.39    7.60
   3 -11   2   72.99    5.10
   3 -11   2   71.39    7.70
   3 -11   2   69.89    6.30
   3 -11   2   56.89    6.20
  -4  11  -2    9.00    2.70
  -4  11  -2   18.10    4.80
  -4  11  -2   14.50    3.80
  -4  11  -2    6.10    2.80
   4 -11   2   11.90    3.90
   4 -11   2    7.10    4.40
   4 -11   2   12.10    5.10
   4 -11   2    6.30    3.30
   4 -11   2    6.20    4.50
   2  10  -2    2.10    2.80
   2  10  -2   -1.00    4.50
   2  10  -2    3.70    3.10
   2  10  -2    6.40    3.60
  -2 -10   2    1.90    3.30
  -2 -10   2    1.20    2.20
  -2 -10   2    5.90    4.10
  -2 -10   2    1.60    4.40
  -2 -10   2    3.70    3.10
  -2 -10   2    5.40    3.40
   1  10  -2  206.78    8.00
   1  10  -2  210.08    7.70
   1  10  -2  200.48    7.20
   1  10  -2  242.58   11.10
  -1 -10   2  206.38    7.90
  -1 -10   2  217.98    7.50
  -1 -10   2  203.78    7.90
  -1 -10   2  193.08   10.60
  -1 -10   2  214.18    7.50
  -1 -10   2  206.38    9.10
   0  10  -2   31.90    4.40
   0  10  -2   31.70    3.20
   0  10  -2   36.50    3.80
   0  10  -2   34.10    3.60
   0 -10   2   32.20    3.80
   0 -10   2   36.30    4.10
   0 -10   2   29.90    3.80
   0 -10   2   40.90    4.80
   0 -10   2   27.30    2.90
  -1  10  -2    2.60    2.30
  -1  10  -2   -3.80    3.00
  -1  10  -2   -0.50    2.00
  -1  10  -2   -0.30    2.10
   1 -10   2   -1.80    3.40
   1 -10   2   -1.10    2.40
   1 -10   2   -1.70    2.40
   1 -10   2   -1.30    1.90
   1 -10   2   -2.30    2.80
  -2  10  -2   41.10    4.10
  -2  10  -2   46.30    4.60
  -2  10  -2   36.90    3.80
  -2  10  -2   49.70    4.20
   2 -10   2   59.19    6.40
   2 -10   2   49.40    4.70
   2 -10   2   39.80    4.30
   2 -10   2   42.40    4.30
   2 -10   2   48.00    3.90
  -3  10  -2    6.20    4.40
  -3  10  -2    8.20    2.40
  -3  10  -2    7.30    3.40
  -3  10  -2    6.80    2.20
   3 -10   2    1.60    2.40
   3 -10   2   15.70    4.30
   3 -10   2    7.40    3.30
   3 -10   2    5.80    3.00
   3 -10   2    7.30    3.50
  -4  10  -2   26.00    3.60
  -4  10  -2   23.10    3.10
  -4  10  -2   24.00    4.50
  -4  10  -2   28.00    3.00
   4 -10   2   25.20    4.00
   4 -10   2   27.90    3.20
   4 -10   2   26.40    4.70
   4 -10   2   23.00    3.60
   4 -10   2   30.00    4.70
  -5  10  -2   -0.90    3.80
  -5  10  -2    1.10    4.80
  -5  10  -2    6.60    2.50
  -5  10  -2    5.90    2.20
   5 -10   2   -3.40    5.20
   5 -10   2    1.40    3.70
   5 -10   2   -1.10    3.30
   5 -10   2    6.20    4.80
   5 -10   2    6.70    2.80
   3   9  -2   17.80    4.90
   3   9  -2   22.50    4.20
   3   9  -2   18.10    3.60
   3   9  -2   20.70    3.10
  -3  -9   2   17.10    4.00
  -3  -9   2   19.00    3.30
  -3  -9   2   17.80    3.20
  -3  -9   2   18.40    2.00
  -3  -9   2   18.10    3.90
  -3  -9   2   19.40    4.50
   2   9  -2   25.60    2.90
   2   9  -2   30.80    3.70
   2   9  -2   33.50    4.60
   2   9  -2   30.20    3.40
  -2  -9   2   29.30    3.50
  -2  -9   2   25.90    3.20
  -2  -9   2   31.80    4.40
  -2  -9   2   39.60    3.50
  -2  -9   2   24.20    3.60
  -2  -9   2   31.20    3.30
   1   9  -2    2.60    1.80
   1   9  -2   -2.10    2.10
   1   9  -2   -0.60    2.80
   1   9  -2   -3.40    1.90
  -1  -9   2    3.90    3.10
  -1  -9   2   -2.90    1.80
  -1  -9   2    0.10    2.30
  -1  -9   2   -4.80    1.90
  -1  -9   2    0.30    2.30
   0   9  -2    8.10    3.00
   0   9  -2   13.60    2.30
   0   9  -2   13.20    2.30
   0   9  -2   15.00    2.30
   0  -9   2   13.00    2.50
   0  -9   2   14.70    2.10
   0  -9   2   15.00    3.30
   0  -9   2   11.50    2.60
   0  -9   2   15.60    2.70
  -1   9  -2   11.10    2.10
  -1   9  -2    7.40    2.00
   1  -9   2    8.80    3.10
   1  -9   2    4.60    2.20
   1  -9   2    6.30    1.80
   1  -9   2   10.30    2.50
   1  -9   2   10.30    2.70
  -2   9  -2  162.78    5.50
  -2   9  -2  159.58    6.10
  -2   9  -2  155.48    5.50
   2  -9   2  166.28    5.60
   2  -9   2  172.88    7.20
   2  -9   2  151.28    6.00
   2  -9   2  166.98    7.50
   2  -9   2  162.88    6.30
  -3   9  -2    1.20    2.70
  -3   9  -2    0.90    1.80
  -3   9  -2    1.50    2.70
  -3   9  -2    1.70    1.70
   3  -9   2    0.30    2.30
   3  -9   2    2.20    2.90
   3  -9   2    5.20    2.40
   3  -9   2    2.30    2.30
   3  -9   2   -1.70    2.50
  -4   9  -2  491.45   13.70
  -4   9  -2  508.85   11.70
  -4   9  -2  487.15   12.50
  -4   9  -2  507.15   11.50
   4  -9   2  516.55   13.70
   4  -9   2  498.25   13.50
   4  -9   2  517.15   12.00
   4  -9   2  502.75   13.20
   4  -9   2  483.15   13.60
  -5   9  -2   80.49    6.70
  -5   9  -2   82.89    4.90
  -5   9  -2   70.99    4.50
  -5   9  -2   87.29    4.40
   5  -9   2   82.59    5.00
   5  -9   2   90.69    6.50
   5  -9   2   83.29    4.80
   5  -9   2   95.49    8.20
   5  -9   2   75.09    6.20
  -6   9  -2   60.89    6.20
  -6   9  -2   43.70    5.00
  -6   9  -2   46.70    3.80
   6  -9   2   46.00    6.00
   6  -9   2   48.10    4.80
   6  -9   2   44.60    5.00
   6  -9   2   50.39    5.50
   6  -9   2   50.79    4.90
   4   8  -2   38.30    5.20
   4   8  -2   32.80    3.50
   4   8  -2   45.10    4.80
   4   8  -2   43.80    4.40
  -4  -8   2   48.50    5.00
  -4  -8   2   45.10    5.30
  -4  -8   2   38.00    3.40
  -4  -8   2   42.80    4.30
   3   8  -2    7.10    2.90
   3   8  -2    4.30    2.20
   3   8  -2    5.90    2.60
   3   8  -2    4.70    3.40
  -3  -8   2   -0.30    2.50
  -3  -8   2    5.90    2.60
  -3  -8   2    3.40    1.20
  -3  -8   2   11.20    3.50
  -3  -8   2    3.40    3.30
   2   8  -2   48.80    3.50
   2   8  -2   56.39    4.20
   2   8  -2   49.20    4.40
   2   8  -2   56.39    4.00
  -2  -8   2   49.70    3.70
  -2  -8   2   48.80    3.10
  -2  -8   2   51.79    4.30
  -2  -8   2   54.29    3.90
  -2  -8   2   45.00    4.80
  -2  -8   2   43.70    4.10
   1   8  -2   21.60    3.10
   1   8  -2   15.60    2.20
   1   8  -2   18.40    2.50
   1   8  -2   16.20    2.10
  -1  -8   2   12.80    2.40
  -1  -8   2   18.10    2.40
  -1  -8   2   19.70    3.00
  -1  -8   2   16.10    2.10
   0   8  -2    0.80    2.10
   0   8  -2    0.30    1.60
   0   8  -2    0.00    1.40
   0   8  -2   -2.60    1.30
   0  -8   2   -3.10    2.20
   0  -8   2   -3.30    1.50
   0  -8   2   -0.50    1.60
   0  -8   2   -0.90    1.60
   0  -8   2    0.10    1.60
  -1   8  -2  147.09    6.00
  -1   8  -2  136.69    5.40
  -1   8  -2  136.39    5.80
  -1   8  -2  159.08    5.10
   1  -8   2  159.48    5.60
   1  -8   2  158.58    5.50
   1  -8   2  170.48    6.50
   1  -8   2  153.38    5.10
   1  -8   2  150.68    6.20
  -2   8  -2   34.30    3.20
  -2   8  -2   33.90    3.40
  -2   8  -2   31.40    2.80
  -2   8  -2   31.60    2.70
   2  -8   2   33.20    2.80
   2  -8   2   37.20    3.40
   2  -8   2   30.90    3.30
   2  -8   2   22.60    2.50
   2  -8   2   30.40    3.00
  -3   8  -2   29.00    2.60
  -3   8  -2   28.80    3.20
  -3   8  -2   34.00    2.60
  -3   8  -2   36.60    3.80
   3  -8   2   27.10    2.90
   3  -8   2   30.10    3.20
   3  -8   2   29.90    2.70
   3  -8   2   30.60    3.30
  -4   8  -2   74.59    5.30
  -4   8  -2   81.19    4.40
  -4   8  -2   78.59    3.40
  -4   8  -2   83.29    3.80
   4  -8   2   77.99    3.90
   4  -8   2   86.59    5.50
   4  -8   2   85.39    6.10
   4  -8   2   81.69    5.20
   4  -8   2   79.99    4.30
  -5   8  -2   80.89    3.60
  -5   8  -2   83.39    4.80
  -5   8  -2   77.59    5.70
   5  -8   2   78.89    6.10
   5  -8   2   81.19    4.20
   5  -8   2   81.99    6.00
   5  -8   2   86.99    4.40
   5  -8   2   77.19    5.60
  -6   8  -2    4.60    2.10
  -6   8  -2    5.40    3.40
  -6   8  -2    6.80    1.80
  -6   8  -2    5.30    2.40
   6  -8   2   10.70    4.40
   6  -8   2   10.80    3.20
   6  -8   2    3.60    2.60
   6  -8   2    4.10    3.60
   6  -8   2    3.30    1.90
   5   7  -2    9.60    4.10
   5   7  -2    9.90    4.50
   5   7  -2    1.90    2.50
   5   7  -2    2.30    4.10
  -5  -7   2   10.00    2.80
  -5  -7   2    0.10    2.70
  -5  -7   2    3.50    3.30
  -5  -7   2    1.30    3.70
   4   7  -2    2.70    2.90
   4   7  -2   -1.60    3.10
   4   7  -2   -1.00    1.90
   4   7  -2    2.20    3.00
  -4  -7   2    0.50    3.10
  -4  -7   2    4.40    2.60
  -4  -7   2    1.90    2.30
  -4  -7   2   -0.40    2.60
  -4  -7   2    3.10    2.40
   3   7  -2  217.68    6.90
   3   7  -2  209.78    8.00
   3   7  -2  220.18    6.40
   3   7  -2  210.18    7.10
  -3  -7   2  226.88    7.40
  -3  -7   2  218.28    4.80
  -3  -7   2  216.08    6.40
  -3  -7   2  216.58    7.80
   2   7  -2    7.70    1.80
   2   7  -2    9.10    1.90
   2   7  -2   10.90    2.60
   2   7  -2    6.90    1.70
  -2  -7   2   10.40    2.10
  -2  -7   2    9.10    1.80
  -2  -7   2    9.70    2.00
  -2  -7   2   13.80    2.60
  -2  -7   2    6.40    1.20
   1   7  -2  233.58    6.40
   1   7  -2  230.58    6.40
   1   7  -2  230.88    7.40
   1   7  -2  233.58    6.20
  -1  -7   2  235.58    7.50
  -1  -7   2  239.48    6.50
  -1  -7   2  243.98    6.80
  -1  -7   2  228.78    6.80
  -1  -7   2  239.58    6.20
   0   7  -2  275.17    6.90
   0   7  -2  276.47    6.80
   0   7  -2  268.67    7.00
   0   7  -2  278.37    6.90
   0   7  -2  277.07    7.90
   0  -7   2  267.17    7.10
   0  -7   2  269.27    7.30
   0  -7   2  270.07    7.20
   0  -7   2  282.17    8.10
   0  -7   2  276.87    6.70
  -1   7  -2  493.55   10.90
  -1   7  -2  493.45   10.70
  -1   7  -2  496.75   11.70
  -1   7  -2  498.95   10.70
   1  -7   2  480.65   11.10
   1  -7   2  484.85   12.00
   1  -7   2  485.65   11.10
   1  -7   2  494.95   11.10
   1  -7   2  486.65   10.60
  -2   7  -2  593.14   12.40
  -2   7  -2  602.14   13.70
  -2   7  -2  583.44   12.50
  -2   7  -2  596.84   12.90
   2  -7   2  594.74   12.80
   2  -7   2  595.34   13.70
   2  -7   2  595.34   12.40
   2  -7   2  596.84   13.10
   2  -7   2  593.04   13.30
  -3   7  -2    7.00    2.10
  -3   7  -2    6.70    1.90
  -3   7  -2    6.60    1.50
   3  -7   2    7.20    1.40
   3  -7   2    7.50    1.80
   3  -7   2    5.90    1.40
   3  -7   2    4.40    1.90
   3  -7   2    6.70    2.00
  -4   7  -2   21.40    2.30
  -4   7  -2   21.10    2.30
  -4   7  -2   23.30    2.60
  -4   7  -2   20.10    2.90
   4  -7   2   23.90    2.80
   4  -7   2   20.60    2.60
   4  -7   2   22.70    2.30
   4  -7   2   21.10    2.30
  -5   7  -2   44.50    3.00
  -5   7  -2   44.30    3.70
  -5   7  -2   40.70    2.70
  -5   7  -2   38.50    3.80
   5  -7   2   41.90    3.40
   5  -7   2   46.70    4.80
   5  -7   2   41.80    2.90
   5  -7   2   41.80    3.80
   5  -7   2   43.50    4.60
  -6   7  -2  193.18    5.00
  -6   7  -2  183.18    7.80
  -6   7  -2  199.98    6.20
  -6   7  -2  202.18    6.00
   6  -7   2  202.38    6.80
   6  -7   2  181.08    7.70
   6  -7   2  192.98    7.30
   6  -7   2  205.78    8.80
   6  -7   2  195.08    4.70
  -7   7  -2   -3.20    2.40
  -7   7  -2    0.40    0.70
  -7   7  -2   -1.10    2.90
   7  -7   2    4.90    3.20
   7  -7   2    2.20    3.40
   7  -7   2   -1.40    3.70
   7  -7   2    1.70    3.80
   7  -7   2    3.10    3.00
   5   6  -2   -3.60    3.20
   5   6  -2   -2.00    2.60
   5   6  -2    1.70    2.00
   5   6  -2    5.50    3.60
  -5  -6   2   -0.50    2.00
  -5  -6   2   -1.40    2.80
  -5  -6   2   -0.20    2.60
  -5  -6   2    0.50    1.90
  -5  -6   2    3.50    2.80
   4   6  -2  186.28    7.50
   4   6  -2  202.98    6.10
   4   6  -2  202.28    6.70
   4   6  -2  196.98    7.20
  -4  -6   2  202.68    6.00
  -4  -6   2  200.68    7.90
  -4  -6   2  203.48    6.00
  -4  -6   2  193.78    6.70
  -4  -6   2  205.38    6.80
   3   6  -2   18.80    2.40
   3   6  -2   19.50    2.40
   3   6  -2   17.60    2.80
  -3  -6   2   21.20    2.20
  -3  -6   2   25.10    2.60
  -3  -6   2   23.90    2.80
  -3  -6   2   22.40    2.50
  -3  -6   2   21.60    1.00
  -3  -6   2   25.30    2.30
   2   6  -2   16.90    1.80
   2   6  -2   21.30    2.30
   2   6  -2   23.10    2.60
   2   6  -2   15.30    1.80
   2   6  -2   18.50    1.80
  -2  -6   2   21.70    2.40
  -2  -6   2   16.10    1.70
  -2  -6   2   17.60    1.80
  -2  -6   2   16.50    1.70
  -2  -6   2   16.60    2.00
  -2  -6   2   21.20    2.20
   1   6  -2  563.44   11.80
   1   6  -2  548.95   11.70
   1   6  -2  564.74   12.90
   1   6  -2  557.34   11.80
   1   6  -2  576.14   12.00
  -1  -6   2  556.94   11.90
  -1  -6   2  566.74   11.90
  -1  -6   2  558.04   12.80
  -1  -6   2  553.14   12.20
  -1  -6   2  567.74   11.60
   0   6  -2   51.69    3.20
   0   6  -2   55.99    2.60
   0   6  -2   55.39    2.50
   0   6  -2   53.09    2.50
   0   6  -2   53.49    2.50
   0  -6   2   54.49    2.70
   0  -6   2   55.39    2.80
   0  -6   2   58.59    2.70
   0  -6   2   55.79    2.40
   0  -6   2   53.99    3.40
  -1   6  -2   79.99    2.90
  -1   6  -2   75.29    3.50
  -1   6  -2   77.99    2.90
  -1   6  -2   80.69    3.00
  -1   6  -2   77.59    2.80
   1  -6   2   75.19    3.00
   1  -6   2   74.99    3.10
   1  -6   2   77.29    2.80
   1  -6   2   75.09    3.10
   1  -6   2   72.99    3.70
  -2   6  -2   53.79    3.20
  -2   6  -2   53.59    2.40
  -2   6  -2   54.29    2.50
  -2   6  -2   53.89    2.70
   2  -6   2   55.79    2.60
   2  -6   2   49.99    3.10
   2  -6   2   55.59    3.00
   2  -6   2   53.09    2.90
   2  -6   2   56.59    2.40
  -3   6  -2   58.29    3.60
  -3   6  -2   60.89    3.40
  -3   6  -2   60.09    2.70
  -3   6  -2   63.69    2.60
   3  -6   2   57.09    3.60
   3  -6   2   60.89    2.90
   3  -6   2   54.49    3.30
   3  -6   2   61.59    3.50
   3  -6   2   59.59    2.80
  -4   6  -2   34.50    2.40
  -4   6  -2   31.10    3.10
  -4   6  -2   35.00    3.40
  -4   6  -2   35.40    2.30
   4  -6   2   40.30    3.00
   4  -6   2   40.70    2.70
   4  -6   2   34.40    2.30
   4  -6   2   38.40    3.60
   4  -6   2   32.50    3.30
  -5   6  -2   63.09    3.50
  -5   6  -2   71.19    2.90
  -5   6  -2   57.19    4.20
  -5   6  -2   60.59    3.40
   5  -6   2   69.29    4.40
   5  -6   2   64.19    3.60
   5  -6   2   63.59    4.40
   5  -6   2   60.59    2.70
  -6   6  -2   51.79    3.20
  -6   6  -2   56.59    4.80
  -6   6  -2   53.99    2.70
  -6   6  -2   53.39    3.20
   6  -6   2   54.09    4.90
   6  -6   2   58.09    4.20
   6  -6   2   57.09    4.90
   6  -6   2   49.40    4.90
  -7   6  -2   18.90    3.50
   7  -6   2   16.90    3.60
   7  -6   2   21.00    4.00
   7  -6   2   20.20    3.40
   7  -6   2   22.00    4.00
   7  -6   2   22.60    3.40
   6   5  -2   78.99    5.00
   6   5  -2   81.29    6.30
   6   5  -2   73.29    6.10
   6   5  -2   81.59    6.80
  -6  -5   2   81.79    4.30
  -6  -5   2   82.89    5.50
  -6  -5   2   77.59    4.10
   5   5  -2   34.30    3.80
   5   5  -2   50.49    5.30
   5   5  -2   46.10    4.10
   5   5  -2   40.10    3.10
  -5  -5   2   40.80    3.60
  -5  -5   2   36.70    2.80
  -5  -5   2   42.20    4.50
  -5  -5   2   36.20    2.90
  -5  -5   2   41.40    4.20
   4   5  -2   74.89    4.60
   4   5  -2   77.19    5.10
   4   5  -2   76.39    4.30
  -4  -5   2   73.99    3.30
  -4  -5   2   77.49    3.30
  -4  -5   2   74.39    4.00
  -4  -5   2   75.49    3.70
  -4  -5   2   75.29    4.40
   3   5  -2  335.37    9.00
   3   5  -2  343.87    8.00
   3   5  -2  338.07    8.10
   3   5  -2  341.97    7.70
   3   5  -2  324.17    8.20
  -3  -5   2  335.57    8.70
  -3  -5   2  346.47    8.20
  -3  -5   2  333.37    7.80
  -3  -5   2  334.77    8.40
  -3  -5   2  339.17    7.70
   2   5  -2  114.19    3.70
   2   5  -2  109.49    3.40
   2   5  -2  108.49    3.60
   2   5  -2  113.59    4.40
   2   5  -2  119.49    3.90
  -2  -5   2  114.39    3.60
  -2  -5   2  105.79    3.90
  -2  -5   2  105.59    2.80
  -2  -5   2  112.29    3.50
  -2  -5   2  112.29    3.50
  -2  -5   2  111.59    4.20
   1   5  -2  111.69    3.50
   1   5  -2  113.49    4.20
   1   5  -2  120.79    3.50
   1   5  -2  116.69    3.50
   1   5  -2  116.09    3.50
  -1  -5   2  112.99    4.20
  -1  -5   2  112.79    3.50
  -1  -5   2  118.49    3.80
  -1  -5   2  114.59    3.30
   0   5  -2  780.82   15.10
   0   5  -2  752.62   15.70
   0   5  -2  785.72   15.00
   0   5  -2  760.42   15.00
   0   5  -2  766.32   14.90
   0  -5   2  758.32   15.30
   0  -5   2  746.13   15.10
   0  -5   2  781.32   14.90
   0  -5   2  766.62   15.90
   0  -5   2  763.82   15.10
  -1   5  -2  806.52   16.40
  -1   5  -2  823.12   15.80
  -1   5  -2  831.72   15.90
  -1   5  -2  809.12   15.70
   1  -5   2  804.82   15.90
   1  -5   2  794.52   16.00
   1  -5   2  811.12   16.10
   1  -5   2  819.52   16.50
   1  -5   2  798.12   15.60
  -2   5  -2  588.94   12.00
  -2   5  -2  575.04   12.40
  -2   5  -2  572.84   11.70
  -2   5  -2  572.94   11.50
  -2   5  -2  581.44   11.40
   2  -5   2  568.64   12.20
   2  -5   2  576.04   11.60
   2  -5   2  571.14   12.00
   2  -5   2  573.44   11.60
   2  -5   2  573.44   12.30
  -3   5  -2 1036.00   20.70
  -3   5  -2 1059.59   20.20
  -3   5  -2 1060.39   20.50
  -3   5  -2 1077.39   21.40
   3  -5   2 1064.49   21.20
   3  -5   2 1083.09   20.50
   3  -5   2 1065.39   21.00
   3  -5   2 1064.59   21.00
   3  -5   2 1028.10   20.10
  -4   5  -2  928.81   17.90
  -4   5  -2  937.81   18.50
  -4   5  -2  912.91   18.50
  -4   5  -2  932.11   19.60
   4  -5   2  934.51   19.00
   4  -5   2  928.91   18.50
   4  -5   2  917.01   17.70
   4  -5   2  944.81   19.10
   4  -5   2  935.21   19.40
  -5   5  -2    5.00    1.30
  -5   5  -2    9.00    1.30
  -5   5  -2    6.40    2.10
  -5   5  -2    8.10    1.50
   5  -5   2    4.50    2.00
   5  -5   2    4.50    1.60
   5  -5   2    3.50    1.70
   5  -5   2    6.60    2.00
  -6   5  -2  431.36   11.70
  -6   5  -2  442.56    9.40
  -6   5  -2  446.16    9.10
   6  -5   2  431.46   11.10
   6  -5   2  449.66   11.00
   6  -5   2  445.46   11.80
   6  -5   2  439.06   11.60
  -7   5  -2   62.89    4.80
  -7   5  -2   60.49    5.80
   7  -5   2   73.79    6.20
   7  -5   2   63.59    6.50
   7  -5   2   68.49    5.40
   7  -5   2   68.59    5.50
   7  -5   2   72.49    6.00
   6   4  -2   44.80    4.80
   6   4  -2   43.60    4.00
   6   4  -2   38.30    3.70
   6   4  -2   38.40    3.80
  -6  -4   2   36.30    3.00
  -6  -4   2   41.30    4.40
  -6  -4   2   40.30    4.50
  -6  -4   2   34.50    2.20
  -6  -4   2   39.60    2.20
   5   4  -2  132.39    5.50
   5   4  -2  135.79    5.90
   5   4  -2  127.59    5.30
  -5  -4   2  136.19    3.90
  -5  -4   2  127.99    5.30
  -5  -4   2  133.29    4.50
  -5  -4   2  128.39    4.30
   4   4  -2    3.50    1.70
   4   4  -2    3.20    1.90
   4   4  -2    1.30    1.50
   4   4  -2    1.40    1.00
  -4  -4   2   -0.10    1.50
  -4  -4   2    1.50    1.40
  -4  -4   2    0.30    1.10
   3   4  -2   57.59    2.70
   3   4  -2   58.39    2.60
   3   4  -2   53.89    2.40
   3   4  -2   54.49    3.10
   3   4  -2   54.29    2.20
  -3  -4   2   57.89    2.80
  -3  -4   2   54.09    2.30
  -3  -4   2   55.49    2.30
  -3  -4   2   54.79    2.90
  -3  -4   2   53.69    2.70
   2   4  -2  121.39    3.50
   2   4  -2  116.79    3.50
   2   4  -2  121.09    3.60
   2   4  -2  123.29    3.30
   2   4  -2  117.39    4.10
  -2  -4   2  118.69    4.10
  -2  -4   2  116.29    2.60
  -2  -4   2  119.09    3.30
  -2  -4   2  115.59    3.70
  -2  -4   2  118.79    3.40
  -2  -4   2  115.69    3.30
   1   4  -2 1196.98   22.20
   1   4  -2 1227.38   23.00
   1   4  -2 1160.48   22.20
   1   4  -2 1219.78   22.20
   1   4  -2 1151.78   22.10
  -1  -4   2 1110.19   22.00
  -1  -4   2 1202.48   22.90
  -1  -4   2 1189.68   22.50
  -1  -4   2 1194.58   22.20
   0   4  -2  497.75   10.50
   0   4  -2  497.35   10.00
   0   4  -2  500.25   10.00
   0   4  -2  495.25    9.90
   0   4  -2  494.35    9.90
   0  -4   2  495.45   10.60
   0  -4   2  507.15    9.90
   0  -4   2  500.75   10.10
   0  -4   2  507.65   10.10
   0  -4   2  501.05   10.20
  -1   4  -2  384.06    8.00
  -1   4  -2  381.46    8.50
  -1   4  -2  383.86    7.90
  -1   4  -2  386.76    8.10
  -1   4  -2  385.16    7.90
   1  -4   2  384.86    8.20
   1  -4   2  388.96    7.90
   1  -4   2  376.36    8.40
   1  -4   2  380.86    8.00
   1  -4   2  393.46    8.30
  -2   4  -2   35.30    2.30
  -2   4  -2   35.90    1.50
  -2   4  -2   34.30    1.80
  -2   4  -2   36.40    2.00
  -2   4  -2   35.00    1.70
   2  -4   2   40.00    2.20
   2  -4   2   34.90    2.00
   2  -4   2   35.20    1.60
   2  -4   2   36.60    2.00
   2  -4   2   34.50    2.00
  -3   4  -2  346.77    7.40
  -3   4  -2  337.07    6.80
  -3   4  -2  337.57    7.80
  -3   4  -2  350.06    8.40
  -3   4  -2  350.06    7.80
   3  -4   2  343.87    8.20
   3  -4   2  337.57    8.00
   3  -4   2  347.47    8.10
   3  -4   2  340.87    7.10
   3  -4   2  357.96    7.90
  -4   4  -2  275.57    7.30
  -4   4  -2  260.67    6.10
  -4   4  -2  269.27    6.50
  -4   4  -2  260.67    6.60
   4  -4   2  267.87    7.20
   4  -4   2  260.47    5.50
   4  -4   2  263.07    7.30
   4  -4   2  277.27    7.00
   4  -4   2  270.87    6.80
  -5   4  -2   13.80    1.60
  -5   4  -2   11.90    1.70
  -5   4  -2   12.30    1.30
   5  -4   2   15.40    2.20
   5  -4   2   13.90    2.10
   5  -4   2   13.40    2.10
   5  -4   2   21.10    2.20
  -6   4  -2   45.40    4.30
  -6   4  -2   40.60    2.20
  -6   4  -2   39.60    2.40
   6  -4   2   36.70    3.60
   6  -4   2   38.30    3.80
   6  -4   2   38.40    3.70
   6  -4   2   41.00    3.80
  -7   4  -2   12.80    1.00
  -7   4  -2   10.00    3.20
  -7   4  -2   12.30    1.30
  -7   4  -2   10.10    2.80
   7  -4   2    9.00    3.70
   7  -4   2   12.20    3.00
   7  -4   2   15.00    4.20
   7  -4   2   18.80    3.20
   7  -4   2   14.90    3.50
   7   3  -2    0.30    2.90
   7   3  -2    8.80    4.00
   7   3  -2    4.00    2.90
   7   3  -2    4.10    2.80
  -7  -3   2    4.20    2.00
  -7  -3   2    3.30    2.70
  -7  -3   2   -1.30    2.20
   6   3  -2   21.00    3.00
   6   3  -2   19.10    2.80
   6   3  -2   16.30    3.10
  -6  -3   2   19.60    2.00
  -6  -3   2   19.60    2.70
  -6  -3   2   19.50    3.30
   5   3  -2   67.49    3.10
   5   3  -2   67.79    3.80
   5   3  -2   66.79    4.10
   5   3  -2   61.69    3.50
  -5  -3   2   65.69    3.60
  -5  -3   2   66.99    2.80
  -5  -3   2   67.39    2.60
  -5  -3   2   65.89    4.10
  -5  -3   2   66.89    2.30
   4   3  -2  345.97    7.50
   4   3  -2  343.47    8.30
   4   3  -2  346.07    8.00
   4   3  -2  335.07    8.20
   4   3  -2  341.57    7.60
  -4  -3   2  337.87    7.10
  -4  -3   2  339.07    7.50
  -4  -3   2  348.57    7.50
  -4  -3   2  334.37    8.00
   3   3  -2    3.60    0.90
   3   3  -2    2.10    1.00
   3   3  -2    5.40    0.90
   3   3  -2    5.30    0.90
   3   3  -2    4.90    1.00
  -3  -3   2    5.10    0.90
  -3  -3   2    3.90    0.80
  -3  -3   2    4.00    1.00
  -3  -3   2    6.20    1.30
  -3  -3   2   10.00    1.20
   2   3  -2 1844.12   33.70
   2   3  -2 1823.62   34.30
   2   3  -2 1827.62   33.80
   2   3  -2 1886.21   33.80
   2   3  -2 1789.82   33.50
  -2  -3   2 1854.31   33.60
  -2  -3   2 1853.51   33.70
  -2  -3   2 1849.61   34.20
  -2  -3   2 1807.32   33.60
  -2  -3   2 1880.91   34.10
   1   3  -2  646.24   12.20
   1   3  -2  646.14   12.40
   1   3  -2  622.64   12.10
   1   3  -2  638.24   12.80
   1   3  -2  642.84   12.20
  -1  -3   2  633.74   12.10
  -1  -3   2  651.03   12.80
  -1  -3   2  632.24   12.50
  -1  -3   2  640.34   12.20
   0   3  -2  607.44   11.70
   0   3  -2  599.74   11.60
   0   3  -2  605.14   12.00
   0   3  -2  605.64   11.60
   0  -3   2  619.74   11.60
   0  -3   2  598.74   11.80
   0  -3   2  610.14   12.10
   0  -3   2  622.44   11.80
   0  -3   2  609.74   11.70
   1  -3   2 9999.00  184.38
  -2   3  -2   30.70    1.10
  -2   3  -2   30.00    1.50
  -2   3  -2   31.30    1.70
  -2   3  -2   30.60    1.70
  -2   3  -2   29.00    1.90
   2  -3   2   30.70    1.80
   2  -3   2   29.20    1.60
   2  -3   2   30.20    1.40
   2  -3   2   32.70    1.80
   2  -3   2   34.00    1.90
  -3   3  -2   49.70    2.60
  -3   3  -2   51.49    2.30
  -3   3  -2   48.90    2.10
  -3   3  -2   49.10    1.30
  -3   3  -2   47.10    2.20
   3  -3   2   52.39    2.50
   3  -3   2   48.90    1.60
   3  -3   2   50.29    2.60
   3  -3   2   47.70    2.30
   3  -3   2   48.70    2.50
  -4   3  -2  119.29    3.70
  -4   3  -2  119.29    3.50
  -4   3  -2  121.49    4.40
  -4   3  -2  119.69    4.00
   4  -3   2  119.59    4.10
   4  -3   2  125.89    4.40
   4  -3   2  122.49    4.10
   4  -3   2  120.69    4.20
   4  -3   2  115.49    4.20
  -5   3  -2  232.78    6.40
  -5   3  -2  229.18    5.60
  -5   3  -2  230.88    6.80
  -5   3  -2  223.08    5.40
   5  -3   2  219.28    6.50
   5  -3   2  227.28    6.50
   5  -3   2  232.68    7.10
   5  -3   2  223.18    6.90
   5  -3   2  223.28    6.80
  -6   3  -2    5.10    2.00
  -6   3  -2    2.90    1.20
  -6   3  -2    2.20    1.20
   6  -3   2    4.70    2.40
   6  -3   2    1.30    2.00
   6  -3   2    1.60    2.00
   6  -3   2    1.80    2.30
  -7   3  -2  241.48    7.80
  -7   3  -2  244.68    5.00
  -7   3  -2  259.37    8.30
  -7   3  -2  237.08    5.00
   7  -3   2  248.48    9.20
   7  -3   2  241.78    8.40
   7  -3   2  237.28    8.80
   7   2  -2  204.98    8.10
   7   2  -2  206.28    8.30
   7   2  -2  205.48    7.70
   7   2  -2  218.48    7.10
  -7  -2   2  196.48    5.80
   6   2  -2  114.19    4.70
   6   2  -2  116.59    4.80
   6   2  -2  116.89    5.00
   6   2  -2  110.39    5.10
  -6  -2   2  111.79    3.90
  -6  -2   2  118.29    4.20
  -6  -2   2  111.19    5.30
   5   2  -2   97.89    4.30
   5   2  -2   98.79    3.90
   5   2  -2   92.19    3.60
   5   2  -2  102.49    3.80
  -5  -2   2   97.29    3.80
  -5  -2   2  102.69    4.30
  -5  -2   2   92.79    3.30
   4   2  -2  246.48    5.80
   4   2  -2  245.58    5.40
   4   2  -2  240.38    6.10
   4   2  -2  238.88    5.80
   4   2  -2  240.18    6.10
  -4  -2   2  245.88    5.10
  -4  -2   2  239.18    5.90
  -4  -2   2  239.68    5.50
  -4  -2   2  248.28    6.30
  -4  -2   2  242.68    4.90
   3   2  -2    8.10    1.10
   3   2  -2    9.40    1.10
   3   2  -2    9.20    1.00
   3   2  -2    7.70    0.90
   3   2  -2    8.10    0.90
  -3  -2   2    6.00    1.00
  -3  -2   2    7.40    1.00
  -3  -2   2    8.60    0.80
  -3  -2   2    7.20    0.80
  -3  -2   2    7.70    0.80
   2   2  -2  679.43   12.60
   2   2  -2  661.13   12.40
   2   2  -2  660.43   12.40
   2   2  -2  649.64   12.50
   2   2  -2  649.43   13.40
  -2  -2   2  668.03   12.80
  -2  -2   2  657.73   12.40
  -2  -2   2  655.63   12.40
  -2  -2   2  650.33   12.30
   1   2  -2  187.88    3.80
   1   2  -2  187.48    3.90
   1   2  -2  185.68    4.10
   1   2  -2  186.08    3.90
   1   2  -2  184.68    4.20
  -1  -2   2  188.48    3.90
  -1  -2   2  183.48    3.60
  -1  -2   2  178.68    4.20
  -1  -2   2  189.48    3.80
  -1  -2   2  188.58    4.20
   0   2  -2  547.15   10.50
   0   2  -2  571.34   10.50
   0   2  -2  551.54   10.40
   0   2  -2  564.54   10.60
   0   2  -2  562.84   10.70
   0  -2   2  551.04   10.50
   0  -2   2  548.15   10.50
   0  -2   2  558.34   10.70
   0  -2   2  553.74   10.40
   0  -2   2  552.04   10.70
  -1   2  -2  148.69    3.70
  -1   2  -2  143.99    3.20
  -1   2  -2  149.19    3.40
  -1   2  -2  150.38    3.50
  -1   2  -2  143.09    3.50
   1  -2   2  143.39    3.30
   1  -2   2  146.49    3.60
   1  -2   2  140.89    3.50
   1  -2   2  147.49    3.60
   1  -2   2  143.59    3.40
  -2   2  -2  289.17    5.60
  -2   2  -2  282.57    6.60
  -2   2  -2  296.37    6.50
  -2   2  -2  294.37    6.30
  -2   2  -2  292.47    6.30
   2  -2   2  290.97    6.50
   2  -2   2  291.77    5.80
   2  -2   2  289.77    6.60
   2  -2   2  300.77    6.40
   2  -2   2  295.37    6.70
  -3   2  -2  851.41   16.70
  -3   2  -2  865.11   17.20
  -3   2  -2  827.92   15.50
  -3   2  -2  860.31   17.30
  -3   2  -2  870.91   16.70
   3  -2   2  888.91   17.30
   3  -2   2  871.91   17.20
   3  -2   2  893.11   17.00
   3  -2   2  867.01   17.30
   3  -2   2  864.71   16.90
  -4   2  -2  165.38    4.30
  -4   2  -2  160.78    5.00
  -4   2  -2  164.08    4.40
  -4   2  -2  158.88    4.90
   4  -2   2  166.28    5.10
   4  -2   2  156.28    5.00
   4  -2   2  159.88    4.60
   4  -2   2  162.48    4.80
   4  -2   2  163.48    5.00
  -5   2  -2    5.20    1.60
  -5   2  -2    4.70    1.20
  -5   2  -2    6.60    1.20
  -5   2  -2    5.30    1.70
   5  -2   2    8.30    2.20
   5  -2   2    3.50    2.00
   5  -2   2    6.70    1.90
   5  -2   2    7.10    1.80
   5  -2   2    6.50    1.70
  -6   2  -2  171.58    6.10
  -6   2  -2  172.58    4.50
  -6   2  -2  167.08    4.50
   6  -2   2  162.38    6.40
   6  -2   2  167.78    5.90
   6  -2   2  171.28    6.40
   6  -2   2  169.98    6.40
  -7   2  -2   24.30    3.30
  -7   2  -2   24.70    1.90
  -7   2  -2   24.30    1.90
  -7   2  -2   22.00    3.60
   7  -2   2   30.00    4.10
   7  -2   2   27.80    3.00
   7  -2   2   36.80    4.10
   7  -2   2   27.40    3.30
   7  -2   2   28.30    3.80
   7   1  -2  195.78    4.30
   7   1  -2  214.28    7.60
   7   1  -2  202.08    4.30
   7   1  -2  206.78    6.90
   7   1  -2  203.88    7.50
  -7  -1   2  200.38    7.00
  -7  -1   2  195.18    5.40
   6   1  -2  111.29    4.20
   6   1  -2  105.49    4.60
   6   1  -2  102.49    3.00
   6   1  -2  107.69    4.40
   6   1  -2  104.49    4.50
  -6  -1   2  108.39    4.70
  -6  -1   2  106.79    3.50
   5   1  -2    9.60    1.40
   5   1  -2    9.40    1.00
   5   1  -2    8.00    1.40
   5   1  -2   10.90    1.60
   5   1  -2    7.50    1.30
  -5  -1   2    9.50    1.30
  -5  -1   2   10.10    1.10
  -5  -1   2    9.10    1.50
   4   1  -2  792.62   15.00
   4   1  -2  748.53   14.40
   4   1  -2  782.22   15.30
   4   1  -2  782.12   14.90
   4   1  -2  735.83   14.30
   4   1  -2  783.72   15.10
  -4  -1   2  767.32   15.30
  -4  -1   2  764.42   14.60
  -4  -1   2  769.62   14.90
   3   1  -2  973.80   18.30
   3   1  -2  966.90   18.10
   3   1  -2 1002.40   18.10
   3   1  -2  980.80   18.30
   3   1  -2  979.30   18.40
  -3  -1   2  998.30   18.50
  -3  -1   2  964.00   18.00
  -3  -1   2  967.00   18.40
   2   1  -2  703.03   12.80
   2   1  -2  678.93   12.80
   2   1  -2  664.53   12.50
   2   1  -2  715.33   12.90
   2   1  -2  688.73   12.70
   2   1  -2  698.23   13.00
  -2  -1   2  712.83   12.90
  -2  -1   2  682.33   12.70
  -2  -1   2  673.43   13.10
   1   1  -2   53.59    1.30
   1   1  -2   52.69    1.40
   1   1  -2   52.19    1.20
   1   1  -2   53.59    1.20
   1   1  -2   53.69    1.20
   1   1  -2   52.99    1.60
  -1  -1   2   53.89    1.70
  -1  -1   2   51.89    1.20
  -1  -1   2   53.29    1.10
  -1  -1   2   53.19    1.20
  -1  -1   2   52.99    1.20
  -1  -1   2   51.69    1.40
   0   1  -2 2667.83   50.29
  -1   1  -2  550.64   10.80
  -1   1  -2  554.34   10.60
  -1   1  -2  542.35   10.80
  -1   1  -2  548.85   10.70
  -1   1  -2  545.75   10.40
  -1   1  -2  544.45   10.60
   1  -1   2  544.45   10.60
   1  -1   2  570.04   10.90
   1  -1   2  570.34   10.70
   1  -1   2  560.54   10.80
   1  -1   2  575.44   10.70
  -2   1  -2 2781.42   50.39
  -2   1  -2 2773.52   50.39
   2  -1   2 2777.32   50.29
   2  -1   2 2740.63   50.39
   2  -1   2 2755.92   50.49
  -3   1  -2 1443.96   27.30
  -3   1  -2 1438.46   27.00
  -3   1  -2 1458.65   27.70
  -3   1  -2 1453.65   27.60
   3  -1   2 1433.26   27.20
   3  -1   2 1442.16   27.80
   3  -1   2 1477.75   27.40
   3  -1   2 1475.05   27.60
   3  -1   2 1477.15   27.80
  -4   1  -2  103.29    3.10
  -4   1  -2  103.69    3.60
  -4   1  -2  107.39    3.90
  -4   1  -2  108.09    4.00
   4  -1   2  104.59    3.50
   4  -1   2  105.89    3.90
   4  -1   2  101.69    3.90
   4  -1   2  105.59    3.80
   4  -1   2  103.09    4.10
  -5   1  -2 1137.99   21.80
  -5   1  -2 1167.38   22.30
  -5   1  -2 1165.18   23.00
  -5   1  -2 1164.98   23.40
   5  -1   2 1173.28   23.10
   5  -1   2 1128.39   23.20
   5  -1   2 1135.69   23.50
   5  -1   2 1124.79   23.10
   5  -1   2 1154.38   22.50
  -6   1  -2   90.79    3.10
  -6   1  -2   92.09    4.60
  -6   1  -2   91.19    4.60
  -6   1  -2   96.99    3.60
   6  -1   2   93.79    5.30
   6  -1   2   87.69    4.60
   6  -1   2   97.69    4.90
   6  -1   2   91.99    4.30
   6  -1   2   78.09    5.50
  -7   1  -2    0.80    2.50
  -7   1  -2   -1.10    1.30
  -7   1  -2    0.60    1.20
   7  -1   2    0.80    2.80
   7  -1   2   -3.60    3.60
   7  -1   2    2.10    3.20
   7  -1   2   -3.00    3.70
   7  -1   2    0.80    2.30
   7   0  -2  287.77    7.80
   7   0  -2  271.37    8.40
   7   0  -2  279.47    6.90
   7   0  -2  279.87    8.40
  -7   0   2  279.67    6.70
  -7   0   2  285.07    7.70
   6   0  -2   25.10    2.60
   6   0  -2   32.60    3.20
   6   0  -2   29.50    3.10
   6   0  -2   27.60    2.70
   6   0  -2   25.70    2.40
  -6   0   2   27.70    2.80
  -6   0   2   28.60    2.10
   5   0  -2  223.58    5.80
   5   0  -2  217.78    5.60
   5   0  -2  222.68    5.90
   5   0  -2  218.48    5.50
   5   0  -2  224.68    5.30
  -5   0   2  226.98    5.70
  -5   0   2  229.28    5.20
   4   0  -2  398.36    7.80
   4   0  -2  408.96    8.40
   4   0  -2  407.56    8.50
   4   0  -2  419.16    8.70
   4   0  -2  401.56    8.30
  -4   0   2  410.36    8.50
  -4   0   2  413.16    8.10
   3   0  -2  419.36    7.90
   3   0  -2  402.26    8.10
   3   0  -2  412.96    8.00
   3   0  -2  420.06    8.10
   3   0  -2  418.76    8.20
  -3   0   2  416.46    8.20
  -3   0   2  405.36    7.90
   2   0  -2   28.60    1.20
   2   0  -2   29.80    0.90
   2   0  -2   27.90    0.90
  -2   0   2   29.10    0.90
  -2   0   2   29.70    0.70
   1   0  -2  107.19    2.60
   1   0  -2  109.09    2.40
   0   0  -2   46.60    1.30
   0   0  -2   46.60    1.40
   0   0  -2   48.80    1.30
   0   0  -2   46.80    1.30
   0   0  -2   45.50    1.30
   0   0   2   46.40    1.30
   0   0   2   44.40    1.40
   0   0   2   47.30    1.30
   0   0   2   46.20    1.30
   0   0   2   46.70    1.20
  -1   0  -2  316.07    6.50
  -1   0  -2  309.87    6.40
  -1   0  -2  310.17    6.20
  -1   0  -2  317.27    6.60
  -1   0  -2  306.97    6.30
   1   0   2  304.97    6.40
   1   0   2  311.07    6.50
   1   0   2  306.87    6.50
   1   0   2  309.67    6.20
   1   0   2  316.07    6.40
  -2   0  -2   74.09    2.30
  -2   0  -2   73.19    2.60
  -2   0  -2   74.79    2.70
  -2   0  -2   71.99    2.50
  -2   0  -2   75.49    2.30
   2   0   2   72.79    2.70
   2   0   2   73.19    2.60
   2   0   2   70.89    2.40
   2   0   2   77.89    2.60
   2   0   2   76.39    2.20
  -3   0  -2  433.86    9.40
  -3   0  -2  422.16    9.60
  -3   0  -2  428.96    9.30
  -3   0  -2  433.26    8.80
  -3   0  -2  421.76    8.10
   3   0   2  426.96    9.30
   3   0   2  424.46    8.80
   3   0   2  431.56    9.70
   3   0   2  425.26    9.40
   3   0   2  424.26    9.20
  -4   0  -2  393.16    9.10
  -4   0  -2  398.76    9.60
  -4   0  -2  387.96    7.60
  -4   0  -2  392.96    9.00
  -4   0  -2  396.46    8.50
   4   0   2  399.96    9.30
   4   0   2  392.86    9.10
   4   0   2  395.36    8.50
   4   0   2  397.56    9.60
   4   0   2  400.36    9.30
  -5   0  -2   17.30    1.20
  -5   0  -2   17.40    2.00
  -5   0  -2   16.80    1.80
  -5   0  -2   18.10    2.70
   5   0   2   19.80    2.30
   5   0   2   13.00    2.40
   5   0   2   13.50    1.70
   5   0   2   19.30    2.30
  -6   0  -2   58.69    2.80
  -6   0  -2   61.09    4.10
  -6   0  -2   60.09    4.30
  -6   0  -2   60.49    3.50
   6   0   2   60.19    5.20
   6   0   2   62.19    4.20
   6   0   2   58.59    3.40
   6   0   2   55.29    5.50
   6   0   2   56.29    4.90
  -7   0  -2  149.99    5.90
  -7   0  -2  151.58    4.30
  -7   0  -2  156.58    4.80
   7   0   2  157.28    5.40
   7   0   2  158.98    7.70
   7   0   2  154.88    7.70
   7   0   2  160.18    7.30
   7   0   2  157.68    8.50
   8  -1  -2    9.10    3.70
   8  -1  -2   10.70    3.10
   8  -1  -2   13.50    2.80
   8  -1  -2   14.70    3.10
   8  -1  -2   10.60    3.90
  -8   1   2    8.10    1.70
  -8   1   2    1.20    1.90
   7  -1  -2    3.50    2.40
   7  -1  -2    3.10    2.00
   7  -1  -2    4.90    2.00
   7  -1  -2    1.20    2.30
   7  -1  -2    6.00    2.00
  -7   1   2    3.50    1.70
  -7   1   2    3.20    1.40
   6  -1  -2    0.40    1.40
   6  -1  -2    0.50    1.60
   6  -1  -2    1.40    1.50
   6  -1  -2   -0.50    1.30
  -6   1   2   -0.70    1.20
   5  -1  -2  115.99    3.60
   5  -1  -2  113.99    3.70
   5  -1  -2  110.99    3.50
   5  -1  -2  110.49    3.80
  -5   1   2  108.49    3.10
  -5   1   2  105.39    3.30
   4  -1  -2  129.79    3.50
   4  -1  -2  133.69    3.50
   4  -1  -2  131.69    3.50
   4  -1  -2  134.19    2.80
   4  -1  -2  135.09    3.40
  -4   1   2  129.49    3.30
  -4   1   2  129.99    3.20
   3  -1  -2   99.69    2.50
   3  -1  -2  101.19    2.60
   3  -1  -2   98.59    2.50
   3  -1  -2   98.59    2.40
   3  -1  -2   97.49    2.30
  -3   1   2   95.89    2.40
  -3   1   2   94.89    2.30
   1  -1  -2  907.51   16.30
  -1   1   2  883.21   16.30
  -1  -1  -2   57.49    2.00
  -1  -1  -2   57.89    1.90
  -1  -1  -2   59.69    1.80
  -1  -1  -2   55.79    2.10
  -1  -1  -2   58.59    1.90
   1   1   2   58.49    1.90
   1   1   2   57.79    2.10
   1   1   2   58.09    2.10
   1   1   2   56.19    1.90
   1   1   2   57.89    1.80
  -2  -1  -2  363.06    8.20
  -2  -1  -2  362.86    7.80
  -2  -1  -2  358.86    7.90
  -2  -1  -2  358.76    7.40
  -2  -1  -2  364.16    7.60
   2   1   2  367.46    7.80
   2   1   2  359.96    7.70
   2   1   2  363.96    8.10
   2   1   2  366.56    8.00
   2   1   2  366.16    7.40
  -3  -1  -2   27.70    1.60
  -3  -1  -2   24.60    2.30
  -3  -1  -2   27.50    1.90
  -3  -1  -2   26.50    1.60
  -3  -1  -2   24.20    1.30
  -3  -1  -2   27.90    2.10
   3   1   2   27.50    2.10
   3   1   2   21.80    1.90
   3   1   2   25.40    2.20
   3   1   2   28.30    1.60
   3   1   2   23.60    2.00
  -4  -1  -2  237.78    5.90
  -4  -1  -2  245.28    6.40
  -4  -1  -2  244.38    6.70
  -4  -1  -2  240.98    5.30
  -4  -1  -2  240.48    7.00
   4   1   2  243.68    6.60
   4   1   2  244.98    6.60
   4   1   2  241.28    6.40
   4   1   2  243.58    5.60
   4   1   2  238.38    7.00
  -5  -1  -2   70.89    2.60
  -5  -1  -2   66.59    3.10
  -5  -1  -2   70.29    3.60
  -5  -1  -2   72.49    4.00
  -5  -1  -2   68.69    4.30
   5   1   2   75.69    4.00
   5   1   2   63.59    3.70
   5   1   2   71.29    4.10
   5   1   2   72.89    2.90
   5   1   2   67.39    4.50
  -6  -1  -2   85.29    3.50
  -6  -1  -2   92.49    4.70
  -6  -1  -2   92.59    4.50
  -6  -1  -2   90.39    3.00
  -6  -1  -2   80.69    5.20
   6   1   2   93.39    5.10
   6   1   2   86.39    5.80
   6   1   2   83.39    5.30
   6   1   2   92.99    3.70
   6   1   2   81.39    4.80
  -7  -1  -2   77.29    3.60
  -7  -1  -2   86.89    4.50
  -7  -1  -2   76.19    5.10
   7   1   2   88.29    5.80
   7   1   2   86.49    4.00
   7   1   2   79.99    5.90
   7   1   2   98.69    7.00
   7   1   2   85.39    6.90
   8  -2  -2   16.30    3.10
   8  -2  -2   16.80    3.80
   8  -2  -2   18.00    4.00
   8  -2  -2   17.60    2.80
  -8   2   2   22.60    2.00
   7  -2  -2    5.70    1.90
   7  -2  -2    6.80    2.50
   7  -2  -2    6.00    2.60
   7  -2  -2    4.70    2.40
   7  -2  -2    8.50    2.10
  -7   2   2    8.80    1.70
  -7   2   2    7.10    1.50
   6  -2  -2    1.60    1.50
   6  -2  -2    0.70    1.40
   6  -2  -2    0.70    1.30
   6  -2  -2    2.20    1.70
  -6   2   2    0.30    1.10
  -6   2   2    0.50    1.20
   5  -2  -2   75.59    3.00
   5  -2  -2   76.59    3.00
   5  -2  -2   74.79    3.10
   5  -2  -2   75.29    2.90
  -5   2   2   76.09    2.60
  -5   2   2   76.29    2.80
   4  -2  -2   30.40    1.60
   4  -2  -2   28.10    1.70
   4  -2  -2   30.40    1.70
   4  -2  -2   31.30    1.30
   4  -2  -2   29.90    1.60
  -4   2   2   32.00    1.40
  -4   2   2   28.40    1.60
   3  -2  -2 1103.89   20.60
   3  -2  -2 1122.99   20.80
   3  -2  -2 1128.99   20.40
   3  -2  -2 1119.19   20.60
  -3   2   2 1116.39   20.70
  -3   2   2 1110.59   20.30
   2  -2  -2  185.98    3.80
   2  -2  -2  187.58    4.10
   2  -2  -2  185.98    3.80
   2  -2  -2  184.18    3.90
  -2   2   2  184.98    3.80
  -2   2   2  182.38    4.00
   1  -2  -2   37.70    1.30
   1  -2  -2   37.10    1.20
   1  -2  -2   42.40    1.60
   1  -2  -2   34.60    1.20
  -1   2   2   37.30    1.10
  -1   2   2   42.80    1.30
  -1   2   2   38.20    1.60
   0  -2  -2  407.86    8.30
   0  -2  -2  415.86    8.40
   0  -2  -2  413.46    8.00
   0  -2  -2  406.16    8.10
   0  -2  -2  412.76    8.10
   0   2   2  412.26    8.40
   0   2   2  414.46    8.20
   0   2   2  409.16    8.20
   0   2   2  410.96    7.90
  -1  -2  -2    8.70    0.90
  -1  -2  -2    8.00    0.90
  -1  -2  -2    7.90    0.90
  -1  -2  -2    8.90    1.10
  -1  -2  -2    7.70    0.90
   1   2   2    7.40    1.10
   1   2   2    7.90    1.00
   1   2   2   10.30    1.20
   1   2   2    8.70    1.00
   1   2   2    8.20    0.80
  -2  -2  -2  443.56    9.00
  -2  -2  -2  436.56    9.40
  -2  -2  -2  449.16    9.60
  -2  -2  -2  434.46    9.00
  -2  -2  -2  454.35   10.00
  -2  -2  -2  445.66    9.30
   2   2   2  450.85    9.30
   2   2   2  456.75    9.60
   2   2   2  470.95    9.90
   2   2   2  465.55    9.90
   2   2   2  441.56    8.90
  -3  -2  -2  585.54   11.70
  -3  -2  -2  591.44   13.10
  -3  -2  -2  593.44   12.30
  -3  -2  -2  578.44   12.60
  -3  -2  -2  595.94   12.00
  -3  -2  -2  585.44   11.70
   3   2   2  615.24   12.80
   3   2   2  617.14   12.60
   3   2   2  592.34   13.00
   3   2   2  578.54   12.20
   3   2   2  587.94   11.60
  -4  -2  -2   96.79    4.60
  -4  -2  -2   87.99    4.40
  -4  -2  -2   88.59    3.10
  -4  -2  -2   92.39    3.60
  -4  -2  -2   95.99    3.50
   4   2   2   92.09    3.00
   4   2   2   90.19    4.10
   4   2   2   92.89    4.00
   4   2   2   94.69    4.50
   4   2   2   90.99    3.70
  -5  -2  -2   -1.30    2.00
  -5  -2  -2   -1.50    1.40
  -5  -2  -2    3.40    1.20
  -5  -2  -2   -1.00    1.40
  -5  -2  -2   -0.80    1.70
   5   2   2    1.70    2.10
   5   2   2    0.90    1.00
   5   2   2   -1.30    1.60
   5   2   2    1.00    2.00
   5   2   2    1.50    2.20
  -6  -2  -2   87.19    6.00
  -6  -2  -2   90.79    5.10
  -6  -2  -2   89.69    3.90
  -6  -2  -2   89.19    3.60
  -6  -2  -2   80.89    4.40
   6   2   2   89.19    3.40
   6   2   2   94.09    7.30
   6   2   2   81.79    4.80
   6   2   2   82.19    6.30
   6   2   2   94.09    6.00
  -7  -2  -2    0.20    1.90
  -7  -2  -2   -0.20    1.90
  -7  -2  -2    0.40    2.50
   7   2   2   -2.20    3.80
   7   2   2    4.00    3.50
   7   2   2    6.10    3.40
   7   2   2   15.10    3.70
   7   2   2    4.90    1.60
   8  -3  -2    1.50    3.40
   8  -3  -2   -0.40    2.20
   8  -3  -2   -0.50    2.70
   8  -3  -2   -1.20    3.70
   8  -3  -2   -1.80    3.40
  -8   3   2   -2.10    1.40
  -8   3   2    0.30    1.50
   7  -3  -2  160.58    5.40
   7  -3  -2  163.48    6.50
   7  -3  -2  173.28    6.20
   7  -3  -2  163.48    5.60
  -7   3   2  156.98    4.70
  -7   3   2  171.48    4.50
   6  -3  -2   20.70    2.30
   6  -3  -2   19.40    2.10
   6  -3  -2   17.60    1.80
   6  -3  -2   20.00    2.10
  -6   3   2   21.50    1.90
  -6   3   2   22.10    2.10
   5  -3  -2  623.84   12.90
   5  -3  -2  623.04   12.50
   5  -3  -2  600.74   11.30
   5  -3  -2  622.84   12.70
   5  -3  -2  632.14   12.80
   5  -3  -2  599.94   11.40
  -5   3   2  626.84   12.00
  -5   3   2  615.14   12.60
   4  -3  -2  282.27    6.50
   4  -3  -2  276.57    6.20
   4  -3  -2  282.17    6.30
   4  -3  -2  277.97    6.20
  -4   3   2  272.17    6.40
  -4   3   2  279.07    5.80
   3  -3  -2  647.64   12.40
   3  -3  -2  655.43   12.70
   3  -3  -2  664.23   12.70
   3  -3  -2  634.04   12.40
  -3   3   2  643.14   12.20
  -3   3   2  646.34   12.70
   2  -3  -2  312.07    6.30
   2  -3  -2  305.17    6.10
   2  -3  -2  300.57    6.20
   2  -3  -2  309.37    6.70
  -2   3   2  283.27    6.20
  -2   3   2  306.77    6.00
  -2   3   2  304.77    6.60
  -2   3   2  301.97    6.10
   1  -3  -2  963.90   18.40
   1  -3  -2  986.30   19.00
   1  -3  -2  994.40   18.40
   1  -3  -2 1017.00   18.50
  -1   3   2 1012.00   18.50
  -1   3   2  982.20   19.00
  -1   3   2  985.50   18.30
  -1   3   2  989.20   18.50
   0  -3  -2   50.79    1.90
   0  -3  -2   49.99    1.80
   0  -3  -2   49.00    1.90
   0  -3  -2   47.70    2.10
   0  -3  -2   48.90    2.10
   0   3   2   51.19    1.80
   0   3   2   50.09    2.00
   0   3   2   51.59    2.40
   0   3   2   48.60    1.90
  -1  -3  -2  611.44   12.20
  -1  -3  -2  614.34   12.00
  -1  -3  -2  596.64   12.10
  -1  -3  -2  615.04   12.00
  -1  -3  -2  626.14   12.70
   1   3   2  607.14   12.20
   1   3   2  608.34   12.60
   1   3   2  600.84   12.40
   1   3   2  586.34   11.80
  -2  -3  -2  683.93   13.60
  -2  -3  -2  671.53   13.40
  -2  -3  -2  674.53   13.70
  -2  -3  -2  674.53   14.00
  -2  -3  -2  694.63   14.50
  -2  -3  -2  677.33   13.30
   2   3   2  675.23   14.20
   2   3   2  678.33   13.50
   2   3   2  687.03   13.90
   2   3   2  682.93   14.30
  -3  -3  -2  263.97    6.20
  -3  -3  -2  271.97    7.60
  -3  -3  -2  261.47    6.70
  -3  -3  -2  259.47    6.00
  -3  -3  -2  266.27    7.10
  -3  -3  -2  264.37    6.50
   3   3   2  276.87    7.30
   3   3   2  270.37    6.00
   3   3   2  266.37    6.50
   3   3   2  260.47    7.30
   3   3   2  273.27    7.10
  -4  -3  -2  179.08    5.50
  -4  -3  -2  185.48    6.40
  -4  -3  -2  185.58    5.30
  -4  -3  -2  189.58    6.70
  -4  -3  -2  173.98    4.60
  -4  -3  -2  184.68    5.10
   4   3   2  171.38    6.40
   4   3   2  183.18    6.10
   4   3   2  183.78    4.60
   4   3   2  182.38    5.40
   4   3   2  184.38    6.30
  -5  -3  -2   68.49    3.60
  -5  -3  -2   66.39    4.10
  -5  -3  -2   67.39    3.60
  -5  -3  -2   64.49    5.30
  -5  -3  -2   79.59    5.10
   5   3   2   68.09    5.30
   5   3   2   66.39    2.90
   5   3   2   72.09    4.80
   5   3   2   74.09    5.00
   5   3   2   72.59    4.40
  -6  -3  -2    2.90    2.10
  -6  -3  -2    1.10    2.00
  -6  -3  -2    4.20    2.30
  -6  -3  -2    9.10    4.30
   6   3   2    7.00    3.40
   6   3   2    2.80    3.10
   6   3   2    2.70    3.50
   6   3   2    1.20    2.80
   7  -4  -2   13.10    3.10
   7  -4  -2   10.80    2.50
   7  -4  -2   14.00    2.60
   7  -4  -2    8.40    2.20
  -7   4   2   13.70    1.60
  -7   4   2   14.30    2.10
   6  -4  -2   10.20    1.80
   6  -4  -2    7.70    1.90
   6  -4  -2    8.50    1.70
   6  -4  -2   11.20    1.80
  -6   4   2    9.00    1.60
  -6   4   2   10.40    1.30
   5  -4  -2   79.89    3.60
   5  -4  -2   76.19    3.40
   5  -4  -2   75.59    3.20
   5  -4  -2   79.39    2.20
   5  -4  -2   76.79    3.20
  -5   4   2   76.39    3.30
   4  -4  -2   63.29    2.60
   4  -4  -2   63.19    2.50
   4  -4  -2   62.59    2.60
   4  -4  -2   64.59    2.80
   4  -4  -2   64.99    2.10
  -4   4   2   65.29    2.20
  -4   4   2   63.99    2.90
   3  -4  -2    4.90    1.10
   3  -4  -2    6.30    0.90
   3  -4  -2    9.70    1.10
   3  -4  -2    7.20    1.00
  -3   4   2    7.90    0.90
  -3   4   2    5.90    0.70
  -3   4   2    7.80    1.20
  -3   4   2    7.70    0.90
   2  -4  -2  133.39    3.50
   2  -4  -2  129.69    3.40
   2  -4  -2  121.89    3.90
   2  -4  -2  124.59    3.20
  -2   4   2  128.89    3.30
  -2   4   2  127.89    3.30
  -2   4   2  134.09    3.80
  -2   4   2  127.09    3.20
   1  -4  -2  109.89    3.10
   1  -4  -2  114.39    3.70
   1  -4  -2  104.19    3.10
   1  -4  -2  113.59    3.10
  -1   4   2  105.29    3.00
  -1   4   2  109.19    3.70
  -1   4   2  110.59    3.10
  -1   4   2  108.19    3.10
   0  -4  -2  435.36    9.10
   0  -4  -2  431.26    9.20
   0  -4  -2  430.36    9.50
   0  -4  -2  443.56    9.20
   0  -4  -2  444.76    9.80
   0  -4  -2  435.16    9.10
   0   4   2  443.26    9.40
   0   4   2  450.75    9.30
   0   4   2  441.86   10.00
   0   4   2  454.95    9.10
  -1  -4  -2  211.88    5.40
  -1  -4  -2  212.18    5.20
  -1  -4  -2  205.98    5.90
  -1  -4  -2  214.28    5.20
  -1  -4  -2  205.08    5.20
  -1  -4  -2  209.78    5.20
   1   4   2  214.38    5.50
   1   4   2  212.48    5.00
   1   4   2  203.98    6.00
   1   4   2  209.08    5.60
  -2  -4  -2  197.68    5.20
  -2  -4  -2  185.98    5.90
  -2  -4  -2  182.58    5.00
  -2  -4  -2  193.18    5.60
  -2  -4  -2  188.18    4.70
  -2  -4  -2  190.48    5.20
   2   4   2  195.58    5.80
   2   4   2  186.78    6.00
   2   4   2  187.08    5.50
   2   4   2  187.88    4.90
  -3  -4  -2 1954.90   36.70
  -3  -4  -2 1792.22   34.50
  -3  -4  -2 1831.72   35.00
  -3  -4  -2 1853.51   35.00
  -3  -4  -2 1937.71   36.10
  -3  -4  -2 1881.41   35.30
   3   4   2 1858.21   36.20
   3   4   2 1875.91   36.30
   3   4   2 1848.62   35.80
   3   4   2 1821.02   34.90
  -4  -4  -2  608.44   14.20
  -4  -4  -2  589.74   12.80
  -4  -4  -2  588.24   12.80
  -4  -4  -2  577.54   14.70
  -4  -4  -2  691.03   16.40
  -4  -4  -2  573.54   12.10
   4   4   2  594.24   12.90
   4   4   2  582.34   13.90
   4   4   2  601.94   14.40
   4   4   2  610.74   14.70
  -5  -4  -2    7.40    3.50
  -5  -4  -2   12.00    4.20
  -5  -4  -2    8.80    2.20
  -5  -4  -2    6.80    2.10
  -5  -4  -2    5.90    2.10
   5   4   2    6.40    2.10
   5   4   2   13.80    3.30
   5   4   2    1.30    3.20
   5   4   2    7.70    2.90
  -6  -4  -2   16.80    4.50
  -6  -4  -2   15.70    2.80
  -6  -4  -2   18.80    4.30
  -6  -4  -2   18.80    2.90
  -6  -4  -2   17.40    3.60
   6   4   2   10.60    4.30
   6   4   2   20.50    4.30
   6   4   2   14.00    3.30
   6   4   2   26.20    4.70
   7  -5  -2  170.78    6.10
   7  -5  -2  179.58    7.20
   7  -5  -2  173.48    6.60
  -7   5   2  176.08    5.70
  -7   5   2  172.78    4.70
   6  -5  -2    8.50    2.10
   6  -5  -2    7.00    1.00
   6  -5  -2    7.50    1.90
   6  -5  -2    9.70    0.90
   6  -5  -2    8.40    2.30
   6  -5  -2    6.00    2.30
  -6   5   2   10.40    2.10
  -6   5   2    9.80    1.40
   5  -5  -2   42.50    3.10
   5  -5  -2   35.20    1.80
   5  -5  -2   36.60    2.60
   5  -5  -2   35.10    3.00
   5  -5  -2   36.60    3.10
  -5   5   2   37.10    2.10
  -5   5   2   39.70    3.10
   4  -5  -2  139.19    4.40
   4  -5  -2  142.39    4.70
   4  -5  -2  143.09    4.10
   4  -5  -2  143.69    3.90
   4  -5  -2  143.59    4.20
  -4   5   2  143.09    4.60
  -4   5   2  137.79    2.90
  -4   5   2  136.39    3.70
  -4   5   2  136.29    3.00
   3  -5  -2 1154.08   21.90
   3  -5  -2 1120.59   21.40
   3  -5  -2 1136.39   21.50
   3  -5  -2 1144.29   22.40
   3  -5  -2 1118.19   21.70
  -3   5   2 1118.79   21.10
  -3   5   2 1119.89   21.30
  -3   5   2 1163.58   22.30
   2  -5  -2  399.26    8.60
   2  -5  -2  396.86    8.70
   2  -5  -2  405.76    8.70
   2  -5  -2  391.06    9.40
   2  -5  -2  396.26    8.40
  -2   5   2  408.06    8.50
  -2   5   2  402.66    9.20
  -2   5   2  405.26    8.50
  -2   5   2  404.66    8.40
   1  -5  -2  197.38    4.80
   1  -5  -2  187.78    4.90
   1  -5  -2  192.88    5.00
   1  -5  -2  189.58    4.90
   1  -5  -2  191.48    5.60
  -1   5   2  198.28    4.80
  -1   5   2  194.28    5.00
  -1   5   2  189.78    4.90
  -1   5   2  192.48    5.70
   0  -5  -2  469.25    9.90
   0  -5  -2  451.15   10.30
   0  -5  -2  461.25    9.80
   0  -5  -2  461.95    9.90
   0  -5  -2  459.95   10.00
   0  -5  -2  456.25   10.60
   0   5   2  462.65   10.90
   0   5   2  463.25    9.70
   0   5   2  478.05   10.10
   0   5   2  470.15   10.20
  -1  -5  -2   24.00    2.20
  -1  -5  -2   23.40    1.70
  -1  -5  -2   22.20    2.10
  -1  -5  -2   17.70    2.20
  -1  -5  -2   24.30    2.10
  -1  -5  -2   23.70    1.90
   1   5   2   22.80    1.90
   1   5   2   23.50    2.60
   1   5   2   24.00    2.40
   1   5   2   28.30    2.30
  -2  -5  -2  459.85   10.20
  -2  -5  -2  431.66   11.20
  -2  -5  -2  453.95   10.60
  -2  -5  -2  455.55    9.80
  -2  -5  -2  447.06   10.10
  -2  -5  -2  458.75   10.10
   2   5   2  449.86   10.60
   2   5   2  450.75    9.80
   2   5   2  460.45   11.40
   2   5   2  455.45   11.00
  -3  -5  -2  179.18    5.40
  -3  -5  -2  183.68    7.50
  -3  -5  -2  170.08    6.10
  -3  -5  -2  178.78    5.10
  -3  -5  -2  171.88    5.50
  -3  -5  -2  172.78    7.00
   3   5   2  175.98    6.80
   3   5   2  183.98    7.30
   3   5   2  188.98    6.70
   3   5   2  171.28    6.60
  -4  -5  -2   32.40    4.10
  -4  -5  -2   30.90    3.10
  -4  -5  -2   31.80    3.50
  -4  -5  -2   26.10    3.20
  -4  -5  -2   30.40    2.50
  -4  -5  -2   30.30    2.70
   4   5   2   30.60    3.40
   4   5   2   26.30    3.70
   4   5   2   24.00    3.60
   4   5   2   24.90    2.40
  -5  -5  -2   35.30    4.20
  -5  -5  -2   31.50    3.40
  -5  -5  -2   41.50    4.40
  -5  -5  -2   27.20    4.90
  -5  -5  -2   32.00    3.20
   5   5   2   35.10    4.70
   5   5   2   33.80    4.80
   5   5   2   30.70    4.20
   5   5   2   34.90    3.10
   7  -6  -2    3.40    2.60
   7  -6  -2    4.00    3.10
   7  -6  -2    3.30    3.40
   7  -6  -2   -1.00    2.70
  -7   6   2    8.20    2.90
  -7   6   2   -0.50    1.50
   6  -6  -2  180.78    4.60
   6  -6  -2  185.08    6.90
   6  -6  -2  171.68    6.40
   6  -6  -2  162.18    7.00
   6  -6  -2  190.08    5.90
  -6   6   2  172.38    6.30
  -6   6   2  194.18    5.20
   5  -6  -2   57.29    3.70
   5  -6  -2   54.69    3.20
   5  -6  -2   62.39    3.60
   5  -6  -2   60.09    2.80
   5  -6  -2   66.09    3.90
  -5   6   2   58.49    2.80
  -5   6   2   57.89    4.00
   4  -6  -2   23.00    2.20
   4  -6  -2   16.50    2.50
   4  -6  -2   20.50    2.00
   4  -6  -2   21.50    2.20
  -4   6   2   18.80    1.70
  -4   6   2   22.60    1.50
  -4   6   2   24.40    2.00
  -4   6   2   23.50    2.30
   3  -6  -2   11.70    1.60
   3  -6  -2   10.20    1.50
   3  -6  -2   11.80    2.00
   3  -6  -2    8.70    1.60
   3  -6  -2   11.80    1.40
  -3   6   2   11.90    1.30
  -3   6   2   10.20    1.50
  -3   6   2   10.40    1.30
  -3   6   2   14.40    2.20
   2  -6  -2  155.28    4.60
   2  -6  -2  156.78    4.60
   2  -6  -2  155.98    4.60
   2  -6  -2  151.58    5.30
   2  -6  -2  154.28    4.40
  -2   6   2  159.48    4.50
  -2   6   2  153.08    4.40
  -2   6   2  153.78    4.40
  -2   6   2  160.48    5.30
   1  -6  -2  343.07    8.10
   1  -6  -2  346.47    7.70
   1  -6  -2  337.57    7.90
   1  -6  -2  343.27    8.80
  -1   6   2  332.67    8.90
  -1   6   2  338.97    8.00
  -1   6   2  339.77    7.90
  -1   6   2  350.36    7.80
   0  -6  -2  251.17    6.40
   0  -6  -2  257.17    7.40
   0  -6  -2  251.57    6.80
   0  -6  -2  259.97    6.50
   0  -6  -2  242.78    6.40
   0  -6  -2  260.97    6.40
   0   6   2  256.27    7.60
   0   6   2  241.98    6.70
   0   6   2  242.98    6.60
   0   6   2  259.87    6.30
  -1  -6  -2  343.47    8.30
  -1  -6  -2  351.76    8.20
  -1  -6  -2  339.47    8.50
  -1  -6  -2  337.27    8.30
  -1  -6  -2  359.56    8.50
  -1  -6  -2  344.37    9.40
   1   6   2  349.37    9.80
   1   6   2  357.66    8.80
   1   6   2  344.77    8.20
   1   6   2  350.06    9.00
  -2  -6  -2   16.40    2.90
  -2  -6  -2   19.60    2.20
  -2  -6  -2   22.80    2.70
  -2  -6  -2   14.70    1.90
  -2  -6  -2   19.00    2.10
  -2  -6  -2   18.90    2.10
   2   6   2   18.90    2.50
   2   6   2   19.20    3.30
   2   6   2   22.50    3.20
   2   6   2   18.90    2.60
  -3  -6  -2   23.10    3.10
  -3  -6  -2   24.90    2.70
  -3  -6  -2   21.60    2.50
  -3  -6  -2   28.30    3.10
  -3  -6  -2   27.10    3.70
   3   6   2   27.20    3.60
   3   6   2   21.90    3.70
   3   6   2   27.70    3.20
   3   6   2   22.10    2.30
  -4  -6  -2  647.64   13.70
  -4  -6  -2  689.33   16.60
  -4  -6  -2  658.23   15.10
  -4  -6  -2  663.33   17.50
  -4  -6  -2  679.53   14.80
  -4  -6  -2  681.13   15.20
   4   6   2  664.73   16.40
   4   6   2  677.03   15.00
   4   6   2  666.83   17.80
   4   6   2  662.93   17.20
  -5  -6  -2   42.40    4.40
  -5  -6  -2   36.80    5.20
  -5  -6  -2   40.60    3.90
  -5  -6  -2   42.20    3.80
  -5  -6  -2   46.30    6.20
   5   6   2   35.20    5.50
   5   6   2   55.89    4.40
   5   6   2   37.40    4.70
   5   6   2   37.10    5.70
   7  -7  -2   -3.40    2.70
   7  -7  -2   -4.40    3.20
   7  -7  -2    5.30    3.00
   7  -7  -2   -2.50    3.50
  -7   7   2   -0.40    1.90
  -7   7   2    1.70    2.60
   6  -7  -2  200.68    7.20
   6  -7  -2  216.68    8.10
   6  -7  -2  201.38    5.60
   6  -7  -2  210.58    6.60
   6  -7  -2  202.08    7.80
  -6   7   2  198.38    7.60
  -6   7   2  206.28    5.90
   5  -7  -2  368.06    9.90
   5  -7  -2  378.56    8.70
   5  -7  -2  362.46   10.00
   5  -7  -2  377.96    9.90
  -5   7   2  374.76    8.60
  -5   7   2  373.86   10.30
   4  -7  -2   31.30    2.50
   4  -7  -2   33.10    3.10
   4  -7  -2   36.30    2.60
   4  -7  -2   29.10    3.00
   4  -7  -2   36.70    3.20
  -4   7   2   29.80    2.70
  -4   7   2   36.40    2.30
  -4   7   2   34.10    3.40
   3  -7  -2  148.39    5.20
   3  -7  -2  151.78    4.60
   3  -7  -2  136.19    5.60
   3  -7  -2  148.49    4.90
   3  -7  -2  136.89    5.30
  -3   7   2  157.68    6.60
  -3   7   2  146.49    4.50
  -3   7   2  142.59    4.80
  -3   7   2  146.69    4.50
   2  -7  -2   68.89    3.40
   2  -7  -2   69.79    3.40
   2  -7  -2   72.59    3.20
   2  -7  -2   69.89    3.40
   2  -7  -2   73.39    4.20
  -2   7   2   69.69    3.30
  -2   7   2   71.39    3.50
  -2   7   2   69.69    3.30
  -2   7   2   69.39    4.80
   1  -7  -2   62.09    3.40
   1  -7  -2   64.19    3.30
   1  -7  -2   61.79    3.90
   1  -7  -2   65.89    3.10
   1  -7  -2   65.19    4.10
  -1   7   2   63.09    3.40
  -1   7   2   67.79    3.50
  -1   7   2   68.19    4.20
  -1   7   2   70.89    3.20
   0  -7  -2    0.90    1.50
   0  -7  -2    1.10    1.40
   0  -7  -2    1.00    2.00
   0  -7  -2    0.60    1.40
   0  -7  -2    0.00    1.40
   0  -7  -2   -1.40    2.00
   0   7   2   -1.30    1.50
   0   7   2    1.30    1.60
   0   7   2    2.60    2.20
   0   7   2    1.30    1.70
  -1  -7  -2   72.59    3.80
  -1  -7  -2   65.99    3.90
  -1  -7  -2   70.39    3.60
  -1  -7  -2   73.89    4.90
  -1  -7  -2   76.09    4.20
  -1  -7  -2   74.79    4.10
   1   7   2   79.19    5.30
   1   7   2   72.89    3.60
   1   7   2   71.29    4.70
   1   7   2   70.39    4.40
  -2  -7  -2   69.09    3.90
  -2  -7  -2   78.29    4.60
  -2  -7  -2   76.39    4.20
  -2  -7  -2   80.09    5.60
  -2  -7  -2   74.19    5.00
   2   7   2   83.69    5.30
   2   7   2   68.29    5.90
   2   7   2   75.39    4.90
   2   7   2   72.79    4.40
  -3  -7  -2   56.49    6.20
  -3  -7  -2   53.59    4.00
  -3  -7  -2   59.99    4.50
  -3  -7  -2   59.59    4.30
  -3  -7  -2   52.59    5.80
  -3  -7  -2   49.40    4.20
   3   7   2   54.09    5.40
   3   7   2   48.70    4.40
   3   7   2   52.29    4.00
   3   7   2   56.79    6.10
  -4  -7  -2    6.40    4.50
  -4  -7  -2    1.60    2.80
  -4  -7  -2    2.20    2.80
  -4  -7  -2    0.30    2.50
  -4  -7  -2    4.60    4.90
  -4  -7  -2    3.40    2.10
   4   7   2   -4.10    4.70
   4   7   2    5.50    4.50
   4   7   2    6.30    3.50
   4   7   2    3.70    2.40
   6  -8  -2    9.80    4.00
   6  -8  -2   13.00    3.10
   6  -8  -2   26.70    3.90
   6  -8  -2    9.70    2.30
   6  -8  -2   11.20    3.70
  -6   8   2   16.10    3.20
   5  -8  -2   32.60    3.50
   5  -8  -2   33.60    3.70
   5  -8  -2   27.00    3.60
   5  -8  -2   35.40    3.60
   5  -8  -2   31.20    3.30
  -5   8   2   27.70    1.80
  -5   8   2   26.90    2.00
  -5   8   2   26.30    2.50
  -5   8   2   32.00    3.70
   4  -8  -2    0.40    2.10
   4  -8  -2    3.90    2.00
   4  -8  -2   -0.70    3.30
   4  -8  -2   -1.20    2.00
  -4   8   2    4.30    2.30
  -4   8   2    0.20    1.60
  -4   8   2    0.20    2.00
  -4   8   2   -0.60    1.20
   3  -8  -2   67.29    3.70
   3  -8  -2   61.69    3.90
   3  -8  -2   63.09    4.40
   3  -8  -2   63.19    4.70
   3  -8  -2   61.89    4.60
  -3   8   2   61.39    3.40
  -3   8   2   65.09    4.00
  -3   8   2   63.99    3.20
  -3   8   2   69.39    5.20
   2  -8  -2  133.59    5.10
   2  -8  -2  142.49    5.20
   2  -8  -2  135.99    5.30
   2  -8  -2  132.19    4.70
   2  -8  -2  134.89    6.50
  -2   8   2  133.59    4.80
  -2   8   2  131.69    5.20
  -2   8   2  136.89    5.00
  -2   8   2  140.19    6.00
   1  -8  -2   38.40    3.40
   1  -8  -2   37.20    3.30
   1  -8  -2   36.90    3.70
   1  -8  -2   33.90    3.00
   1  -8  -2   33.40    3.00
  -1   8   2   36.90    3.10
  -1   8   2   37.00    3.40
  -1   8   2   38.70    3.50
   0  -8  -2   15.10    2.40
   0  -8  -2   14.00    2.20
   0  -8  -2   12.40    2.30
   0  -8  -2    7.70    3.10
   0   8   2   13.50    2.40
   0   8   2   15.20    3.30
   0   8   2   10.40    1.90
   0   8   2   10.00    2.40
  -1  -8  -2   83.09    4.50
  -1  -8  -2   82.19    4.50
  -1  -8  -2   76.89    4.60
  -1  -8  -2   83.39    4.80
  -1  -8  -2   81.39    5.00
   1   8   2   75.59    6.00
   1   8   2   82.49    5.30
   1   8   2   82.39    5.30
   1   8   2   77.79    4.20
  -2  -8  -2   -1.00    2.90
  -2  -8  -2    4.60    2.30
  -2  -8  -2    1.00    2.40
  -2  -8  -2   -3.70    2.20
  -2  -8  -2    1.90    2.20
   2   8   2    0.30    2.90
   2   8   2    1.50    2.60
   2   8   2   -3.20    3.00
   2   8   2    1.40    3.60
  -3  -8  -2   -0.40    2.90
  -3  -8  -2    0.60    3.70
  -3  -8  -2    1.70    2.80
  -3  -8  -2    0.10    2.20
  -3  -8  -2    1.90    2.70
   3   8   2    0.20    5.10
   3   8   2   -4.80    4.00
   3   8   2   -3.80    2.30
   3   8   2    0.80    4.40
   5  -9  -2    0.30    2.30
   5  -9  -2   -5.80    3.60
   5  -9  -2    0.90    3.00
   5  -9  -2    1.10    3.70
   5  -9  -2   -2.40    2.90
  -5   9   2    0.20    1.80
  -5   9   2   -1.50    1.50
  -5   9   2    7.20    3.70
   4  -9  -2  104.79    5.60
   4  -9  -2   93.89    5.50
   4  -9  -2   97.69    6.80
   4  -9  -2  101.49    6.30
   4  -9  -2  100.99    5.60
  -4   9   2   87.99    5.90
  -4   9   2   94.29    4.30
  -4   9   2   88.89    4.90
  -4   9   2  102.39    4.50
   3  -9  -2   56.59    5.60
   3  -9  -2   53.19    4.20
   3  -9  -2   62.79    5.00
   3  -9  -2   46.40    5.10
  -3   9   2   46.30    4.40
  -3   9   2   62.79    4.00
  -3   9   2   55.79    4.00
  -3   9   2   51.09    5.20
   2  -9  -2  110.89    5.30
   2  -9  -2  108.49    4.70
   2  -9  -2  116.99    7.30
   2  -9  -2  112.49    5.90
   2  -9  -2  111.69    5.50
  -2   9   2  101.09    6.20
  -2   9   2   96.49    6.00
  -2   9   2  110.69    5.20
  -2   9   2  104.39    5.40
   1  -9  -2  138.19    5.80
   1  -9  -2  136.29    7.30
   1  -9  -2  144.79    6.00
   1  -9  -2  135.59    7.50
   1  -9  -2  132.49    5.90
   1  -9  -2  144.99    6.00
  -1   9   2  144.49    5.50
  -1   9   2  140.19    6.60
  -1   9   2  136.09    7.00
  -1   9   2  139.19    6.00
   0  -9  -2    8.60    2.70
   0  -9  -2    5.60    2.40
   0  -9  -2    6.70    2.60
   0  -9  -2    7.20    2.50
   0  -9  -2    6.20    3.70
   0  -9  -2    6.20    2.50
   0   9   2    4.20    3.30
   0   9   2    5.10    2.60
   0   9   2    1.60    3.20
   0   9   2   -1.80    2.70
  -1  -9  -2   11.90    3.20
  -1  -9  -2   25.30    5.30
  -1  -9  -2   18.80    3.10
  -1  -9  -2   23.70    3.40
  -1  -9  -2   13.90    3.10
   1   9   2   21.90    3.20
   1   9   2   16.70    3.90
   1   9   2   17.70    4.00
   1   9   2   21.80    4.60
  -2  -9  -2   17.80    3.40
  -2  -9  -2   23.40    3.40
  -2  -9  -2   26.20    5.50
  -2  -9  -2   16.30    3.40
  -2  -9  -2   19.30    3.40
  -2  -9  -2   16.70    4.80
   2   9   2   19.50    5.30
   2   9   2   22.00    3.10
   2   9   2   23.90    3.90
   2   9   2   10.50    5.60
   4 -10  -2   19.50    3.80
   4 -10  -2   16.50    4.00
   4 -10  -2   22.40    3.80
   4 -10  -2   19.00    3.10
   4 -10  -2   18.90    4.80
  -4  10   2   11.50    3.50
  -4  10   2   14.40    3.00
  -4  10   2   19.90    3.50
   3 -10  -2   55.39    5.40
   3 -10  -2   62.89    4.70
   3 -10  -2   58.39    6.20
   3 -10  -2   65.39    6.50
   3 -10  -2   55.39    5.30
  -3  10   2   55.99    6.30
  -3  10   2   58.09    4.90
  -3  10   2   65.59    5.40
  -3  10   2   64.99    5.00
   2 -10  -2  105.79    6.50
   2 -10  -2  114.99    6.20
   2 -10  -2   97.09    6.10
   2 -10  -2  109.99    8.40
   2 -10  -2  118.09    5.50
  -2  10   2  105.69    5.60
  -2  10   2  106.39    5.90
  -2  10   2   97.89    7.30
  -2  10   2  115.99    6.10
   1 -10  -2  147.29    6.80
   1 -10  -2  141.29    7.60
   1 -10  -2  134.09    6.80
   1 -10  -2  134.49    8.30
   1 -10  -2  147.39    7.00
   1 -10  -2  146.79    7.00
  -1  10   2  141.19    8.20
  -1  10   2  137.79    7.70
  -1  10   2  145.39    6.20
  -1  10   2  159.78    7.30
   0 -10  -2    1.10    3.70
   0 -10  -2    3.70    2.70
   0 -10  -2    4.50    2.90
   0 -10  -2   -3.20    2.50
   0 -10  -2    3.40    5.60
   0 -10  -2    3.40    3.80
   0  10   2    0.20    3.20
   0  10   2   -0.40    4.50
   0  10   2   -1.50    2.50
   0  10   2    1.50    4.30
  -1 -10  -2   41.70    5.10
  -1 -10  -2   34.80    4.60
  -1 -10  -2   42.40    6.40
   1  10   2   35.10    5.90
   1  10   2   27.00    3.70
   1  10   2   26.90    6.10
   1  10   2   45.20    5.00
   1  11  -3    9.60    3.80
   1  11  -3   15.90    3.60
   1  11  -3   12.90    5.30
  -1 -11   3   20.80    4.40
  -1 -11   3   21.50    3.90
  -1 -11   3   17.70    5.20
  -1 -11   3   16.70    3.30
  -1 -11   3   21.20    4.40
   0  11  -3  328.77   12.10
   0  11  -3  310.87    9.60
   0  11  -3  334.17   10.30
   0  11  -3  298.87    9.70
   0 -11   3  346.37   11.20
   0 -11   3  318.27   10.60
   0 -11   3  298.67   10.90
   0 -11   3  329.87   12.30
   0 -11   3  331.07    9.40
  -1  11  -3    3.50    2.80
  -1  11  -3   -1.20    4.20
  -1  11  -3    1.00    2.90
  -1  11  -3   -2.10    2.50
   1 -11   3   -2.30    3.30
   1 -11   3   -1.40    4.40
   1 -11   3    0.20    3.50
   1 -11   3    2.10    2.40
   1 -11   3    0.20    3.70
  -2  11  -3   92.39    6.20
  -2  11  -3  100.69    8.00
  -2  11  -3   86.59    6.30
  -2  11  -3   86.99    5.50
   2 -11   3   93.29    7.40
   2 -11   3   82.29    6.50
   2 -11   3   87.29    8.40
   2 -11   3   84.09    5.20
   2 -11   3   68.09    7.40
  -3  11  -3  111.19    8.90
  -3  11  -3  105.89    7.00
  -3  11  -3  107.19    6.70
  -3  11  -3  118.69    6.60
   3 -11   3  123.39    9.20
   3 -11   3  112.79    7.10
   3 -11   3  118.99    8.40
   3 -11   3  116.09    8.70
   3 -11   3  115.39    6.00
  -4  11  -3   46.80    4.80
  -4  11  -3   40.30    5.70
  -4  11  -3   48.90    4.60
  -4  11  -3   44.40    4.10
   4 -11   3   34.30    5.90
   4 -11   3   46.10    5.90
   4 -11   3   23.00    5.10
   4 -11   3   42.80    3.80
   4 -11   3   40.50    4.50
   2  10  -3    9.30    2.70
   2  10  -3    9.50    2.90
   2  10  -3   11.70    5.40
   2  10  -3   13.00    3.40
  -2 -10   3   -0.60    3.50
  -2 -10   3   12.60    4.30
  -2 -10   3    2.70    3.00
  -2 -10   3    7.10    3.30
  -2 -10   3    5.60    2.40
  -2 -10   3    7.50    3.30
   1  10  -3   37.80    3.60
   1  10  -3   36.30    3.80
   1  10  -3   33.00    3.30
  -1 -10   3   39.80    3.90
  -1 -10   3   38.30    3.90
  -1 -10   3   33.10    4.20
  -1 -10   3   38.60    4.40
  -1 -10   3   44.80    4.90
   0  10  -3   91.29    5.20
   0  10  -3   92.29    5.10
   0  10  -3   87.29    5.60
   0  10  -3   81.19    7.50
   0 -10   3   84.89    6.00
   0 -10   3   88.19    5.80
   0 -10   3   84.89    5.70
   0 -10   3   88.49    4.70
  -1  10  -3   65.19    4.30
  -1  10  -3   62.09    4.40
  -1  10  -3   56.99    5.10
  -1  10  -3   65.89    4.70
   1 -10   3   64.39    5.20
   1 -10   3   67.49    6.50
   1 -10   3   57.89    5.10
   1 -10   3   62.59    5.80
   1 -10   3   70.79    4.80
  -2  10  -3   42.50    4.70
  -2  10  -3   54.19    4.10
  -2  10  -3   50.09    5.30
  -2  10  -3   46.60    4.00
   2 -10   3   45.00    4.90
   2 -10   3   53.69    4.10
   2 -10   3   50.39    4.40
   2 -10   3   49.10    5.40
   2 -10   3   52.09    5.20
  -3  10  -3   78.39    4.60
  -3  10  -3   87.29    7.00
  -3  10  -3   70.09    5.40
  -3  10  -3   81.19    5.10
   3 -10   3   86.09    6.60
   3 -10   3   75.39    7.00
   3 -10   3   81.39    5.40
   3 -10   3   70.29    5.90
   3 -10   3   89.39    5.60
  -4  10  -3    1.00    3.00
  -4  10  -3    4.20    2.30
  -4  10  -3    9.90    4.00
  -4  10  -3    4.30    2.70
   4 -10   3   11.30    3.60
   4 -10   3    0.80    2.70
   4 -10   3    4.70    2.40
   4 -10   3    7.60    4.10
   4 -10   3    3.80    3.90
  -5  10  -3    1.10    3.70
  -5  10  -3    4.50    2.90
  -5  10  -3   -0.30    4.00
  -5  10  -3   -0.40    2.10
   5 -10   3    2.90    3.20
   5 -10   3    4.10    4.70
   5 -10   3    1.40    5.10
   5 -10   3    4.70    5.20
   5 -10   3   -2.70    3.80
   3   9  -3  124.49    6.40
   3   9  -3  119.79    8.10
   3   9  -3  131.59    7.10
   3   9  -3  116.89    5.70
  -3  -9   3  114.99    7.20
  -3  -9   3  110.79    7.70
  -3  -9   3  126.99    7.60
  -3  -9   3  143.19    6.90
  -3  -9   3  106.09    3.40
  -3  -9   3  115.39    6.00
   2   9  -3  102.29    5.70
   2   9  -3   95.69    4.90
   2   9  -3  103.79    5.50
   2   9  -3  100.99    6.80
  -2  -9   3  101.49    6.00
  -2  -9   3  106.89    6.70
  -2  -9   3  106.19    4.10
  -2  -9   3  109.19    5.50
  -2  -9   3   96.69    6.20
  -2  -9   3  112.89    6.20
   1   9  -3   12.00    3.20
   1   9  -3    6.50    2.20
   1   9  -3    6.70    2.20
   1   9  -3    6.80    2.00
  -1  -9   3    6.20    2.90
  -1  -9   3    7.00    2.40
  -1  -9   3    4.40    2.40
  -1  -9   3    7.00    2.70
  -1  -9   3    5.50    2.00
   0   9  -3  441.66   12.20
   0   9  -3  451.85   11.00
   0   9  -3  460.95   10.90
   0   9  -3  457.55   11.00
   0  -9   3  430.26   11.50
   0  -9   3  446.46   11.40
   0  -9   3  451.15   12.50
   0  -9   3  462.65   10.50
   0  -9   3  432.66   11.20
  -1   9  -3  640.34   14.10
  -1   9  -3  649.34   15.60
  -1   9  -3  636.94   14.00
  -1   9  -3  643.14   14.50
   1  -9   3  636.24   13.90
   1  -9   3  635.04   14.80
   1  -9   3  651.83   15.00
   1  -9   3  621.24   15.70
   1  -9   3  635.34   14.80
  -2   9  -3   15.90    3.20
  -2   9  -3   12.00    1.90
  -2   9  -3   14.20    2.80
  -2   9  -3   13.00    2.10
   2  -9   3    9.40    3.30
   2  -9   3   12.60    2.10
   2  -9   3   11.60    2.50
   2  -9   3   11.00    2.80
  -3   9  -3   30.50    3.10
  -3   9  -3   25.40    3.70
  -3   9  -3   31.60    3.60
  -3   9  -3   34.00    3.20
   3  -9   3   29.40    3.00
   3  -9   3   26.10    2.90
   3  -9   3   29.80    3.80
   3  -9   3   32.70    3.80
   3  -9   3   27.70    4.40
  -4   9  -3  167.28    5.60
  -4   9  -3  170.38    8.60
  -4   9  -3  168.18    5.80
   4  -9   3  171.38    7.30
   4  -9   3  181.48    8.80
   4  -9   3  166.78    7.80
   4  -9   3  165.28    6.70
   4  -9   3  173.68    6.50
  -5   9  -3    1.40    3.40
  -5   9  -3   -1.70    2.40
  -5   9  -3   -0.30    2.10
   5  -9   3    0.80    3.30
   5  -9   3    4.30    4.60
   5  -9   3    1.20    2.30
   5  -9   3    4.50    4.10
   5  -9   3   -0.90    2.50
  -6   9  -3  140.29    8.00
   6  -9   3  127.49    8.40
   6  -9   3  131.29    7.10
   6  -9   3  140.29    8.80
   6  -9   3  138.69    8.00
   6  -9   3  133.09    5.90
   4   8  -3   11.70    3.50
   4   8  -3    8.90    3.10
   4   8  -3    5.20    4.90
   4   8  -3   10.00    2.70
  -4  -8   3   11.80    2.60
  -4  -8   3   13.00    3.00
  -4  -8   3    9.50    3.90
  -4  -8   3    3.10    3.30
  -4  -8   3    9.30    3.60
   3   8  -3  447.56   12.50
   3   8  -3  436.16   11.50
   3   8  -3  443.36   11.10
   3   8  -3  418.86   10.50
  -3  -8   3  437.46   10.80
  -3  -8   3  405.56   11.20
  -3  -8   3  397.26    8.40
  -3  -8   3  423.86   11.80
  -3  -8   3  451.45   12.40
  -3  -8   3  450.15   11.20
  -3  -8   3  424.56    8.60
   2   8  -3   99.99    4.80
   2   8  -3  105.99    5.90
   2   8  -3  103.79    4.40
   2   8  -3   90.49    4.60
  -2  -8   3  100.29    5.70
  -2  -8   3  101.99    4.60
  -2  -8   3  104.89    4.80
  -2  -8   3  104.99    5.40
  -2  -8   3  104.39    4.70
  -2  -8   3  102.99    3.70
   1   8  -3    1.70    1.60
   1   8  -3    3.50    2.40
   1   8  -3    6.20    1.70
   1   8  -3    2.30    1.50
   1   8  -3    4.40    1.60
  -1  -8   3    4.80    2.50
  -1  -8   3    5.70    1.80
  -1  -8   3    5.50    2.20
  -1  -8   3    0.80    1.70
  -1  -8   3    0.70    1.90
   0   8  -3   72.49    3.60
   0   8  -3   65.19    3.40
   0   8  -3   70.29    3.60
   0   8  -3   79.89    3.70
   0   8  -3   64.39    4.60
   0  -8   3   64.99    5.00
   0  -8   3   72.59    4.70
   0  -8   3   71.89    4.20
   0  -8   3   73.09    4.10
   0  -8   3   68.89    3.90
  -1   8  -3    6.70    2.30
  -1   8  -3    4.70    2.00
  -1   8  -3    2.20    1.40
  -1   8  -3    1.90    1.40
   1  -8   3    4.30    1.80
   1  -8   3    3.30    1.70
   1  -8   3    5.30    2.00
   1  -8   3    2.50    2.00
   1  -8   3    4.10    2.50
  -2   8  -3  175.08    5.30
  -2   8  -3  170.68    6.60
  -2   8  -3  170.98    5.80
  -2   8  -3  169.28    5.40
   2  -8   3  153.78    5.10
   2  -8   3  170.68    5.80
   2  -8   3  164.68    6.00
   2  -8   3  166.48    6.60
   2  -8   3  166.38    6.30
  -3   8  -3    9.60    2.70
  -3   8  -3   11.00    2.50
  -3   8  -3   13.50    2.10
   3  -8   3   10.60    2.30
   3  -8   3   12.80    1.80
   3  -8   3    9.70    2.60
  -4   8  -3   42.60    4.00
  -4   8  -3   37.20    3.10
  -4   8  -3   42.40    2.90
  -4   8  -3   36.10    3.50
   4  -8   3   36.80    3.20
   4  -8   3   39.00    3.80
   4  -8   3   47.10    4.90
   4  -8   3   49.60    5.20
   4  -8   3   39.90    3.30
  -5   8  -3  186.68    5.60
  -5   8  -3  175.48    5.90
  -5   8  -3  170.18    8.50
  -5   8  -3  182.98    6.50
   5  -8   3  190.48    6.80
   5  -8   3  188.58    7.70
   5  -8   3  185.48    8.10
   5  -8   3  185.68    7.50
   5  -8   3  183.98    5.90
  -6   8  -3    1.50    1.80
  -6   8  -3    3.90    1.90
  -6   8  -3    2.20    2.50
  -6   8  -3   -1.10    3.50
   6  -8   3    4.20    3.20
   6  -8   3   -0.50    1.90
   6  -8   3   -3.30    4.50
   6  -8   3    2.10    2.50
   6  -8   3    8.10    3.60
   5   7  -3   21.50    3.50
   5   7  -3   27.10    4.10
   5   7  -3   28.00    3.90
   5   7  -3   28.90    4.60
  -5  -7   3   20.00    3.80
  -5  -7   3   30.80    4.70
  -5  -7   3   26.20    3.00
   4   7  -3    2.80    3.10
   4   7  -3    0.30    2.60
   4   7  -3    1.60    1.90
   4   7  -3   -3.00    2.20
  -4  -7   3    1.40    2.20
  -4  -7   3    4.80    2.80
  -4  -7   3    1.90    2.50
  -4  -7   3   -0.30    2.10
   3   7  -3   65.39    4.90
   3   7  -3   57.99    3.50
   3   7  -3   63.89    3.90
   3   7  -3   64.09    4.50
  -3  -7   3   58.59    1.70
  -3  -7   3   64.79    4.50
  -3  -7   3   61.19    3.50
  -3  -7   3   61.29    4.00
  -3  -7   3   60.89    1.80
  -3  -7   3   62.79    3.80
  -3  -7   3   68.19    4.70
   2   7  -3   98.29    4.90
   2   7  -3  117.39    5.40
   2   7  -3  108.89    4.10
   2   7  -3  117.39    4.40
   2   7  -3   96.59    4.90
  -2  -7   3  106.89    3.60
  -2  -7   3  112.09    5.20
  -2  -7   3  102.69    4.80
  -2  -7   3  113.89    4.90
  -2  -7   3  111.09    4.10
  -2  -7   3  110.39    4.60
   1   7  -3  414.46   10.40
   1   7  -3  403.66    9.30
   1   7  -3  382.16    9.10
   1   7  -3  397.96    9.40
   1   7  -3  401.76    9.30
  -1  -7   3  383.96    9.80
  -1  -7   3  423.26    9.10
  -1  -7   3  392.86    9.50
  -1  -7   3  400.66   10.40
  -1  -7   3  403.06    9.50
   0   7  -3  394.86    9.20
   0   7  -3  399.96    9.20
   0   7  -3  405.26    9.20
   0   7  -3  427.26    9.40
   0   7  -3  391.96   10.10
   0  -7   3  422.66    9.00
   0  -7   3  413.96    9.60
   0  -7   3  399.16    9.60
   0  -7   3  395.46   10.40
   0  -7   3  396.46    9.70
  -1   7  -3  530.85   12.50
  -1   7  -3  539.15   11.40
  -1   7  -3  544.95   11.70
  -1   7  -3  534.85   11.40
  -1   7  -3  533.85   11.40
   1  -7   3  524.05   12.00
   1  -7   3  540.85   11.90
   1  -7   3  522.15   11.30
   1  -7   3  523.15   12.70
   1  -7   3  532.15   12.10
  -2   7  -3   78.59    3.30
  -2   7  -3   80.89    3.80
  -2   7  -3   80.09    3.20
  -2   7  -3   81.79    4.30
   2  -7   3   82.09    4.10
   2  -7   3   82.69    3.70
   2  -7   3   86.79    4.00
   2  -7   3   80.59    3.20
   2  -7   3   85.09    4.30
  -3   7  -3    1.60    1.20
  -3   7  -3    3.00    1.20
  -3   7  -3    0.60    1.60
  -3   7  -3    4.30    2.00
   3  -7   3   -0.10    1.60
   3  -7   3    4.80    1.80
   3  -7   3    3.60    1.90
   3  -7   3    1.10    1.20
   3  -7   3    3.00    1.80
  -4   7  -3  115.19    4.00
  -4   7  -3  125.79    5.70
  -4   7  -3  122.59    4.90
  -4   7  -3  117.69    4.30
   4  -7   3  110.29    5.20
   4  -7   3  116.19    5.70
   4  -7   3  111.69    5.20
   4  -7   3  121.39    4.40
  -5   7  -3    0.30    1.50
  -5   7  -3    3.10    1.80
  -5   7  -3    3.80    1.70
  -5   7  -3    0.00    2.60
   5  -7   3    0.00    1.30
   5  -7   3   -1.00    2.50
   5  -7   3    1.10    2.30
   5  -7   3    2.60    2.30
   5  -7   3    4.60    2.50
  -6   7  -3   14.90    3.40
  -6   7  -3   13.70    2.40
  -6   7  -3   12.60    2.30
  -6   7  -3   12.80    1.80
   6  -7   3    9.30    3.90
   6  -7   3    9.20    3.30
   6  -7   3   14.20    3.30
   6  -7   3   10.50    3.60
   6  -7   3    9.50    3.00
  -7   7  -3   -0.40    1.70
  -7   7  -3    3.20    2.10
  -7   7  -3    4.00    3.20
  -7   7  -3   -1.90    1.50
   7  -7   3   -1.50    3.30
   7  -7   3    1.50    3.10
   7  -7   3    3.50    4.00
   7  -7   3    2.30    3.70
   7  -7   3   -6.60    3.70
   6   6  -3    3.30    3.70
   6   6  -3    7.20    2.70
   6   6  -3    6.60    3.70
  -6  -6   3    7.90    4.30
   5   6  -3   90.49    4.40
   5   6  -3   86.29    5.70
   5   6  -3   83.99    5.40
   5   6  -3   85.09    6.10
  -5  -6   3   89.39    6.40
  -5  -6   3   85.19    4.60
  -5  -6   3   82.39    4.10
  -5  -6   3   85.99    4.00
  -5  -6   3   78.19    6.00
   4   6  -3    7.00    2.20
   4   6  -3    5.40    2.20
   4   6  -3   11.90    2.70
   4   6  -3    7.90    1.70
  -4  -6   3    6.60    1.80
  -4  -6   3    7.00    1.60
  -4  -6   3    3.90    2.20
  -4  -6   3    5.80    2.10
  -4  -6   3    0.90    2.10
   3   6  -3   98.49    3.80
   3   6  -3  107.29    4.10
   3   6  -3  101.09    5.00
   3   6  -3  108.29    4.10
   3   6  -3   99.49    4.30
  -3  -6   3  107.49    4.20
  -3  -6   3  102.79    5.00
  -3  -6   3  108.09    4.40
  -3  -6   3   96.79    4.70
   2   6  -3   80.19    3.30
   2   6  -3   77.39    3.20
   2   6  -3   81.49    3.30
   2   6  -3   79.29    4.10
   2   6  -3   83.59    3.40
  -2  -6   3   78.19    3.30
  -2  -6   3   78.79    3.20
  -2  -6   3   75.69    3.90
  -2  -6   3   84.89    3.90
  -2  -6   3   71.49    3.10
   1   6  -3    2.30    1.20
   1   6  -3    4.50    1.20
   1   6  -3    2.90    1.60
   1   6  -3    2.10    1.10
   1   6  -3    1.10    0.90
  -1  -6   3    2.00    1.20
  -1  -6   3    2.60    1.40
  -1  -6   3    2.20    1.30
  -1  -6   3    1.30    1.00
  -1  -6   3    2.40    1.60
   0   6  -3  672.33   13.60
   0   6  -3  677.13   13.70
   0   6  -3  675.33   14.50
   0   6  -3  664.23   13.50
   0   6  -3  668.43   13.60
   0  -6   3  665.23   14.10
   0  -6   3  673.33   13.90
   0  -6   3  657.53   14.70
   0  -6   3  674.83   13.40
   0  -6   3  679.23   13.90
  -1   6  -3   76.19    3.50
  -1   6  -3   68.19    3.00
  -1   6  -3   76.79    2.80
  -1   6  -3   70.29    2.70
  -1   6  -3   72.39    2.70
   1  -6   3   68.09    2.70
   1  -6   3   72.89    3.20
   1  -6   3   70.99    3.20
   1  -6   3   67.29    3.50
   1  -6   3   70.99    3.10
  -2   6  -3  146.79    4.70
  -2   6  -3  134.19    4.00
  -2   6  -3  137.19    4.90
  -2   6  -3  139.09    4.00
  -2   6  -3  138.09    4.10
   2  -6   3  133.79    4.00
   2  -6   3  135.89    4.70
   2  -6   3  132.29    4.60
   2  -6   3  132.89    4.20
   2  -6   3  141.99    4.80
  -3   6  -3   31.30    2.70
  -3   6  -3   32.80    2.40
  -3   6  -3   31.70    2.10
  -3   6  -3   34.30    3.30
  -3   6  -3   28.00    2.00
   3  -6   3   29.30    3.00
   3  -6   3   34.70    2.70
   3  -6   3   33.90    2.80
   3  -6   3   31.70    2.20
   3  -6   3   30.50    2.90
  -4   6  -3  124.39    4.90
  -4   6  -3  127.99    4.40
  -4   6  -3  128.39    4.10
  -4   6  -3  123.99    5.40
   4  -6   3  128.49    5.20
   4  -6   3  123.59    4.00
   4  -6   3  128.69    4.40
   4  -6   3  119.39    5.30
   4  -6   3  133.39    5.50
  -5   6  -3   -0.70    1.80
  -5   6  -3    1.10    2.20
  -5   6  -3    1.30    1.40
  -5   6  -3    2.20    1.90
   5  -6   3   -1.50    1.60
   5  -6   3    1.20    2.10
   5  -6   3    2.70    2.00
   5  -6   3   -1.00    2.30
   5  -6   3    1.50    1.10
  -6   6  -3  372.16   11.40
  -6   6  -3  389.66    8.50
  -6   6  -3  384.76    9.10
  -6   6  -3  379.66    9.90
   6  -6   3  376.26   11.40
   6  -6   3  367.76   10.90
   6  -6   3  376.96   10.80
   6  -6   3  374.56   11.70
   6  -6   3  388.46   10.20
  -7   6  -3    6.30    3.20
  -7   6  -3    8.80    1.70
  -7   6  -3    1.50    1.80
  -7   6  -3    1.40    2.00
   7  -6   3    8.00    4.00
   7  -6   3    6.30    3.40
   7  -6   3    2.50    3.40
   7  -6   3    4.50    3.70
   7  -6   3    6.30    3.00
   6   5  -3  161.48    8.00
   6   5  -3  158.88    5.60
   6   5  -3  156.28    7.00
  -6  -5   3  147.69    5.50
  -6  -5   3  155.38    6.80
   5   5  -3    3.50    2.40
   5   5  -3    3.50    2.30
   5   5  -3    5.10    1.60
   5   5  -3    3.50    2.50
  -5  -5   3    4.60    1.60
  -5  -5   3    2.80    2.70
  -5  -5   3    3.80    1.80
  -5  -5   3    1.10    1.70
   4   5  -3  136.79    4.60
   4   5  -3  126.69    5.30
   4   5  -3  132.19    4.30
   4   5  -3  128.59    5.20
   4   5  -3  127.79    4.30
  -4  -5   3  124.09    4.10
  -4  -5   3  127.59    5.10
  -4  -5   3  132.29    4.50
  -4  -5   3  133.69    4.10
  -4  -5   3  114.59    4.80
   3   5  -3  699.33   14.20
   3   5  -3  706.23   15.40
   3   5  -3  712.23   14.50
   3   5  -3  683.93   14.70
   3   5  -3  717.53   14.50
  -3  -5   3  704.33   15.30
  -3  -5   3  710.53   14.30
  -3  -5   3  710.73   14.30
  -3  -5   3  714.83   15.20
  -3  -5   3  720.63   14.40
   2   5  -3  214.88    5.50
   2   5  -3  216.58    5.40
   2   5  -3  214.58    6.20
   2   5  -3  213.78    5.40
   2   5  -3  221.18    5.60
  -2  -5   3  217.28    6.10
  -2  -5   3  224.68    6.10
  -2  -5   3  216.78    4.60
  -2  -5   3  222.98    5.60
  -2  -5   3  212.18    5.30
   1   5  -3  312.97    7.10
   1   5  -3  308.37    7.80
   1   5  -3  321.37    7.20
   1   5  -3  324.57    7.10
   1   5  -3  321.07    7.10
  -1  -5   3  323.17    7.70
  -1  -5   3  315.37    6.90
  -1  -5   3  323.57    7.20
  -1  -5   3  327.97    7.30
  -1  -5   3  321.37    8.00
   0   5  -3    2.10    0.80
   0   5  -3    0.70    0.70
   0   5  -3    0.80    1.10
   0   5  -3    0.00    0.60
   0   5  -3   -0.40    0.70
   0  -5   3    1.40    0.90
   0  -5   3    0.40    0.70
   0  -5   3    1.70    1.20
   0  -5   3    0.20    0.90
   0  -5   3    1.80    0.90
  -1   5  -3  336.27    7.30
  -1   5  -3  334.77    7.20
  -1   5  -3  324.77    7.90
  -1   5  -3  325.47    7.40
  -1   5  -3  332.87    7.30
   1  -5   3  334.87    7.70
   1  -5   3  340.77    7.60
   1  -5   3  332.57    7.70
   1  -5   3  333.87    7.20
   1  -5   3  332.07    7.90
  -2   5  -3   67.89    2.30
  -2   5  -3   62.19    2.60
  -2   5  -3   69.49    2.60
  -2   5  -3   62.89    3.20
  -2   5  -3   65.69    2.90
   2  -5   3   68.09    2.80
   2  -5   3   72.19    2.60
   2  -5   3   65.29    3.00
   2  -5   3   68.49    3.00
   2  -5   3   67.89    3.10
  -3   5  -3 1127.49   22.50
  -3   5  -3 1113.99   21.90
  -3   5  -3 1106.49   21.70
  -3   5  -3 1091.29   21.30
  -3   5  -3 1106.89   20.70
   3  -5   3 1129.69   22.40
   3  -5   3 1094.39   22.10
   3  -5   3 1120.29   22.10
   3  -5   3 1087.69   21.20
   3  -5   3 1135.09   21.60
  -4   5  -3   94.89    3.20
  -4   5  -3   83.79    3.60
  -4   5  -3   85.09    3.60
  -4   5  -3   90.19    4.40
   4  -5   3   89.99    4.00
   4  -5   3   83.89    4.10
   4  -5   3   78.49    3.90
   4  -5   3   83.19    3.00
   4  -5   3   84.59    4.30
  -5   5  -3  107.39    4.40
  -5   5  -3  108.79    4.30
  -5   5  -3  119.19    3.90
   5  -5   3  118.29    5.30
   5  -5   3  105.19    5.30
   5  -5   3  116.09    5.20
   5  -5   3  115.89    5.00
  -6   5  -3   91.79    5.30
  -6   5  -3   96.69    3.50
  -6   5  -3   89.49    3.90
  -6   5  -3   83.79    4.50
   6  -5   3   93.89    5.60
   6  -5   3   98.79    5.90
   6  -5   3   95.39    5.00
   6  -5   3   90.69    6.30
   6  -5   3   99.79    6.00
  -7   5  -3   -0.80    2.40
  -7   5  -3   -1.50    1.40
  -7   5  -3    3.40    1.60
  -7   5  -3    0.00    2.80
   7  -5   3    3.30    3.30
   7  -5   3    4.10    3.10
   7  -5   3   -2.70    3.60
   7  -5   3    2.60    2.90
   7  -5   3    1.80    4.20
   6   4  -3  138.39    6.20
   6   4  -3  139.99    6.10
   6   4  -3  143.89    4.90
   6   4  -3  140.19    6.50
  -6  -4   3  135.39    4.90
  -6  -4   3  143.69    6.20
  -6  -4   3  146.59    7.00
   5   4  -3  173.48    5.20
   5   4  -3  174.68    5.60
   5   4  -3  174.18    6.30
   5   4  -3  165.88    6.40
  -5  -4   3  171.78    4.30
  -5  -4   3  178.68    6.20
  -5  -4   3  172.48    4.20
  -5  -4   3  175.38    4.90
  -5  -4   3  188.58    6.50
   4   4  -3  114.39    4.10
   4   4  -3  111.39    3.70
   4   4  -3  115.09    3.50
   4   4  -3  110.19    4.20
   4   4  -3  113.09    4.40
  -4  -4   3  113.59    4.30
  -4  -4   3  115.09    3.40
  -4  -4   3  112.09    3.60
  -4  -4   3  105.89    3.90
   3   4  -3    0.20    1.00
   3   4  -3   -0.30    0.90
   3   4  -3    0.30    0.90
   3   4  -3   -0.10    0.80
   3   4  -3    2.00    1.40
  -3  -4   3   -0.70    0.80
  -3  -4   3   -1.60    0.90
  -3  -4   3    0.70    1.20
  -3  -4   3    0.60    0.70
  -3  -4   3    0.40    1.10
   2   4  -3   54.29    2.30
   2   4  -3   54.19    2.00
   2   4  -3   52.89    2.10
   2   4  -3   53.79    2.60
   2   4  -3   53.89    2.20
  -2  -4   3   55.69    2.10
  -2  -4   3   49.70    2.50
  -2  -4   3   51.99    1.40
  -2  -4   3   53.39    2.10
  -2  -4   3   50.39    2.50
   1   4  -3  291.57    6.90
   1   4  -3  300.77    6.40
   1   4  -3  302.27    6.40
   1   4  -3  299.87    6.60
   1   4  -3  300.27    6.40
  -1  -4   3  297.97    6.50
  -1  -4   3  275.87    6.20
  -1  -4   3  288.77    6.90
  -1  -4   3  303.57    6.50
  -1  -4   3  297.17    7.10
   0   4  -3  153.28    3.80
   0   4  -3  155.38    3.90
   0   4  -3  160.38    4.00
   0   4  -3  156.18    4.30
   0   4  -3  160.58    3.90
   0  -4   3  154.78    4.10
   0  -4   3  156.78    4.10
   0  -4   3  159.88    4.10
   0  -4   3  161.58    3.90
   0  -4   3  155.68    4.40
  -1   4  -3  601.84   11.80
  -1   4  -3  588.64   12.40
  -1   4  -3  608.34   12.00
  -1   4  -3  607.94   11.90
  -1   4  -3  593.04   12.00
   1  -4   3  600.14   11.80
   1  -4   3  599.14   12.30
   1  -4   3  604.04   12.20
   1  -4   3  601.34   12.10
   1  -4   3  608.84   12.30
  -2   4  -3   52.49    2.30
  -2   4  -3   48.90    2.40
  -2   4  -3   49.10    2.10
  -2   4  -3   50.99    2.70
  -2   4  -3   52.69    1.80
   2  -4   3   48.40    2.30
   2  -4   3   51.39    2.20
   2  -4   3   51.89    2.20
   2  -4   3   51.09    2.60
   2  -4   3   50.39    2.50
  -3   4  -3  328.77    7.80
  -3   4  -3  336.37    7.40
  -3   4  -3  334.77    8.40
  -3   4  -3  335.77    7.90
  -3   4  -3  329.97    6.70
   3  -4   3  336.87    8.30
   3  -4   3  331.07    8.00
   3  -4   3  335.77    8.10
   3  -4   3  328.17    7.10
   3  -4   3  340.77    7.80
  -4   4  -3 1116.29   21.80
  -4   4  -3 1096.89   21.10
  -4   4  -3 1085.99   21.40
  -4   4  -3 1114.79   22.50
   4  -4   3 1079.59   21.90
   4  -4   3 1107.39   21.70
   4  -4   3 1075.19   22.00
   4  -4   3 1085.79   22.00
   4  -4   3 1081.69   22.30
  -5   4  -3   43.80    4.00
  -5   4  -3   40.70    2.60
  -5   4  -3   44.40    3.00
  -5   4  -3   43.30    2.60
   5  -4   3   39.20    4.10
   5  -4   3   45.60    4.30
   5  -4   3   43.80    3.80
   5  -4   3   43.30    3.50
   5  -4   3   41.90    3.30
  -6   4  -3   12.30    2.10
  -6   4  -3    8.60    1.50
  -6   4  -3    8.90    2.80
  -6   4  -3   10.20    1.70
   6  -4   3   11.20    2.60
   6  -4   3   11.90    2.80
   6  -4   3    8.60    2.50
   6  -4   3   15.10    3.90
   6  -4   3    8.80    2.40
  -7   4  -3    4.60    2.30
  -7   4  -3    2.10    3.30
  -7   4  -3    1.10    1.40
  -7   4  -3   -0.10    1.40
   7  -4   3    1.00    3.00
   7  -4   3   -2.80    3.20
   7  -4   3    3.10    2.90
   7  -4   3   -2.90    2.90
   7  -4   3    2.20    2.80
   7   3  -3   21.80    3.80
   7   3  -3   18.90    3.70
   7   3  -3   21.20    3.00
   7   3  -3   24.10    4.00
  -7  -3   3   22.40    2.20
   6   3  -3  312.07    9.40
   6   3  -3  386.86   10.10
   6   3  -3  380.76   10.20
   6   3  -3  362.86   10.80
  -6  -3   3  399.66    9.50
  -6  -3   3  375.66   10.10
  -6  -3   3  397.96    8.60
   5   3  -3    3.50    1.80
   5   3  -3    3.10    1.50
   5   3  -3    2.20    1.20
   5   3  -3    1.60    1.10
   5   3  -3   -0.30    1.50
  -5  -3   3    2.10    1.30
  -5  -3   3    0.10    1.70
  -5  -3   3    2.30    1.50
   4   3  -3   -1.60    1.00
   4   3  -3    0.60    0.80
   4   3  -3   -1.70    1.00
   4   3  -3    0.80    0.80
   4   3  -3    1.20    1.20
  -4  -3   3   -0.20    1.10
  -4  -3   3   -0.10    0.70
  -4  -3   3   -0.90    0.80
  -4  -3   3    0.30    0.60
  -4  -3   3   -0.70    1.00
   3   3  -3  124.19    3.90
   3   3  -3  125.69    3.50
   3   3  -3  128.39    3.50
   3   3  -3  124.19    3.20
   3   3  -3  126.29    3.40
  -3  -3   3  123.29    3.90
  -3  -3   3  121.79    3.20
  -3  -3   3  118.99    3.20
  -3  -3   3  118.29    3.70
  -3  -3   3  127.29    3.10
   2   3  -3  958.60   17.90
   2   3  -3  960.70   18.70
   2   3  -3  960.10   18.00
   2   3  -3  948.21   18.10
   2   3  -3 1010.30   18.40
  -2  -3   3  961.10   18.70
  -2  -3   3  968.20   18.00
  -2  -3   3  951.10   18.00
   1   3  -3 1071.19   20.00
   1   3  -3 1107.79   20.50
   1   3  -3 1091.59   20.30
   1   3  -3 1106.79   20.10
   1   3  -3 1099.59   20.00
  -1  -3   3 1102.89   20.60
  -1  -3   3 1019.30   19.80
  -1  -3   3 1092.19   20.60
  -1  -3   3 1074.09   20.10
  -1  -3   3 1063.59   19.80
  -1  -3   3 1067.59   20.10
   0   3  -3  222.98    5.20
   0   3  -3  228.58    5.00
   0   3  -3  226.28    5.00
   0   3  -3  226.28    4.90
   0   3  -3  226.18    4.90
   0  -3   3  224.48    5.20
   0  -3   3  225.38    4.90
   0  -3   3  227.08    4.80
   0  -3   3  230.48    5.10
   0  -3   3  219.68    5.20
   0  -3   3  223.18    5.10
  -1   3  -3 1259.37   23.40
  -1   3  -3 1228.68   23.60
  -1   3  -3 1303.37   23.80
  -1   3  -3 1243.98   23.60
  -1   3  -3 1284.27   24.00
   1  -3   3 1277.37   23.50
   1  -3   3 1260.67   23.90
   1  -3   3 1249.57   23.70
   1  -3   3 1318.67   23.90
   1  -3   3 1276.27   23.70
   1  -3   3 1266.77   23.80
  -2   3  -3  254.47    6.00
  -2   3  -3  245.78    6.30
  -2   3  -3  244.88    6.00
  -2   3  -3  258.77    5.80
  -2   3  -3  255.27    5.30
   2  -3   3  251.47    6.20
   2  -3   3  252.77    5.60
   2  -3   3  247.98    6.00
   2  -3   3  253.37    6.20
   2  -3   3  257.57    5.90
   2  -3   3  255.87    6.30
  -3   3  -3 1115.39   21.20
  -3   3  -3 1203.48   22.30
  -3   3  -3 1144.79   22.30
  -3   3  -3 1172.68   23.00
  -3   3  -3 1132.09   22.60
   3  -3   3 1181.98   22.80
   3  -3   3 1146.09   22.70
   3  -3   3 1180.38   23.00
   3  -3   3 1152.98   22.50
   3  -3   3 1206.38   22.50
  -4   3  -3   -0.80    1.10
  -4   3  -3    0.60    1.50
  -4   3  -3   -1.50    1.20
  -4   3  -3   -1.10    1.00
   4  -3   3   -2.00    1.30
   4  -3   3   -0.10    1.40
   4  -3   3    0.20    1.40
   4  -3   3   -1.00    1.10
   4  -3   3   -2.40    1.60
  -5   3  -3  280.17    6.90
  -5   3  -3  274.27    7.70
  -5   3  -3  276.27    6.90
   5  -3   3  270.97    7.60
   5  -3   3  257.07    8.20
   5  -3   3  286.87    8.10
   5  -3   3  277.47    7.60
   5  -3   3  284.77    8.40
  -6   3  -3   60.09    4.20
  -6   3  -3   65.69    3.20
  -6   3  -3   61.99    3.20
  -6   3  -3   62.99    4.40
   6  -3   3   74.19    4.80
   6  -3   3   63.79    5.40
   6  -3   3   66.69    5.20
   6  -3   3   69.59    4.80
  -7   3  -3   71.09    4.80
  -7   3  -3   77.19    3.30
  -7   3  -3   86.49    5.90
  -7   3  -3   79.19    3.50
   7  -3   3   79.19    5.80
   7  -3   3   81.89    6.80
   7  -3   3   79.59    6.30
   7  -3   3   73.09    6.00
   7   2  -3   79.99    5.60
   7   2  -3   86.89    4.90
   7   2  -3   82.89    5.70
   7   2  -3   95.89    5.40
  -7  -2   3   87.99    3.70
  -7  -2   3   91.89    5.20
   6   2  -3   49.50    3.70
   6   2  -3   40.50    3.20
   6   2  -3   40.30    3.50
   6   2  -3   38.70    3.90
  -6  -2   3   46.70    3.70
  -6  -2   3   44.30    2.40
  -6  -2   3   39.50    3.30
   5   2  -3   84.29    2.80
   5   2  -3   82.89    3.40
   5   2  -3   78.49    3.50
   5   2  -3   81.99    3.00
  -5  -2   3   84.29    3.70
  -5  -2   3   85.29    3.50
   4   2  -3  113.39    3.30
   4   2  -3  113.69    3.50
   4   2  -3  113.29    3.50
   4   2  -3  112.89    3.30
   4   2  -3  114.79    3.20
  -4  -2   3  110.49    3.70
  -4  -2   3  113.99    3.70
  -4  -2   3  115.79    3.00
   3   2  -3  611.84   12.00
   3   2  -3  648.74   12.30
   3   2  -3  612.64   12.00
   3   2  -3  632.24   12.50
   3   2  -3  626.94   12.20
  -3  -2   3  640.94   12.70
  -3  -2   3  617.24   11.90
  -3  -2   3  635.84   12.40
   2   2  -3   33.50    1.60
   2   2  -3   34.50    0.90
   2   2  -3   36.20    1.20
   2   2  -3   34.00    1.30
   2   2  -3   34.80    1.30
   2   2  -3   34.50    1.60
  -2  -2   3   34.10    1.10
  -2  -2   3   35.60    1.50
  -2  -2   3   34.30    1.10
  -2  -2   3   36.00    2.00
   1   2  -3 1591.14   29.70
  -1  -2   3 1644.64   29.90
   0   2  -3  225.28    4.90
   0   2  -3  222.48    4.70
   0   2  -3  216.88    4.60
   0   2  -3  216.08    4.80
   0   2  -3  223.48    4.70
   0   2  -3  220.78    4.70
   0  -2   3  215.08    4.80
   0  -2   3  222.48    4.50
   0  -2   3  219.48    4.70
   0  -2   3  218.98    4.80
   0  -2   3  221.28    4.90
   0  -2   3  217.88    4.70
  -1   2  -3  114.79    3.30
  -1   2  -3  115.49    3.00
  -1   2  -3  111.29    2.80
  -1   2  -3  114.09    3.10
  -1   2  -3  113.39    3.00
   1  -2   3  112.49    3.20
   1  -2   3  111.99    2.90
   1  -2   3  110.39    3.20
   1  -2   3  112.79    2.90
   1  -2   3  109.09    3.10
   1  -2   3  116.19    3.10
  -2   2  -3 1023.80   19.50
  -2   2  -3 1020.40   19.70
  -2   2  -3 1000.80   18.80
  -2   2  -3  990.90   19.40
  -2   2  -3 1042.50   19.90
   2  -2   3 1004.30   19.40
   2  -2   3 1018.80   19.80
   2  -2   3 1024.90   19.50
   2  -2   3 1004.20   19.60
   2  -2   3 1043.90   19.80
  -3   2  -3  262.17    6.40
  -3   2  -3  261.27    6.70
  -3   2  -3  261.07    5.40
  -3   2  -3  272.07    6.30
  -3   2  -3  277.97    7.00
   3  -2   3  270.67    6.70
   3  -2   3  265.37    6.80
   3  -2   3  257.07    6.80
   3  -2   3  274.77    6.60
   3  -2   3  272.67    6.50
  -4   2  -3    4.30    1.50
  -4   2  -3    6.00    1.60
  -4   2  -3    4.10    0.40
  -4   2  -3    3.80    1.20
  -4   2  -3    3.30    1.10
   4  -2   3    2.60    1.40
   4  -2   3    3.30    1.30
   4  -2   3    3.70    1.40
   4  -2   3    2.80    1.30
   4  -2   3    1.80    1.50
  -5   2  -3  526.35   12.70
  -5   2  -3  534.35   13.60
  -5   2  -3  527.75   11.20
  -5   2  -3  529.45   11.50
   5  -2   3  532.95   12.30
   5  -2   3  534.25   11.90
   5  -2   3  544.15   12.70
   5  -2   3  531.05   12.50
   5  -2   3  533.65   12.80
  -6   2  -3  209.38    6.90
  -6   2  -3  215.28    6.20
  -6   2  -3  224.18    7.40
  -6   2  -3  213.08    5.70
   6  -2   3  212.68    7.40
   6  -2   3  219.58    6.70
   6  -2   3  214.48    7.40
   6  -2   3  213.68    7.70
  -7   2  -3    6.30    2.50
  -7   2  -3    6.20    3.10
  -7   2  -3    3.80    1.80
  -7   2  -3    8.60    1.70
   7  -2   3    4.70    3.10
   7  -2   3    8.20    3.50
   7  -2   3    4.40    3.30
   7  -2   3    8.70    2.50
   7  -2   3    9.00    3.20
   7   1  -3  166.28    6.20
   7   1  -3  159.08    6.30
   7   1  -3  146.19    3.20
   7   1  -3  156.68    6.10
   7   1  -3  149.69    3.30
  -7  -1   3  153.78    4.40
  -7  -1   3  156.08    5.40
   6   1  -3  468.75   10.30
   6   1  -3  456.55   10.70
   6   1  -3  453.95    9.10
   6   1  -3  456.05   10.30
   6   1  -3  461.05   10.50
   6   1  -3  455.85    9.00
  -6  -1   3  465.55   10.40
  -6  -1   3  472.85    9.40
   5   1  -3  298.87    6.30
   5   1  -3  308.27    7.10
   5   1  -3  309.97    7.40
   5   1  -3  309.07    6.40
   5   1  -3  306.87    7.10
   5   1  -3  314.97    6.40
   5   1  -3  306.77    7.00
  -5  -1   3  313.67    7.20
  -5  -1   3  308.87    7.00
  -5  -1   3  306.07    6.40
   4   1  -3 1539.65   28.70
   4   1  -3 1526.45   28.30
   4   1  -3 1531.05   28.50
   4   1  -3 1568.04   28.60
   4   1  -3 1546.65   28.80
   4   1  -3 1600.14   29.00
  -4  -1   3 1577.44   28.90
  -4  -1   3 1598.74   29.10
  -4  -1   3 1527.15   28.30
   3   1  -3  201.28    4.20
   3   1  -3  205.68    4.70
   3   1  -3  205.78    4.40
   3   1  -3  205.28    4.50
   3   1  -3  208.98    4.50
   3   1  -3  201.98    4.20
  -3  -1   3  208.98    4.50
  -3  -1   3  211.18    4.20
  -3  -1   3  204.18    5.00
   2   1  -3  129.39    2.70
   2   1  -3  125.39    2.90
   2   1  -3  129.89    2.80
   2   1  -3  131.59    3.30
   2   1  -3  128.99    2.60
   2   1  -3  129.99    2.60
  -2  -1   3  133.39    3.40
  -2  -1   3  136.29    2.80
  -2  -1   3  128.39    2.60
   1   1  -3  933.81   17.30
   1   1  -3  921.61   16.90
   1   1  -3  915.91   16.80
  -1  -1   3  931.51   17.40
  -1  -1   3  900.21   16.80
   0   1  -3 1577.64   29.20
   0   1  -3 1601.84   29.30
   0  -1   3 1599.14   29.10
   0  -1   3 1620.14   29.20
   0  -1   3 1602.04   29.30
  -1   1  -3  369.76    7.90
  -1   1  -3  365.96    7.90
  -1   1  -3  385.96    7.70
  -1   1  -3  376.66    7.60
  -1   1  -3  368.36    7.50
  -1   1  -3  375.56    7.80
   1  -1   3  381.16    7.70
   1  -1   3  375.96    7.60
   1  -1   3  375.26    7.70
   1  -1   3  373.96    7.90
   1  -1   3  375.46    7.90
  -2   1  -3  310.27    6.70
  -2   1  -3  303.17    7.10
  -2   1  -3  304.47    7.10
  -2   1  -3  318.87    7.00
  -2   1  -3  300.67    6.70
   2  -1   3  306.17    6.70
   2  -1   3  311.37    7.00
   2  -1   3  309.27    7.20
   2  -1   3  305.57    6.90
   2  -1   3  302.37    7.10
  -3   1  -3  258.27    6.40
  -3   1  -3  256.97    6.70
  -3   1  -3  254.87    6.60
  -3   1  -3  260.77    6.10
   3  -1   3  259.77    6.80
   3  -1   3  249.48    6.10
   3  -1   3  252.87    6.60
   3  -1   3  260.97    6.50
   3  -1   3  262.77    6.40
  -4   1  -3  218.38    4.40
  -4   1  -3  221.68    5.90
  -4   1  -3  215.78    6.20
  -4   1  -3  217.08    4.70
  -4   1  -3  210.48    6.50
  -4   1  -3  226.78    5.60
   4  -1   3  225.88    6.40
   4  -1   3  222.38    5.80
   4  -1   3  223.88    6.20
   4  -1   3  211.98    6.50
   4  -1   3  212.68    6.20
  -5   1  -3  307.47    7.30
  -5   1  -3  325.37    8.90
  -5   1  -3  315.77    7.80
   5  -1   3  307.07    8.40
   5  -1   3  310.07    8.70
   5  -1   3  309.87    8.50
   5  -1   3  305.97    7.70
  -6   1  -3   36.60    3.30
  -6   1  -3   31.10    2.70
  -6   1  -3   38.10    3.60
  -6   1  -3   37.40    3.60
   6  -1   3   36.20    3.50
   6  -1   3   36.50    3.50
   6  -1   3   39.70    4.20
   6  -1   3   34.00    3.70
   6  -1   3   38.30    3.60
  -7   1  -3   85.09    3.70
  -7   1  -3   81.79    5.40
  -7   1  -3   80.09    5.00
  -7   1  -3   83.69    4.30
   7  -1   3   82.19    5.10
   7  -1   3   84.19    7.00
   7  -1   3   81.19    5.80
   7  -1   3   82.59    6.70
   7  -1   3   85.29    7.40
   7   0  -3   25.30    2.70
   7   0  -3   22.40    2.90
   7   0  -3   31.00    3.40
   7   0  -3   20.40    2.30
   7   0  -3   29.30    2.90
  -7   0   3   23.90    1.90
  -7   0   3   33.90    2.80
   6   0  -3   71.69    3.10
   6   0  -3   74.69    3.90
   6   0  -3   67.99    3.50
   6   0  -3   73.09    3.40
   6   0  -3   71.49    3.00
  -6   0   3   73.19    3.10
  -6   0   3   77.59    2.70
   5   0  -3   34.60    2.20
   5   0  -3   35.30    1.30
   5   0  -3   34.10    2.30
   5   0  -3   33.40    1.80
   5   0  -3   32.30    2.00
  -5   0   3   32.50    1.40
  -5   0   3   31.00    1.90
   4   0  -3    8.70    1.00
   4   0  -3    7.60    0.90
   4   0  -3    8.10    1.00
   4   0  -3    6.80    0.70
   4   0  -3    9.40    1.00
  -4   0   3    8.90    0.90
  -4   0   3    7.60    0.70
   3   0  -3  230.58    4.60
   3   0  -3  247.38    4.80
   3   0  -3  251.57    4.90
   3   0  -3  250.57    4.70
   3   0  -3  255.07    5.30
  -3   0   3  226.88    4.50
  -3   0   3  248.78    4.70
   2   0  -3  922.11   17.30
   2   0  -3  915.01   17.10
  -1   0   3 1386.66   25.30
   0   0   3 2338.17   42.20
  -1   0  -3 2070.79   37.40
  -1   0  -3 2030.50   37.40
  -1   0  -3 2040.80   37.60
  -1   0  -3 2100.59   37.80
   1   0   3 2030.10   37.70
   1   0   3 2017.10   37.40
   1   0   3 2101.09   37.70
   1   0   3 2050.99   37.50
  -2   0  -3  184.68    4.90
  -2   0  -3  182.38    4.80
  -2   0  -3  185.68    5.10
  -2   0  -3  181.28    4.40
  -2   0  -3  192.98    4.60
   2   0   3  178.28    4.70
   2   0   3  185.48    4.70
   2   0   3  182.78    5.00
   2   0   3  181.58    4.90
   2   0   3  187.48    4.50
  -3   0  -3  965.70   19.30
  -3   0  -3  963.80   19.70
  -3   0  -3  958.70   18.80
  -3   0  -3  946.11   18.70
  -3   0  -3 1007.00   19.40
   3   0   3  993.90   19.50
   3   0   3  966.90   19.20
   3   0   3  979.90   19.30
   3   0   3 1006.70   19.80
   3   0   3  968.10   18.80
  -4   0  -3   58.39    1.90
  -4   0  -3   66.09    3.70
  -4   0  -3   59.49    3.40
  -4   0  -3   56.59    3.20
  -4   0  -3   65.29    2.70
   4   0   3   58.39    2.80
   4   0   3   55.09    3.20
   4   0   3   60.39    3.70
   4   0   3   56.69    3.30
   4   0   3   58.99    3.30
  -5   0  -3    8.20    2.20
  -5   0  -3    7.30    1.60
  -5   0  -3    6.80    1.80
  -5   0  -3    5.30    0.90
  -5   0  -3    7.60    2.10
   5   0   3    4.30    2.20
   5   0   3    3.00    2.00
   5   0   3    3.50    1.90
   5   0   3    4.20    1.60
   5   0   3    6.70    2.00
  -6   0  -3   13.90    2.50
  -6   0  -3   14.10    1.90
  -6   0  -3   16.10    3.00
  -6   0  -3   13.00    2.50
   6   0   3   14.40    2.20
   6   0   3   15.40    3.50
   6   0   3   15.00    2.60
   6   0   3   15.20    3.30
   6   0   3   19.00    2.90
  -7   0  -3   14.20    2.20
  -7   0  -3   12.80    4.10
  -7   0  -3   14.70    2.90
  -7   0  -3   19.30    2.90
   7   0   3   25.60    3.70
   7   0   3   15.30    4.80
   7   0   3   25.10    4.50
   7   0   3   16.10    3.50
   7   0   3   16.30    2.60
   8  -1  -3    1.40    3.20
   8  -1  -3    5.40    2.60
   8  -1  -3    4.10    2.50
   8  -1  -3    4.40    2.70
   8  -1  -3   -2.30    3.30
  -8   1   3    1.50    1.10
   7  -1  -3    1.10    2.20
   7  -1  -3    2.10    2.10
   7  -1  -3   -0.70    1.90
   7  -1  -3    0.90    1.70
   7  -1  -3    0.60    2.00
  -7   1   3    0.40    1.30
  -7   1   3    1.50    0.90
   6  -1  -3  906.51   17.90
   6  -1  -3  939.11   17.70
   6  -1  -3  897.41   18.20
   6  -1  -3  910.81   18.10
  -6   1   3  894.21   17.20
  -6   1   3  912.51   17.00
   5  -1  -3  372.86    7.80
   5  -1  -3  363.16    8.00
   5  -1  -3  371.46    7.90
   5  -1  -3  362.06    7.10
   5  -1  -3  374.66    7.70
  -5   1   3  360.96    7.30
  -5   1   3  373.56    7.20
   4  -1  -3   58.89    1.90
   4  -1  -3   55.99    1.90
   4  -1  -3   54.29    1.80
   4  -1  -3   56.89    1.80
   4  -1  -3   56.09    1.80
  -4   1   3   57.09    1.50
  -4   1   3   57.79    1.50
   3  -1  -3  935.91   17.00
   3  -1  -3  874.81   16.10
   3  -1  -3  915.41   16.40
   3  -1  -3  871.71   16.30
  -3   1   3  880.21   16.10
   2  -1  -3  304.07    5.70
   2  -1  -3  306.07    5.80
  -2   1   3  301.57    5.70
  -2   1   3  309.47    5.60
   1  -1  -3  788.82   14.80
   1  -1  -3  791.32   14.20
   1  -1  -3  796.32   14.40
   1  -1  -3  773.72   14.20
   1  -1  -3  734.13   14.10
  -1   1   3  767.92   14.30
  -1   1   3  790.42   14.40
   0  -1  -3 5264.47   92.19
   0   1   3 4513.45   92.79
  -1  -1  -3    3.20    0.80
  -1  -1  -3    1.20    0.80
  -1  -1  -3    2.60    0.70
  -1  -1  -3    1.30    0.60
  -1  -1  -3    2.60    0.80
   1   1   3    2.60    0.70
   1   1   3    1.80    0.80
   1   1   3    2.10    0.80
   1   1   3    1.80    0.60
   1   1   3    2.70    0.80
  -2  -1  -3   54.69    2.60
  -2  -1  -3   54.59    2.30
  -2  -1  -3   56.19    2.30
  -2  -1  -3   56.19    2.80
  -2  -1  -3   58.29    2.30
   2   1   3   54.19    2.00
   2   1   3   54.29    2.70
   2   1   3   53.19    2.50
   2   1   3   50.99    2.50
   2   1   3   57.39    2.40
  -3  -1  -3  452.65   10.10
  -3  -1  -3  451.45    9.50
  -3  -1  -3  449.86   10.20
  -3  -1  -3  461.45   10.70
  -3  -1  -3  464.65    9.70
   3   1   3  452.85    9.40
   3   1   3  441.86    9.90
   3   1   3  453.75   10.30
   3   1   3  459.55   10.60
   3   1   3  462.85   10.20
  -4  -1  -3   44.30    2.00
  -4  -1  -3   46.50    2.50
  -4  -1  -3   44.30    3.50
  -4  -1  -3   45.40    2.90
  -4  -1  -3   44.00    3.20
   4   1   3   45.50    3.20
   4   1   3   42.90    3.20
   4   1   3   46.20    3.50
   4   1   3   45.90    3.00
   4   1   3   42.50    2.40
  -5  -1  -3   92.99    3.00
  -5  -1  -3  100.29    4.50
  -5  -1  -3   90.89    3.50
  -5  -1  -3   96.29    5.30
  -5  -1  -3   95.19    4.40
   5   1   3   95.09    4.80
   5   1   3   92.89    4.80
   5   1   3   95.69    3.60
   5   1   3   92.59    5.30
   5   1   3   94.39    4.80
  -6  -1  -3   34.20    2.20
  -6  -1  -3   31.80    3.00
  -6  -1  -3   29.50    3.90
  -6  -1  -3   34.20    3.20
  -6  -1  -3   33.00    2.70
   6   1   3   31.10    3.70
   6   1   3   30.80    2.80
   6   1   3   26.90    3.10
   6   1   3   32.30    4.10
   6   1   3   34.10    3.70
  -7  -1  -3    9.90    3.50
  -7  -1  -3    1.20    2.80
  -7  -1  -3    1.60    2.30
  -7  -1  -3   -3.30    2.00
   7   1   3   -5.60    3.40
   7   1   3    0.60    3.40
   7   1   3   11.70    4.20
   7   1   3    2.20    3.10
   7   1   3    1.70    1.90
   8  -2  -3   20.40    3.80
   8  -2  -3   26.90    2.70
   8  -2  -3   25.10    2.90
  -8   2   3   22.00    1.50
   7  -2  -3   88.09    4.60
   7  -2  -3   94.69    5.10
   7  -2  -3   92.59    3.90
   7  -2  -3   99.89    3.90
  -7   2   3   98.09    2.80
  -7   2   3   94.79    2.80
   6  -2  -3   30.50    2.30
   6  -2  -3   24.40    2.60
   6  -2  -3   31.20    3.10
   6  -2  -3   30.60    2.30
  -6   2   3   30.80    1.50
  -6   2   3   26.40    1.80
   5  -2  -3  203.08    4.40
   5  -2  -3  202.08    5.10
   5  -2  -3  202.88    5.20
   5  -2  -3  207.58    5.00
   5  -2  -3  201.18    4.80
  -5   2   3  206.78    4.30
  -5   2   3  202.08    4.50
   4  -2  -3   89.49    2.70
   4  -2  -3   90.39    2.70
   4  -2  -3   87.19    2.40
   4  -2  -3   83.89    2.40
   4  -2  -3   87.19    2.50
  -4   2   3   85.39    2.40
   3  -2  -3   37.40    1.50
   3  -2  -3   40.60    1.40
   3  -2  -3   39.30    1.20
   3  -2  -3   35.10    1.30
  -3   2   3   39.00    1.10
  -3   2   3   36.90    1.40
   2  -2  -3  265.47    5.30
   2  -2  -3  277.27    5.40
   2  -2  -3  267.97    5.30
   2  -2  -3  265.47    5.60
  -2   2   3  274.97    5.60
  -2   2   3  270.27    5.30
   1  -2  -3 1443.86   26.50
   1  -2  -3 1367.06   25.60
   1  -2  -3 1399.76   25.70
   1  -2  -3 1449.76   26.00
  -1   2   3 1408.66   25.50
  -1   2   3 1403.46   26.10
  -1   2   3 1411.66   25.70
   0  -2  -3 1008.10   19.30
   0  -2  -3 1021.00   19.20
   0  -2  -3  984.10   19.00
   0  -2  -3 1007.10   19.00
   0  -2  -3 1055.69   18.90
   0   2   3 1004.70   19.30
   0   2   3 1028.90   19.20
   0   2   3 1044.00   19.10
   0   2   3  991.70   18.70
  -1  -2  -3 1255.07   23.70
  -1  -2  -3 1246.28   23.70
  -1  -2  -3 1241.58   23.60
  -1  -2  -3 1286.97   24.10
  -1  -2  -3 1216.98   23.50
   1   2   3 1245.98   24.00
   1   2   3 1228.48   23.50
   1   2   3 1285.07   23.80
   1   2   3 1301.67   24.10
   1   2   3 1291.07   23.40
  -2  -2  -3 2095.89   39.30
  -2  -2  -3 2090.69   39.00
  -2  -2  -3 2093.09   39.80
  -2  -2  -3 2172.48   39.60
  -2  -2  -3 2073.59   38.90
   2   2   3 2188.98   39.50
   2   2   3 2191.58   39.90
   2   2   3 2051.19   38.70
   2   2   3 2059.09   39.00
   2   2   3 2181.18   39.70
  -3  -2  -3   -1.10    1.10
  -3  -2  -3    1.00    0.90
  -3  -2  -3    0.50    1.20
  -3  -2  -3   -0.60    1.00
  -3  -2  -3    0.60    1.00
  -3  -2  -3    3.10    1.60
   3   2   3    0.10    1.10
   3   2   3    1.60    1.20
   3   2   3    0.10    1.30
   3   2   3    0.60    0.80
   3   2   3   -0.70    1.40
  -4  -2  -3  117.69    4.00
  -4  -2  -3  115.59    3.60
  -4  -2  -3  118.39    3.80
  -4  -2  -3  113.19    4.60
  -4  -2  -3  120.39    5.20
  -4  -2  -3  108.29    5.20
   4   2   3  107.29    5.60
   4   2   3  118.79    4.40
   4   2   3  115.89    4.90
   4   2   3  121.29    3.60
   4   2   3  111.99    4.80
  -5  -2  -3  346.47    9.50
  -5  -2  -3  352.66   10.50
  -5  -2  -3  360.46    8.40
  -5  -2  -3  338.07    8.00
  -5  -2  -3  356.26    9.10
   5   2   3  361.56   10.30
   5   2   3  349.77    7.90
   5   2   3  351.76    9.10
   5   2   3  360.06   11.00
   5   2   3  354.36    9.90
  -6  -2  -3   22.60    3.20
  -6  -2  -3   16.20    4.50
  -6  -2  -3   25.30    2.30
   6   2   3   25.60    4.20
   6   2   3   24.90    4.30
   6   2   3   30.30    3.20
   6   2   3   25.50    2.20
   6   2   3   28.50    4.00
   8  -3  -3  122.89    4.80
   8  -3  -3  123.89    7.10
   8  -3  -3  124.59    6.70
  -8   3   3  124.99    2.60
   7  -3  -3  135.89    4.70
   7  -3  -3  141.09    5.80
   7  -3  -3  127.99    4.60
   7  -3  -3  131.29    5.30
  -7   3   3  135.39    3.50
   6  -3  -3    5.80    1.70
   6  -3  -3    6.60    1.80
   6  -3  -3    5.50    1.40
   6  -3  -3    7.20    1.70
  -6   3   3    6.60    1.20
   5  -3  -3  901.91   17.90
   5  -3  -3  932.61   17.70
   5  -3  -3  920.01   17.80
   5  -3  -3  928.91   17.50
   5  -3  -3  931.11   18.00
  -5   3   3  913.91   17.10
  -5   3   3  931.11   17.60
   4  -3  -3   97.49    2.80
   4  -3  -3   98.49    2.80
   4  -3  -3   96.79    3.00
   4  -3  -3  100.79    3.10
  -4   3   3   96.39    3.00
  -4   3   3  101.69    2.50
   3  -3  -3   80.99    2.40
   3  -3  -3   81.99    2.70
   3  -3  -3   79.79    2.20
   3  -3  -3   80.99    2.30
  -3   3   3   76.49    2.50
  -3   3   3   81.79    2.20
   2  -3  -3  966.60   18.10
   2  -3  -3  931.61   17.60
   2  -3  -3  940.61   17.50
   2  -3  -3  961.10   17.70
  -2   3   3  939.51   17.30
  -2   3   3  950.00   17.60
  -2   3   3  932.81   18.00
  -2   3   3  947.41   17.30
   1  -3  -3   11.70    1.10
   1  -3  -3   12.60    1.20
   1  -3  -3   11.30    1.00
   1  -3  -3   12.70    1.00
  -1   3   3   12.30    1.00
  -1   3   3   12.80    1.30
  -1   3   3   10.90    1.20
  -1   3   3   13.40    1.10
   0  -3  -3   71.19    2.40
   0  -3  -3   72.19    2.40
   0  -3  -3   70.19    2.40
   0  -3  -3   73.29    2.60
   0  -3  -3   68.79    2.80
   0   3   3   74.49    2.50
   0   3   3   70.49    2.20
   0   3   3   69.69    2.60
   0   3   3   71.19    2.90
  -1  -3  -3  842.72   16.30
  -1  -3  -3  835.92   16.90
  -1  -3  -3  823.72   16.30
  -1  -3  -3  864.61   16.60
  -1  -3  -3  821.92   16.30
   1   3   3  844.92   16.80
   1   3   3  849.91   16.60
   1   3   3  823.22   16.00
   1   3   3  831.72   16.90
  -2  -3  -3    4.90    1.10
  -2  -3  -3    5.70    1.60
  -2  -3  -3    5.40    1.20
  -2  -3  -3    5.20    1.30
  -2  -3  -3    6.90    1.10
   2   3   3    4.20    1.50
   2   3   3    7.90    1.20
   2   3   3    5.80    1.10
   2   3   3    5.70    1.50
   2   3   3    6.90    1.40
  -3  -3  -3    9.40    1.30
  -4  -3  -3  167.08    4.80
  -4  -3  -3  172.08    6.60
  -4  -3  -3  169.88    6.80
  -4  -3  -3  176.18    5.20
  -4  -3  -3  164.78    4.80
   4   3   3  180.98    6.60
   4   3   3  150.08    7.50
   4   3   3  171.18    6.30
   4   3   3  171.58    4.80
   4   3   3  169.08    5.40
  -5  -3  -3   19.80    2.60
  -5  -3  -3   14.30    3.50
  -5  -3  -3   14.50    3.50
  -5  -3  -3   18.80    2.40
  -5  -3  -3   17.80    2.20
   5   3   3   18.60    3.30
   5   3   3   19.20    2.00
   5   3   3   17.70    3.20
   5   3   3   16.90    2.40
   5   3   3   18.70    3.60
  -6  -3  -3   51.09    5.70
  -6  -3  -3   67.39    4.20
  -6  -3  -3   92.09    6.80
  -6  -3  -3   72.69    4.50
  -6  -3  -3   66.69    5.40
   6   3   3   58.89    6.40
   6   3   3   74.49    6.60
   6   3   3   73.29    6.60
   6   3   3   65.29    4.90
   7  -4  -3   58.49    3.90
   7  -4  -3   65.09    4.10
   7  -4  -3   63.19    4.20
   7  -4  -3   54.99    4.70
  -7   4   3   60.49    2.40
  -7   4   3   60.19    2.80
   6  -4  -3    6.40    1.90
   6  -4  -3    5.90    0.90
   6  -4  -3    5.80    0.70
   6  -4  -3    5.70    1.80
   6  -4  -3    5.70    1.80
   6  -4  -3    5.40    1.70
  -6   4   3    5.80    1.10
  -6   4   3    7.50    1.50
   5  -4  -3    1.50    1.20
   5  -4  -3    2.50    1.20
   5  -4  -3    0.10    1.30
   5  -4  -3    1.20    1.30
   5  -4  -3    2.00    0.80
  -5   4   3    1.90    0.90
  -5   4   3    4.00    1.20
   4  -4  -3  278.47    6.60
   4  -4  -3  267.17    6.20
   4  -4  -3  276.27    6.10
   4  -4  -3  269.47    6.50
  -4   4   3  277.07    5.90
  -4   4   3  273.37    6.50
   3  -4  -3  165.78    4.70
   3  -4  -3  164.68    4.10
   3  -4  -3  168.08    4.00
   3  -4  -3  172.78    4.30
  -3   4   3  169.88    3.40
  -3   4   3  167.28    4.00
  -3   4   3  163.88    3.40
  -3   4   3  174.08    4.60
   2  -4  -3   82.49    3.20
   2  -4  -3   84.49    2.60
   2  -4  -3   83.79    2.60
   2  -4  -3   87.69    2.60
  -2   4   3   83.59    2.50
  -2   4   3   85.79    2.50
  -2   4   3   83.49    3.10
   1  -4  -3    3.80    0.80
   1  -4  -3    2.40    1.10
   1  -4  -3    3.60    0.90
   1  -4  -3    2.30    0.70
  -1   4   3    2.40    0.90
  -1   4   3    3.00    0.80
  -1   4   3    2.60    1.20
  -1   4   3    2.90    0.80
   0  -4  -3  895.91   17.70
   0  -4  -3  923.61   17.70
   0  -4  -3  901.01   18.00
   0  -4  -3  903.71   17.70
   0  -4  -3  941.11   18.50
   0   4   3  922.31   17.90
   0   4   3  898.01   18.10
   0   4   3  928.31   17.60
   0   4   3  938.91   18.70
  -1  -4  -3  229.18    6.50
  -1  -4  -3  241.58    5.90
  -1  -4  -3  238.28    5.80
  -1  -4  -3  231.18    5.80
  -1  -4  -3  241.78    6.10
   1   4   3  228.68    6.30
   1   4   3  240.38    6.70
   1   4   3  237.48    5.60
   1   4   3  238.08    6.20
  -2  -4  -3 1318.87   25.50
  -2  -4  -3 1310.77   25.40
  -2  -4  -3 1296.57   26.50
  -2  -4  -3 1325.77   25.50
  -2  -4  -3 1372.76   26.10
  -2  -4  -3 1343.57   25.30
   2   4   3 1289.87   25.10
   2   4   3 1307.27   26.40
   2   4   3 1315.97   26.00
   2   4   3 1379.86   26.50
  -3  -4  -3  143.59    4.50
  -3  -4  -3  141.29    4.90
  -3  -4  -3  147.59    6.10
  -3  -4  -3  145.19    4.90
  -3  -4  -3  148.99    5.70
  -3  -4  -3  142.19    4.60
   3   4   3  151.68    5.90
   3   4   3  146.59    5.80
  -4  -4  -3  108.99    6.30
  -4  -4  -3  119.59    4.60
  -4  -4  -3  117.59    4.00
  -4  -4  -3  112.99    4.80
  -4  -4  -3  116.69    4.50
  -4  -4  -3  118.39    5.90
   4   4   3  107.19    6.10
   4   4   3  117.49    5.70
   4   4   3  112.59    4.50
   4   4   3  113.39    5.90
  -5  -4  -3   21.20    4.30
  -5  -4  -3   18.60    2.70
  -5  -4  -3   17.70    3.70
  -5  -4  -3   19.80    2.80
  -5  -4  -3   20.10    2.80
   5   4   3   23.30    4.50
   5   4   3   16.10    2.60
   5   4   3   19.50    4.20
   5   4   3   24.70    3.90
  -6  -4  -3   49.70    4.50
  -6  -4  -3   41.30    3.90
  -6  -4  -3   47.10    5.70
  -6  -4  -3   54.09    4.90
  -6  -4  -3   42.10    5.80
   6   4   3   44.30    5.50
   6   4   3   47.00    6.30
   6   4   3   43.50    4.30
   6   4   3   50.39    5.40
   7  -5  -3   66.59    4.40
   7  -5  -3   73.99    4.60
   7  -5  -3   64.19    4.20
  -7   5   3   68.29    3.70
  -7   5   3   67.89    2.80
   6  -5  -3   53.19    3.30
   6  -5  -3   54.09    2.30
   6  -5  -3   58.09    3.70
   6  -5  -3   62.29    4.00
   6  -5  -3   53.09    2.70
   6  -5  -3   56.39    3.80
  -6   5   3   57.59    2.50
  -6   5   3   58.09    3.50
   5  -5  -3   25.70    2.30
   5  -5  -3   32.30    2.00
   5  -5  -3   27.00    2.90
   5  -5  -3   31.30    2.80
   5  -5  -3   26.30    2.70
  -5   5   3   29.20    1.90
   4  -5  -3  100.89    3.30
   4  -5  -3   98.09    3.50
   4  -5  -3  101.09    4.10
   4  -5  -3   99.89    3.60
   4  -5  -3  100.39    3.30
  -4   5   3  100.09    3.10
  -4   5   3   98.89    3.70
   3  -5  -3  433.76    8.90
   3  -5  -3  364.76    9.70
   3  -5  -3  431.06    9.80
   3  -5  -3  431.46    9.10
  -3   5   3  437.26    9.00
  -3   5   3  443.66    9.80
  -3   5   3  436.66    8.50
  -3   5   3  428.36    8.70
   2  -5  -3    2.60    0.90
   2  -5  -3    1.50    1.00
   2  -5  -3    1.10    1.20
   2  -5  -3    2.70    0.90
  -2   5   3    4.80    0.90
  -2   5   3    1.70    0.80
  -2   5   3    2.90    1.20
  -2   5   3    3.40    1.00
   1  -5  -3  497.05   10.50
   1  -5  -3  498.65   10.40
   1  -5  -3  499.75   10.30
   1  -5  -3  492.65   11.20
  -1   5   3  500.85   10.70
  -1   5   3  494.65   10.50
  -1   5   3  506.35   10.30
  -1   5   3  504.85   11.50
   0  -5  -3  133.29    4.00
   0  -5  -3  135.29    4.10
   0  -5  -3  129.59    4.10
   0  -5  -3  135.59    4.10
   0  -5  -3  128.69    4.70
   0  -5  -3  137.29    4.40
   0   5   3  128.99    4.40
   0   5   3  131.19    4.30
   0   5   3  134.19    5.00
   0   5   3  137.29    3.90
  -1  -5  -3   57.49    2.90
  -1  -5  -3   53.99    2.50
  -1  -5  -3   52.49    3.10
  -1  -5  -3   56.19    2.80
  -1  -5  -3   57.49    3.70
  -1  -5  -3   55.59    2.80
   1   5   3   50.69    3.70
   1   5   3   55.49    2.60
   1   5   3   52.09    3.30
   1   5   3   52.99    3.10
  -2  -5  -3    8.30    1.60
  -2  -5  -3    7.00    1.60
  -2  -5  -3    8.70    1.70
  -2  -5  -3    7.40    1.70
  -2  -5  -3    8.40    2.30
  -2  -5  -3    8.70    2.10
   2   5   3   12.10    2.30
   2   5   3    5.10    1.80
   2   5   3   11.30    2.40
   2   5   3    8.70    1.50
  -3  -5  -3  181.48    6.70
  -3  -5  -3  185.78    6.90
  -3  -5  -3  186.48    5.60
  -3  -5  -3  190.68    7.50
   3   5   3  189.88    5.60
   3   5   3  184.98    7.20
   3   5   3  189.38    7.30
   3   5   3  181.08    6.60
  -4  -5  -3  121.89    7.40
  -4  -5  -3  113.39    4.90
  -4  -5  -3  123.59    5.30
  -4  -5  -3  122.79    6.70
  -4  -5  -3  123.59    4.40
   4   5   3  122.49    4.90
   4   5   3  117.49    6.40
   4   5   3  123.99    7.00
   4   5   3  117.69    7.20
  -5  -5  -3   34.40    3.70
  -5  -5  -3   36.90    3.60
  -5  -5  -3   36.70    4.00
  -5  -5  -3   33.20    5.60
  -5  -5  -3   43.80    4.90
   5   5   3   40.90    4.10
   5   5   3   32.10    5.30
   5   5   3   37.00    5.20
   5   5   3   38.30    5.10
   7  -6  -3    3.00    2.50
   7  -6  -3    5.50    3.50
   7  -6  -3    7.00    3.20
   7  -6  -3    2.40    3.40
  -7   6   3    5.30    1.60
  -7   6   3    5.90    2.40
   6  -6  -3    9.00    2.60
   6  -6  -3    4.60    2.10
   6  -6  -3    7.00    1.50
   6  -6  -3    7.30    2.60
   6  -6  -3    8.10    2.00
  -6   6   3    7.50    1.50
  -6   6   3    8.00    2.20
   5  -6  -3   15.20    2.30
   5  -6  -3   17.90    2.30
   5  -6  -3   16.90    1.90
   5  -6  -3   14.80    1.70
   5  -6  -3   14.20    2.50
  -5   6   3   14.50    2.10
  -5   6   3   17.60    1.70
   4  -6  -3    0.30    1.40
   4  -6  -3    0.30    1.30
   4  -6  -3   -1.60    1.00
   4  -6  -3   -1.00    1.50
   4  -6  -3    1.50    1.80
  -4   6   3    0.30    0.60
  -4   6   3    0.20    0.90
  -4   6   3    0.90    0.60
   3  -6  -3  718.73   15.70
   3  -6  -3  706.03   14.70
   3  -6  -3  718.53   14.60
   3  -6  -3  708.83   14.30
   3  -6  -3  735.23   14.60
  -3   6   3  719.03   14.00
  -3   6   3  717.13   15.60
  -3   6   3  713.53   14.20
  -3   6   3  656.23   14.20
   2  -6  -3  134.19    4.20
   2  -6  -3  132.59    4.90
   2  -6  -3  130.49    4.30
   2  -6  -3  139.49    4.20
   2  -6  -3  132.69    4.20
  -2   6   3  139.59    5.00
  -2   6   3  127.49    4.00
  -2   6   3  137.99    4.40
  -2   6   3  125.59    4.00
   1  -6  -3   50.29    2.70
   1  -6  -3   42.30    3.40
   1  -6  -3   47.90    3.40
   1  -6  -3   47.70    3.00
   1  -6  -3   50.19    2.90
   1  -6  -3   47.60    2.50
  -1   6   3   49.30    3.60
  -1   6   3   50.99    3.10
  -1   6   3   44.00    2.50
  -1   6   3   45.30    2.80
   0  -6  -3   55.19    3.00
   0  -6  -3   58.19    3.30
   0  -6  -3   57.69    3.00
   0  -6  -3   53.39    3.70
   0  -6  -3   57.39    3.10
   0  -6  -3   59.89    3.00
   0   6   3   55.69    2.80
   0   6   3   53.89    3.20
   0   6   3   60.89    3.40
   0   6   3   57.09    4.10
  -1  -6  -3    4.60    1.70
  -1  -6  -3    1.70    2.10
  -1  -6  -3    4.90    1.50
  -1  -6  -3    5.40    1.60
  -1  -6  -3    5.20    2.10
   1   6   3    2.50    1.90
   1   6   3    5.10    1.70
   1   6   3    5.80    2.40
   1   6   3    2.60    2.00
  -2  -6  -3   97.19    4.30
  -2  -6  -3   98.89    4.00
  -2  -6  -3   98.29    5.10
  -2  -6  -3   88.49    5.50
  -2  -6  -3   98.39    4.60
   2   6   3  106.99    5.40
   2   6   3   91.79    4.00
   2   6   3   98.49    5.70
   2   6   3   93.29    4.80
  -3  -6  -3    3.00    2.50
  -3  -6  -3    5.00    2.00
  -3  -6  -3    8.30    3.40
  -3  -6  -3    1.30    2.00
  -3  -6  -3    7.00    2.30
  -3  -6  -3    6.30    3.00
   3   6   3    5.90    2.00
   3   6   3   -0.50    2.90
   3   6   3    5.70    2.70
   3   6   3   -0.10    3.10
  -4  -6  -3   28.00    5.00
  -4  -6  -3   16.80    3.00
  -4  -6  -3   15.70    2.70
  -4  -6  -3   19.30    2.60
  -4  -6  -3   20.60    2.80
  -4  -6  -3   23.60    4.30
   4   6   3   14.40    3.70
   4   6   3   18.90    4.60
   4   6   3   17.00    4.30
   4   6   3   16.60    2.70
   6  -7  -3  158.78    5.60
   6  -7  -3  150.98    4.90
   6  -7  -3  142.59    6.60
   6  -7  -3  153.38    6.30
   6  -7  -3  143.79    6.30
  -6   7   3  158.68    5.20
  -6   7   3  152.78    6.90
   5  -7  -3  114.79    5.10
   5  -7  -3  111.29    5.30
   5  -7  -3  111.79    5.40
   5  -7  -3  115.09    4.40
  -5   7   3  118.69    5.60
  -5   7   3  111.19    4.20
   4  -7  -3   27.00    2.90
   4  -7  -3   32.10    2.60
   4  -7  -3   32.80    3.20
   4  -7  -3   29.10    3.00
   4  -7  -3   31.20    3.00
  -4   7   3   32.20    2.00
  -4   7   3   30.60    2.70
  -4   7   3   30.90    3.20
  -4   7   3   33.50    2.40
   3  -7  -3   67.49    4.20
   3  -7  -3   68.29    3.60
   3  -7  -3   65.89    3.40
   3  -7  -3   72.99    3.30
   3  -7  -3   73.49    3.60
  -3   7   3   66.39    3.20
  -3   7   3   69.69    3.40
  -3   7   3   77.99    3.30
  -3   7   3   70.69    4.10
   2  -7  -3   44.70    3.80
   2  -7  -3   44.50    3.40
   2  -7  -3   43.80    2.70
  -2   7   3   46.80    2.90
  -2   7   3   42.70    3.30
  -2   7   3   40.40    3.00
  -2   7   3   52.79    3.80
   1  -7  -3    2.00    1.40
   1  -7  -3    1.40    1.50
   1  -7  -3    2.30    1.40
   1  -7  -3    0.80    2.30
   1  -7  -3    2.40    2.20
  -1   7   3    4.40    1.60
  -1   7   3    3.10    1.70
  -1   7   3    4.40    1.70
   0  -7  -3   92.99    4.00
   0  -7  -3   86.39    4.00
   0  -7  -3   96.99    4.50
   0  -7  -3   91.09    4.40
   0  -7  -3   94.79    5.10
   0  -7  -3   89.09    4.20
   0   7   3   95.39    4.90
   0   7   3   93.59    4.70
   0   7   3   89.89    3.90
   0   7   3   91.79    5.30
  -1  -7  -3  202.88    6.20
  -1  -7  -3  211.18    6.40
  -1  -7  -3  194.38    6.20
  -1  -7  -3  184.48    6.00
  -1  -7  -3  192.58    6.70
  -1  -7  -3  183.78    7.50
   1   7   3  203.28    6.80
   1   7   3  197.68    7.90
   1   7   3  196.68    7.20
   1   7   3  190.18    5.90
  -2  -7  -3  100.49    4.90
  -2  -7  -3   98.29    4.80
  -2  -7  -3   95.09    4.70
  -2  -7  -3  100.59    6.40
  -2  -7  -3   89.09    5.80
  -2  -7  -3   95.29    4.70
   2   7   3   91.29    4.50
   2   7   3   96.99    5.70
   2   7   3   90.59    6.70
  -3  -7  -3   27.90    4.80
  -3  -7  -3   27.90    3.00
  -3  -7  -3   35.30    3.40
  -3  -7  -3   28.90    3.30
  -3  -7  -3   25.20    4.20
  -3  -7  -3   33.30    3.20
   3   7   3   27.80    3.00
   3   7   3   28.90    4.00
   3   7   3   26.40    4.60
  -4  -7  -3  121.29    6.50
  -4  -7  -3   98.49    5.10
  -4  -7  -3  124.29    9.50
  -4  -7  -3  140.09   10.00
  -4  -7  -3  122.29    6.90
  -4  -7  -3  106.29    6.30
   4   7   3  131.99    9.70
   4   7   3  117.99    7.20
   4   7   3  114.29    5.60
   4   7   3  118.59    9.30
   6  -8  -3   24.40    3.30
   6  -8  -3   26.30    4.20
   6  -8  -3   22.10    2.90
   6  -8  -3   19.40    4.10
   6  -8  -3   19.00    3.70
  -6   8   3   24.70    3.60
   5  -8  -3  124.19    6.50
   5  -8  -3  121.49    6.70
   5  -8  -3  122.99    5.30
   5  -8  -3  123.89    6.30
   5  -8  -3  123.79    5.00
  -5   8   3  123.69    6.70
  -5   8   3  120.59    4.90
   4  -8  -3   72.09    4.40
   4  -8  -3   74.59    5.70
   4  -8  -3   73.79    4.90
   4  -8  -3   76.99    4.60
  -4   8   3   69.19    3.30
  -4   8   3   52.99    3.40
  -4   8   3   70.79    3.70
  -4   8   3   71.69    5.50
   3  -8  -3    4.90    2.30
   3  -8  -3    5.80    2.60
   3  -8  -3    4.60    1.80
   3  -8  -3    7.30    1.80
   3  -8  -3    3.90    2.60
  -3   8   3    5.30    1.70
  -3   8   3    8.30    2.10
  -3   8   3    7.60    2.50
  -3   8   3    5.70    1.80
   2  -8  -3   59.99    3.90
   2  -8  -3   71.29    4.60
   2  -8  -3   69.39    4.00
   2  -8  -3   63.49    4.00
   2  -8  -3   80.79    5.00
  -2   8   3   64.29    4.90
  -2   8   3   68.09    4.00
  -2   8   3   72.79    4.20
  -2   8   3   62.29    3.70
   1  -8  -3  279.17    8.10
   1  -8  -3  293.47    8.10
   1  -8  -3  307.37    8.20
   1  -8  -3  283.77    8.90
   1  -8  -3  296.27    7.90
   1  -8  -3  291.47    9.30
  -1   8   3  306.57    8.40
  -1   8   3  291.97    8.50
  -1   8   3  284.07    9.30
  -1   8   3  306.47    7.80
   0  -8  -3    1.20    2.00
   0  -8  -3    1.40    2.20
   0  -8  -3    4.50    3.00
   0  -8  -3    5.80    2.00
   0  -8  -3    1.90    1.90
   0  -8  -3   -0.20    1.90
   0   8   3   -0.40    2.30
   0   8   3    4.20    2.90
   0   8   3    5.00    2.50
   0   8   3    1.50    1.60
  -1  -8  -3   71.29    6.30
  -1  -8  -3   67.39    5.20
  -1  -8  -3   65.89    4.40
  -1  -8  -3   61.89    4.40
  -1  -8  -3   65.69    4.60
  -1  -8  -3   63.29    4.40
   1   8   3   68.09    6.30
   1   8   3   61.19    4.60
   1   8   3   75.79    5.50
   1   8   3   65.29    5.30
  -2  -8  -3   34.50    5.00
  -2  -8  -3   37.40    5.70
  -2  -8  -3   38.00    3.60
  -2  -8  -3   35.30    3.50
  -2  -8  -3   34.80    3.50
  -2  -8  -3   31.20    4.30
   2   8   3   37.40    4.10
   2   8   3   41.00    5.30
   2   8   3   37.00    4.70
   2   8   3   36.00    3.40
  -3  -8  -3    6.30    3.00
  -3  -8  -3    2.10    3.10
  -3  -8  -3    7.10    3.00
  -3  -8  -3    6.20    6.40
  -3  -8  -3   10.80    3.10
  -3  -8  -3    5.70    4.30
   3   8   3    4.30    4.90
   3   8   3    7.00    3.30
   3   8   3    1.50    6.50
   3   8   3    6.00    2.60
   5  -9  -3   -0.70    3.70
   5  -9  -3    1.00    3.10
   5  -9  -3   -1.60    2.40
   5  -9  -3   -2.70    2.80
  -5   9   3    2.20    1.80
  -5   9   3    0.00    3.50
   4  -9  -3  106.29    5.90
   4  -9  -3  117.99    6.60
   4  -9  -3  113.89    6.30
   4  -9  -3  116.49    6.00
   4  -9  -3  121.29    5.40
  -4   9   3  119.79    4.80
  -4   9   3  114.69    5.10
  -4   9   3  101.59    6.50
  -4   9   3  113.79    5.20
   3  -9  -3    1.90    2.20
   3  -9  -3    5.10    2.10
   3  -9  -3    4.80    3.10
   3  -9  -3    1.90    2.40
   3  -9  -3   -0.40    3.20
  -3   9   3    2.90    3.00
  -3   9   3    2.80    2.30
  -3   9   3    2.50    2.60
  -3   9   3    0.30    2.40
   2  -9  -3    8.00    2.60
   2  -9  -3    9.30    2.30
   2  -9  -3   11.10    3.70
   2  -9  -3    8.30    2.70
   2  -9  -3   13.00    2.60
   2  -9  -3    4.60    4.20
  -2   9   3    9.30    2.50
  -2   9   3   13.40    3.30
  -2   9   3    7.10    2.70
  -2   9   3    6.80    2.70
   1  -9  -3    5.20    3.30
   1  -9  -3   12.50    2.60
   1  -9  -3   12.50    2.80
   1  -9  -3   11.20    3.80
   1  -9  -3    7.70    2.70
   1  -9  -3    7.90    2.50
  -1   9   3    7.80    3.00
  -1   9   3   12.50    2.90
  -1   9   3   13.30    3.40
  -1   9   3    6.50    2.60
   0  -9  -3    0.70    3.70
   0  -9  -3   -0.20    2.50
   0  -9  -3    5.60    2.50
   0  -9  -3    0.70    2.50
   0  -9  -3   -1.60    2.60
   0   9   3    4.80    3.10
   0   9   3    4.60    2.20
   0   9   3   -1.20    3.00
   0   9   3   -6.30    4.20
  -1  -9  -3   71.19    6.10
  -1  -9  -3   71.49    5.60
  -1  -9  -3   60.89    6.30
  -1  -9  -3   65.79    5.30
  -1  -9  -3   65.09    5.20
  -1  -9  -3   63.29    6.10
   1   9   3   60.79    5.50
   1   9   3   72.99    6.30
   1   9   3   61.19    4.80
   1   9   3   72.59    7.80
  -2  -9  -3   63.89    5.40
  -2  -9  -3   76.59    7.50
  -2  -9  -3   77.49    6.10
  -2  -9  -3   70.09    5.30
  -2  -9  -3   76.79    6.80
  -2  -9  -3   64.69    5.40
   2   9   3   72.39    7.00
   2   9   3   79.39    7.50
   2   9   3   63.69    4.70
   2   9   3   63.29    6.20
   4 -10  -3   30.50    3.90
   4 -10  -3   31.70    4.90
   4 -10  -3   31.50    3.50
   4 -10  -3   27.80    4.10
  -4  10   3   30.60    3.20
   3 -10  -3   93.49    6.80
   3 -10  -3   92.79    5.30
   3 -10  -3   85.99    6.60
   3 -10  -3   94.19    6.10
   3 -10  -3   75.29    5.90
  -3  10   3   96.69    6.60
  -3  10   3   87.89    5.40
  -3  10   3   73.59    5.20
  -3  10   3  100.69    6.00
   2 -10  -3   28.50    3.70
   2 -10  -3   25.00    4.20
   2 -10  -3   41.70    4.90
   2 -10  -3   33.20    4.00
   2 -10  -3   30.60    3.40
   2 -10  -3   34.00    4.90
  -2  10   3   32.30    4.60
  -2  10   3   28.40    3.80
  -2  10   3   34.50    4.00
  -2  10   3   30.30    3.70
   1 -10  -3   -0.10    4.30
   1 -10  -3    2.90    3.30
   1 -10  -3    0.10    2.60
   1 -10  -3   -2.30    4.20
   1 -10  -3    3.60    2.90
   1 -10  -3   -2.60    3.20
  -1  10   3   10.00    3.40
  -1  10   3   -5.90    3.10
  -1  10   3   -0.30    4.10
  -1  10   3   -1.90    3.50
   0 -10  -3    2.60    2.80
   0 -10  -3   -2.00    3.30
   0 -10  -3    9.80    4.40
   0 -10  -3    9.50    5.10
   0  10   3    4.60    4.70
   0  10   3   -2.50    4.30
   0  10   3    0.10    3.30
   0  10   3    6.20    3.70
   1  11  -4  100.99    8.90
   1  11  -4  115.29    6.60
   1  11  -4  100.49    5.60
   1  11  -4  104.19    6.70
  -1 -11   4  109.39    7.30
  -1 -11   4  111.09    7.60
  -1 -11   4  102.39    7.00
  -1 -11   4  118.59   10.10
  -1 -11   4  109.79    6.20
   0  11  -4  123.19    7.50
   0  11  -4  105.19    6.70
   0  11  -4  126.09    6.40
   0  11  -4  123.99    8.70
   0 -11   4  126.69    7.70
   0 -11   4  123.49    5.80
   0 -11   4  123.39    7.50
   0 -11   4  125.99    8.80
   0 -11   4  131.19    8.70
  -1  11  -4   52.89    5.40
  -1  11  -4   41.60    5.50
  -1  11  -4   45.00    3.90
  -1  11  -4   49.30    4.60
   1 -11   4   39.70    4.20
   1 -11   4   38.90    4.60
   1 -11   4   37.80    4.60
   1 -11   4   34.80    4.80
   1 -11   4   50.89    5.80
  -2  11  -4  158.88    6.60
  -2  11  -4  160.68    9.30
  -2  11  -4  149.49    7.70
  -2  11  -4  160.98    7.60
   2 -11   4  175.88    7.10
   2 -11   4  158.68    8.10
   2 -11   4  159.98    9.60
   2 -11   4  159.58    8.00
  -3  11  -4   20.90    3.70
  -3  11  -4   19.30    4.00
  -3  11  -4   15.00    3.20
  -3  11  -4    7.40    4.90
   3 -11   4   22.20    4.30
   3 -11   4   16.90    3.60
   3 -11   4   20.00    4.70
   3 -11   4   24.70    5.20
   3 -11   4   20.70    5.40
  -4  11  -4   39.40    3.80
  -4  11  -4   54.29    5.60
  -4  11  -4   54.19    5.20
  -4  11  -4   45.30    6.00
   4 -11   4   50.19    7.30
   4 -11   4   45.30    4.90
   4 -11   4   50.79    4.80
   4 -11   4   48.00    6.40
   4 -11   4   47.60    5.00
   2  10  -4  143.49    7.20
   2  10  -4  122.09    6.00
   2  10  -4  138.29    6.90
   2  10  -4  125.99    9.60
  -2 -10   4  129.69    6.80
  -2 -10   4  137.59    5.50
  -2 -10   4  127.69    6.50
  -2 -10   4  124.09    6.80
  -2 -10   4  130.59    8.90
  -2 -10   4  139.39    5.00
  -2 -10   4  138.99    8.10
   1  10  -4   -0.80    2.80
   1  10  -4    3.30    2.30
   1  10  -4    0.00    3.50
   1  10  -4   -1.20    2.40
  -1 -10   4   -1.60    2.70
  -1 -10   4    2.20    2.70
  -1 -10   4   -2.50    3.40
  -1 -10   4    1.50    2.80
  -1 -10   4   -5.00    3.00
   0  10  -4   11.40    2.60
   0  10  -4   13.20    2.80
   0  10  -4   16.20    4.20
   0  10  -4   11.10    2.60
   0 -10   4   12.10    3.00
   0 -10   4    9.80    2.30
   0 -10   4   13.80    3.40
   0 -10   4   11.00    3.90
   0 -10   4   15.00    3.30
  -1  10  -4  148.59    7.80
  -1  10  -4  157.68    6.50
  -1  10  -4  142.29    5.90
  -1  10  -4  168.88    6.60
   1 -10   4  157.08    7.00
   1 -10   4  150.28    8.30
   1 -10   4  163.38    8.10
   1 -10   4  170.78    7.60
   1 -10   4  150.18    5.70
  -2  10  -4   15.20    2.60
  -2  10  -4   13.90    3.80
  -2  10  -4   14.30    2.60
  -2  10  -4   12.10    3.40
   2 -10   4   16.10    2.70
   2 -10   4   15.40    3.60
   2 -10   4   14.60    3.10
   2 -10   4   15.20    3.90
   2 -10   4   16.10    3.00
  -3  10  -4   41.50    4.90
  -3  10  -4   53.69    5.10
  -3  10  -4   41.60    4.00
  -3  10  -4   38.50    4.00
   3 -10   4   37.20    3.80
   3 -10   4   49.60    4.20
   3 -10   4   48.30    5.10
   3 -10   4   45.60    5.00
   3 -10   4   49.20    5.00
  -4  10  -4   -0.70    2.30
  -4  10  -4    4.10    3.70
  -4  10  -4    2.80    2.30
  -4  10  -4    1.50    3.80
   4 -10   4    5.30    3.50
   4 -10   4    4.30    2.80
   4 -10   4    0.80    2.40
   4 -10   4   -5.60    3.90
   4 -10   4    0.10    3.90
  -5  10  -4   39.20    4.80
  -5  10  -4   44.40    4.20
  -5  10  -4   39.90    4.00
  -5  10  -4   44.10    5.50
   5 -10   4   36.90    5.10
   5 -10   4   35.50    3.60
   5 -10   4   43.30    6.00
   5 -10   4   38.30    5.30
   5 -10   4   44.70    5.20
   4   9  -4   28.90    4.30
   4   9  -4   26.90    4.50
   4   9  -4   27.50    3.30
  -4  -9   4   37.00    5.20
  -4  -9   4   38.00    4.30
  -4  -9   4   19.50    4.70
   3   9  -4   56.29    5.00
   3   9  -4   59.09    4.60
   3   9  -4   68.79    6.70
   3   9  -4   58.19    5.50
  -3  -9   4   50.89    4.90
  -3  -9   4   49.10    2.00
  -3  -9   4   62.79    5.00
  -3  -9   4   59.89    6.00
  -3  -9   4   48.90    5.70
  -3  -9   4   52.89    5.70
   2   9  -4   70.29    5.00
   2   9  -4   72.09    6.10
   2   9  -4   65.69    4.70
   2   9  -4   66.29    4.20
  -2  -9   4   69.79    3.90
  -2  -9   4   56.29    5.60
  -2  -9   4   75.89    6.00
  -2  -9   4   69.99    4.80
  -2  -9   4   66.79    5.20
  -2  -9   4   70.69    5.50
  -2  -9   4   67.39    3.80
   1   9  -4    1.70    2.00
   1   9  -4    1.60    1.90
   1   9  -4   -1.10    1.70
   1   9  -4    1.70    1.90
   1   9  -4    0.10    2.70
  -1  -9   4   -0.50    2.10
  -1  -9   4    0.10    2.80
  -1  -9   4    3.10    1.90
  -1  -9   4    2.70    2.50
  -1  -9   4    4.30    2.30
   0   9  -4    9.50    2.10
   0   9  -4    9.20    2.00
   0   9  -4    7.90    2.00
   0   9  -4    9.70    2.90
   0   9  -4    8.40    2.00
   0  -9   4    6.50    3.20
   0  -9   4   10.10    3.00
   0  -9   4    8.60    1.80
   0  -9   4    8.40    2.90
   0  -9   4    9.90    2.60
  -1   9  -4  336.87   10.20
  -1   9  -4  341.77    9.20
  -1   9  -4  337.37    8.70
  -1   9  -4  343.57    8.70
  -1   9  -4  343.57    8.80
   1  -9   4  334.67    8.50
   1  -9   4  341.37    9.80
   1  -9   4  328.67    9.50
   1  -9   4  342.47   10.50
   1  -9   4  339.97    9.70
  -2   9  -4   53.09    3.50
  -2   9  -4   53.89    4.30
  -2   9  -4   64.79    3.70
  -2   9  -4   57.49    4.10
   2  -9   4   56.69    4.50
   2  -9   4   68.19    7.50
   2  -9   4   59.59    5.20
   2  -9   4   60.69    3.70
   2  -9   4   56.69    4.80
  -3   9  -4    4.50    1.90
  -3   9  -4    2.70    2.40
  -3   9  -4    9.80    3.20
  -3   9  -4    4.60    1.80
   3  -9   4    6.50    2.70
   3  -9   4    7.00    2.30
   3  -9   4    4.10    2.00
   3  -9   4   16.20    3.20
   3  -9   4    7.30    3.20
  -4   9  -4   61.49    6.20
  -4   9  -4   58.69    5.50
  -4   9  -4   55.09    3.70
   4  -9   4   61.69    4.20
   4  -9   4   59.09    5.00
   4  -9   4   45.60    4.70
   4  -9   4   50.29    5.40
   4  -9   4   59.69    6.10
  -5   9  -4    2.70    2.20
  -5   9  -4   -5.30    3.20
  -5   9  -4   -0.40    2.70
  -5   9  -4    4.80    3.70
   5  -9   4    6.80    3.70
   5  -9   4    2.50    2.40
   5  -9   4   -3.90    3.90
   5  -9   4    0.50    2.50
   5  -9   4   -3.30    3.30
  -6   9  -4   33.60    4.90
  -6   9  -4   41.80    4.20
  -6   9  -4   44.20    4.10
   6  -9   4   35.50    4.50
   6  -9   4   39.60    5.80
   6  -9   4   37.00    5.90
   6  -9   4   41.50    4.10
   6  -9   4   41.80    4.60
   4   8  -4    2.90    3.70
   4   8  -4   -2.60    2.40
   4   8  -4   -1.00    3.40
   4   8  -4    3.30    2.40
  -4  -8   4    3.90    3.10
  -4  -8   4    1.80    3.10
  -4  -8   4   -1.90    3.30
  -4  -8   4    3.40    2.40
  -4  -8   4   -1.30    3.30
   3   8  -4   12.70    3.00
   3   8  -4    2.60    3.00
   3   8  -4    4.40    2.30
   3   8  -4    6.30    2.70
   3   8  -4    6.50    2.10
  -3  -8   4    6.10    2.20
  -3  -8   4    7.90    2.80
  -3  -8   4    2.80    0.80
  -3  -8   4    2.50    2.90
  -3  -8   4    6.50    2.60
  -3  -8   4   -1.20    2.70
   2   8  -4  149.79    5.60
   2   8  -4  143.79    5.30
   2   8  -4  151.18    6.70
   2   8  -4  142.29    5.40
   2   8  -4  147.29    5.10
  -2  -8   4  142.79    6.20
  -2  -8   4  151.98    5.30
  -2  -8   4  152.08    6.50
  -2  -8   4  135.19    6.70
  -2  -8   4  149.09    4.60
  -2  -8   4  154.78    5.60
   1   8  -4   99.79    5.20
   1   8  -4   94.59    4.10
   1   8  -4   93.89    4.20
   1   8  -4   94.69    4.10
   1   8  -4   98.69    4.10
  -1  -8   4   88.19    5.60
  -1  -8   4   95.39    4.80
  -1  -8   4   97.69    5.40
   0   8  -4   45.80    3.00
   0   8  -4   52.19    4.00
   0   8  -4   40.30    3.00
   0   8  -4   40.70    2.90
   0   8  -4   49.50    3.00
   0  -8   4   41.60    3.50
   0  -8   4   50.39    4.40
   0  -8   4   40.40    3.60
  -1   8  -4  232.68    6.50
  -1   8  -4  239.38    6.50
  -1   8  -4  244.08    7.90
   1  -8   4  225.38    7.30
   1  -8   4  234.08    7.90
   1  -8   4  245.08    7.30
  -2   8  -4 2105.79   39.50
  -2   8  -4 2140.59   41.10
  -2   8  -4 2078.39   41.80
  -2   8  -4 2071.89   39.30
   2  -8   4 2110.69   40.10
   2  -8   4 2113.99   40.70
   2  -8   4 2054.39   39.30
   2  -8   4 2107.89   41.00
   2  -8   4 2057.79   40.40
  -3   8  -4    2.20    1.30
  -3   8  -4    1.20    1.50
   3  -8   4    2.80    2.10
   3  -8   4    0.60    2.30
   3  -8   4    2.40    1.60
   3  -8   4    4.70    1.80
   3  -8   4    4.60    2.50
  -4   8  -4  271.47    7.50
  -4   8  -4  230.38    7.80
  -4   8  -4  276.97    9.70
   4  -8   4  271.37    7.70
   4  -8   4  254.47    9.10
   4  -8   4  262.27    7.40
   4  -8   4  269.37    8.70
   4  -8   4  268.97    8.60
  -5   8  -4  157.38    5.80
  -5   8  -4  153.08    5.40
  -5   8  -4  139.89    7.40
   5  -8   4  148.09    7.90
   5  -8   4  149.99    7.80
   5  -8   4  153.68    6.00
   5  -8   4  152.18    7.00
   5  -8   4  147.69    5.50
  -6   8  -4    2.00    2.60
  -6   8  -4    0.20    3.80
  -6   8  -4    5.40    2.20
   6  -8   4   -2.70    3.60
   6  -8   4    0.70    3.90
   6  -8   4   -2.30    1.90
   6  -8   4   -1.20    3.90
   6  -8   4   -0.90    2.70
   6  -8   4   -5.80    3.50
   5   7  -4   39.40    4.30
   5   7  -4   45.30    4.20
   5   7  -4   44.10    4.70
   5   7  -4   42.50    4.40
  -5  -7   4   43.20    4.80
  -5  -7   4   35.30    3.40
  -5  -7   4   41.80    5.20
  -5  -7   4   45.40    4.30
  -5  -7   4   24.60    4.20
   4   7  -4   13.30    3.20
   4   7  -4   17.60    2.60
   4   7  -4   10.70    2.50
   4   7  -4   14.90    2.90
  -4  -7   4   15.10    3.70
  -4  -7   4   17.20    2.30
  -4  -7   4   12.80    2.40
  -4  -7   4    9.60    2.60
  -4  -7   4   13.30    3.00
   3   7  -4    2.60    1.50
   3   7  -4    3.10    1.60
   3   7  -4    1.90    1.60
   3   7  -4    5.30    1.80
   3   7  -4    2.10    2.80
  -3  -7   4    0.40    1.60
  -3  -7   4    0.30    2.10
  -3  -7   4    2.20    1.60
  -3  -7   4    1.00    2.10
  -3  -7   4    0.00    1.90
   2   7  -4  136.29    5.40
   2   7  -4  149.88    6.20
  -2  -7   4  144.49    4.60
  -2  -7   4  152.98    5.30
  -2  -7   4  130.69    5.60
  -2  -7   4  146.09    4.10
  -2  -7   4  146.29    5.70
   1   7  -4  715.23   14.90
   1   7  -4  720.63   14.80
   1   7  -4  705.73   14.80
   1   7  -4  709.93   15.90
   1   7  -4  719.13   15.00
  -1  -7   4  744.93   14.60
  -1  -7   4  708.93   16.10
  -1  -7   4  716.93   15.70
  -1  -7   4  715.53   15.30
  -1  -7   4  723.03   15.20
   0   7  -4  105.29    3.90
   0   7  -4   96.19    4.60
   0   7  -4  113.29    4.00
   0   7  -4  105.79    3.80
   0   7  -4  108.39    4.00
   0  -7   4  107.39    4.50
   0  -7   4  101.79    4.90
   0  -7   4  103.49    3.60
   0  -7   4   97.89    4.20
   0  -7   4  106.79    4.30
  -1   7  -4  174.58    5.00
  -1   7  -4  173.78    5.00
  -1   7  -4  160.78    5.90
  -1   7  -4  176.18    5.30
  -1   7  -4  173.18    5.00
   1  -7   4  175.78    5.60
   1  -7   4  166.18    5.60
   1  -7   4  174.88    5.60
   1  -7   4  172.08    6.00
   1  -7   4  167.68    4.90
  -2   7  -4  262.37    8.00
  -2   7  -4  259.67    7.20
  -2   7  -4  260.47    6.70
  -2   7  -4  269.07    6.80
  -2   7  -4  267.47    6.50
   2  -7   4  259.07    7.70
   2  -7   4  262.17    7.30
   2  -7   4  277.07    7.80
   2  -7   4  264.97    7.80
   2  -7   4  259.97    6.60
  -3   7  -4  145.09    5.90
  -3   7  -4  142.29    5.30
  -3   7  -4  139.49    4.20
  -3   7  -4  141.89    4.50
  -3   7  -4  144.39    4.80
   3  -7   4  139.99    5.50
   3  -7   4  142.49    4.60
   3  -7   4  142.39    5.80
   3  -7   4  142.89    5.50
   3  -7   4  140.29    4.80
  -4   7  -4   91.69    5.30
  -4   7  -4   93.39    4.60
  -4   7  -4   89.99    4.10
  -4   7  -4   93.39    3.70
   4  -7   4   90.89    4.80
   4  -7   4   94.69    4.20
   4  -7   4  100.79    5.50
   4  -7   4   91.39    4.10
   4  -7   4   88.49    5.70
  -5   7  -4   35.90    3.80
  -5   7  -4   34.30    3.20
  -5   7  -4   30.80    3.20
  -5   7  -4   37.50    3.40
   5  -7   4   29.50    2.90
   5  -7   4   36.40    3.20
   5  -7   4   34.40    3.50
   5  -7   4   31.50    3.60
   5  -7   4   33.40    3.60
   5  -7   4   33.10    3.90
  -6   7  -4    6.50    3.50
  -6   7  -4    2.80    2.10
  -6   7  -4    1.40    2.40
  -6   7  -4    2.60    1.90
   6  -7   4    2.80    3.50
   6  -7   4    1.00    3.10
   6  -7   4    0.70    2.50
   6  -7   4   -1.40    4.30
   6  -7   4    2.60    3.10
  -7   7  -4    0.40    2.00
  -7   7  -4    0.30    2.20
   7  -7   4    5.50    3.00
   7  -7   4   -2.10    5.20
   7  -7   4    2.80    3.90
   7  -7   4    1.60    3.30
   7  -7   4    4.20    4.90
   6   6  -4   23.50    3.00
   6   6  -4   26.80    4.70
   6   6  -4   22.70    4.60
  -6  -6   4   20.50    4.60
   5   6  -4   97.39    5.80
   5   6  -4   93.99    5.60
   5   6  -4   99.39    4.90
   5   6  -4  104.49    5.90
  -5  -6   4  102.79    6.10
  -5  -6   4  105.19    4.50
  -5  -6   4  100.79    4.30
  -5  -6   4  100.79    3.90
   4   6  -4    0.90    2.10
   4   6  -4   -0.60    1.80
   4   6  -4   -0.50    1.90
   4   6  -4    0.00    2.10
  -4  -6   4   -1.20    1.60
  -4  -6   4    5.50    2.30
  -4  -6   4    1.90    1.80
  -4  -6   4   -2.90    1.60
  -4  -6   4    0.00    2.00
   3   6  -4  164.78    5.90
   3   6  -4  158.28    5.10
   3   6  -4  164.38    5.10
   3   6  -4  164.98    4.90
   3   6  -4  168.78    5.30
  -3  -6   4  157.38    4.80
  -3  -6   4  157.38    5.80
  -3  -6   4  158.78    4.90
  -3  -6   4  160.88    5.00
  -3  -6   4  153.48    5.90
   2   6  -4    6.80    1.80
   2   6  -4    4.70    1.40
   2   6  -4    9.70    1.40
   2   6  -4    8.10    1.50
   2   6  -4    5.90    1.30
  -2  -6   4    7.80    1.90
  -2  -6   4    8.00    1.80
  -2  -6   4    7.00    1.30
  -2  -6   4    7.80    1.50
  -2  -6   4    7.20    1.00
  -2  -6   4    7.20    1.40
   1   6  -4 1545.55   30.10
   1   6  -4 1523.65   29.20
   1   6  -4 1584.74   29.50
   1   6  -4 1531.95   29.10
   1   6  -4 1523.25   29.20
  -1  -6   4 1529.65   29.50
  -1  -6   4 1538.25   30.00
  -1  -6   4 1584.24   30.40
  -1  -6   4 1515.45   29.40
  -1  -6   4 1598.84   29.00
   0   6  -4  173.58    4.70
   0   6  -4  167.18    4.60
   0   6  -4  169.78    4.70
   0   6  -4  177.98    4.80
   0   6  -4  161.68    5.40
   0  -6   4  171.98    5.30
   0  -6   4  169.08    5.60
   0  -6   4  173.38    4.60
   0  -6   4  172.28    5.10
   0  -6   4  174.28    5.10
  -1   6  -4  232.68    5.90
  -1   6  -4  234.48    6.70
  -1   6  -4  229.78    5.80
  -1   6  -4  242.48    6.10
  -1   6  -4  238.18    5.80
   1  -6   4  233.38    6.30
   1  -6   4  234.28    6.60
   1  -6   4  242.28    6.40
   1  -6   4  233.08    5.70
   1  -6   4  226.38    6.40
  -2   6  -4 2044.00   38.80
  -2   6  -4 1982.50   37.30
  -2   6  -4 2025.60   38.10
  -2   6  -4 2007.10   37.60
  -2   6  -4 1972.20   37.70
   2  -6   4 2069.49   38.50
   2  -6   4 2043.00   37.50
   2  -6   4 2017.80   38.30
   2  -6   4 1994.40   38.50
   2  -6   4 2020.10   37.90
  -3   6  -4 1015.10   20.40
  -3   6  -4 1035.20   21.50
  -3   6  -4 1014.30   19.50
  -3   6  -4 1044.90   20.10
  -3   6  -4 1013.80   20.70
   3  -6   4 1024.60   20.20
   3  -6   4 1017.10   20.20
   3  -6   4 1012.70   21.00
   3  -6   4 1020.00   20.90
   3  -6   4 1021.70   21.30
  -4   6  -4   22.90    1.60
  -4   6  -4   21.20    2.10
  -4   6  -4   21.00    2.80
  -4   6  -4   21.30    2.20
  -4   6  -4   21.20    2.30
   4  -6   4   22.90    2.30
   4  -6   4   20.40    2.90
   4  -6   4   22.80    2.50
   4  -6   4   19.40    2.60
   4  -6   4   26.20    2.60
  -5   6  -4    2.30    1.80
  -5   6  -4    1.50    2.30
  -5   6  -4    3.50    1.80
  -5   6  -4    2.60    1.40
   5  -6   4    2.80    2.40
   5  -6   4   -3.20    2.10
   5  -6   4    1.80    2.20
   5  -6   4    1.00    3.10
   5  -6   4    3.00    2.00
  -6   6  -4  125.29    4.50
  -6   6  -4  114.19    5.10
  -6   6  -4  120.09    5.70
  -6   6  -4  111.49    6.50
   6  -6   4  115.59    6.60
   6  -6   4  122.09    5.80
   6  -6   4  131.79    6.30
   6  -6   4  115.09    6.90
   6  -6   4  122.09    6.50
  -7   6  -4    8.10    2.50
  -7   6  -4    3.10    2.40
  -7   6  -4   10.30    3.40
  -7   6  -4   10.50    2.10
   7  -6   4    3.30    4.10
   7  -6   4    5.90    4.10
   7  -6   4   10.20    4.60
   7  -6   4    7.70    3.20
   7  -6   4    4.70    3.80
   6   5  -4   39.30    4.20
   6   5  -4   39.20    4.00
   6   5  -4   45.60    4.30
   6   5  -4   35.70    3.40
  -6  -5   4   38.30    4.20
   5   5  -4   13.90    2.60
   5   5  -4   16.50    2.00
   5   5  -4   17.90    2.40
  -5  -5   4   14.30    1.40
  -5  -5   4   14.60    1.40
  -5  -5   4   21.60    2.70
  -5  -5   4   15.10    2.70
   4   5  -4   26.10    2.50
   4   5  -4   29.20    2.70
   4   5  -4   25.80    2.60
   4   5  -4   23.40    2.40
   4   5  -4   29.20    2.50
  -4  -5   4   23.10    2.90
  -4  -5   4   25.10    2.30
   3   5  -4  121.39    4.10
   3   5  -4  116.89    3.70
   3   5  -4  118.29    4.60
   3   5  -4  122.79    3.90
   3   5  -4  125.49    4.00
  -3  -5   4  117.59    3.80
  -3  -5   4  127.39    5.10
  -3  -5   4  117.39    4.40
  -3  -5   4  123.39    3.90
  -3  -5   4  116.69    3.80
   2   5  -4   21.80    2.00
   2   5  -4   25.00    2.00
   2   5  -4   25.90    1.80
   2   5  -4   26.60    1.80
   2   5  -4   26.20    2.30
  -2  -5   4   24.60    1.80
  -2  -5   4   25.10    2.30
  -2  -5   4   25.50    1.60
  -2  -5   4   26.70    2.10
  -2  -5   4   25.20    2.50
  -2  -5   4   24.50    1.30
   1   5  -4 1196.18   22.50
   1   5  -4 1211.08   22.80
   1   5  -4 1200.78   23.30
   1   5  -4 1174.58   22.50
   1   5  -4 1160.18   22.40
  -1  -5   4 1191.58   22.80
  -1  -5   4 1203.88   22.80
  -1  -5   4 1166.68   22.30
  -1  -5   4 1202.68   23.50
  -1  -5   4 1189.38   22.30
  -1  -5   4 1187.38   23.30
   0   5  -4  112.89    3.40
   0   5  -4  117.09    3.50
   0   5  -4  115.09    4.00
   0   5  -4  110.99    3.50
   0  -5   4  113.39    4.00
   0  -5   4  113.89    3.70
   0  -5   4  115.39    3.70
   0  -5   4  113.99    3.90
   0  -5   4  121.29    3.30
  -1   5  -4   11.00    1.20
  -1   5  -4   12.20    1.60
  -1   5  -4   12.80    1.40
  -1   5  -4   10.50    1.30
  -1   5  -4   11.10    1.20
   1  -5   4   11.90    1.40
   1  -5   4   11.60    1.50
   1  -5   4   10.80    1.50
   1  -5   4   13.90    1.40
   1  -5   4   10.00    1.50
  -2   5  -4   37.90    2.80
  -2   5  -4   40.40    2.20
  -2   5  -4   39.10    2.40
  -2   5  -4   44.90    1.90
  -2   5  -4   40.80    2.30
   2  -5   4   46.40    2.80
   2  -5   4   39.00    2.60
   2  -5   4   43.60    2.70
   2  -5   4   38.60    2.20
   2  -5   4   42.20    2.20
  -3   5  -4  294.47    7.00
  -3   5  -4  292.37    8.00
  -3   5  -4  284.77    7.30
  -3   5  -4  289.47    7.40
  -3   5  -4  294.17    6.40
   3  -5   4  288.27    8.00
   3  -5   4  298.97    7.20
   3  -5   4  290.77    6.80
   3  -5   4  295.97    7.70
   3  -5   4  291.67    7.70
   3  -5   4  297.17    7.70
  -4   5  -4  167.38    5.50
  -4   5  -4  182.28    6.70
  -4   5  -4  184.08    5.10
  -4   5  -4  174.68    5.60
  -4   5  -4  179.08    4.10
   4  -5   4  175.18    5.90
   4  -5   4  162.58    5.80
   4  -5   4  178.28    6.40
   4  -5   4  180.08    5.50
   4  -5   4  167.38    4.60
   4  -5   4  179.08    6.10
  -5   5  -4    3.90    1.40
  -5   5  -4    4.90    1.60
  -5   5  -4    0.80    2.40
  -5   5  -4    6.20    1.80
   5  -5   4    4.90    2.20
   5  -5   4    3.60    2.30
   5  -5   4    3.80    2.00
   5  -5   4   -0.20    2.00
  -6   5  -4   14.80    2.60
  -6   5  -4   18.40    2.50
  -6   5  -4   16.70    2.10
  -6   5  -4   15.60    3.80
   6  -5   4   14.20    3.30
   6  -5   4   13.20    2.90
   6  -5   4   21.40    3.30
   6  -5   4   18.70    3.60
   6  -5   4   17.20    3.80
  -7   5  -4   93.89    4.10
  -7   5  -4   85.59    5.20
  -7   5  -4   91.29    6.40
  -7   5  -4   98.09    4.30
   7  -5   4   96.79    6.70
   7  -5   4   94.69    7.20
   7  -5   4   87.09    7.40
   7  -5   4  103.29    6.50
   7  -5   4  104.29    7.70
   6   4  -4   96.39    4.00
   6   4  -4  111.59    5.70
   6   4  -4  100.09    5.70
   6   4  -4  106.79    5.80
  -6  -4   4   96.39    3.90
  -6  -4   4  102.39    5.80
  -6  -4   4  106.19    5.80
   5   4  -4  275.07    7.70
   5   4  -4  272.27    6.50
   5   4  -4  268.97    7.10
   5   4  -4  271.27    7.80
   5   4  -4  268.97    6.70
  -5  -4   4  269.87    7.80
  -5  -4   4  264.47    8.00
  -5  -4   4  267.47    6.50
   4   4  -4  144.09    4.30
   4   4  -4  146.19    4.70
   4   4  -4  147.39    4.10
   4   4  -4  145.29    4.50
   4   4  -4  148.09    5.10
  -4  -4   4  148.29    3.70
  -4  -4   4  145.09    5.10
  -4  -4   4  150.18    4.70
  -4  -4   4  149.88    4.80
  -4  -4   4  146.69    3.60
   3   4  -4  182.58    5.60
   3   4  -4  189.98    5.00
   3   4  -4  193.98    4.90
   3   4  -4  193.88    4.70
   3   4  -4  200.18    5.10
  -3  -4   4  199.98    5.70
  -3  -4   4  192.08    4.80
  -3  -4   4  203.18    4.70
  -3  -4   4  208.18    4.70
   2   4  -4  211.28    4.90
   2   4  -4  209.08    5.20
   2   4  -4  204.18    4.80
   2   4  -4  199.98    4.80
   2   4  -4  208.48    5.40
  -2  -4   4  213.78    4.70
  -2  -4   4  205.38    5.60
  -2  -4   4  202.18    4.20
  -2  -4   4  200.18    4.90
  -2  -4   4  203.18    5.40
  -2  -4   4  205.08    4.80
   1   4  -4   -0.60    0.80
   1   4  -4    0.30    0.80
   1   4  -4    0.70    0.70
   1   4  -4    0.60    0.60
   1   4  -4    1.30    0.80
  -1  -4   4    0.90    1.00
  -1  -4   4    0.70    0.50
  -1  -4   4    0.60    0.60
  -1  -4   4    2.00    0.90
  -1  -4   4    0.60    0.70
  -1  -4   4    1.00    1.20
   0   4  -4  633.84   12.50
   0   4  -4  620.44   12.80
   0   4  -4  628.54   12.40
   0   4  -4  629.74   12.30
   0   4  -4  634.24   12.30
   0  -4   4  621.14   12.60
   0  -4   4  629.84   12.80
   0  -4   4  620.84   12.40
   0  -4   4  623.14   12.80
   0  -4   4  633.74   12.70
   0  -4   4  622.54   12.10
  -1   4  -4  506.85   10.30
  -1   4  -4  497.85   10.40
  -1   4  -4  501.75   10.40
  -1   4  -4  496.65   10.80
  -1   4  -4  496.05   10.10
   1  -4   4  497.35   10.10
   1  -4   4  510.35   10.70
   1  -4   4  509.05   10.70
   1  -4   4  488.25   10.40
   1  -4   4  503.55   10.60
   1  -4   4  494.15   10.50
  -2   4  -4 1212.88   23.80
  -2   4  -4 1180.68   23.30
  -2   4  -4 1191.58   23.20
  -2   4  -4 1189.48   22.50
  -2   4  -4 1217.48   23.10
   2  -4   4 1177.68   22.90
   2  -4   4 1191.48   23.40
   2  -4   4 1207.28   23.30
   2  -4   4 1233.78   23.50
   2  -4   4 1229.18   23.00
   2  -4   4 1249.97   23.80
  -3   4  -4 1338.47   25.40
  -3   4  -4 1400.46   26.60
  -3   4  -4 1379.46   27.30
  -3   4  -4 1392.86   26.30
  -3   4  -4 1389.36   26.70
   3  -4   4 1355.86   25.80
   3  -4   4 1406.36   26.50
   3  -4   4 1387.36   26.80
   3  -4   4 1382.36   26.90
   3  -4   4 1387.06   27.20
   3  -4   4 1352.56   26.90
  -4   4  -4  363.86    9.80
  -4   4  -4  361.56    8.80
  -4   4  -4  353.76    9.10
  -4   4  -4  372.86    8.60
  -4   4  -4  366.56    7.20
   4  -4   4  360.86    9.40
   4  -4   4  369.86    9.70
   4  -4   4  372.86    9.40
   4  -4   4  378.76    9.00
   4  -4   4  370.36    9.10
  -5   4  -4   10.00    2.40
  -5   4  -4    5.80    1.70
  -5   4  -4    7.70    1.90
  -5   4  -4   10.00    2.00
   5  -4   4    5.30    2.20
   5  -4   4   10.00    2.10
   5  -4   4    9.10    2.10
   5  -4   4   11.10    2.40
   5  -4   4   10.90    2.30
  -6   4  -4  300.17    7.70
  -6   4  -4  305.27    9.80
  -6   4  -4  293.17    8.90
  -6   4  -4  304.97    7.80
   6  -4   4  301.57    9.90
   6  -4   4  303.47    9.50
   6  -4   4  307.67    9.70
   6  -4   4  300.27    9.30
   6  -4   4  293.47    9.00
  -7   4  -4    1.00    1.80
  -7   4  -4    3.20    2.60
  -7   4  -4    5.10    3.10
  -7   4  -4   -0.90    1.70
   7  -4   4   -0.80    3.40
   7  -4   4    3.40    3.10
   7  -4   4    3.10    3.50
   7  -4   4   -0.40    3.30
   7  -4   4   -5.60    3.20
   7   3  -4   -0.60    2.60
   7   3  -4   -2.30    2.20
   7   3  -4    1.60    3.10
   7   3  -4   -3.70    2.80
  -7  -3   4   -1.50    2.60
   6   3  -4   93.69    3.90
   6   3  -4   96.09    4.60
   6   3  -4   98.09    4.90
   6   3  -4   92.59    5.00
  -6  -3   4   90.79    4.80
  -6  -3   4   93.29    4.70
  -6  -3   4   89.29    3.30
   5   3  -4   59.69    2.80
   5   3  -4   60.99    3.50
   5   3  -4   59.19    2.90
   5   3  -4   55.99    2.50
   5   3  -4   57.89    3.40
  -5  -3   4   69.09    3.90
  -5  -3   4   64.19    3.50
  -5  -3   4   59.99    3.60
   4   3  -4   53.69    2.70
   4   3  -4   53.49    2.20
   4   3  -4   56.29    2.70
   4   3  -4   58.89    2.40
   4   3  -4   51.59    2.40
  -4  -3   4   60.29    2.20
  -4  -3   4   54.09    3.30
  -4  -3   4   53.29    2.80
   3   3  -4  542.65   10.70
   3   3  -4  546.55   11.00
   3   3  -4  539.55   10.50
   3   3  -4  524.75   10.40
   3   3  -4  539.75   11.10
  -3  -3   4  522.45   10.00
  -3  -3   4  545.45   11.00
  -3  -3   4  534.35   11.50
  -3  -3   4  527.45   10.50
  -3  -3   4  517.05    9.90
   2   3  -4  484.55    9.50
   2   3  -4  474.95    9.50
   2   3  -4  493.75    9.90
   2   3  -4  507.75   10.10
   2   3  -4  488.85    9.40
  -2  -3   4  453.05   10.00
  -2  -3   4  471.45    8.90
  -2  -3   4  476.95    9.20
  -2  -3   4  481.95    9.50
  -2  -3   4  484.35    9.40
  -2  -3   4  481.95   10.30
   1   3  -4   63.09    1.90
   1   3  -4   58.09    2.30
   1   3  -4   60.99    2.30
   1   3  -4   59.69    1.80
   1   3  -4   61.79    2.10
  -1  -3   4   55.69    1.70
  -1  -3   4   59.09    2.20
  -1  -3   4   60.59    2.10
  -1  -3   4   58.09    2.50
  -1  -3   4   58.89    1.90
  -1  -3   4   56.99    2.00
   0   3  -4  242.18    5.50
   0   3  -4  247.58    5.60
   0   3  -4  250.97    5.40
   0   3  -4  254.67    5.50
   0   3  -4  245.88    5.70
   0  -3   4  244.28    5.70
   0  -3   4  243.28    5.80
   0  -3   4  248.78    5.50
   0  -3   4  248.68    5.20
   0  -3   4  242.88    5.60
   0  -3   4  245.78    5.60
  -1   3  -4 1022.60   19.20
  -1   3  -4 1008.50   19.50
  -1   3  -4  975.70   19.30
  -1   3  -4 1029.70   19.80
  -1   3  -4 1008.30   19.40
   1  -3   4 1010.50   19.50
   1  -3   4 1023.50   19.70
   1  -3   4 1061.29   19.20
   1  -3   4  997.80   19.40
   1  -3   4 1037.70   19.60
   1  -3   4 1002.30   19.40
  -2   3  -4   61.59    2.70
  -2   3  -4   60.49    2.60
  -2   3  -4   57.09    2.90
  -2   3  -4   62.99    2.10
  -2   3  -4   61.49    2.70
   2  -3   4   63.79    3.00
   2  -3   4   64.69    2.70
   2  -3   4   66.79    2.50
   2  -3   4   61.99    2.80
   2  -3   4   61.69    2.80
   2  -3   4   65.09    2.60
  -3   3  -4  120.59    3.10
  -3   3  -4  122.59    4.50
  -3   3  -4  117.49    4.20
  -3   3  -4  124.29    4.00
  -3   3  -4  126.89    4.00
   3  -3   4  123.09    4.10
   3  -3   4  126.69    4.50
   3  -3   4  121.39    4.40
   3  -3   4  124.19    4.60
   3  -3   4  130.89    4.20
  -4   3  -4  215.38    6.70
  -4   3  -4  218.38    6.00
  -4   3  -4  209.18    6.40
  -4   3  -4  216.18    4.50
  -4   3  -4  217.98    5.90
   4  -3   4  223.28    6.30
   4  -3   4  224.68    6.70
   4  -3   4  215.98    6.30
   4  -3   4  228.68    6.90
   4  -3   4  216.68    6.60
  -5   3  -4    4.80    1.50
  -5   3  -4    3.80    1.50
  -5   3  -4    3.30    2.50
  -5   3  -4    5.60    2.00
   5  -3   4    6.20    2.00
   5  -3   4    0.80    1.80
   5  -3   4    2.00    2.50
   5  -3   4    7.10    2.60
  -6   3  -4    3.70    2.40
  -6   3  -4    5.90    2.00
  -6   3  -4    7.10    1.90
  -6   3  -4    7.30    2.60
   6  -3   4    8.60    2.30
   6  -3   4    5.60    2.40
   6  -3   4    6.10    3.50
   6  -3   4    7.20    2.80
   6  -3   4    1.50    2.60
  -7   3  -4    1.00    3.40
  -7   3  -4    2.40    1.90
  -7   3  -4    6.80    2.80
  -7   3  -4    1.80    2.10
   7  -3   4   -2.20    3.30
   7  -3   4    6.20    4.10
   7  -3   4    4.60    3.40
   7  -3   4    3.40    3.50
   7  -3   4    0.30    2.80
   7   2  -4   10.50    2.70
   7   2  -4    8.90    2.30
   7   2  -4   11.80    2.60
  -7  -2   4    6.80    1.50
  -7  -2   4    6.90    2.40
   6   2  -4    3.70    2.10
   6   2  -4    3.10    1.90
   6   2  -4    4.70    1.80
   6   2  -4    9.80    1.40
   6   2  -4    3.70    1.60
  -6  -2   4    8.30    1.80
  -6  -2   4    5.70    1.20
   5   2  -4   61.69    2.50
   5   2  -4   61.79    3.00
   5   2  -4   57.89    2.90
   5   2  -4   58.99    2.60
   5   2  -4   56.39    2.70
  -5  -2   4   61.49    2.90
  -5  -2   4   59.69    2.10
  -5  -2   4   60.09    3.30
   4   2  -4 1387.96   26.40
   4   2  -4 1455.05   26.70
   4   2  -4 1460.75   26.70
   4   2  -4 1447.86   26.90
   4   2  -4 1401.06   26.40
  -4  -2   4 1475.55   27.40
  -4  -2   4 1399.96   26.10
  -4  -2   4 1420.26   26.70
   3   2  -4  131.09    2.80
   3   2  -4  131.19    3.50
   3   2  -4  134.29    3.10
   3   2  -4  136.39    3.10
   3   2  -4  135.69    3.30
   3   2  -4  130.29    3.60
  -3  -2   4  132.59    4.00
  -3  -2   4  135.79    3.10
  -3  -2   4  133.09    3.30
   2   2  -4 1583.34   28.70
   2   2  -4 1547.65   28.40
   2   2  -4 1596.14   29.20
  -2  -2   4 1559.54   29.40
  -2  -2   4 1558.64   28.70
   1   2  -4 8049.99  147.19
   0   2  -4   31.40    1.60
   0   2  -4   29.40    1.40
   0   2  -4   27.20    1.50
   0   2  -4   31.40    1.40
   0   2  -4   30.90    1.30
   0   2  -4   29.60    1.40
   0  -2   4   30.00    1.40
   0  -2   4   32.60    1.50
   0  -2   4   27.50    1.40
   0  -2   4   30.40    1.50
   0  -2   4   31.80    1.50
   0  -2   4   29.90    1.10
  -1   2  -4  252.97    5.70
  -1   2  -4  247.48    5.80
  -1   2  -4  246.68    5.50
  -1   2  -4  247.78    5.60
  -1   2  -4  245.08    5.60
  -1   2  -4  249.08    6.00
   1  -2   4  247.68    5.90
   1  -2   4  247.58    5.60
   1  -2   4  244.98    5.70
   1  -2   4  250.87    5.90
   1  -2   4  245.38    5.50
   1  -2   4  242.18    5.60
  -2   2  -4  218.68    5.50
  -2   2  -4  223.88    5.00
  -2   2  -4  221.38    5.90
  -2   2  -4  212.98    5.60
  -2   2  -4  218.38    5.50
  -2   2  -4  224.68    5.40
   2  -2   4  222.68    5.50
   2  -2   4  216.48    5.40
   2  -2   4  215.18    5.80
   2  -2   4  221.78    5.70
   2  -2   4  212.38    5.80
  -3   2  -4   20.80    2.20
  -3   2  -4   21.70    2.30
  -3   2  -4   18.50    1.40
  -3   2  -4   18.40    2.00
  -3   2  -4   16.90    1.90
   3  -2   4   20.70    2.30
   3  -2   4   16.00    1.90
   3  -2   4   18.50    2.00
   3  -2   4   18.60    1.90
   3  -2   4   16.40    1.70
  -4   2  -4   -2.20    1.50
  -4   2  -4    1.20    1.20
  -4   2  -4    0.50    1.50
  -4   2  -4    0.50    1.50
  -4   2  -4    0.10    0.60
   4  -2   4    0.80    1.60
   4  -2   4   -1.40    1.50
   4  -2   4    2.80    1.30
   4  -2   4    1.50    1.60
   4  -2   4    0.70    1.80
  -5   2  -4  376.06    8.70
  -5   2  -4  371.06   10.30
  -5   2  -4  359.86   10.00
  -5   2  -4  382.16    9.30
   5  -2   4  372.86   10.10
   5  -2   4  375.96    9.30
   5  -2   4  370.46    9.70
  -6   2  -4   38.30    4.10
  -6   2  -4   40.20    4.40
  -6   2  -4   43.00    2.90
  -6   2  -4   37.80    3.70
   6  -2   4   39.30    3.80
   6  -2   4   42.10    4.30
   6  -2   4   42.70    3.90
   6  -2   4   42.20    4.70
   6  -2   4   45.20    5.10
  -7   2  -4   90.09    4.60
  -7   2  -4   90.59    5.90
  -7   2  -4   86.39    4.00
  -7   2  -4   86.09    5.70
   7  -2   4   77.09    6.80
   7  -2   4   82.59    6.50
   7  -2   4   78.79    6.80
   7  -2   4   81.29    6.60
   7  -2   4   89.09    5.90
   7   1  -4  353.66    9.00
   7   1  -4  332.17    6.50
   7   1  -4  331.67    6.50
   7   1  -4  348.47    8.80
   7   1  -4  346.97    8.60
   7   1  -4  338.07    9.00
  -7  -1   4  345.07    7.10
  -7  -1   4  348.17    7.80
   6   1  -4   72.59    3.20
   6   1  -4   83.79    3.80
   6   1  -4   74.69    2.50
   6   1  -4   79.09    3.50
   6   1  -4   76.49    3.50
   6   1  -4   80.49    2.60
   6   1  -4   79.69    2.40
  -6  -1   4   71.69    2.70
  -6  -1   4   77.09    3.00
   5   1  -4   81.79    2.80
   5   1  -4   81.29    3.00
   5   1  -4   81.79    3.00
   5   1  -4   82.89    2.90
   5   1  -4   82.79    2.40
   5   1  -4   83.99    2.60
  -5  -1   4   85.59    2.20
  -5  -1   4   82.59    2.70
   4   1  -4  589.14   11.30
   4   1  -4  602.14   11.50
   4   1  -4  598.24   11.70
   4   1  -4  577.64   11.20
   4   1  -4  597.04   11.60
   4   1  -4  596.84   11.40
  -4  -1   4  596.44   11.40
  -4  -1   4  595.94   12.20
  -4  -1   4  571.74   11.00
   3   1  -4   14.80    1.00
   3   1  -4   14.10    0.90
   3   1  -4   14.10    1.30
   3   1  -4   14.10    0.80
   3   1  -4   12.70    0.90
   3   1  -4   14.50    0.70
  -3  -1   4   12.40    0.70
  -3  -1   4   13.80    0.80
  -3  -1   4   10.70    1.40
   2   1  -4  815.72   15.40
   2   1  -4  852.51   15.60
   2   1  -4  842.62   15.40
   2   1  -4  877.21   16.50
   2   1  -4  843.62   15.90
  -2  -1   4  864.11   15.50
  -2  -1   4  870.41   15.50
  -2  -1   4  883.51   16.70
   1   1  -4  280.57    6.30
   1   1  -4  282.37    5.40
   1   1  -4  284.67    5.80
   1   1  -4  285.37    5.60
   1   1  -4  288.87    5.60
   1   1  -4  280.37    5.70
  -1  -1   4  280.17    5.70
  -1  -1   4  284.17    5.60
  -1  -1   4  291.07    6.40
  -1  -1   4  281.37    5.80
   0   1  -4    8.90    1.00
   0   1  -4    8.20    0.90
   0  -1   4   10.00    0.80
   0  -1   4    9.40    0.90
  -1   1  -4 1780.82   32.20
  -1   1  -4 1730.13   32.40
  -1   1  -4 1754.72   32.10
  -1   1  -4 1744.13   32.40
  -1   1  -4 1719.53   32.10
   1  -1   4 1684.03   32.30
   1  -1   4 1703.43   32.00
   1  -1   4 1759.62   32.40
   1  -1   4 1787.82   32.10
  -2   1  -4  597.14   12.50
  -2   1  -4  582.04   12.30
  -2   1  -4  583.14   11.90
  -2   1  -4  590.24   12.20
  -2   1  -4  586.54   12.00
   2  -1   4  579.44   11.90
   2  -1   4  596.14   12.50
   2  -1   4  595.64   12.10
   2  -1   4  577.34   12.30
  -3   1  -4    6.70    1.40
  -3   1  -4   12.20    1.80
  -3   1  -4    6.20    1.30
  -3   1  -4    8.40    1.50
  -3   1  -4    7.80    1.30
   3  -1   4    8.40    1.50
   3  -1   4    7.00    1.60
   3  -1   4    5.70    1.40
   3  -1   4    8.80    1.60
   3  -1   4    6.50    1.20
  -4   1  -4   39.70    3.30
  -4   1  -4   41.70    2.90
  -4   1  -4   42.50    3.10
  -4   1  -4   41.50    2.00
  -4   1  -4   41.90    2.50
   4  -1   4   41.80    3.20
   4  -1   4   41.70    3.10
   4  -1   4   47.70    3.40
   4  -1   4   41.20    2.60
   4  -1   4   40.70    3.40
  -5   1  -4   -1.90    2.00
  -5   1  -4    3.50    2.00
  -5   1  -4    1.60    0.60
  -5   1  -4   -0.10    0.80
  -5   1  -4    1.30    1.80
  -5   1  -4    2.60    1.40
   5  -1   4   -1.90    2.00
   5  -1   4   -0.60    1.70
   5  -1   4    1.60    1.90
   5  -1   4    4.30    2.40
  -6   1  -4   47.50    4.90
  -6   1  -4   52.89    3.50
  -6   1  -4   60.99    4.40
  -6   1  -4   52.39    5.00
   6  -1   4   57.99    6.00
   6  -1   4   54.59    4.20
   6  -1   4   50.29    5.50
   6  -1   4   53.89    4.80
   6  -1   4   55.09    4.70
  -7   1  -4    5.00    2.30
  -7   1  -4   -1.60    3.20
  -7   1  -4    0.50    2.80
  -7   1  -4    0.40    3.80
   7  -1   4    2.90    2.40
   7  -1   4    9.30    3.50
   7  -1   4    4.50    3.20
   7  -1   4    3.20    3.90
   7  -1   4    3.50    3.80
   7   0  -4   81.09    3.60
   7   0  -4   80.29    3.70
   7   0  -4   78.89    4.20
   7   0  -4   79.29    3.70
   7   0  -4   78.89    3.80
   7   0  -4   83.09    4.80
  -7   0   4   77.19    2.40
   6   0  -4   10.60    0.90
   6   0  -4   14.10    1.90
   6   0  -4   12.20    1.60
   6   0  -4   14.00    1.50
   6   0  -4   10.70    1.70
   6   0  -4   10.60    1.70
  -6   0   4   12.60    1.10
   5   0  -4  316.77    6.60
   5   0  -4  320.87    6.80
   5   0  -4  312.17    6.70
   5   0  -4  322.17    6.70
   5   0  -4  335.97    7.20
  -5   0   4  304.87    6.10
  -5   0   4  313.07    6.00
   4   0  -4  844.52   16.10
   4   0  -4  879.21   16.10
   4   0  -4  879.11   16.80
   4   0  -4  859.51   15.90
   4   0  -4  882.41   16.00
   4   0  -4  878.11   16.70
   3   0  -4    8.80    1.00
   3   0  -4    9.80    1.00
   2   0  -4  651.23   12.80
   2   0  -4  638.84   12.40
   1   0  -4  699.43   12.80
   1   0  -4  698.83   13.20
   1   0  -4  708.73   13.40
   1   0  -4  724.63   13.10
   1   0  -4  699.03   12.90
  -1   0   4  721.63   13.20
  -1   0   4  693.33   13.10
  -1   0   4  703.83   13.50
   0   0  -4 3901.31   78.19
  -1   0  -4  654.43   13.10
  -1   0  -4  656.03   13.10
  -1   0  -4  673.43   13.50
  -1   0  -4  676.33   13.40
   1   0   4  672.93   13.40
   1   0   4  684.03   13.20
   1   0   4  667.53   13.10
   1   0   4  674.43   13.50
   1   0   4  678.93   13.10
  -2   0  -4   16.50    1.60
  -2   0  -4   18.50    1.90
  -2   0  -4   17.20    1.70
  -2   0  -4   19.00    2.10
  -2   0  -4   19.20    1.90
   2   0   4   17.60    1.80
   2   0   4   16.90    1.70
   2   0   4   15.20    1.50
   2   0   4   17.40    1.50
   2   0   4   17.70    1.70
  -3   0  -4 1508.75   28.50
  -3   0  -4 1465.95   29.00
  -3   0  -4 1521.45   29.10
  -3   0  -4 1512.15   29.40
  -3   0  -4 1485.15   28.40
   3   0   4 1490.25   29.10
   3   0   4 1569.84   29.10
   3   0   4 1556.14   29.60
   3   0   4 1481.15   28.40
   3   0   4 1472.95   28.80
  -4   0  -4   60.49    3.50
  -4   0  -4   65.69    3.10
  -4   0  -4   63.19    3.90
  -4   0  -4   64.09    3.60
   4   0   4   68.09    3.60
   4   0   4   66.49    3.50
   4   0   4   66.79    4.00
   4   0   4   64.69    3.20
   4   0   4   66.09    3.70
  -5   0  -4  204.98    7.50
  -5   0  -4  202.48    4.70
  -5   0  -4  200.68    5.80
  -5   0  -4  211.48    7.00
   5   0   4  213.78    7.00
   5   0   4  206.58    7.00
   5   0   4  203.28    6.00
   5   0   4  205.98    7.60
   5   0   4  202.78    7.10
  -6   0  -4   37.10    3.80
  -6   0  -4   35.40    3.40
  -6   0  -4   40.00    4.60
  -6   0  -4   29.50    4.00
  -6   0  -4   35.90    1.90
  -6   0  -4   32.80    2.00
   6   0   4   36.00    4.80
   6   0   4   33.30    4.00
   6   0   4   36.30    3.50
   6   0   4   29.20    4.10
   6   0   4   32.70    3.60
  -7   0  -4   20.40    4.00
  -7   0  -4   14.50    3.10
   7   0   4   21.20    4.10
   7   0   4   29.30    4.60
   7   0   4   27.80    3.50
   7   0   4   28.60    5.30
   7   0   4   27.70    4.70
   7  -1  -4  235.38    6.90
   7  -1  -4  242.48    6.90
   7  -1  -4  246.08    5.90
   7  -1  -4  241.08    5.90
   6  -1  -4    1.20    1.00
   6  -1  -4    1.50    1.30
   6  -1  -4    0.20    1.10
   6  -1  -4    0.60    1.60
   6  -1  -4    0.40    0.50
   5  -1  -4    8.80    1.00
   5  -1  -4    8.90    0.90
   5  -1  -4    5.90    1.00
   5  -1  -4    8.10    0.80
   5  -1  -4    5.50    1.00
   4  -1  -4  184.08    3.60
   4  -1  -4  181.08    4.60
   4  -1  -4  175.38    3.70
   4  -1  -4  175.58    3.60
   4  -1  -4  178.58    3.70
   3  -1  -4  228.58    4.20
   3  -1  -4  221.48    5.40
   3  -1  -4  220.28    4.10
   2  -1  -4  367.36    6.80
   2  -1  -4  371.86    6.90
   2  -1  -4  367.76    7.00
   2  -1  -4  373.66    6.80
   2  -1  -4  387.86    8.00
  -2   1   4  368.36    6.90
  -2   1   4  370.56    7.00
   1  -1  -4   48.20    1.60
   1  -1  -4   47.10    1.40
   1  -1  -4   47.60    1.50
   1  -1  -4   48.50    1.30
   1  -1  -4   45.90    1.90
  -1   1   4   49.40    1.60
  -1   1   4   47.10    1.10
  -1   1   4   49.00    2.10
  -1   1   4   49.40    1.30
  -1   1   4   48.20    1.60
   0  -1  -4  242.28    5.60
   0  -1  -4  246.48    5.50
   0  -1  -4  251.47    5.40
   0  -1  -4  250.77    5.50
   0  -1  -4  253.27    5.70
   0   1   4  248.28    5.60
   0   1   4  254.67    5.60
   0   1   4  251.07    5.10
   0   1   4  254.07    5.50
   0   1   4  253.57    5.70
  -1  -1  -4  630.74   12.80
  -1  -1  -4  637.34   12.60
  -1  -1  -4  636.64   12.80
  -1  -1  -4  630.14   12.60
  -1  -1  -4  648.94   13.10
   1   1   4  636.24   12.40
   1   1   4  635.74   12.90
   1   1   4  631.64   12.70
   1   1   4  625.64   12.50
   1   1   4  642.64   13.10
  -2  -1  -4  644.84   13.50
  -2  -1  -4  652.33   13.20
  -2  -1  -4  665.23   14.00
  -2  -1  -4  667.53   13.60
  -2  -1  -4  638.84   13.10
   2   1   4  653.43   13.90
   2   1   4  670.53   13.70
   2   1   4  645.04   13.40
   2   1   4  638.44   13.20
   2   1   4  642.74   13.00
  -3  -1  -4   65.89    3.70
  -3  -1  -4   65.79    2.90
  -3  -1  -4   59.89    2.90
  -3  -1  -4   60.89    3.40
  -3  -1  -4   65.29    2.90
   3   1   4   61.89    3.20
   3   1   4   63.09    2.70
   3   1   4   62.09    3.10
   3   1   4   66.39    3.40
   3   1   4   65.79    3.60
  -4  -1  -4   81.29    3.90
  -4  -1  -4   80.09    2.80
  -4  -1  -4   95.29    3.60
  -4  -1  -4   82.69    3.30
  -4  -1  -4   82.29    4.70
  -4  -1  -4   76.89    4.60
   4   1   4   87.99    4.30
   4   1   4   82.39    3.90
   4   1   4   74.59    4.60
   4   1   4   82.49    3.30
   4   1   4   79.09    4.10
  -5  -1  -4  205.58    8.20
  -5  -1  -4  199.88    5.10
  -5  -1  -4  207.58    6.10
  -5  -1  -4  208.48    6.80
  -5  -1  -4  208.58    7.00
   5   1   4  207.78    6.70
   5   1   4  203.98    7.20
   5   1   4  210.68    5.80
   5   1   4  214.38    7.40
   5   1   4  191.58    7.60
  -6  -1  -4    1.90    1.60
  -6  -1  -4    5.20    2.40
  -6  -1  -4    8.00    3.60
  -6  -1  -4    1.10    2.60
  -6  -1  -4    4.30    1.90
   6   1   4   -1.10    3.00
   6   1   4   -1.60    2.90
   6   1   4    2.30    1.90
   6   1   4    3.10    2.90
   6   1   4    4.80    3.70
  -7  -1  -4   16.70    4.50
   7   1   4   11.70    4.00
   7   1   4   12.00    4.90
   7   1   4   21.30    5.50
   7   1   4   11.50    2.50
   7   1   4    3.60    4.40
   7  -2  -4   35.20    3.00
   7  -2  -4   39.40    2.40
   7  -2  -4   35.80    2.30
   7  -2  -4   41.20    4.20
   6  -2  -4    2.70    1.00
   6  -2  -4    6.40    1.60
   6  -2  -4    5.50    1.00
   6  -2  -4    3.60    0.60
   6  -2  -4    4.30    1.50
   5  -2  -4  231.08    5.40
   5  -2  -4  240.38    5.10
   5  -2  -4  228.98    5.30
   5  -2  -4  226.58    5.30
   5  -2  -4  227.88    5.00
   4  -2  -4 1559.54   28.00
   4  -2  -4 1558.04   28.90
   4  -2  -4 1558.34   28.00
   4  -2  -4 1496.05   27.80
   4  -2  -4 1518.85   28.00
  -4   2   4 1530.55   27.50
   3  -2  -4  119.99    2.80
   3  -2  -4  118.29    2.70
   3  -2  -4  117.79    2.90
   3  -2  -4  122.29    2.60
  -3   2   4  120.69    2.60
  -3   2   4  116.09    2.70
   2  -2  -4 2682.23   49.30
   1  -2  -4  810.72   15.30
   1  -2  -4  796.82   15.10
   1  -2  -4  841.52   15.90
   1  -2  -4  818.22   15.60
  -1   2   4  780.62   14.90
  -1   2   4  826.62   15.60
  -1   2   4  809.42   15.20
   0  -2  -4  437.26    9.10
   0  -2  -4  451.85    9.10
   0  -2  -4  442.66    9.40
   0  -2  -4  452.35    9.00
   0  -2  -4  455.05    9.30
   0   2   4  425.96    9.40
   0   2   4  442.16    8.70
   0   2   4  449.86    9.20
   0   2   4  447.66    9.40
   0   2   4  431.46    9.30
  -1  -2  -4   84.59    3.40
  -1  -2  -4   89.19    2.90
  -1  -2  -4   86.49    3.10
  -1  -2  -4   91.69    3.00
  -1  -2  -4   87.69    3.00
   1   2   4   90.69    3.20
   1   2   4   84.89    2.90
   1   2   4   88.69    3.30
   1   2   4   90.39    2.80
   1   2   4   91.89    3.40
  -2  -2  -4   23.80    1.90
  -2  -2  -4   26.50    2.10
  -2  -2  -4   23.30    2.30
  -2  -2  -4   31.00    2.70
  -2  -2  -4   25.50    2.00
   2   2   4   26.50    2.40
   2   2   4   23.40    2.40
   2   2   4   28.20    2.30
   2   2   4   23.70    1.90
   2   2   4   25.10    1.80
  -3  -2  -4   60.89    2.90
  -3  -2  -4   61.09    2.90
  -3  -2  -4   62.39    3.00
  -3  -2  -4   63.59    4.00
   3   2   4   62.29    3.00
   3   2   4   59.49    3.40
   3   2   4   60.59    3.10
   3   2   4   64.39    2.60
   3   2   4   62.89    3.80
  -4  -2  -4  243.18    6.00
  -4  -2  -4  246.18    7.00
  -4  -2  -4  233.28    8.00
  -4  -2  -4  242.28    7.50
  -4  -2  -4  235.78    6.40
  -4  -2  -4  238.58    6.40
   4   2   4  235.58    7.90
   4   2   4  238.68    6.10
   4   2   4  242.68    7.00
   4   2   4  249.38    7.60
  -5  -2  -4   12.40    2.30
  -5  -2  -4   10.40    1.50
  -5  -2  -4   13.80    2.90
  -5  -2  -4   13.80    2.40
  -5  -2  -4   14.50    3.40
   5   2   4   16.70    3.10
   5   2   4   12.90    1.80
   5   2   4    7.90    3.20
   5   2   4   11.60    2.30
  -6  -2  -4    7.60    4.00
  -6  -2  -4    1.20    1.70
  -6  -2  -4    2.30    3.60
  -6  -2  -4    1.70    2.30
  -6  -2  -4    5.40    3.10
   6   2   4    3.20    2.60
   6   2   4    3.90    1.90
   6   2   4   -0.90    4.60
   6   2   4   -1.00    3.30
   6   2   4    2.70    3.40
   7  -3  -4    9.10    1.50
   7  -3  -4    3.20    2.50
   7  -3  -4    8.90    1.60
   7  -3  -4    7.00    2.00
   6  -3  -4    2.50    0.70
   6  -3  -4    3.40    1.30
   6  -3  -4    1.40    1.20
   6  -3  -4    3.00    0.90
   6  -3  -4    3.50    1.30
   6  -3  -4    0.10    1.50
  -6   3   4    2.70    0.50
  -6   3   4    2.30    0.40
   5  -3  -4  407.96    8.70
   5  -3  -4  414.46    8.60
   5  -3  -4  411.66    9.00
   5  -3  -4  406.06    8.60
   5  -3  -4  418.26    8.70
  -5   3   4  420.16    7.90
  -5   3   4  424.36    8.20
   4  -3  -4  308.47    6.70
   4  -3  -4  308.97    6.40
   4  -3  -4  307.07    6.70
   4  -3  -4  304.77    6.40
  -4   3   4  315.17    6.10
  -4   3   4  312.97    6.50
   3  -3  -4  630.74   12.70
   3  -3  -4  654.13   12.40
   3  -3  -4  647.04   12.20
   3  -3  -4  641.84   12.30
  -3   3   4  654.13   12.30
  -3   3   4  658.43   12.60
   2  -3  -4  194.08    4.40
   2  -3  -4  192.58    4.80
   2  -3  -4  199.68    4.40
   2  -3  -4  204.38    4.40
  -2   3   4  198.18    4.00
  -2   3   4  201.28    4.50
  -2   3   4  198.38    5.00
  -2   3   4  195.38    4.10
   1  -3  -4  190.28    4.30
   1  -3  -4  191.38    5.00
   1  -3  -4  195.08    4.50
   1  -3  -4  188.08    5.10
   1  -3  -4  192.68    4.50
  -1   3   4  191.98    4.20
  -1   3   4  191.08    4.50
  -1   3   4  187.78    4.70
  -1   3   4  187.88    5.00
   0  -3  -4   62.59    2.40
   0  -3  -4   65.89    2.70
   0  -3  -4   65.79    2.80
   0  -3  -4   61.19    2.40
   0  -3  -4   64.89    2.40
   0   3   4   60.49    2.70
   0   3   4   64.39    2.70
   0   3   4   66.49    2.90
   0   3   4   65.19    2.20
  -1  -3  -4   52.89    2.50
  -1  -3  -4   55.99    2.90
  -1  -3  -4   52.89    2.40
  -1  -3  -4   49.99    2.90
  -1  -3  -4   52.19    2.60
   1   3   4   53.09    2.90
   1   3   4   46.90    2.50
   1   3   4   55.09    2.90
   1   3   4   47.90    2.80
   1   3   4   51.49    2.10
  -2  -3  -4    4.00    1.10
  -2  -3  -4    3.60    1.70
  -2  -3  -4    6.40    1.30
  -2  -3  -4    3.70    1.20
  -2  -3  -4    5.40    1.60
   2   3   4    5.60    1.70
   2   3   4    5.50    1.20
   2   3   4    5.60    1.50
   2   3   4    4.60    1.40
   2   3   4    6.60    1.60
  -3  -3  -4   78.59    4.70
  -3  -3  -4   78.09    3.50
  -3  -3  -4   76.09    4.20
  -3  -3  -4   78.79    3.70
  -3  -3  -4   75.49    3.40
  -3  -3  -4   77.89    3.40
   3   3   4   78.89    3.30
   3   3   4   75.29    4.10
   3   3   4   78.79    3.40
   3   3   4   74.19    4.40
   3   3   4   78.89    4.30
  -4  -3  -4   25.60    3.50
  -4  -3  -4   20.00    2.20
  -4  -3  -4   23.70    3.00
  -4  -3  -4   21.50    2.20
  -4  -3  -4   21.90    2.40
  -4  -3  -4   23.90    2.60
   4   3   4   17.90    3.30
   4   3   4   16.40    2.80
   4   3   4   21.50    2.30
   4   3   4   21.90    2.00
   4   3   4   18.80    2.90
  -5  -3  -4  114.19    6.40
  -5  -3  -4  112.79    7.20
  -5  -3  -4  102.29    4.10
  -5  -3  -4  116.39    5.40
  -5  -3  -4  100.19    4.50
   5   3   4  108.19    4.50
   5   3   4  117.79    7.30
   5   3   4  105.79    5.00
   5   3   4  104.49    7.30
   5   3   4  114.49    6.50
  -6  -3  -4    6.30    2.80
  -6  -3  -4    7.80    2.50
  -6  -3  -4   11.00    2.80
  -6  -3  -4    6.40    5.60
  -6  -3  -4    9.20    4.80
   6   3   4    1.60    3.90
   6   3   4   -0.30    3.90
   6   3   4   -3.10    4.50
   6   3   4    6.20    2.40
   6   3   4   11.50    2.90
   7  -4  -4  459.85   11.20
   7  -4  -4  461.75   10.00
   7  -4  -4  454.65   10.50
   7  -4  -4  466.55   10.10
   6  -4  -4   31.00    2.80
   6  -4  -4   29.70    2.60
   6  -4  -4   31.80    2.50
   6  -4  -4   30.80    2.50
   6  -4  -4   31.50    1.70
   6  -4  -4   28.30    2.90
  -6   4   4   30.70    1.50
   5  -4  -4  127.79    4.10
   5  -4  -4  136.69    4.00
   5  -4  -4  136.99    3.90
  -5   4   4  140.89    3.90
  -5   4   4  137.49    3.40
   4  -4  -4  764.42   15.10
   4  -4  -4  805.12   15.70
   4  -4  -4  772.62   15.00
   4  -4  -4  788.02   15.50
  -4   4   4  805.42   15.50
  -4   4   4  771.92   14.90
   3  -4  -4  368.56    7.60
   3  -4  -4  362.66    8.20
   3  -4  -4  364.96    7.70
   3  -4  -4  362.06    7.80
  -3   4   4  364.76    7.70
  -3   4   4  375.16    8.10
   2  -4  -4  144.49    3.80
   2  -4  -4  141.69    4.20
   2  -4  -4  145.69    3.70
   2  -4  -4  141.19    3.80
  -2   4   4  149.79    3.50
  -2   4   4  145.19    4.30
  -2   4   4  150.28    3.70
   1  -4  -4  244.78    6.20
   1  -4  -4  243.58    5.50
   1  -4  -4  228.68    6.30
   1  -4  -4  231.18    5.60
   1  -4  -4  239.88    5.60
  -1   4   4  238.68    5.40
  -1   4   4  236.98    5.70
  -1   4   4  243.58    6.40
  -1   4   4  232.88    5.80
   0  -4  -4  423.36    9.00
   0  -4  -4  425.16    9.10
   0  -4  -4  412.36    9.40
   0  -4  -4  411.36    9.70
   0  -4  -4  412.06    9.00
   0   4   4  411.66    9.50
   0   4   4  414.26    9.80
   0   4   4  433.46    9.30
   0   4   4  424.16    8.90
  -1  -4  -4   50.59    2.60
  -1  -4  -4   50.79    3.30
  -1  -4  -4   48.30    2.80
  -1  -4  -4   46.10    2.80
  -1  -4  -4   47.20    2.90
   1   4   4   44.50    3.20
   1   4   4   47.30    3.10
   1   4   4   43.80    2.80
   1   4   4   47.10    2.20
  -2  -4  -4  587.74   13.10
  -2  -4  -4  571.44   12.50
  -2  -4  -4  583.64   12.40
  -2  -4  -4  581.74   13.60
  -2  -4  -4  577.24   12.40
  -2  -4  -4  558.34   12.10
   2   4   4  567.04   13.40
   2   4   4  570.14   12.00
   2   4   4  572.04   12.90
   2   4   4  580.74   13.30
  -3  -4  -4  127.99    6.10
  -3  -4  -4  120.39    4.30
  -3  -4  -4  116.29    4.40
  -3  -4  -4  121.39    4.70
  -3  -4  -4  115.59    4.40
  -3  -4  -4  123.09    5.50
   3   4   4  125.39    5.70
   3   4   4  120.59    5.80
   3   4   4  113.49    5.30
  -4  -4  -4   25.90    2.50
  -4  -4  -4   16.90    2.40
  -4  -4  -4   21.70    4.50
  -4  -4  -4   23.80    2.70
  -4  -4  -4   17.40    2.40
   4   4   4   24.00    3.70
   4   4   4   20.70    3.90
   4   4   4   20.10    2.60
   4   4   4   21.40    3.20
  -5  -4  -4    6.50    3.90
  -5  -4  -4    1.10    4.20
  -5  -4  -4    3.70    2.50
  -5  -4  -4    4.50    2.30
  -5  -4  -4    4.00    2.50
  -5  -4  -4    2.60    2.00
   5   4   4    7.40    4.30
   5   4   4    3.00    3.70
   5   4   4   10.40    4.50
   5   4   4    8.30    2.40
   7  -5  -4   12.90    2.40
   7  -5  -4   13.50    2.30
   7  -5  -4    8.70    3.00
   7  -5  -4    8.40    2.40
  -7   5   4   11.80    1.40
   6  -5  -4   20.30    2.30
   6  -5  -4   17.50    1.60
   6  -5  -4   20.10    2.50
   6  -5  -4   17.90    2.30
   6  -5  -4   17.90    2.00
  -6   5   4   19.10    2.00
  -6   5   4   18.00    1.80
   5  -5  -4   15.20    2.00
   5  -5  -4   14.40    1.40
   5  -5  -4   10.40    1.70
   5  -5  -4   14.80    2.00
   5  -5  -4   14.70    1.50
  -5   5   4   13.30    1.30
  -5   5   4   16.50    1.90
   4  -5  -4   99.99    3.70
   4  -5  -4   99.19    3.30
   4  -5  -4   98.49    3.30
  -4   5   4  105.59    3.20
   3  -5  -4  124.19    4.40
   3  -5  -4  120.99    3.70
   3  -5  -4  127.79    3.90
   3  -5  -4  123.99    3.80
  -3   5   4  127.89    4.20
  -3   5   4  127.29    3.10
  -3   5   4  127.29    3.70
  -3   5   4  124.69    3.20
   2  -5  -4    3.60    1.50
   2  -5  -4    4.70    1.10
   2  -5  -4    6.10    1.20
  -2   5   4    4.80    1.10
  -2   5   4    6.80    1.10
  -2   5   4    5.40    1.40
  -2   5   4    4.50    0.90
   1  -5  -4  370.26    8.00
   1  -5  -4  364.56    8.20
   1  -5  -4  354.46    8.80
   1  -5  -4  352.06    8.90
   1  -5  -4  348.67    8.10
  -1   5   4  364.96    8.30
  -1   5   4  374.86    7.90
  -1   5   4  356.66    8.50
  -1   5   4  359.26    9.10
   0  -5  -4   28.60    2.80
   0  -5  -4   27.40    2.20
   0  -5  -4   25.70    2.20
   0  -5  -4   24.70    2.40
   0  -5  -4   26.10    2.10
   0   5   4   22.70    2.50
   0   5   4   26.90    2.60
   0   5   4   27.70    2.10
   0   5   4   23.20    2.30
  -1  -5  -4   32.70    2.60
  -1  -5  -4   38.00    3.10
  -1  -5  -4   36.90    2.70
  -1  -5  -4   35.00    2.60
  -1  -5  -4   40.70    3.50
  -1  -5  -4   33.80    3.00
   1   5   4   36.90    2.40
   1   5   4   35.70    3.40
   1   5   4   40.70    3.70
   1   5   4   33.50    3.00
  -2  -5  -4   23.80    2.50
  -2  -5  -4   29.70    3.30
  -2  -5  -4   31.30    2.80
  -2  -5  -4   25.40    2.70
  -2  -5  -4   26.70    2.90
  -2  -5  -4   28.50    3.10
   2   5   4   28.60    2.50
   2   5   4   29.40    3.20
   2   5   4   28.60    2.90
   2   5   4   27.70    3.20
  -3  -5  -4  252.47    7.70
  -3  -5  -4  225.68    8.50
  -3  -5  -4  225.18    6.60
  -3  -5  -4  218.78    9.50
  -3  -5  -4  231.78    8.10
  -3  -5  -4  189.78    7.50
   3   5   4  220.38    6.40
   3   5   4  219.88    7.70
   3   5   4  231.28    8.30
  -4  -5  -4  212.28    9.40
  -4  -5  -4  224.78    9.00
  -4  -5  -4  216.38    7.20
  -4  -5  -4  201.58    6.60
  -4  -5  -4  218.58    6.50
  -4  -5  -4  216.88    6.90
   4   5   4  208.68    9.00
   4   5   4  199.58    8.40
   4   5   4  217.08    9.50
   4   5   4  197.88    6.60
  -5  -5  -4   -0.50    2.20
  -5  -5  -4    3.50    5.20
  -5  -5  -4    6.80    5.00
  -5  -5  -4   -5.10    3.00
  -5  -5  -4    3.20    2.90
  -5  -5  -4    4.40    2.90
   5   5   4    8.00    4.80
   5   5   4    2.70    2.30
   5   5   4    2.70    4.80
   5   5   4   -2.20    3.70
   7  -6  -4  156.08    6.60
   7  -6  -4  145.99    4.00
   7  -6  -4  119.69    8.10
   7  -6  -4  146.69    4.60
   7  -6  -4  156.28    5.70
   7  -6  -4  143.49    6.10
  -7   6   4  144.89    4.80
   6  -6  -4   53.49    4.30
   6  -6  -4   46.60    3.30
   6  -6  -4   43.50    4.00
   6  -6  -4   45.10    2.80
   6  -6  -4   48.20    4.20
  -6   6   4   43.20    3.80
  -6   6   4   44.10    2.80
   5  -6  -4  238.38    6.20
   5  -6  -4  228.38    6.70
   5  -6  -4  228.78    7.00
   5  -6  -4  235.18    7.00
   5  -6  -4  239.18    6.20
  -5   6   4  242.38    5.90
  -5   6   4  235.58    6.90
   4  -6  -4   43.30    3.60
   4  -6  -4   52.29    2.90
   4  -6  -4   51.69    2.90
   4  -6  -4   48.10    3.10
   4  -6  -4   45.80    3.00
  -4   6   4   48.70    2.70
  -4   6   4   49.50    3.10
   3  -6  -4  512.05   11.00
   3  -6  -4  506.05   10.80
   3  -6  -4  507.75   11.00
   3  -6  -4  504.85   11.60
   3  -6  -4  511.05   11.00
  -3   6   4  490.85   10.30
  -3   6   4  499.05   10.30
  -3   6   4  494.75   11.50
   2  -6  -4   62.59    2.90
   2  -6  -4   61.79    2.70
   2  -6  -4   60.69    2.90
   2  -6  -4   56.19    3.40
   2  -6  -4   59.29    3.90
   2  -6  -4   56.69    4.00
  -2   6   4   60.49    4.00
  -2   6   4   57.79    3.20
  -2   6   4   58.79    2.90
  -2   6   4   60.29    3.10
   1  -6  -4  115.39    3.90
   1  -6  -4  114.69    4.20
   1  -6  -4  101.39    4.70
   1  -6  -4  121.79    4.90
   1  -6  -4  122.79    4.40
   1  -6  -4  112.69    4.00
  -1   6   4  114.79    4.40
  -1   6   4  120.29    5.10
  -1   6   4  121.09    4.00
  -1   6   4  119.09    4.20
   0  -6  -4  245.78    7.50
   0  -6  -4  221.18    7.40
   0  -6  -4  236.88    6.90
   0  -6  -4  246.28    6.50
   0  -6  -4  239.08    7.40
   0   6   4  247.68    7.10
   0   6   4  238.38    7.90
   0   6   4  251.87    7.30
   0   6   4  241.18    6.30
  -1  -6  -4   53.59    3.90
  -1  -6  -4   47.80    3.30
  -1  -6  -4   42.10    3.70
  -1  -6  -4   54.39    3.30
  -1  -6  -4   47.50    4.40
   1   6   4   52.39    3.90
   1   6   4   53.69    4.60
   1   6   4   52.59    4.10
   1   6   4   49.99    3.00
  -2  -6  -4  121.29    5.90
  -2  -6  -4  135.49    5.10
  -2  -6  -4  119.49    4.80
  -2  -6  -4  129.49    5.00
  -2  -6  -4  125.69    6.60
  -2  -6  -4  131.89    5.10
   2   6   4  125.59    5.80
   2   6   4  128.99    6.60
   2   6   4  121.69    4.60
   2   6   4  108.79    6.10
  -3  -6  -4   61.49    6.00
  -3  -6  -4   49.60    4.70
  -3  -6  -4   54.59    4.20
  -3  -6  -4   55.79    6.10
  -3  -6  -4   51.49    4.20
  -3  -6  -4   55.39    4.00
   3   6   4   50.39    5.30
   3   6   4   55.59    5.90
   3   6   4   56.39    6.20
   3   6   4   60.99    3.90
  -4  -6  -4    3.30    2.80
  -4  -6  -4   -0.90    2.50
  -4  -6  -4    2.10    2.50
  -4  -6  -4    7.90    4.30
  -4  -6  -4    4.80    4.80
  -4  -6  -4    1.70    2.90
   4   6   4    0.30    2.40
   4   6   4    2.00    5.60
   4   6   4    7.00    3.70
   6  -7  -4   22.90    3.40
   6  -7  -4   28.70    2.80
   6  -7  -4   38.20    3.90
   6  -7  -4   36.10    3.40
   6  -7  -4   27.20    3.70
  -6   7   4   23.80    2.30
  -6   7   4   30.80    3.50
   5  -7  -4    1.10    1.50
   5  -7  -4    3.90    2.00
   5  -7  -4   -1.60    2.50
   5  -7  -4    2.70    2.60
   5  -7  -4   -0.10    1.80
  -5   7   4    0.80    2.50
  -5   7   4    0.90    1.70
   4  -7  -4   -0.70    1.70
   4  -7  -4   -0.80    1.80
   4  -7  -4    2.00    1.50
   4  -7  -4    3.00    2.10
  -4   7   4    3.50    2.30
  -4   7   4   -0.40    0.70
  -4   7   4   -0.30    1.50
  -4   7   4    0.90    0.90
   3  -7  -4    6.50    2.10
   3  -7  -4    7.00    2.00
   3  -7  -4    8.20    2.10
   3  -7  -4    7.30    1.70
  -3   7   4    7.30    2.10
  -3   7   4    6.10    1.60
  -3   7   4    4.50    1.40
  -3   7   4    5.90    1.60
   2  -7  -4   24.70    2.50
   2  -7  -4   31.00    3.40
   2  -7  -4   31.90    3.60
   2  -7  -4   30.20    2.60
   2  -7  -4   29.00    2.60
  -2   7   4   24.40    2.80
  -2   7   4   27.40    2.60
  -2   7   4   27.40    2.70
  -2   7   4   29.70    3.30
   1  -7  -4   59.29    5.00
   1  -7  -4   58.79    3.70
   1  -7  -4   59.49    3.70
   1  -7  -4   63.09    3.90
   1  -7  -4   60.39    4.30
   1  -7  -4   59.39    3.40
  -1   7   4   52.09    3.50
  -1   7   4   58.79    3.90
  -1   7   4   57.29    3.40
   0  -7  -4  102.19    4.50
   0  -7  -4  109.79    4.50
   0  -7  -4  101.59    4.70
   0  -7  -4  102.79    5.80
   0  -7  -4  105.59    4.80
   0  -7  -4   96.99    5.40
   0   7   4  109.59    5.30
   0   7   4  107.29    5.50
   0   7   4  129.29    7.10
   0   7   4  107.99    4.50
  -1  -7  -4   60.89    5.60
  -1  -7  -4   56.49    3.90
  -1  -7  -4   56.39    3.90
  -1  -7  -4   54.99    4.70
  -1  -7  -4   63.29    4.70
  -1  -7  -4   53.49    3.90
   1   7   4   64.79    5.60
   1   7   4   57.99    5.10
   1   7   4   61.59    3.70
   1   7   4   57.59    4.60
  -2  -7  -4   50.39    4.40
  -2  -7  -4   38.50    4.00
  -2  -7  -4   38.60    4.20
  -2  -7  -4   47.10    4.10
  -2  -7  -4   41.80    4.10
  -2  -7  -4   39.50    5.00
   2   7   4   34.70    5.20
   2   7   4   49.50    5.30
   2   7   4   51.69    4.60
  -3  -7  -4    3.10    2.80
  -3  -7  -4   -0.30    3.90
  -3  -7  -4   -4.80    5.50
  -3  -7  -4   -1.30    2.70
  -3  -7  -4    3.10    2.60
  -3  -7  -4    0.00    2.50
   3   7   4   -4.30    4.40
   3   7   4    1.60    4.30
   3   7   4    0.60    2.40
   3   7   4    4.10    3.50
   6  -8  -4   79.79    6.60
   6  -8  -4   65.19    5.30
   6  -8  -4   82.19    5.00
   6  -8  -4   77.79    5.50
   6  -8  -4   72.89    7.00
   5  -8  -4  135.09    6.60
   5  -8  -4  141.89    5.50
   5  -8  -4  135.39    6.30
   5  -8  -4  138.89    6.10
   5  -8  -4  148.19    5.50
  -5   8   4  139.39    7.00
   4  -8  -4   14.80    3.00
   4  -8  -4   13.90    2.40
   4  -8  -4   11.10    2.20
   4  -8  -4   13.40    2.60
   4  -8  -4   11.80    2.90
  -4   8   4    7.40    1.60
  -4   8   4   14.30    1.80
  -4   8   4   16.30    3.00
   3  -8  -4    6.50    2.10
   3  -8  -4   10.50    2.20
   3  -8  -4   12.20    3.30
   3  -8  -4   11.10    2.00
   3  -8  -4   11.80    2.40
  -3   8   4    7.10    2.20
  -3   8   4   10.10    2.10
  -3   8   4    9.20    2.10
  -3   8   4   12.80    3.10
   2  -8  -4    3.60    2.80
   2  -8  -4    4.40    2.10
   2  -8  -4    3.10    3.00
   2  -8  -4    1.80    1.90
   2  -8  -4    5.80    1.90
   2  -8  -4    6.00    2.10
  -2   8   4    6.10    2.30
  -2   8   4    3.90    2.10
  -2   8   4    8.20    2.20
  -2   8   4    7.60    2.70
   1  -8  -4   68.09    4.40
   1  -8  -4   66.09    5.50
   1  -8  -4   60.89    4.10
   1  -8  -4   69.29    4.20
   1  -8  -4   66.69    5.80
  -1   8   4   62.69    5.40
  -1   8   4   50.09    5.80
  -1   8   4   65.99    5.00
  -1   8   4   71.69    4.80
   0  -8  -4   42.00    4.60
   0  -8  -4   44.60    3.90
   0  -8  -4   44.70    4.30
   0  -8  -4   46.10    4.10
   0  -8  -4   43.60    4.50
   0  -8  -4   37.80    3.90
   0   8   4   43.80    4.90
   0   8   4   40.80    4.70
   0   8   4   43.20    4.50
   0   8   4   44.30    3.90
  -1  -8  -4   11.80    2.60
  -1  -8  -4    8.70    3.20
  -1  -8  -4    9.80    4.10
  -1  -8  -4   12.40    3.20
  -1  -8  -4   17.30    2.80
  -1  -8  -4   10.50    2.70
   1   8   4    9.20    3.30
   1   8   4   16.30    4.40
   1   8   4   12.40    4.10
   1   8   4   11.10    2.40
  -2  -8  -4    9.50    5.00
  -2  -8  -4    6.60    2.80
  -2  -8  -4   11.50    4.50
  -2  -8  -4    6.10    2.60
  -2  -8  -4    6.00    2.90
  -2  -8  -4    4.20    2.70
   2   8   4    4.40    4.40
   2   8   4    3.10    3.60
   2   8   4    6.70    2.60
   2   8   4    2.70    4.80
   5  -9  -4    5.90    4.00
   5  -9  -4    1.90    3.10
   5  -9  -4    6.00    3.90
   5  -9  -4    2.50    2.70
   4  -9  -4   20.40    3.10
   4  -9  -4   26.40    4.20
   4  -9  -4   33.50    4.20
   4  -9  -4   28.40    3.50
   4  -9  -4   22.60    3.30
  -4   9   4   24.70    2.40
  -4   9   4   27.60    3.80
   3  -9  -4    2.00    2.40
   3  -9  -4    1.20    3.90
   3  -9  -4    0.30    2.60
   3  -9  -4    3.10    2.20
   3  -9  -4    8.20    3.50
   3  -9  -4    2.90    2.40
  -3   9   4    2.70    2.50
  -3   9   4   -1.40    3.00
  -3   9   4    2.80    2.40
  -3   9   4   -1.20    2.10
   2  -9  -4    8.60    3.00
   2  -9  -4    6.10    2.40
   2  -9  -4    8.40    3.60
   2  -9  -4    9.30    2.70
   2  -9  -4   11.80    3.70
   2  -9  -4   15.80    3.30
  -2   9   4    5.60    2.70
  -2   9   4    9.20    3.10
  -2   9   4   12.90    2.80
  -2   9   4    4.90    3.40
   1  -9  -4   34.20    5.30
   1  -9  -4   32.20    3.40
   1  -9  -4   32.60    3.50
   1  -9  -4   33.80    3.40
   1  -9  -4   33.90    4.20
   1  -9  -4   35.00    4.00
  -1   9   4   30.50    4.50
  -1   9   4   28.50    4.00
  -1   9   4   32.30    4.30
  -1   9   4   39.90    3.80
   0  -9  -4   29.40    3.70
   0  -9  -4   29.30    3.70
   0  -9  -4   29.20    3.50
   0  -9  -4   25.60    4.40
   0  -9  -4   25.80    4.90
   0   9   4   26.20    4.60
   0   9   4   34.00    4.60
   0   9   4   34.90    5.00
   0   9   4   33.70    3.10
  -1  -9  -4    9.30    3.30
  -1  -9  -4   22.20    5.30
  -1  -9  -4    3.40    2.70
  -1  -9  -4   10.30    2.80
  -1  -9  -4    0.00    3.20
  -1  -9  -4    6.50    3.20
   1   9   4   10.70    3.30
   1   9   4    8.70    4.50
   1   9   4    4.20    4.90
   1   9   4    5.30    3.90
   3 -10  -4   38.10    3.90
   3 -10  -4   33.40    4.90
   3 -10  -4   35.80    4.00
   3 -10  -4   39.50    3.60
  -3  10   4   43.20    4.10
   2 -10  -4    1.20    2.70
   2 -10  -4    2.50    2.80
   2 -10  -4    9.40    3.60
   2 -10  -4    8.40    4.00
   2 -10  -4   -1.20    3.70
   2 -10  -4    4.40    2.50
  -2  10   4    7.80    3.40
  -2  10   4   10.10    3.30
  -2  10   4   -0.30    3.30
  -2  10   4    1.10    3.30
   1 -10  -4   49.20    5.80
   1 -10  -4   52.69    4.80
   1 -10  -4   32.30    4.20
   1 -10  -4   37.80    5.30
  -1  10   4   36.10    6.00
  -1  10   4   43.50    4.90
  -1  10   4   38.10    5.10
  -1  10   4   45.10    4.80
   1  11  -5   12.60    3.30
   1  11  -5    1.90    3.20
   1  11  -5    2.70    2.60
   1  11  -5    5.70    4.80
  -1 -11   5   12.30    3.60
  -1 -11   5    0.00    4.30
  -1 -11   5    8.80    3.70
  -1 -11   5   11.00    4.10
  -1 -11   5    7.90    3.20
   0  11  -5   27.80    3.50
   0  11  -5   38.50    3.90
   0  11  -5   43.30    5.50
   0  11  -5   29.60    3.80
   0 -11   5   31.20    5.20
   0 -11   5   37.50    5.70
   0 -11   5   43.30    4.90
   0 -11   5   36.70    4.80
   0 -11   5   40.10    4.40
  -1  11  -5   31.50    3.50
  -1  11  -5   26.90    4.00
  -1  11  -5   33.10    5.10
  -1  11  -5   22.60    3.70
   1 -11   5   31.40    4.70
   1 -11   5   23.50    2.90
   1 -11   5   27.20    4.20
   1 -11   5   31.10    4.90
   1 -11   5   24.90    5.10
  -2  11  -5    8.70    4.60
  -2  11  -5    9.60    3.00
  -2  11  -5   13.10    4.30
  -2  11  -5    8.20    3.40
   2 -11   5    5.20    4.80
   2 -11   5   10.60    2.80
   2 -11   5    9.30    3.80
   2 -11   5   12.40    4.70
   2 -11   5    6.50    4.40
  -3  11  -5   17.40    3.20
  -3  11  -5   21.50    4.10
  -3  11  -5   19.80    5.30
  -3  11  -5   24.00    3.30
   3 -11   5   21.90    4.30
   3 -11   5   34.40    5.50
   3 -11   5   22.80    3.30
   3 -11   5   27.00    5.70
   3 -11   5   20.30    4.50
  -4  11  -5    3.80    5.20
  -4  11  -5   -1.10    3.00
  -4  11  -5   13.00    5.00
  -4  11  -5   -2.40    3.30
   4 -11   5    6.00    2.60
   4 -11   5    3.20    4.90
   4 -11   5   12.10    4.90
   4 -11   5   12.50    5.70
   4 -11   5   12.30    4.70
   3  10  -5    4.70    4.20
   3  10  -5   10.40    4.70
   3  10  -5    6.50    3.00
   3  10  -5    4.40    3.00
  -3 -10   5    8.90    3.80
  -3 -10   5    2.20    4.00
  -3 -10   5    9.00    3.60
  -3 -10   5    7.70    4.10
  -3 -10   5    3.00    4.30
   2  10  -5   27.00    4.20
   2  10  -5   31.00    3.40
   2  10  -5   33.00    5.00
   2  10  -5   26.80    3.40
  -2 -10   5   32.70    4.00
  -2 -10   5   23.90    4.50
  -2 -10   5   30.00    2.90
  -2 -10   5   36.70    4.80
  -2 -10   5   36.30    3.60
  -2 -10   5   38.20    3.50
  -2 -10   5   30.60    4.40
   1  10  -5    3.80    3.60
   1  10  -5    2.00    2.40
   1  10  -5    0.40    2.30
   1  10  -5    0.30    2.40
   1  10  -5    3.90    2.50
  -1 -10   5    3.60    3.70
  -1 -10   5    8.30    3.40
  -1 -10   5    0.10    2.60
  -1 -10   5    0.70    3.40
  -1 -10   5    3.20    3.00
  -1 -10   5    3.70    2.50
   0  10  -5  675.83   15.50
   0  10  -5  690.33   17.30
   0  10  -5  684.53   15.60
   0  10  -5  686.63   15.80
   0 -10   5  699.03   15.00
   0 -10   5  677.33   16.90
   0 -10   5  680.93   17.50
   0 -10   5  673.13   16.40
   0 -10   5  692.73   16.70
  -1  10  -5   26.60    2.90
  -1  10  -5   27.00    3.30
  -1  10  -5   30.50    3.10
  -1  10  -5   25.20    4.20
  -1  10  -5   27.10    3.00
   1 -10   5   28.10    3.70
   1 -10   5   27.50    3.60
   1 -10   5   32.20    4.10
   1 -10   5   20.80    3.00
  -2  10  -5   80.99    4.50
  -2  10  -5   90.69    6.80
  -2  10  -5   85.59    4.70
  -2  10  -5   84.29    5.50
  -2  10  -5   82.49    4.60
   2 -10   5   83.89    4.70
   2 -10   5   73.39    6.60
   2 -10   5   74.89    6.00
   2 -10   5   85.29    5.70
   2 -10   5   81.69    6.50
  -3  10  -5  194.88    9.20
  -3  10  -5  196.08    7.90
  -3  10  -5  198.08    7.10
  -3  10  -5  196.68    6.70
   3 -10   5  189.68    7.70
   3 -10   5  194.28    8.90
   3 -10   5  193.28    9.00
   3 -10   5  181.38    8.20
   3 -10   5  193.78    6.80
  -4  10  -5  115.99    6.80
  -4  10  -5  120.79    8.40
  -4  10  -5  115.69    5.40
   4 -10   5  101.29    7.40
   4 -10   5  105.39    6.30
   4 -10   5  122.59    5.70
   4 -10   5  120.99    8.10
   4 -10   5  117.89    8.40
  -5  10  -5   68.69    7.60
  -5  10  -5   70.09    4.90
  -5  10  -5   65.09    6.40
   5 -10   5   78.29    7.10
   5 -10   5   75.99    7.30
   5 -10   5   67.89    6.80
   5 -10   5   65.89    7.20
   5 -10   5   76.69    7.70
   5 -10   5   76.89    5.20
   4   9  -5    5.60    3.10
   4   9  -5    4.60    3.00
   4   9  -5    9.80    3.30
   4   9  -5   13.90    4.20
  -4  -9   5    7.10    3.90
  -4  -9   5    5.00    3.40
  -4  -9   5    4.30    4.10
   3   9  -5   18.70    4.20
   3   9  -5   15.30    3.00
   3   9  -5   21.10    3.20
   3   9  -5   15.80    2.90
   3   9  -5   12.70    2.70
  -3  -9   5   13.50    4.00
  -3  -9   5   20.30    4.00
  -3  -9   5   18.40    3.50
  -3  -9   5   14.10    3.40
  -3  -9   5   14.20    3.10
   2   9  -5   10.50    2.40
   2   9  -5   16.90    3.50
   2   9  -5   10.10    2.70
   2   9  -5   17.20    2.70
   2   9  -5   12.40    2.60
  -2  -9   5   14.30    2.50
  -2  -9   5   18.30    3.00
  -2  -9   5   13.70    2.80
  -2  -9   5   10.60    3.30
  -2  -9   5   14.50    2.20
  -2  -9   5    8.00    3.50
   1   9  -5    1.80    1.90
   1   9  -5    4.20    2.00
   1   9  -5    4.80    2.70
   1   9  -5    1.30    2.10
   1   9  -5    6.00    2.50
  -1  -9   5    5.20    3.00
  -1  -9   5    0.90    2.60
  -1  -9   5    2.00    2.10
  -1  -9   5    3.30    2.30
  -1  -9   5    5.80    2.10
  -1  -9   5    3.40    2.30
   0   9  -5   36.80    3.40
   0   9  -5   37.50    3.30
   0   9  -5   33.30    3.80
   0   9  -5   38.30    3.50
   0  -9   5   42.10    4.50
   0  -9   5   32.70    2.90
   0  -9   5   47.70    5.00
   0  -9   5   43.60    4.20
   0  -9   5   41.60    4.20
  -1   9  -5  132.89    5.60
  -1   9  -5  137.99    5.10
  -1   9  -5  137.49    5.00
  -1   9  -5  130.49    5.10
  -1   9  -5  129.49    6.50
   1  -9   5  147.99    6.80
   1  -9   5  134.79    6.50
   1  -9   5  136.69    6.10
   1  -9   5  137.69    6.20
   1  -9   5  139.39    5.00
  -2   9  -5   70.29    4.60
  -2   9  -5   67.59    3.80
  -2   9  -5   67.39    3.80
  -2   9  -5   70.29    5.60
  -2   9  -5   63.29    3.80
   2  -9   5   64.39    4.90
   2  -9   5   66.39    5.30
   2  -9   5   66.89    3.80
   2  -9   5   79.39    5.40
  -3   9  -5   20.50    3.10
  -3   9  -5   24.00    2.80
  -3   9  -5   21.00    2.30
  -3   9  -5   28.00    3.80
   3  -9   5   24.30    2.60
   3  -9   5   21.20    3.30
   3  -9   5   22.60    3.70
   3  -9   5   17.90    3.20
   3  -9   5   26.90    3.80
  -4   9  -5   -2.10    2.00
  -4   9  -5    1.60    1.90
  -4   9  -5    5.30    2.80
  -4   9  -5    3.40    3.40
   4  -9   5   -1.70    3.50
   4  -9   5   -5.00    3.00
   4  -9   5   -0.40    2.60
   4  -9   5    0.00    2.20
   4  -9   5    5.90    3.20
  -5   9  -5    0.70    2.50
  -5   9  -5    8.70    5.10
  -5   9  -5    7.80    3.70
  -5   9  -5    4.70    2.20
   5  -9   5    4.30    2.90
   5  -9   5    6.80    2.70
   5  -9   5    2.90    3.60
   5  -9   5    5.60    3.60
   5  -9   5   10.00    4.40
   5  -9   5    2.90    3.60
  -6   9  -5   29.40    3.80
  -6   9  -5   33.10    5.80
  -6   9  -5   27.70    3.30
  -6   9  -5   29.10    4.50
   6  -9   5   29.30    3.20
   6  -9   5   22.10    4.10
   6  -9   5   32.50    4.40
   6  -9   5   21.60    5.50
   6  -9   5   23.80    5.50
   6  -9   5   29.40    5.30
   4   8  -5   58.19    5.10
   4   8  -5   60.59    5.10
   4   8  -5   61.69    5.90
   4   8  -5   63.79    5.10
   4   8  -5   57.49    4.90
  -4  -8   5   63.89    4.80
  -4  -8   5   64.79    6.30
  -4  -8   5   64.49    5.20
  -4  -8   5   61.89    5.00
  -4  -8   5   60.69    5.30
   3   8  -5  128.39    6.70
   3   8  -5  138.59    5.70
   3   8  -5  130.69    5.10
   3   8  -5  137.89    5.80
   3   8  -5  135.49    5.60
  -3  -8   5  133.39    5.50
  -3  -8   5  137.69    5.40
  -3  -8   5  128.69    5.70
  -3  -8   5  141.79    6.60
  -3  -8   5  138.29    6.90
   2   8  -5  155.98    5.40
   2   8  -5  141.19    6.40
   2   8  -5  152.18    5.40
   2   8  -5  147.39    5.50
   2   8  -5  147.29    5.20
  -2  -8   5  162.88    6.60
  -2  -8   5  154.68    5.40
  -2  -8   5  146.59    6.50
  -2  -8   5  147.99    5.60
  -2  -8   5  151.28    4.60
  -2  -8   5  151.48    5.60
   1   8  -5    2.70    1.50
   1   8  -5    2.30    1.80
   1   8  -5    1.10    2.20
   1   8  -5    1.30    1.80
  -1  -8   5    1.10    2.00
  -1  -8   5    2.00    1.30
  -1  -8   5    5.20    2.50
  -1  -8   5    0.00    2.10
  -1  -8   5   -1.20    2.00
  -1  -8   5    3.20    1.70
   0   8  -5   63.69    3.30
   0   8  -5   64.29    3.40
   0   8  -5   65.19    3.40
   0   8  -5   61.09    4.40
   0   8  -5   60.79    3.40
   0  -8   5   50.49    3.80
   0  -8   5   57.79    4.60
   0  -8   5   60.39    4.10
   0  -8   5   59.69    3.60
   0  -8   5   58.29    3.90
  -1   8  -5 1024.70   21.20
  -1   8  -5 1032.60   20.40
  -1   8  -5 1020.50   20.40
  -1   8  -5 1046.10   22.00
  -1   8  -5  943.81   20.50
   1  -8   5 1028.10   21.90
   1  -8   5 1054.09   21.50
   1  -8   5 1042.90   21.60
   1  -8   5  961.60   22.60
  -2   8  -5  102.39    4.40
  -2   8  -5  113.19    5.80
  -2   8  -5  108.09    4.10
  -2   8  -5  114.79    4.40
  -2   8  -5  106.79    5.00
   2  -8   5  112.69    5.50
   2  -8   5  109.19    4.90
   2  -8   5  111.99    5.50
   2  -8   5   99.49    5.10
   2  -8   5  103.79    4.10
  -3   8  -5   78.09    3.90
  -3   8  -5   59.89    6.10
  -3   8  -5   71.59    3.20
  -3   8  -5   76.39    3.70
  -3   8  -5   71.59    4.50
   3  -8   5   73.49    5.10
   3  -8   5   73.69    3.60
   3  -8   5   72.19    4.20
   3  -8   5   69.49    4.80
   3  -8   5   68.89    4.70
  -4   8  -5  517.65   12.10
  -4   8  -5  514.65   11.10
  -4   8  -5  512.65   11.90
  -4   8  -5  604.14   15.30
  -4   8  -5  524.25   14.10
   4  -8   5  507.35   12.00
   4  -8   5  514.45   12.30
   4  -8   5  504.85   13.20
   4  -8   5  489.15   13.30
   4  -8   5  490.75   13.20
   4  -8   5  525.35   14.00
  -5   8  -5   27.80    3.40
  -5   8  -5   31.10    4.30
  -5   8  -5   29.80    3.10
  -5   8  -5   27.90    2.90
   5  -8   5   25.40    3.10
   5  -8   5   29.10    4.00
   5  -8   5   32.70    4.60
   5  -8   5   28.60    3.90
   5  -8   5   33.20    4.20
   5  -8   5   28.10    2.90
  -6   8  -5   67.59    6.00
  -6   8  -5   85.69    5.90
  -6   8  -5   80.89    4.70
  -6   8  -5   77.89    5.20
   6  -8   5   81.89    6.40
   6  -8   5   85.99    9.40
   6  -8   5   69.29    6.90
   6  -8   5   77.89    6.60
   6  -8   5   76.39    7.10
   5   7  -5  184.88    7.00
   5   7  -5  162.38    6.20
   5   7  -5  150.58    7.00
   5   7  -5  172.88    7.30
  -5  -7   5  152.48    5.80
  -5  -7   5  153.88    8.10
  -5  -7   5  169.28    5.60
   4   7  -5    6.60    2.40
   4   7  -5   13.00    2.30
   4   7  -5   10.10    3.30
   4   7  -5    4.40    2.10
   4   7  -5    5.60    1.90
  -4  -7   5    7.40    2.20
  -4  -7   5    8.50    2.20
  -4  -7   5   12.10    3.10
  -4  -7   5   13.30    3.10
  -4  -7   5    7.40    2.40
   3   7  -5  102.09    5.20
   3   7  -5   98.19    4.20
   3   7  -5   81.39    4.90
   3   7  -5  100.49    4.60
   3   7  -5   97.79    4.40
  -3  -7   5  100.69    4.20
  -3  -7   5  103.19    4.50
  -3  -7   5  106.09    5.50
  -3  -7   5  103.39    5.00
  -3  -7   5  102.79    4.40
   2   7  -5    5.60    2.40
   2   7  -5    3.20    2.40
   2   7  -5    1.90    1.50
   2   7  -5    1.60    1.60
   2   7  -5    5.40    1.60
  -2  -7   5    3.70    1.70
  -2  -7   5    4.70    1.60
  -2  -7   5    6.40    1.70
  -2  -7   5    5.40    2.50
  -2  -7   5    3.10    1.20
  -2  -7   5    5.50    2.00
   1   7  -5   -1.50    1.50
   1   7  -5    1.50    1.40
   1   7  -5   -0.90    1.10
   1   7  -5    0.40    1.20
   1   7  -5   -0.90    1.70
  -1  -7   5   -0.70    1.40
  -1  -7   5    1.00    1.80
  -1  -7   5    0.60    1.10
  -1  -7   5   -1.90    1.70
  -1  -7   5    0.60    1.90
  -1  -7   5    0.20    1.30
   0   7  -5   70.29    3.30
   0   7  -5   68.79    3.00
   0   7  -5   73.79    3.30
   0   7  -5   70.29    4.00
   0   7  -5   76.09    3.20
   0  -7   5   68.89    3.70
   0  -7   5   73.59    4.00
   0  -7   5   69.99    3.70
   0  -7   5   70.19    4.20
   0  -7   5   70.79    3.50
   0  -7   5   75.89    3.30
  -1   7  -5    7.80    1.50
  -1   7  -5   12.30    2.30
  -1   7  -5    8.60    1.50
  -1   7  -5    9.00    1.70
  -1   7  -5   11.30    1.60
   1  -7   5   10.80    2.00
   1  -7   5   11.40    1.50
   1  -7   5    6.60    1.90
   1  -7   5   11.60    2.00
   1  -7   5   10.00    2.20
  -2   7  -5   25.30    3.00
  -2   7  -5   24.30    2.30
  -2   7  -5   26.00    2.50
  -2   7  -5   31.20    3.50
  -2   7  -5   28.60    2.60
   2  -7   5   25.70    2.90
   2  -7   5   28.60    3.20
   2  -7   5   21.70    2.30
   2  -7   5   23.50    2.40
   2  -7   5   27.10    2.70
  -3   7  -5  428.66   11.40
  -3   7  -5  430.36    9.70
  -3   7  -5  434.36   10.70
  -3   7  -5  424.46    9.30
  -3   7  -5  421.66   10.00
   3  -7   5  383.46   10.30
   3  -7   5  410.76   10.60
   3  -7   5  424.16   10.00
   3  -7   5  408.46   11.10
  -4   7  -5   17.20    2.90
  -4   7  -5   21.40    3.20
  -4   7  -5   13.80    2.30
  -4   7  -5   19.80    1.80
  -4   7  -5   19.10    2.30
   4  -7   5   15.00    2.20
   4  -7   5   18.80    2.40
   4  -7   5   14.90    3.10
   4  -7   5   17.80    2.70
   4  -7   5   13.50    2.70
   4  -7   5   19.30    2.80
  -5   7  -5  223.68    9.10
  -5   7  -5  214.98    7.00
  -5   7  -5  213.18    6.70
   5  -7   5  200.78    7.80
   5  -7   5  197.88    8.00
   5  -7   5  221.58    6.10
   5  -7   5  206.58    8.60
   5  -7   5  217.18    8.00
   5  -7   5  221.98    7.10
  -6   7  -5    1.20    2.30
  -6   7  -5   -3.10    3.50
  -6   7  -5    1.70    2.30
  -6   7  -5   -0.50    3.20
   6  -7   5    6.00    3.60
   6  -7   5    5.60    3.80
   6  -7   5    5.60    4.00
   6  -7   5    3.20    2.70
   6  -7   5    6.20    3.40
   6   6  -5   16.60    3.50
   6   6  -5   11.30    4.00
   6   6  -5    6.00    3.00
   6   6  -5    6.20    2.80
  -6  -6   5    3.40    3.60
  -6  -6   5    9.30    2.10
   5   6  -5  124.29    4.80
   5   6  -5  117.79    5.80
   5   6  -5  130.59    5.50
   5   6  -5  133.69    5.90
  -5  -6   5  124.29    5.00
  -5  -6   5  119.79    3.30
  -5  -6   5  126.69    6.60
  -5  -6   5  139.19    6.60
  -5  -6   5  122.69    3.30
   4   6  -5    3.90    1.70
   4   6  -5    2.90    2.30
   4   6  -5   -0.60    2.10
   4   6  -5    2.10    1.60
   4   6  -5    0.80    1.70
  -4  -6   5    2.20    1.60
  -4  -6   5    0.50    1.40
  -4  -6   5    1.80    1.90
  -4  -6   5    1.50    1.50
  -4  -6   5    0.00    2.20
   3   6  -5  201.98    5.90
   3   6  -5  204.68    6.60
   3   6  -5  203.88    5.60
   3   6  -5  214.88    5.80
   3   6  -5  213.68    6.00
  -3  -6   5  199.18    6.30
  -3  -6   5  218.18    5.80
  -3  -6   5  213.68    5.70
  -3  -6   5  216.38    5.80
  -3  -6   5  218.78    7.00
   2   6  -5  318.87    7.40
   2   6  -5  312.57    7.70
   2   6  -5  309.97    7.30
   2   6  -5  320.37    7.40
   2   6  -5  308.37    8.20
  -2  -6   5  310.77    6.70
  -2  -6   5  288.57    7.00
  -2  -6   5  300.57    8.40
  -2  -6   5  319.17    7.70
  -2  -6   5  327.27    8.40
  -2  -6   5  323.27    7.60
   1   6  -5  180.28    4.90
   1   6  -5  166.58    4.70
   1   6  -5  178.58    5.10
   1   6  -5  171.08    4.80
   1   6  -5  182.78    5.60
  -1  -6   5  172.28    4.50
  -1  -6   5  180.28    4.80
  -1  -6   5  172.18    5.80
  -1  -6   5  173.68    5.70
  -1  -6   5  176.18    5.20
  -1  -6   5  179.88    5.20
   0   6  -5 1616.04   30.40
   0   6  -5 1599.04   30.50
   0   6  -5 1603.34   31.10
   0   6  -5 1585.34   30.40
   0  -6   5 1619.44   31.20
   0  -6   5 1579.94   30.50
   0  -6   5 1637.74   30.90
   0  -6   5 1605.64   30.10
   0  -6   5 1628.14   31.30
   0  -6   5 1633.14   30.90
  -1   6  -5  127.49    4.30
  -1   6  -5  136.19    4.10
  -1   6  -5  134.39    4.00
  -1   6  -5  131.59    4.90
  -1   6  -5  131.69    4.10
   1  -6   5  129.29    3.80
   1  -6   5  126.09    4.50
   1  -6   5  133.49    4.70
   1  -6   5  129.19    4.30
   1  -6   5  126.39    4.70
   1  -6   5  124.49    4.50
  -2   6  -5    3.10    1.80
  -2   6  -5    5.10    1.30
  -2   6  -5    3.60    1.30
  -2   6  -5    3.90    1.30
  -2   6  -5    5.10    1.80
   2  -6   5    5.60    1.40
   2  -6   5    3.90    1.70
   2  -6   5    6.70    1.80
   2  -6   5    5.00    1.20
   2  -6   5    6.30    1.70
   2  -6   5    4.40    1.60
  -3   6  -5  202.28    6.40
  -3   6  -5  197.88    5.70
  -3   6  -5  195.88    6.80
  -3   6  -5  195.18    5.90
  -3   6  -5  196.68    5.10
   3  -6   5  202.08    6.80
   3  -6   5  202.48    5.70
   3  -6   5  198.18    5.70
   3  -6   5  200.08    6.50
   3  -6   5  207.48    6.40
   3  -6   5  194.58    6.30
  -4   6  -5   -5.20    1.90
  -4   6  -5    2.30    1.70
  -4   6  -5   -0.20    1.60
  -4   6  -5    1.10    0.90
  -4   6  -5    0.90    1.70
   4  -6   5   -0.70    1.80
   4  -6   5   -1.80    2.20
   4  -6   5    0.00    1.30
   4  -6   5   -2.20    2.20
   4  -6   5    0.90    1.90
  -5   6  -5   17.20    2.60
  -5   6  -5   21.60    3.30
  -5   6  -5   15.70    2.00
  -5   6  -5   18.50    2.50
   5  -6   5   19.50    3.00
   5  -6   5   19.30    2.90
   5  -6   5   18.10    3.10
   5  -6   5   23.60    2.60
   5  -6   5   18.00    4.00
  -6   6  -5  144.99    6.20
  -6   6  -5  134.59    7.40
   6  -6   5  133.09    7.00
   6  -6   5  131.39    7.30
   6  -6   5  139.89    7.90
   6  -6   5  151.88    6.60
   6  -6   5  136.39    7.00
  -7   6  -5    5.40    2.90
  -7   6  -5    5.90    3.70
  -7   6  -5    2.50    3.30
   7  -6   5   12.10    4.30
   7  -6   5    2.60    3.90
   7  -6   5    3.50    3.60
   7  -6   5    2.70    5.00
   7  -6   5    2.20    4.20
   6   5  -5   12.40    3.20
   6   5  -5    8.00    2.70
   6   5  -5   13.10    3.40
   6   5  -5    8.00    2.40
  -6  -5   5    1.00    3.10
  -6  -5   5   12.00    4.20
  -6  -5   5    7.40    2.10
   5   5  -5   91.99    4.60
   5   5  -5   87.49    4.10
   5   5  -5   96.39    5.10
   5   5  -5  104.49    4.10
  -5  -5   5  106.89    6.10
  -5  -5   5   94.59    3.60
  -5  -5   5  106.79    5.30
   4   5  -5   66.29    3.80
   4   5  -5   66.69    2.90
   4   5  -5   66.69    3.30
   4   5  -5   68.99    3.20
   4   5  -5   64.49    3.10
  -4  -5   5   69.59    4.70
  -4  -5   5   65.99    2.50
  -4  -5   5   64.89    3.10
  -4  -5   5   65.09    3.50
  -4  -5   5   69.99    2.50
   3   5  -5   25.90    2.00
   3   5  -5   24.70    2.00
   3   5  -5   27.80    2.60
   3   5  -5   25.30    2.70
   3   5  -5   29.80    2.30
  -3  -5   5   27.10    2.10
  -3  -5   5   22.20    2.40
  -3  -5   5   27.50    2.10
  -3  -5   5   21.70    2.00
   2   5  -5   64.09    2.50
   2   5  -5   65.09    2.60
   2   5  -5   67.39    2.90
   2   5  -5   65.79    2.50
   2   5  -5   58.79    2.90
  -2  -5   5   62.29    2.10
  -2  -5   5   64.39    3.40
  -2  -5   5   63.59    2.80
  -2  -5   5   64.89    2.40
  -2  -5   5   63.69    2.70
  -2  -5   5   60.19    3.30
   1   5  -5  515.45   11.20
   1   5  -5  509.95   10.50
   1   5  -5  504.45   10.60
   1   5  -5  513.85   10.90
   1   5  -5  513.85   10.50
  -1  -5   5  512.55   10.50
  -1  -5   5  507.05   11.50
  -1  -5   5  512.75   10.30
  -1  -5   5  513.45   10.90
  -1  -5   5  517.85   10.80
  -1  -5   5  515.15   11.40
   0   5  -5 1331.57   25.10
   0   5  -5 1319.27   25.10
   0   5  -5 1317.17   25.00
   0   5  -5 1350.46   25.80
   0   5  -5 1305.27   25.20
   0  -5   5 1315.87   25.70
   0  -5   5 1316.67   25.20
   0  -5   5 1323.37   25.40
   0  -5   5 1319.57   24.80
   0  -5   5 1351.26   25.70
   0  -5   5 1333.67   25.50
  -1   5  -5   23.30    2.30
  -1   5  -5   24.30    1.90
  -1   5  -5   18.70    1.90
  -1   5  -5   21.50    1.80
  -1   5  -5   22.70    1.80
   1  -5   5   24.00    2.20
   1  -5   5   19.90    2.10
   1  -5   5   21.00    2.20
   1  -5   5   21.60    1.80
   1  -5   5   23.00    1.60
   1  -5   5   17.30    1.70
  -2   5  -5    3.60    1.10
  -2   5  -5    2.90    1.20
  -2   5  -5    2.10    0.80
  -2   5  -5    2.60    1.50
  -2   5  -5    1.80    1.10
   2  -5   5    3.80    1.40
   2  -5   5    1.90    1.10
   2  -5   5    1.00    1.40
   2  -5   5    2.20    1.40
   2  -5   5    1.00    0.90
   2  -5   5    1.10    1.20
  -3   5  -5  405.66    9.70
  -3   5  -5  414.06    9.80
  -3   5  -5  413.86   10.50
  -3   5  -5  411.96    8.60
  -3   5  -5  413.36    9.40
   3  -5   5  399.36    9.20
   3  -5   5  398.46    9.40
   3  -5   5  405.76    9.80
   3  -5   5  407.66   10.40
   3  -5   5  414.26   10.00
   3  -5   5  412.66   10.10
  -4   5  -5 1679.13   33.30
  -4   5  -5 1749.82   33.50
  -4   5  -5 1789.32   33.00
  -4   5  -5 1733.83   34.30
  -4   5  -5 1642.84   31.60
   4  -5   5 1702.63   33.80
   4  -5   5 1734.93   34.00
   4  -5   5 1737.63   34.40
   4  -5   5 1711.63   33.20
   4  -5   5 1766.82   33.80
  -5   5  -5   35.20    2.90
  -5   5  -5   32.40    3.50
  -5   5  -5   39.30    4.30
  -5   5  -5   38.90    3.80
  -5   5  -5   34.20    1.40
   5  -5   5   40.30    3.80
   5  -5   5   36.30    3.60
   5  -5   5   34.90    3.50
   5  -5   5   37.60    3.90
  -6   5  -5  245.58    8.90
  -6   5  -5  237.58    7.40
  -6   5  -5  238.28    8.10
  -6   5  -5  238.68    7.00
   6  -5   5  228.88    9.50
   6  -5   5  228.78    9.10
   6  -5   5  243.28    8.30
   6  -5   5  237.78    9.10
   6  -5   5  242.18    8.80
  -7   5  -5   21.10    2.80
  -7   5  -5   16.40    3.70
  -7   5  -5   19.80    3.80
   7  -5   5   14.80    4.40
   7  -5   5   18.80    4.50
   7  -5   5   19.80    4.10
   7  -5   5   16.00    4.00
   7  -5   5   28.70    4.30
   6   4  -5   62.89    3.80
   6   4  -5   63.09    3.10
   6   4  -5   64.99    4.80
   6   4  -5   69.59    4.80
  -6  -4   5   66.09    3.20
  -6  -4   5   63.29    4.70
  -6  -4   5   67.99    5.20
   5   4  -5  141.29    5.40
   5   4  -5  146.69    4.60
   5   4  -5  143.99    4.30
   5   4  -5  139.19    4.90
   5   4  -5  147.99    4.90
  -5  -4   5  149.69    5.40
  -5  -4   5  143.39    6.10
  -5  -4   5  146.99    4.10
   4   4  -5  460.55    9.50
   4   4  -5  466.05   10.10
   4   4  -5  442.76   10.70
   4   4  -5  462.75    9.80
   4   4  -5  453.25   10.30
  -4  -4   5  435.06   10.10
  -4  -4   5  461.45   10.90
  -4  -4   5  465.25   10.20
   3   4  -5  705.83   14.30
   3   4  -5  701.93   14.40
   3   4  -5  709.33   13.70
   3   4  -5  697.23   13.60
   3   4  -5  698.43   13.80
  -3  -4   5  703.83   15.00
  -3  -4   5  692.33   13.20
  -3  -4   5  701.83   13.80
  -3  -4   5  692.93   13.30
   2   4  -5  121.69    3.80
   2   4  -5  119.89    3.30
   2   4  -5  119.39    3.60
   2   4  -5  119.99    3.20
   2   4  -5  119.89    3.30
  -2  -4   5  122.19    3.00
  -2  -4   5  115.09    2.80
  -2  -4   5  108.79    4.10
  -2  -4   5  118.99    3.40
  -2  -4   5  115.29    3.30
   1   4  -5   25.30    1.90
   1   4  -5   25.90    1.50
   1   4  -5   28.60    1.60
   1   4  -5   26.60    1.80
  -1  -4   5   28.80    1.40
  -1  -4   5   24.60    2.10
  -1  -4   5   29.00    1.70
  -1  -4   5   25.30    2.20
  -1  -4   5   26.00    1.60
  -1  -4   5   27.30    1.90
   0   4  -5 1249.88   23.50
   0   4  -5 1264.77   23.40
   0   4  -5 1240.38   23.90
   0   4  -5 1238.18   23.40
   0   4  -5 1250.77   23.70
   0  -4   5 1245.08   23.70
   0  -4   5 1250.37   24.00
   0  -4   5 1241.28   23.10
   0  -4   5 1241.98   23.70
   0  -4   5 1228.48   23.50
   0  -4   5 1230.98   23.80
  -1   4  -5 3252.67   58.29
  -1   4  -5 3240.38   58.19
  -1   4  -5 3195.38   58.79
  -1   4  -5 3103.29   58.19
  -1   4  -5 3223.08   58.09
   1  -4   5 3177.08   58.59
   1  -4   5 3158.28   57.79
   1  -4   5 3290.77   58.59
   1  -4   5 3130.39   58.39
   1  -4   5 3146.99   58.39
   1  -4   5 3191.38   58.29
  -2   4  -5   69.59    3.10
  -2   4  -5   69.49    3.40
  -2   4  -5   65.99    3.10
  -2   4  -5   69.99    3.00
  -2   4  -5   72.49    2.50
   2  -4   5   71.79    3.20
   2  -4   5   67.09    3.40
   2  -4   5   64.99    2.80
   2  -4   5   70.99    2.80
   2  -4   5   72.09    3.30
   2  -4   5   73.59    3.10
  -3   4  -5  597.84   11.80
  -3   4  -5  589.64   13.00
  -3   4  -5  597.34   12.80
  -3   4  -5  576.74   12.80
  -3   4  -5  581.74   13.50
   3  -4   5  583.54   12.70
   3  -4   5  601.54   13.50
   3  -4   5  599.94   13.20
   3  -4   5  603.24   13.00
   3  -4   5  590.04   12.20
   3  -4   5  599.74   13.30
  -4   4  -5  327.17    6.70
  -4   4  -5  318.37    8.60
  -4   4  -5  315.57    8.10
  -4   4  -5  325.47    9.20
  -4   4  -5  326.17    8.30
   4  -4   5  331.47    9.00
   4  -4   5  333.17    9.00
   4  -4   5  325.87    8.50
   4  -4   5  332.97    9.30
   4  -4   5  326.07    8.60
  -5   4  -5   22.50    2.60
  -5   4  -5   19.00    2.20
  -5   4  -5   19.00    0.90
  -5   4  -5   20.30    2.70
   5  -4   5   23.00    2.80
   5  -4   5   21.80    3.20
   5  -4   5   18.00    2.80
   5  -4   5   24.70    3.00
  -6   4  -5   51.89    5.00
  -6   4  -5   35.10    3.90
  -6   4  -5   38.40    4.20
  -6   4  -5   38.30    3.90
   6  -4   5   38.80    4.30
   6  -4   5   49.30    5.40
   6  -4   5   44.50    4.40
   6  -4   5   45.30    4.90
   6  -4   5   45.30    5.00
  -7   4  -5    7.10    2.50
  -7   4  -5    7.10    3.70
  -7   4  -5    3.90    3.30
   7  -4   5    8.10    3.90
   7  -4   5    3.40    3.20
   7  -4   5   -5.70    3.60
   7  -4   5    7.20    3.50
   7   3  -5    2.10    2.10
   7   3  -5    2.20    2.50
   7   3  -5   -2.70    2.60
   7   3  -5    1.20    2.50
  -7  -3   5    0.80    1.40
  -7  -3   5    1.20    2.70
   6   3  -5   70.19    3.30
   6   3  -5   70.09    4.00
   6   3  -5   71.49    3.30
   6   3  -5   68.69    4.00
   6   3  -5   65.89    4.10
  -6  -3   5   69.89    2.90
  -6  -3   5   70.99    4.00
  -6  -3   5   67.29    4.60
   5   3  -5   39.90    2.20
   5   3  -5   41.30    2.30
   5   3  -5   42.70    2.90
   5   3  -5   37.50    2.50
   5   3  -5   39.20    2.70
  -5  -3   5   36.50    3.70
  -5  -3   5   35.90    2.80
  -5  -3   5   37.20    2.00
   4   3  -5   24.80    1.90
   4   3  -5   26.00    1.60
   4   3  -5   23.50    1.90
   4   3  -5   25.70    1.70
   4   3  -5   24.00    1.80
  -4  -3   5   25.80    2.00
  -4  -3   5   22.50    2.50
  -4  -3   5   23.80    1.50
   3   3  -5   58.39    1.90
   3   3  -5   56.39    2.30
   3   3  -5   58.09    2.50
   3   3  -5   58.49    2.00
   3   3  -5   57.59    2.10
  -3  -3   5   60.39    2.40
  -3  -3   5   56.89    3.00
  -3  -3   5   59.29    2.00
   2   3  -5   25.10    1.30
   2   3  -5   25.80    1.20
   2   3  -5   29.50    1.90
   2   3  -5   26.90    1.60
   2   3  -5   27.70    1.30
   2   3  -5   28.00    1.40
  -2  -3   5   26.70    1.50
  -2  -3   5   29.50    1.20
  -2  -3   5   26.10    1.20
  -2  -3   5   27.20    1.80
  -2  -3   5   29.70    1.00
  -2  -3   5   28.90    2.20
   1   3  -5  497.45    9.80
   1   3  -5  486.65    9.60
   1   3  -5  493.95    9.70
   1   3  -5  499.55   10.30
   1   3  -5  489.05    9.60
   1   3  -5  489.95   10.00
  -1  -3   5  479.05    9.40
  -1  -3   5  486.25    9.80
  -1  -3   5  493.55   10.00
  -1  -3   5  501.75   10.60
  -1  -3   5  481.05    9.70
   0   3  -5 1458.15   27.40
   0   3  -5 1442.96   27.00
   0   3  -5 1455.15   27.10
   0   3  -5 1447.66   27.00
   0   3  -5 1441.86   27.30
   0   3  -5 1406.06   26.80
   0  -3   5 1447.16   27.50
   0  -3   5 1496.05   27.20
   0  -3   5 1437.96   27.10
   0  -3   5 1451.95   27.20
   0  -3   5 1463.85   26.60
   0  -3   5 1474.55   27.30
  -1   3  -5 2480.35   45.90
  -1   3  -5 2455.15   45.40
  -1   3  -5 2434.16   45.30
  -1   3  -5 2467.65   45.60
  -1   3  -5 2528.45   45.50
  -1   3  -5 2448.35   45.40
   1  -3   5 2430.16   45.50
   1  -3   5 2432.76   45.50
   1  -3   5 2535.45   45.70
   1  -3   5 2452.05   45.60
   1  -3   5 2475.15   45.80
   1  -3   5 2564.44   45.20
  -2   3  -5  418.76    9.60
  -2   3  -5  413.46    8.80
  -2   3  -5  423.86    9.80
  -2   3  -5  422.96    9.40
  -2   3  -5  417.06    9.30
   2  -3   5  425.56    9.70
   2  -3   5  417.06    9.70
   2  -3   5  418.16    9.50
   2  -3   5  418.36    9.40
   2  -3   5  419.66    9.20
  -3   3  -5  133.29    4.50
  -3   3  -5  128.49    4.60
  -3   3  -5  129.29    3.50
  -3   3  -5  126.99    4.90
  -3   3  -5  126.49    4.30
   3  -3   5  125.89    4.70
   3  -3   5  131.39    4.40
   3  -3   5  125.59    4.60
   3  -3   5  127.59    4.40
   3  -3   5  135.09    5.00
  -4   3  -5  709.83   13.70
  -4   3  -5  712.33   15.80
  -4   3  -5  731.53   15.30
  -4   3  -5  712.93   16.10
  -4   3  -5  717.53   15.20
   4  -3   5  704.53   15.30
   4  -3   5  720.43   15.80
   4  -3   5  730.83   16.20
   4  -3   5  724.33   15.50
   4  -3   5  699.83   15.90
  -5   3  -5  139.99    5.00
  -5   3  -5  143.19    6.00
  -5   3  -5  143.69    6.00
  -5   3  -5  141.99    2.90
  -5   3  -5  135.29    5.20
   5  -3   5  144.29    5.90
   5  -3   5  138.69    6.00
   5  -3   5  141.49    6.80
   5  -3   5  138.89    5.40
   5  -3   5  150.28    6.20
  -6   3  -5    9.90    2.90
  -6   3  -5    5.00    1.80
  -6   3  -5    5.60    2.40
  -6   3  -5    8.40    3.30
   6  -3   5    7.70    3.80
   6  -3   5    9.10    3.30
   6  -3   5    9.80    3.00
  -7   3  -5   -4.50    2.90
  -7   3  -5   -2.90    2.50
  -7   3  -5    4.60    3.10
   7  -3   5   -4.10    3.40
   7  -3   5   -1.60    4.50
   7  -3   5   -3.60    4.40
   7  -3   5    6.80    3.70
   7  -3   5    0.90    3.50
   7   2  -5   77.09    4.80
   7   2  -5   75.69    4.00
   7   2  -5   72.69    4.50
   7   2  -5   79.49    4.50
  -7  -2   5   75.29    2.60
  -7  -2   5   76.29    3.30
   6   2  -5   -0.10    1.40
   6   2  -5   -0.70    1.10
   6   2  -5    2.90    1.80
   6   2  -5    1.30    1.70
   6   2  -5    0.20    1.20
  -6  -2   5   -0.50    1.40
  -6  -2   5    0.70    0.90
   5   2  -5   10.70    1.40
   5   2  -5   11.40    1.40
   5   2  -5    9.00    1.10
   5   2  -5    8.00    1.30
   5   2  -5   10.70    1.50
  -5  -2   5    8.80    1.40
  -5  -2   5    7.40    1.80
  -5  -2   5    9.70    1.00
   4   2  -5  160.28    3.90
   4   2  -5  154.18    4.30
   4   2  -5  149.99    3.60
   4   2  -5  153.98    3.60
   4   2  -5  157.48    3.40
   4   2  -5  159.68    4.00
  -4  -2   5  156.68    3.90
  -4  -2   5  154.58    3.50
  -4  -2   5  151.18    5.00
   3   2  -5 1156.08   21.70
   3   2  -5 1118.39   20.60
   3   2  -5 1128.39   20.70
   3   2  -5 1107.09   20.70
   3   2  -5 1096.09   20.50
   3   2  -5 1141.69   20.90
  -3  -2   5 1143.99   22.10
  -3  -2   5 1127.29   20.70
  -3  -2   5 1136.29   20.80
   2   2  -5  516.25   10.20
   2   2  -5  527.65   10.10
   2   2  -5  536.25    9.90
   2   2  -5  530.15   10.20
   2   2  -5  504.95    9.80
   2   2  -5  540.05   11.00
  -2  -2   5  518.85   10.10
  -2  -2   5  525.45   10.10
  -2  -2   5  519.35   10.30
  -2  -2   5  543.55   11.30
   1   2  -5  138.29    4.00
   1   2  -5  138.89    3.40
   1   2  -5  140.39    3.50
   1   2  -5  139.39    3.50
   1   2  -5  141.79    3.10
   1   2  -5  139.39    3.30
  -1  -2   5  134.99    3.40
  -1  -2   5  137.59    3.50
  -1  -2   5  126.59    2.80
  -1  -2   5  142.09    3.40
  -1  -2   5  139.79    4.10
   0   2  -5  583.04   11.30
   0   2  -5  571.04   11.40
   0   2  -5  559.04   11.50
   0   2  -5  563.74   11.30
   0   2  -5  548.05   11.10
   0   2  -5  571.74   11.30
   0  -2   5  556.34   10.80
   0  -2   5  565.64   11.20
   0  -2   5  557.94   11.60
   0  -2   5  566.64   11.30
   0  -2   5  555.04   11.40
   0  -2   5  560.64   11.10
  -1   2  -5 5043.70   98.09
   1  -2   5 4926.21   97.99
  -2   2  -5   17.40    1.70
  -2   2  -5   11.90    1.50
  -2   2  -5   14.60    1.70
  -2   2  -5   12.50    1.50
  -2   2  -5   14.40    1.40
  -2   2  -5   10.70    1.60
   2  -2   5   11.90    1.70
   2  -2   5   13.00    1.50
   2  -2   5   13.70    1.70
   2  -2   5   14.00    1.50
   2  -2   5   11.80    1.60
  -3   2  -5    7.10    1.10
  -3   2  -5    5.50    1.70
  -3   2  -5    8.30    1.70
  -3   2  -5    6.30    1.40
  -3   2  -5    5.80    1.50
   3  -2   5    8.70    1.60
   3  -2   5   10.40    1.80
   3  -2   5    8.70    1.50
   3  -2   5    5.50    1.40
   3  -2   5    3.70    1.60
  -4   2  -5   68.89    3.40
  -4   2  -5   69.89    2.60
  -4   2  -5   69.69    4.00
  -4   2  -5   73.69    4.00
  -4   2  -5   64.29    4.00
   4  -2   5   63.59    4.10
   4  -2   5   69.39    3.80
   4  -2   5   73.59    4.30
   4  -2   5   75.09    3.60
  -5   2  -5  241.88    6.70
  -5   2  -5  239.08    7.80
  -5   2  -5  236.48    8.00
  -5   2  -5  234.68    7.10
  -5   2  -5  233.28    5.00
   5  -2   5  236.38    8.20
   5  -2   5  244.08    7.30
   5  -2   5  239.38    7.70
   5  -2   5  242.38    8.50
   5  -2   5  239.18    7.70
  -6   2  -5    0.90    2.90
  -6   2  -5    0.90    1.90
  -6   2  -5    1.00    2.00
  -6   2  -5   -3.00    2.90
   6  -2   5    0.50    3.20
   6  -2   5   -0.10    2.80
   6  -2   5    1.10    2.90
   6  -2   5   -2.80    2.60
   6  -2   5   -1.20    3.00
  -7   2  -5    8.60    3.20
  -7   2  -5    6.10    3.00
  -7   2  -5   10.30    3.60
   7  -2   5    6.30    4.40
   7  -2   5    0.30    3.80
   7  -2   5   -1.30    2.60
   7  -2   5    6.70    3.90
   7  -2   5   12.20    4.30
   7   1  -5    9.40    2.30
   7   1  -5   10.60    1.10
   7   1  -5    8.70    1.00
   7   1  -5   13.20    2.10
   7   1  -5    8.40    2.30
   7   1  -5   12.30    2.10
   6   1  -5  100.39    3.00
   6   1  -5   95.19    3.70
   6   1  -5  101.19    3.50
   6   1  -5  101.39    3.40
   6   1  -5   98.09    3.70
   6   1  -5   97.39    2.90
   6   1  -5  103.69    3.20
  -6  -1   5   94.39    2.10
   5   1  -5   12.20    1.20
   5   1  -5   12.80    1.40
   5   1  -5   12.60    1.30
   5   1  -5   14.70    1.30
   5   1  -5   11.90    1.10
   5   1  -5   13.80    1.50
  -5  -1   5   13.20    0.60
  -5  -1   5   13.80    0.70
   4   1  -5   12.60    1.10
   4   1  -5    8.10    1.30
   4   1  -5    9.80    1.00
   4   1  -5    9.90    0.90
   4   1  -5   11.10    1.00
   4   1  -5   10.50    1.10
   3   1  -5 1440.56   26.90
   3   1  -5 1469.85   26.40
   3   1  -5 1488.95   27.60
   2   1  -5  549.95   10.60
   2   1  -5  536.65    9.90
   2   1  -5  540.75   10.10
   2   1  -5  545.95    9.90
   2   1  -5  510.45    9.80
   2   1  -5  562.94   11.30
  -2  -1   5  530.55   10.00
  -2  -1   5  551.94   10.70
  -2  -1   5  527.95   10.00
   1   1  -5  274.77    5.90
   1   1  -5  272.07    5.70
   1   1  -5  278.27    5.70
   1   1  -5  264.57    5.40
   1   1  -5  275.17    6.40
   1   1  -5  271.27    5.60
  -1  -1   5  273.07    5.60
  -1  -1   5  243.18    4.90
  -1  -1   5  272.57    5.70
  -1  -1   5  280.27    5.90
   0   1  -5  695.23   13.50
   0   1  -5  680.73   13.60
   0   1  -5  688.93   13.40
   0   1  -5  699.33   13.90
   0   1  -5  698.33   13.60
   0   1  -5  688.63   13.60
   0  -1   5  688.43   13.10
   0  -1   5  698.43   13.60
   0  -1   5  696.83   13.50
   0  -1   5  690.43   13.20
   0  -1   5  696.13   13.60
  -1   1  -5  176.28    4.60
  -1   1  -5  178.78    4.90
  -1   1  -5  181.28    4.80
  -1   1  -5  180.98    4.90
  -1   1  -5  182.98    4.70
   1  -1   5  179.08    4.60
   1  -1   5  180.58    4.90
   1  -1   5  183.08    4.60
   1  -1   5  181.38    4.60
   1  -1   5  171.68    4.80
  -2   1  -5   42.70    2.80
  -2   1  -5   47.20    2.40
  -2   1  -5   45.10    2.70
  -2   1  -5   44.20    2.60
  -2   1  -5   45.30    2.30
   2  -1   5   46.20    2.80
   2  -1   5   47.20    2.40
   2  -1   5   46.50    2.50
   2  -1   5   45.90    2.50
   2  -1   5   49.20    2.50
  -3   1  -5  722.73   15.00
  -3   1  -5  691.03   15.00
  -3   1  -5  699.23   15.30
  -3   1  -5  684.93   14.40
  -3   1  -5  672.33   14.30
   3  -1   5  699.23   15.10
   3  -1   5  693.83   14.40
   3  -1   5  706.43   14.80
   3  -1   5  698.73   14.70
   3  -1   5  711.53   15.30
  -4   1  -5   10.80    1.70
  -4   1  -5    9.80    2.20
  -4   1  -5   10.90    2.00
  -4   1  -5   10.10    2.00
   4  -1   5    6.90    2.10
   4  -1   5   11.60    1.90
   4  -1   5   10.50    2.00
   4  -1   5    8.40    2.20
   4  -1   5   10.30    1.90
  -5   1  -5  112.69    5.50
  -5   1  -5  110.09    3.50
  -5   1  -5  117.09    5.90
  -5   1  -5  114.39    4.70
  -5   1  -5  113.29    3.10
   5  -1   5  122.49    6.10
   5  -1   5  117.99    5.70
   5  -1   5  112.09    5.90
   5  -1   5  116.09    5.00
  -6   1  -5  134.09    3.20
  -6   1  -5  184.08    8.60
  -6   1  -5  158.28    6.70
   6  -1   5  157.58    5.80
   6  -1   5  158.68    7.30
   6  -1   5  161.08    6.90
   6  -1   5  164.18    7.50
   6  -1   5  146.89    7.90
  -7   1  -5    4.00    3.60
  -7   1  -5    2.00    2.90
  -7   1  -5    0.80    3.30
   7  -1   5    4.40    4.90
   7  -1   5   -2.50    4.10
   7  -1   5    0.20    2.60
   7  -1   5   -0.60    3.50
   7  -1   5   -0.60    3.40
   7   0  -5   11.10    1.40
   7   0  -5    7.00    1.90
   7   0  -5   10.90    2.10
   7   0  -5   12.80    1.50
   7   0  -5    9.20    1.90
   7   0  -5   11.70    2.00
   6   0  -5 1206.88   22.30
   6   0  -5 1226.58   22.90
   6   0  -5 1179.08   22.80
   6   0  -5 1168.98   22.70
   6   0  -5 1211.28   22.10
   5   0  -5   14.50    1.30
   5   0  -5   16.50    1.80
   5   0  -5   16.20    1.70
   5   0  -5   15.70    0.90
   5   0  -5   15.70    0.80
   4   0  -5 1110.99   20.90
   4   0  -5 1043.90   19.40
   4   0  -5 1077.89   19.50
   4   0  -5 1108.69   20.60
   3   0  -5  616.54   12.20
   3   0  -5  623.64   12.70
   2   0  -5  796.42   15.10
   2   0  -5  759.62   14.30
   2   0  -5  813.72   15.70
   2   0  -5  770.22   14.20
   1   0  -5  441.46    8.50
   1   0  -5  437.16    9.00
   1   0  -5  455.05    8.80
   1   0  -5  456.35    8.70
   1   0  -5  436.56    8.60
  -1   0   5  457.25    8.80
  -1   0   5  403.46    7.90
  -1   0   5  448.46    9.10
  -1   0   5  445.26    8.70
   0   0  -5  435.16    9.00
   0   0  -5  434.26    8.80
   0   0  -5  438.66    8.80
   0   0  -5  444.86    9.10
   0   0  -5  426.96    8.90
   0   0   5  414.86    8.80
   0   0   5  425.16    9.00
   0   0   5  427.76    8.70
   0   0   5  429.76    8.40
   0   0   5  430.26    8.90
  -1   0  -5   23.50    1.80
  -1   0  -5   22.40    1.80
  -1   0  -5   23.20    2.10
  -1   0  -5   25.90    1.80
   1   0   5   25.10    1.70
   1   0   5   26.10    2.00
   1   0   5   24.80    1.70
   1   0   5   25.90    1.80
   1   0   5   21.90    2.00
  -2   0  -5  702.73   14.40
  -2   0  -5  725.63   14.90
  -2   0  -5  719.53   14.90
  -2   0  -5  698.23   14.50
  -2   0  -5  713.13   15.10
   2   0   5  713.83   14.70
   2   0   5  716.73   14.50
   2   0   5  731.83   15.00
   2   0   5  703.33   14.30
   2   0   5  718.63   15.20
  -3   0  -5  268.27    6.80
  -3   0  -5  252.97    7.50
  -3   0  -5  263.37    7.20
  -3   0  -5  269.67    7.30
  -3   0  -5  265.07    6.60
   3   0   5  265.37    7.30
   3   0   5  264.07    6.60
   3   0   5  267.27    7.00
   3   0   5  265.67    7.60
   3   0   5  270.27    7.30
  -4   0  -5   -0.50    1.20
  -4   0  -5   -1.20    1.60
  -4   0  -5   -0.20    1.30
  -4   0  -5   -1.00    1.60
  -4   0  -5    0.30    2.00
   4   0   5   -1.00    1.80
   4   0   5   -0.10    1.20
   4   0   5    1.00    1.50
   4   0   5   -2.60    1.90
   4   0   5    5.10    1.80
  -5   0  -5  358.36    9.80
  -5   0  -5  358.96    9.80
  -5   0  -5  361.96    7.70
  -5   0  -5  367.86    9.10
  -5   0  -5  357.76   10.80
   5   0   5  361.76   10.20
   5   0   5  360.26   10.80
   5   0   5  359.66    8.80
   5   0   5  355.16   10.20
   5   0   5  355.96    9.70
  -6   0  -5    2.40    1.60
  -6   0  -5    2.90    4.30
  -6   0  -5    5.30    2.70
  -6   0  -5    4.40    1.30
  -6   0  -5   -1.60    3.40
  -6   0  -5    2.90    2.60
   6   0   5    7.00    2.70
   6   0   5    3.60    3.80
   6   0   5    3.90    2.30
   6   0   5   -0.80    3.80
   6   0   5    2.20    3.10
  -7   0  -5   -3.10    2.60
  -7   0  -5   -1.30    3.90
   7   0   5    0.80    5.00
   7   0   5    9.30    5.10
   7   0   5    1.30    3.00
   7   0   5   -3.20    3.20
   7   0   5   -1.00    3.80
   7  -1  -5   31.30    2.90
   7  -1  -5   32.10    2.80
   7  -1  -5   31.00    2.70
   6  -1  -5  134.59    4.90
   6  -1  -5  133.59    4.00
   6  -1  -5  138.49    3.60
   6  -1  -5  134.59    4.10
   5  -1  -5  324.57    7.20
   5  -1  -5  321.97    7.80
   5  -1  -5  310.27    6.50
   5  -1  -5  311.37    6.40
   4  -1  -5    2.80    1.10
   4  -1  -5    4.60    0.30
   4  -1  -5    3.70    0.40
   4  -1  -5    4.40    1.20
   3  -1  -5 1272.07   24.20
   2  -1  -5 2415.06   44.20
   1  -1  -5  413.46    8.70
   1  -1  -5  407.16    8.00
   1  -1  -5  422.26    8.40
   1  -1  -5  402.06    8.10
   1  -1  -5  418.36    8.20
  -1   1   5  388.76    7.70
  -1   1   5  401.96    7.80
  -1   1   5  416.36    8.90
  -1   1   5  418.86    8.40
  -1   1   5  417.46    8.30
   0  -1  -5  740.23   14.40
   0  -1  -5  720.03   14.10
   0  -1  -5  760.32   14.60
   0  -1  -5  732.93   14.30
   0  -1  -5  720.83   14.20
   0   1   5  718.93   14.50
   0   1   5  704.33   13.70
   0   1   5  709.23   14.30
   0   1   5  741.23   14.40
   0   1   5  747.13   14.20
  -1  -1  -5 1562.44   29.30
  -1  -1  -5 1555.14   29.20
  -1  -1  -5 1535.25   29.10
  -1  -1  -5 1562.14   29.30
  -1  -1  -5 1557.24   29.70
   1   1   5 1543.45   29.00
   1   1   5 1525.35   28.80
   1   1   5 1562.54   29.30
   1   1   5 1561.04   29.70
   1   1   5 1567.24   29.40
  -2  -1  -5  220.98    5.80
  -2  -1  -5  218.58    6.50
  -2  -1  -5  224.68    6.20
  -2  -1  -5  222.28    6.10
  -2  -1  -5  220.28    5.70
   2   1   5  227.48    6.20
   2   1   5  232.08    5.80
   2   1   5  226.98    6.10
   2   1   5  213.38    6.40
   2   1   5  226.28    5.60
  -3  -1  -5   34.10    2.40
  -3  -1  -5   32.90    2.50
  -3  -1  -5   35.10    2.80
  -3  -1  -5   30.20    3.30
  -3  -1  -5   31.30    3.00
   3   1   5   36.20    2.70
   3   1   5   31.10    2.20
   3   1   5   27.60    2.80
   3   1   5   31.10    3.20
   3   1   5   35.10    3.00
  -4  -1  -5   17.00    2.10
  -4  -1  -5   14.30    2.50
  -4  -1  -5   18.90    2.40
  -4  -1  -5   16.30    2.00
  -4  -1  -5   15.20    2.80
   4   1   5   13.20    2.40
   4   1   5   16.30    2.70
   4   1   5   16.40    2.80
   4   1   5   15.40    2.00
  -5  -1  -5    4.70    2.30
  -5  -1  -5    4.50    1.80
  -5  -1  -5    3.60    1.30
  -5  -1  -5   -0.90    2.80
  -5  -1  -5    2.40    2.70
   5   1   5    5.30    2.20
   5   1   5    4.70    2.70
   5   1   5    3.30    1.50
   5   1   5    1.70    3.00
   5   1   5    1.90    2.60
  -6  -1  -5   30.80    4.40
  -6  -1  -5   31.40    2.80
  -6  -1  -5   25.40    5.40
  -6  -1  -5   19.70    3.90
  -6  -1  -5   29.20    2.90
   6   1   5   26.50    4.70
   6   1   5   36.10    3.70
   6   1   5   26.20    4.20
   6   1   5   30.90    4.20
   6   1   5   29.50    3.50
   7  -2  -5   -0.80    2.60
   7  -2  -5    2.40    2.10
   7  -2  -5    1.40    1.90
   6  -2  -5  194.08    5.20
   6  -2  -5  198.98    5.10
   6  -2  -5  197.68    4.80
   5  -2  -5  786.62   15.10
   5  -2  -5  840.62   14.30
   5  -2  -5  771.52   14.30
   5  -2  -5  819.42   16.00
   5  -2  -5  762.82   15.00
   4  -2  -5  192.68    4.10
   4  -2  -5  195.78    3.90
   4  -2  -5  201.38    4.00
   4  -2  -5  189.98    4.00
   3  -2  -5  805.62   15.90
   3  -2  -5  785.32   14.30
   3  -2  -5  747.43   14.20
   3  -2  -5  757.12   14.10
   3  -2  -5  772.62   14.20
  -3   2   5  766.42   14.20
  -3   2   5  756.62   14.10
   2  -2  -5 1950.90   35.50
   2  -2  -5 1952.60   35.70
   2  -2  -5 1963.20   36.50
  -2   2   5 1955.10   35.80
  -2   2   5 1972.20   35.70
   1  -2  -5   56.69    1.80
   1  -2  -5   55.89    2.50
   1  -2  -5   49.40    2.10
   1  -2  -5   54.99    2.00
   1  -2  -5   54.19    2.20
  -1   2   5   53.49    2.20
  -1   2   5   54.89    1.90
  -1   2   5   54.49    1.70
   0  -2  -5  613.84   12.70
   0  -2  -5  594.74   12.20
   0  -2  -5  613.14   12.50
   0  -2  -5  614.24   12.30
   0  -2  -5  624.14   12.30
   0   2   5  617.04   12.70
   0   2   5  605.74   11.70
   0   2   5  603.84   12.50
   0   2   5  617.04   12.30
   0   2   5  612.94   12.60
  -1  -2  -5  239.78    6.00
  -1  -2  -5  230.28    5.80
  -1  -2  -5  229.18    5.90
  -1  -2  -5  232.28    5.90
  -1  -2  -5  233.68    6.40
   1   2   5  235.28    6.00
   1   2   5  226.18    6.30
   1   2   5  229.08    5.80
   1   2   5  236.68    5.40
   1   2   5  232.08    6.10
  -2  -2  -5   43.10    2.70
  -2  -2  -5   45.30    3.00
  -2  -2  -5   42.40    2.50
  -2  -2  -5   45.50    3.30
  -2  -2  -5   47.70    2.80
   2   2   5   48.80    2.40
   2   2   5   40.40    2.80
   2   2   5   45.00    3.00
   2   2   5   44.90    2.40
   2   2   5   47.60    3.20
  -3  -2  -5  100.19    3.90
  -3  -2  -5   89.09    5.00
  -3  -2  -5   99.09    3.80
  -3  -2  -5  103.19    4.20
   3   2   5   96.79    4.40
   3   2   5   98.39    3.90
   3   2   5   95.69    3.50
   3   2   5   96.39    4.90
   3   2   5  107.29    4.60
  -4  -2  -5   10.80    2.30
  -4  -2  -5    8.80    3.10
  -4  -2  -5    8.00    1.40
  -4  -2  -5    9.90    2.00
  -4  -2  -5   12.00    3.00
   4   2   5    9.70    1.80
   4   2   5   16.20    2.70
   4   2   5   11.80    2.50
   4   2   5    9.60    2.00
   4   2   5    6.60    2.70
  -5  -2  -5    2.00    1.80
  -5  -2  -5    5.40    1.40
  -5  -2  -5    1.50    2.00
  -5  -2  -5   -2.40    3.50
  -5  -2  -5    1.70    3.40
  -5  -2  -5    2.20    2.20
   5   2   5    2.40    1.90
   5   2   5    4.20    3.00
   5   2   5   -2.10    3.40
   5   2   5   -0.50    3.40
   5   2   5    1.10    2.20
  -6  -2  -5    7.00    2.30
  -6  -2  -5    8.30    4.60
  -6  -2  -5   13.30    3.00
  -6  -2  -5   17.70    4.80
  -6  -2  -5   15.60    2.90
   6   2   5    8.80    2.40
   6   2   5   13.60    3.10
   6   2   5   20.10    5.20
   6   2   5   19.20    4.90
   6   2   5   10.10    4.10
   7  -3  -5   15.70    2.20
   7  -3  -5   13.30    2.60
   6  -3  -5   11.70    1.50
   6  -3  -5   11.70    1.10
   6  -3  -5   10.20    1.70
   6  -3  -5   10.90    1.30
   6  -3  -5   13.10    1.60
   5  -3  -5  170.08    4.20
   5  -3  -5  171.38    4.00
   5  -3  -5  178.18    5.30
   5  -3  -5  171.48    4.20
   5  -3  -5  175.28    4.20
   4  -3  -5  457.15    9.10
   4  -3  -5  445.16    8.90
   4  -3  -5  451.85    9.10
   4  -3  -5  445.46    8.80
  -4   3   5  456.25    8.90
  -4   3   5  462.55    8.70
   3  -3  -5  428.06    8.70
   3  -3  -5  431.76   10.20
   3  -3  -5  424.16    8.50
   3  -3  -5  419.36    8.30
   3  -3  -5  413.86    8.40
  -3   3   5  425.56    8.70
  -3   3   5  426.66    8.50
   2  -3  -5  919.91   16.80
   2  -3  -5  865.51   16.70
   2  -3  -5  898.41   18.00
   2  -3  -5  877.81   16.90
   2  -3  -5  902.21   17.30
  -2   3   5  867.21   16.30
  -2   3   5  924.91   17.50
  -2   3   5  909.01   17.10
  -2   3   5  867.51   16.20
   1  -3  -5   61.29    2.50
   1  -3  -5   70.79    2.30
   1  -3  -5   66.39    2.90
   1  -3  -5   60.89    2.30
   1  -3  -5   64.09    2.80
  -1   3   5   60.39    2.40
  -1   3   5   63.29    2.90
  -1   3   5   62.99    2.60
  -1   3   5   61.59    2.10
   0  -3  -5    6.20    1.00
   0  -3  -5    4.70    1.10
   0  -3  -5    4.90    1.20
   0  -3  -5    5.30    1.30
   0  -3  -5    6.80    1.40
   0   3   5    8.10    1.30
   0   3   5    6.90    0.90
   0   3   5    4.30    1.30
   0   3   5    4.60    1.30
  -1  -3  -5   18.60    1.80
  -1  -3  -5   16.50    1.80
  -1  -3  -5   15.70    1.70
  -1  -3  -5   13.60    1.90
  -1  -3  -5   18.30    1.90
   1   3   5   16.20    1.60
   1   3   5   16.70    2.00
   1   3   5   15.40    1.80
   1   3   5   15.60    1.90
   1   3   5   19.20    1.90
  -2  -3  -5  307.27    7.60
  -2  -3  -5  302.07    7.50
  -2  -3  -5  307.37    7.70
  -2  -3  -5  302.07    8.10
  -2  -3  -5  303.37    8.60
   2   3   5  297.37    8.10
   2   3   5  291.87    8.20
   2   3   5  303.07    7.30
   2   3   5  301.57    8.00
   2   3   5  300.37    7.50
  -3  -3  -5  264.17    7.30
  -3  -3  -5  260.97    7.00
  -3  -3  -5  264.27    8.60
   3   3   5  272.97    8.10
   3   3   5  267.17    6.90
   3   3   5  265.57    7.00
   3   3   5  264.77    8.50
   3   3   5  250.57    8.00
  -4  -3  -5    0.70    1.40
  -4  -3  -5    0.10    2.90
  -4  -3  -5   -0.20    1.60
  -4  -3  -5   -1.80    1.40
  -4  -3  -5   -5.00    2.40
   4   3   5    0.40    2.30
   4   3   5    0.40    1.40
   4   3   5    2.30    3.10
   4   3   5   -2.20    2.50
   4   3   5   -0.40    1.60
  -5  -3  -5   43.60    3.90
  -5  -3  -5   48.10    5.30
  -5  -3  -5   42.50    4.60
  -5  -3  -5   36.60    3.60
  -5  -3  -5   43.60    3.20
  -5  -3  -5   41.40    3.90
   5   3   5   39.10    4.10
   5   3   5   45.00    4.60
   5   3   5   49.20    4.80
   5   3   5   49.80    5.50
   5   3   5   43.90    3.70
  -6  -3  -5    7.90    4.50
  -6  -3  -5    0.00    3.10
  -6  -3  -5    3.10    4.60
  -6  -3  -5   10.20    3.50
  -6  -3  -5   -0.50    2.90
   6   3   5    3.10    4.90
   6   3   5    3.10    2.80
   6   3   5    1.40    4.30
   6   3   5   -5.00    3.60
   7  -4  -5  114.49    2.80
   7  -4  -5  113.89    5.50
   7  -4  -5  119.29    4.60
   7  -4  -5  112.59    3.40
   7  -4  -5  114.29    2.90
   6  -4  -5   41.30    3.20
   6  -4  -5   35.20    2.40
   6  -4  -5   30.70    2.30
   6  -4  -5   34.10    2.50
   6  -4  -5   32.40    3.00
   5  -4  -5  221.68    5.50
   5  -4  -5  221.48    5.60
   5  -4  -5  214.38    5.20
   5  -4  -5  218.48    5.50
  -5   4   5  222.68    4.80
  -5   4   5  240.28    5.80
   4  -4  -5  132.29    3.90
   4  -4  -5  138.09    4.00
   4  -4  -5  136.49    3.60
   4  -4  -5  137.39    3.80
  -4   4   5  136.99    3.90
  -4   4   5  134.49    3.50
   3  -4  -5    8.10    1.10
   3  -4  -5    9.00    2.00
   3  -4  -5    8.60    1.00
   3  -4  -5    8.90    1.40
   3  -4  -5    8.30    1.00
  -3   4   5    9.70    1.30
  -3   4   5    7.20    1.10
   2  -4  -5  256.97    6.40
   2  -4  -5  253.37    6.00
   2  -4  -5  257.77    7.00
   2  -4  -5  251.47    5.80
  -2   4   5  263.17    5.50
  -2   4   5  256.27    5.60
  -2   4   5  260.17    6.70
   1  -4  -5  262.97    6.80
   1  -4  -5  263.07    6.20
   1  -4  -5  266.27    6.20
   1  -4  -5  256.17    6.10
   1  -4  -5  257.57    6.90
  -1   4   5  271.67    5.90
  -1   4   5  267.57    7.20
  -1   4   5  264.67    6.40
  -1   4   5  265.07    6.60
   0  -4  -5   13.30    1.60
   0  -4  -5   16.60    1.80
   0  -4  -5   14.00    1.90
   0  -4  -5   13.40    1.50
   0  -4  -5   12.70    1.70
   0   4   5   13.60    1.40
   0   4   5   10.80    1.80
   0   4   5   13.40    1.60
   0   4   5   12.40    1.80
  -1  -4  -5    3.70    1.30
  -1  -4  -5    5.50    1.40
  -1  -4  -5    5.20    1.90
  -1  -4  -5    7.20    1.70
  -1  -4  -5    2.30    1.50
   1   4   5    6.50    1.20
   1   4   5    1.70    1.80
   1   4   5    5.70    1.60
   1   4   5    5.80    1.80
  -2  -4  -5  468.95   12.00
  -2  -4  -5  422.46   12.20
  -2  -4  -5  472.05   10.80
  -2  -4  -5  472.25   10.70
   2   4   5  469.15   10.40
   2   4   5  471.05   11.30
   2   4   5  459.95   11.80
   2   4   5  457.75   11.60
  -3  -4  -5   33.60    3.20
  -3  -4  -5   41.80    4.40
  -3  -4  -5   44.20    3.20
  -3  -4  -5   36.20    3.30
  -3  -4  -5   40.90    3.40
  -3  -4  -5   41.20    4.10
   3   4   5   40.70    4.20
   3   4   5   41.00    4.40
   3   4   5   34.60    3.80
   3   4   5   40.90    3.00
  -4  -4  -5   37.90    4.00
  -4  -4  -5   34.30    4.70
  -4  -4  -5   38.40    3.80
  -4  -4  -5   33.00    3.30
  -4  -4  -5   35.60    3.80
   4   4   5   34.50    3.90
   4   4   5   35.30    4.10
   4   4   5   35.30    4.60
   4   4   5   32.50    3.50
  -5  -4  -5    4.60    2.50
  -5  -4  -5    1.60    2.70
  -5  -4  -5    2.90    5.20
  -5  -4  -5    0.80    2.40
  -5  -4  -5   -2.20    4.50
  -5  -4  -5    2.00    2.70
   5   4   5    2.60    2.90
   5   4   5   -4.20    4.50
   5   4   5    9.50    4.00
   5   4   5    2.60    4.00
   7  -5  -5   15.00    2.30
   7  -5  -5   15.90    1.50
   7  -5  -5   12.20    2.10
   7  -5  -5   17.20    3.00
   7  -5  -5   17.60    2.00
   7  -5  -5   19.10    2.10
   6  -5  -5  251.77    7.00
   6  -5  -5  262.27    6.30
   6  -5  -5  252.77    6.80
   6  -5  -5  258.17    6.50
   6  -5  -5  251.57    6.60
  -6   5   5  258.27    5.50
  -6   5   5  253.17    5.90
   5  -5  -5   62.59    3.20
   5  -5  -5   63.99    3.20
   5  -5  -5   61.29    3.50
   5  -5  -5   60.79    2.80
  -5   5   5   60.49    3.20
  -5   5   5   66.39    2.60
   4  -5  -5   -0.40    1.10
   4  -5  -5    2.30    1.20
   4  -5  -5    2.10    1.50
   4  -5  -5    1.40    1.30
  -4   5   5   -0.10    1.20
  -4   5   5    0.50    1.10
   3  -5  -5  427.86    9.20
   3  -5  -5  423.06    8.90
   3  -5  -5  410.16    9.60
   3  -5  -5  419.46    9.00
   3  -5  -5  412.86   10.70
  -3   5   5  417.66    9.10
  -3   5   5  411.56    7.90
  -3   5   5  411.26    7.90
  -3   5   5  421.06    9.60
   2  -5  -5  476.25   11.00
   2  -5  -5  483.45   11.50
   2  -5  -5  482.75   10.30
   2  -5  -5  492.15   10.30
   2  -5  -5  492.85   10.10
  -2   5   5  473.45    9.90
  -2   5   5  485.35   10.60
  -2   5   5  497.15   11.20
  -2   5   5  475.45   10.10
   1  -5  -5   78.19    3.30
   1  -5  -5   73.89    3.70
   1  -5  -5   70.69    3.60
   1  -5  -5   76.09    3.10
   1  -5  -5   73.79    3.00
  -1   5   5   75.09    3.50
  -1   5   5   75.19    3.40
  -1   5   5   75.19    2.80
  -1   5   5   74.59    4.40
   0  -5  -5  408.86    9.20
   0  -5  -5  396.16   10.10
   0  -5  -5  403.66    9.70
   0  -5  -5  399.86    9.30
   0  -5  -5  399.36    9.40
   0   5   5  401.46   10.00
   0   5   5  394.36   10.30
   0   5   5  412.46    9.60
   0   5   5  409.46    9.00
  -1  -5  -5    0.10    2.10
  -1  -5  -5    1.50    1.40
  -1  -5  -5   -0.90    1.90
  -1  -5  -5    4.00    2.30
   1   5   5   -3.60    1.90
   1   5   5    2.60    1.80
   1   5   5    0.60    2.10
   1   5   5    1.10    1.30
  -2  -5  -5  189.38    5.90
  -2  -5  -5  182.88    7.50
  -2  -5  -5  195.08    6.70
  -2  -5  -5  193.78    7.30
  -2  -5  -5  184.88    6.00
  -2  -5  -5  183.98    6.00
   2   5   5  185.48    7.30
   2   5   5  187.68    5.50
   2   5   5  186.98    7.30
   2   5   5  176.38    6.60
  -3  -5  -5   23.10    2.90
  -3  -5  -5   20.30    4.20
  -3  -5  -5   18.20    2.70
  -3  -5  -5   23.40    2.50
  -3  -5  -5   23.10    3.90
  -3  -5  -5   18.30    2.50
   3   5   5   24.30    2.50
   3   5   5   26.40    3.60
   3   5   5   26.00    3.90
   3   5   5   26.30    4.10
  -4  -5  -5   13.70    4.10
  -4  -5  -5   14.00    2.80
  -4  -5  -5   16.60    3.10
  -4  -5  -5   13.30    4.70
  -4  -5  -5   16.40    2.60
  -4  -5  -5   14.20    2.70
   4   5   5   13.90    4.40
   4   5   5   12.50    4.60
   4   5   5   13.80    2.50
   4   5   5   11.80    3.90
   7  -6  -5   34.00    3.00
   7  -6  -5   35.60    3.00
   7  -6  -5   30.90    3.10
   7  -6  -5   30.20    3.10
   6  -6  -5   45.30    3.60
   6  -6  -5   47.70    4.50
   6  -6  -5   51.19    4.20
   6  -6  -5   42.50    3.50
   6  -6  -5   44.70    3.20
  -6   6   5   42.90    2.80
  -6   6   5   47.30    3.40
   5  -6  -5   25.30    2.60
   5  -6  -5   30.40    2.80
   5  -6  -5   30.70    2.80
   5  -6  -5   29.20    2.70
   5  -6  -5   24.70    2.60
  -5   6   5   26.50    2.40
  -5   6   5   26.60    2.50
   4  -6  -5   11.20    1.70
   4  -6  -5   12.00    1.60
   4  -6  -5   10.60    1.70
   4  -6  -5   10.90    1.90
  -4   6   5    9.00    1.70
  -4   6   5    8.70    2.10
   3  -6  -5  529.05   13.50
   3  -6  -5  534.75   11.20
   3  -6  -5  540.85   11.40
   3  -6  -5  520.05   12.10
   3  -6  -5  513.65   12.40
  -3   6   5  533.05   10.60
  -3   6   5  542.45   10.70
  -3   6   5  522.05   12.20
  -3   6   5  531.95   11.90
   2  -6  -5   54.19    2.80
   2  -6  -5   54.99    3.70
   2  -6  -5   52.29    4.10
   2  -6  -5   50.69    2.90
  -2   6   5   54.29    3.00
  -2   6   5   49.60    2.80
  -2   6   5   54.49    3.00
  -2   6   5   58.19    4.10
   1  -6  -5  195.78    5.50
   1  -6  -5  196.18    5.50
   1  -6  -5  151.98    7.10
   1  -6  -5  189.88    6.30
  -1   6   5  190.08    5.30
  -1   6   5  191.98    5.90
  -1   6   5  194.78    6.70
  -1   6   5  189.38    6.10
   0  -6  -5   36.40    2.90
   0  -6  -5   38.30    3.30
   0  -6  -5   40.40    3.10
   0  -6  -5   35.00    3.20
   0   6   5   42.00    3.10
   0   6   5   35.80    3.80
   0   6   5   38.70    3.50
   0   6   5   38.30    4.50
  -1  -6  -5   52.09    5.70
  -1  -6  -5   50.39    4.20
  -1  -6  -5   54.79    3.80
  -1  -6  -5   53.19    3.60
  -1  -6  -5   48.60    3.50
  -1  -6  -5   55.79    3.60
   1   6   5   55.09    3.20
   1   6   5   54.09    4.70
   1   6   5   46.60    5.10
   1   6   5   54.69    4.20
  -2  -6  -5   12.60    2.50
  -2  -6  -5    7.00    2.20
  -2  -6  -5   10.30    2.20
  -2  -6  -5    8.70    2.20
  -2  -6  -5    9.30    3.20
   2   6   5   16.90    3.70
   2   6   5   13.30    3.20
   2   6   5   10.00    3.10
   2   6   5    8.70    2.10
  -3  -6  -5   31.20    5.00
  -3  -6  -5   18.90    3.00
  -3  -6  -5   18.90    2.80
  -3  -6  -5   22.10    2.90
  -3  -6  -5   18.60    4.30
  -3  -6  -5   20.50    3.20
   3   6   5   28.90    4.10
   3   6   5   20.80    2.60
   3   6   5   22.40    4.50
  -4  -6  -5    7.70    3.10
  -4  -6  -5   10.80    5.90
  -4  -6  -5    4.40    2.90
  -4  -6  -5   11.80    5.90
  -4  -6  -5    4.60    3.20
  -4  -6  -5    3.10    2.60
   4   6   5    0.70    5.10
   4   6   5    2.90    3.60
   4   6   5    3.50    2.30
   4   6   5    0.20    5.10
   6  -7  -5  139.09    6.50
   6  -7  -5  131.19    5.20
   6  -7  -5  144.29    5.50
   6  -7  -5  129.59    6.20
   6  -7  -5  132.79    6.60
  -6   7   5  127.89    5.60
   5  -7  -5  339.67    9.40
   5  -7  -5  342.77    8.60
   5  -7  -5  333.47    9.30
  -5   7   5  333.17    9.30
  -5   7   5  336.27    8.40
   4  -7  -5    6.70    1.80
   4  -7  -5    7.30    2.20
   4  -7  -5    7.20    1.90
   4  -7  -5    7.80    1.80
  -4   7   5    8.20    2.10
  -4   7   5    6.40    2.40
   3  -7  -5   36.80    2.80
   3  -7  -5   39.60    4.40
   3  -7  -5   42.20    3.60
   3  -7  -5   40.70    3.30
   3  -7  -5   44.70    5.00
   3  -7  -5   43.70    3.10
  -3   7   5   40.50    3.70
  -3   7   5   37.90    3.00
  -3   7   5   37.10    2.90
  -3   7   5   41.00    2.90
   2  -7  -5  318.87    9.60
   2  -7  -5  317.77    9.20
   2  -7  -5  316.57    8.10
   2  -7  -5  322.17    8.50
   2  -7  -5  312.87    8.20
   2  -7  -5  330.97    8.00
  -2   7   5  320.47    8.20
  -2   7   5  322.97    9.30
  -2   7   5  320.77    8.80
  -2   7   5  300.47    7.70
   1  -7  -5   46.40    3.40
   1  -7  -5   52.99    3.50
   1  -7  -5   47.00    3.40
   1  -7  -5   43.70    3.70
   1  -7  -5   36.80    3.70
   1  -7  -5   52.09    4.90
  -1   7   5   42.90    3.40
  -1   7   5   49.40    4.60
  -1   7   5   46.30    4.00
  -1   7   5   48.90    4.10
   0  -7  -5   13.80    2.30
   0  -7  -5   14.90    3.20
   0  -7  -5   12.20    2.60
   0  -7  -5   14.00    2.30
   0  -7  -5   14.40    2.30
   0  -7  -5   16.40    2.60
   0   7   5    9.90    2.90
   0   7   5   13.40    2.00
   0   7   5   10.90    2.90
   0   7   5    8.40    3.20
  -1  -7  -5    0.50    2.00
  -1  -7  -5    4.60    2.40
  -1  -7  -5    1.30    3.20
  -1  -7  -5   -0.10    2.10
  -1  -7  -5    0.10    2.50
  -1  -7  -5   -0.60    2.00
   1   7   5    2.20    2.80
   1   7   5   -1.60    1.80
   1   7   5    2.90    3.00
   1   7   5    1.00    3.20
  -2  -7  -5    2.80    3.20
  -2  -7  -5    5.60    2.60
  -2  -7  -5    0.50    4.20
  -2  -7  -5    3.80    3.50
  -2  -7  -5    3.30    3.10
  -2  -7  -5    4.90    2.50
   2   7   5    2.90    3.80
   2   7   5    3.60    2.80
   2   7   5   -1.10    3.10
   2   7   5   -3.80    4.00
  -3  -7  -5    7.10    3.30
  -3  -7  -5    4.10    2.80
  -3  -7  -5    3.70    3.60
  -3  -7  -5    4.30    4.10
  -3  -7  -5    2.10    2.80
  -3  -7  -5   -1.00    5.30
   3   7   5   10.50    5.30
   3   7   5    5.10    5.00
   3   7   5    6.00    3.70
   3   7   5    2.70    2.50
   5  -8  -5   12.60    2.90
   5  -8  -5   15.20    3.00
   5  -8  -5   19.30    3.50
   5  -8  -5   12.60    3.30
   5  -8  -5   17.50    3.00
  -5   8   5   14.40    3.30
   4  -8  -5   -1.50    2.00
   4  -8  -5    2.80    2.10
   4  -8  -5    3.40    2.70
   4  -8  -5   -0.70    2.60
   4  -8  -5    1.50    1.80
   4  -8  -5    4.40    4.00
  -4   8   5   -5.80    2.40
  -4   8   5    2.30    2.40
   3  -8  -5   25.70    3.20
   3  -8  -5   18.50    3.30
   3  -8  -5   19.60    2.70
   3  -8  -5   16.10    3.80
   3  -8  -5   22.40    2.40
   3  -8  -5   20.00    2.60
  -3   8   5   15.50    2.40
  -3   8   5   19.30    3.50
  -3   8   5   18.20    2.30
  -3   8   5   15.90    2.70
   2  -8  -5   56.69    4.00
   2  -8  -5   46.40    4.40
   2  -8  -5   49.80    5.40
   2  -8  -5   45.70    3.90
   2  -8  -5   45.80    4.20
   2  -8  -5   49.30    5.20
  -2   8   5   44.60    3.80
  -2   8   5   42.60    4.00
  -2   8   5   50.09    4.90
  -2   8   5   40.50    4.20
   1  -8  -5    8.60    3.10
   1  -8  -5    4.30    3.90
   1  -8  -5    3.90    2.20
   1  -8  -5    2.50    2.20
   1  -8  -5    1.20    2.50
   1  -8  -5    1.70    2.30
  -1   8   5    5.50    2.30
  -1   8   5    4.90    3.00
  -1   8   5    4.50    2.80
  -1   8   5    2.20    2.90
   0  -8  -5   26.80    3.00
   0  -8  -5   28.50    4.50
   0  -8  -5   20.80    3.40
   0  -8  -5   24.10    3.30
   0  -8  -5   18.80    2.80
   0  -8  -5   18.10    2.90
   0   8   5   24.50    3.90
   0   8   5   27.30    2.70
   0   8   5   18.00    4.10
   0   8   5   20.70    3.50
  -1  -8  -5   70.69    6.10
  -1  -8  -5   63.99    5.90
  -1  -8  -5   64.39    5.10
  -1  -8  -5   65.59    6.30
  -1  -8  -5   63.09    5.00
  -1  -8  -5   55.49    6.00
   1   8   5   67.19    6.20
   1   8   5   65.79    6.90
   1   8   5   65.59    7.30
   1   8   5   56.79    4.40
  -2  -8  -5    3.60    2.90
  -2  -8  -5   13.30    5.50
  -2  -8  -5   -1.40    3.60
  -2  -8  -5    6.70    3.50
  -2  -8  -5    0.40    2.50
  -2  -8  -5   -1.90    3.10
   2   8   5    3.10    5.20
   2   8   5    2.00    2.60
   2   8   5   -3.00    4.90
   2   8   5   -3.90    3.70
   4  -9  -5    4.00    3.30
   4  -9  -5    4.80    3.90
   4  -9  -5   -0.10    2.90
   4  -9  -5    3.10    3.40
   4  -9  -5    7.90    2.50
   4  -9  -5    8.60    3.10
  -4   9   5    2.10    1.70
  -4   9   5    6.00    3.00
  -4   9   5    4.50    1.60
   3  -9  -5   40.80    3.80
   3  -9  -5   53.09    5.30
   3  -9  -5   45.30    4.50
   3  -9  -5   44.40    3.90
   3  -9  -5   46.70    4.90
   3  -9  -5   46.40    4.90
  -3   9   5   48.70    4.20
  -3   9   5   49.30    5.40
  -3   9   5   34.50    3.60
  -3   9   5   44.20    4.20
   2  -9  -5    3.80    2.80
   2  -9  -5    0.60    2.70
   2  -9  -5   -1.50    3.20
   2  -9  -5   -1.10    3.20
   2  -9  -5    1.20    2.50
   2  -9  -5   -1.90    3.40
  -2   9   5   -1.80    2.50
  -2   9   5    7.10    3.10
  -2   9   5   -1.20    4.00
  -2   9   5    1.00    3.10
   1  -9  -5  118.99    6.20
   1  -9  -5  103.29    7.70
   1  -9  -5  103.59    7.80
   1  -9  -5  109.59    6.10
   1  -9  -5  106.19    6.10
   1  -9  -5  109.29    6.00
  -1   9   5  116.89    7.70
  -1   9   5  106.99    7.40
  -1   9   5  117.29    5.30
  -1   9   5  119.59    7.30
   0  -9  -5   10.20    3.10
   0  -9  -5    9.50    2.80
   0  -9  -5    5.40    2.80
   0  -9  -5    3.40    3.50
   0  -9  -5    5.10    4.60
   0  -9  -5    2.10    3.20
   0   9   5    9.60    4.50
   0   9   5    7.70    4.20
   0   9   5    2.00    4.50
   0   9   5    3.30    2.40
   1  11  -6    9.40    2.80
   1  11  -6    7.20    3.20
   1  11  -6   16.10    3.60
   1  11  -6    6.10    3.50
  -1 -11   6   10.70    4.70
  -1 -11   6    7.90    4.00
  -1 -11   6    9.50    5.00
  -1 -11   6    7.70    3.30
  -1 -11   6    5.00    3.70
  -1 -11   6    1.50    2.70
   0  11  -6   27.20    3.50
   0  11  -6   36.40    3.60
   0  11  -6   33.80    3.80
   0  11  -6   32.00    6.00
   0  11  -6   27.50    3.80
   0 -11   6   36.00    4.90
   0 -11   6   29.30    3.20
   0 -11   6   36.30    4.20
   0 -11   6   30.70    4.70
   0 -11   6   32.10    5.60
   0 -11   6   33.00    4.50
  -1  11  -6   -3.10    4.10
  -1  11  -6    7.10    2.70
  -1  11  -6    3.80    2.70
  -1  11  -6    7.50    3.30
  -1  11  -6    6.60    2.70
   1 -11   6   14.90    3.80
   1 -11   6   -2.50    3.70
   1 -11   6    4.70    3.20
   1 -11   6    3.10    2.40
   1 -11   6    8.70    4.70
   1 -11   6    3.30    4.00
  -2  11  -6   -1.90    2.50
  -2  11  -6   -0.20    3.30
  -2  11  -6   -1.10    4.20
  -2  11  -6   -2.30    2.60
  -2  11  -6    0.10    2.60
   2 -11   6    1.70    4.70
   2 -11   6    1.90    4.50
   2 -11   6    3.60    3.40
   2 -11   6    3.30    3.70
   2 -11   6   -1.30    2.60
   2 -11   6    0.70    3.60
  -3  11  -6  301.47    9.30
  -3  11  -6  291.57   12.20
  -3  11  -6  287.17   10.70
  -3  11  -6  304.47    9.50
   3 -11   6  306.67   14.30
   3 -11   6  278.37   11.60
   3 -11   6  295.57   12.30
   3 -11   6  273.77   11.70
   3 -11   6  295.57    9.10
   3 -11   6  283.37   10.70
  -4  11  -6   73.79    5.60
  -4  11  -6   75.39    7.50
  -4  11  -6   66.09    7.40
  -4  11  -6   70.29    5.50
   4 -11   6   73.89    5.70
   4 -11   6   84.99    8.70
   4 -11   6   78.29    8.40
   4 -11   6   74.29    8.30
   4 -11   6   60.29    6.30
   3  10  -6   12.50    5.30
   3  10  -6   10.50    2.70
   3  10  -6   11.40    3.10
   3  10  -6   10.40    3.50
  -3 -10   6    9.20    4.20
  -3 -10   6   12.00    3.50
  -3 -10   6   12.40    6.00
  -3 -10   6   11.80    4.10
  -3 -10   6   17.40    4.10
   2  10  -6    2.10    2.70
   2  10  -6    2.40    2.50
   2  10  -6    4.60    2.80
   2  10  -6   -0.80    2.60
   2  10  -6    0.40    3.80
  -2 -10   6   -0.90    3.10
  -2 -10   6   -1.50    3.10
  -2 -10   6   -0.10    3.00
  -2 -10   6   -3.10    3.70
  -2 -10   6    4.10    4.00
  -2 -10   6    3.40    2.00
   1  10  -6   -0.80    2.20
   1  10  -6   -0.10    3.40
   1  10  -6   -0.40    2.30
   1  10  -6   -2.60    2.40
   1  10  -6    6.80    2.60
  -1 -10   6   -1.50    2.40
  -1 -10   6   -2.00    3.00
  -1 -10   6    5.70    3.60
  -1 -10   6   -2.50    2.10
  -1 -10   6   -4.80    3.20
  -1 -10   6    3.80    3.60
   0  10  -6   56.79    5.20
   0  10  -6   59.29    4.50
   0  10  -6   61.79    4.50
   0  10  -6   61.49    4.80
   0  10  -6   54.59    4.40
   0 -10   6   59.99    4.00
   0 -10   6   72.39    5.90
   0 -10   6   54.19    5.20
   0 -10   6   66.89    6.40
   0 -10   6   52.19    5.80
   0 -10   6   52.29    5.50
  -1  10  -6   15.00    2.60
  -1  10  -6   12.30    2.60
  -1  10  -6    8.40    4.50
  -1  10  -6   13.50    3.00
  -1  10  -6   10.50    2.90
   1 -10   6   13.20    3.10
   1 -10   6   17.20    2.90
   1 -10   6   11.20    3.90
   1 -10   6   19.20    3.70
   1 -10   6   12.80    4.10
   1 -10   6    9.80    2.80
  -2  10  -6  140.39    5.60
  -2  10  -6  133.19    6.70
  -2  10  -6  130.09    7.70
  -2  10  -6  135.69    5.50
  -2  10  -6  137.09    6.20
   2 -10   6  133.29    7.00
   2 -10   6  139.59    5.70
   2 -10   6  128.09    6.50
   2 -10   6  122.49    8.50
   2 -10   6  132.59    6.90
   2 -10   6  143.79    8.00
  -3  10  -6   28.00    3.10
  -3  10  -6   16.70    2.50
  -3  10  -6   26.70    3.90
  -3  10  -6   29.40    4.90
  -3  10  -6   28.90    3.50
   3 -10   6   25.30    4.70
   3 -10   6   23.50    4.60
   3 -10   6   17.20    3.80
   3 -10   6   26.40    4.10
   3 -10   6   19.00    2.90
   3 -10   6   32.50    4.30
  -4  10  -6   34.50    3.60
  -4  10  -6   27.50    5.10
  -4  10  -6   36.50    5.00
  -4  10  -6   35.20    3.40
   4 -10   6   31.30    4.30
   4 -10   6   42.10    5.20
   4 -10   6   43.60    5.70
   4 -10   6   30.60    4.60
   4 -10   6   40.30    4.40
   4 -10   6   35.80    4.90
  -5  10  -6    0.20    2.60
  -5  10  -6   -1.00    4.50
  -5  10  -6    3.10    2.90
  -5  10  -6    9.40    5.00
   5 -10   6    1.10    5.10
   5 -10   6   -1.80    3.80
   5 -10   6   -5.60    6.80
   5 -10   6    0.90    2.50
   5 -10   6    4.30    3.70
   5 -10   6    9.00    4.60
   4   9  -6   49.99    5.10
   4   9  -6   52.09    4.80
   4   9  -6   58.99    5.60
   4   9  -6   41.90    5.00
   4   9  -6   47.60    5.40
  -4  -9   6   45.60    4.90
  -4  -9   6   55.19    5.70
   3   9  -6   -2.20    2.20
   3   9  -6    2.10    2.50
   3   9  -6    2.80    3.60
   3   9  -6    0.30    2.40
   3   9  -6    6.40    2.50
  -3  -9   6   -2.40    2.70
  -3  -9   6    2.60    3.40
  -3  -9   6    6.30    2.70
  -3  -9   6   -4.80    3.40
   2   9  -6   75.19    5.90
   2   9  -6   68.19    4.80
   2   9  -6   82.89    4.80
   2   9  -6   81.29    4.60
   2   9  -6   77.79    4.40
  -2  -9   6   70.89    6.20
  -2  -9   6   77.69    4.00
  -2  -9   6   79.39    4.80
  -2  -9   6   83.19    6.00
  -2  -9   6   77.49    5.00
  -2  -9   6   77.09    5.20
   1   9  -6   16.50    2.50
   1   9  -6   16.80    2.40
   1   9  -6   17.20    2.50
   1   9  -6   20.80    3.60
   1   9  -6   18.70    2.60
  -1  -9   6   16.80    2.80
  -1  -9   6   18.90    3.60
  -1  -9   6   17.00    2.10
  -1  -9   6   17.60    2.50
  -1  -9   6   16.50    3.30
  -1  -9   6   18.10    2.90
   0   9  -6   95.99    6.00
   0   9  -6   89.79    4.50
   0   9  -6   93.49    4.40
   0   9  -6   95.59    4.40
   0   9  -6   94.59    4.70
   0  -9   6   93.79    5.60
   0  -9   6   91.19    5.40
   0  -9   6   93.49    6.50
   0  -9   6   94.09    6.10
   0  -9   6   92.29    5.10
   0  -9   6   96.09    4.10
  -1   9  -6  164.48    6.00
  -1   9  -6  158.28    5.60
  -1   9  -6  160.68    6.20
  -1   9  -6  165.38    7.20
  -1   9  -6  170.58    5.60
   1  -9   6  161.78    6.80
   1  -9   6  168.08    7.30
   1  -9   6  159.38    6.30
   1  -9   6  167.38    6.70
   1  -9   6  165.58    5.50
   1  -9   6  167.98    7.00
  -2   9  -6   37.30    4.10
  -2   9  -6   40.30    4.00
  -2   9  -6   37.30    4.10
  -2   9  -6   43.60    3.80
   2  -9   6   38.80    4.40
   2  -9   6   35.90    4.00
   2  -9   6   45.30    4.50
   2  -9   6   39.00    4.20
   2  -9   6   40.80    4.10
   2  -9   6   36.70    3.30
  -3   9  -6  136.99    7.30
  -3   9  -6  141.19    5.50
  -3   9  -6  145.59    6.50
  -3   9  -6  133.39    4.90
  -3   9  -6  139.89    5.50
   3  -9   6  125.39    6.90
   3  -9   6  133.39    5.30
   3  -9   6  135.99    6.50
   3  -9   6  151.98    6.80
   3  -9   6  145.79    6.90
   3  -9   6  144.99    7.50
  -4   9  -6   56.69    5.50
  -4   9  -6   51.99    4.10
  -4   9  -6   48.70    3.10
  -4   9  -6   55.69    4.20
  -4   9  -6   53.19    5.40
   4  -9   6   46.00    4.60
   4  -9   6   64.49    6.00
   4  -9   6   46.40    4.50
   4  -9   6   53.89    5.00
   4  -9   6   49.50    5.20
   4  -9   6   51.99    6.00
  -5   9  -6  256.27   10.80
  -5   9  -6  257.27    7.90
  -5   9  -6  271.97    9.90
  -5   9  -6  260.37    8.40
   5  -9   6  249.78    8.50
   5  -9   6  251.87   10.30
   5  -9   6  241.88   11.20
   5  -9   6  257.87   10.00
   5  -9   6  259.87   10.00
   5  -9   6  272.77    9.00
   6  -9   6   11.10    3.10
   4   8  -6   -5.00    2.60
   4   8  -6   -3.90    3.10
   4   8  -6    2.30    2.50
   4   8  -6   -2.40    2.40
   4   8  -6   -4.00    2.30
  -4  -8   6   -1.40    2.30
  -4  -8   6   -2.90    2.20
  -4  -8   6   -6.00    3.30
  -4  -8   6    5.10    3.40
  -4  -8   6   -0.40    2.70
   3   8  -6   69.59    5.90
   3   8  -6   61.39    4.50
   3   8  -6   66.09    4.20
   3   8  -6   69.19    4.40
   3   8  -6   69.69    4.00
  -3  -8   6   69.19    4.60
  -3  -8   6   64.49    4.30
  -3  -8   6   58.39    4.10
  -3  -8   6   62.19    5.80
  -3  -8   6   68.79    5.80
   2   8  -6   80.89    4.10
   2   8  -6   81.59    4.10
   2   8  -6   88.49    5.30
   2   8  -6   90.39    4.10
   2   8  -6   89.79    4.50
  -2  -8   6   92.19    5.00
  -2  -8   6   93.89    5.40
  -2  -8   6   87.59    4.50
  -2  -8   6   84.79    3.80
  -2  -8   6   89.59    3.70
  -2  -8   6   87.79    5.50
   1   8  -6    3.80    2.40
   1   8  -6    5.40    1.60
   1   8  -6    1.60    1.50
   1   8  -6    5.20    2.30
   1   8  -6    4.90    1.70
  -1  -8   6    2.40    2.30
  -1  -8   6    3.30    1.80
  -1  -8   6    5.00    2.50
  -1  -8   6    4.80    1.40
  -1  -8   6    0.50    2.10
  -1  -8   6    3.60    2.00
   0   8  -6   44.40    3.20
   0   8  -6   40.80    2.80
   0   8  -6   40.60    4.00
   0   8  -6   44.40    3.00
   0   8  -6   38.10    3.10
   0  -8   6   40.40    3.50
   0  -8   6   39.20    3.70
   0  -8   6   41.00    3.10
   0  -8   6   40.30    2.90
   0  -8   6   41.40    4.00
   0  -8   6   43.30    4.30
  -1   8  -6    0.20    1.70
  -1   8  -6   -0.40    1.80
  -1   8  -6   -2.40    2.10
  -1   8  -6    1.30    1.40
   1  -8   6    1.90    1.90
   1  -8   6    4.30    1.60
   1  -8   6   -0.10    1.70
   1  -8   6    1.20    2.10
   1  -8   6   -1.70    2.10
  -2   8  -6   79.99    5.30
  -2   8  -6   73.69    3.70
  -2   8  -6   78.09    4.30
  -2   8  -6   76.09    3.50
  -2   8  -6   76.09    3.80
   2  -8   6   75.39    7.80
   2  -8   6   70.89    3.50
   2  -8   6   73.89    4.80
   2  -8   6   72.39    4.90
   2  -8   6   80.39    4.50
   2  -8   6   70.59    4.40
  -3   8  -6   -0.80    2.30
  -3   8  -6    3.40    1.70
  -3   8  -6   -0.10    1.60
  -3   8  -6    3.50    3.30
  -3   8  -6    1.60    1.70
   3  -8   6    0.00    2.60
   3  -8   6    0.20    1.60
   3  -8   6    2.10    2.20
   3  -8   6    5.70    2.50
   3  -8   6   -2.00    2.30
   3  -8   6    6.20    2.30
  -4   8  -6  220.38    7.10
  -4   8  -6  222.38    8.90
  -4   8  -6  203.98    7.60
  -4   8  -6  226.48    7.10
  -4   8  -6  226.18    5.90
   4  -8   6  206.18    8.10
   4  -8   6  219.28    7.30
   4  -8   6  222.28    7.00
   4  -8   6  213.68    8.10
   4  -8   6  232.78    9.00
   4  -8   6  222.78    8.10
  -5   8  -6   31.60    4.80
  -5   8  -6   35.90    3.80
  -5   8  -6   38.00    3.60
  -5   8  -6   31.40    3.30
   5  -8   6   31.70    3.50
   5  -8   6   38.10    4.20
   5  -8   6   32.20    4.20
   5  -8   6   37.90    4.30
   5  -8   6   29.50    4.20
   5  -8   6   42.60    5.10
  -6   8  -6   23.00    3.60
  -6   8  -6   27.20    5.70
  -6   8  -6   29.90    4.20
  -6   8  -6   27.20    3.00
   6  -8   6   31.40    4.70
   6  -8   6   34.10    5.30
   6  -8   6   29.50    5.60
   6  -8   6   25.50    3.80
   6  -8   6   20.50    4.70
   5   7  -6   17.60    2.80
   5   7  -6   20.60    3.20
   5   7  -6   11.80    3.50
   5   7  -6   12.30    2.90
   5   7  -6   17.40    3.10
  -5  -7   6   15.70    4.30
  -5  -7   6   16.80    2.90
   4   7  -6   14.50    2.50
   4   7  -6   15.80    3.30
   4   7  -6   12.60    2.90
   4   7  -6   17.10    2.80
   4   7  -6   18.80    2.60
  -4  -7   6   19.20    2.30
  -4  -7   6   12.50    2.60
  -4  -7   6   11.40    3.40
  -4  -7   6   17.10    2.30
  -4  -7   6   14.70    2.30
   3   7  -6   64.19    3.70
   3   7  -6   56.09    4.70
   3   7  -6   58.69    5.10
   3   7  -6   59.29    3.40
   3   7  -6   60.69    3.80
  -3  -7   6   59.49    3.80
  -3  -7   6   46.60    4.60
  -3  -7   6   55.69    4.00
  -3  -7   6   54.89    3.30
  -3  -7   6   53.29    3.60
   2   7  -6  115.39    4.10
   2   7  -6  112.19    4.50
   2   7  -6  115.99    5.00
   2   7  -6  104.19    4.50
   2   7  -6  115.29    4.10
  -2  -7   6  109.09    5.40
  -2  -7   6  117.29    4.70
  -2  -7   6  113.19    5.10
  -2  -7   6  113.79    3.70
  -2  -7   6  117.09    4.50
  -2  -7   6  114.99    3.80
   1   7  -6    2.30    1.20
   1   7  -6    3.20    1.40
   1   7  -6    3.40    1.30
   1   7  -6    2.50    1.90
   1   7  -6    1.70    1.30
  -1  -7   6    2.20    1.30
  -1  -7   6    1.40    1.90
  -1  -7   6    2.70    1.60
  -1  -7   6    4.00    2.00
  -1  -7   6    2.10    1.40
  -1  -7   6    3.80    1.60
   0   7  -6  584.74   12.80
   0   7  -6  596.44   13.80
   0   7  -6  596.74   12.60
   0   7  -6  602.44   12.70
   0   7  -6  596.24   12.90
   0  -7   6  587.74   13.40
   0  -7   6  589.64   13.70
   0  -7   6  592.44   13.30
   0  -7   6  598.64   12.40
   0  -7   6  583.14   12.80
   0  -7   6  608.14   13.80
  -1   7  -6   19.80    2.20
  -1   7  -6   20.50    2.30
  -1   7  -6   17.30    2.60
  -1   7  -6   16.30    1.90
  -1   7  -6   16.70    1.80
   1  -7   6   17.20    2.50
   1  -7   6   18.40    2.00
   1  -7   6   17.30    2.50
   1  -7   6   15.30    2.10
   1  -7   6   17.50    2.30
   1  -7   6   16.60    2.30
  -2   7  -6 1836.32   35.70
  -2   7  -6 1812.12   35.10
  -2   7  -6 1835.92   34.80
  -2   7  -6 1877.01   36.60
  -2   7  -6 1843.32   35.20
   2  -7   6 1866.51   36.10
   2  -7   6 1832.72   35.80
   2  -7   6 1821.62   34.80
   2  -7   6 1859.71   36.40
   2  -7   6 1897.11   36.10
   2  -7   6 1834.82   35.70
  -3   7  -6   78.99    5.30
  -3   7  -6   88.49    4.30
  -3   7  -6   76.19    4.50
  -3   7  -6   86.49    4.10
  -3   7  -6   81.19    3.20
   3  -7   6   83.59    4.60
   3  -7   6   84.29    4.70
   3  -7   6   72.89    4.70
   3  -7   6   84.39    3.80
   3  -7   6   83.39    5.10
   3  -7   6   75.99    4.00
  -4   7  -6  352.26   10.80
  -4   7  -6  353.46    7.90
  -4   7  -6  348.27    9.70
  -4   7  -6  344.97    8.90
  -4   7  -6  363.16    9.50
   4  -7   6  342.17    9.10
   4  -7   6  338.47   10.20
   4  -7   6  355.76   10.00
   4  -7   6  355.96   10.10
   4  -7   6  351.36    9.00
   4  -7   6  357.26   10.80
  -5   7  -6  223.88    7.60
  -5   7  -6  225.98    9.10
  -5   7  -6  230.58    8.20
  -5   7  -6  230.78    7.20
  -5   7  -6  232.78    5.50
   5  -7   6  229.18    8.60
   5  -7   6  231.98    7.70
   5  -7   6  226.58    8.60
   5  -7   6  226.98    9.30
   5  -7   6  241.98    8.50
  -6   7  -6   69.59    6.00
  -6   7  -6   71.79    7.10
  -6   7  -6   68.29    4.90
  -6   7  -6   71.99    6.10
   6  -7   6   66.49    5.70
   6  -7   6   64.89    5.50
   6  -7   6   63.69    5.70
   6  -7   6   73.29    7.70
   6  -7   6   64.99    6.50
   6   6  -6    8.30    3.00
   6   6  -6    9.50    3.50
   6   6  -6    8.50    2.50
   6   6  -6    1.70    3.10
   6   6  -6    4.90    2.90
  -6  -6   6    2.90    2.10
  -6  -6   6    3.20    4.70
   5   6  -6   40.40    4.50
   5   6  -6   41.00    3.80
   5   6  -6   42.20    3.70
   5   6  -6   46.50    4.00
   5   6  -6   48.00    4.70
  -5  -6   6   47.20    4.40
  -5  -6   6   41.50    3.60
  -5  -6   6   46.30    4.90
   4   6  -6    2.70    1.70
   4   6  -6    1.90    2.60
   4   6  -6    5.80    1.60
   4   6  -6    4.10    2.20
  -4  -6   6    2.50    1.30
  -4  -6   6    4.70    2.20
  -4  -6   6    4.10    1.50
  -4  -6   6    6.60    2.90
   3   6  -6   12.70    2.00
   3   6  -6   10.50    1.80
   3   6  -6   10.60    1.80
   3   6  -6   12.80    1.60
   3   6  -6    9.90    1.60
  -3  -6   6    9.00    1.80
  -3  -6   6   11.70    2.50
  -3  -6   6   13.20    1.90
  -3  -6   6   12.40    1.50
   2   6  -6   68.39    2.90
   2   6  -6   69.69    2.80
   2   6  -6   65.89    3.20
   2   6  -6   60.59    3.70
   2   6  -6   64.49    2.80
  -2  -6   6   71.89    3.80
  -2  -6   6   57.69    2.70
  -2  -6   6   69.89    4.00
  -2  -6   6   63.79    2.50
  -2  -6   6   65.99    3.20
  -2  -6   6   68.69    3.30
   1   6  -6 1142.79   22.10
   1   6  -6 1141.49   22.20
   1   6  -6 1151.48   23.10
   1   6  -6 1163.68   22.30
   1   6  -6 1158.08   22.70
  -1  -6   6 1147.09   23.50
  -1  -6   6 1152.78   23.30
  -1  -6   6 1131.39   22.70
  -1  -6   6 1139.39   22.10
  -1  -6   6 1159.88   21.80
  -1  -6   6 1182.68   22.70
   0   6  -6    0.70    1.20
   0   6  -6    3.70    1.20
   0   6  -6    3.20    1.10
   0   6  -6    1.40    1.60
   0   6  -6    4.80    1.30
   0  -6   6    1.50    1.10
   0  -6   6    1.10    1.50
   0  -6   6    3.70    1.30
   0  -6   6    2.40    1.60
   0  -6   6    4.10    1.80
   0  -6   6    2.00    1.60
  -1   6  -6   33.50    2.60
  -1   6  -6   33.60    2.30
  -1   6  -6   37.10    2.40
  -1   6  -6   35.60    3.20
  -1   6  -6   37.30    2.50
   1  -6   6   35.30    2.70
   1  -6   6   33.70    2.90
   1  -6   6   29.80    2.00
   1  -6   6   31.30    2.80
   1  -6   6   34.00    2.90
   1  -6   6   32.90    2.90
  -2   6  -6  126.39    5.30
  -2   6  -6  123.29    4.40
  -2   6  -6  126.89    4.40
  -2   6  -6  129.19    4.80
  -2   6  -6  127.39    4.00
   2  -6   6  124.89    4.90
   2  -6   6  126.69    4.70
   2  -6   6  123.99    5.20
   2  -6   6  123.29    4.60
   2  -6   6  127.69    5.00
   2  -6   6  128.69    4.10
  -3   6  -6   10.20    1.30
  -3   6  -6   15.70    2.70
  -3   6  -6   11.30    2.00
  -3   6  -6   11.10    1.80
  -3   6  -6   11.10    2.10
   3  -6   6   12.80    2.20
   3  -6   6   11.40    2.50
   3  -6   6   11.10    1.80
   3  -6   6    7.30    2.20
   3  -6   6   11.20    2.20
   3  -6   6   10.50    1.70
  -4   6  -6   -0.80    1.80
  -4   6  -6    1.10    1.00
  -4   6  -6    1.10    1.90
  -4   6  -6    0.10    2.20
  -4   6  -6    2.30    2.40
   4  -6   6    1.70    1.60
   4  -6   6    5.90    2.40
   4  -6   6    0.80    2.00
   4  -6   6   -2.40    2.40
   4  -6   6    2.70    1.80
  -5   6  -6   15.70    2.90
  -5   6  -6   11.00    3.80
  -5   6  -6   15.30    2.30
  -5   6  -6   14.70    2.60
  -5   6  -6   14.20    1.30
   5  -6   6   19.30    4.20
   5  -6   6   14.40    3.20
   5  -6   6   15.60    2.70
   5  -6   6   11.90    3.50
   5  -6   6   17.10    3.00
  -6   6  -6    0.40    2.50
  -6   6  -6    3.20    3.50
  -6   6  -6   -0.20    2.40
  -6   6  -6   -2.40    2.90
   6  -6   6    7.70    3.70
   6  -6   6    3.20    4.80
   6  -6   6    1.80    3.20
   6  -6   6   -1.70    2.80
   6  -6   6   -3.00    3.20
  -7   6  -6   11.00    3.10
  -7   6  -6    8.70    3.30
   7  -6   6    5.80    4.20
   7  -6   6    9.20    4.40
   7  -6   6   12.00    4.80
   7  -6   6   15.60    4.50
   7  -6   6   11.40    3.90
   6   5  -6   15.50    3.20
   6   5  -6   12.00    2.00
   6   5  -6    5.50    2.90
   6   5  -6   13.90    2.60
   6   5  -6   10.60    2.90
  -6  -5   6   12.60    3.90
  -6  -5   6    1.20    3.20
  -6  -5   6   13.80    2.10
   5   5  -6   97.59    4.50
   5   5  -6   93.69    4.80
   5   5  -6   89.99    3.90
   5   5  -6   87.99    4.30
  -5  -5   6   74.89    7.10
  -5  -5   6   98.99    4.80
  -5  -5   6   88.49    3.70
   4   5  -6    7.70    1.90
   4   5  -6    4.20    1.50
   4   5  -6    7.30    1.30
   4   5  -6    5.90    1.50
   4   5  -6    8.40    1.60
  -4  -5   6    7.30    2.00
  -4  -5   6    8.30    1.50
  -4  -5   6    7.40    2.30
   3   5  -6  402.76    8.70
   3   5  -6  380.86   10.20
   3   5  -6  418.56    9.40
   3   5  -6  403.16    8.80
   3   5  -6  406.26    8.80
  -3  -5   6  410.76   10.30
  -3  -5   6  407.06    8.90
  -3  -5   6  400.86    8.20
  -3  -5   6  376.56    9.30
  -3  -5   6  401.46    8.40
   2   5  -6    0.10    0.80
   2   5  -6    2.30    1.00
   2   5  -6    0.60    1.10
   2   5  -6    1.20    0.80
   2   5  -6   -0.10    1.10
  -2  -5   6    0.90    1.50
  -2  -5   6    0.70    1.00
  -2  -5   6   -1.20    1.40
  -2  -5   6    2.10    0.80
  -2  -5   6    0.50    0.80
  -2  -5   6   -1.00    1.10
   1   5  -6 1380.16   26.30
   1   5  -6 1403.96   25.90
   1   5  -6 1377.26   26.50
   1   5  -6 1342.27   25.70
  -1  -5   6 1361.56   26.10
  -1  -5   6 1376.36   26.30
  -1  -5   6 1369.46   25.80
  -1  -5   6 1381.46   26.60
  -1  -5   6 1324.17   25.40
  -1  -5   6 1377.06   27.00
   0   5  -6 1096.69   21.20
   0   5  -6 1056.79   21.10
   0   5  -6 1101.89   21.10
   0   5  -6 1130.89   21.40
   0   5  -6 1096.49   21.80
   0  -5   6 1096.19   21.90
   0  -5   6 1082.09   21.60
   0  -5   6 1087.49   21.70
   0  -5   6 1076.09   21.20
   0  -5   6 1108.09   20.70
   0  -5   6 1117.29   21.50
  -1   5  -6    9.60    1.40
  -1   5  -6   10.50    1.40
  -1   5  -6   10.30    1.30
  -1   5  -6    7.90    1.70
  -1   5  -6    9.50    1.40
   1  -5   6    9.90    1.80
   1  -5   6   10.70    1.70
   1  -5   6   10.90    1.20
   1  -5   6   11.60    1.50
   1  -5   6    7.50    1.50
   1  -5   6    9.30    1.50
  -2   5  -6   59.79    3.10
  -2   5  -6   70.19    3.10
  -2   5  -6   70.89    2.80
  -2   5  -6   66.19    3.40
  -2   5  -6   68.19    3.40
   2  -5   6   67.09    3.80
   2  -5   6   66.89    3.40
   2  -5   6   67.29    2.90
   2  -5   6   63.39    3.50
   2  -5   6   66.29    3.40
   2  -5   6   68.69    3.20
  -3   5  -6  643.14   15.00
  -3   5  -6  648.34   14.30
  -3   5  -6  655.83   14.30
  -3   5  -6  646.04   13.10
  -3   5  -6  656.13   14.00
   3  -5   6  645.04   13.90
   3  -5   6  654.83   14.60
   3  -5   6  657.63   15.10
   3  -5   6  656.93   14.70
   3  -5   6  655.73   14.40
   3  -5   6  648.94   13.70
  -4   5  -6   56.79    4.50
  -4   5  -6   51.09    3.40
  -4   5  -6   50.79    3.70
  -4   5  -6   56.69    3.90
  -4   5  -6   48.10    2.30
   4  -5   6   46.40    4.20
   4  -5   6   50.59    4.60
   4  -5   6   51.29    4.00
  -5   5  -6  116.79    3.00
  -5   5  -6  114.99    6.00
  -5   5  -6  112.99    6.20
  -5   5  -6  123.19    5.70
   5  -5   6  120.49    6.30
   5  -5   6  118.89    5.90
   5  -5   6  130.99    5.70
   5  -5   6  122.79    6.60
   5  -5   6  109.09    6.00
  -6   5  -6  189.58    6.80
  -6   5  -6  180.88    7.70
  -6   5  -6  205.08    8.50
  -6   5  -6  179.48    8.30
   6  -5   6  198.48    8.40
   6  -5   6  192.58    8.80
   6  -5   6  190.38    7.70
   6  -5   6  188.18    7.80
   6  -5   6  185.78    8.40
  -7   5  -6   18.60    4.00
  -7   5  -6   15.90    3.20
  -7   5  -6   13.90    3.20
  -7   5  -6   11.70    3.70
   7  -5   6   19.10    4.40
   7  -5   6   27.70    5.30
   7  -5   6   19.50    4.00
   7  -5   6   17.80    5.30
   7  -5   6   12.30    4.90
   6   4  -6  120.69    5.30
   6   4  -6  130.79    5.30
   6   4  -6  129.89    4.50
   6   4  -6  127.29    5.20
  -6  -4   6  125.19    5.30
  -6  -4   6  130.19    6.10
  -6  -4   6  120.19    4.10
   5   4  -6    2.30    1.40
   5   4  -6    2.50    1.70
   5   4  -6    6.20    1.80
   5   4  -6    1.80    1.60
   5   4  -6    1.80    1.00
  -5  -4   6    2.10    2.00
  -5  -4   6    3.70    2.20
  -5  -4   6    2.10    1.30
   4   4  -6   19.10    1.90
   4   4  -6   18.90    1.80
   4   4  -6   19.20    1.80
   4   4  -6   17.60    1.90
  -4  -4   6   16.00    1.80
  -4  -4   6   17.20    2.60
   3   4  -6  520.55   10.50
   3   4  -6  503.25   10.40
   3   4  -6  530.05   11.10
   3   4  -6  526.35   11.30
   3   4  -6  517.55   10.60
  -3  -4   6  523.75   12.00
  -3  -4   6  526.55   11.10
  -3  -4   6  510.95   10.70
   2   4  -6   43.30    2.10
   2   4  -6   42.70    2.50
   2   4  -6   45.40    2.00
   2   4  -6   40.70    2.00
   2   4  -6   45.30    1.80
  -2  -4   6   48.50    2.40
  -2  -4   6   41.00    2.90
  -2  -4   6   42.30    1.70
  -2  -4   6   46.70    1.60
  -2  -4   6   43.30    1.90
  -2  -4   6   44.70    2.10
   1   4  -6  533.75   11.30
   1   4  -6  539.95   11.00
   1   4  -6  543.45   11.50
   1   4  -6  541.75   10.80
   1   4  -6  543.15   10.80
  -1  -4   6  535.05   11.30
  -1  -4   6  540.25   10.90
  -1  -4   6  548.05   11.30
  -1  -4   6  537.35   12.00
  -1  -4   6  540.65   10.50
  -1  -4   6  553.04   11.10
   0   4  -6  209.58    5.20
   0   4  -6  207.28    5.50
   0   4  -6  208.58    5.10
   0   4  -6  206.68    5.60
   0   4  -6  203.48    5.20
   0  -4   6  205.18    5.80
   0  -4   6  206.98    5.50
   0  -4   6  197.68    5.50
   0  -4   6  199.28    5.20
   0  -4   6  204.78    5.30
   0  -4   6  204.48    4.70
  -1   4  -6  405.66    9.00
  -1   4  -6  417.96    9.20
  -1   4  -6  397.66    9.50
  -1   4  -6  408.56    9.10
  -1   4  -6  414.96    9.10
   1  -4   6  409.86    9.40
   1  -4   6  414.86    8.70
   1  -4   6  406.86    9.20
   1  -4   6  402.46    9.30
   1  -4   6  409.96    9.40
   1  -4   6  402.76    9.60
  -2   4  -6  199.18    5.70
  -2   4  -6  201.78    5.60
  -2   4  -6  187.58    5.60
  -2   4  -6  196.28    5.10
  -2   4  -6  192.88    5.90
   2  -4   6  191.38    5.80
   2  -4   6  198.18    5.60
   2  -4   6  192.68    5.60
   2  -4   6  198.08    5.80
   2  -4   6  196.58    6.10
   2  -4   6  201.58    5.30
  -3   4  -6  179.88    5.80
  -3   4  -6  187.18    5.70
  -3   4  -6  176.78    6.30
  -3   4  -6  174.98    4.70
  -3   4  -6  181.38    5.50
   3  -4   6  167.08    5.90
   3  -4   6  181.78    5.70
   3  -4   6  176.98    6.20
   3  -4   6  190.08    6.30
   3  -4   6  184.28    5.50
  -4   4  -6  164.48    6.20
  -4   4  -6  186.88    6.10
  -4   4  -6  166.28    4.40
  -4   4  -6  163.98    6.50
  -4   4  -6  163.58    5.70
   4  -4   6  169.38    6.30
   4  -4   6  165.38    6.60
   4  -4   6  165.68    5.90
   4  -4   6  174.08    6.40
   4  -4   6  167.28    5.90
  -5   4  -6  512.95   12.10
  -5   4  -6  492.55   13.00
  -5   4  -6  490.75   11.80
  -5   4  -6  498.05   13.00
  -5   4  -6  491.15    9.60
   5  -4   6  515.05   13.80
   5  -4   6  486.45   12.90
   5  -4   6  501.15   13.00
   5  -4   6  510.25   13.30
   5  -4   6  473.45   12.30
  -6   4  -6  115.19    5.30
  -6   4  -6  110.39    6.50
  -6   4  -6  114.79    5.60
  -6   4  -6  114.89    6.60
   6  -4   6  103.29    6.50
   6  -4   6  107.49    6.00
   6  -4   6  114.69    6.80
   6  -4   6  112.19    7.30
   6  -4   6  102.29    6.90
  -7   4  -6   21.00    4.80
  -7   4  -6   27.80    3.40
  -7   4  -6   22.90    3.40
  -7   4  -6   29.40    4.10
   7  -4   6   24.30    4.90
   7  -4   6   23.40    4.50
   7  -4   6   30.00    4.60
   7  -4   6   21.10    5.70
   7  -4   6   25.10    5.30
   7   3  -6   18.80    2.30
   7   3  -6   24.10    2.80
   7   3  -6   26.00    2.50
   7   3  -6   18.10    2.90
  -7  -3   6   24.00    2.20
   6   3  -6    0.70    1.60
   6   3  -6   -0.30    1.30
   6   3  -6   -1.90    1.50
   6   3  -6   -1.50    1.90
   6   3  -6    0.10    1.80
  -6  -3   6    1.50    2.50
  -6  -3   6    4.40    1.60
  -6  -3   6    0.40    1.00
   5   3  -6  119.39    4.00
   5   3  -6  122.49    4.10
   5   3  -6  107.99    3.60
   5   3  -6  112.99    3.30
   5   3  -6  121.19    4.00
  -5  -3   6  118.29    3.80
  -5  -3   6  122.89    5.40
  -5  -3   6  114.69    3.30
   4   3  -6    0.20    0.70
   4   3  -6    1.50    0.80
   4   3  -6    0.20    1.00
   4   3  -6    0.60    0.70
   4   3  -6    0.50    0.90
  -4  -3   6    1.00    1.50
  -4  -3   6    2.60    0.90
  -4  -3   6    0.90    1.00
   3   3  -6  158.68    4.10
   3   3  -6  162.48    3.80
   3   3  -6  158.78    3.70
   3   3  -6  160.78    3.90
   3   3  -6  161.98    4.80
   3   3  -6  162.48    3.80
  -3  -3   6  164.08    4.10
  -3  -3   6  162.78    5.30
  -3  -3   6  163.28    4.00
   2   3  -6    0.80    1.00
   2   3  -6    2.90    0.70
   2   3  -6    2.20    0.70
   2   3  -6    1.50    0.70
   2   3  -6    1.70    0.60
   2   3  -6    3.80    0.70
  -2  -3   6    1.10    0.90
  -2  -3   6    0.90    1.20
  -2  -3   6    1.60    0.80
  -2  -3   6    2.30    0.70
   1   3  -6  138.59    3.50
   1   3  -6  144.39    3.60
   1   3  -6  140.99    4.30
   1   3  -6  146.39    3.80
   1   3  -6  131.89    4.30
   1   3  -6  148.09    3.90
  -1  -3   6  142.59    3.20
  -1  -3   6  142.09    3.60
  -1  -3   6  142.39    4.60
  -1  -3   6  139.29    3.70
  -1  -3   6  136.49    3.90
   0   3  -6  961.50   19.30
   0   3  -6  997.20   19.10
   0   3  -6  989.60   19.10
   0   3  -6  981.40   19.10
   0   3  -6  983.10   19.40
   0   3  -6  980.60   18.90
   0  -3   6  982.20   18.40
   0  -3   6  994.20   19.40
   0  -3   6 1015.00   19.70
   0  -3   6  987.10   19.10
   0  -3   6  965.10   19.00
   0  -3   6 1018.20   19.10
  -1   3  -6  455.75   10.10
  -1   3  -6  453.55    9.90
  -1   3  -6  466.45   10.00
  -1   3  -6  461.25    9.90
  -1   3  -6  449.95    9.90
  -1   3  -6  459.25   10.40
   1  -3   6  465.75   10.40
   1  -3   6  461.15   10.20
   1  -3   6  453.75   10.00
   1  -3   6  460.15   10.20
   1  -3   6  459.25    9.60
   1  -3   6  459.25   10.10
  -2   3  -6 1504.55   29.00
  -2   3  -6 1541.95   29.40
  -2   3  -6 1492.45   28.60
  -2   3  -6 1546.35   29.20
  -2   3  -6 1532.45   29.70
  -2   3  -6 1499.05   29.10
   2  -3   6 1514.55   29.50
   2  -3   6 1503.55   29.50
   2  -3   6 1527.75   28.90
   2  -3   6 1485.15   29.00
   2  -3   6 1539.95   29.30
  -3   3  -6   77.09    4.10
  -3   3  -6   80.99    3.00
  -3   3  -6   78.69    4.00
  -3   3  -6   78.39    3.90
  -3   3  -6   86.39    4.10
   3  -3   6   77.99    3.60
   3  -3   6   76.89    3.60
   3  -3   6   74.69    4.00
   3  -3   6   80.39    3.90
   3  -3   6   78.69    4.10
  -4   3  -6  501.25   10.40
  -4   3  -6  487.45   12.30
  -4   3  -6  505.95   12.50
  -4   3  -6  519.05   12.00
  -4   3  -6  504.05   11.60
   4  -3   6  504.65   12.50
   4  -3   6  509.25   12.60
   4  -3   6  511.55   12.00
   4  -3   6  495.25   11.80
   4  -3   6  494.15   12.20
  -5   3  -6   27.20    3.20
  -5   3  -6   22.90    4.70
  -5   3  -6   24.70    3.40
  -5   3  -6   31.80    3.30
  -5   3  -6   26.30    1.60
   5  -3   6   28.00    4.00
   5  -3   6   27.20    3.20
   5  -3   6   28.40    3.60
  -6   3  -6    0.70    2.50
  -6   3  -6    3.90    3.60
  -6   3  -6    4.50    3.20
  -6   3  -6    3.40    2.40
   6  -3   6    0.30    3.00
   6  -3   6    2.40    3.10
   6  -3   6    4.10    3.20
   6  -3   6    2.00    3.40
   6  -3   6    2.50    3.40
  -7   3  -6    2.60    3.30
  -7   3  -6   -5.50    3.40
  -7   3  -6    1.50    3.30
  -7   3  -6    0.90    2.20
   7  -3   6    2.70    4.50
   7  -3   6    4.30    4.10
   7  -3   6    4.80    3.20
   7  -3   6    0.40    4.90
   7  -3   6    3.80    4.20
   7   2  -6    5.00    2.50
   7   2  -6    0.40    1.60
   7   2  -6    4.00    1.90
   7   2  -6    0.90    1.60
   7   2  -6    0.60    1.90
   6   2  -6  117.39    3.90
   6   2  -6  114.79    3.70
   6   2  -6  108.69    3.90
   6   2  -6  112.39    3.90
   6   2  -6  116.99    3.70
   5   2  -6    8.40    1.10
   5   2  -6    8.10    1.10
   5   2  -6   10.50    1.20
   5   2  -6    8.40    1.30
   5   2  -6    8.90    0.80
   5   2  -6   10.30    1.40
  -5  -2   6    9.20    0.90
  -5  -2   6    7.80    0.80
   4   2  -6  173.68    4.00
   4   2  -6  179.78    5.00
   4   2  -6  172.68    3.90
   4   2  -6  163.98    3.90
   4   2  -6  172.48    3.80
   4   2  -6  172.28    4.00
  -4  -2   6  173.68    3.60
  -4  -2   6  168.58    5.70
  -4  -2   6  174.28    3.70
   3   2  -6  178.98    4.00
   3   2  -6  177.98    3.80
   3   2  -6  179.68    4.20
   3   2  -6  181.98    5.10
   3   2  -6  178.68    3.70
   3   2  -6  171.48    3.90
  -3  -2   6  181.88    3.90
  -3  -2   6  176.38    5.50
  -3  -2   6  187.38    3.90
   2   2  -6  293.27    6.20
   2   2  -6  296.07    6.30
   2   2  -6  306.27    6.50
   2   2  -6  296.07    5.90
   2   2  -6  308.47    7.20
   2   2  -6  299.67    5.90
  -2  -2   6  302.27    6.30
  -2  -2   6  294.07    7.40
  -2  -2   6  300.87    6.20
  -2  -2   6  295.07    6.40
   1   2  -6  252.77    6.30
   1   2  -6  250.67    5.30
   1   2  -6  249.18    5.60
   1   2  -6  244.68    5.70
   1   2  -6  257.37    5.50
   1   2  -6  250.17    5.70
  -1  -2   6  243.88    4.90
  -1  -2   6  247.18    5.60
  -1  -2   6  246.78    5.10
  -1  -2   6  247.08    5.70
  -1  -2   6  253.07    5.50
  -1  -2   6  248.28    6.50
   0   2  -6   73.89    3.00
   0   2  -6   77.79    2.80
   0   2  -6   74.99    2.80
   0   2  -6   76.79    2.60
   0   2  -6   75.79    2.70
   0   2  -6   78.99    2.80
   0  -2   6   77.79    2.70
   0  -2   6   71.49    2.70
   0  -2   6   76.99    2.90
   0  -2   6   76.29    2.20
  -1   2  -6 1177.78   22.90
  -1   2  -6 1237.18   23.30
  -1   2  -6 1194.38   23.10
  -1   2  -6 1212.48   23.40
  -1   2  -6 1176.08   23.00
  -1   2  -6 1183.98   22.90
   1  -2   6 1197.68   23.00
   1  -2   6 1206.98   22.70
   1  -2   6 1186.68   22.90
   1  -2   6 1194.38   23.30
   1  -2   6 1180.18   23.30
  -2   2  -6  944.01   18.50
  -2   2  -6  933.71   18.70
  -2   2  -6  934.41   18.30
  -2   2  -6  918.61   18.50
  -2   2  -6  933.91   19.00
  -2   2  -6  919.31   19.00
   2  -2   6  902.21   19.00
   2  -2   6  941.01   18.50
   2  -2   6  929.51   18.70
   2  -2   6  913.11   18.50
   2  -2   6  926.61   19.00
  -3   2  -6  509.55   12.20
  -3   2  -6  510.65   12.10
  -3   2  -6  514.75   11.00
  -3   2  -6  527.95   11.90
  -3   2  -6  526.75   11.60
  -3   2  -6  518.35   11.60
   3  -2   6  511.75   12.20
   3  -2   6  516.35   12.30
   3  -2   6  520.45   11.70
   3  -2   6  528.95   11.60
  -4   2  -6  107.49    5.00
  -4   2  -6   98.59    4.20
  -4   2  -6   98.79    5.00
  -4   2  -6   99.89    4.60
  -4   2  -6   95.79    3.40
   4  -2   6   92.09    5.00
   4  -2   6   99.89    5.10
   4  -2   6   98.99    4.70
   4  -2   6   93.99    4.20
   4  -2   6   97.79    5.10
  -5   2  -6  298.27    9.60
  -5   2  -6  295.47    6.70
  -5   2  -6  285.07    9.60
  -5   2  -6  287.27    8.20
  -5   2  -6  297.37    9.50
   5  -2   6  309.67    9.20
   5  -2   6  300.27    8.60
   5  -2   6  299.57    9.50
   5  -2   6  299.07    9.00
   5  -2   6  305.07    9.80
  -6   2  -6  582.74   15.20
  -6   2  -6  618.64   15.60
  -6   2  -6  654.53   16.50
   6  -2   6  641.84   16.10
   6  -2   6  627.74   15.80
   6  -2   6  607.74   15.50
   6  -2   6  630.74   16.60
   6  -2   6  623.54   14.60
  -7   2  -6   23.80    3.30
  -7   2  -6   12.80    3.50
  -7   2  -6   14.00    3.30
  -7   2  -6   24.20    4.60
   7  -2   6   20.50    5.70
   7  -2   6   24.30    3.80
   7  -2   6   18.50    4.60
   7  -2   6   13.00    4.30
   7  -2   6   14.10    4.00
   7   1  -6    7.00    1.90
   7   1  -6    3.00    1.30
   7   1  -6    4.60    0.80
   7   1  -6    3.90    1.30
   7   1  -6    3.90    1.90
   7   1  -6    3.20    1.20
   6   1  -6   39.00    2.40
   6   1  -6   41.60    2.50
   6   1  -6   43.30    2.30
   6   1  -6   43.40    1.40
   6   1  -6   36.80    2.40
   5   1  -6   14.30    1.60
   5   1  -6   20.20    0.70
   5   1  -6   18.30    1.40
   5   1  -6   19.30    1.70
   5   1  -6   18.40    0.70
   5   1  -6   18.40    1.30
   4   1  -6  534.75   10.10
   4   1  -6  546.55   10.90
   4   1  -6  558.14   11.60
   4   1  -6  542.25   10.20
   3   1  -6  809.42   14.90
   3   1  -6  810.22   14.90
   3   1  -6  852.81   16.70
   3   1  -6  838.62   15.00
   3   1  -6  865.71   16.00
   3   1  -6  805.72   15.00
   2   1  -6  797.12   14.90
   2   1  -6  842.52   16.40
   2   1  -6  779.32   14.70
   2   1  -6  794.12   15.00
   2   1  -6  808.52   15.60
   2   1  -6  801.02   14.80
  -2  -1   6  839.62   15.70
  -2  -1   6  809.62   14.80
  -2  -1   6  799.32   14.90
   1   1  -6 1099.89   20.70
   1   1  -6 1085.29   20.40
   1   1  -6 1106.59   21.00
   1   1  -6 1098.79   20.70
   1   1  -6 1131.29   21.60
   1   1  -6 1105.69   20.60
  -1  -1   6 1091.29   20.80
  -1  -1   6 1125.19   20.70
  -1  -1   6 1085.09   20.60
   0   1  -6    5.70    1.00
   0   1  -6    7.30    1.30
   0   1  -6    4.90    1.00
   0   1  -6    6.00    1.00
   0   1  -6    6.60    1.00
   0   1  -6    7.80    1.10
   0  -1   6    5.70    1.00
   0  -1   6    6.00    0.80
   0  -1   6    5.30    1.00
   0  -1   6    6.50    1.10
   0  -1   6    6.70    1.00
  -1   1  -6   41.00    2.40
  -1   1  -6   41.30    2.30
  -1   1  -6   37.00    2.20
  -1   1  -6   33.70    2.30
  -1   1  -6   36.30    2.40
   1  -1   6   36.90    2.40
   1  -1   6   38.40    2.20
   1  -1   6   38.90    2.40
   1  -1   6   34.50    2.10
   1  -1   6   35.70    2.10
  -2   1  -6  341.37    8.00
  -2   1  -6  334.57    8.50
  -2   1  -6  329.37    7.90
  -2   1  -6  333.67    8.30
  -2   1  -6  327.57    8.20
   2  -1   6  337.07    7.90
   2  -1   6  338.77    8.60
   2  -1   6  329.47    8.40
   2  -1   6  342.37    8.10
   2  -1   6  331.67    8.00
  -3   1  -6  321.17    7.90
  -3   1  -6  313.57    7.80
  -3   1  -6  319.67    8.30
  -3   1  -6  307.97    8.40
  -3   1  -6  305.67    8.60
   3  -1   6  320.47    8.80
   3  -1   6  313.07    8.50
   3  -1   6  323.37    8.20
   3  -1   6  317.77    8.10
   3  -1   6  308.97    7.80
  -4   1  -6    4.00    1.70
  -4   1  -6    5.10    2.00
  -4   1  -6    4.10    1.90
  -4   1  -6    7.10    1.60
  -4   1  -6    5.20    2.40
   4  -1   6    8.50    2.10
   4  -1   6    4.20    2.30
   4  -1   6    2.10    2.10
   4  -1   6    5.00    1.60
   4  -1   6    9.60    2.50
  -5   1  -6  371.76    9.60
  -5   1  -6  364.26   11.00
  -5   1  -6  356.86   10.40
  -5   1  -6  378.06   10.70
  -5   1  -6  377.26    8.60
   5  -1   6  362.16   11.10
   5  -1   6  367.56   10.20
   5  -1   6  374.66   10.60
   5  -1   6  381.86   11.20
   5  -1   6  384.96    9.50
  -6   1  -6   58.19    2.70
  -6   1  -6   55.99    5.40
  -6   1  -6   60.49    5.40
  -6   1  -6   59.29    6.20
  -6   1  -6   60.09    4.70
  -6   1  -6   59.09    2.30
   6  -1   6   52.39    5.00
   6  -1   6   57.09    5.10
   6  -1   6   74.69    5.50
   6  -1   6   61.69    5.80
   6  -1   6   62.59    6.40
  -7   1  -6   12.30    3.70
  -7   1  -6    8.80    3.00
   7  -1   6    8.80    4.80
   7  -1   6    6.60    5.10
   7  -1   6    3.40    3.50
   7  -1   6    8.50    3.70
   7  -1   6    4.00    5.30
   7   0  -6   38.90    3.20
   7   0  -6   37.20    3.10
   7   0  -6   46.20    3.40
   7   0  -6   38.10    2.10
   6   0  -6   36.00    2.60
   6   0  -6   41.20    2.60
   6   0  -6   45.20    2.30
   6   0  -6   42.70    2.50
   5   0  -6  133.39    2.90
   5   0  -6  128.89    3.20
   5   0  -6  130.59    4.20
   5   0  -6  130.89    4.00
   4   0  -6  553.54   11.40
   4   0  -6  563.14   11.90
   3   0  -6  183.38    4.60
   3   0  -6  183.98    5.30
   2   0  -6   54.69    2.80
   2   0  -6   58.49    2.30
   2   0  -6   53.99    1.50
   2   0  -6   55.39    1.40
   2   0  -6   55.99    1.70
   2   0  -6   55.99    1.50
  -2   0   6   53.69    1.50
  -2   0   6   56.39    1.50
   1   0  -6  555.44   11.10
   1   0  -6  573.64   10.90
   1   0  -6  565.14   11.30
   1   0  -6  562.64   11.00
   1   0  -6  574.74   11.50
  -1   0   6  552.64   10.30
  -1   0   6  552.24   10.30
  -1   0   6  572.34   11.10
  -1   0   6  573.64   11.30
  -1   0   6  565.44   11.50
   0   0  -6  290.77    6.80
   0   0  -6  296.67    6.60
   0   0  -6  287.97    6.90
   0   0  -6  291.47    6.60
   0   0  -6  295.27    6.80
   0   0   6  295.97    6.70
   0   0   6  296.47    6.20
   0   0   6  292.67    6.40
   0   0   6  289.77    6.90
   0   0   6  292.77    6.70
  -1   0  -6   17.70    1.80
  -1   0  -6   16.10    1.80
  -1   0  -6   15.40    1.70
  -1   0  -6   18.00    1.90
   1   0   6   17.50    1.80
   1   0   6   18.30    1.70
   1   0   6   19.30    1.90
   1   0   6   21.80    1.80
   1   0   6   17.20    1.90
  -2   0  -6  174.78    5.10
  -2   0  -6  182.68    5.80
  -2   0  -6  171.98    5.40
  -2   0  -6  175.58    5.10
  -2   0  -6  174.78    5.40
   2   0   6  176.78    5.10
   2   0   6  172.68    5.70
   2   0   6  171.58    5.40
   2   0   6  172.48    5.00
   2   0   6  176.88    5.30
  -3   0  -6  102.79    4.20
  -3   0  -6  105.29    4.10
  -3   0  -6  101.19    4.50
  -3   0  -6  109.59    4.50
  -3   0  -6  102.19    4.90
   3   0   6  101.19    4.20
   3   0   6  101.79    4.80
   3   0   6  108.79    4.60
   3   0   6   97.89    4.30
   3   0   6  108.69    3.90
  -4   0  -6   31.90    3.10
  -4   0  -6   25.70    2.40
  -4   0  -6   29.40    3.30
  -4   0  -6   24.60    2.80
  -4   0  -6   27.30    3.40
   4   0   6   23.30    2.90
   4   0   6   24.40    2.60
   4   0   6   30.00    3.30
   4   0   6   30.40    2.70
   4   0   6   25.80    3.00
  -5   0  -6    4.60    3.80
  -5   0  -6   -0.20    2.70
  -5   0  -6    6.20    1.40
  -5   0  -6    3.60    2.90
   5   0   6   13.20    3.40
   5   0   6    3.60    2.70
   5   0   6    1.50    2.70
   5   0   6    5.40    2.20
   5   0   6    6.80    2.40
  -6   0  -6  100.49    7.90
  -6   0  -6  113.19    5.70
  -6   0  -6  114.79    6.60
  -6   0  -6  113.09    3.70
  -6   0  -6  130.99    7.70
  -6   0  -6  105.59    4.60
   6   0   6  110.19    6.40
   6   0   6  125.59    8.60
   6   0   6  123.19    7.30
   6   0   6  110.09    8.20
   6   0   6  118.39    5.80
   7  -1  -6    4.40    1.10
   7  -1  -6    6.40    2.10
   7  -1  -6    3.80    2.10
   7  -1  -6    6.50    2.00
   6  -1  -6  112.99    3.50
   6  -1  -6  117.99    4.50
   6  -1  -6  108.89    3.30
   6  -1  -6  112.59    3.80
   5  -1  -6  466.75    8.90
   5  -1  -6  458.55    8.90
   5  -1  -6  477.15   10.40
   5  -1  -6  481.05   10.50
   4  -1  -6   65.99    3.10
   4  -1  -6   68.09    3.10
   3  -1  -6   43.30    2.30
   3  -1  -6   43.20    1.00
   3  -1  -6   41.50    1.00
   3  -1  -6   42.50    1.10
   3  -1  -6   42.20    1.00
   2  -1  -6  271.77    5.40
   2  -1  -6  268.47    5.60
   2  -1  -6  278.07    5.50
   2  -1  -6  276.27    5.90
   2  -1  -6  272.97    6.50
  -2   1   6  278.47    5.70
  -2   1   6  274.97    5.80
   1  -1  -6  740.33   14.70
   1  -1  -6  746.23   14.00
   1  -1  -6  742.93   14.20
   1  -1  -6  742.83   14.20
   1  -1  -6  749.33   14.50
  -1   1   6  713.73   13.70
  -1   1   6  756.92   14.50
  -1   1   6  722.83   14.20
  -1   1   6  732.03   14.80
  -1   1   6  716.63   13.50
   0  -1  -6  424.06    9.30
   0  -1  -6  421.06    9.10
   0  -1  -6  428.56    9.10
   0  -1  -6  434.96    9.50
   0  -1  -6  422.86    9.10
   0   1   6  426.36    9.00
   0   1   6  422.86    8.40
   0   1   6  418.06    9.40
   0   1   6  427.06    9.20
   0   1   6  430.36    9.20
  -1  -1  -6  816.92   16.60
  -1  -1  -6  828.32   17.00
  -1  -1  -6  820.02   16.50
  -1  -1  -6  816.02   16.40
  -1  -1  -6  813.02   16.60
   1   1   6  826.62   16.50
   1   1   6  833.72   17.00
   1   1   6  814.62   16.60
   1   1   6  810.02   16.00
   1   1   6  815.42   16.30
  -2  -1  -6    8.30    1.50
  -2  -1  -6    6.70    1.50
  -2  -1  -6    9.80    1.50
  -2  -1  -6    9.70    1.70
  -2  -1  -6    6.50    1.60
   2   1   6    8.80    1.70
   2   1   6    8.80    1.60
   2   1   6    8.20    1.40
   2   1   6    9.30    1.40
   2   1   6    8.10    1.90
  -3  -1  -6  568.04   13.20
  -3  -1  -6  577.24   12.60
  -3  -1  -6  561.34   13.70
  -3  -1  -6  581.84   13.00
  -3  -1  -6  563.64   12.50
   3   1   6  580.54   13.20
   3   1   6  556.84   13.00
   3   1   6  557.14   12.50
   3   1   6  554.84   12.20
   3   1   6  574.04   13.80
  -4  -1  -6   94.09    4.20
  -4  -1  -6   88.59    5.20
  -4  -1  -6   93.79    4.80
  -4  -1  -6   87.19    5.60
  -4  -1  -6   93.59    4.10
   4   1   6   94.19    5.10
   4   1   6   97.89    4.30
   4   1   6   87.39    5.60
   4   1   6   88.29    4.40
   4   1   6   89.39    5.10
  -5  -1  -6    7.30    2.50
  -5  -1  -6    2.40    1.90
  -5  -1  -6    2.60    3.00
  -5  -1  -6   -1.80    3.30
  -5  -1  -6    2.90    1.40
  -5  -1  -6    0.20    1.80
   5   1   6   -1.90    2.10
   5   1   6   -0.20    3.30
   5   1   6   -6.80    2.70
   5   1   6   -0.60    2.00
   5   1   6   -4.30    2.50
  -6  -1  -6    6.40    2.00
  -6  -1  -6    3.30    2.40
  -6  -1  -6   -0.50    3.70
  -6  -1  -6    7.60    4.80
  -6  -1  -6    9.40    3.20
   6   1   6   -3.50    3.70
   6   1   6    1.10    4.70
   6   1   6   -5.90    4.50
   6   1   6    4.80    2.90
   6   1   6    2.70    3.00
   7  -2  -6   30.50    2.00
   7  -2  -6   26.90    2.90
   7  -2  -6   32.10    3.30
   6  -2  -6   77.59    3.30
   6  -2  -6   79.09    3.00
   6  -2  -6   80.19    3.00
   6  -2  -6   80.59    4.50
   5  -2  -6  101.39    2.60
   5  -2  -6  103.39    2.70
   5  -2  -6  102.89    4.10
   5  -2  -6  103.49    4.30
   4  -2  -6   34.50    2.70
   4  -2  -6   36.60    0.90
   4  -2  -6   34.50    1.20
   4  -2  -6   35.40    1.20
   3  -2  -6  282.27    5.80
   3  -2  -6  287.77    5.70
   3  -2  -6  299.37    5.70
   3  -2  -6  288.67    7.20
   3  -2  -6  291.17    6.00
  -3   2   6  280.77    5.70
  -3   2   6  288.77    5.80
   2  -2  -6  223.48    5.90
   2  -2  -6  224.18    5.00
   2  -2  -6  220.68    4.70
   2  -2  -6  225.98    4.80
   2  -2  -6  220.68    5.20
  -2   2   6  227.98    5.30
  -2   2   6  224.88    5.20
   1  -2  -6  465.45    9.50
   1  -2  -6  470.35   10.00
   1  -2  -6  469.05   10.10
   1  -2  -6  477.35    9.70
   1  -2  -6  465.15    9.40
  -1   2   6  461.65    9.00
  -1   2   6  468.55    9.80
  -1   2   6  464.55    9.40
   0  -2  -6 1569.74   30.00
   0  -2  -6 1593.14   29.60
   0  -2  -6 1545.05   29.40
   0  -2  -6 1593.84   29.50
   0  -2  -6 1556.04   29.80
   0   2   6 1605.64   29.90
   0   2   6 1529.55   28.80
   0   2   6 1580.14   30.00
   0   2   6 1576.14   29.80
   0   2   6 1555.64   29.50
  -1  -2  -6  535.15   11.60
  -1  -2  -6  532.05   11.50
  -1  -2  -6  524.25   11.30
  -1  -2  -6  529.05   12.10
  -1  -2  -6  524.65   11.40
   1   2   6  525.05   12.00
   1   2   6  539.15   10.90
   1   2   6  531.75   11.70
   1   2   6  521.85   11.30
   1   2   6  528.85   11.60
  -2  -2  -6   10.70    1.80
  -2  -2  -6   11.00    1.80
  -2  -2  -6    9.10    1.60
  -2  -2  -6    9.20    2.20
  -2  -2  -6   10.90    1.90
   2   2   6   10.00    1.70
   2   2   6   10.40    2.20
   2   2   6   11.50    2.00
   2   2   6    7.90    1.80
   2   2   6    9.60    1.50
  -3  -2  -6   55.59    3.80
  -3  -2  -6   50.29    3.60
  -3  -2  -6   60.09    4.60
  -3  -2  -6   55.99    3.70
   3   2   6   57.19    4.40
   3   2   6   55.19    4.00
   3   2   6   54.39    3.40
  -4  -2  -6    1.20    2.40
  -4  -2  -6    0.10    2.00
  -4  -2  -6    6.70    3.00
  -4  -2  -6    4.70    2.20
  -4  -2  -6    0.50    2.00
   4   2   6    2.50    2.50
   4   2   6    5.90    1.90
   4   2   6    3.60    2.50
   4   2   6   -0.50    3.60
   4   2   6    3.10    1.50
  -5  -2  -6   37.20    3.30
  -5  -2  -6   38.90    5.00
  -5  -2  -6   32.80    3.70
  -5  -2  -6   32.60    2.80
  -5  -2  -6   35.70    4.50
  -5  -2  -6   31.50    3.50
   5   2   6   33.50    3.70
   5   2   6   26.70    4.80
   5   2   6   37.70    4.30
   5   2   6   31.50    4.70
   5   2   6   32.00    3.30
  -6  -2  -6    5.50    5.30
  -6  -2  -6    0.70    3.00
  -6  -2  -6   -4.20    4.80
  -6  -2  -6   -4.90    2.10
  -6  -2  -6    0.60    3.20
   6   2   6   -7.70    4.80
   6   2   6   -0.30    4.30
   6   2   6    0.20    4.40
   6   2   6   -2.50    2.50
   7  -3  -6   18.50    1.70
   7  -3  -6   21.10    2.10
   7  -3  -6   16.30    3.80
   7  -3  -6   18.00    2.50
   6  -3  -6   -0.40    2.30
   5  -3  -6    3.50    0.80
   5  -3  -6    5.10    2.10
   5  -3  -6    2.70    0.90
   5  -3  -6    1.10    1.80
   5  -3  -6    3.50    0.80
   5  -3  -6    3.70    0.60
   4  -3  -6 1887.61   34.70
   4  -3  -6 1894.61   34.60
   4  -3  -6 1961.90   36.70
   4  -3  -6 1886.01   34.50
   4  -3  -6 1884.11   34.70
  -4   3   6 1918.81   34.30
  -4   3   6 1914.11   34.40
   3  -3  -6   23.90    1.30
   3  -3  -6   26.10    1.80
   3  -3  -6   21.50    2.40
   3  -3  -6   23.70    1.40
   3  -3  -6   25.80    1.50
  -3   3   6   24.80    1.50
  -3   3   6   23.80    1.60
   2  -3  -6  937.01   18.10
   2  -3  -6  982.00   19.40
   2  -3  -6  983.30   18.70
   2  -3  -6  964.10   18.30
   2  -3  -6  993.20   18.20
  -2   3   6  916.71   17.40
  -2   3   6  990.50   18.90
  -2   3   6  975.00   18.60
  -2   3   6  926.11   17.40
   1  -3  -6  334.57    7.90
   1  -3  -6  315.97    7.20
   1  -3  -6  322.37    7.10
   1  -3  -6  317.77    7.10
   1  -3  -6  324.17    7.80
  -1   3   6  319.57    7.80
  -1   3   6  326.47    7.20
  -1   3   6  317.67    7.60
  -1   3   6  329.77    6.80
   0  -3  -6   65.69    2.80
   0  -3  -6   65.49    3.40
   0  -3  -6   63.19    2.90
   0  -3  -6   64.39    3.10
   0  -3  -6   69.19    2.90
   0   3   6   68.29    3.30
   0   3   6   68.89    3.00
   0   3   6   60.79    2.40
   0   3   6   66.39    3.20
  -1  -3  -6   56.59    3.00
  -1  -3  -6   49.60    3.50
  -1  -3  -6   50.79    2.80
  -1  -3  -6   57.99    3.30
  -1  -3  -6   53.59    2.80
   1   3   6   53.49    3.30
   1   3   6   50.49    3.10
   1   3   6   54.29    2.40
   1   3   6   54.19    3.10
   1   3   6   52.69    3.50
  -2  -3  -6  297.67    8.90
  -2  -3  -6  303.57    8.40
  -2  -3  -6  303.37    7.80
  -2  -3  -6  289.67    7.70
  -2  -3  -6  296.07    7.60
   2   3   6  299.27    8.80
   2   3   6  294.47    8.20
   2   3   6  299.57    8.40
   2   3   6  303.97    7.30
   2   3   6  293.77    7.70
  -3  -3  -6    7.10    1.80
  -3  -3  -6    6.00    2.10
  -3  -3  -6    8.00    2.10
  -3  -3  -6    7.40    2.90
  -3  -3  -6   10.50    2.60
   3   3   6    6.90    1.70
   3   3   6    8.80    2.30
   3   3   6   10.50    2.60
   3   3   6   10.40    2.10
   3   3   6    8.70    2.80
  -4  -3  -6   20.90    3.60
  -4  -3  -6   21.10    2.60
  -4  -3  -6   21.40    4.00
  -4  -3  -6   21.30    2.90
  -4  -3  -6   23.40    2.90
   4   3   6   23.50    4.00
   4   3   6   20.80    2.60
   4   3   6   19.40    3.90
   4   3   6   18.10    2.60
   4   3   6   12.50    3.40
  -5  -3  -6   99.49    5.70
  -5  -3  -6   83.09    8.20
  -5  -3  -6   90.29    5.80
  -5  -3  -6   86.49    5.30
  -5  -3  -6   83.49    5.00
  -5  -3  -6   91.69    8.70
   5   3   6   85.69    8.50
   5   3   6   87.89    5.00
   5   3   6   83.29    5.20
   5   3   6   77.29    7.20
   5   3   6   83.19    8.20
   7  -4  -6   57.59    5.00
   7  -4  -6   54.79    4.50
   7  -4  -6   47.90    2.60
   7  -4  -6   49.90    3.50
   7  -4  -6   52.79    3.10
   6  -4  -6   11.80    2.20
   6  -4  -6   13.10    1.50
   6  -4  -6   14.90    3.30
   6  -4  -6   12.40    1.10
   6  -4  -6    9.00    1.70
   6  -4  -6   11.80    1.30
   5  -4  -6  256.57    5.90
   5  -4  -6  261.17    6.10
   5  -4  -6  256.77    5.70
   5  -4  -6  261.57    8.30
   5  -4  -6  250.37    6.10
  -5   4   6  254.57    5.20
  -5   4   6  257.47    5.10
   4  -4  -6  135.99    4.00
   4  -4  -6  138.09    3.80
   4  -4  -6  133.89    3.60
   4  -4  -6  129.89    6.50
   4  -4  -6  132.99    3.80
  -4   4   6  137.19    3.70
  -4   4   6  140.09    3.90
   3  -4  -6  588.64   12.00
   3  -4  -6  604.64   11.90
   3  -4  -6  600.44   13.60
   3  -4  -6  602.84   12.50
   3  -4  -6  601.64   12.00
  -3   4   6  608.24   12.30
  -3   4   6  606.44   12.50
   2  -4  -6   29.10    2.80
   2  -4  -6   27.20    1.80
   2  -4  -6   31.50    2.60
   2  -4  -6   24.70    2.00
   2  -4  -6   26.60    1.90
  -2   4   6   27.60    1.50
  -2   4   6   29.50    2.30
  -2   4   6   26.90    1.70
  -2   4   6   32.10    2.80
   1  -4  -6  177.88    5.50
   1  -4  -6  170.48    4.80
   1  -4  -6  170.08    4.70
   1  -4  -6  173.38    5.50
   1  -4  -6  175.98    4.60
  -1   4   6  175.48    4.40
  -1   4   6  178.88    5.00
  -1   4   6  166.98    5.30
  -1   4   6  168.38    5.50
   0  -4  -6  123.09    4.10
   0  -4  -6  120.39    4.00
   0  -4  -6  116.59    4.80
   0  -4  -6  124.99    4.60
   0  -4  -6  118.99    4.50
   0   4   6  125.79    4.80
   0   4   6  127.39    4.90
   0   4   6  119.09    4.40
   0   4   6  128.09    3.70
  -1  -4  -6  359.66    8.70
  -1  -4  -6  368.16    9.30
  -1  -4  -6  359.06    9.80
  -1  -4  -6  372.36    8.80
  -1  -4  -6  362.96    9.00
   1   4   6  360.16    9.20
   1   4   6  367.36    9.60
   1   4   6  348.37    8.10
   1   4   6  364.96    9.70
  -2  -4  -6  188.08    6.00
  -2  -4  -6  184.08    6.70
  -2  -4  -6  167.88    8.20
  -2  -4  -6  184.18    7.20
  -2  -4  -6  178.88    6.00
   2   4   6  189.68    6.90
   2   4   6  187.68    5.40
   2   4   6  188.08    6.60
   2   4   6  179.28    7.10
  -3  -4  -6  127.39    5.60
  -3  -4  -6  130.99    5.20
  -3  -4  -6  132.89    5.30
  -3  -4  -6  137.39    7.30
  -3  -4  -6  139.89    7.40
  -3  -4  -6  136.29    6.70
   3   4   6  126.09    6.30
   3   4   6  130.49    4.90
   3   4   6  132.59    6.50
   3   4   6  143.59    7.10
  -4  -4  -6    4.80    2.30
  -4  -4  -6    5.00    2.30
  -4  -4  -6    4.60    2.40
  -4  -4  -6    1.50    3.80
  -4  -4  -6    0.80    2.50
   4   4   6    8.10    3.40
   4   4   6    4.00    2.10
   4   4   6    2.00    3.40
   4   4   6   -2.30    3.90
  -5  -4  -6    1.90    4.60
  -5  -4  -6    1.60    5.40
  -5  -4  -6    2.80    3.30
  -5  -4  -6    0.30    2.20
  -5  -4  -6    0.40    2.90
  -5  -4  -6    3.50    2.80
   5   4   6   -1.90    2.70
   5   4   6   -1.40    5.10
   5   4   6    3.10    4.50
   5   4   6    3.90    4.40
   7  -5  -6  286.77   10.80
   7  -5  -6  297.37    6.10
   7  -5  -6  303.07    7.00
   7  -5  -6  273.97    5.90
   7  -5  -6  298.17    8.80
   7  -5  -6  300.57    8.20
   7  -5  -6  294.77    7.30
   6  -5  -6   19.30    2.20
   6  -5  -6   17.60    1.80
   6  -5  -6   15.10    3.80
   6  -5  -6   18.90    1.90
   6  -5  -6   16.20    2.10
   5  -5  -6   21.10    1.80
   5  -5  -6   25.20    4.10
   5  -5  -6   22.40    2.10
   5  -5  -6   27.10    2.60
   5  -5  -6   22.00    2.10
  -5   5   6   23.60    2.50
  -5   5   6   19.60    2.00
   4  -5  -6  201.48    5.30
   4  -5  -6  209.68    5.30
   4  -5  -6  215.68    7.50
   4  -5  -6  210.28    5.60
   4  -5  -6  202.38    5.80
  -4   5   6  208.48    5.80
  -4   5   6  216.78    5.60
   3  -5  -6  416.46    9.10
   3  -5  -6  423.56    9.80
   3  -5  -6  411.86   10.70
   3  -5  -6  418.06    9.10
   3  -5  -6  416.26    8.90
  -3   5   6  403.26    9.60
  -3   5   6  415.76    9.40
   2  -5  -6   15.80    1.70
   2  -5  -6   24.40    2.10
   2  -5  -6   15.60    1.70
  -2   5   6   17.50    1.70
  -2   5   6   19.30    2.00
   1  -5  -6    8.90    1.50
   1  -5  -6    7.10    1.40
   1  -5  -6    6.70    1.50
   1  -5  -6    5.20    1.90
   1  -5  -6    9.30    2.20
  -1   5   6   10.30    1.30
  -1   5   6    9.00    1.80
  -1   5   6    7.00    1.60
  -1   5   6    9.90    2.10
   0  -5  -6  335.37    8.20
   0  -5  -6  345.67    8.80
   0  -5  -6  336.47    9.50
   0  -5  -6  319.37    8.60
   0   5   6  334.17    7.90
   0   5   6  335.17    9.40
   0   5   6  332.27    9.20
   0   5   6  346.57    8.90
  -1  -5  -6  227.68    6.60
  -1  -5  -6  230.58    7.90
  -1  -5  -6  223.08    6.90
  -1  -5  -6  229.18    7.30
  -1  -5  -6  228.98    6.60
   1   5   6  215.18    6.20
   1   5   6  225.78    7.80
   1   5   6  222.98    7.70
   1   5   6  223.38    7.70
  -2  -5  -6   39.90    3.40
  -2  -5  -6   43.40    4.70
  -2  -5  -6   38.50    3.80
  -2  -5  -6   48.20    4.50
  -2  -5  -6   41.50    3.70
  -2  -5  -6   40.00    3.60
   2   5   6   37.40    3.00
   2   5   6   41.00    3.80
   2   5   6   45.40    5.10
  -3  -5  -6    8.80    2.90
  -3  -5  -6   10.70    2.60
  -3  -5  -6   14.50    3.50
  -3  -5  -6   11.90    2.80
  -3  -5  -6    8.50    2.20
   3   5   6   13.40    2.60
   3   5   6   12.10    3.60
   3   5   6    6.00    3.40
   3   5   6    1.20    3.60
  -4  -5  -6    8.00    5.50
  -4  -5  -6    1.10    2.60
  -4  -5  -6   -2.30    2.80
  -4  -5  -6    0.90    3.00
   4   5   6    2.20    5.00
   4   5   6   -3.20    3.60
   4   5   6    0.10    2.30
   4   5   6    2.60    4.30
   6  -6  -6    6.90    1.90
   6  -6  -6    4.60    2.50
   6  -6  -6    8.10    2.20
   6  -6  -6    3.40    2.50
   6  -6  -6    2.40    2.00
   6  -6  -6    5.30    4.80
  -6   6   6    5.00    1.80
  -6   6   6    0.00    1.50
   5  -6  -6    5.10    2.20
   5  -6  -6    6.40    2.10
   5  -6  -6    4.90    1.90
   5  -6  -6    6.60    3.50
   5  -6  -6    5.90    1.70
  -5   6   6    8.40    1.90
  -5   6   6    7.20    1.90
   4  -6  -6    3.60    1.50
   4  -6  -6    5.30    1.80
   4  -6  -6    8.80    3.70
   4  -6  -6    2.70    1.70
   4  -6  -6    1.30    1.70
  -4   6   6    3.00    1.40
  -4   6   6    1.80    1.60
   3  -6  -6   34.70    3.20
   3  -6  -6   23.80    2.60
   3  -6  -6   34.10    2.70
   3  -6  -6   32.50    3.60
   3  -6  -6   30.60    2.70
  -3   6   6   36.80    3.70
  -3   6   6   27.20    1.80
  -3   6   6   23.70    2.20
  -3   6   6   28.30    1.80
   2  -6  -6  338.97    9.50
   2  -6  -6  351.86    8.20
   2  -6  -6  334.17    9.10
   2  -6  -6  345.77    9.10
   2  -6  -6  348.87    8.30
  -2   6   6  341.17    8.90
  -2   6   6  323.57    7.70
  -2   6   6  342.17    9.30
  -2   6   6  343.27    8.20
   1  -6  -6   55.99    3.90
   1  -6  -6   60.19    4.40
   1  -6  -6   55.19    4.30
   1  -6  -6   56.99    3.20
   1  -6  -6   58.59    4.70
  -1   6   6   59.09    4.00
  -1   6   6   46.50    3.80
  -1   6   6   54.39    2.90
  -1   6   6   46.70    4.20
   0  -6  -6    2.40    1.60
   0  -6  -6   -3.40    1.70
   0  -6  -6    0.70    2.50
   0  -6  -6    0.30    1.70
   0  -6  -6    4.60    2.70
   0   6   6   -2.00    2.40
   0   6   6    5.80    4.20
   0   6   6    6.40    2.40
  -1  -6  -6   26.30    2.80
  -1  -6  -6   26.00    3.10
  -1  -6  -6   25.30    3.30
  -1  -6  -6   20.20    3.80
  -1  -6  -6   30.20    3.00
  -1  -6  -6   28.60    2.80
   1   6   6   21.80    2.40
   1   6   6   24.20    3.20
   1   6   6   22.80    3.50
   1   6   6   26.10    3.90
  -2  -6  -6   -1.90    3.10
  -2  -6  -6   -3.70    3.50
  -2  -6  -6    2.30    2.60
  -2  -6  -6    0.30    2.70
  -2  -6  -6    4.70    3.20
  -2  -6  -6   -2.20    2.00
   2   6   6   -1.00    3.30
   2   6   6   -3.90    3.10
   2   6   6   -5.00    2.80
   2   6   6    0.00    1.90
  -3  -6  -6    2.20    4.00
  -3  -6  -6    8.40    3.30
  -3  -6  -6    1.70    3.00
  -3  -6  -6    3.50    2.90
  -3  -6  -6    0.80    4.80
  -3  -6  -6    3.20    2.60
   3   6   6    0.80    4.40
   3   6   6    1.50    2.90
   3   6   6   -4.20    3.40
   3   6   6   -8.70    4.00
   6  -7  -6   40.80    4.30
   6  -7  -6   38.90    3.60
   6  -7  -6   43.60    3.90
   6  -7  -6   56.29    5.60
   6  -7  -6   38.80    4.00
   6  -7  -6   32.10    3.70
  -6   7   6   41.30    4.20
   5  -7  -6   74.89    4.40
   5  -7  -6   82.89    4.00
   5  -7  -6   76.09    4.90
   5  -7  -6   77.19    4.90
   5  -7  -6   69.49    7.10
   5  -7  -6   84.39    5.20
  -5   7   6   74.59    4.30
  -5   7   6   84.29    5.10
   4  -7  -6   39.80    4.10
   4  -7  -6   33.00    3.10
   4  -7  -6   40.50    4.50
   4  -7  -6   39.40    3.30
   4  -7  -6   47.60    4.60
   4  -7  -6   43.00    3.10
  -4   7   6   39.50    4.40
  -4   7   6   38.40    3.90
   3  -7  -6  162.68    5.30
   3  -7  -6  147.59    5.60
   3  -7  -6  156.68    5.30
   3  -7  -6  155.88    5.30
   3  -7  -6  148.19    7.10
   3  -7  -6  146.69    6.60
  -3   7   6  151.58    6.00
  -3   7   6  150.48    4.40
  -3   7   6  148.39    4.60
   2  -7  -6   63.89    4.90
   2  -7  -6   76.59    4.40
   2  -7  -6   75.19    5.40
   2  -7  -6   72.89    4.50
   2  -7  -6   68.79    4.30
  -2   7   6   68.39    4.20
  -2   7   6   65.89    4.30
  -2   7   6   72.09    4.90
  -2   7   6   66.09    3.60
   1  -7  -6   49.50    4.10
   1  -7  -6   39.50    3.70
   1  -7  -6   47.60    3.90
   1  -7  -6   49.20    4.60
   1  -7  -6   53.99    4.80
   1  -7  -6   48.30    4.60
  -1   7   6   45.60    4.50
  -1   7   6   43.30    4.90
  -1   7   6   40.70    3.40
   0  -7  -6  247.38    7.50
   0  -7  -6  256.37    7.90
   0  -7  -6  256.07    7.90
   0  -7  -6  240.28    9.30
   0  -7  -6  259.27    8.70
   0  -7  -6  255.77    8.30
   0   7   6  234.08    8.80
   0   7   6  249.38    6.90
   0   7   6  246.38    8.20
   0   7   6  246.18    9.30
  -1  -7  -6   20.10    2.90
  -1  -7  -6   19.70    3.00
  -1  -7  -6   26.50    4.40
  -1  -7  -6   26.10    4.70
  -1  -7  -6   21.60    3.10
  -1  -7  -6   20.40    3.30
   1   7   6   20.60    4.40
   1   7   6   28.30    3.90
   1   7   6   15.70    4.00
   1   7   6   24.80    2.70
  -2  -7  -6    6.00    3.80
  -2  -7  -6   11.00    2.90
  -2  -7  -6    8.40    3.90
  -2  -7  -6   10.80    2.80
  -2  -7  -6    7.10    3.00
  -2  -7  -6    1.00    4.80
   2   7   6    4.50    4.60
   2   7   6    5.00    4.40
   2   7   6    5.40    2.60
   2   7   6    2.70    4.70
   5  -8  -6   81.39    6.10
   5  -8  -6   80.49    6.30
   5  -8  -6   68.39    5.40
   5  -8  -6   74.69    4.50
   5  -8  -6   77.29    5.80
   5  -8  -6   79.49    7.00
  -5   8   6   72.49    5.60
   4  -8  -6   87.19    5.50
   4  -8  -6   94.89    5.90
   4  -8  -6  101.39    5.90
   4  -8  -6   85.99    7.10
   4  -8  -6  104.39    4.70
   4  -8  -6   92.59    5.10
  -4   8   6   92.29    6.20
   3  -8  -6   16.60    2.60
   3  -8  -6   20.20    4.60
   3  -8  -6   15.90    3.40
   3  -8  -6   16.10    2.50
   3  -8  -6   19.80    2.90
   3  -8  -6   14.60    3.00
  -3   8   6   10.70    2.30
  -3   8   6   12.80    2.40
  -3   8   6   12.50    2.80
  -3   8   6   13.40    3.60
   2  -8  -6    7.90    2.60
   2  -8  -6    8.70    3.30
   2  -8  -6    1.60    2.20
   2  -8  -6    2.80    2.20
   2  -8  -6    3.90    2.30
   2  -8  -6    4.90    3.20
  -2   8   6    4.80    3.10
  -2   8   6    7.00    2.70
  -2   8   6    2.40    2.60
  -2   8   6    6.10    2.20
   1  -8  -6   35.40    4.20
   1  -8  -6   29.60    3.20
   1  -8  -6   31.40    3.50
   1  -8  -6   35.20    3.60
   1  -8  -6   27.60    3.20
   1  -8  -6   39.00    4.60
  -1   8   6   38.90    4.10
  -1   8   6   33.10    4.30
  -1   8   6   36.00    4.00
  -1   8   6   39.30    4.40
   0  -8  -6   45.70    4.90
   0  -8  -6   44.40    4.50
   0  -8  -6   48.70    5.60
   0  -8  -6   44.90    4.00
   0  -8  -6   46.70    4.80
   0  -8  -6   43.00    4.70
   0   8   6   43.90    5.30
   0   8   6   49.50    4.60
   0   8   6   49.99    5.10
   0   8   6   43.10    3.90
  -1  -8  -6    2.00    3.40
  -1  -8  -6   -2.30    4.70
  -1  -8  -6   -1.60    2.60
  -1  -8  -6    1.00    2.50
  -1  -8  -6    0.00    3.20
  -1  -8  -6    2.50    3.40
   1   8   6    6.10    4.80
   1   8   6    3.90    4.00
   1   8   6   -0.90    2.40
   3  -9  -6   -0.70    2.90
   3  -9  -6    2.30    2.80
   3  -9  -6   -2.80    2.50
   3  -9  -6   -0.80    2.80
   3  -9  -6    1.60    2.70
   3  -9  -6   -0.30    3.40
  -3   9   6    2.70    2.80
  -3   9   6    2.30    2.50
   2  -9  -6   32.60    3.70
   2  -9  -6   14.90    4.10
   2  -9  -6   27.80    3.70
   2  -9  -6   32.80    3.70
   2  -9  -6   22.70    3.40
   2  -9  -6   24.50    4.20
  -2   9   6   15.00    3.70
  -2   9   6   23.60    3.30
  -2   9   6   35.60    4.10
  -2   9   6   21.30    3.90
   1  -9  -6   86.09    5.80
   1  -9  -6   62.59    6.00
   1  -9  -6   71.49    7.30
   1  -9  -6   73.69    5.30
   1  -9  -6   68.09    5.30
  -1   9   6   71.29    4.70
  -1   9   6   71.29    7.00
  -1   9   6   69.19    7.80
  -1   9   6   66.09    7.50
   1  11  -7   13.10    4.90
   1  11  -7    6.90    2.80
   1  11  -7    9.30    3.20
   1  11  -7    9.00    2.70
   1  11  -7    8.30    2.90
  -1 -11   7   11.50    3.90
  -1 -11   7    2.60    4.70
  -1 -11   7    7.50    3.30
  -1 -11   7   11.50    4.30
  -1 -11   7    8.70    3.20
  -1 -11   7    7.00    4.00
   0  11  -7   18.80    4.00
   0  11  -7   15.50    3.20
   0  11  -7   10.10    3.00
   0  11  -7   14.00    2.90
   0  11  -7   19.60    5.00
   0 -11   7   13.30    3.20
   0 -11   7   19.70    5.00
   0 -11   7   14.80    4.80
   0 -11   7   14.30    3.20
   0 -11   7   16.40    4.30
   0 -11   7   19.20    4.50
  -1  11  -7   10.00    3.00
  -1  11  -7    8.20    2.90
  -1  11  -7   13.60    3.50
  -1  11  -7    9.70    2.90
  -1  11  -7   18.40    5.00
   1 -11   7    9.00    4.20
   1 -11   7    9.80    3.30
   1 -11   7   15.20    4.90
   1 -11   7    7.70    4.50
   1 -11   7    9.00    4.60
   1 -11   7    1.50    2.40
  -2  11  -7  102.09    9.10
  -2  11  -7   88.39    6.90
  -2  11  -7   89.19    5.80
  -2  11  -7   97.49    5.70
  -2  11  -7  106.99    5.70
   2 -11   7   91.29    5.50
   2 -11   7   93.39    7.70
   2 -11   7  103.39    7.70
   2 -11   7  100.49    8.40
   2 -11   7   98.39    8.90
   2 -11   7  101.49    7.90
  -3  11  -7   54.79    5.30
  -3  11  -7   57.49    6.10
  -3  11  -7   56.99    6.80
  -3  11  -7   58.79    4.90
  -3  11  -7   57.79    5.50
   3 -11   7   50.59    5.40
   3 -11   7   62.99    6.70
   3 -11   7   46.20    4.80
   3 -11   7   58.99    6.10
   3 -11   7   49.30    6.40
   3 -11   7   49.30    5.50
  -4  11  -7   15.00    5.50
   3  10  -7    6.70    2.70
   3  10  -7   10.90    2.80
   3  10  -7    1.40    2.80
   3  10  -7   10.00    2.80
  -3 -10   7   13.10    4.00
  -3 -10   7    9.40    4.40
  -3 -10   7   10.40    3.90
   2  10  -7   29.20    3.50
   2  10  -7   38.00    3.80
   2  10  -7   31.20    3.90
   2  10  -7   21.60    3.90
   2  10  -7   46.10    5.20
  -2 -10   7   29.60    4.80
  -2 -10   7   31.20    4.90
  -2 -10   7   31.00    2.80
  -2 -10   7   37.80    3.80
  -2 -10   7   38.30    4.60
  -2 -10   7   29.30    4.70
   1  10  -7    1.60    3.00
   1  10  -7   -0.20    2.30
   1  10  -7    0.90    2.30
   1  10  -7   -1.60    2.30
   1  10  -7    1.70    3.60
  -1 -10   7   -0.10    3.60
  -1 -10   7   -1.70    2.80
  -1 -10   7   -0.60    2.50
  -1 -10   7    1.00    2.50
  -1 -10   7    3.50    3.50
  -1 -10   7    0.60    3.10
   0  10  -7    7.90    2.50
   0  10  -7    8.30    3.80
   0  10  -7    9.40    3.30
   0  10  -7   10.40    2.60
   0  10  -7   11.40    2.50
   0 -10   7    8.50    3.90
   0 -10   7    7.00    2.60
   0 -10   7   12.00    3.80
   0 -10   7    7.60    3.40
   0 -10   7    6.70    2.20
   0 -10   7    8.00    3.20
  -1  10  -7    4.60    3.80
  -1  10  -7    6.50    2.40
  -1  10  -7    3.60    2.90
  -1  10  -7    8.50    2.50
  -1  10  -7    5.90    2.80
   1 -10   7    3.20    3.10
   1 -10   7    7.80    3.60
   1 -10   7   11.40    2.90
   1 -10   7    3.10    2.70
   1 -10   7    8.60    3.40
   1 -10   7    7.80    3.70
  -2  10  -7   18.70    2.90
  -2  10  -7   12.50    3.10
  -2  10  -7   19.40    4.00
  -2  10  -7   17.10    2.80
   2 -10   7   15.20    3.30
   2 -10   7    8.60    4.10
   2 -10   7   17.40    3.70
   2 -10   7   10.50    3.60
   2 -10   7   13.50    2.70
  -3  10  -7   54.59    4.50
  -3  10  -7   49.00    5.60
  -3  10  -7   45.90    4.70
  -3  10  -7   54.19    4.20
  -3  10  -7   44.90    4.70
   3 -10   7   52.69    5.60
   3 -10   7   51.99    5.60
   3 -10   7   46.70    5.10
   3 -10   7   47.60    4.60
   3 -10   7   62.29    5.50
   3 -10   7   52.19    4.80
  -4  10  -7   54.89    4.90
  -4  10  -7   55.09    6.20
  -4  10  -7   58.39    4.60
  -4  10  -7   74.69    6.70
  -4  10  -7   56.99    5.00
   4 -10   7   62.09    6.10
   4 -10   7   50.69    6.10
   4 -10   7   50.09    4.60
   4 -10   7   56.09    6.60
   4 -10   7   61.69    5.50
   4 -10   7   52.99    4.70
  -5  10  -7    2.50    4.90
  -5  10  -7    8.90    3.20
  -5  10  -7    6.40    2.90
  -5  10  -7    8.60    4.20
   5 -10   7    1.70    3.80
   5 -10   7    7.40    4.70
   5 -10   7    4.60    7.00
   5 -10   7   -5.50    3.70
   4   9  -7    6.20    3.20
   4   9  -7   11.80    3.80
   4   9  -7    5.70    3.10
   4   9  -7   10.10    2.90
  -4  -9   7    9.50    3.00
  -4  -9   7    4.10    2.70
  -4  -9   7    0.90    4.20
   3   9  -7   39.80    4.50
   3   9  -7   39.70    3.70
   3   9  -7   46.60    4.10
   3   9  -7   35.40    4.10
   3   9  -7   38.60    3.50
  -3  -9   7   31.60    3.60
  -3  -9   7   46.40    4.50
  -3  -9   7   32.80    4.80
  -3  -9   7   42.60    4.40
   2   9  -7  270.07    8.40
   2   9  -7  293.37    8.30
   2   9  -7  283.97    8.20
   2   9  -7  287.27    8.60
   2   9  -7  286.07    9.80
  -2  -9   7  279.27    9.00
  -2  -9   7  284.47    7.40
  -2  -9   7  288.87    8.00
  -2  -9   7  296.67    9.00
  -2  -9   7  289.57    9.80
  -2  -9   7  268.87   10.10
   1   9  -7   31.60    3.60
   1   9  -7   40.50    3.90
   1   9  -7   42.20    4.30
   1   9  -7   36.70    4.10
   1   9  -7   42.10    3.60
  -1  -9   7   46.60    5.30
  -1  -9   7   34.80    3.80
  -1  -9   7   33.40    4.00
  -1  -9   7   39.50    4.20
  -1  -9   7   37.50    3.80
  -1  -9   7   40.60    3.10
   0   9  -7   65.39    4.10
   0   9  -7   59.49    3.90
   0   9  -7   60.29    4.30
   0   9  -7   65.49    3.90
   0   9  -7   66.49    5.50
   0  -9   7   66.89    3.70
   0  -9   7   61.39    5.40
   0  -9   7   65.39    4.80
   0  -9   7   66.39    5.00
   0  -9   7   70.39    5.10
   0  -9   7   66.29    5.60
  -1   9  -7  150.78    7.20
  -1   9  -7  154.28    5.60
  -1   9  -7  147.49    5.60
  -1   9  -7  158.08    6.10
   1  -9   7  146.99    5.30
   1  -9   7  149.49    7.10
   1  -9   7  160.88    7.20
   1  -9   7  154.68    6.10
   1  -9   7  150.08    6.80
  -2   9  -7   15.40    2.90
  -2   9  -7   13.80    2.30
  -2   9  -7   13.00    2.30
  -2   9  -7   20.00    3.70
  -2   9  -7   15.80    2.20
   2  -9   7   21.90    3.50
   2  -9   7   14.70    3.50
   2  -9   7   19.30    3.00
   2  -9   7   19.00    2.30
   2  -9   7   19.30    3.30
   2  -9   7   14.50    3.00
  -3   9  -7   72.29    4.40
  -3   9  -7   68.19    6.40
  -3   9  -7   67.19    4.40
  -3   9  -7   65.69    5.30
  -3   9  -7   68.09    4.30
   3  -9   7   73.89    6.20
   3  -9   7   70.49    6.30
   3  -9   7   64.29    5.80
   3  -9   7   68.09    5.30
   3  -9   7   67.39    5.70
   3  -9   7   68.29    4.20
  -4   9  -7   34.60    3.40
  -4   9  -7   31.30    3.20
  -4   9  -7   26.50    4.80
  -4   9  -7   32.40    4.10
   4  -9   7   29.70    3.20
   4  -9   7   31.60    4.40
   4  -9   7   32.80    4.40
   4  -9   7   39.60    5.30
   4  -9   7   29.90    4.50
   4  -9   7   27.00    4.10
  -5   9  -7    8.50    3.40
  -5   9  -7   13.90    4.80
  -5   9  -7   10.00    3.00
  -5   9  -7    1.60    4.20
   5  -9   7    4.50    3.90
   5  -9   7    3.40    5.00
   5  -9   7    8.90    3.10
   5  -9   7    6.80    3.80
   5  -9   7    6.80    4.20
   5  -9   7    8.60    3.30
   4   8  -7    9.20    3.20
   4   8  -7   16.30    2.90
   4   8  -7    9.30    2.90
   4   8  -7   13.70    2.90
   4   8  -7    9.50    3.10
  -4  -8   7   12.50    4.10
  -4  -8   7    4.60    3.10
  -4  -8   7   10.70    2.40
  -4  -8   7    7.40    2.50
  -4  -8   7   14.70    2.80
   3   8  -7   43.50    4.00
   3   8  -7   37.70    3.70
   3   8  -7   39.20    4.30
   3   8  -7   43.40    4.30
   3   8  -7   46.50    4.20
  -3  -8   7   39.10    4.80
  -3  -8   7   34.30    3.20
  -3  -8   7   37.50    3.70
  -3  -8   7   48.10    3.60
  -3  -8   7   35.90    1.50
  -3  -8   7   39.40    4.00
   2   8  -7    4.20    1.80
   2   8  -7    6.80    2.20
   2   8  -7    4.60    1.90
   2   8  -7    5.30    2.70
   2   8  -7    7.10    2.20
  -2  -8   7    6.10    1.50
  -2  -8   7    4.00    2.20
  -2  -8   7    5.00    1.80
  -2  -8   7    7.50    2.60
  -2  -8   7    4.90    2.00
  -2  -8   7    6.70    2.90
   1   8  -7   27.80    2.70
   1   8  -7   22.50    3.10
   1   8  -7   29.50    2.90
   1   8  -7   26.20    2.50
   1   8  -7   27.70    2.90
  -1  -8   7   25.70    3.20
  -1  -8   7   24.90    2.50
  -1  -8   7   32.30    2.40
  -1  -8   7   26.30    2.80
  -1  -8   7   27.40    3.30
   0   8  -7  164.68    5.50
   0   8  -7  164.08    5.20
   0   8  -7  156.08    5.30
   0   8  -7  170.38    6.60
   0   8  -7  180.08    8.70
   0  -8   7  132.99    7.10
   0  -8   7  160.48    6.60
   0  -8   7  167.98    5.90
   0  -8   7  163.68    5.30
   0  -8   7  169.48    6.20
  -1   8  -7  106.49    4.40
  -1   8  -7  107.59    4.50
  -1   8  -7  111.19    4.40
  -1   8  -7  113.29    5.70
   1  -8   7  110.29    5.20
   1  -8   7  110.59    5.40
   1  -8   7  102.39    4.10
   1  -8   7  113.09    4.90
   1  -8   7  100.89    5.30
   1  -8   7  105.69    5.30
  -2   8  -7    4.30    1.90
  -2   8  -7    1.10    1.90
  -2   8  -7   -0.60    1.50
  -2   8  -7    1.20    1.60
  -2   8  -7    2.40    1.40
   2  -8   7    4.20    2.10
   2  -8   7    3.60    2.70
   2  -8   7    0.30    2.30
   2  -8   7    1.40    2.00
   2  -8   7   -1.50    2.30
   2  -8   7   -1.20    1.40
  -3   8  -7    1.90    2.80
  -3   8  -7   -0.50    1.80
  -3   8  -7   -4.40    2.20
  -3   8  -7    1.10    2.20
  -3   8  -7    1.60    1.60
   3  -8   7    2.10    2.10
   3  -8   7    4.50    2.90
   3  -8   7    2.70    2.50
   3  -8   7   -0.90    1.90
   3  -8   7    2.90    2.40
   3  -8   7    6.00    2.90
  -4   8  -7    8.20    2.60
  -4   8  -7    5.90    2.80
  -4   8  -7    8.30    2.30
  -4   8  -7    5.60    1.70
  -4   8  -7    7.30    3.60
   4  -8   7    7.90    3.60
   4  -8   7   13.50    2.50
   4  -8   7    7.40    2.70
   4  -8   7    5.00    3.00
   4  -8   7    9.70    3.10
   4  -8   7   14.00    3.30
  -5   8  -7  146.29    6.60
  -5   8  -7  120.49    6.80
  -5   8  -7  139.29    4.70
  -5   8  -7  141.59    6.00
  -5   8  -7  129.49    9.20
   5  -8   7  149.99    6.00
   5  -8   7  144.39    7.50
   5  -8   7  142.09    7.70
   5  -8   7  129.39    8.60
   5  -8   7  138.59    7.00
   5  -8   7  129.99    8.00
  -6   8  -7   31.60    5.40
  -6   8  -7   44.20    5.00
  -6   8  -7   37.30    4.90
  -6   8  -7   37.30    4.10
   6  -8   7   41.40    6.10
   6  -8   7   41.40    5.10
   6  -8   7   35.30    4.90
   6  -8   7   35.80    4.10
   6  -8   7   46.70    7.40
   5   7  -7    2.30    2.80
   5   7  -7    4.90    2.60
   5   7  -7   -2.90    3.00
   5   7  -7   -2.30    2.80
   5   7  -7    3.60    3.20
  -5  -7   7    2.30    2.50
  -5  -7   7    2.10    2.60
  -5  -7   7   -1.90    3.80
   4   7  -7  489.85   11.30
   4   7  -7  464.45   11.20
   4   7  -7  472.55   11.60
   4   7  -7  498.95   12.20
   4   7  -7  477.65   11.80
  -4  -7   7  480.45   13.40
  -4  -7   7  475.25   10.10
  -4  -7   7  423.16   13.20
  -4  -7   7  491.75   11.60
  -4  -7   7  488.65   10.00
   3   7  -7   10.00    2.00
   3   7  -7    5.20    1.90
   3   7  -7    8.00    2.00
   3   7  -7    9.50    2.30
   3   7  -7    9.50    2.10
  -3  -7   7    9.50    2.20
  -3  -7   7    6.10    1.60
  -3  -7   7    8.50    3.30
  -3  -7   7    8.10    2.00
  -3  -7   7    6.70    0.70
  -3  -7   7    8.40    2.10
   2   7  -7  165.28    5.10
   2   7  -7  174.08    6.10
   2   7  -7  172.78    5.70
   2   7  -7  173.78    5.80
   2   7  -7  177.58    5.10
  -2  -7   7  170.78    5.70
  -2  -7   7  175.48    6.20
  -2  -7   7  167.98    9.90
  -2  -7   7  167.98    4.90
  -2  -7   7  167.88    4.80
   1   7  -7  493.25   10.70
   1   7  -7  493.95   11.90
   1   7  -7  486.55   10.90
   1   7  -7  477.55   10.80
  -1  -7   7  502.45   12.30
  -1  -7   7  487.45   11.60
  -1  -7   7  518.75   10.50
  -1  -7   7  482.35   10.70
  -1  -7   7  468.15   11.20
   0   7  -7    0.80    1.20
   0   7  -7    1.30    1.50
   0   7  -7    2.30    1.90
   0   7  -7    0.90    1.20
   0   7  -7    0.10    1.30
   0  -7   7    1.80    1.80
   0  -7   7   -0.70    1.40
   0  -7   7    0.70    1.80
   0  -7   7   -1.30    1.30
   0  -7   7    2.90    1.90
   0  -7   7   -1.20    1.90
  -1   7  -7    1.70    1.30
  -1   7  -7    1.60    2.00
  -1   7  -7    4.90    1.40
  -1   7  -7    0.20    1.30
  -1   7  -7    3.10    1.70
   1  -7   7    1.20    1.80
   1  -7   7    2.20    1.60
   1  -7   7    0.20    1.10
   1  -7   7    1.50    1.70
   1  -7   7    1.90    2.00
   1  -7   7    1.90    1.90
  -2   7  -7  520.95   11.80
  -2   7  -7  513.35   13.10
  -2   7  -7  523.45   11.40
  -2   7  -7  496.35   12.80
  -2   7  -7  511.35   13.60
   2  -7   7  498.65   11.40
   2  -7   7  510.55   12.80
   2  -7   7  517.95   12.90
   2  -7   7  528.45   12.40
   2  -7   7  525.05   12.50
   2  -7   7  512.45   12.30
  -3   7  -7  175.68    7.30
  -3   7  -7  171.48    6.40
  -3   7  -7  183.58    6.10
  -3   7  -7  179.88    5.90
  -3   7  -7  172.48    5.10
   3  -7   7  168.08    7.10
   3  -7   7  147.79    9.90
   3  -7   7  174.68    5.70
   3  -7   7  181.08    6.60
   3  -7   7  179.08    6.10
  -4   7  -7  202.88    7.10
  -4   7  -7  217.18    5.70
  -4   7  -7  212.88    6.70
  -4   7  -7  211.38    7.50
   4  -7   7  207.48    8.50
   4  -7   7  215.38    7.80
   4  -7   7  207.48    7.80
   4  -7   7  208.28    7.80
   4  -7   7  211.18    6.60
   4  -7   7  221.28    6.90
  -5   7  -7  144.79    5.80
  -5   7  -7  142.69    4.30
  -5   7  -7  132.69    7.70
  -5   7  -7  141.39    7.20
  -5   7  -7  141.49    6.40
   5  -7   7  132.99    7.00
   5  -7   7  135.59    7.10
   5  -7   7  140.49    7.00
   5  -7   7  132.69    7.40
   5  -7   7  141.89    8.20
  -6   7  -7    3.10    3.40
  -6   7  -7    1.30    2.50
  -6   7  -7   -3.20    2.70
  -6   7  -7    1.00    4.10
   6  -7   7    0.90    3.70
   6  -7   7   -4.50    3.10
   6  -7   7    0.50    4.10
   6  -7   7   -5.20    3.60
   6  -7   7   -6.10    4.40
   6   6  -7    0.90    3.30
   6   6  -7    5.70    2.90
   6   6  -7    6.40    3.20
   6   6  -7   -0.20    2.30
   6   6  -7   -0.50    2.40
  -6  -6   7   -2.70    4.80
  -6  -6   7    2.50    2.10
   5   6  -7  116.39    5.30
   5   6  -7  113.69    5.50
   5   6  -7  113.39    5.00
   5   6  -7  109.19    5.60
   5   6  -7  119.19    5.30
  -5  -6   7  116.49    5.40
  -5  -6   7  115.19    4.50
  -5  -6   7  126.09    7.10
   4   6  -7    0.10    1.40
   4   6  -7   -0.20    2.40
   4   6  -7    0.00    1.70
   4   6  -7    1.60    1.80
   4   6  -7   -1.00    1.30
  -4  -6   7    0.00    2.10
  -4  -6   7    0.80    1.40
  -4  -6   7    1.60    2.50
   3   6  -7    9.70    1.70
   3   6  -7    8.70    1.40
   3   6  -7    9.80    1.50
   3   6  -7    7.30    1.80
   3   6  -7    8.60    2.20
  -3  -6   7    9.60    1.50
  -3  -6   7    8.60    1.60
  -3  -6   7   13.80    2.60
  -3  -6   7    9.60    0.80
  -3  -6   7   10.50    1.40
   2   6  -7    1.90    1.10
   2   6  -7    4.70    1.50
   2   6  -7    3.20    1.50
   2   6  -7    3.60    1.20
   2   6  -7    4.60    1.30
  -2  -6   7    3.70    1.60
  -2  -6   7    4.20    1.60
  -2  -6   7    3.00    1.00
  -2  -6   7    1.60    1.60
  -2  -6   7    4.70    1.10
  -2  -6   7    4.80    2.00
   1   6  -7    1.40    1.00
   1   6  -7    2.10    1.20
   1   6  -7    1.90    1.20
   1   6  -7    1.10    1.40
   1   6  -7    1.10    1.50
  -1  -6   7    3.10    1.40
  -1  -6   7    0.40    0.90
  -1  -6   7   -0.10    1.80
  -1  -6   7    2.20    1.20
  -1  -6   7    0.40    1.30
  -1  -6   7   -0.30    1.50
   0   6  -7  177.98    5.20
   0   6  -7  164.78    4.90
   0   6  -7  177.28    5.80
   0   6  -7  177.28    5.30
   0   6  -7  166.58    5.10
   0  -6   7  175.48    5.60
   0  -6   7  167.08    5.70
   0  -6   7  182.08    5.70
   0  -6   7  165.48    5.90
   0  -6   7  170.28    4.60
   0  -6   7  170.78    5.40
  -1   6  -7   -1.30    1.10
  -1   6  -7    1.20    1.40
  -1   6  -7    0.70    1.60
  -1   6  -7    0.10    1.10
  -1   6  -7   -0.10    1.20
   1  -6   7    0.10    1.40
   1  -6   7   -0.60    1.60
   1  -6   7    2.40    1.60
   1  -6   7    0.30    1.80
   1  -6   7   -1.10    0.90
   1  -6   7    0.70    1.50
  -2   6  -7   71.99    4.40
  -2   6  -7   65.09    3.70
  -2   6  -7   64.09    3.50
  -2   6  -7   69.39    3.50
  -2   6  -7   64.99    3.10
   2  -6   7   64.69    3.80
   2  -6   7   64.49    3.40
   2  -6   7   70.59    4.30
   2  -6   7   67.99    3.80
   2  -6   7   72.49    4.50
   2  -6   7   67.99    3.20
  -3   6  -7  829.52   18.10
  -3   6  -7  848.52   18.00
  -3   6  -7  840.02   16.80
  -3   6  -7  839.02   19.00
  -3   6  -7  851.41   17.70
   3  -6   7  825.92   17.70
   3  -6   7  825.42   17.70
   3  -6   7  854.41   18.40
   3  -6   7  871.11   19.10
  -4   6  -7  234.48    7.60
  -4   6  -7  238.08    7.60
  -4   6  -7  238.98    7.20
  -4   6  -7  240.78    6.00
   4  -6   7  251.77    8.80
   4  -6   7  244.68    8.00
   4  -6   7  230.98    8.10
   4  -6   7  227.08    7.90
   4  -6   7  240.18    7.20
  -5   6  -7  106.79    6.80
  -5   6  -7  105.69    3.30
  -5   6  -7  109.39    5.20
  -5   6  -7  108.89    6.40
  -5   6  -7  113.09    6.20
   5  -6   7  102.09    6.00
   5  -6   7  106.29    6.30
   5  -6   7   99.29    5.60
   5  -6   7   95.49    7.00
   5  -6   7  107.99    6.50
  -6   6  -7   -1.10    4.00
  -6   6  -7   -2.60    4.00
  -6   6  -7   -0.90    2.70
  -6   6  -7    2.90    3.10
   6  -6   7    4.00    4.40
   6  -6   7    2.10    3.80
   6  -6   7   -0.70    4.20
   6  -6   7   -0.30    3.10
   6  -6   7    4.50    3.40
   6   5  -7   38.00    3.40
   6   5  -7   27.60    3.20
   6   5  -7   22.10    2.90
   6   5  -7   30.80    3.10
   6   5  -7   31.60    3.30
  -6  -5   7   30.30    3.20
  -6  -5   7   26.20    4.50
  -6  -5   7   30.10    3.00
   5   5  -7   21.60    2.00
   5   5  -7   18.30    1.90
   5   5  -7   19.80    2.30
   5   5  -7   20.80    2.40
   5   5  -7   22.80    2.30
  -5  -5   7   19.50    2.00
  -5  -5   7   18.80    2.80
  -5  -5   7   23.60    3.90
   4   5  -7    1.80    1.10
   4   5  -7    3.70    1.40
   4   5  -7   -1.00    1.30
   4   5  -7    0.60    1.10
   4   5  -7   -1.10    1.20
  -4  -5   7   -0.20    2.50
  -4  -5   7   -1.30    1.30
  -4  -5   7    0.30    1.30
   3   5  -7  541.15   11.80
   3   5  -7  546.45   11.20
   3   5  -7  549.35   11.30
   3   5  -7  547.25   11.30
   3   5  -7  554.04   12.10
  -3  -5   7  537.85   10.30
  -3  -5   7  547.35   11.70
  -3  -5   7  535.55   10.20
  -3  -5   7  504.75   11.80
  -3  -5   7  540.55   10.30
  -3  -5   7  547.05   13.00
   2   5  -7  474.65   10.70
   2   5  -7  481.25    9.90
   2   5  -7  475.85    9.90
   2   5  -7  475.65   10.70
   2   5  -7  474.85   10.10
  -2  -5   7  474.25    9.40
  -2  -5   7  468.55    9.70
  -2  -5   7  473.25   10.50
  -2  -5   7  483.95   11.60
  -2  -5   7  471.95    9.90
   1   5  -7  521.25   11.00
   1   5  -7  517.55   11.60
   1   5  -7  521.05   10.80
   1   5  -7  528.45   10.90
   1   5  -7  536.45   11.60
  -1  -5   7  530.35   10.50
  -1  -5   7  518.15   12.20
  -1  -5   7  525.95   11.10
  -1  -5   7  516.65   11.50
  -1  -5   7  510.75   11.40
  -1  -5   7  522.25   11.00
   0   5  -7  435.46    9.50
   0   5  -7  438.96    9.90
   0   5  -7  435.96    9.70
   0   5  -7  438.26    9.70
   0   5  -7  426.46   10.20
   0  -5   7  433.06   10.50
   0  -5   7  445.26    9.80
   0  -5   7  431.06   10.10
   0  -5   7  439.76    9.90
   0  -5   7  424.96    9.90
   0  -5   7  436.36    9.00
  -1   5  -7   40.00    2.70
  -1   5  -7   38.40    2.50
  -1   5  -7   35.90    2.50
  -1   5  -7   45.80    2.70
  -1   5  -7   41.30    3.10
   1  -5   7   41.70    3.30
   1  -5   7   37.10    3.00
   1  -5   7   40.60    2.70
   1  -5   7   43.80    2.20
   1  -5   7   38.20    3.20
   1  -5   7   40.30    2.80
  -2   5  -7  472.35   11.00
  -2   5  -7  473.45   11.80
  -2   5  -7  481.65   10.50
  -2   5  -7  484.35   10.90
  -2   5  -7  472.05   11.10
   2  -5   7  495.05   11.20
   2  -5   7  480.05   10.50
   2  -5   7  483.95   11.70
   2  -5   7  470.35   11.30
   2  -5   7  472.75   11.00
   2  -5   7  470.75   11.30
  -3   5  -7  115.39    3.90
  -3   5  -7  107.49    5.30
  -3   5  -7  108.89    4.70
  -3   5  -7  113.99    4.80
  -3   5  -7  109.29    4.50
   3  -5   7  103.59    5.30
   3  -5   7  108.69    4.70
   3  -5   7  104.79    5.00
   3  -5   7  116.59    5.20
   3  -5   7  114.59    4.40
  -4   5  -7  102.29    5.20
  -4   5  -7   96.19    5.40
  -4   5  -7  100.99    3.50
  -4   5  -7   99.59    5.70
  -4   5  -7  103.99    5.70
   4  -5   7   99.79    5.00
   4  -5   7   94.29    5.80
   4  -5   7  101.99    5.40
   4  -5   7   98.69    4.80
  -5   5  -7    5.50    3.10
  -5   5  -7    7.60    2.90
  -5   5  -7    6.50    1.10
  -5   5  -7   -0.90    2.10
   5  -5   7   11.40    3.80
   5  -5   7    6.20    3.20
   5  -5   7    7.40    2.80
   5  -5   7    4.30    3.10
   5  -5   7    6.10    2.60
  -6   5  -7  183.38    8.20
  -6   5  -7  189.08    7.40
  -6   5  -7  179.38    6.90
  -6   5  -7  186.08    9.50
   6  -5   7  183.28    8.70
   6  -5   7  174.48    8.60
   6  -5   7  181.98    9.30
   6  -5   7  187.68    8.10
   6  -5   7  184.48    8.00
   6   4  -7   10.80    2.40
   6   4  -7   12.00    2.60
   6   4  -7   10.40    2.20
   6   4  -7   17.50    1.90
   6   4  -7   10.30    2.20
  -6  -4   7   11.30    2.00
  -6  -4   7   10.70    1.60
   5   4  -7   80.89    3.80
   5   4  -7   76.79    3.50
   5   4  -7   82.49    3.60
   5   4  -7   77.89    3.40
   5   4  -7   78.59    3.20
  -5  -4   7   83.39    3.20
  -5  -4   7   84.09    5.00
  -5  -4   7   77.19    3.60
   4   4  -7   12.70    1.40
   4   4  -7   11.80    1.30
   4   4  -7   12.60    1.60
   4   4  -7    9.90    1.70
   4   4  -7   11.00    1.90
  -4  -4   7   14.30    1.60
  -4  -4   7   12.40    2.30
   3   4  -7  134.79    4.60
   3   4  -7  143.09    3.80
   3   4  -7  141.39    3.70
   3   4  -7  140.49    4.30
   3   4  -7  144.79    3.90
  -3  -4   7  131.19    4.20
  -3  -4   7  127.89    5.30
  -3  -4   7  143.89    3.50
  -3  -4   7  146.79    4.10
   2   4  -7  243.48    6.40
   2   4  -7  237.38    5.50
   2   4  -7  241.68    5.70
   2   4  -7  245.08    5.50
   2   4  -7  243.98    5.40
   2   4  -7  233.98    5.90
  -2  -4   7  235.68    5.40
  -2  -4   7  236.28    6.00
  -2  -4   7  236.78    4.80
  -2  -4   7  232.48    5.10
  -2  -4   7  233.68    5.90
  -2  -4   7  221.98    6.90
   1   4  -7  112.99    3.50
   1   4  -7  113.89    3.60
   1   4  -7  115.09    4.10
   1   4  -7  114.59    3.30
   1   4  -7  114.59    3.80
   1   4  -7  117.79    3.50
  -1  -4   7  116.69    3.50
  -1  -4   7  116.79    3.90
  -1  -4   7  115.69    3.70
  -1  -4   7  111.89    4.40
  -1  -4   7  118.99    3.00
  -1  -4   7  117.99    3.60
   0   4  -7  481.75   10.60
   0   4  -7  476.45   10.40
   0   4  -7  485.55   10.90
   0   4  -7  494.55   10.30
   0   4  -7  479.95   10.40
   0   4  -7  463.35   10.20
   0  -4   7  475.95   11.00
   0  -4   7  484.55   10.40
   0  -4   7  480.95   10.50
   0  -4   7  475.25   10.40
   0  -4   7  478.35    9.60
   0  -4   7  484.05   10.70
  -1   4  -7   40.60    2.90
  -1   4  -7   39.80    2.50
  -1   4  -7   41.60    2.40
  -1   4  -7   43.40    2.60
  -1   4  -7   38.30    2.50
  -1   4  -7   38.60    2.50
   1  -4   7   39.30    2.60
   1  -4   7   38.80    2.80
   1  -4   7   38.00    2.50
   1  -4   7   39.00    2.90
   1  -4   7   35.40    2.60
   1  -4   7   40.70    2.10
  -2   4  -7   62.99    3.80
  -2   4  -7   63.99    3.40
  -2   4  -7   58.59    3.30
  -2   4  -7   65.09    3.30
  -2   4  -7   66.09    2.90
   2  -4   7   60.69    3.80
   2  -4   7   63.99    3.00
   2  -4   7   57.89    3.50
   2  -4   7   61.59    3.70
   2  -4   7   66.49    3.30
  -3   4  -7    7.90    1.80
  -3   4  -7    7.50    1.50
  -3   4  -7    6.70    2.20
  -3   4  -7    8.50    2.10
  -3   4  -7    8.10    1.80
   3  -4   7    4.20    1.90
   3  -4   7    7.10    1.80
   3  -4   7   10.20    2.30
   3  -4   7    7.70    2.00
   3  -4   7    7.80    1.80
  -4   4  -7 1991.30   38.10
  -4   4  -7 1933.31   36.60
  -4   4  -7 1973.90   38.70
  -4   4  -7 1962.40   38.10
  -4   4  -7 2017.20   39.30
   4  -4   7 2005.20   39.00
   4  -4   7 1983.20   39.20
   4  -4   7 1964.10   38.80
   4  -4   7 1931.81   38.50
  -5   4  -7  295.57    6.60
  -5   4  -7  279.37    9.40
  -5   4  -7  322.37   10.40
  -5   4  -7  297.87    9.80
  -5   4  -7  300.97    8.80
   5  -4   7  304.77    9.70
   5  -4   7  308.87   10.20
   5  -4   7  286.17    9.70
   5  -4   7  302.17    9.10
   5  -4   7  295.87    9.20
  -6   4  -7   74.29    6.10
  -6   4  -7   86.79    5.70
  -6   4  -7   63.09    6.60
  -6   4  -7   76.19    6.40
   6  -4   7   80.19    5.80
   6  -4   7   79.19    7.40
   6  -4   7   77.49    7.00
   6  -4   7   70.19    6.30
  -7   4  -7   56.19    5.90
  -7   4  -7   48.50    4.80
  -7   4  -7   70.19    8.40
   7  -4   7   58.39    5.60
   7  -4   7   46.30    5.20
   7  -4   7   57.39    6.30
   7  -4   7   59.59    6.70
   7  -4   7   57.39    5.30
   7   3  -7   19.90    3.20
   7   3  -7   15.90    2.30
   7   3  -7   18.70    2.60
   6   3  -7  296.07    7.50
   6   3  -7  299.17    7.30
   6   3  -7  295.67    6.80
   6   3  -7  313.57    7.10
   5   3  -7  382.06    8.10
   5   3  -7  369.36    8.10
   5   3  -7  381.06    9.00
   5   3  -7  363.76    7.70
   5   3  -7  364.56    8.10
  -5  -3   7  375.16    7.70
  -5  -3   7  376.06   10.20
   4   3  -7   55.89    2.40
   4   3  -7   57.39    3.00
   4   3  -7   55.59    1.90
   4   3  -7   57.99    2.20
   4   3  -7   55.09    2.20
   4   3  -7   54.19    2.00
  -4  -3   7   63.89    4.30
  -4  -3   7   57.19    2.30
  -4  -3   7   57.19    2.10
   3   3  -7  429.46    9.80
   3   3  -7  416.66    8.40
   3   3  -7  416.06    8.60
   3   3  -7  423.56    8.80
   3   3  -7  417.06    8.40
   3   3  -7  427.56    8.70
  -3  -3   7  425.36    8.70
  -3  -3   7  440.56    8.80
  -3  -3   7  417.46   10.30
  -3  -3   7  427.26    8.70
   2   3  -7  106.39    3.30
   2   3  -7  112.99    4.00
   2   3  -7  106.19    2.80
   2   3  -7  110.29    3.30
   2   3  -7  108.89    3.10
   2   3  -7  108.39    2.80
  -2  -3   7  113.79    3.30
  -2  -3   7  104.09    4.30
  -2  -3   7  112.09    3.30
  -2  -3   7  108.29    3.10
   1   3  -7  452.25    9.20
   1   3  -7  451.75    9.50
   1   3  -7  460.55    9.30
   1   3  -7  452.25   10.20
   1   3  -7  453.65    9.60
  -1  -3   7  441.86    9.40
  -1  -3   7  454.25    9.70
  -1  -3   7  447.86    8.70
  -1  -3   7  448.46   10.50
   0   3  -7    6.80    1.30
   0   3  -7    7.30    1.30
   0   3  -7    7.00    1.30
   0   3  -7    6.70    1.20
   0   3  -7    5.50    1.30
   0   3  -7    8.00    1.20
   0  -3   7    6.90    1.30
   0  -3   7    7.00    1.50
   0  -3   7    5.20    1.20
   0  -3   7    6.20    1.10
   0  -3   7    4.90    1.30
   0  -3   7    7.20    0.90
  -1   3  -7 1586.44   30.00
  -1   3  -7 1588.64   30.10
  -1   3  -7 1535.35   29.90
  -1   3  -7 1524.85   29.80
  -1   3  -7 1562.14   30.00
  -1   3  -7 1626.94   30.50
   1  -3   7 1563.64   30.00
   1  -3   7 1577.24   30.40
   1  -3   7 1560.14   29.40
   1  -3   7 1571.84   29.90
   1  -3   7 1590.94   30.20
  -2   3  -7  321.37    7.90
  -2   3  -7  307.67    8.20
  -2   3  -7  315.67    7.60
  -2   3  -7  322.37    8.10
  -2   3  -7  311.87    8.40
  -2   3  -7  327.57    8.00
   2  -3   7  315.97    7.70
   2  -3   7  308.47    8.40
   2  -3   7  304.67    8.20
   2  -3   7  308.37    7.90
   2  -3   7  322.87    8.10
  -3   3  -7  529.05   11.50
  -3   3  -7  564.54   13.10
  -3   3  -7  530.95   12.30
  -3   3  -7  543.65   12.40
  -3   3  -7  543.95   12.80
   3  -3   7  533.25   12.90
   3  -3   7  543.75   12.30
   3  -3   7  534.75   13.00
   3  -3   7  531.05   12.60
   3  -3   7  547.75   12.30
  -4   3  -7   20.60    3.00
  -4   3  -7   22.10    2.30
  -4   3  -7   22.50    2.70
  -4   3  -7   20.90    2.50
  -4   3  -7   20.60    3.00
   4  -3   7   27.90    3.30
   4  -3   7   21.60    3.30
   4  -3   7   26.60    2.70
  -5   3  -7   16.80    1.60
  -5   3  -7   21.80    3.10
  -5   3  -7   18.40    3.30
  -5   3  -7   18.70    3.10
  -5   3  -7   14.80    3.20
   5  -3   7   18.20    3.50
   5  -3   7   20.50    3.20
   5  -3   7   18.90    3.10
   5  -3   7   20.20    3.50
  -6   3  -7    5.50    2.90
  -6   3  -7    5.60    3.40
  -6   3  -7    2.10    2.80
  -6   3  -7    6.70    3.60
   6  -3   7    5.20    4.60
   6  -3   7    3.70    3.40
   6  -3   7    2.30    4.00
   6  -3   7    2.70    4.10
   6  -3   7    5.00    2.70
   7   2  -7    7.00    1.90
   7   2  -7    9.30    1.80
   7   2  -7   11.80    2.50
   6   2  -7   14.70    2.00
   6   2  -7   22.30    1.90
   6   2  -7   16.60    1.80
   6   2  -7   17.60    1.30
   6   2  -7   18.40    1.50
   6   2  -7   16.80    1.40
   5   2  -7   12.80    1.20
   5   2  -7   16.70    2.00
   5   2  -7   11.70    1.00
   5   2  -7   11.50    1.30
   5   2  -7   12.50    1.40
   5   2  -7   12.70    1.20
   4   2  -7  109.79    2.70
   4   2  -7  118.89    2.80
   4   2  -7  111.79    2.80
   4   2  -7  110.79    2.70
   4   2  -7  113.29    3.20
   4   2  -7  114.49    4.10
   3   2  -7  138.99    3.30
   3   2  -7  142.39    3.40
   3   2  -7  139.59    3.10
   3   2  -7  141.49    3.70
   3   2  -7  145.19    4.80
   3   2  -7  138.39    3.10
  -3  -2   7  139.49    3.20
  -3  -2   7  142.69    3.10
   2   2  -7  699.53   13.60
   2   2  -7  713.63   13.90
   2   2  -7  703.53   13.60
   2   2  -7  740.53   15.10
   2   2  -7  758.02   14.40
   2   2  -7  723.43   14.10
  -2  -2   7  713.83   13.90
  -2  -2   7  748.23   13.90
  -2  -2   7  735.73   14.20
   1   2  -7 1018.30   19.50
   1   2  -7  997.40   19.30
   1   2  -7 1041.30   19.80
   1   2  -7 1053.19   19.70
   1   2  -7 1046.20   19.50
   1   2  -7 1035.10   20.40
  -1  -2   7 1030.90   19.50
  -1  -2   7 1010.10   19.60
  -1  -2   7 1001.80   18.60
  -1  -2   7 1018.20   19.60
  -1  -2   7 1004.70   18.70
   0   2  -7    4.30    1.10
   0   2  -7    2.50    1.00
   0   2  -7    3.30    1.00
   0   2  -7    1.80    1.20
   0   2  -7    3.40    1.30
   0   2  -7    2.10    1.00
   0  -2   7    3.20    0.70
   0  -2   7    6.00    1.20
   0  -2   7    3.90    1.00
   0  -2   7    5.30    1.10
   0  -2   7    4.60    1.10
  -1   2  -7  533.95   11.60
  -1   2  -7  525.15   11.30
  -1   2  -7  509.85   11.40
  -1   2  -7  520.65   11.40
  -1   2  -7  522.85   11.70
  -1   2  -7  527.45   11.30
   1  -2   7  523.15   11.00
   1  -2   7  539.75   11.70
   1  -2   7  529.15   11.20
   1  -2   7  518.85   11.60
   1  -2   7  521.95   11.30
  -2   2  -7  146.79    5.20
  -2   2  -7  153.78    5.00
  -2   2  -7  146.19    5.20
  -2   2  -7  146.79    4.70
  -2   2  -7  148.19    4.80
  -2   2  -7  143.99    4.80
   2  -2   7  149.09    4.80
   2  -2   7  151.48    5.30
   2  -2   7  154.28    4.80
   2  -2   7  143.39    5.20
   2  -2   7  148.29    4.90
  -3   2  -7  259.87    7.60
  -3   2  -7  249.68    6.90
  -3   2  -7  241.78    7.60
  -3   2  -7  252.57    7.30
  -3   2  -7  253.07    7.20
  -3   2  -7  243.98    6.60
   3  -2   7  245.78    7.70
   3  -2   7  244.28    7.10
   3  -2   7  257.47    7.20
   3  -2   7  247.48    7.70
   3  -2   7  246.08    6.90
  -4   2  -7   12.20    2.60
  -4   2  -7    8.40    2.60
  -4   2  -7   10.80    1.80
  -4   2  -7    6.50    2.60
  -4   2  -7   11.90    2.00
   4  -2   7   10.90    2.10
   4  -2   7   10.80    2.70
   4  -2   7   13.60    2.50
   4  -2   7    9.30    2.30
   4  -2   7    5.80    2.50
  -5   2  -7  226.38    8.50
  -5   2  -7  196.38    8.10
  -5   2  -7  216.98    5.80
  -5   2  -7  213.78    8.20
  -5   2  -7  217.98    8.10
   5  -2   7  208.18    8.70
   5  -2   7  224.98    8.30
   5  -2   7  230.48    7.30
   5  -2   7  219.58    8.40
   5  -2   7  216.98    8.50
  -6   2  -7   32.30    5.00
  -6   2  -7   25.80    2.00
  -6   2  -7   18.20    4.30
  -6   2  -7   27.40    1.90
  -6   2  -7   26.80    4.10
  -6   2  -7   27.90    3.50
   6  -2   7   30.90    3.60
   6  -2   7   30.50    4.60
   6  -2   7   29.90    4.10
   6  -2   7   22.00    4.10
   6  -2   7   24.40    4.90
   7   1  -7    9.90    1.60
   7   1  -7   11.40    1.70
   7   1  -7   11.90    1.60
   7   1  -7   13.40    2.10
   7   1  -7   11.90    1.70
   6   1  -7   16.50    1.40
   6   1  -7   18.80    1.70
   6   1  -7   16.30    1.90
   6   1  -7   18.40    1.80
   5   1  -7   49.80    1.70
   5   1  -7   50.69    1.60
   5   1  -7   48.40    2.80
   5   1  -7   45.50    2.40
   4   1  -7  694.63   13.10
   4   1  -7  709.83   13.20
   4   1  -7  745.53   14.40
   4   1  -7  753.72   15.20
   3   1  -7   16.00    0.90
   3   1  -7   14.30    1.80
   3   1  -7   15.50    0.70
   3   1  -7   16.00    0.70
   3   1  -7   15.10    0.50
   3   1  -7   14.80    1.50
   2   1  -7  601.44   11.50
   2   1  -7  619.24   11.80
   2   1  -7  618.44   12.40
   2   1  -7  606.54   11.70
   2   1  -7  631.04   11.70
   2   1  -7  614.54   13.20
  -2  -1   7  608.64   11.60
  -2  -1   7  615.14   12.40
  -2  -1   7  601.84   11.60
   1   1  -7 1920.31   35.90
   1   1  -7 1953.80   36.20
   1   1  -7 1976.80   36.90
   1   1  -7 1983.50   35.90
   1   1  -7 1933.51   35.70
   1   1  -7 1946.01   35.80
  -1  -1   7 1931.71   35.80
  -1  -1   7 1907.31   36.00
  -1  -1   7 1963.00   35.80
   0   1  -7    1.70    1.20
   0   1  -7    1.30    0.90
   0   1  -7    2.40    1.00
   0   1  -7    2.00    1.00
   0   1  -7    1.20    1.00
   0   1  -7    0.90    1.00
   0  -1   7    0.10    0.60
   0  -1   7   -0.50    0.90
   0  -1   7    1.40    0.80
   0  -1   7    1.50    1.20
   0  -1   7    1.70    1.00
  -1   1  -7  496.95   10.80
  -1   1  -7  475.45   11.00
  -1   1  -7  480.25   10.60
  -1   1  -7  474.75   10.80
  -1   1  -7  500.45   10.60
   1  -1   7  482.45   10.30
   1  -1   7  496.45   10.40
   1  -1   7  481.95   10.90
   1  -1   7  478.75   11.00
   1  -1   7  470.55   10.50
  -2   1  -7  240.48    6.50
  -2   1  -7  246.28    6.50
  -2   1  -7  234.18    6.80
  -2   1  -7  228.28    6.80
  -2   1  -7  246.98    7.10
   2  -1   7  235.08    6.30
   2  -1   7  237.18    6.70
   2  -1   7  239.88    6.40
   2  -1   7  228.98    6.80
   2  -1   7  240.18    6.90
  -3   1  -7  469.25   11.50
  -3   1  -7  472.85   10.90
  -3   1  -7  462.15   11.30
  -3   1  -7  472.95   11.90
  -3   1  -7  467.25   10.90
   3  -1   7  468.35   11.80
   3  -1   7  467.55   11.50
   3  -1   7  460.25   10.70
   3  -1   7  461.95   11.00
   3  -1   7  461.75   11.20
  -4   1  -7   13.60    2.60
  -4   1  -7   16.20    2.00
  -4   1  -7   11.50    3.00
  -4   1  -7   12.90    2.40
   4  -1   7   13.90    2.40
   4  -1   7   14.80    2.70
   4  -1   7   11.80    2.90
   4  -1   7   15.30    2.50
   4  -1   7   10.80    2.70
  -5   1  -7   50.39    3.90
  -5   1  -7   50.89    3.50
  -5   1  -7   49.90    4.90
  -5   1  -7   49.70    4.80
  -5   1  -7   46.00    5.10
   5  -1   7   54.69    5.90
   5  -1   7   53.99    5.30
   5  -1   7   56.09    4.00
   5  -1   7   47.90    4.70
   5  -1   7   50.69    5.40
  -6   1  -7   92.39    7.60
  -6   1  -7   97.09    6.60
  -6   1  -7   90.59    4.20
  -6   1  -7   93.59    3.20
  -6   1  -7   99.49    8.00
  -6   1  -7   97.79    5.20
   6  -1   7  108.69    8.20
   6  -1   7   95.09    6.60
   6  -1   7   97.69    5.50
   6  -1   7   98.79    7.20
   6  -1   7   88.79    7.50
   7   0  -7   23.80    2.10
   7   0  -7   23.30    1.90
   7   0  -7   24.30    2.50
   7   0  -7   26.30    2.50
   6   0  -7    1.00    1.00
   6   0  -7    2.30    1.50
   6   0  -7    2.20    1.50
   6   0  -7    0.40    1.00
   5   0  -7   36.00    1.00
   5   0  -7   35.00    2.60
   5   0  -7   34.00    3.00
   5   0  -7   34.80    1.20
   4   0  -7   11.60    1.40
   4   0  -7   12.60    1.80
   3   0  -7   53.19    1.20
   3   0  -7   55.79    3.10
   3   0  -7   54.59    1.20
   3   0  -7   54.29    2.50
   2   0  -7   15.10    1.00
   2   0  -7   16.80    1.20
   2   0  -7   17.80    2.00
   2   0  -7   18.10    1.90
   2   0  -7   16.80    1.00
   2   0  -7   17.00    1.20
  -2   0   7   17.50    1.20
  -2   0   7   17.20    1.80
  -2   0   7   17.00    1.00
   1   0  -7  982.10   18.60
   1   0  -7 1003.30   18.70
   1   0  -7  997.90   18.70
   1   0  -7  989.00   19.00
   1   0  -7  980.90   19.20
  -1   0   7  951.30   17.80
  -1   0   7  958.40   17.70
  -1   0   7  993.60   18.90
  -1   0   7  983.80   19.10
  -1   0   7  958.80   18.70
   0   0  -7   23.00    2.00
   0   0  -7   27.40    2.10
   0   0  -7   27.10    1.90
   0   0  -7   25.80    2.10
   0   0  -7   25.70    2.20
   0   0   7   27.20    2.00
   0   0   7   24.00    1.90
   0   0   7   27.30    1.40
   0   0   7   25.40    2.00
   0   0   7   27.30    1.90
  -1   0  -7  673.63   14.20
  -1   0  -7  673.83   14.50
  -1   0  -7  674.33   14.00
  -1   0  -7  670.83   14.10
   1   0   7  677.23   14.60
   1   0   7  676.83   13.60
   1   0   7  652.43   14.20
   1   0   7  687.83   14.00
   1   0   7  681.13   14.00
  -2   0  -7   10.80    1.80
  -2   0  -7   10.80    1.90
  -2   0  -7    9.40    1.60
  -2   0  -7    9.90    1.70
  -2   0  -7   12.50    2.10
   2   0   7   11.30    2.10
   2   0   7   11.10    1.60
   2   0   7   11.60    1.60
   2   0   7   10.80    1.80
   2   0   7   10.70    2.00
  -3   0  -7   11.10    2.20
  -3   0  -7    8.70    2.00
  -3   0  -7   13.50    2.20
  -3   0  -7   12.20    2.00
  -3   0  -7   13.50    2.00
   3   0   7   10.60    2.50
   3   0   7   12.30    2.40
   3   0   7   10.20    1.70
   3   0   7   11.70    2.20
   3   0   7    9.00    1.80
  -4   0  -7  385.56   10.70
  -4   0  -7  379.76   11.20
  -4   0  -7  406.66   10.60
  -4   0  -7  376.26    9.90
  -4   0  -7  377.96    9.60
   4   0   7  383.96   10.70
   4   0   7  376.06   10.50
   4   0   7  366.56    9.80
   4   0   7  387.86    9.70
   4   0   7  388.36   11.30
  -5   0  -7   -2.50    2.50
  -5   0  -7    1.80    2.90
  -5   0  -7   -1.30    2.50
  -5   0  -7    6.30    3.60
   5   0   7   -1.10    2.00
   5   0   7    0.00    3.50
   5   0   7    0.50    2.90
   5   0   7    1.10    3.10
   5   0   7   -1.10    2.90
  -6   0  -7   50.19    4.60
  -6   0  -7   61.39    6.70
  -6   0  -7   58.79    6.10
  -6   0  -7   56.09    4.60
  -6   0  -7   54.39    3.20
  -6   0  -7   48.40    4.70
   6   0   7   50.09    5.70
   6   0   7   56.09    6.10
   6   0   7   42.60    5.90
   6   0   7   43.50    4.00
   6   0   7   49.70    5.50
   7  -1  -7   39.90    3.00
   7  -1  -7   43.60    3.00
   7  -1  -7   41.60    2.70
   7  -1  -7   40.70    3.90
   6  -1  -7  374.46    7.80
   6  -1  -7  384.36    9.30
   6  -1  -7  370.16    7.70
   6  -1  -7  389.86    9.00
   5  -1  -7   40.10    2.70
   5  -1  -7   40.70    3.20
   5  -1  -7   40.70    1.20
   5  -1  -7   39.60    1.10
   4  -1  -7  176.28    5.60
   4  -1  -7  188.68    5.40
   3  -1  -7   96.09    3.50
   3  -1  -7   91.69    2.10
   3  -1  -7   93.59    2.30
   3  -1  -7   92.99    2.30
   2  -1  -7  150.48    3.50
   2  -1  -7  148.99    3.90
   2  -1  -7  149.59    3.70
   2  -1  -7  148.59    4.50
   2  -1  -7  154.18    3.50
  -2   1   7  153.58    3.70
  -2   1   7  153.68    3.90
   1  -1  -7    6.70    1.00
   1  -1  -7    5.70    1.10
   1  -1  -7   10.60    1.50
   1  -1  -7    8.60    1.10
   1  -1  -7    8.10    1.20
  -1   1   7    7.50    1.40
  -1   1   7    6.60    0.70
  -1   1   7    7.20    0.70
  -1   1   7    7.60    1.10
  -1   1   7    7.30    1.10
   0  -1  -7  702.83   14.80
   0  -1  -7  703.03   14.40
   0  -1  -7  703.33   14.30
   0  -1  -7  714.03   14.30
   0  -1  -7  698.83   14.50
   0   1   7  698.73   14.50
   0   1   7  719.13   14.80
   0   1   7  694.13   13.50
   0   1   7  700.93   14.40
   0   1   7  718.43   14.20
  -1  -1  -7    2.30    1.30
  -1  -1  -7    0.30    1.20
  -1  -1  -7    0.70    1.50
  -1  -1  -7    1.60    1.20
  -1  -1  -7    1.00    1.20
   1   1   7    2.30    1.50
   1   1   7    2.10    1.20
   1   1   7    2.00    1.30
   1   1   7    2.50    1.20
   1   1   7    1.60    0.90
  -2  -1  -7   65.89    3.60
  -2  -1  -7   60.49    4.00
  -2  -1  -7   64.29    3.40
  -2  -1  -7   63.29    3.30
   2   1   7   66.09    3.60
   2   1   7   60.79    4.10
   2   1   7   64.69    3.70
   2   1   7   67.69    3.10
   2   1   7   67.39    3.20
  -3  -1  -7  870.71   18.00
  -3  -1  -7  812.32   19.00
  -3  -1  -7  869.61   19.40
  -3  -1  -7  880.01   18.50
  -3  -1  -7  771.92   19.80
   3   1   7  877.21   17.70
   3   1   7  868.81   18.70
   3   1   7  912.71   19.60
  -4  -1  -7  135.19    5.30
  -4  -1  -7  133.49    5.30
  -4  -1  -7  131.59    6.40
  -4  -1  -7  140.19    7.00
   4   1   7  134.49    7.00
   4   1   7  134.09    5.40
   4   1   7  126.29    4.80
   4   1   7  123.49    6.20
   4   1   7  129.59    6.20
  -5  -1  -7  150.68    7.90
  -5  -1  -7  139.29    6.50
  -5  -1  -7  142.39    5.80
  -5  -1  -7  132.19    8.20
  -5  -1  -7  140.69    4.80
  -5  -1  -7  151.98    6.80
   5   1   7  155.88    8.70
   5   1   7  142.59    6.30
   5   1   7  138.69    5.50
   5   1   7  144.49    7.50
   5   1   7  134.59    7.50
  -6  -1  -7    5.50    3.50
  -6  -1  -7   -5.70    4.90
  -6  -1  -7    3.80    5.00
  -6  -1  -7    2.20    3.30
  -6  -1  -7    1.90    1.90
   6   1   7   -0.50    3.80
   6   1   7   -1.70    2.50
   6   1   7   -2.20    2.80
   6   1   7   -1.30    5.00
   6   1   7    4.60    4.40
   7  -2  -7   57.49    3.70
   7  -2  -7   50.69    3.20
   7  -2  -7   59.39    3.40
   7  -2  -7   61.29    5.20
   6  -2  -7   10.40    2.10
   6  -2  -7    7.40    1.10
   6  -2  -7    7.90    1.20
   6  -2  -7    7.70    2.20
   5  -2  -7   82.39    2.20
   5  -2  -7   87.29    4.40
   5  -2  -7   83.39    4.00
   5  -2  -7   82.69    2.20
   4  -2  -7   20.20    2.10
   4  -2  -7   16.80    1.00
   4  -2  -7   15.70    1.10
   3  -2  -7  124.69    4.40
   3  -2  -7  111.19    2.70
   3  -2  -7  111.49    3.10
   3  -2  -7  110.59    2.70
   3  -2  -7  109.09    2.90
  -3   2   7  113.09    2.90
  -3   2   7  113.39    2.80
   2  -2  -7   38.70    2.50
   2  -2  -7   33.70    2.10
   2  -2  -7   34.20    1.90
   2  -2  -7   35.20    1.70
   2  -2  -7   34.40    1.60
  -2   2   7   35.10    2.10
  -2   2   7   36.90    2.10
   1  -2  -7  154.18    4.70
   1  -2  -7  152.98    4.70
   1  -2  -7  153.38    4.20
   1  -2  -7  151.58    4.00
   1  -2  -7  158.48    4.30
  -1   2   7  153.48    3.90
  -1   2   7  150.78    4.30
  -1   2   7  154.28    3.60
   0  -2  -7 1014.40   20.30
   0  -2  -7 1030.20   20.00
   0  -2  -7 1015.10   19.90
   0  -2  -7 1041.00   20.70
   0  -2  -7 1026.10   20.10
   0   2   7 1021.60   20.00
   0   2   7 1024.70   20.60
   0   2   7 1027.00   20.30
   0   2   7  999.50   19.20
   0   2   7  992.40   20.30
  -1  -2  -7  146.19    4.80
  -1  -2  -7  147.19    4.80
  -1  -2  -7  144.79    4.70
  -1  -2  -7  145.99    5.00
  -1  -2  -7  142.29    5.40
   1   2   7  143.69    4.70
   1   2   7  145.99    5.00
   1   2   7  146.79    4.20
   1   2   7  141.69    5.30
   1   2   7  141.69    4.90
  -2  -2  -7  117.49    5.50
  -2  -2  -7  118.99    4.40
  -2  -2  -7  121.99    4.90
  -2  -2  -7  118.99    4.50
  -2  -2  -7  117.59    5.10
   2   2   7  122.49    4.70
   2   2   7  114.09    4.10
   2   2   7  117.79    4.90
   2   2   7  112.29    5.40
   2   2   7  126.29    5.10
  -3  -2  -7   42.10    3.40
  -3  -2  -7   41.40    3.70
  -3  -2  -7   32.80    4.60
  -3  -2  -7   45.50    4.80
   3   2   7   47.40    4.70
   3   2   7   48.10    4.20
   3   2   7   45.60    3.20
   3   2   7   43.60    4.20
  -4  -2  -7   46.00    4.80
  -4  -2  -7   39.40    5.90
  -4  -2  -7   54.59    5.50
  -4  -2  -7   46.80    4.50
  -4  -2  -7   42.40    3.80
   4   2   7   40.30    4.10
   4   2   7   54.09    5.00
   4   2   7   42.70    4.00
   4   2   7   42.10    4.20
   4   2   7   40.70    3.80
  -5  -2  -7   39.60    5.90
  -5  -2  -7   41.00    3.60
  -5  -2  -7   41.50    5.70
  -5  -2  -7   45.30    4.30
  -5  -2  -7   42.90    4.10
   5   2   7   44.50    5.80
   5   2   7   42.50    5.00
   5   2   7   49.60    4.70
   5   2   7   46.20    4.50
   5   2   7   37.40    4.70
   7  -3  -7   37.50    2.60
   7  -3  -7   32.90    3.40
   7  -3  -7   34.00    4.30
   7  -3  -7   34.60    3.30
   6  -3  -7   41.90    2.20
   6  -3  -7   50.39    4.30
   6  -3  -7   50.19    3.90
   6  -3  -7   45.20    2.50
   5  -3  -7  150.08    7.00
   5  -3  -7  179.98    4.30
   5  -3  -7  187.68    4.10
   5  -3  -7  186.28    6.40
   4  -3  -7  154.58    3.70
   4  -3  -7  149.19    3.70
   4  -3  -7  150.58    5.40
   4  -3  -7  151.18    3.70
   4  -3  -7  149.39    3.80
  -4   3   7  147.69    3.20
  -4   3   7  149.19    3.20
   3  -3  -7  111.49    3.10
   3  -3  -7  114.09    3.20
   3  -3  -7  111.09    4.50
   3  -3  -7  115.89    3.50
  -3   3   7  114.09    3.50
  -3   3   7  111.79    3.40
   2  -3  -7  940.31   18.10
   2  -3  -7  946.11   19.40
   2  -3  -7  940.21   18.30
   2  -3  -7  951.50   18.10
   2  -3  -7  954.50   18.80
  -2   3   7  981.80   18.90
  -2   3   7  949.31   18.70
   1  -3  -7  128.79    4.10
   1  -3  -7  133.69    4.00
   1  -3  -7  129.49    3.80
   1  -3  -7  134.09    4.60
   1  -3  -7  130.59    4.60
  -1   3   7  129.69    3.40
  -1   3   7  130.59    3.90
  -1   3   7  129.49    4.30
  -1   3   7  130.59    4.40
   0  -3  -7   28.10    2.50
   0  -3  -7   26.80    2.30
   0  -3  -7   26.60    2.20
   0  -3  -7   26.60    2.60
   0  -3  -7   26.60    2.70
   0   3   7   27.70    1.80
   0   3   7   26.20    2.80
   0   3   7   26.80    2.40
   0   3   7   33.10    3.00
  -1  -3  -7  140.69    4.70
  -1  -3  -7  130.89    5.00
  -1  -3  -7  127.69    4.80
  -1  -3  -7  129.79    4.60
  -1  -3  -7  136.89    5.60
   1   3   7  135.79    5.00
   1   3   7  135.09    4.20
   1   3   7  134.39    5.50
   1   3   7  130.89    5.30
   1   3   7  133.59    5.20
  -2  -3  -7    2.40    2.00
  -2  -3  -7    0.90    1.70
  -2  -3  -7    1.10    2.40
  -2  -3  -7    0.20    1.60
  -2  -3  -7    4.60    1.70
   2   3   7    0.40    1.80
   2   3   7    2.60    2.40
   2   3   7    2.30    1.70
   2   3   7    2.30    2.10
  -3  -3  -7    2.90    3.00
  -3  -3  -7    3.90    2.00
  -3  -3  -7    7.10    2.60
  -3  -3  -7    4.30    2.10
  -3  -3  -7    0.20    3.30
   3   3   7    4.60    2.60
   3   3   7    5.80    1.80
   3   3   7    0.70    1.70
   3   3   7    6.40    3.00
   3   3   7    1.90    2.40
  -4  -3  -7   56.99    6.40
  -4  -3  -7   82.49    6.80
  -4  -3  -7   79.89    5.20
  -4  -3  -7   69.09    5.30
  -4  -3  -7   73.29    4.00
  -4  -3  -7   85.09    7.20
   4   3   7   79.49    6.50
   4   3   7   81.09    6.30
   4   3   7   70.09    5.10
   4   3   7   69.39    5.20
   4   3   7   73.59    7.20
  -5  -3  -7   34.20    5.90
  -5  -3  -7   31.50    4.10
  -5  -3  -7   24.40    4.00
  -5  -3  -7   21.90    2.70
  -5  -3  -7   30.20    5.30
  -5  -3  -7   35.90    4.00
   5   3   7   29.90    5.20
   5   3   7   36.50    4.70
   5   3   7   23.00    4.20
   5   3   7   34.00    6.00
   5   3   7   26.20    3.20
   7  -4  -7    3.90    4.60
   7  -4  -7    3.30    2.30
   7  -4  -7   10.70    2.70
   7  -4  -7    8.90    1.80
   6  -4  -7    3.70    3.50
   6  -4  -7    6.50    1.70
   6  -4  -7    7.00    1.40
   6  -4  -7    7.10    2.60
   5  -4  -7   10.50    1.40
   5  -4  -7    9.50    2.60
   5  -4  -7    8.30    1.30
   5  -4  -7   11.00    1.40
   5  -4  -7    7.50    1.40
   4  -4  -7   47.30    2.30
   4  -4  -7   43.20    4.50
   4  -4  -7   47.10    2.30
   4  -4  -7   41.70    2.60
   4  -4  -7   46.90    2.30
  -4   4   7   42.50    2.30
   3  -4  -7  351.16    7.70
   3  -4  -7  355.16    7.40
  -3   4   7  316.17    8.60
  -3   4   7  351.36    8.00
   2  -4  -7   17.40    1.80
   2  -4  -7   19.90    2.00
   2  -4  -7   20.20    1.60
   2  -4  -7   17.70    1.90
   2  -4  -7   18.70    2.30
  -2   4   7   17.30    2.00
  -2   4   7   19.90    1.40
  -2   4   7   20.70    1.70
  -2   4   7   16.80    2.20
   1  -4  -7  268.67    6.70
   1  -4  -7  261.27    7.40
   1  -4  -7  270.57    6.80
   1  -4  -7  262.17    6.50
   1  -4  -7  264.47    7.40
  -1   4   7  256.67    7.30
  -1   4   7  264.97    6.80
  -1   4   7  265.67    7.40
  -1   4   7  268.77    6.00
   0  -4  -7   13.20    2.30
   0  -4  -7   14.90    1.80
   0  -4  -7   15.60    2.00
   0  -4  -7   14.40    1.90
   0  -4  -7   13.90    2.20
   0   4   7   12.50    2.30
   0   4   7   12.80    2.20
   0   4   7   18.90    2.10
   0   4   7   15.30    1.60
  -1  -4  -7  199.98    7.30
  -1  -4  -7  196.98    6.10
  -1  -4  -7  205.68    6.10
  -1  -4  -7  195.68    6.40
  -1  -4  -7  185.18    6.60
   1   4   7  205.48    5.60
   1   4   7  196.88    7.60
   1   4   7  198.48    6.50
   1   4   7  204.88    6.90
  -2  -4  -7    8.00    2.70
  -2  -4  -7   10.00    2.30
  -2  -4  -7    9.00    2.10
  -2  -4  -7    6.90    2.00
  -2  -4  -7    5.30    3.00
   2   4   7   14.30    3.10
   2   4   7    9.50    3.10
   2   4   7    6.10    3.10
   2   4   7    6.00    2.00
  -3  -4  -7   35.40    3.80
  -3  -4  -7   40.80    5.10
  -3  -4  -7   30.80    3.40
  -3  -4  -7   37.30    4.10
   3   4   7   33.30    4.10
   3   4   7   33.80    3.40
   3   4   7   27.60    5.00
   3   4   7   33.40    4.00
  -4  -4  -7    4.10    3.00
  -4  -4  -7   12.80    3.60
  -4  -4  -7    0.20    4.80
  -4  -4  -7    9.80    2.70
  -4  -4  -7    8.20    4.20
  -4  -4  -7    1.80    2.50
   4   4   7   10.30    3.80
   4   4   7    6.50    2.50
   4   4   7   11.00    5.00
   6  -5  -7   33.30    2.90
   6  -5  -7   33.60    3.00
   6  -5  -7   29.30    2.90
   6  -5  -7   40.50    4.50
   6  -5  -7   29.10    2.40
   5  -5  -7   34.80    2.60
   5  -5  -7   33.50    3.00
   5  -5  -7   39.00    4.00
   5  -5  -7   39.20    2.80
   5  -5  -7   37.00    2.70
  -5   5   7   33.20    2.40
  -5   5   7   38.00    2.30
   4  -5  -7   90.59    5.40
   4  -5  -7   85.79    3.50
   4  -5  -7   93.79    4.00
   4  -5  -7   89.49    3.30
   4  -5  -7   87.79    3.50
  -4   5   7   91.29    3.60
  -4   5   7   90.49    3.90
   3  -5  -7  136.79    4.10
   3  -5  -7  134.89    4.10
   3  -5  -7  129.79    4.10
   3  -5  -7  132.09    4.70
   3  -5  -7  122.19    5.60
  -3   5   7  129.99    4.70
  -3   5   7  128.09    4.60
   2  -5  -7  313.37    7.50
   2  -5  -7  316.27    7.50
   2  -5  -7  318.77    7.30
   2  -5  -7  302.97    8.20
   2  -5  -7  304.37    8.70
  -2   5   7  300.87    7.00
  -2   5   7  292.97    9.70
  -2   5   7  293.07    6.70
   1  -5  -7  258.77    7.80
   1  -5  -7  252.37    7.00
   1  -5  -7  262.17    7.90
   1  -5  -7  258.17    7.00
   1  -5  -7  262.67    6.70
  -1   5   7  257.87    6.90
  -1   5   7  260.67    6.30
  -1   5   7  273.37    7.90
   0  -5  -7  238.48    8.10
   0  -5  -7  244.08    6.90
   0  -5  -7  235.88    7.40
   0  -5  -7  239.18    7.30
   0   5   7  251.97    7.60
   0   5   7  250.57    6.50
   0   5   7  249.78    8.20
   0   5   7  243.38   11.20
  -1  -5  -7  122.29    5.90
  -1  -5  -7  124.99    6.50
  -1  -5  -7  133.39    6.00
  -1  -5  -7  124.19    5.00
  -1  -5  -7  124.69    5.00
   1   5   7  111.99    6.40
   1   5   7  113.49    6.20
   1   5   7  116.89    5.60
  -2  -5  -7  369.06    9.80
  -2  -5  -7  366.76   11.90
  -2  -5  -7  364.56   10.30
  -2  -5  -7  364.56   11.20
  -2  -5  -7  375.16   10.00
   2   5   7  368.26    9.10
   2   5   7  377.46   11.40
   2   5   7  372.96   11.70
   2   5   7  381.66   11.50
  -3  -5  -7   13.90    4.00
  -3  -5  -7   17.80    4.60
  -3  -5  -7    9.90    2.90
  -3  -5  -7   14.30    2.90
  -3  -5  -7   16.70    3.00
  -3  -5  -7   12.80    2.60
   3   5   7    9.80    4.10
   3   5   7   11.20    2.40
   3   5   7   12.30    3.70
   3   5   7   13.00    4.50
  -4  -5  -7    0.70    2.70
  -4  -5  -7    0.60    4.00
  -4  -5  -7    7.50    3.40
  -4  -5  -7    8.70    6.20
  -4  -5  -7   -0.30    3.40
   4   5   7   -1.90    2.30
   4   5   7   -0.10    5.00
   4   5   7   -3.70    3.50
   4   5   7   -8.40    5.50
   6  -6  -7  129.29    8.10
   6  -6  -7  108.39    4.80
   6  -6  -7  130.49    5.40
   6  -6  -7  116.69    4.70
   6  -6  -7  118.09    5.50
  -6   6   7  122.29    3.30
   5  -6  -7    1.20    1.90
   5  -6  -7    0.70    2.00
   5  -6  -7    0.30    1.90
   5  -6  -7    5.20    3.50
   5  -6  -7    3.90    1.70
  -5   6   7    1.50    2.00
  -5   6   7   -1.10    1.80
   4  -6  -7    9.20    1.80
   4  -6  -7    8.30    1.80
   4  -6  -7    6.90    1.90
   4  -6  -7    6.30    2.30
   4  -6  -7   11.60    3.30
  -4   6   7   10.00    2.20
  -4   6   7    8.20    2.20
   3  -6  -7    0.00    2.50
   3  -6  -7   -1.60    1.40
   3  -6  -7    1.70    2.00
   3  -6  -7   -1.20    1.80
  -3   6   7    0.30    1.60
  -3   6   7    4.00    2.20
   2  -6  -7  500.95   11.10
   2  -6  -7  493.75   12.60
   2  -6  -7  506.95   11.30
   2  -6  -7  482.95   12.20
  -2   6   7  510.45   12.10
  -2   6   7  509.85   12.40
  -2   6   7  506.85   11.10
  -2   6   7  483.65   10.50
   1  -6  -7  119.79    4.70
   1  -6  -7  105.09    5.70
   1  -6  -7  119.79    4.90
   1  -6  -7  113.39    5.60
   1  -6  -7  113.69    4.50
  -1   6   7  111.49    5.50
  -1   6   7  115.89    4.90
  -1   6   7  117.59    4.00
  -1   6   7  111.19    6.30
   0  -6  -7  200.68    8.20
   0  -6  -7  209.08    6.50
   0  -6  -7  221.68    7.40
   0  -6  -7  217.08    7.90
   0  -6  -7  210.78    6.60
   0   6   7  201.68    8.00
   0   6   7  215.38    6.30
   0   6   7  216.98    7.70
   0   6   7  194.68    7.90
  -1  -6  -7   10.30    2.50
  -1  -6  -7   20.80    4.20
  -1  -6  -7   14.40    3.20
  -1  -6  -7   10.60    2.90
  -1  -6  -7   15.20    2.60
   1   6   7   13.70    2.50
   1   6   7    8.60    3.60
   1   6   7   15.80    3.80
   1   6   7   13.70    3.70
  -2  -6  -7    5.10    2.80
  -2  -6  -7    9.30    3.10
  -2  -6  -7    6.70    3.60
  -2  -6  -7   -1.50    2.30
  -2  -6  -7    3.80    4.40
  -2  -6  -7    2.90    2.50
   2   6   7    3.60    3.90
   2   6   7    4.00    2.20
   2   6   7    9.70    4.10
   2   6   7    5.80    3.60
  -3  -6  -7    4.10    4.10
  -3  -6  -7    5.20    5.80
  -3  -6  -7    3.90    2.80
  -3  -6  -7    3.60    2.90
  -3  -6  -7    1.80    3.30
  -3  -6  -7    2.30    3.30
   3   6   7    4.40    6.10
   3   6   7    6.30    5.50
   3   6   7    7.60    2.50
   3   6   7    1.00    3.70
   5  -7  -7   70.79    5.10
   5  -7  -7   69.39    4.60
   5  -7  -7   64.69    5.70
   5  -7  -7   72.09    6.90
   5  -7  -7   64.69    4.30
   5  -7  -7   61.09    5.00
  -5   7   7   67.59    5.30
   4  -7  -7    2.50    1.80
   4  -7  -7    6.80    2.00
   4  -7  -7    1.30    2.80
   4  -7  -7    7.10    3.40
   4  -7  -7    8.80    2.10
  -4   7   7    7.90    2.80
  -4   7   7    4.60    2.70
   3  -7  -7   77.49    4.00
   3  -7  -7   62.19    5.50
   3  -7  -7   79.69    4.30
   3  -7  -7   80.99    6.00
   3  -7  -7   79.39    4.10
  -3   7   7   75.89    4.90
  -3   7   7   79.49    3.10
  -3   7   7   77.39    4.60
  -3   7   7   72.99    3.00
   2  -7  -7   74.59    5.80
   2  -7  -7   59.99    5.90
   2  -7  -7   75.79    5.00
   2  -7  -7   77.19    4.10
   2  -7  -7   71.19    4.40
  -2   7   7   72.49    5.00
  -2   7   7   80.09    4.70
  -2   7   7   70.49    5.20
  -2   7   7   71.59    3.60
   1  -7  -7  618.44   15.20
   1  -7  -7  614.44   15.70
   1  -7  -7  614.74   14.50
   1  -7  -7  628.24   14.00
   1  -7  -7  606.44   14.00
  -1   7   7  603.44   15.60
  -1   7   7  638.84   14.90
  -1   7   7  609.34   15.40
   0  -7  -7   39.20    4.10
   0  -7  -7   39.60    4.40
   0  -7  -7   42.10    4.20
   0  -7  -7   44.80    5.00
   0  -7  -7   49.00    4.20
   0  -7  -7   35.20    3.30
   0   7   7   45.00    4.70
   0   7   7   42.10    4.70
   0   7   7   41.10    4.80
   0   7   7   39.50    3.50
  -1  -7  -7    8.30    4.70
  -1  -7  -7    8.30    2.80
  -1  -7  -7    3.30    4.00
  -1  -7  -7    7.20    3.00
  -1  -7  -7    5.80    2.70
  -1  -7  -7    3.50    4.10
   1   7   7    7.10    3.70
   1   7   7    8.60    2.50
   1   7   7    0.70    4.20
   1   7   7   11.90    4.40
  -2  -7  -7   33.70    3.60
  -2  -7  -7   40.00    4.20
  -2  -7  -7   27.10    4.50
  -2  -7  -7   32.00    3.90
  -2  -7  -7   20.50    6.10
  -2  -7  -7   35.20    4.60
   2   7   7   43.20    6.20
   2   7   7   24.40    5.80
   2   7   7   38.20    5.10
   2   7   7   38.90    3.90
   4  -8  -7   13.40    2.80
   4  -8  -7   17.30    3.70
   4  -8  -7   16.10    2.90
   4  -8  -7   10.30    3.70
   4  -8  -7   11.80    3.00
   4  -8  -7   16.40    2.90
  -4   8   7   10.90    3.20
   3  -8  -7   12.70    2.70
   3  -8  -7    8.00    3.10
   3  -8  -7    9.50    3.00
   3  -8  -7   13.80    3.70
   3  -8  -7   12.30    3.20
   3  -8  -7   13.90    3.00
  -3   8   7   12.40    2.30
  -3   8   7    7.80    3.00
   2  -8  -7   -1.50    3.60
   2  -8  -7    1.50    2.80
   2  -8  -7    5.30    3.50
   2  -8  -7   -0.40    2.40
   2  -8  -7    4.50    2.70
   2  -8  -7    7.60    3.10
  -2   8   7    5.20    2.80
  -2   8   7   -0.60    2.90
  -2   8   7    2.60    3.30
  -2   8   7    3.70    2.30
   1  -8  -7   18.10    4.00
   1  -8  -7   11.90    3.10
   1  -8  -7   15.70    4.40
   1  -8  -7   13.00    3.50
   1  -8  -7   11.30    2.90
   1  -8  -7   18.90    3.40
  -1   8   7   14.90    3.90
  -1   8   7   11.60    4.10
  -1   8   7    8.60    2.20
  -1   8   7   19.30    4.00
   0  -8  -7   -3.80    3.10
   0  -8  -7    1.30    2.60
   0  -8  -7    3.20    3.60
   0  -8  -7    0.20    2.70
   0  -8  -7   -3.30    4.50
   0  -8  -7    2.00    3.00
   0   8   7    5.70    4.50
   0   8   7   -9.30    4.00
   0   8   7    6.10    4.50
   0   8   7    0.20    2.80
   1  11  -8   81.19    5.40
   1  11  -8   82.49    5.70
   1  11  -8   89.19    5.50
   1  11  -8   77.99    8.50
   1  11  -8   79.69    5.70
  -1 -11   8   89.99    6.10
  -1 -11   8   92.39    5.80
  -1 -11   8   85.39    8.00
  -1 -11   8   67.79    6.80
  -1 -11   8   86.19    7.40
  -1 -11   8   94.19    7.40
   0  11  -8    2.30    2.80
   0  11  -8    0.90    2.50
   0  11  -8    0.30    2.80
   0  11  -8    3.00    3.00
   0 -11   8    2.40    4.50
   0 -11   8    1.90    3.00
   0 -11   8   -2.30    2.20
   0 -11   8    3.80    4.70
   0 -11   8   -4.90    3.80
   0 -11   8   -1.60    5.20
  -1  11  -8   -4.60    3.20
  -1  11  -8   12.90    4.90
  -1  11  -8    1.80    2.80
  -1  11  -8    5.50    2.70
  -1  11  -8    5.30    2.80
   1 -11   8    8.60    5.20
   1 -11   8   -0.80    2.30
   1 -11   8   -5.80    3.90
   1 -11   8    3.30    4.50
   1 -11   8    6.10    4.20
   1 -11   8   -0.80    3.80
  -2  11  -8  102.59    7.30
  -2  11  -8   92.29    6.40
  -2  11  -8  105.99    5.90
  -2  11  -8   92.39    8.80
  -2  11  -8  104.49    6.00
   2 -11   8   99.29    7.90
   2 -11   8   90.09    8.90
   2 -11   8  106.09    5.70
   2 -11   8   88.69    7.90
   2 -11   8  111.99    9.10
   2 -11   8   93.39    7.10
  -3  11  -8   37.80    5.00
  -3  11  -8   36.80    3.60
  -3  11  -8   40.40    3.90
  -3  11  -8   40.20    6.60
   3 -11   8   39.50    4.90
   3 -11   8   39.70    5.10
   3 -11   8   47.00    7.70
   3 -11   8   53.79    6.50
   3 -11   8   37.80    3.70
   3 -11   8   42.90    5.40
   2  10  -8  122.99    5.90
   2  10  -8  123.09    8.10
   2  10  -8  124.09    6.00
   2  10  -8  117.49    6.90
   2  10  -8  123.89    6.40
  -2 -10   8  121.79    8.30
  -2 -10   8  130.69    6.10
  -2 -10   8  122.89    5.50
  -2 -10   8  122.79    7.70
  -2 -10   8  138.89    7.40
  -2 -10   8  129.79    7.60
   1  10  -8   30.30    3.50
   1  10  -8   35.90    3.40
   1  10  -8   31.10    4.80
   1  10  -8   44.70    4.30
   1  10  -8   47.60    4.40
  -1 -10   8   40.10    4.70
  -1 -10   8   40.80    4.50
  -1 -10   8   39.50    3.70
  -1 -10   8   41.50    4.80
  -1 -10   8   41.60    4.70
  -1 -10   8   48.80    5.30
   0  10  -8    2.10    2.40
   0  10  -8    1.20    2.20
   0  10  -8   -0.80    3.50
   0  10  -8   -3.40    3.20
   0  10  -8   -2.10    2.20
   0 -10   8   -0.70    3.00
   0 -10   8    0.80    3.60
   0 -10   8   -1.40    2.00
   0 -10   8   -6.50    3.20
   0 -10   8   -0.30    3.40
  -1  10  -8  185.88    8.90
  -1  10  -8  184.38    8.20
  -1  10  -8  186.88    6.70
  -1  10  -8  176.28    6.60
  -1  10  -8  182.08    6.60
   1 -10   8  179.18    8.40
   1 -10   8  180.28    8.70
   1 -10   8  184.78    8.20
   1 -10   8  180.78    7.40
   1 -10   8  173.48    8.50
   1 -10   8  180.88    6.40
  -2  10  -8   46.50    4.50
  -2  10  -8   56.49    4.50
  -2  10  -8   65.09    5.50
   2 -10   8   49.99    5.40
   2 -10   8   60.39    6.70
   2 -10   8   53.79    5.10
   2 -10   8   55.99    5.50
   2 -10   8   63.79    4.50
   2 -10   8   70.09    6.40
  -3  10  -8  213.58    7.70
  -3  10  -8  204.68    7.30
  -3  10  -8  210.08    7.00
  -3  10  -8  202.38    9.00
  -3  10  -8  212.68   10.40
   3 -10   8  213.28    9.60
   3 -10   8  215.08    7.20
   3 -10   8  209.98    8.90
   3 -10   8  217.48   10.30
   3 -10   8  211.88    9.00
   3 -10   8  185.78   10.10
  -4  10  -8    8.20    2.30
  -4  10  -8    4.40    4.90
  -4  10  -8    7.70    3.10
  -4  10  -8    8.30    4.00
   4 -10   8   14.30    3.70
   4 -10   8    3.80    2.70
   4 -10   8    2.40    4.10
   4 -10   8    3.20    3.80
   4 -10   8    8.70    5.60
   3   9  -8   11.00    3.60
   3   9  -8    7.90    2.50
   3   9  -8    7.90    3.30
   3   9  -8    2.70    2.40
   3   9  -8   10.00    2.60
  -3  -9   8   10.70    5.20
  -3  -9   8    8.70    3.60
  -3  -9   8    5.20    3.00
  -3  -9   8   10.00    3.80
  -3  -9   8   13.30    2.70
   2   9  -8   73.69    4.40
   2   9  -8   79.69    4.70
   2   9  -8   70.29    6.00
   2   9  -8   77.49    5.10
   2   9  -8   67.09    4.50
  -2  -9   8   73.89    5.40
  -2  -9   8   80.39    6.70
  -2  -9   8   80.99    6.00
  -2  -9   8   86.49    4.50
  -2  -9   8   81.59    3.90
  -2  -9   8   72.59    5.70
   1   9  -8   35.70    3.50
   1   9  -8   33.60    3.80
   1   9  -8   39.10    4.20
   1   9  -8   33.40    3.20
   1   9  -8   38.70    3.90
  -1  -9   8   27.70    4.00
  -1  -9   8   40.20    6.50
  -1  -9   8   40.70    4.20
  -1  -9   8   33.80    3.20
  -1  -9   8   39.70    4.40
  -1  -9   8   32.10    3.40
   0   9  -8  498.55   12.50
   0   9  -8  493.25   11.60
   0   9  -8  491.25   13.50
   0   9  -8  488.75   11.80
   0   9  -8  485.35   11.90
   0  -9   8  486.25   13.40
   0  -9   8  503.35   13.30
   0  -9   8  499.95   12.30
   0  -9   8  499.75   11.40
   0  -9   8  489.65   13.50
   0  -9   8  497.85   12.80
  -1   9  -8   16.50    3.60
  -1   9  -8   15.80    2.50
  -1   9  -8   13.80    2.70
  -1   9  -8   17.30    2.50
   1  -9   8   18.70    3.60
   1  -9   8   17.70    3.30
   1  -9   8   18.30    3.30
   1  -9   8   12.70    2.60
  -2   9  -8   15.30    2.30
  -2   9  -8   20.50    2.70
  -2   9  -8   19.20    3.90
  -2   9  -8   16.80    3.10
   2  -9   8   17.40    3.30
   2  -9   8   14.50    3.60
   2  -9   8   20.90    3.50
   2  -9   8   20.30    2.50
   2  -9   8   16.40    3.10
   2  -9   8   16.60    3.30
  -3   9  -8   21.00    2.90
  -3   9  -8   24.70    4.40
  -3   9  -8   18.80    2.40
  -3   9  -8   23.50    4.10
  -3   9  -8   21.80    3.00
   3  -9   8   18.80    3.90
   3  -9   8   21.90    2.80
   3  -9   8    9.80    3.50
   3  -9   8   23.70    3.50
   3  -9   8   28.10    5.40
   3  -9   8   24.70    3.70
  -4   9  -8   95.29    8.00
  -4   9  -8   96.69    4.70
  -4   9  -8   97.29    5.60
  -4   9  -8  103.19    5.60
  -4   9  -8  105.79    6.90
   4  -9   8   99.49    8.30
   4  -9   8   86.29    7.00
   4  -9   8  108.09    7.20
   4  -9   8   91.29    5.20
   4  -9   8   96.09    5.90
   4  -9   8   90.09    8.10
  -5   9  -8   -2.30    4.70
  -5   9  -8    7.20    2.90
  -5   9  -8    1.90    3.20
  -5   9  -8    5.40    3.70
  -5   9  -8   -0.90    2.00
   5  -9   8    1.50    4.90
   5  -9   8    2.40    5.20
   5  -9   8    5.70    3.50
   5  -9   8    6.00    2.80
   5  -9   8    1.60    4.50
   5  -9   8    2.10    4.20
   4   8  -8    4.00    2.80
   4   8  -8   -0.20    2.60
   4   8  -8    0.30    2.10
   4   8  -8    0.40    2.30
   4   8  -8    2.50    2.80
  -4  -8   8    2.40    2.40
  -4  -8   8   -0.50    5.00
  -4  -8   8    0.30    1.80
  -4  -8   8    1.90    1.90
   3   8  -8   17.50    2.40
   3   8  -8   12.00    2.30
   3   8  -8   18.40    2.90
   3   8  -8   17.20    2.50
   3   8  -8   16.20    3.20
  -3  -8   8   18.40    2.80
  -3  -8   8   19.70    2.90
  -3  -8   8   16.70    2.80
  -3  -8   8   16.20    1.70
  -3  -8   8   16.80    2.20
  -3  -8   8   11.50    3.70
   2   8  -8  207.38    8.10
   2   8  -8  212.08    6.40
   2   8  -8  216.58    7.10
   2   8  -8  220.78    6.60
   2   8  -8  216.48    6.50
  -2  -8   8  217.38    5.90
  -2  -8   8  214.38    5.90
  -2  -8   8  220.38    9.10
  -2  -8   8  229.78    7.90
  -2  -8   8  222.68    7.20
  -2  -8   8  216.68    7.30
   1   8  -8    2.10    2.50
   1   8  -8    0.40    1.70
   1   8  -8    0.70    1.50
   1   8  -8    2.10    1.80
   1   8  -8    1.80    1.70
  -1  -8   8    0.60    2.40
  -1  -8   8    3.40    2.20
  -1  -8   8    0.70    1.50
  -1  -8   8    3.20    2.50
  -1  -8   8    0.00    1.80
  -1  -8   8    2.00    2.00
   0   8  -8  145.39    6.40
   0   8  -8  138.09    5.40
   0   8  -8  135.99    5.20
   0   8  -8  130.69    5.00
   0  -8   8  142.69    6.10
   0  -8   8  132.99    5.80
   0  -8   8  139.89    6.20
   0  -8   8  136.89    5.20
   0  -8   8  134.49    6.30
   0  -8   8  142.79    5.70
  -1   8  -8  104.59    4.50
  -1   8  -8  105.09    4.90
  -1   8  -8   96.69    4.30
  -1   8  -8  105.79    5.80
  -1   8  -8  106.69    4.50
   1  -8   8  109.09    5.30
   1  -8   8  106.09    5.70
   1  -8   8  103.69    5.00
   1  -8   8   90.09    5.30
   1  -8   8  101.39    4.10
   1  -8   8  101.19    5.60
  -2   8  -8   93.29    5.10
  -2   8  -8   90.99    6.00
  -2   8  -8   94.19    4.40
  -2   8  -8   89.19    4.40
   2  -8   8   87.89    4.00
   2  -8   8   92.59    5.00
   2  -8   8   92.39    5.80
   2  -8   8   90.29    5.40
   2  -8   8   93.99    5.40
   2  -8   8   74.49    5.80
  -3   8  -8   -2.70    2.80
  -3   8  -8    2.90    2.40
  -3   8  -8    2.40    2.00
  -3   8  -8    0.30    1.40
  -3   8  -8    1.80    3.60
   3  -8   8   -0.10    1.90
   3  -8   8    2.80    2.70
   3  -8   8    4.50    2.50
   3  -8   8    1.70    2.70
   3  -8   8    3.20    3.10
   3  -8   8    4.40    2.40
  -4   8  -8   19.70    2.10
  -4   8  -8   20.60    3.50
  -4   8  -8   19.30    3.10
  -4   8  -8   25.70    3.10
  -4   8  -8   21.10    4.30
   4  -8   8   18.10    3.40
   4  -8   8   15.80    2.70
   4  -8   8   20.30    4.40
   4  -8   8   20.50    3.60
   4  -8   8   18.90    3.70
   4  -8   8   15.20    3.20
  -5   8  -8  109.99    7.60
  -5   8  -8  118.49    6.50
  -5   8  -8  103.19    4.10
  -5   8  -8  105.89    8.50
  -5   8  -8  112.49    6.60
   5  -8   8  116.19    8.80
   5  -8   8   98.29    7.30
   5  -8   8   89.79    7.70
   5  -8   8  112.09    8.50
   5  -8   8   94.89    6.00
  -6   8  -8   17.60    4.80
  -6   8  -8   12.30    3.60
  -6   8  -8   14.90    3.30
  -6   8  -8   15.50    4.80
   6  -8   8   15.40    6.10
   6  -8   8   21.20    4.70
   6  -8   8   16.80    3.90
   5   7  -8  390.06   10.50
   5   7  -8  359.86   10.30
   5   7  -8  392.96   10.20
   5   7  -8  395.16   10.20
   5   7  -8  387.36   11.10
  -5  -7   8  393.06   13.90
   4   7  -8   49.90    4.40
   4   7  -8   43.00    4.10
   4   7  -8   50.49    3.70
   4   7  -8   41.50    4.00
   4   7  -8   46.90    4.60
  -4  -7   8   51.59    3.90
  -4  -7   8   53.69    5.00
  -4  -7   8   40.70    3.80
   3   7  -8  284.97    7.90
   3   7  -8  245.58    6.90
   3   7  -8  258.27    6.90
   3   7  -8  255.17    8.10
   3   7  -8  252.07    7.60
  -3  -7   8  252.97    6.70
  -3  -7   8  260.27    7.50
  -3  -7   8  265.87    9.10
  -3  -7   8  244.38    5.50
  -3  -7   8  253.27    6.30
   2   7  -8   60.19    3.40
   2   7  -8   68.29    3.90
   2   7  -8   72.39    3.20
   2   7  -8   63.69    4.10
  -2  -7   8   64.39    3.90
  -2  -7   8   72.99    3.90
  -2  -7   8   67.89    4.20
  -2  -7   8   63.19    4.90
  -2  -7   8   69.89    3.10
  -2  -7   8   64.29    3.00
   1   7  -8   15.50    2.10
   1   7  -8   14.20    2.70
   1   7  -8   15.60    1.90
   1   7  -8   16.90    2.00
  -1  -7   8   13.40    2.30
  -1  -7   8   16.90    1.90
  -1  -7   8   14.20    1.50
  -1  -7   8   13.30    2.10
  -1  -7   8   18.20    2.60
  -1  -7   8   13.40    2.70
   0   7  -8   20.60    2.20
   0   7  -8   20.80    2.10
   0   7  -8   21.60    2.00
   0   7  -8   18.40    2.20
   0   7  -8   22.80    2.90
   0  -7   8   20.20    2.60
   0  -7   8   18.20    3.20
   0  -7   8   22.10    2.60
   0  -7   8   18.40    2.10
   0  -7   8   22.80    2.40
   0  -7   8   20.30    2.40
  -1   7  -8   79.79    3.80
  -1   7  -8   82.69    5.00
  -1   7  -8   79.09    4.50
  -1   7  -8   78.09    3.70
   1  -7   8   89.59    4.90
   1  -7   8   84.79    4.50
   1  -7   8   87.49    3.70
   1  -7   8   89.49    4.60
   1  -7   8   83.09    4.70
   1  -7   8   83.79    4.30
  -2   7  -8  160.38    5.10
  -2   7  -8  161.78    5.50
  -2   7  -8  146.39    6.20
  -2   7  -8  147.39    5.40
  -2   7  -8  156.28    6.70
   2  -7   8  138.59    6.10
   2  -7   8  152.68    6.60
   2  -7   8  153.88    6.00
   2  -7   8  143.79    5.10
   2  -7   8  146.09    6.00
  -3   7  -8   16.90    2.50
  -3   7  -8   16.90    3.40
  -3   7  -8   19.90    2.80
  -3   7  -8   18.30    2.40
  -3   7  -8   21.80    2.40
   3  -7   8   17.20    2.90
   3  -7   8   20.20    2.90
   3  -7   8   18.80    3.00
   3  -7   8   19.10    2.30
   3  -7   8   17.80    3.40
   3  -7   8   21.30    3.10
  -4   7  -8  260.27    6.70
  -4   7  -8  253.87   11.10
  -4   7  -8  275.27    8.10
  -4   7  -8  267.57    8.50
  -4   7  -8  266.67    8.70
   4  -7   8  263.87    9.20
   4  -7   8  268.77    9.20
   4  -7   8  272.07    8.10
   4  -7   8  266.57    9.90
   4  -7   8  277.07    9.10
  -5   7  -8    0.70    2.60
  -5   7  -8   -8.10    2.70
  -5   7  -8    4.10    3.70
  -5   7  -8    1.10    1.40
  -5   7  -8   -0.50    2.80
   5  -7   8    4.30    4.20
   5  -7   8    2.80    3.40
   5  -7   8   -4.20    2.50
   5  -7   8    3.60    3.10
   5  -7   8    1.10    3.40
  -6   7  -8   34.20    5.40
  -6   7  -8   35.70    4.40
  -6   7  -8   37.80    4.60
  -6   7  -8   26.70    4.60
   6  -7   8   31.10    4.90
   6  -7   8   30.00    5.80
   6  -7   8   29.80    4.70
   6  -7   8   27.90    4.00
   6  -7   8   31.20    5.70
   5   6  -8    7.20    2.10
   5   6  -8   13.30    2.10
   5   6  -8    8.10    2.50
   5   6  -8   10.80    2.50
   5   6  -8    9.40    2.80
  -5  -6   8   11.00    3.70
  -5  -6   8   12.00    2.80
  -5  -6   8    4.90    2.20
   4   6  -8    1.50    1.60
   4   6  -8    3.60    2.30
   4   6  -8    0.50    1.30
   4   6  -8   -2.10    1.30
   4   6  -8    2.40    2.10
  -4  -6   8   -0.90    1.90
  -4  -6   8    0.40    1.70
  -4  -6   8    3.70    2.90
   3   6  -8  197.08    5.50
   3   6  -8  198.68    5.40
   3   6  -8  200.48    5.70
   3   6  -8  197.98    6.30
   3   6  -8  184.38    6.00
  -3  -6   8  203.18    5.90
  -3  -6   8  203.88    6.30
  -3  -6   8  200.48    4.60
  -3  -6   8  215.98    8.90
  -3  -6   8  197.78    4.50
  -3  -6   8  192.08    4.90
   2   6  -8  110.59    3.80
   2   6  -8  109.59    4.60
   2   6  -8  112.89    3.80
   2   6  -8  106.39    4.60
  -2  -6   8  112.29    3.60
  -2  -6   8  102.59    3.20
  -2  -6   8  113.69    4.00
  -2  -6   8  110.39    4.50
  -2  -6   8   95.09    4.80
   1   6  -8   13.90    1.70
   1   6  -8   12.50    2.00
   1   6  -8   12.30    1.90
   1   6  -8   14.30    1.90
   1   6  -8   16.60    1.80
  -1  -6   8   16.40    1.50
  -1  -6   8   13.60    2.40
  -1  -6   8   14.60    1.70
  -1  -6   8   14.30    2.00
  -1  -6   8   13.90    2.00
  -1  -6   8   13.90    2.30
   0   6  -8  887.61   18.10
   0   6  -8  902.61   17.90
   0   6  -8  893.31   18.90
   0   6  -8  881.21   18.30
   0   6  -8  896.71   18.10
   0  -6   8  883.41   19.20
   0  -6   8  886.51   17.40
   0  -6   8  872.81   18.80
   0  -6   8  902.21   18.60
   0  -6   8  879.41   18.20
   0  -6   8  896.21   18.50
  -1   6  -8  122.39    4.50
  -1   6  -8  123.49    5.30
  -1   6  -8  118.99    4.40
  -1   6  -8  123.79    4.50
  -1   6  -8  122.59    4.90
   1  -6   8  122.79    4.90
   1  -6   8  116.59    5.20
   1  -6   8  118.39    4.70
   1  -6   8  124.49    4.90
   1  -6   8  119.49    4.10
   1  -6   8  122.69    5.10
  -2   6  -8  361.36    9.30
  -2   6  -8  351.56    9.10
  -2   6  -8  352.46    9.40
  -2   6  -8  361.86   10.20
  -2   6  -8  358.96    8.70
   2  -6   8  366.96    8.70
   2  -6   8  366.16    9.50
   2  -6   8  358.26   10.10
   2  -6   8  363.96    9.50
   2  -6   8  366.86    9.70
   2  -6   8  365.06    9.70
  -3   6  -8   52.99    3.20
  -3   6  -8   48.00    3.70
  -3   6  -8   44.90    4.10
  -3   6  -8   56.09    4.00
  -3   6  -8   49.00    3.80
   3  -6   8   48.90    4.20
   3  -6   8   55.39    4.40
   3  -6   8   57.09    5.00
   3  -6   8   50.19    4.00
   3  -6   8   54.09    4.00
   3  -6   8   56.59    3.70
  -4   6  -8   46.20    4.20
  -4   6  -8   43.80    2.80
  -4   6  -8   45.80    4.30
  -4   6  -8   43.20    4.40
  -4   6  -8   39.80    3.90
   4  -6   8   40.10    3.90
   4  -6   8   38.10    3.90
   4  -6   8   46.50    4.50
   4  -6   8   47.50    4.50
  -5   6  -8  254.57    9.00
  -5   6  -8  233.98    9.70
  -5   6  -8  244.48    8.10
  -5   6  -8  247.98    8.80
  -5   6  -8  249.88    6.10
   5  -6   8  229.68    9.20
   5  -6   8  242.88   10.00
   5  -6   8  256.37    8.60
   5  -6   8  232.88    9.40
   5  -6   8  246.78    8.90
  -6   6  -8    7.90    4.50
  -6   6  -8    9.00    3.30
  -6   6  -8    5.10    3.70
  -6   6  -8    6.20    1.00
  -6   6  -8    4.70    3.00
   6  -6   8    4.90    3.80
   6  -6   8   17.20    4.60
   6  -6   8   12.10    5.00
   6  -6   8    5.00    3.50
   6  -6   8    0.50    4.10
   6   5  -8   38.90    4.10
   6   5  -8   41.70    4.10
   6   5  -8   31.30    3.30
   6   5  -8   35.80    3.30
   6   5  -8   36.80    3.90
  -6  -5   8   42.20    3.90
  -6  -5   8   38.50    3.20
  -6  -5   8   32.90    4.40
   5   5  -8   32.50    3.60
   5   5  -8   41.30    3.30
   5   5  -8   35.00    3.00
   5   5  -8   33.80    2.70
   5   5  -8   34.00    3.80
  -5  -5   8   39.60    3.60
  -5  -5   8   29.80    3.80
  -5  -5   8   40.20    2.80
   4   5  -8    3.50    1.40
   4   5  -8    1.50    1.40
   4   5  -8    3.80    1.90
   4   5  -8    2.10    1.10
   4   5  -8    4.00    1.40
  -4  -5   8    0.90    1.40
  -4  -5   8    1.30    1.60
  -4  -5   8   -0.90    2.20
   3   5  -8  162.68    4.60
   3   5  -8  159.88    5.40
   3   5  -8  165.68    4.70
   3   5  -8  168.98    5.20
   3   5  -8  169.98    4.50
  -3  -5   8  169.68    4.10
  -3  -5   8  159.48    5.40
  -3  -5   8  166.28    5.20
  -3  -5   8  170.48    6.60
   2   5  -8   25.40    1.90
   2   5  -8   24.60    2.70
   2   5  -8   24.90    1.90
   2   5  -8   20.60    2.00
  -2  -5   8   23.20    2.50
  -2  -5   8   24.80    1.90
  -2  -5   8   26.10    2.60
  -2  -5   8   23.00    2.00
  -2  -5   8   24.90    1.40
  -2  -5   8   25.50    2.80
   1   5  -8  571.54   11.90
   1   5  -8  555.04   12.40
   1   5  -8  558.74   12.40
   1   5  -8  557.64   11.50
   1   5  -8  562.74   11.70
  -1  -5   8  553.84   12.30
  -1  -5   8  534.85   12.00
  -1  -5   8  545.55   13.00
  -1  -5   8  553.74   11.70
  -1  -5   8  558.24   11.80
  -1  -5   8  552.44   11.00
   0   5  -8   88.49    3.40
   0   5  -8   82.19    3.50
   0   5  -8   92.19    3.70
   0   5  -8   85.89    4.10
   0   5  -8   93.29    3.80
   0  -5   8   87.49    4.30
   0  -5   8   95.69    4.00
   0  -5   8   89.39    3.60
   0  -5   8   91.29    2.90
   0  -5   8   82.39    4.00
   0  -5   8   85.99    3.70
  -1   5  -8    2.40    1.40
  -1   5  -8    3.60    1.40
  -1   5  -8    2.20    1.30
  -1   5  -8    2.30    1.40
  -1   5  -8   -0.40    1.60
   1  -5   8    3.00    1.40
   1  -5   8    0.40    1.40
   1  -5   8   -0.10    1.50
   1  -5   8    2.60    1.30
   1  -5   8    4.20    1.50
   1  -5   8    0.80    1.60
  -2   5  -8   43.00    3.80
  -2   5  -8   38.90    3.10
  -2   5  -8   38.10    2.70
  -2   5  -8   43.70    3.20
  -2   5  -8   42.90    3.30
   2  -5   8   36.50    3.40
   2  -5   8   44.90    3.20
   2  -5   8   35.40    3.40
   2  -5   8   40.80    2.70
   2  -5   8   43.20    3.30
   2  -5   8   46.90    3.90
  -3   5  -8   57.99    3.80
  -3   5  -8   55.09    4.00
  -3   5  -8   55.29    3.70
  -3   5  -8   50.19    4.60
  -3   5  -8   58.79    3.30
   3  -5   8   57.49    5.00
   3  -5   8   62.39    4.70
   3  -5   8   52.69    4.20
   3  -5   8   61.79    3.90
  -4   5  -8    5.70    1.60
  -4   5  -8    6.30    2.80
  -4   5  -8    3.00    2.50
  -4   5  -8    4.50    2.20
   4  -5   8    2.70    2.60
   4  -5   8    8.40    2.30
   4  -5   8    8.40    2.50
   4  -5   8    5.80    2.50
   4  -5   8    4.40    3.00
  -5   5  -8    8.10    3.40
  -5   5  -8    2.80    1.40
  -5   5  -8   -0.90    3.00
  -5   5  -8    2.10    2.40
  -5   5  -8    2.50    2.90
   5  -5   8    3.80    3.10
   5  -5   8    3.90    2.70
   5  -5   8    6.80    3.50
   5  -5   8    3.30    2.70
   5  -5   8    4.70    3.30
  -6   5  -8   52.19    5.10
  -6   5  -8   45.80    1.70
  -6   5  -8   48.70    5.80
  -6   5  -8   59.49    6.30
  -6   5  -8   38.50    5.20
   6  -5   8   47.20    6.20
   6  -5   8   47.60    4.70
   6  -5   8   53.09    6.70
   6  -5   8   43.20    4.80
   6   4  -8   25.90    2.30
   6   4  -8   29.30    3.10
   6   4  -8   25.00    2.50
   6   4  -8   25.50    2.50
   6   4  -8   24.50    2.70
  -6  -4   8   30.20    2.10
   5   4  -8  217.78    5.70
   5   4  -8  214.98    5.60
   5   4  -8  217.78    6.90
   5   4  -8  220.88    5.70
   5   4  -8  230.98    5.80
  -5  -4   8  220.08    5.40
  -5  -4   8  218.68    5.60
   4   4  -8   19.40    1.80
   4   4  -8   22.40    2.20
   4   4  -8   22.70    2.00
   4   4  -8   21.60    1.90
   4   4  -8   21.90    1.90
  -4  -4   8   24.80    3.30
  -4  -4   8   19.90    2.10
  -4  -4   8   20.40    2.00
   3   4  -8  195.88    4.80
   3   4  -8  198.48    5.40
   3   4  -8  193.58    6.00
   3   4  -8  195.68    4.70
   3   4  -8  188.78    4.70
   3   4  -8  187.98    4.90
  -3  -4   8  199.28    7.10
  -3  -4   8  192.28    5.20
  -3  -4   8  213.58    4.90
  -3  -4   8  191.08    5.30
   2   4  -8 1202.58   22.90
   2   4  -8 1260.47   23.70
   2   4  -8 1276.77   24.40
   2   4  -8 1246.18   23.30
   2   4  -8 1206.98   23.00
   2   4  -8 1239.38   23.20
  -2  -4   8 1193.68   23.10
  -2  -4   8 1226.08   23.60
  -2  -4   8 1213.68   23.60
  -2  -4   8 1167.98   22.20
  -2  -4   8 1248.08   25.00
  -2  -4   8 1187.98   22.00
   1   4  -8    3.10    1.10
   1   4  -8    3.60    1.30
   1   4  -8    4.00    1.10
   1   4  -8    2.70    1.10
   1   4  -8    1.90    0.90
   1   4  -8    2.70    1.40
  -1  -4   8    3.80    0.80
  -1  -4   8    3.30    1.10
  -1  -4   8    3.20    1.50
  -1  -4   8    2.30    1.50
  -1  -4   8    2.80    1.10
  -1  -4   8    4.70    1.40
   0   4  -8  728.53   14.90
   0   4  -8  718.03   14.80
   0   4  -8  729.03   15.40
   0   4  -8  720.73   15.30
   0   4  -8  728.63   14.90
   0   4  -8  707.33   14.70
   0  -4   8  726.93   15.00
   0  -4   8  710.43   15.70
   0  -4   8  718.13   14.90
   0  -4   8  715.63   14.00
   0  -4   8  725.33   14.80
   0  -4   8  719.13   15.30
  -1   4  -8  116.39    4.60
  -1   4  -8  113.39    4.30
  -1   4  -8  111.09    4.10
  -1   4  -8  114.39    4.20
  -1   4  -8  117.39    4.20
  -1   4  -8  119.59    4.20
   1  -4   8  106.49    4.10
   1  -4   8  114.89    4.40
   1  -4   8  114.69    4.30
   1  -4   8  113.59    3.60
   1  -4   8  112.19    4.60
   1  -4   8  113.19    4.50
  -2   4  -8   22.30    2.70
  -2   4  -8   26.30    2.70
  -2   4  -8   25.30    2.40
  -2   4  -8   22.30    2.20
  -2   4  -8   27.70    2.80
  -2   4  -8   26.30    2.90
   2  -4   8   30.20    3.30
   2  -4   8   28.40    2.70
   2  -4   8   27.10    2.90
   2  -4   8   22.50    2.30
   2  -4   8   24.20    2.40
  -3   4  -8   16.70    2.30
  -3   4  -8   19.00    2.60
  -3   4  -8   16.30    2.30
  -3   4  -8   16.20    2.70
  -3   4  -8   20.80    2.10
   3  -4   8   22.90    2.90
   3  -4   8   19.10    2.40
   3  -4   8   17.10    2.20
   3  -4   8   18.20    2.70
   3  -4   8   14.00    2.80
  -4   4  -8  145.19    6.40
  -4   4  -8  147.19    5.80
  -4   4  -8  143.29    6.00
  -4   4  -8  144.49    6.70
  -4   4  -8  140.19    4.70
   4  -4   8  132.39    5.70
   4  -4   8  142.39    6.50
   4  -4   8  146.89    6.40
   4  -4   8  140.59    6.80
  -5   4  -8   66.39    5.90
  -5   4  -8   74.89    3.30
  -5   4  -8   85.29    6.10
  -5   4  -8   75.69    6.00
  -5   4  -8   71.59    4.80
   5  -4   8   71.69    6.40
   5  -4   8   84.39    5.60
   5  -4   8   68.69    7.10
   5  -4   8   76.29    5.20
  -6   4  -8  105.79    7.50
  -6   4  -8   99.39    7.50
  -6   4  -8   97.19    6.40
  -6   4  -8   93.89    6.50
  -6   4  -8   94.29    2.60
   6  -4   8   91.79    7.80
   6  -4   8   82.09    6.40
   6  -4   8   83.19    7.00
   6  -4   8   84.49    8.00
   6  -4   8  105.59    7.20
   7   3  -8    1.50    2.10
   7   3  -8   -0.20    2.20
   7   3  -8    0.20    1.80
   6   3  -8   10.00    2.20
   6   3  -8   14.20    1.70
   6   3  -8   13.00    1.60
   6   3  -8   15.60    1.60
   6   3  -8   15.20    1.40
   5   3  -8  128.39    3.60
   5   3  -8  126.69    3.60
   5   3  -8  130.39    3.60
   5   3  -8  122.99    3.10
   5   3  -8  122.19    3.70
   5   3  -8  131.39    5.10
   4   3  -8   84.69    2.50
   4   3  -8   82.39    4.10
   4   3  -8   77.09    2.70
   4   3  -8   73.09    2.50
   4   3  -8   84.69    2.60
   4   3  -8   82.19    2.80
  -4  -3   8   77.59    2.40
  -4  -3   8   83.39    2.30
  -4  -3   8   81.69    4.60
   3   3  -8  441.56   10.40
   3   3  -8  441.56    8.80
   3   3  -8  439.96    8.70
   3   3  -8  446.06    9.30
   3   3  -8  434.66    9.00
   3   3  -8  439.66    9.30
  -3  -3   8  436.56   11.00
  -3  -3   8  443.56    9.30
  -3  -3   8  434.66    9.00
  -3  -3   8  445.26    9.10
   2   3  -8   57.39    2.10
   2   3  -8   64.79    2.70
   2   3  -8   62.19    3.30
   2   3  -8   60.19    2.60
   2   3  -8   58.19    2.10
   2   3  -8   60.99    2.50
  -2  -3   8   60.19    2.40
  -2  -3   8   58.59    2.40
  -2  -3   8   57.79    3.60
  -2  -3   8   59.79    2.60
   1   3  -8   37.10    2.70
   1   3  -8   40.20    2.50
   1   3  -8   39.20    2.10
   1   3  -8   36.10    1.90
   1   3  -8   33.80    2.10
  -1  -3   8   31.80    2.90
  -1  -3   8   24.10    2.90
  -1  -3   8   31.70    2.10
  -1  -3   8   34.40    1.30
  -1  -3   8   35.50    1.80
  -1  -3   8   33.70    2.10
   0   3  -8    2.50    1.40
   0   3  -8    4.10    1.40
   0   3  -8    2.80    1.20
   0   3  -8   -1.60    1.00
   0   3  -8    2.20    1.10
   0   3  -8    2.00    1.10
   0  -3   8    0.90    1.10
   0  -3   8    2.20    0.90
   0  -3   8    0.20    1.20
   0  -3   8   -0.50    1.00
  -1   3  -8  862.31   17.30
  -1   3  -8  832.72   17.70
  -1   3  -8  825.42   17.30
  -1   3  -8  815.32   17.30
  -1   3  -8  846.22   17.20
  -1   3  -8  852.11   17.30
   1  -3   8  853.91   16.70
   1  -3   8  832.72   17.60
   1  -3   8  833.22   17.20
   1  -3   8  838.92   17.50
  -2   3  -8   13.20    2.10
  -2   3  -8   14.30    2.30
  -2   3  -8   11.80    2.00
  -2   3  -8   13.30    1.80
  -2   3  -8   12.50    1.80
  -2   3  -8   12.50    1.90
   2  -3   8   13.00    1.90
   2  -3   8   16.00    2.40
   2  -3   8   14.20    2.20
   2  -3   8    9.40    1.80
  -3   3  -8    0.50    1.50
  -3   3  -8    1.90    1.60
  -3   3  -8    4.00    2.10
  -3   3  -8    2.10    1.80
  -3   3  -8    3.50    2.00
  -3   3  -8    0.70    1.70
   3  -3   8    1.70    2.00
   3  -3   8    1.90    1.80
   3  -3   8   -0.20    1.60
   3  -3   8    3.10    2.20
  -4   3  -8   39.00    3.70
  -4   3  -8   38.10    3.10
  -4   3  -8   32.60    3.60
  -4   3  -8   39.90    4.40
  -4   3  -8   40.80    3.90
   4  -3   8   34.50    3.80
   4  -3   8   37.80    3.70
   4  -3   8   33.60    3.90
   4  -3   8   34.60    3.50
   4  -3   8   39.60    4.00
  -5   3  -8  276.37    9.60
  -5   3  -8  276.87    8.50
  -5   3  -8  271.17    6.80
  -5   3  -8  267.67    9.70
  -5   3  -8  282.27    9.50
   5  -3   8  267.87   10.00
   5  -3   8  279.87    9.30
   5  -3   8  281.07   10.00
   5  -3   8  270.47    9.20
   5  -3   8  275.27    9.10
  -6   3  -8  192.78    9.00
  -6   3  -8  199.48    9.60
  -6   3  -8  192.18    4.70
  -6   3  -8  199.48    9.10
  -6   3  -8  196.08    7.40
   6  -3   8  195.28    9.00
   6  -3   8  189.28    9.60
   6  -3   8  195.48    8.00
   6  -3   8  200.08    9.90
   6  -3   8  189.58    9.80
   7   2  -8   13.00    2.30
   7   2  -8   12.50    1.70
   7   2  -8   13.50    2.20
   6   2  -8   14.10    1.50
   6   2  -8   12.30    1.30
   6   2  -8   14.90    2.20
   6   2  -8   13.50    1.40
   5   2  -8  320.27    6.50
   5   2  -8  329.97    8.20
   5   2  -8  321.57    6.70
   5   2  -8  324.57    7.20
   4   2  -8    2.10    0.70
   4   2  -8   -0.90    1.30
   4   2  -8    0.10    0.50
   4   2  -8    0.50    1.00
   4   2  -8    0.20    0.60
   4   2  -8    0.20    0.40
   3   2  -8   14.00    1.40
   3   2  -8   17.30    1.10
   3   2  -8   17.30    0.90
   3   2  -8   15.80    1.30
   3   2  -8   17.20    2.10
   3   2  -8   21.10    2.00
  -3  -2   8   18.80    1.10
  -3  -2   8   17.10    1.00
   2   2  -8   10.00    1.20
   2   2  -8   12.40    1.10
   2   2  -8   12.00    1.40
   2   2  -8   10.90    1.80
   2   2  -8   10.20    1.10
   2   2  -8   12.50    1.20
  -2  -2   8   13.60    1.20
  -2  -2   8   11.90    1.30
  -2  -2   8   11.20    1.30
   1   2  -8  692.13   13.90
   1   2  -8  680.53   14.50
   1   2  -8  660.03   13.70
   1   2  -8  673.63   13.50
   1   2  -8  678.73   13.60
   1   2  -8  675.03   13.40
  -1  -2   8  677.63   13.50
  -1  -2   8  669.53   13.60
  -1  -2   8  657.43   12.40
  -1  -2   8  649.34   12.50
  -1  -2   8  678.13   13.70
   0   2  -8  112.39    4.00
   0   2  -8  113.59    4.40
   0   2  -8  114.89    4.00
   0   2  -8  120.19    4.00
   0   2  -8  114.89    4.00
   0   2  -8  116.69    4.00
   0  -2   8  119.69    3.50
   0  -2   8  111.49    3.20
   0  -2   8  119.79    4.00
   0  -2   8  112.09    3.90
   0  -2   8  122.09    3.90
  -1   2  -8  482.05   11.20
  -1   2  -8  500.15   11.20
  -1   2  -8  493.45   11.30
  -1   2  -8  481.65   11.00
  -1   2  -8  498.25   11.10
  -1   2  -8  503.55   11.40
   1  -2   8  492.35   11.40
   1  -2   8  494.65   10.60
   1  -2   8  488.75   11.30
   1  -2   8  492.75   10.90
   1  -2   8  493.35   10.80
  -2   2  -8 1369.06   26.50
  -2   2  -8 1353.16   26.90
  -2   2  -8 1354.26   26.40
  -2   2  -8 1353.26   27.00
  -2   2  -8 1324.87   26.30
  -2   2  -8 1330.27   26.60
   2  -2   8 1370.36   26.30
   2  -2   8 1289.97   26.20
   2  -2   8 1305.27   26.20
   2  -2   8 1327.07   26.90
   2  -2   8 1338.17   27.00
  -3   2  -8   -1.30    1.90
  -3   2  -8    0.00    1.70
  -3   2  -8   -0.20    1.50
  -3   2  -8   -3.40    1.90
  -3   2  -8   -0.60    1.40
  -3   2  -8   -1.40    1.70
   3  -2   8    0.10    2.00
   3  -2   8    1.30    2.10
   3  -2   8   -1.10    2.00
   3  -2   8    1.50    1.60
   3  -2   8    0.70    1.70
  -4   2  -8  283.47    7.60
  -4   2  -8  304.07    9.40
  -4   2  -8  274.77    8.70
  -4   2  -8  271.77    9.20
  -4   2  -8  283.97    9.00
   4  -2   8  275.17    9.30
   4  -2   8  282.47    9.30
   4  -2   8  264.57    8.40
   4  -2   8  276.07    8.50
   4  -2   8  278.77    9.10
  -5   2  -8   14.30    2.70
  -5   2  -8    9.00    3.10
  -5   2  -8   15.00    2.10
  -5   2  -8   15.00    3.80
  -5   2  -8   16.60    4.00
   5  -2   8   15.00    2.70
   5  -2   8   11.70    3.60
   5  -2   8   10.10    3.20
   5  -2   8   13.40    3.00
   5  -2   8   18.20    4.10
  -6   2  -8    2.30    3.70
  -6   2  -8    1.60    1.40
  -6   2  -8    6.90    2.80
  -6   2  -8   10.40    4.50
  -6   2  -8    4.50    3.60
  -6   2  -8    0.30    1.70
   6  -2   8    6.60    3.10
   6  -2   8    3.70    4.60
   6  -2   8    3.30    4.40
   6  -2   8    3.40    3.70
   6  -2   8    0.70    3.60
   7   1  -8    8.30    1.90
   7   1  -8    6.10    1.80
   7   1  -8    4.30    1.40
   7   1  -8    3.60    1.80
   6   1  -8    0.50    0.90
   6   1  -8    2.30    1.60
   6   1  -8    2.40    0.90
   6   1  -8    0.60    1.80
   5   1  -8   20.40    1.00
   5   1  -8   20.30    2.10
   5   1  -8   17.70    1.00
   5   1  -8   23.30    2.50
   4   1  -8  215.28    4.40
   4   1  -8  228.58    6.70
   4   1  -8  221.08    5.70
   4   1  -8  214.98    4.20
   3   1  -8    6.10    0.60
   3   1  -8    8.20    1.70
   3   1  -8    6.20    0.60
   3   1  -8    6.10    0.80
   3   1  -8    6.80    1.30
   2   1  -8  154.98    4.50
   2   1  -8  157.48    5.20
   2   1  -8  157.08    3.80
   2   1  -8  151.28    3.90
   2   1  -8  154.78    3.80
   2   1  -8  155.58    3.90
  -2  -1   8  151.48    4.40
  -2  -1   8  152.08    3.70
  -2  -1   8  155.08    3.70
   1   1  -8  307.37    7.40
   1   1  -8  300.37    7.00
   1   1  -8  301.37    8.00
   1   1  -8  306.57    7.00
   1   1  -8  299.57    6.90
   1   1  -8  308.67    7.10
  -1  -1   8  303.17    7.00
  -1  -1   8  301.37    7.20
  -1  -1   8  303.37    5.80
  -1  -1   8  303.27    5.90
  -1  -1   8  304.77    7.00
   0   1  -8   11.40    1.90
   0   1  -8   10.30    1.50
   0   1  -8   16.10    1.70
   0   1  -8   12.20    1.50
   0   1  -8    8.70    1.30
   0   1  -8   11.20    1.60
   0  -1   8   11.30    1.50
   0  -1   8   10.30    1.40
   0  -1   8    9.30    1.20
   0  -1   8   10.90    1.10
   0  -1   8   11.30    1.50
  -1   1  -8  970.50   19.90
  -1   1  -8 1002.50   19.90
  -1   1  -8  967.60   19.70
  -1   1  -8 1002.80   20.20
  -1   1  -8  955.10   19.60
   1  -1   8  976.90   19.30
   1  -1   8  995.00   20.20
   1  -1   8  969.50   19.90
   1  -1   8  956.50   19.50
   1  -1   8  993.70   19.40
  -2   1  -8  785.52   17.00
  -2   1  -8  803.52   16.70
  -2   1  -8  778.62   16.60
  -2   1  -8  800.22   17.10
  -2   1  -8  794.32   17.40
   2  -1   8  797.52   16.60
   2  -1   8  775.12   17.40
   2  -1   8  776.22   17.00
   2  -1   8  784.72   16.50
   2  -1   8  803.12   16.50
  -3   1  -8    1.30    1.70
  -3   1  -8    3.50    2.10
  -3   1  -8    3.80    1.70
  -3   1  -8    1.80    2.30
  -3   1  -8    5.10    2.20
   3  -1   8    2.10    2.00
   3  -1   8    5.80    1.90
   3  -1   8    6.00    2.00
   3  -1   8    5.50    2.40
   3  -1   8    4.00    1.70
  -4   1  -8   11.00    2.80
  -4   1  -8    5.10    3.00
  -4   1  -8   10.30    2.30
  -4   1  -8    5.80    2.70
  -4   1  -8    9.20    2.30
   4  -1   8   11.00    2.30
   4  -1   8   11.70    3.30
   4  -1   8   13.30    2.80
   4  -1   8    8.90    2.90
  -5   1  -8   29.60    4.10
  -5   1  -8   36.90    3.80
  -5   1  -8   29.60    3.90
  -5   1  -8   23.80    3.00
  -5   1  -8   33.00    4.70
   5  -1   8   40.00    4.10
   5  -1   8   27.40    4.10
   5  -1   8   34.20    3.70
   5  -1   8   41.50    4.50
   5  -1   8   30.60    4.70
  -6   1  -8  281.27   10.40
  -6   1  -8  271.17    7.70
  -6   1  -8  284.97   11.90
  -6   1  -8  293.57   10.50
  -6   1  -8  276.77    9.40
   6  -1   8  284.17    9.70
   6  -1   8  261.27   10.40
   6  -1   8  279.67   10.90
   6  -1   8  278.07   12.00
   6  -1   8  280.27   11.30
   7   0  -8   88.29    4.10
   7   0  -8   86.09    3.60
   7   0  -8   77.39    3.00
   7   0  -8   95.29    4.20
   6   0  -8   87.69    2.50
   6   0  -8   94.49    4.00
   6   0  -8   92.19    2.50
   6   0  -8   93.29    4.40
   5   0  -8   16.50    2.40
   5   0  -8   19.30    2.00
   4   0  -8  394.36    9.10
   4   0  -8  409.36   10.10
   3   0  -8 1208.78   23.80
   3   0  -8 1145.79   21.50
   3   0  -8 1198.58   21.10
   3   0  -8 1189.78   22.90
   3   0  -8 1174.98   21.20
   3   0  -8 1138.29   21.40
   2   0  -8   13.70    1.30
   2   0  -8   16.00    1.70
   2   0  -8   12.30    1.40
   2   0  -8   12.50    1.20
   2   0  -8   13.60    2.00
   2   0  -8   12.80    1.30
  -2   0   8   12.60    1.40
  -2   0   8   14.40    1.10
  -2   0   8   13.30    1.70
   1   0  -8  285.97    6.60
   1   0  -8  284.77    7.10
   1   0  -8  288.87    6.80
   1   0  -8  287.37    6.60
   1   0  -8  278.37    6.60
  -1   0   8  273.77    6.50
  -1   0   8  284.97    6.90
  -1   0   8  283.97    7.00
  -1   0   8  284.07    5.50
  -1   0   8  282.47    5.60
  -1   0  -8   14.30    1.90
  -1   0  -8   17.70    1.90
  -1   0  -8   15.90    2.00
  -1   0  -8   16.90    1.90
  -1   0  -8   17.30    2.30
   1   0   8   16.30    2.20
   1   0   8   15.30    1.80
   1   0   8   22.10    2.20
   1   0   8   15.90    2.00
   1   0   8   16.40    1.70
  -2   0  -8    6.40    1.80
  -2   0  -8    1.30    1.90
  -2   0  -8    2.80    1.50
  -2   0  -8    6.80    1.80
  -2   0  -8    7.10    1.90
   2   0   8    8.90    1.90
   2   0   8    5.30    1.60
   2   0   8    5.90    1.90
   2   0   8    5.00    1.50
   2   0   8    3.30    2.10
  -3   0  -8  414.36   10.40
  -3   0  -8  427.36   10.30
  -3   0  -8  423.86   11.50
  -3   0  -8  338.47   11.80
  -3   0  -8  408.96   10.60
   3   0   8  384.56   11.30
   3   0   8  415.66    9.90
   3   0   8  414.96   10.90
   3   0   8  420.56   11.50
  -4   0  -8   26.50    4.10
  -4   0  -8   25.20    2.80
  -4   0  -8   29.20    3.70
   4   0   8   25.90    3.90
   4   0   8   25.60    3.00
   4   0   8   27.00    3.60
   4   0   8   27.70    3.40
   4   0   8   29.30    3.30
  -5   0  -8   78.29    5.00
  -5   0  -8   88.69    6.00
  -5   0  -8   85.99    7.40
  -5   0  -8   90.19    6.20
  -5   0  -8   96.39    8.00
   5   0   8   72.59    7.60
   5   0   8   83.49    4.90
   5   0   8   94.99    5.70
   5   0   8   89.59    7.50
   5   0   8   85.29    6.60
  -6   0  -8   26.60    5.70
  -6   0  -8   21.10    3.40
  -6   0  -8   28.50    6.20
  -6   0  -8   27.40    3.60
  -6   0  -8   18.00    4.30
   6   0   8   28.80    3.80
   6   0   8   21.60    4.00
   6   0   8   28.80    5.30
   6   0   8   17.10    4.30
   6   0   8   19.20    5.80
   7  -1  -8   62.99    3.90
   7  -1  -8   57.89    2.80
   7  -1  -8   64.09    3.00
   7  -1  -8   65.99    4.60
   6  -1  -8  169.18    3.90
   6  -1  -8  181.58    6.00
   6  -1  -8  170.38    3.80
   6  -1  -8  178.18    6.00
   5  -1  -8    0.60    0.30
   5  -1  -8    3.60    1.60
   5  -1  -8    0.90    1.40
   4  -1  -8  222.08    4.50
   4  -1  -8  225.48    6.40
   4  -1  -8  231.28    6.90
   4  -1  -8  224.08    4.30
   3  -1  -8    6.20    0.60
   3  -1  -8    8.60    1.80
   3  -1  -8    6.40    0.70
   3  -1  -8    6.10    0.90
   3  -1  -8    7.70    0.90
  -3   1   8    5.80    0.50
   2  -1  -8    6.50    1.20
   2  -1  -8    7.40    1.50
   2  -1  -8    6.50    1.10
   2  -1  -8    7.20    0.90
   2  -1  -8    6.90    0.90
  -2   1   8    7.60    1.00
  -2   1   8    8.00    1.20
   1  -1  -8   17.80    1.70
   1  -1  -8   16.90    1.80
   1  -1  -8   17.10    1.60
   1  -1  -8   15.60    1.60
   1  -1  -8   17.10    1.60
  -1   1   8   18.50    1.90
  -1   1   8   18.30    1.10
  -1   1   8   18.30    1.40
  -1   1   8   16.20    1.70
  -1   1   8   18.10    1.90
   0  -1  -8  242.58    6.30
   0  -1  -8  236.58    6.40
   0  -1  -8  236.08    6.10
   0  -1  -8  226.58    6.00
   0  -1  -8  226.18    6.70
   0   1   8  233.08    5.20
   0   1   8  231.08    6.00
   0   1   8  226.58    6.10
   0   1   8  224.98    6.50
   0   1   8  227.88    6.30
  -1  -1  -8    8.30    1.60
  -1  -1  -8   10.60    1.80
  -1  -1  -8    5.40    1.70
  -1  -1  -8    9.10    1.70
  -1  -1  -8    9.20    2.00
   1   1   8    5.90    1.20
   1   1   8   11.50    2.00
   1   1   8   10.50    2.10
   1   1   8    9.20    1.60
   1   1   8   10.30    1.80
  -2  -1  -8   72.29    3.80
  -2  -1  -8   72.19    3.90
  -2  -1  -8   77.79    4.70
  -2  -1  -8   73.49    4.00
   2   1   8   75.99    4.10
   2   1   8   72.59    3.40
   2   1   8   68.99    4.10
   2   1   8   74.89    3.70
   2   1   8   69.59    4.70
  -3  -1  -8   89.69    4.90
  -3  -1  -8   81.69    5.90
  -3  -1  -8   76.89    4.90
  -3  -1  -8   85.09    4.80
  -3  -1  -8   93.79    5.70
   3   1   8   82.79    5.60
   3   1   8   87.49    5.00
   3   1   8   87.29    5.00
   3   1   8   86.89    4.60
  -4  -1  -8    3.10    2.40
  -4  -1  -8   -0.10    3.00
  -4  -1  -8    1.00    2.10
  -4  -1  -8    1.30    2.60
  -4  -1  -8    5.90    3.50
   4   1   8    3.70    3.40
   4   1   8    5.30    2.20
   4   1   8   -1.30    2.60
   4   1   8    2.40    2.40
   4   1   8    4.80    3.00
  -5  -1  -8    3.20    4.30
  -5  -1  -8    1.90    3.20
  -5  -1  -8   -1.00    1.90
  -5  -1  -8    0.50    2.60
  -5  -1  -8    3.80    2.70
  -5  -1  -8   -3.90    3.80
   5   1   8   -6.10    3.40
   5   1   8    1.80    2.90
   5   1   8    2.30    4.70
   5   1   8   -0.10    2.70
   5   1   8   -6.60    3.40
   7  -2  -8    2.40    1.20
   7  -2  -8    2.40    1.60
   7  -2  -8   -2.10    2.20
   7  -2  -8    2.90    3.10
   6  -2  -8  275.77    7.90
   6  -2  -8  262.17    5.70
   6  -2  -8  263.27    5.50
   6  -2  -8  269.97    7.90
   5  -2  -8   25.00    1.30
   5  -2  -8   24.40    1.20
   5  -2  -8   21.80    2.90
   5  -2  -8   28.50    3.10
   4  -2  -8    1.40    0.50
   4  -2  -8    0.50    1.60
   4  -2  -8    0.40    0.70
   3  -2  -8   10.30    1.80
   3  -2  -8    8.70    1.00
   3  -2  -8    9.80    1.10
   3  -2  -8    7.80    0.90
   3  -2  -8    9.80    1.20
  -3   2   8    8.50    1.10
  -3   2   8    7.40    1.00
   2  -2  -8  684.13   13.30
   2  -2  -8  676.23   13.20
   2  -2  -8  668.93   13.90
   2  -2  -8  692.43   14.60
   2  -2  -8  671.43   13.50
  -2   2   8  671.53   13.80
  -2   2   8  682.93   13.70
   1  -2  -8  176.48    4.90
   1  -2  -8  179.58    5.50
   1  -2  -8  179.08    5.50
   1  -2  -8  179.68    4.70
   1  -2  -8  178.98    5.10
  -1   2   8  180.98    4.60
  -1   2   8  176.88    5.00
  -1   2   8  181.28    4.10
   0  -2  -8   30.00    2.80
   0  -2  -8   25.30    2.80
   0  -2  -8   28.50    2.30
   0  -2  -8   30.80    2.60
   0  -2  -8   25.00    2.70
   0   2   8   27.60    2.50
   0   2   8   25.80    1.60
   0   2   8   30.20    2.70
   0   2   8   32.80    2.90
   0   2   8   29.20    2.80
  -1  -2  -8  544.55   12.20
  -1  -2  -8  554.54   12.30
  -1  -2  -8  535.55   13.10
  -1  -2  -8  552.44   12.60
  -1  -2  -8  557.74   12.90
   1   2   8  545.45   11.40
   1   2   8  550.84   12.60
   1   2   8  558.44   12.50
   1   2   8  540.45   12.30
   1   2   8  546.15   13.10
  -2  -2  -8   59.09    3.90
  -2  -2  -8   69.29    4.90
  -2  -2  -8   65.99    3.70
  -2  -2  -8   58.89    3.90
  -2  -2  -8   62.79    4.50
   2   2   8   59.69    4.70
   2   2   8   57.49    4.20
   2   2   8   58.89    3.80
   2   2   8   65.39    4.80
   2   2   8   63.19    3.70
  -3  -2  -8   30.40    3.00
  -3  -2  -8   21.90    3.40
  -3  -2  -8   26.10    2.80
  -3  -2  -8   23.20    3.80
   3   2   8   27.30    3.40
   3   2   8   24.70    2.50
   3   2   8   26.10    3.40
   3   2   8   28.90    3.90
  -4  -2  -8   33.30    4.40
  -4  -2  -8   42.30    5.10
  -4  -2  -8   42.50    4.50
  -4  -2  -8   44.00    4.80
  -4  -2  -8   36.60    4.20
   4   2   8   33.80    4.90
   4   2   8   42.50    5.10
   4   2   8   38.10    4.00
   4   2   8   35.40    4.30
  -5  -2  -8   19.30    4.00
  -5  -2  -8   21.40    3.20
  -5  -2  -8   17.20    2.80
  -5  -2  -8   22.10    3.90
  -5  -2  -8   18.40    5.00
   5   2   8    8.70    4.90
   5   2   8   10.00    5.50
   5   2   8   20.20    3.20
   5   2   8   21.70    4.80
   5   2   8   23.00    3.60
   7  -3  -8    0.00    1.20
   7  -3  -8    0.30    1.80
   7  -3  -8    1.00    2.60
   7  -3  -8   -2.50    3.00
   6  -3  -8   10.00    1.40
   6  -3  -8    9.20    2.80
   6  -3  -8    9.60    2.90
   6  -3  -8   10.90    1.20
   5  -3  -8   44.90    2.00
   5  -3  -8   44.10    4.70
   5  -3  -8   45.40    4.10
   5  -3  -8   44.30    2.10
   4  -3  -8   16.20    2.40
   4  -3  -8   13.60    1.30
   4  -3  -8   12.50    1.40
   4  -3  -8   13.40    1.30
   4  -3  -8   13.50    1.30
  -4   3   8   14.20    1.00
  -4   3   8   14.50    1.00
   3  -3  -8   71.79    3.90
   3  -3  -8   71.49    3.20
   3  -3  -8   73.19    2.80
   3  -3  -8   72.39    2.50
   3  -3  -8   74.89    2.40
  -3   3   8   77.99    3.00
  -3   3   8   67.99    2.90
   2  -3  -8  263.97    6.90
   2  -3  -8  258.07    6.00
   2  -3  -8  259.87    6.30
   2  -3  -8  267.57    7.40
   2  -3  -8  267.57    6.40
  -2   3   8  261.67    6.90
  -2   3   8  252.27    6.80
   1  -3  -8   80.19    3.30
   1  -3  -8   82.29    3.20
   1  -3  -8   75.09    3.30
   1  -3  -8   81.59    3.80
   1  -3  -8   82.79    3.90
  -1   3   8   79.99    3.20
  -1   3   8   80.59    2.70
  -1   3   8   77.59    3.60
  -1   3   8   79.39    3.60
   0  -3  -8   59.19    3.10
   0  -3  -8   58.79    3.20
   0  -3  -8   63.99    3.90
   0  -3  -8   67.39    4.00
   0  -3  -8   61.19    3.70
   0   3   8   65.09    3.70
   0   3   8   63.99    3.70
   0   3   8   60.39    3.90
   0   3   8   63.39    2.70
  -1  -3  -8  104.59    4.50
  -1  -3  -8  110.79    4.50
  -1  -3  -8  105.89    4.80
  -1  -3  -8   99.39    5.30
   1   3   8  113.69    5.10
   1   3   8  100.29    5.30
   1   3   8  113.89    5.30
   1   3   8  110.49    4.80
   1   3   8  111.19    3.70
  -2  -3  -8    5.50    2.00
  -2  -3  -8    4.80    2.00
  -2  -3  -8    5.40    2.60
  -2  -3  -8    9.80    3.10
   2   3   8    6.90    2.30
   2   3   8    3.80    1.70
   2   3   8    5.20    2.90
   2   3   8    6.70    2.90
  -3  -3  -8   99.09    5.30
  -3  -3  -8  101.29    6.10
  -3  -3  -8  103.19    5.10
   3   3   8  104.09    5.00
   3   3   8  106.19    6.20
   3   3   8  105.99    7.00
   3   3   8  111.59    6.80
   3   3   8   88.29    6.20
  -4  -3  -8    6.70    3.00
  -4  -3  -8    5.60    2.20
  -4  -3  -8    3.30    4.00
  -4  -3  -8   -1.30    4.70
  -4  -3  -8    3.40    2.80
  -4  -3  -8   -0.30    3.10
   4   3   8    7.50    2.60
   4   3   8   -0.50    4.20
   4   3   8    1.10    3.60
   4   3   8    1.60    3.10
   4   3   8    5.70    5.40
   6  -4  -8   79.09    3.10
   6  -4  -8   84.79    6.00
   6  -4  -8   73.29    5.80
   6  -4  -8   78.29    3.50
   5  -4  -8   11.90    1.50
   5  -4  -8   14.10    1.40
   5  -4  -8   16.30    3.60
   5  -4  -8   12.50    1.40
   5  -4  -8   12.00    1.50
   4  -4  -8  255.67    8.10
   4  -4  -8  260.37    6.30
   4  -4  -8  266.97    6.10
   4  -4  -8  256.07    6.50
   4  -4  -8  265.97    6.00
  -4   4   8  258.17    6.10
   3  -4  -8   31.40    2.20
   3  -4  -8   27.70    3.00
   3  -4  -8   30.20    2.10
   3  -4  -8   30.10    2.50
   3  -4  -8   27.30    2.40
  -3   4   8   30.50    2.80
   2  -4  -8  440.86    9.80
   2  -4  -8  442.26    9.50
   2  -4  -8  436.56   10.40
   2  -4  -8  435.76    9.60
   2  -4  -8  435.36   10.90
  -2   4   8  446.96   10.80
  -2   4   8  440.96   10.40
  -2   4   8  434.56    8.80
  -2   4   8  423.56    8.50
   1  -4  -8   28.70    2.60
   1  -4  -8   31.70    3.10
   1  -4  -8   25.70    2.80
   1  -4  -8   27.60    2.90
   1  -4  -8   27.10    2.30
  -1   4   8   32.40    1.90
  -1   4   8   30.40    2.90
  -1   4   8   31.80    2.80
  -1   4   8   28.40    3.00
   0  -4  -8   36.60    3.60
   0  -4  -8   37.30    2.90
   0  -4  -8   36.90    3.60
   0  -4  -8   35.00    3.40
   0  -4  -8   31.40    2.90
   0   4   8   35.00    3.50
   0   4   8   28.10    3.20
   0   4   8   30.60    2.60
   0   4   8   38.70    3.30
  -1  -4  -8   14.20    3.10
  -1  -4  -8   13.80    3.30
  -1  -4  -8   13.40    2.20
  -1  -4  -8   11.30    2.20
  -1  -4  -8   12.30    2.50
   1   4   8   16.70    4.70
   1   4   8   13.20    3.00
   1   4   8   13.60    3.00
   1   4   8    9.70    1.90
  -2  -4  -8   79.89    4.70
  -2  -4  -8   72.09    6.40
  -2  -4  -8   83.09    5.90
  -2  -4  -8   75.69    4.50
  -2  -4  -8   83.89    5.10
   2   4   8   83.89    3.90
   2   4   8   88.59    6.40
   2   4   8   79.19    5.60
   2   4   8   75.59    5.60
  -3  -4  -8   23.90    5.70
  -3  -4  -8   26.50    4.60
  -3  -4  -8   29.00    3.30
  -3  -4  -8   31.80    3.70
  -3  -4  -8   24.80    4.80
   3   4   8   34.80    4.50
   3   4   8   28.30    2.90
   3   4   8   25.40    4.80
   3   4   8   24.80    4.20
  -4  -4  -8    3.40    5.70
  -4  -4  -8   -2.50    2.30
  -4  -4  -8    1.70    3.30
  -4  -4  -8    0.50    3.30
  -4  -4  -8   -2.30    4.30
  -4  -4  -8    3.30    2.90
   4   4   8   -2.10    6.50
   4   4   8    0.90    4.30
   4   4   8   -0.20    2.40
   4   4   8   -2.20    3.80
   6  -5  -8   22.90    4.20
   6  -5  -8   18.70    2.30
   6  -5  -8   19.40    2.10
   6  -5  -8   18.70    1.60
   6  -5  -8   19.60    2.20
   5  -5  -8   86.09    4.00
   5  -5  -8   83.59    3.90
   5  -5  -8   88.39    6.10
   5  -5  -8   89.09    3.40
   5  -5  -8   85.79    4.00
  -5   5   8   89.69    3.10
  -5   5   8   88.49    3.00
   4  -5  -8   17.10    2.30
   4  -5  -8   18.20    1.90
   4  -5  -8   16.30    1.80
   4  -5  -8   15.30    3.80
   4  -5  -8   16.40    2.00
  -4   5   8   19.10    2.00
  -4   5   8   17.80    2.10
   3  -5  -8   -0.70    1.70
   3  -5  -8    0.40    1.40
   3  -5  -8    3.10    1.40
   3  -5  -8   -1.70    2.20
  -3   5   8   -0.70    1.90
  -3   5   8    2.70    1.90
   2  -5  -8   61.29    3.00
   2  -5  -8   59.09    3.30
   2  -5  -8   58.09    5.10
   2  -5  -8   59.99    3.70
   2  -5  -8   57.99    4.00
  -2   5   8   63.69    4.00
  -2   5   8   54.69    2.50
  -2   5   8   63.49    2.90
   1  -5  -8   36.00    3.50
   1  -5  -8   33.30    3.10
   1  -5  -8   36.50    2.80
   1  -5  -8   40.50    4.10
  -1   5   8   30.40    3.60
  -1   5   8   33.80    2.60
  -1   5   8   33.70    3.50
  -1   5   8   37.70    3.80
   0  -5  -8    5.40    2.60
   0  -5  -8   12.40    2.20
   0  -5  -8    9.00    2.50
   0  -5  -8   12.90    3.50
   0  -5  -8   13.10    2.20
   0   5   8    9.00    1.70
   0   5   8   11.60    2.60
   0   5   8   13.40    2.90
   0   5   8    8.60    2.70
  -1  -5  -8    7.70    2.60
  -1  -5  -8    6.60    3.40
  -1  -5  -8    7.50    3.40
  -1  -5  -8    9.60    2.70
  -1  -5  -8   12.60    3.10
   1   5   8    7.30    3.00
   1   5   8    6.70    2.10
   1   5   8    5.60    3.30
   1   5   8    5.90    2.70
  -2  -5  -8   67.29    4.70
  -2  -5  -8   58.79    5.10
  -2  -5  -8   65.49    7.20
  -2  -5  -8   68.19    4.90
  -2  -5  -8   66.79    6.60
   2   5   8   71.49    6.90
   2   5   8   70.49    6.20
   2   5   8   65.39    6.40
   2   5   8   65.19    4.00
  -3  -5  -8   15.40    3.40
  -3  -5  -8    9.80    5.40
  -3  -5  -8   10.00    2.80
  -3  -5  -8   13.60    3.00
  -3  -5  -8   11.00    5.70
  -3  -5  -8    7.70    4.20
   3   5   8    5.60    5.00
   3   5   8   12.20    4.70
   3   5   8    8.70    3.10
   3   5   8    7.60    4.00
   5  -6  -8   17.40    2.80
   5  -6  -8   21.60    4.20
   5  -6  -8   24.40    2.60
   5  -6  -8   20.40    2.60
  -5   6   8   20.60    2.40
  -5   6   8   28.00    2.70
   4  -6  -8   16.80    2.40
   4  -6  -8   21.80    2.40
   4  -6  -8   16.20    3.60
   4  -6  -8   17.00    2.80
  -4   6   8   11.90    2.80
  -4   6   8   16.10    2.50
   3  -6  -8    1.80    1.70
   3  -6  -8    4.40    2.00
   3  -6  -8   -1.30    2.80
   3  -6  -8    4.00    2.20
  -3   6   8    5.70    2.60
  -3   6   8    1.70    2.40
   2  -6  -8   53.39    5.00
   2  -6  -8   49.90    4.00
   2  -6  -8   56.59    3.80
   2  -6  -8   48.80    3.60
   2  -6  -8   47.00    5.30
  -2   6   8   51.29    3.90
  -2   6   8   51.19    4.40
  -2   6   8   54.39    3.60
  -2   6   8   54.29    3.00
   1  -6  -8   29.80    3.20
   1  -6  -8   30.00    2.80
   1  -6  -8   28.40    3.60
   1  -6  -8   32.60    4.40
   1  -6  -8   32.30    3.20
  -1   6   8   27.00    4.10
  -1   6   8   30.10    2.90
  -1   6   8   35.60    3.70
  -1   6   8   31.70    3.10
   0  -6  -8  104.69    6.20
   0  -6  -8  107.79    5.00
   0  -6  -8  111.69    7.10
   0  -6  -8   96.79    5.90
   0  -6  -8  110.09    5.10
   0   6   8  111.39    4.40
   0   6   8  100.49    6.30
   0   6   8   99.69    6.50
   0   6   8  119.39    7.50
  -1  -6  -8   26.40    3.90
  -1  -6  -8   27.10    4.10
  -1  -6  -8   29.40    3.30
  -1  -6  -8   33.20    5.00
  -1  -6  -8   24.70    3.20
   1   6   8   27.30    2.80
   1   6   8   23.20    4.40
   1   6   8   28.80    4.60
   1   6   8   30.20    4.80
  -2  -6  -8    5.40    4.00
  -2  -6  -8    8.30    4.40
  -2  -6  -8   -0.80    2.60
  -2  -6  -8    2.00    5.10
  -2  -6  -8    1.70    2.70
   2   6   8   -5.10    5.40
   2   6   8    5.90    4.00
   2   6   8   -7.90    5.40
   2   6   8   -0.70    2.40
   5  -7  -8   -3.50    2.50
   5  -7  -8    7.60    3.10
   5  -7  -8    2.90    2.90
   5  -7  -8    0.50    3.70
   5  -7  -8    3.60    2.60
   5  -7  -8    5.70    2.70
  -5   7   8    3.10    2.70
  -5   7   8    1.00    2.60
   4  -7  -8    4.60    3.60
   4  -7  -8    4.90    2.70
   4  -7  -8    4.20    2.10
   4  -7  -8    3.70    3.00
   4  -7  -8    6.90    2.10
  -4   7   8   -2.30    2.60
  -4   7   8    4.70    2.80
   3  -7  -8   27.70    2.90
   3  -7  -8   30.80    3.50
   3  -7  -8   25.80    4.10
   3  -7  -8   33.10    4.00
   3  -7  -8   22.20    3.20
  -3   7   8   25.30    3.20
  -3   7   8   32.90    3.90
   2  -7  -8   12.30    2.70
   2  -7  -8   12.50    3.60
   2  -7  -8   10.40    2.70
   2  -7  -8    9.30    3.40
   2  -7  -8   16.00    3.10
  -2   7   8   12.80    2.00
  -2   7   8   13.00    2.40
  -2   7   8    9.20    2.80
  -2   7   8    9.60    3.80
   1  -7  -8  198.48    7.60
   1  -7  -8  188.98    6.70
   1  -7  -8  191.08    8.20
   1  -7  -8  184.38    8.60
   1  -7  -8  188.48    6.90
  -1   7   8  198.78    6.10
  -1   7   8  189.08    8.40
  -1   7   8  183.58    7.70
  -1   7   8  194.58    8.40
   0  -7  -8   77.99    5.90
   0  -7  -8   62.09    6.30
   0  -7  -8   73.19    7.30
   0  -7  -8   75.69    5.90
   0  -7  -8   73.49    5.40
   0  -7  -8   65.79    6.30
   0   7   8   79.09    4.40
   0   7   8   87.29    6.30
   0   7   8   72.99    7.30
   0   7   8   79.59    7.20
  -1  -7  -8   11.90    3.90
  -1  -7  -8    9.80    3.00
  -1  -7  -8    8.00    4.10
  -1  -7  -8   10.50    3.40
  -1  -7  -8    8.90    5.20
  -1  -7  -8    7.60    4.50
   1   7   8    7.50    4.90
   1   7   8    9.10    3.20
   1   7   8   13.50    5.00
   1   7   8   12.00    5.00
   3  -8  -8    3.60    2.90
   3  -8  -8   -1.30    3.20
   3  -8  -8    2.20    2.80
   3  -8  -8    3.60    3.80
   3  -8  -8    4.40    3.00
   2  -8  -8   73.69    7.30
   2  -8  -8   82.19    6.70
   2  -8  -8   74.39    5.50
   2  -8  -8   76.89    6.20
   2  -8  -8   68.99    5.40
  -2   8   8   75.49    4.50
  -2   8   8   64.49    5.70
  -2   8   8   73.09    5.40
   1  -8  -8   79.89    6.70
   1  -8  -8   79.59    5.60
   1  -8  -8   76.09    6.30
   1  -8  -8   84.69    7.30
   1  -8  -8   90.49    6.20
  -1   8   8   80.39    7.20
  -1   8   8   78.99    6.70
  -1   8   8   74.79    6.80
   1  11  -9    0.30    3.40
   1  11  -9   -3.50    2.60
   1  11  -9    5.10    4.80
  -1 -11   9    1.20    4.10
  -1 -11   9    5.50    3.10
  -1 -11   9    0.10    4.20
  -1 -11   9    3.30    4.10
  -1 -11   9    3.50    4.80
   0  11  -9   10.20    3.20
   0  11  -9    7.80    5.10
   0  11  -9   12.80    2.80
   0  11  -9   12.50    3.10
   0  11  -9    6.50    2.70
   0 -11   9    2.50    4.30
   0 -11   9    5.60    4.60
   0 -11   9   15.70    5.20
   0 -11   9   10.40    4.90
   0 -11   9    9.90    3.10
   0 -11   9    9.80    2.60
  -1  11  -9    8.00    3.10
  -1  11  -9   19.20    3.10
  -1  11  -9   10.90    3.60
  -1  11  -9   17.80    3.30
   1 -11   9   16.00    4.70
   1 -11   9   14.30    3.40
   1 -11   9   19.70    5.50
   1 -11   9   17.00    5.10
   1 -11   9   16.30    4.40
   1 -11   9   18.30    4.70
  -2  11  -9   88.19    6.60
  -2  11  -9   79.39    5.30
  -2  11  -9   82.99    6.10
  -2  11  -9   86.99    7.00
  -2  11  -9   87.79    7.60
   2 -11   9   91.69    8.30
   2 -11   9   88.59    8.90
   2 -11   9   71.09    7.30
   2 -11   9   76.79    7.60
   2 -11   9   84.59    5.50
   2 -11   9   78.19    8.10
  -3  11  -9    9.90    3.60
  -3  11  -9   15.50    6.20
  -3  11  -9   13.90    3.20
  -3  11  -9   17.00    4.20
   3 -11   9   12.10    5.70
   3 -11   9   12.30    6.00
   3 -11   9   15.70    4.90
   3 -11   9    8.00    4.90
   3 -11   9    4.50    4.00
   3 -11   9   16.70    3.50
   2  10  -9   34.50    3.80
   2  10  -9   36.90    3.80
   2  10  -9   38.10    5.00
   2  10  -9   40.10    4.30
   2  10  -9   37.20    3.60
  -2 -10   9   34.90    3.10
  -2 -10   9   40.50    4.70
  -2 -10   9   29.70    4.50
  -2 -10   9   34.80    4.40
  -2 -10   9   41.60    5.50
  -2 -10   9   37.10    4.00
   1  10  -9   16.10    3.10
   1  10  -9   19.10    2.90
   1  10  -9   16.10    2.90
   1  10  -9    9.80    3.10
   1  10  -9   21.20    4.50
  -1 -10   9   18.70    4.40
  -1 -10   9   19.50    4.40
  -1 -10   9   11.90    3.90
  -1 -10   9   10.30    3.10
  -1 -10   9   17.90    2.40
  -1 -10   9   17.50    4.20
   0  10  -9  136.99    5.90
   0  10  -9  136.09    6.20
   0  10  -9  123.29    6.40
   0  10  -9  135.39    6.60
   0  10  -9  135.09    9.20
   0 -10   9  140.79    7.70
   0 -10   9  138.39    7.00
   0 -10   9  126.89    5.70
   0 -10   9  147.09    9.10
   0 -10   9  134.89    7.10
   0 -10   9  112.09    7.90
  -1  10  -9    1.70    2.40
  -1  10  -9    4.00    3.90
  -1  10  -9    0.30    3.50
  -1  10  -9    2.00    2.50
  -1  10  -9    4.10    2.40
   1 -10   9    3.20    3.30
   1 -10   9    6.90    2.90
   1 -10   9   -0.30    2.80
   1 -10   9    4.60    4.50
   1 -10   9    2.50    3.60
   1 -10   9   -0.70    4.60
  -2  10  -9    7.70    2.60
  -2  10  -9    9.20    2.80
  -2  10  -9   10.60    2.70
  -2  10  -9   10.50    3.40
   2 -10   9    6.40    4.30
   2 -10   9   10.20    4.30
   2 -10   9    8.00    3.70
   2 -10   9    6.60    3.30
   2 -10   9   11.50    4.40
   2 -10   9    2.90    2.50
  -3  10  -9  545.65   13.70
  -3  10  -9  535.45   13.40
  -3  10  -9  531.45   15.00
  -3  10  -9  543.15   16.60
   3 -10   9  542.55   16.40
   3 -10   9  516.05   15.40
   3 -10   9  530.65   15.00
   3 -10   9  536.25   14.90
   3 -10   9  552.24   15.70
   3 -10   9  536.15   13.10
  -4  10  -9    4.30    3.30
  -4  10  -9   -8.40    5.30
  -4  10  -9   -1.40    4.00
  -4  10  -9    5.30    2.40
  -4  10  -9    8.00    3.00
   4 -10   9    0.30    4.50
   4 -10   9    1.50    4.50
   4 -10   9    1.90    2.50
   4 -10   9   -1.90    3.60
   4 -10   9   -2.30    3.70
   4 -10   9    9.90    5.90
   3   9  -9    7.40    4.10
   3   9  -9    1.20    2.20
   3   9  -9   -1.10    2.40
   3   9  -9    3.60    2.60
   3   9  -9   -5.00    2.50
  -3  -9   9    5.10    4.40
  -3  -9   9   -0.20    3.00
  -3  -9   9    0.40    2.50
  -3  -9   9    3.50    3.40
  -3  -9   9    1.50    1.10
  -3  -9   9    0.70    2.70
   2   9  -9    5.30    2.50
   2   9  -9    2.40    2.80
   2   9  -9   -2.50    3.20
   2   9  -9   -2.60    2.00
   2   9  -9   -0.10    2.20
  -2  -9   9    4.40    3.20
  -2  -9   9    6.70    3.80
  -2  -9   9    1.50    2.40
  -2  -9   9    4.90    3.10
  -2  -9   9    3.30    2.30
   1   9  -9    1.00    2.00
   1   9  -9   -3.10    2.20
   1   9  -9   -1.10    3.00
   1   9  -9   -2.70    1.80
   1   9  -9    2.40    2.30
  -1  -9   9   -0.30    3.40
  -1  -9   9   -0.10    2.00
  -1  -9   9   -0.30    3.00
  -1  -9   9   -2.90    2.90
  -1  -9   9    4.30    3.30
  -1  -9   9   -1.70    2.30
   0   9  -9   38.10    4.10
   0   9  -9   45.20    4.60
   0   9  -9   38.00    3.60
   0   9  -9   38.00    3.60
   0   9  -9   43.20    4.20
   0  -9   9   39.70    4.30
   0  -9   9   42.00    4.00
   0  -9   9   41.00    3.30
   0  -9   9   39.10    4.20
   0  -9   9   49.50    5.30
   0  -9   9   49.99    4.60
  -1   9  -9   14.00    3.60
  -1   9  -9   11.50    2.90
  -1   9  -9   18.20    2.60
  -1   9  -9   12.80    2.60
  -1   9  -9   17.40    2.60
   1  -9   9   10.60    3.10
   1  -9   9   16.90    3.50
   1  -9   9   13.80    3.60
   1  -9   9   24.00    3.90
   1  -9   9   15.90    2.30
   1  -9   9   13.70    3.50
  -2   9  -9    1.10    2.00
  -2   9  -9    3.90    2.30
  -2   9  -9    0.90    2.30
  -2   9  -9   -4.40    2.50
  -2   9  -9   -4.90    3.30
   2  -9   9    3.30    3.00
   2  -9   9    1.30    3.00
   2  -9   9   -0.50    2.90
   2  -9   9    1.60    2.70
   2  -9   9   -1.00    3.20
   2  -9   9    0.70    2.00
  -3   9  -9   90.19    5.30
  -3   9  -9  105.09    7.70
  -3   9  -9   90.99    6.40
  -3   9  -9   95.09    4.70
  -3   9  -9   89.19    5.40
   3  -9   9  100.19    6.70
   3  -9   9   81.59    6.70
   3  -9   9  106.49    9.40
   3  -9   9   99.49    5.60
   3  -9   9  102.09    7.00
   3  -9   9   91.29    6.30
  -4   9  -9  110.99    7.30
  -4   9  -9  115.19    5.30
  -4   9  -9  108.29    9.00
  -4   9  -9  116.99    6.70
   4  -9   9  108.59    7.30
   4  -9   9  103.89    7.90
   4  -9   9  122.79    9.00
   4  -9   9  113.89    7.80
   4  -9   9  123.59    5.80
   4  -9   9  101.59    7.40
  -5   9  -9   18.70    5.10
  -5   9  -9   13.90    4.00
  -5   9  -9   18.40    3.10
  -5   9  -9    9.50    5.60
   5  -9   9   19.10    4.90
   5  -9   9   15.80    3.10
   5  -9   9   23.10    7.10
   4   8  -9  570.44   13.40
   4   8  -9  569.54   13.40
   4   8  -9  604.14   14.30
   4   8  -9  582.34   13.60
  -4  -8   9  560.64   16.50
   3   8  -9    1.30    1.70
   3   8  -9    7.60    2.60
   3   8  -9    7.70    3.30
   3   8  -9    7.90    2.80
   3   8  -9   12.40    2.30
  -3  -8   9    5.80    2.30
  -3  -8   9    3.80    1.30
  -3  -8   9    5.60    3.80
  -3  -8   9    9.20    2.40
  -3  -8   9    2.70    2.40
  -3  -8   9    4.50    1.80
   2   8  -9  117.29    4.60
   2   8  -9  117.39    6.00
   2   8  -9  112.19    4.80
   2   8  -9  117.29    5.50
   2   8  -9  123.59    5.00
  -2  -8   9  115.09    5.40
  -2  -8   9  108.29    6.20
  -2  -8   9  109.69    5.80
  -2  -8   9  112.49    4.20
  -2  -8   9  111.69    4.60
  -2  -8   9  114.09    7.00
   1   8  -9  328.97    9.80
   1   8  -9  308.47    8.10
   1   8  -9  320.67    8.90
   1   8  -9  319.27    8.70
   1   8  -9  312.57    8.40
  -1  -8   9  321.37    8.50
  -1  -8   9  309.17    8.80
  -1  -8   9  326.27    7.60
  -1  -8   9  329.17   10.40
  -1  -8   9  320.17    9.90
  -1  -8   9  326.17    9.80
   0   8  -9   -0.80    1.60
   0   8  -9   -0.40    2.70
   0   8  -9    3.30    1.80
   0   8  -9   -0.70    1.80
   0   8  -9    0.30    1.60
   0  -8   9   -0.70    2.50
   0  -8   9    0.90    2.50
   0  -8   9    1.90    3.10
   0  -8   9    2.30    2.50
   0  -8   9    3.70    2.30
  -1   8  -9  185.48    7.70
  -1   8  -9  181.38    6.70
  -1   8  -9  156.88    6.00
  -1   8  -9  186.98    6.10
  -1   8  -9  195.48    6.20
   1  -8   9  189.88    7.50
   1  -8   9  185.08    5.80
   1  -8   9  186.78    6.70
   1  -8   9  180.38    7.40
   1  -8   9  181.08    7.10
   1  -8   9  189.78   11.10
  -2   8  -9    9.30    2.60
  -2   8  -9    3.80    3.20
  -2   8  -9    4.60    2.10
  -2   8  -9    6.80    2.10
  -2   8  -9    6.70    2.00
   2  -8   9    5.50    2.80
   2  -8   9    3.20    2.60
   2  -8   9    6.20    3.10
   2  -8   9    3.20    2.30
   2  -8   9    4.40    1.80
  -3   8  -9   54.39    4.40
  -3   8  -9   59.19    5.10
  -3   8  -9   53.19    4.40
  -3   8  -9   49.70    4.00
   3  -8   9   48.70    5.20
   3  -8   9   49.60    5.40
   3  -8   9   50.39    3.80
   3  -8   9   56.89    5.20
   3  -8   9   53.89    5.30
   3  -8   9   51.89    5.30
  -4   8  -9  256.67    9.40
  -4   8  -9  266.57    7.30
  -4   8  -9  275.37   10.90
  -4   8  -9  254.57    8.70
  -4   8  -9  267.07    8.50
   4  -8   9  251.87   10.50
   4  -8   9  253.37    9.40
   4  -8   9  252.17    8.70
   4  -8   9  252.37   10.60
   4  -8   9  261.27    9.70
   4  -8   9  268.67    8.30
  -5   8  -9  127.99    6.60
  -5   8  -9  127.19    4.70
  -5   8  -9  130.19    7.50
  -5   8  -9  123.49    9.30
  -5   8  -9  125.79    7.10
   5  -8   9  125.89    8.30
   5  -8   9  113.99    8.10
   5  -8   9  127.29    6.70
   5  -8   9  117.59   10.90
   5  -8   9  115.19    7.80
   5   7  -9   26.30    3.70
   5   7  -9   22.00    3.10
   5   7  -9   20.90    3.30
   5   7  -9   20.50    2.90
   5   7  -9   26.60    3.00
  -5  -7   9   20.10    5.90
  -5  -7   9   20.20    3.00
   4   7  -9    5.40    2.40
   4   7  -9    4.90    3.10
   4   7  -9    0.80    1.80
   4   7  -9    0.60    1.80
   4   7  -9    2.70    2.30
  -4  -7   9    5.20    2.60
  -4  -7   9    7.50    3.80
  -4  -7   9    2.10    2.90
   3   7  -9   12.70    1.80
   3   7  -9    8.90    1.90
   3   7  -9   10.70    2.40
   3   7  -9   16.30    3.00
  -3  -7   9    8.40    3.50
  -3  -7   9   12.00    1.50
  -3  -7   9   12.60    3.30
  -3  -7   9   12.10    1.50
  -3  -7   9   17.40    2.60
  -3  -7   9   11.40    1.80
   2   7  -9   52.49    4.00
   2   7  -9   49.20    3.30
   2   7  -9   47.20    3.90
   2   7  -9   49.80    3.30
  -2  -7   9   46.70    2.60
  -2  -7   9   53.89    3.90
  -2  -7   9   52.29    3.40
  -2  -7   9   48.30    3.80
  -2  -7   9   53.09    5.00
  -2  -7   9   49.10    3.50
   1   7  -9  175.28    6.00
   1   7  -9  170.78    6.20
   1   7  -9  177.18    6.50
  -1  -7   9  182.28    4.90
  -1  -7   9  174.88    5.80
  -1  -7   9  183.58    5.50
  -1  -7   9  167.58    6.20
  -1  -7   9  163.98    7.10
   0   7  -9  148.49    6.60
   0   7  -9  169.18    5.80
   0   7  -9  173.38    6.90
   0   7  -9  144.89    5.70
   0  -7   9  174.08    6.20
   0  -7   9  161.98    5.90
   0  -7   9  169.48    6.80
   0  -7   9  171.88    4.90
   0  -7   9  170.68    5.70
  -1   7  -9  110.79    5.30
  -1   7  -9  120.29    5.50
  -1   7  -9  109.69    4.70
  -1   7  -9  108.89    5.80
  -1   7  -9  111.39    4.60
   1  -7   9  117.79    5.00
   1  -7   9  119.99    5.80
   1  -7   9  114.89    5.20
   1  -7   9  115.19    4.00
   1  -7   9  119.59    5.70
  -2   7  -9   -0.80    1.70
  -2   7  -9    1.70    2.00
  -2   7  -9   -0.20    1.80
  -2   7  -9    1.30    1.50
  -2   7  -9   -1.80    2.60
   2  -7   9   -1.70    2.40
   2  -7   9    2.50    1.60
   2  -7   9    0.40    2.60
   2  -7   9    0.70    2.60
   2  -7   9   -2.30    2.10
  -3   7  -9   21.10    2.80
  -3   7  -9   21.50    2.30
  -3   7  -9   20.00    3.00
  -3   7  -9   17.60    2.90
  -3   7  -9   20.60    3.70
   3  -7   9   20.30    3.30
   3  -7   9   25.40    3.40
   3  -7   9   17.30    3.10
   3  -7   9   21.50    3.10
   3  -7   9   21.40    3.80
   3  -7   9   22.70    2.60
  -4   7  -9    5.80    2.80
  -4   7  -9    2.30    1.50
  -4   7  -9    0.70    2.50
  -4   7  -9    1.60    2.70
  -4   7  -9   -0.90    3.40
   4  -7   9    4.10    3.00
   4  -7   9   -2.20    3.60
   4  -7   9    2.70    2.80
   4  -7   9    7.20    3.30
   4  -7   9    0.40    3.20
  -5   7  -9  201.08    5.80
  -5   7  -9  213.38    8.70
  -5   7  -9  221.68   10.30
  -5   7  -9  210.88    8.50
  -5   7  -9  214.38    8.60
   5  -7   9  216.98   10.40
   5  -7   9  203.88    9.00
   5  -7   9  209.28    9.60
   5  -7   9  199.98    9.40
   5  -7   9  205.98    8.10
  -6   7  -9   -1.50    4.00
  -6   7  -9   -1.20    1.70
  -6   7  -9    1.00    3.70
  -6   7  -9    1.30    4.90
  -6   7  -9    5.50    4.90
   6  -7   9    9.30    4.80
   6  -7   9   -5.00    3.60
   6  -7   9   -6.60    5.50
   6  -7   9   -5.60    3.50
   5   6  -9   53.99    4.20
   5   6  -9   56.99    4.70
   5   6  -9   60.49    4.20
   5   6  -9   55.69    4.70
   5   6  -9   53.99    3.90
  -5  -6   9   56.29    5.40
  -5  -6   9   59.39    4.00
  -5  -6   9   57.69    4.50
   4   6  -9  745.03   15.50
   4   6  -9  770.42   16.80
   4   6  -9  747.83   15.50
   4   6  -9  736.43   16.20
  -4  -6   9  775.42   18.30
  -4  -6   9  763.32   16.00
  -4  -6   9  730.43   16.10
   3   6  -9 1032.70   20.80
   3   6  -9 1060.39   20.70
   3   6  -9 1064.69   21.70
   3   6  -9 1064.69   21.90
  -3  -6   9 1069.69   21.50
  -3  -6   9 1067.09   20.10
  -3  -6   9 1060.59   23.30
  -3  -6   9 1071.69   21.70
   2   6  -9  458.45   10.00
   2   6  -9  460.05   10.30
   2   6  -9  468.65   11.20
   2   6  -9  468.35   11.20
   2   6  -9  474.45   10.40
  -2  -6   9  467.15   10.10
  -2  -6   9  477.85   12.30
  -2  -6   9  447.76    9.40
  -2  -6   9  474.15   10.10
   1   6  -9   74.79    3.10
   1   6  -9   79.09    3.60
   1   6  -9   82.59    4.20
   1   6  -9   74.69    4.10
   1   6  -9   78.99    3.60
  -1  -6   9   81.49    3.90
  -1  -6   9   86.99    3.00
  -1  -6   9   74.89    4.50
  -1  -6   9   75.39    5.70
  -1  -6   9   81.29    3.80
  -1  -6   9   79.29    4.20
   0   6  -9  625.94   13.80
   0   6  -9  622.04   13.50
   0   6  -9  640.44   14.70
   0   6  -9  639.84   14.10
   0   6  -9  639.64   13.90
   0  -6   9  634.64   13.90
   0  -6   9  658.63   14.70
   0  -6   9  638.24   15.00
   0  -6   9  628.34   14.10
   0  -6   9  633.34   14.10
   0  -6   9  641.34   12.90
  -1   6  -9    5.70    1.60
  -1   6  -9    0.60    2.10
  -1   6  -9    1.20    1.90
  -1   6  -9    2.00    1.70
  -1   6  -9    5.90    1.70
   1  -6   9    4.70    2.10
   1  -6   9    2.90    1.70
   1  -6   9    2.60    1.20
   1  -6   9    5.20    2.00
   1  -6   9    3.90    2.30
   1  -6   9    2.00    2.10
  -2   6  -9  613.34   14.90
  -2   6  -9  602.54   13.80
  -2   6  -9  587.24   14.30
  -2   6  -9  557.84   14.80
  -2   6  -9  611.34   13.30
   2  -6   9  617.44   13.10
   2  -6   9  608.34   14.60
   2  -6   9  614.14   14.20
   2  -6   9  597.34   14.10
   2  -6   9  608.14   14.80
  -3   6  -9  172.48    6.50
  -3   6  -9  174.88    6.60
  -3   6  -9  170.78    6.30
  -3   6  -9  175.28    5.50
  -3   6  -9  184.48    7.60
   3  -6   9  185.78    7.80
   3  -6   9  178.88    6.90
   3  -6   9  166.98    6.60
   3  -6   9  172.58    6.90
   3  -6   9  172.68    5.90
  -4   6  -9  102.29    6.60
  -4   6  -9   98.19    5.80
  -4   6  -9  100.69    5.60
  -4   6  -9  106.09    4.30
  -4   6  -9  104.69    5.50
   4  -6   9  100.79    5.30
   4  -6   9  106.49    7.00
   4  -6   9   94.69    6.10
   4  -6   9   96.09    5.80
   4  -6   9   95.89    6.50
  -5   6  -9   55.59    5.80
  -5   6  -9   43.10    3.00
  -5   6  -9   41.40    5.20
  -5   6  -9   45.70    4.30
  -5   6  -9   52.09    5.30
   5  -6   9   41.70    4.80
   5  -6   9   57.69    5.50
   5  -6   9   43.30    5.40
   5  -6   9   42.20    4.50
   5  -6   9   38.40    4.10
  -6   6  -9    8.90    3.60
  -6   6  -9   24.90    5.20
  -6   6  -9   18.90    2.00
  -6   6  -9   19.90    4.70
  -6   6  -9   15.70    4.80
   6  -6   9   17.20    3.80
   6  -6   9   27.40    4.60
   6  -6   9   25.70    5.30
   6  -6   9   20.90    5.90
   6  -6   9   27.40    4.40
   6   5  -9    3.80    2.40
   6   5  -9    1.00    2.40
   6   5  -9    2.20    2.30
   6   5  -9    0.20    2.30
  -6  -5   9    5.20    3.90
  -6  -5   9   -2.20    1.60
   5   5  -9   42.40    3.20
   5   5  -9   41.70    4.00
   5   5  -9   44.10    3.20
   5   5  -9   38.70    3.10
   5   5  -9   47.40    3.80
  -5  -5   9   40.80    3.50
  -5  -5   9   41.40    4.90
  -5  -5   9   45.50    3.30
   4   5  -9   37.00    3.60
   4   5  -9   27.30    2.50
   4   5  -9   26.90    2.90
   4   5  -9   23.70    2.40
   4   5  -9   23.80    2.30
  -4  -5   9   23.40    4.60
  -4  -5   9   23.40    2.60
  -4  -5   9   30.20    2.60
   3   5  -9  121.49    4.40
   3   5  -9  123.69    3.80
   3   5  -9  124.89    3.70
   3   5  -9  125.09    3.90
  -3  -5   9  122.69    6.10
  -3  -5   9  126.59    3.70
  -3  -5   9  124.29    4.50
  -3  -5   9  129.09    4.70
   2   5  -9  127.89    5.00
   2   5  -9  128.79    4.00
   2   5  -9  121.29    4.20
   2   5  -9  124.39    4.70
   2   5  -9  125.69    4.10
  -2  -5   9  122.59    4.60
  -2  -5   9  126.19    3.00
  -2  -5   9  120.79    5.70
  -2  -5   9  127.49    3.40
  -2  -5   9  124.19    4.40
  -2  -5   9  119.39    4.00
   1   5  -9   44.00    3.00
   1   5  -9   45.50    3.10
   1   5  -9   48.20    3.00
   1   5  -9   42.10    2.70
   1   5  -9   43.40    3.20
   1   5  -9   40.60    2.30
  -1  -5   9   43.10    2.60
  -1  -5   9   44.50    3.00
  -1  -5   9   49.30    3.10
  -1  -5   9   43.70    2.10
  -1  -5   9   47.40    3.90
  -1  -5   9   39.90    2.70
   0   5  -9  399.16    9.80
   0   5  -9  399.06    9.30
   0   5  -9  399.16    9.60
   0   5  -9  402.96    9.50
   0   5  -9  406.96    9.50
   0   5  -9  394.76   10.10
   0  -5   9  400.56    9.60
   0  -5   9  404.36   10.10
   0  -5   9  392.56    9.60
   0  -5   9  411.86   10.60
   0  -5   9  405.06    8.50
   0  -5   9  387.96    9.60
  -1   5  -9  108.59    4.60
  -1   5  -9  116.29    4.50
  -1   5  -9  117.09    4.50
  -1   5  -9  116.29    5.20
  -1   5  -9  115.19    4.50
   1  -5   9  108.59    5.00
   1  -5   9  114.09    4.70
   1  -5   9  112.89    5.10
   1  -5   9  116.49    4.60
   1  -5   9  105.79    4.60
   1  -5   9  114.39    3.90
  -2   5  -9    9.30    1.70
  -2   5  -9    9.80    2.10
  -2   5  -9    4.10    1.80
  -2   5  -9    8.90    2.50
  -2   5  -9    5.60    2.00
   2  -5   9    5.90    2.20
   2  -5   9    6.60    1.60
   2  -5   9    5.10    1.80
   2  -5   9    7.80    2.10
   2  -5   9    4.00    1.90
  -3   5  -9   87.59    4.70
  -3   5  -9   78.39    4.70
  -3   5  -9   69.09    5.30
  -3   5  -9   87.39    4.10
  -3   5  -9   74.59    4.70
   3  -5   9   86.29    5.00
   3  -5   9   78.29    4.70
   3  -5   9   83.79    5.50
   3  -5   9   90.49    4.90
  -4   5  -9    7.00    3.00
  -4   5  -9    5.50    3.00
  -4   5  -9   11.60    2.00
  -4   5  -9    8.30    3.00
   4  -5   9   13.90    3.50
   4  -5   9   14.40    2.80
   4  -5   9    7.90    2.70
   4  -5   9    7.80    3.10
   4  -5   9   11.80    2.90
  -5   5  -9    1.90    3.30
  -5   5  -9    0.50    1.50
  -5   5  -9    1.30    2.80
  -5   5  -9   -0.90    3.50
  -5   5  -9    2.80    2.70
   5  -5   9    3.00    3.80
   5  -5   9    3.30    2.90
   5  -5   9    3.00    3.20
   5  -5   9    2.00    3.90
   5  -5   9    1.50    3.00
  -6   5  -9   -4.50    4.30
  -6   5  -9    0.30    1.20
  -6   5  -9   -5.90    4.20
  -6   5  -9   -1.90    3.90
  -6   5  -9   -4.40    3.20
   6  -5   9    4.60    4.90
   6  -5   9    5.60    3.60
   6  -5   9   -3.70    4.90
   6  -5   9    1.50    3.80
   6  -5   9    4.10    3.80
   6   4  -9   99.09    3.90
   6   4  -9  103.79    3.90
   6   4  -9  100.09    4.90
   6   4  -9  104.29    4.30
   6   4  -9  100.49    4.20
   5   4  -9    0.70    1.50
   5   4  -9    1.70    1.40
   5   4  -9   -1.20    1.30
   5   4  -9    1.00    1.30
   5   4  -9    4.80    2.00
  -5  -4   9   -1.40    3.20
  -5  -4   9    0.70    1.10
  -5  -4   9    0.60    1.00
   4   4  -9   82.19    2.90
   4   4  -9   83.09    5.40
   4   4  -9   84.69    2.90
   4   4  -9   82.39    3.10
   4   4  -9   85.29    3.50
   4   4  -9   82.29    2.80
  -4  -4   9   84.89    3.20
  -4  -4   9   85.99    3.10
   3   4  -9  927.41   18.10
   3   4  -9  920.01   18.50
   3   4  -9  941.41   17.70
   3   4  -9  935.81   18.10
   3   4  -9  938.41   17.90
   3   4  -9  946.01   19.50
  -3  -4   9  944.31   20.40
  -3  -4   9  908.11   18.30
  -3  -4   9  934.11   18.30
  -3  -4   9  940.41   18.10
   2   4  -9   10.40    1.30
   2   4  -9    7.60    1.40
   2   4  -9   12.70    2.00
   2   4  -9    8.10    1.50
   2   4  -9    9.30    1.20
   2   4  -9    9.00    1.40
  -2  -4   9    9.30    2.30
  -2  -4   9    8.40    1.60
  -2  -4   9    9.40    1.30
  -2  -4   9    9.50    1.50
   1   4  -9 1049.59   20.70
   1   4  -9 1078.79   20.80
   1   4  -9 1040.90   20.30
   1   4  -9 1032.80   21.30
   1   4  -9 1045.50   21.10
   1   4  -9 1035.60   20.40
  -1  -4   9 1040.10   19.50
  -1  -4   9 1060.59   21.00
  -1  -4   9 1051.59   22.00
  -1  -4   9 1045.90   20.60
   0   4  -9  772.72   16.40
   0   4  -9  752.52   15.90
   0   4  -9  773.52   16.00
   0   4  -9  756.52   16.30
   0   4  -9  767.02   15.80
   0   4  -9  796.82   16.10
   0  -4   9  764.62   16.00
   0  -4   9  764.92   16.30
   0  -4   9  775.22   15.70
   0  -4   9  751.22   16.80
   0  -4   9  764.92   15.90
   0  -4   9  758.52   14.90
  -1   4  -9  211.38    6.30
  -1   4  -9  213.38    6.40
  -1   4  -9  209.28    6.30
  -1   4  -9  208.38    6.30
  -1   4  -9  224.68    7.20
  -1   4  -9  218.28    6.30
   1  -4   9  215.78    6.50
   1  -4   9  201.48    6.70
   1  -4   9  220.88    5.60
   1  -4   9  208.98    6.30
   1  -4   9  212.48    6.30
  -2   4  -9   19.30    2.50
  -2   4  -9   15.60    2.00
  -2   4  -9   14.20    2.50
  -2   4  -9   16.80    2.20
  -2   4  -9   12.20    2.50
  -2   4  -9   16.40    2.20
   2  -4   9   16.00    2.40
   2  -4   9   14.20    1.90
   2  -4   9   18.00    2.50
   2  -4   9   20.30    2.90
   2  -4   9   15.70    2.20
  -3   4  -9    7.60    2.00
  -3   4  -9    8.10    2.70
  -3   4  -9    4.90    2.10
  -3   4  -9    7.50    2.30
  -3   4  -9    4.80    2.40
   3  -4   9    5.50    2.00
   3  -4   9    6.40    2.60
   3  -4   9    8.80    2.40
   3  -4   9   13.10    2.90
   3  -4   9    5.00    2.10
  -4   4  -9  220.78    8.20
  -4   4  -9  215.68    6.20
  -4   4  -9  221.98    7.70
  -4   4  -9  204.68    8.30
  -4   4  -9  209.88    7.60
   4  -4   9  213.08    8.30
   4  -4   9  199.68    7.30
   4  -4   9  218.58    8.50
   4  -4   9  208.08    7.40
  -5   4  -9    1.30    3.50
  -5   4  -9   -0.40    1.80
  -5   4  -9    4.40    3.30
  -5   4  -9    5.80    3.60
  -5   4  -9    0.10    3.60
   5  -4   9    1.80    3.10
   5  -4   9    5.40    3.70
   5  -4   9    3.10    4.40
   5  -4   9    1.70    2.90
   5  -4   9    0.30    2.80
  -6   4  -9   78.69    8.00
  -6   4  -9   80.49    6.80
  -6   4  -9   98.19    8.10
  -6   4  -9   88.19    7.10
  -6   4  -9   89.49    3.30
   6  -4   9   81.09    7.00
   6  -4   9   73.49    6.80
   6  -4   9   82.19    8.70
   6  -4   9   84.89    7.30
   6  -4   9   89.99    8.50
   6   3  -9    8.70    1.60
   6   3  -9    4.30    2.40
   6   3  -9   10.00    1.70
   5   3  -9   40.70    3.50
   5   3  -9   39.00    2.20
   5   3  -9   35.60    2.30
   5   3  -9   36.80    1.80
   5   3  -9   35.90    1.80
   5   3  -9   39.20    2.20
   4   3  -9   53.59    1.90
   4   3  -9   52.89    2.30
   4   3  -9   52.99    2.70
   4   3  -9   50.69    2.10
   4   3  -9   55.69    4.00
   4   3  -9   55.09    2.40
  -4  -3   9   49.90    1.40
   3   3  -9  103.99    3.00
   3   3  -9  103.09    2.70
   3   3  -9  100.79    3.30
   3   3  -9   99.39    3.20
   3   3  -9  103.29    3.70
   3   3  -9   99.69    4.50
  -3  -3   9  105.39    3.20
  -3  -3   9   92.79    3.10
  -3  -3   9  100.79    3.70
   2   3  -9   19.20    1.80
   2   3  -9   21.90    2.10
   2   3  -9   24.60    2.10
   2   3  -9   26.20    2.90
   2   3  -9   21.10    1.80
   2   3  -9   21.60    1.50
  -2  -3   9   20.00    2.20
  -2  -3   9   21.50    1.60
  -2  -3   9   19.70    2.00
   1   3  -9  546.35   11.90
   1   3  -9  526.95   12.90
   1   3  -9  541.65   11.70
   1   3  -9  554.84   11.50
   1   3  -9  550.44   12.50
   1   3  -9  549.35   11.50
  -1  -3   9  558.14   11.90
  -1  -3   9  543.25   10.70
  -1  -3   9  538.15   11.70
  -1  -3   9  561.14   10.50
  -1  -3   9  550.64   11.70
   0   3  -9   57.69    3.20
   0   3  -9   58.19    3.10
   0   3  -9   59.89    3.20
   0   3  -9   61.79    3.50
   0   3  -9   55.79    3.00
   0   3  -9   63.09    3.20
   0  -3   9   58.09    3.10
   0  -3   9   57.89    3.30
   0  -3   9   55.89    2.30
   0  -3   9   51.09    2.90
   0  -3   9   63.09    2.70
  -1   3  -9   -0.30    1.30
  -1   3  -9   -0.40    1.40
  -1   3  -9    2.10    1.80
  -1   3  -9    0.90    1.40
  -1   3  -9    4.20    1.50
  -1   3  -9    1.00    1.60
   1  -3   9    2.00    1.60
   1  -3   9   -0.20    1.50
   1  -3   9   -1.30    1.30
   1  -3   9    1.00    1.60
   1  -3   9   -1.00    1.00
  -2   3  -9  901.31   18.80
  -2   3  -9  876.01   18.80
  -2   3  -9  898.21   19.30
  -2   3  -9  892.01   18.80
  -2   3  -9  927.41   19.60
  -2   3  -9  909.21   19.10
   2  -3   9  888.31   18.80
   2  -3   9  906.81   18.50
   2  -3   9  904.81   19.40
   2  -3   9  897.11   19.50
   2  -3   9  881.61   18.80
  -3   3  -9   36.10    4.10
  -3   3  -9   37.60    4.20
  -3   3  -9   36.00    3.60
  -3   3  -9   35.70    3.60
  -3   3  -9   43.30    4.90
   3  -3   9   37.80    3.80
   3  -3   9   38.70    4.30
  -4   3  -9  136.79    4.90
  -4   3  -9  135.79    6.00
  -4   3  -9  134.69    6.80
  -4   3  -9  146.59    6.90
  -4   3  -9  144.79    6.40
   4  -3   9  136.89    6.20
   4  -3   9  137.39    6.30
   4  -3   9  126.79    6.90
   4  -3   9  135.79    6.90
   4  -3   9  137.99    6.00
  -5   3  -9    9.30    2.00
  -5   3  -9   11.70    3.80
  -5   3  -9   10.50    3.40
  -5   3  -9    8.30    3.40
  -5   3  -9    8.50    3.60
   5  -3   9    8.60    3.30
   5  -3   9   10.00    2.90
   5  -3   9    9.20    3.30
   5  -3   9    6.30    3.90
   5  -3   9    8.30    3.80
  -6   3  -9    4.20    3.80
  -6   3  -9   -3.30    4.50
  -6   3  -9    4.60    1.70
  -6   3  -9   -3.20    4.20
  -6   3  -9    9.00    3.20
   6  -3   9    5.00    3.50
   6  -3   9    6.10    4.70
   6  -3   9    8.80    6.00
   6  -3   9   11.10    4.70
   6  -3   9    7.10    4.50
   7   2  -9   99.19    4.40
   7   2  -9  106.79    5.00
   7   2  -9  105.49    3.60
   6   2  -9   17.30    2.60
   6   2  -9   17.20    1.80
   6   2  -9   18.90    2.00
   6   2  -9   22.30    2.40
   5   2  -9   65.29    3.90
   5   2  -9   64.39    2.10
   5   2  -9   60.79    2.10
   5   2  -9   62.29    3.20
   4   2  -9   30.90    2.50
   4   2  -9   26.70    1.60
   4   2  -9   30.80    3.20
   4   2  -9   28.80    1.30
   3   2  -9    0.80    0.90
   3   2  -9    3.70    1.40
   3   2  -9    2.00    0.90
   3   2  -9    0.80    1.60
   3   2  -9    1.50    0.80
  -3  -2   9    3.00    1.30
  -3  -2   9    3.00    0.70
  -3  -2   9    1.60    0.60
   2   2  -9   16.30    1.40
   2   2  -9   17.20    1.80
   2   2  -9   19.90    1.70
   2   2  -9   14.10    1.70
   2   2  -9   15.00    1.60
   2   2  -9   16.00    2.10
  -2  -2   9   15.30    1.60
  -2  -2   9   14.90    1.60
  -2  -2   9   14.40    1.60
   1   2  -9  282.17    6.90
   1   2  -9  276.77    6.60
   1   2  -9  273.27    6.70
   1   2  -9  273.57    7.70
   1   2  -9  274.87    6.70
   1   2  -9  269.97    7.00
  -1  -2   9  269.97    6.60
  -1  -2   9  274.17    5.50
  -1  -2   9  275.87    6.70
  -1  -2   9  275.57    5.50
  -1  -2   9  268.57    6.80
   0   2  -9  193.08    5.70
   0   2  -9  198.48    5.80
   0   2  -9  202.28    5.60
   0   2  -9  202.98    5.90
   0   2  -9  197.88    6.20
   0   2  -9  200.28    5.80
   0  -2   9  192.28    4.80
   0  -2   9  192.38    4.90
   0  -2   9  198.58    5.70
   0  -2   9  194.78    5.60
   0  -2   9  191.68    5.70
  -1   2  -9 1189.68   23.80
  -1   2  -9 1192.08   23.90
  -1   2  -9 1211.58   24.20
  -1   2  -9 1176.78   24.10
  -1   2  -9 1203.08   23.90
  -1   2  -9 1191.28   24.10
   1  -2   9 1172.78   24.10
   1  -2   9 1208.28   23.30
   1  -2   9 1200.78   24.10
   1  -2   9 1184.08   23.60
   1  -2   9 1192.08   23.30
  -2   2  -9   45.10    3.80
  -2   2  -9   36.20    4.00
  -2   2  -9   46.60    3.80
  -2   2  -9   44.40    3.70
  -2   2  -9   37.60    3.30
  -2   2  -9   38.70    3.30
   2  -2   9   48.20    4.00
   2  -2   9   45.00    3.20
   2  -2   9   43.60    3.70
   2  -2   9   44.70    3.30
   2  -2   9   47.90    3.30
  -3   2  -9  119.29    5.10
  -3   2  -9  126.99    5.00
  -3   2  -9  105.49    5.60
  -3   2  -9  113.29    5.80
  -3   2  -9  114.49    5.40
  -3   2  -9  109.29    5.60
   3  -2   9  104.19    6.10
   3  -2   9  109.19    5.10
   3  -2   9  113.09    5.90
   3  -2   9  113.99    5.70
  -4   2  -9   86.39    4.90
  -4   2  -9   91.09    5.60
  -4   2  -9   89.19    5.10
  -4   2  -9   86.89    4.70
  -4   2  -9   78.89    6.00
  -4   2  -9   82.09    5.80
   4  -2   9   89.79    6.00
   4  -2   9   86.69    6.20
   4  -2   9   98.09    5.60
   4  -2   9   84.39    5.70
   4  -2   9   81.79    4.90
  -5   2  -9    7.10    3.50
  -5   2  -9    9.60    2.40
  -5   2  -9    7.70    3.30
  -5   2  -9    8.20    3.60
  -5   2  -9    5.90    3.80
   5  -2   9    7.40    3.40
   5  -2   9    5.80    3.10
   5  -2   9    3.20    4.10
   5  -2   9   12.20    2.90
   5  -2   9    7.70    3.90
  -6   2  -9   11.60    5.20
  -6   2  -9    0.90    4.30
  -6   2  -9   -7.20    4.80
  -6   2  -9    8.30    2.20
  -6   2  -9    7.70    4.00
   6  -2   9    6.70    3.40
   6  -2   9    4.20    4.10
   6  -2   9   13.20    5.10
   6  -2   9   -3.80    5.00
   6  -2   9    8.60    3.90
   7   1  -9   20.20    1.80
   7   1  -9   21.90    2.60
   7   1  -9   25.80    2.80
   7   1  -9   24.90    2.60
   6   1  -9   80.59    2.20
   6   1  -9   80.99    4.60
   6   1  -9   86.49    4.10
   6   1  -9   83.49    2.50
   5   1  -9   13.30    1.00
   5   1  -9   12.50    2.60
   5   1  -9   11.10    0.90
   5   1  -9   16.10    1.90
   4   1  -9  354.26    9.10
   4   1  -9  333.37    6.80
   4   1  -9  340.97    6.60
   4   1  -9  347.07    8.30
   3   1  -9  458.85    9.20
   3   1  -9  473.75   10.40
   3   1  -9  463.75    9.40
   3   1  -9  475.45    9.00
   3   1  -9  477.95   11.40
   3   1  -9  468.95    8.80
   2   1  -9   96.79    3.90
   2   1  -9   97.49    3.20
   2   1  -9   95.69    3.10
   2   1  -9   99.59    3.10
   2   1  -9  101.09    3.10
   2   1  -9  101.69    4.50
  -2  -1   9   98.69    3.00
  -2  -1   9   97.29    2.90
  -2  -1   9   91.79    3.60
   1   1  -9   -0.20    1.10
   1   1  -9    1.00    1.20
   1   1  -9   -1.00    1.00
   1   1  -9    0.90    1.20
   1   1  -9   -1.70    1.00
   1   1  -9    0.40    1.20
  -1  -1   9    0.40    0.40
  -1  -1   9    0.50    1.10
  -1  -1   9   -0.20    0.90
  -1  -1   9    1.00    0.40
  -1  -1   9    0.40    1.00
   0   1  -9  420.16    9.70
   0   1  -9  429.86    9.90
   0   1  -9  416.96   10.50
   0   1  -9  430.56    9.80
   0   1  -9  410.76    9.80
   0   1  -9  422.46   10.00
   0  -1   9  421.16    9.00
   0  -1   9  410.06    9.60
   0  -1   9  423.96    9.80
   0  -1   9  425.16    8.80
   0  -1   9  426.36   10.00
  -1   1  -9  101.49    4.20
  -1   1  -9  102.89    4.40
  -1   1  -9  108.29    4.50
  -1   1  -9  100.79    4.10
  -1   1  -9  103.09    4.60
   1  -1   9  104.99    3.90
   1  -1   9  106.79    3.90
   1  -1   9   95.89    4.40
   1  -1   9  113.69    4.80
   1  -1   9  107.09    4.10
  -2   1  -9   59.99    4.00
  -2   1  -9   56.49    3.60
  -2   1  -9   56.79    4.00
  -2   1  -9   60.59    3.70
  -2   1  -9   54.09    3.60
   2  -1   9   57.59    3.50
   2  -1   9   55.79    4.00
   2  -1   9   59.59    4.00
   2  -1   9   56.09    4.30
   2  -1   9   59.79    3.40
  -3   1  -9   11.30    2.80
  -3   1  -9   15.90    3.00
  -3   1  -9   12.50    3.10
  -3   1  -9   11.40    2.70
   3  -1   9   12.80    2.80
   3  -1   9   15.30    3.00
   3  -1   9   12.10    2.30
   3  -1   9   11.80    2.60
  -4   1  -9   11.00    2.60
  -4   1  -9    6.70    2.80
  -4   1  -9   10.80    3.30
  -4   1  -9   11.00    2.40
  -4   1  -9    8.20    3.50
   4  -1   9    7.90    2.40
   4  -1   9    8.10    3.00
   4  -1   9    5.70    3.30
   4  -1   9    7.00    2.50
   4  -1   9    7.40    3.10
  -5   1  -9   12.90    4.80
  -5   1  -9    6.30    3.40
  -5   1  -9    4.60    4.10
  -5   1  -9    4.10    2.20
  -5   1  -9    2.00    3.20
   5  -1   9   -3.00    3.50
   5  -1   9    1.40    4.20
   5  -1   9    5.60    3.80
   5  -1   9   -3.20    3.30
   5  -1   9   -0.40    2.50
  -6   1  -9   66.89    5.70
  -6   1  -9   72.59    7.40
  -6   1  -9   58.69    4.50
  -6   1  -9   64.99    5.80
  -6   1  -9   63.39    6.50
   6  -1   9   66.19    7.60
   6  -1   9   64.49    7.20
   6  -1   9   70.99    7.40
   7   0  -9   10.00    2.40
   7   0  -9    9.10    1.50
   7   0  -9    9.10    2.50
   7   0  -9    7.90    1.00
   6   0  -9  132.89    5.60
   6   0  -9  133.99    5.10
   6   0  -9  127.59    2.70
   6   0  -9  124.59    2.80
   5   0  -9    6.10    2.00
   5   0  -9    3.40    1.70
   4   0  -9  386.16    9.10
   4   0  -9  368.36    7.20
   4   0  -9  367.96    7.20
   4   0  -9  386.66    9.90
   3   0  -9  354.16    8.60
   3   0  -9  358.96    7.10
   3   0  -9  375.06    7.00
   3   0  -9  361.86    7.40
   3   0  -9  368.66    9.70
   3   0  -9  356.56    7.50
   2   0  -9   38.40    2.10
   2   0  -9   37.10    1.90
   2   0  -9   37.10    3.40
   2   0  -9   39.00    2.70
   2   0  -9   37.90    2.20
   2   0  -9   38.70    2.10
  -2   0   9   36.10    1.80
  -2   0   9   40.90    2.90
  -2   0   9   37.60    2.20
   1   0  -9  682.43   13.90
   1   0  -9  680.53   13.90
   1   0  -9  670.73   13.90
   1   0  -9  685.93   14.30
   1   0  -9  693.33   14.50
  -1   0   9  693.13   14.40
  -1   0   9  666.73   12.80
  -1   0   9  681.63   13.80
  -1   0   9  668.33   12.60
   0   0  -9   66.79    3.20
   0   0  -9   61.69    3.30
   0   0  -9   58.69    3.30
   0   0  -9   63.19    3.40
   0   0  -9   55.89    3.60
   0   0   9   61.29    2.40
   0   0   9   62.49    3.30
   0   0   9   60.09    3.20
   0   0   9   63.69    2.70
   0   0   9   60.19    3.40
  -1   0  -9    4.90    1.70
  -1   0  -9    4.60    1.60
  -1   0  -9    2.20    1.70
  -1   0  -9    5.80    2.00
  -1   0  -9    5.60    1.80
   1   0   9    4.80    1.80
   1   0   9    5.40    1.60
   1   0   9    3.20    1.80
   1   0   9    8.90    1.60
   1   0   9    4.30    1.50
  -2   0  -9   36.90    3.30
  -2   0  -9   37.70    3.40
  -2   0  -9   40.80    3.60
  -2   0  -9   39.70    4.00
  -2   0  -9   39.20    3.70
   2   0   9   32.50    3.40
   2   0   9   45.40    3.90
   2   0   9   41.50    3.20
   2   0   9   37.80    3.50
   2   0   9   39.00    3.00
  -3   0  -9  163.68    6.50
  -3   0  -9  175.58    6.30
  -3   0  -9  163.68    7.40
  -3   0  -9  175.48    6.80
  -3   0  -9  187.58    7.20
   3   0   9  176.38    7.00
   3   0   9  180.98    6.10
   3   0   9  176.38    6.00
   3   0   9  169.78    6.70
   3   0   9  175.28    7.50
  -4   0  -9    9.40    4.20
  -4   0  -9   10.40    2.50
  -4   0  -9   18.60    4.00
  -4   0  -9   13.70    2.90
  -4   0  -9   16.00    3.20
   4   0   9   12.10    2.50
   4   0   9   13.60    2.70
   4   0   9    9.70    4.00
   4   0   9    7.00    4.00
   4   0   9    7.60    3.20
  -5   0  -9   52.69    5.90
  -5   0  -9   51.59    5.80
  -5   0  -9   48.60    5.50
  -5   0  -9   46.60    5.80
  -5   0  -9   53.19    5.40
   5   0   9   60.49    6.70
   5   0   9   44.30    6.10
   5   0   9   42.60    6.00
   5   0   9   44.80    4.80
   5   0   9   40.10    4.10
   7  -1  -9    6.00    3.00
   7  -1  -9   10.70    1.20
   7  -1  -9    6.30    2.50
   7  -1  -9    6.40    1.10
   6  -1  -9   17.00    0.90
   6  -1  -9   15.90    1.20
   6  -1  -9   21.20    2.70
   5  -1  -9    2.80    2.00
   5  -1  -9    6.20    0.60
   5  -1  -9    4.00    0.50
   5  -1  -9    6.20    2.30
   4  -1  -9    3.40    1.60
   4  -1  -9    6.00    0.70
   4  -1  -9    6.30    2.10
   4  -1  -9    5.20    0.90
   3  -1  -9  680.93   14.50
   3  -1  -9  682.43   13.10
   3  -1  -9  692.03   12.60
   3  -1  -9  669.83   13.10
   3  -1  -9  673.73   12.90
  -3   1   9  640.94   12.50
  -3   1   9  671.43   12.60
   2  -1  -9   -2.30    0.90
   2  -1  -9   -1.80    1.00
   2  -1  -9    0.70    0.80
   2  -1  -9    1.10    1.40
   2  -1  -9   -0.90    1.10
  -2   1   9   -0.40    1.10
  -2   1   9    0.40    0.90
   1  -1  -9   88.79    3.90
   1  -1  -9   81.59    3.30
   1  -1  -9   83.29    3.70
   1  -1  -9   84.19    3.60
  -1   1   9   85.59    2.60
  -1   1   9   87.49    2.30
  -1   1   9   85.29    3.80
  -1   1   9   81.89    3.90
  -1   1   9   90.39    3.30
   0  -1  -9   89.39    4.20
   0  -1  -9   87.99    4.10
   0  -1  -9   94.59    4.00
   0  -1  -9   87.39    3.70
   0  -1  -9   89.49    3.70
   0   1   9   91.19    4.20
   0   1   9   94.69    2.90
   0   1   9   88.39    3.90
   0   1   9   92.49    3.70
   0   1   9   89.69    3.80
  -1  -1  -9  194.48    6.40
  -1  -1  -9  194.18    7.10
  -1  -1  -9  197.28    6.30
  -1  -1  -9  199.38    6.40
  -1  -1  -9  191.58    6.10
   1   1   9  203.28    5.40
   1   1   9  194.58    6.30
   1   1   9  197.88    6.30
   1   1   9  205.38    6.40
   1   1   9  188.08    6.70
  -2  -1  -9   16.10    2.20
  -2  -1  -9   18.60    2.60
  -2  -1  -9   16.80    2.80
  -2  -1  -9   17.30    2.50
  -2  -1  -9   12.70    3.00
   2   1   9   20.20    2.70
   2   1   9   18.40    2.30
   2   1   9   20.50    2.90
   2   1   9   14.00    2.40
   2   1   9   15.00    3.10
  -3  -1  -9   -4.60    3.10
  -3  -1  -9   -2.00    2.60
  -3  -1  -9   -2.90    1.80
  -3  -1  -9    3.10    3.10
  -3  -1  -9    2.60    2.30
   3   1   9    2.30    2.50
   3   1   9    5.40    2.60
   3   1   9   -1.00    2.20
   3   1   9    2.80    3.00
   3   1   9    3.50    1.90
  -4  -1  -9   84.89    8.20
  -4  -1  -9   93.09    5.40
  -4  -1  -9   99.99    7.30
  -4  -1  -9   99.59    6.50
  -4  -1  -9  102.59    6.20
   4   1   9   98.59    6.60
   4   1   9   93.09    7.70
   4   1   9   92.19    5.20
   4   1   9   97.39    6.80
   4   1   9   99.99    5.80
  -5  -1  -9    6.90    3.90
  -5  -1  -9    6.20    3.40
  -5  -1  -9   -0.20    4.40
  -5  -1  -9    4.10    3.70
  -5  -1  -9    3.50    5.30
   5   1   9   10.00    4.40
   5   1   9   15.30    4.80
   5   1   9    3.80    2.90
   5   1   9    9.40    5.50
   5   1   9   10.00    3.00
   7  -2  -9   32.50    3.60
   7  -2  -9   29.30    1.80
   7  -2  -9   32.70    4.20
   7  -2  -9   30.70    2.40
   6  -2  -9  126.19    3.20
   6  -2  -9  124.79    6.20
   6  -2  -9  125.49    3.00
   6  -2  -9  137.29    6.30
   5  -2  -9   73.49    5.00
   5  -2  -9   78.89    4.80
   5  -2  -9   72.69    2.10
   5  -2  -9   71.29    2.20
   4  -2  -9    5.90    0.90
   4  -2  -9    6.80    0.70
   4  -2  -9    6.20    0.60
   4  -2  -9    6.10    1.10
   4  -2  -9    8.00    2.20
   3  -2  -9    2.20    1.20
   3  -2  -9    0.30    0.80
   3  -2  -9    0.10    1.10
   3  -2  -9   -3.40    1.50
   3  -2  -9   -0.30    0.60
  -3   2   9   -0.90    0.90
  -3   2   9   -0.20    1.00
   2  -2  -9  303.27    7.00
   2  -2  -9  301.57    6.70
   2  -2  -9  287.77    8.00
   2  -2  -9  304.17    7.60
   2  -2  -9  297.87    7.10
  -2   2   9  305.57    7.30
  -2   2   9  302.77    7.50
   1  -2  -9   10.50    1.90
   1  -2  -9    7.30    1.60
   1  -2  -9    8.30    1.40
   1  -2  -9    7.90    1.50
   1  -2  -9    8.30    1.80
  -1   2   9    7.50    1.70
  -1   2   9    7.10    1.00
  -1   2   9    5.70    1.30
   0  -2  -9  246.18    7.20
   0  -2  -9  246.18    6.90
   0  -2  -9  244.08    6.60
   0  -2  -9  236.68    7.40
   0  -2  -9  243.28    7.10
   0   2   9  252.47    7.00
   0   2   9  247.08    6.70
   0   2   9  246.38    7.30
   0   2   9  236.88    7.40
   0   2   9  254.97    5.80
  -1  -2  -9  240.58    7.10
  -1  -2  -9  241.08    8.00
   1   2   9  254.17    8.20
   1   2   9  244.18    7.40
   1   2   9  244.18    6.10
   1   2   9  245.48    7.40
  -2  -2  -9   20.60    2.90
  -2  -2  -9   19.30    2.50
  -2  -2  -9   18.30    2.70
  -2  -2  -9   21.70    4.10
  -2  -2  -9   19.00    3.00
   2   2   9   13.60    2.70
   2   2   9   21.00    2.60
   2   2   9   20.90    2.60
   2   2   9   21.70    3.40
   2   2   9   13.40    3.30
  -3  -2  -9  290.57   10.80
  -3  -2  -9  302.07    8.80
  -3  -2  -9  318.27    9.30
  -3  -2  -9  297.07   10.30
  -3  -2  -9  301.07    9.30
   3   2   9  296.87    9.90
   3   2   9  304.97    8.30
   3   2   9  297.77    8.60
   3   2   9  307.67    9.90
   3   2   9  294.77   10.60
  -4  -2  -9   21.30    3.70
  -4  -2  -9   16.90    5.00
  -4  -2  -9   26.20    4.60
  -4  -2  -9   19.60    4.00
  -4  -2  -9   19.20    3.20
   4   2   9   18.20    3.00
   4   2   9   27.70    5.20
   4   2   9   24.00    4.40
   4   2   9   23.30    3.70
   4   2   9   26.90    4.40
  -5  -2  -9    6.50    6.10
  -5  -2  -9   22.60    5.70
  -5  -2  -9    7.70    4.70
  -5  -2  -9    6.60    3.00
  -5  -2  -9    7.50    2.90
  -5  -2  -9   16.70    5.20
   5   2   9   16.60    3.50
   5   2   9    8.60    5.20
   5   2   9   18.20    6.20
   6  -3  -9   75.49    2.80
   6  -3  -9   71.99    2.90
   6  -3  -9   77.49    6.40
   6  -3  -9   81.99    5.80
   5  -3  -9  255.57    5.50
   5  -3  -9  258.87    8.20
   5  -3  -9  235.98    9.60
   5  -3  -9  258.47    5.70
   4  -3  -9    2.10    1.20
   4  -3  -9    1.30    0.90
   4  -3  -9    2.60    2.10
   4  -3  -9    0.80    1.10
   4  -3  -9    0.30    0.90
  -4   3   9   -0.30    0.60
  -4   3   9    0.50    0.50
   3  -3  -9    6.30    1.10
   3  -3  -9    8.60    1.40
   3  -3  -9    8.40    2.20
   3  -3  -9    7.70    1.30
   3  -3  -9    7.80    1.70
  -3   3   9    6.10    1.40
  -3   3   9    7.70    1.60
   2  -3  -9  223.48    6.60
   2  -3  -9  218.78    5.80
   2  -3  -9  229.08    5.60
   2  -3  -9  221.68    6.00
   2  -3  -9  223.78    7.00
  -2   3   9  219.18    6.40
  -2   3   9  225.38    6.50
   1  -3  -9  245.68    7.40
   1  -3  -9  257.07    6.60
   1  -3  -9  248.08    7.50
   1  -3  -9  240.38    6.80
   1  -3  -9  244.48    6.30
  -1   3   9  245.98    6.20
  -1   3   9  247.78    7.30
  -1   3   9  253.77    5.60
  -1   3   9  240.18    7.10
   0  -3  -9   18.80    2.40
   0  -3  -9   17.10    2.10
   0  -3  -9   17.90    2.80
   0  -3  -9   15.80    2.60
   0   3   9   19.00    2.20
   0   3   9   21.40    2.80
   0   3   9   21.80    2.60
   0   3   9   25.90    2.80
  -1  -3  -9   86.69    4.40
  -1  -3  -9   98.39    6.40
  -1  -3  -9   84.29    5.10
  -1  -3  -9   88.09    4.30
  -1  -3  -9   89.09    5.00
   1   3   9   93.39    5.60
   1   3   9   90.99    4.70
   1   3   9   78.09    7.40
   1   3   9   88.19    3.50
  -2  -3  -9   -0.30    2.80
  -2  -3  -9    9.00    3.50
  -2  -3  -9    2.00    2.60
  -2  -3  -9    2.10    2.20
  -2  -3  -9    1.20    2.00
   2   3   9   -0.30    2.60
   2   3   9    1.30    2.00
   2   3   9    0.60    2.60
   2   3   9    0.40    2.60
   2   3   9    5.40    3.10
  -3  -3  -9   -1.40    3.40
  -3  -3  -9    2.90    2.80
  -3  -3  -9    3.90    4.10
  -3  -3  -9   -1.00    2.30
   3   3   9    3.50    3.20
   3   3   9    5.70    3.20
   3   3   9    3.40    2.10
   3   3   9    0.90    3.70
   3   3   9    5.70    3.50
  -4  -3  -9   11.90    4.50
  -4  -3  -9    9.60    3.60
  -4  -3  -9    3.60    5.40
  -4  -3  -9    9.10    4.50
  -4  -3  -9    9.60    3.10
   4   3   9   12.50    3.90
   4   3   9    9.30    5.70
   4   3   9    9.00    2.70
   4   3   9    3.20    3.90
   4   3   9    6.90    4.40
   6  -4  -9    5.50    1.50
   6  -4  -9    0.50    1.60
   6  -4  -9   -4.10    3.90
   6  -4  -9    7.50    3.10
   5  -4  -9   67.99    2.60
   5  -4  -9   71.19    2.90
   5  -4  -9   68.79    3.00
   5  -4  -9   73.19    5.60
   5  -4  -9   66.09    2.70
   4  -4  -9  255.77    6.30
   4  -4  -9  255.17    6.10
   4  -4  -9  260.57    8.40
   4  -4  -9  247.98    6.70
   4  -4  -9  254.37    6.10
  -4   4   9  255.37    6.20
  -4   4   9  263.37    6.00
   3  -4  -9   57.49    3.70
   3  -4  -9   52.59    3.10
   3  -4  -9   52.69    3.00
   3  -4  -9   55.99    2.70
   3  -4  -9   54.89    4.40
  -3   4   9   57.39    3.90
   2  -4  -9   80.39    3.70
   2  -4  -9   83.09    3.60
   2  -4  -9   90.39    4.90
   2  -4  -9   81.69    3.10
   2  -4  -9   86.29    4.40
  -2   4   9   82.79    2.40
  -2   4   9   79.79    4.00
  -2   4   9   78.79    2.20
  -2   4   9   79.49    4.20
   1  -4  -9   20.90    2.00
   1  -4  -9   20.60    2.90
   1  -4  -9   22.30    2.90
  -1   4   9   23.80    2.10
  -1   4   9   23.00    2.70
  -1   4   9   23.80    2.30
  -1   4   9   24.70    2.70
   0  -4  -9   22.70    2.50
   0  -4  -9   15.30    2.90
   0  -4  -9   22.80    2.30
   0  -4  -9   21.90    2.90
   0  -4  -9   17.40    3.20
   0   4   9   21.20    3.00
   0   4   9   18.50    2.00
   0   4   9   20.80    3.10
   0   4   9   19.60    2.80
  -1  -4  -9    1.20    1.90
  -1  -4  -9   -3.50    1.90
  -1  -4  -9    0.10    3.00
  -1  -4  -9    2.00    2.60
  -1  -4  -9    1.00    2.50
   1   4   9    0.70    2.50
   1   4   9   -3.60    2.40
   1   4   9    4.60    3.10
   1   4   9    0.30    2.10
  -2  -4  -9   97.69    7.80
  -2  -4  -9   90.79    6.10
  -2  -4  -9   99.99    7.70
  -2  -4  -9  100.09    5.40
  -2  -4  -9   88.49    5.20
   2   4   9  101.69    4.40
   2   4   9  103.49    7.60
   2   4   9   95.89    7.20
   2   4   9   98.59    6.50
  -3  -4  -9   29.20    4.90
  -3  -4  -9   31.20    5.00
  -3  -4  -9   25.40    3.40
  -3  -4  -9   35.70    4.10
  -3  -4  -9   45.10    6.20
   3   4   9   30.70    4.80
   3   4   9   39.60    5.80
   3   4   9   28.60    3.00
   3   4   9   32.20    5.00
   6  -5  -9   47.80    3.40
   6  -5  -9   45.70    4.00
   6  -5  -9   46.20    4.90
   6  -5  -9   34.10    5.70
   5  -5  -9    5.40    3.50
   5  -5  -9    5.60    2.10
   5  -5  -9    5.90    1.60
   5  -5  -9    3.90    1.70
   5  -5  -9    3.60    2.20
  -5   5   9    5.10    1.10
   4  -5  -9   64.19    5.80
   4  -5  -9   70.29    3.40
   4  -5  -9   67.29    3.40
   4  -5  -9   72.19    4.30
   4  -5  -9   72.69    3.70
  -4   5   9   74.89    4.20
  -4   5   9   71.39    3.90
   3  -5  -9   57.99    5.10
   3  -5  -9   59.69    4.60
   3  -5  -9   56.09    3.70
   3  -5  -9   56.49    3.20
  -3   5   9   64.99    4.10
  -3   5   9   62.69    4.40
   2  -5  -9    2.30    2.60
   2  -5  -9    1.60    2.80
   2  -5  -9    4.00    1.90
   2  -5  -9   -1.80    1.60
  -2   5   9    3.50    1.30
  -2   5   9   -0.20    2.60
  -2   5   9    3.90    1.20
   1  -5  -9   19.00    2.20
   1  -5  -9   22.90    2.50
   1  -5  -9   19.50    3.30
   1  -5  -9   19.10    2.70
   1  -5  -9   23.30    3.30
  -1   5   9   19.40    2.60
  -1   5   9   19.10    2.90
  -1   5   9   19.00    1.90
  -1   5   9   18.80    3.00
   0  -5  -9   16.50    2.50
   0  -5  -9   19.90    3.30
   0  -5  -9   23.10    3.40
   0  -5  -9   11.80    3.50
   0  -5  -9   19.60    2.50
   0   5   9   21.10    3.50
   0   5   9   20.50    2.90
   0   5   9   15.90    2.50
   0   5   9   22.50    3.70
  -1  -5  -9   12.50    3.50
  -1  -5  -9   12.60    2.80
  -1  -5  -9   26.10    3.90
  -1  -5  -9   14.70    2.80
  -1  -5  -9   13.30    4.50
   1   5   9   15.70    2.60
   1   5   9   16.00    3.40
   1   5   9   15.00    3.60
   1   5   9   20.10    4.20
  -2  -5  -9   14.40    4.20
  -2  -5  -9   17.90    4.10
  -2  -5  -9    9.70    2.90
  -2  -5  -9   21.80    5.50
  -2  -5  -9   21.80    3.90
   2   5   9   21.30    2.70
   2   5   9   29.40    5.00
   2   5   9   25.30    5.00
   2   5   9   14.30    4.50
  -3  -5  -9   25.30    3.50
  -3  -5  -9   29.80    4.60
  -3  -5  -9   31.60    4.50
  -3  -5  -9   27.30    7.00
   3   5   9   28.00    6.60
   3   5   9   20.30    2.80
   3   5   9   32.20    5.90
   5  -6  -9    1.70    2.40
   5  -6  -9   -5.40    3.40
   5  -6  -9   -2.20    2.70
   5  -6  -9   -2.90    2.00
   5  -6  -9    2.80    2.20
  -5   6   9    1.90    2.30
  -5   6   9    2.10    2.10
   4  -6  -9   37.80    3.30
   4  -6  -9   39.00    4.10
   4  -6  -9   41.20    3.70
   4  -6  -9   45.90    5.20
   4  -6  -9   39.00    3.70
  -4   6   9   39.50    3.60
  -4   6   9   34.30    3.20
   3  -6  -9   37.90    3.90
   3  -6  -9   36.00    3.90
   3  -6  -9   34.70    4.10
   3  -6  -9   31.00    3.10
  -3   6   9   39.30    3.50
  -3   6   9   33.90    3.30
   2  -6  -9    0.70    2.00
   2  -6  -9   -1.00    2.80
   2  -6  -9   -1.80    2.20
   2  -6  -9    1.60    1.70
   2  -6  -9   -2.90    2.90
  -2   6   9    3.50    1.90
  -2   6   9    5.00    2.90
  -2   6   9   -1.40    2.40
  -2   6   9    1.10    1.50
   1  -6  -9   11.70    3.00
   1  -6  -9   13.80    2.90
   1  -6  -9   15.70    3.50
   1  -6  -9   11.10    2.40
   1  -6  -9   14.60    3.80
  -1   6   9   13.20    3.40
  -1   6   9   17.80    3.70
  -1   6   9   14.40    3.00
  -1   6   9   11.00    2.00
   0  -6  -9   90.49    5.40
   0  -6  -9   92.59    7.50
   0  -6  -9   95.29    7.40
   0  -6  -9  100.59    5.30
   0  -6  -9   98.39    6.60
   0   6   9   96.79    6.00
   0   6   9   89.09    4.30
   0   6   9  100.39    7.30
   0   6   9   85.49    6.80
  -1  -6  -9    1.20    4.50
  -1  -6  -9   -2.30    3.70
  -1  -6  -9    5.20    2.80
  -1  -6  -9    1.50    2.90
  -1  -6  -9    5.90    3.70
   1   6   9    1.60    4.60
   1   6   9   -0.10    4.50
   1   6   9    1.30    4.20
   1   6   9   -0.20    2.30
  -2  -6  -9    5.60    2.80
  -2  -6  -9    9.50    3.60
  -2  -6  -9    8.60    4.10
  -2  -6  -9    7.70    5.70
   2   6   9    6.80    6.00
   2   6   9    9.00    2.80
   2   6   9   11.10    5.20
   2   6   9   19.00    6.60
   4  -7  -9   16.40    3.30
   4  -7  -9    7.60    3.20
   4  -7  -9   17.50    3.00
   4  -7  -9   12.00    2.70
  -4   7   9   12.80    2.90
  -4   7   9    7.50    4.00
   3  -7  -9   -1.90    2.20
   3  -7  -9   -2.60    2.90
   3  -7  -9    3.10    3.10
   3  -7  -9   -4.00    2.40
   3  -7  -9   -4.00    3.00
  -3   7   9    0.20    2.80
  -3   7   9    8.20    3.30
   2  -7  -9   43.20    4.60
   2  -7  -9   55.19    4.90
   2  -7  -9   62.19    5.40
   2  -7  -9   50.59    4.60
   2  -7  -9   54.19    5.50
  -2   7   9   56.39    4.00
  -2   7   9   49.90    5.40
  -2   7   9   51.09    3.70
   1  -7  -9   15.40    4.80
   1  -7  -9   14.70    3.40
   1  -7  -9   10.30    4.10
   1  -7  -9   10.80    2.70
   1  -7  -9   12.40    3.50
  -1   7   9    9.10    4.50
  -1   7   9   16.60    4.60
  -1   7   9   13.70    3.70
   0  -7  -9   41.60    4.70
   0  -7  -9   39.20    4.10
   0  -7  -9   36.20    5.60
   0  -7  -9   43.40    5.70
   0  -7  -9   42.70    4.10
   0   7   9   43.70    5.40
   0   7   9   47.90    5.40
   0   7   9   45.20    4.70
   0   7   9   28.40    5.20
   0  11 -10   14.80    5.50
   0  11 -10   12.00    4.00
   0  11 -10   12.00    3.20
   0  11 -10   11.70    2.80
   0  11 -10   13.10    3.00
   0 -11  10   11.40    4.90
   0 -11  10    9.00    2.60
   0 -11  10    8.30    5.20
   0 -11  10   11.40    3.40
   0 -11  10    8.30    4.20
   0 -11  10   11.20    4.40
  -1  11 -10   12.30    3.10
  -1  11 -10   15.30    3.10
  -1  11 -10   14.30    3.30
  -1  11 -10   13.20    3.50
   1 -11  10    7.20    5.40
   1 -11  10   17.90    4.30
   1 -11  10   17.80    4.70
   1 -11  10   23.00    4.90
   1 -11  10   15.20    3.00
  -2  11 -10   15.30    6.10
  -2  11 -10   12.90    2.90
  -2  11 -10    9.00    3.10
   2 -11  10   10.20    2.90
   2 -11  10   15.20    4.40
   2 -11  10    8.70    5.70
   2 -11  10   13.80    5.10
   2 -11  10   12.70    5.90
   2 -11  10   14.90    4.60
   2  10 -10   -1.00    2.90
   2  10 -10   -4.40    4.10
   2  10 -10    0.00    2.60
   2  10 -10    1.50    2.80
   2  10 -10    2.70    2.20
  -2 -10  10   -6.30    3.60
  -2 -10  10    1.10    3.40
  -2 -10  10    0.90    2.30
  -2 -10  10    9.30    4.30
  -2 -10  10    0.80    2.60
  -2 -10  10   -0.10    3.40
   1  10 -10   92.09    6.10
   1  10 -10   89.79    7.80
   1  10 -10   85.09    5.60
   1  10 -10   86.99    5.70
   1  10 -10   94.69    5.50
  -1 -10  10   91.49    7.10
  -1 -10  10   98.99    7.60
  -1 -10  10   76.19    7.10
  -1 -10  10   78.29    7.90
  -1 -10  10  100.59    4.50
  -1 -10  10   94.09    5.90
   0  10 -10   42.10    4.30
   0  10 -10   34.40    3.70
   0  10 -10   41.00    4.20
   0  10 -10   50.99    5.60
   0  10 -10   42.20    4.50
   0 -10  10   41.90    5.00
   0 -10  10   40.70    5.00
   0 -10  10   46.00    5.50
   0 -10  10   48.00    5.00
   0 -10  10   44.10    4.70
   0 -10  10   48.10    5.40
  -1  10 -10   34.90    5.30
  -1  10 -10   40.30    3.70
  -1  10 -10   32.70    3.50
  -1  10 -10   35.70    4.30
   1 -10  10   29.30    4.80
   1 -10  10   28.20    5.10
   1 -10  10   36.50    4.90
   1 -10  10   26.30    4.30
   1 -10  10   33.90    4.10
   1 -10  10   43.30    4.20
  -2  10 -10  104.89    7.20
  -2  10 -10   93.49    5.80
  -2  10 -10   97.29    5.70
  -2  10 -10   90.49    5.60
   2 -10  10   85.59    8.20
   2 -10  10   95.09    9.00
   2 -10  10   96.09    5.20
   2 -10  10   74.49    7.10
   2 -10  10   81.79    7.60
   2 -10  10   91.89    6.90
  -3  10 -10   56.99    4.90
  -3  10 -10   51.49    5.30
  -3  10 -10   55.59    6.70
  -3  10 -10   60.79    5.40
  -3  10 -10   64.19    5.90
   3 -10  10   57.49    6.10
   3 -10  10   43.80    6.40
   3 -10  10   54.39    4.90
   3 -10  10   50.49    5.40
   3 -10  10   56.69    5.70
   3 -10  10   60.89    5.80
  -4  10 -10   29.40    3.60
  -4  10 -10   28.30    3.70
  -4  10 -10   36.50    7.00
  -4  10 -10   25.40    4.40
  -4  10 -10   22.60    4.40
   4 -10  10   19.50    6.60
   4 -10  10   22.20    6.80
   4 -10  10   19.30    5.50
   3   9 -10   10.40    3.10
   3   9 -10    8.40    3.20
   3   9 -10   11.10    3.00
   3   9 -10   11.60    2.30
   3   9 -10   11.70    3.40
  -3  -9  10    2.90    2.80
  -3  -9  10   16.40    2.40
  -3  -9  10    3.90    2.80
  -3  -9  10    3.00    3.10
  -3  -9  10   12.40    4.70
   2   9 -10   31.50    4.40
   2   9 -10   31.10    3.20
   2   9 -10   34.40    3.80
   2   9 -10   31.00    3.50
   2   9 -10   29.00    2.90
  -2  -9  10   31.30    3.30
  -2  -9  10   29.30    4.10
  -2  -9  10   28.50    3.90
  -2  -9  10   29.50    2.80
  -2  -9  10   24.00    4.90
  -2  -9  10   31.50    3.60
   1   9 -10    0.20    2.00
   1   9 -10    0.70    2.20
   1   9 -10    0.90    2.50
   1   9 -10   -1.30    2.40
   1   9 -10   -1.10    3.10
  -1  -9  10    2.40    2.50
  -1  -9  10   -0.50    3.20
  -1  -9  10    2.00    1.90
  -1  -9  10    3.80    4.00
  -1  -9  10   -3.10    3.50
  -1  -9  10    6.10    3.80
   0   9 -10   53.59    5.00
   0   9 -10   43.80    4.70
   0   9 -10   49.99    4.50
   0   9 -10   41.00    4.20
   0  -9  10   44.40    4.70
   0  -9  10   52.79    5.10
   0  -9  10   45.70    4.70
   0  -9  10   54.99    6.90
   0  -9  10   41.60    4.70
   0  -9  10   48.70    3.50
  -1   9 -10  297.27    8.80
  -1   9 -10  299.47   11.00
  -1   9 -10  301.57    8.80
  -1   9 -10  314.47    9.00
  -1   9 -10  307.57    9.80
   1  -9  10  309.07    8.30
   1  -9  10  313.57   11.40
   1  -9  10  312.57   10.00
   1  -9  10  304.17   10.80
   1  -9  10  307.17    9.90
   1  -9  10  299.87   10.10
  -2   9 -10   11.60    2.70
  -2   9 -10   17.80    4.40
  -2   9 -10   10.40    2.90
  -2   9 -10    6.20    3.20
  -2   9 -10   12.90    2.80
   2  -9  10   13.00    3.80
   2  -9  10   11.90    4.30
   2  -9  10   11.70    2.50
   2  -9  10   18.50    3.60
   2  -9  10   18.70    3.70
   2  -9  10    8.30    3.90
  -3   9 -10   62.39    6.20
  -3   9 -10   42.70    4.80
  -3   9 -10   51.09    4.90
  -3   9 -10   48.80    4.90
  -3   9 -10   60.39    6.20
   3  -9  10   48.10    5.80
   3  -9  10   58.79    4.50
   3  -9  10   40.80    5.10
   3  -9  10   50.99    4.90
   3  -9  10   52.39    5.20
   3  -9  10   49.10    5.30
  -4   9 -10  148.49    7.40
  -4   9 -10  146.39    7.10
  -4   9 -10  160.18    8.50
  -4   9 -10  144.79   10.00
  -4   9 -10  145.99    6.20
   4  -9  10  136.59    8.70
   4  -9  10  145.89   10.10
   4  -9  10  142.49    8.30
   4  -9  10  138.49    8.80
   4  -9  10  145.09    7.60
   4  -9  10  146.09    6.40
   4   8 -10   57.79    4.70
   4   8 -10   51.19    5.40
   4   8 -10   58.59    4.60
   4   8 -10   57.89    4.60
   4   8 -10   54.49    6.00
  -4  -8  10   47.00    4.20
  -4  -8  10   60.09    6.20
   3   8 -10   59.89    4.90
   3   8 -10   51.19    5.00
   3   8 -10   48.10    4.00
   3   8 -10   51.99    4.10
   3   8 -10   49.30    4.10
  -3  -8  10   54.59    3.00
  -3  -8  10   56.99    4.70
  -3  -8  10   48.40    5.50
  -3  -8  10   54.89    3.00
  -3  -8  10   53.89    3.70
   2   8 -10  209.18    6.30
   2   8 -10  218.88    7.60
   2   8 -10  222.18    7.40
   2   8 -10  218.18    6.70
   2   8 -10  222.68    8.60
  -2  -8  10  207.58    5.70
  -2  -8  10  213.78    8.10
  -2  -8  10  217.38    7.00
  -2  -8  10  214.18    7.70
  -2  -8  10  222.68    6.60
  -2  -8  10  212.08    9.00
   1   8 -10    8.40    1.90
   1   8 -10    0.20    2.80
   1   8 -10    1.70    2.30
   1   8 -10    2.30    2.00
   1   8 -10    7.90    2.30
  -1  -8  10    6.90    2.60
  -1  -8  10    9.20    2.50
  -1  -8  10    7.10    2.70
  -1  -8  10    2.80    1.30
  -1  -8  10    4.80    3.10
  -1  -8  10    7.00    3.20
   0   8 -10  259.17    8.10
   0   8 -10  273.07    8.10
   0   8 -10  277.97    7.50
   0   8 -10  267.07    9.30
   0   8 -10  277.97    8.10
   0  -8  10  221.68    7.60
   0  -8  10  273.37    9.10
   0  -8  10  276.07    9.50
   0  -8  10  276.97    9.50
   0  -8  10  281.07    8.80
  -1   8 -10   60.19    4.30
  -1   8 -10   62.99    4.30
  -1   8 -10   55.89    4.70
  -1   8 -10   60.59    4.00
  -1   8 -10   63.99    5.70
   1  -8  10   48.60    5.30
   1  -8  10   66.99    4.90
   1  -8  10   51.29    5.00
   1  -8  10   63.89    3.60
   1  -8  10   63.49    5.10
   1  -8  10   64.69    4.60
  -2   8 -10   12.30    3.60
  -2   8 -10    9.90    2.30
  -2   8 -10    7.60    2.50
  -2   8 -10    7.50    2.50
  -2   8 -10    6.30    3.30
   2  -8  10    6.50    3.10
   2  -8  10    9.70    3.00
   2  -8  10   11.00    4.20
   2  -8  10   13.20    2.90
   2  -8  10    6.80    3.10
   2  -8  10   15.10    2.30
  -3   8 -10   12.00    3.30
  -3   8 -10   -5.60    2.40
  -3   8 -10    0.50    2.30
  -3   8 -10    1.20    1.90
  -3   8 -10    5.90    4.30
   3  -8  10   -1.40    2.10
   3  -8  10    0.00    3.30
   3  -8  10    0.00    3.10
   3  -8  10   -6.00    2.80
   3  -8  10    5.40    2.90
  -4   8 -10  161.78    6.00
  -4   8 -10  154.38    7.00
  -4   8 -10  151.58    7.70
  -4   8 -10  164.48    7.50
  -4   8 -10  155.08    9.30
   4  -8  10  151.68    8.50
   4  -8  10  145.39    6.60
   4  -8  10  129.79    8.10
   4  -8  10  152.48    7.80
  -5   8 -10    3.30    5.10
  -5   8 -10    0.20    2.00
  -5   8 -10   -3.10    4.80
  -5   8 -10   -2.00    3.90
  -5   8 -10   -2.20    3.90
   5  -8  10   -1.60    5.60
   5  -8  10   -1.30    4.30
   5  -8  10    5.60    3.80
   5  -8  10    5.00    3.10
   5  -8  10    2.50    3.90
   5   7 -10    1.00    2.30
   5   7 -10   -2.50    2.80
   5   7 -10    1.40    3.10
   5   7 -10   -0.90    2.30
   5   7 -10   -2.10    2.90
  -5  -7  10    3.90    4.80
  -5  -7  10    0.80    2.30
  -5  -7  10    1.90    2.80
   4   7 -10   -1.90    2.90
   4   7 -10   -1.00    1.80
   4   7 -10    1.50    2.30
   4   7 -10    3.60    2.20
   4   7 -10    0.20    2.60
  -4  -7  10    1.00    2.70
  -4  -7  10   -3.10    2.80
  -4  -7  10   -0.60    3.80
   3   7 -10  133.19    6.20
   3   7 -10  138.79    6.10
   3   7 -10  131.09    4.60
   3   7 -10  130.09    5.90
   3   7 -10  129.29    5.20
  -3  -7  10  122.09    4.00
  -3  -7  10  135.19    6.00
  -3  -7  10  128.49    5.90
  -3  -7  10  125.49    7.40
  -3  -7  10  124.69    2.90
   2   7 -10  109.99    4.50
   2   7 -10   98.79    5.60
   2   7 -10  102.59    4.00
   2   7 -10   97.89    4.60
   2   7 -10  106.99    5.30
  -2  -7  10  108.69    4.30
  -2  -7  10  105.99    5.00
  -2  -7  10  108.29    5.10
  -2  -7  10   98.29    6.40
  -2  -7  10  102.79    4.20
  -2  -7  10   95.89    3.30
   1   7 -10   16.20    2.50
   1   7 -10   14.50    1.80
   1   7 -10   11.90    2.60
   1   7 -10   15.60    2.20
   1   7 -10   13.00    2.10
  -1  -7  10   14.30    3.00
  -1  -7  10   11.60    2.40
  -1  -7  10   16.00    2.70
  -1  -7  10   10.70    2.30
  -1  -7  10   13.50    1.60
  -1  -7  10   13.10    2.10
   0   7 -10   16.90    3.10
   0   7 -10   14.50    2.30
   0   7 -10   11.60    1.90
   0   7 -10   13.70    2.20
   0   7 -10   18.30    2.90
   0  -7  10   11.70    2.40
   0  -7  10   11.10    2.40
   0  -7  10   14.80    2.30
   0  -7  10   18.40    2.00
   0  -7  10   14.40    3.00
  -1   7 -10   -0.20    1.80
  -1   7 -10    3.70    1.90
  -1   7 -10    1.60    1.80
  -1   7 -10   -0.20    2.40
  -1   7 -10   -1.00    2.50
   1  -7  10   -1.90    2.30
   1  -7  10   -2.40    1.90
   1  -7  10    2.80    2.20
   1  -7  10   -4.20    2.40
  -2   7 -10   27.90    3.90
  -2   7 -10   27.50    3.20
  -2   7 -10   21.50    2.70
  -2   7 -10   28.10    3.10
  -2   7 -10   27.10    2.90
   2  -7  10   24.60    3.30
   2  -7  10   23.00    3.30
   2  -7  10   27.20    3.40
   2  -7  10   26.40    3.20
   2  -7  10   24.30    2.40
  -3   7 -10   10.00    2.40
  -3   7 -10    7.60    2.60
  -3   7 -10   12.50    2.90
  -3   7 -10   16.50    3.90
  -3   7 -10   10.30    2.70
   3  -7  10    4.80    3.00
   3  -7  10    9.80    2.90
   3  -7  10    7.40    3.00
   3  -7  10    4.20    2.20
  -4   7 -10    1.70    3.90
  -4   7 -10    4.50    2.90
  -4   7 -10    8.40    3.20
  -4   7 -10    3.70    3.00
  -4   7 -10    7.30    1.90
   4  -7  10    8.30    3.30
   4  -7  10    5.70    2.80
   4  -7  10    6.40    3.60
   4  -7  10   11.00    5.10
   4  -7  10    6.10    3.60
  -5   7 -10  345.27   12.80
  -5   7 -10  296.37   10.20
  -5   7 -10  321.97   12.80
  -5   7 -10  322.97   11.60
  -5   7 -10  317.27    8.00
   5  -7  10  291.67   11.30
   5  -7  10  312.97   11.20
   5  -7  10  308.17   12.70
   5  -7  10  295.67   10.00
   5  -7  10  330.47   12.00
   5   6 -10   93.29    4.60
   5   6 -10  105.99    4.90
   5   6 -10   96.09    5.80
   5   6 -10   95.69    5.70
   5   6 -10  103.69    4.70
  -5  -6  10  108.19    5.10
  -5  -6  10  112.19    8.00
  -5  -6  10   91.19    4.80
   4   6 -10   20.30    2.80
   4   6 -10   19.60    2.20
   4   6 -10   18.10    2.30
   4   6 -10   19.90    2.90
  -4  -6  10   16.80    4.00
  -4  -6  10   19.80    2.80
  -4  -6  10   18.30    2.90
   3   6 -10  119.29    4.30
   3   6 -10  118.29    4.00
   3   6 -10  124.89    4.50
   3   6 -10  134.49    6.00
   3   6 -10  118.69    5.20
  -3  -6  10  117.99    5.10
  -3  -6  10  123.09    5.00
  -3  -6  10  124.29    4.00
  -3  -6  10  122.09    6.70
   2   6 -10    2.10    1.40
   2   6 -10   -0.30    1.70
   2   6 -10    3.70    1.90
   2   6 -10   -1.10    1.60
   2   6 -10   -0.70    1.40
  -2  -6  10   -0.20    1.20
  -2  -6  10    1.30    1.40
  -2  -6  10   -1.50    2.40
  -2  -6  10    1.70    0.90
  -2  -6  10    1.00    2.10
   1   6 -10  131.99    4.70
   1   6 -10  138.19    5.00
   1   6 -10  124.89    5.20
   1   6 -10  125.49    4.50
   1   6 -10  126.89    5.40
  -1  -6  10  125.29    4.60
  -1  -6  10  131.19    6.10
  -1  -6  10  133.09    5.30
  -1  -6  10  133.29    4.80
  -1  -6  10  121.29    5.00
  -1  -6  10  136.69    3.80
   0   6 -10   14.80    2.10
   0   6 -10   13.50    2.10
   0   6 -10   13.10    2.60
   0   6 -10   12.00    2.10
   0  -6  10   18.00    1.90
   0  -6  10   13.00    2.20
   0  -6  10   13.40    2.50
   0  -6  10   17.60    3.50
   0  -6  10   16.90    2.50
  -1   6 -10   18.00    3.00
  -1   6 -10   15.10    2.40
  -1   6 -10   15.60    2.30
  -1   6 -10   13.90    2.20
   1  -6  10   15.60    1.70
   1  -6  10   13.10    2.50
   1  -6  10   16.30    2.80
   1  -6  10   14.30    2.40
   1  -6  10   18.30    2.90
   1  -6  10   15.80    2.50
  -2   6 -10  583.14   13.90
  -2   6 -10  577.24   14.10
  -2   6 -10  585.34   15.00
  -2   6 -10  599.04   14.00
  -2   6 -10  603.44   13.60
   2  -6  10  624.14   15.10
   2  -6  10  593.84   14.40
   2  -6  10  606.34   13.20
   2  -6  10  587.64   14.50
  -3   6 -10    1.20    2.40
  -3   6 -10    0.00    2.80
  -3   6 -10   -1.80    2.30
  -3   6 -10    3.90    3.00
  -3   6 -10    0.60    1.70
   3  -6  10    0.00    2.90
   3  -6  10   -2.40    2.40
   3  -6  10    1.70    2.30
   3  -6  10   -1.70    2.00
   3  -6  10   -1.40    2.50
  -4   6 -10   15.50    2.40
  -4   6 -10   10.80    3.20
  -4   6 -10    6.00    3.20
  -4   6 -10   19.40    3.30
   4  -6  10   23.90    4.40
   4  -6  10   15.80    3.40
   4  -6  10    7.30    3.40
   4  -6  10   14.60    3.00
   4  -6  10   12.40    3.80
  -5   6 -10   -1.20    3.20
  -5   6 -10    3.80    4.40
  -5   6 -10   -1.10    3.60
  -5   6 -10   -0.80    3.90
  -5   6 -10    1.30    1.80
   5  -6  10   -2.40    3.70
   5  -6  10    2.20    4.40
   5  -6  10    0.10    3.80
   5  -6  10    1.50    3.30
   6   5 -10   13.20    2.60
   6   5 -10    8.80    2.80
   6   5 -10   14.20    2.70
   6   5 -10   12.80    2.30
   5   5 -10   16.20    2.50
   5   5 -10   10.90    2.70
   5   5 -10   18.30    2.30
   5   5 -10   11.50    1.90
   5   5 -10   15.80    2.10
  -5  -5  10   12.90    1.80
  -5  -5  10   17.60    4.00
  -5  -5  10   11.50    1.90
   4   5 -10    8.10    1.60
   4   5 -10    7.80    1.40
   4   5 -10   10.20    2.40
   4   5 -10    9.40    1.70
   4   5 -10    9.50    2.00
  -4  -5  10    8.00    1.70
  -4  -5  10    7.80    1.90
  -4  -5  10    8.60    3.10
   3   5 -10  416.96    9.20
   3   5 -10  416.06    9.10
   3   5 -10  409.16    8.80
   3   5 -10  408.96    9.70
   3   5 -10  403.86   10.50
   3   5 -10  414.56    9.30
  -3  -5  10  413.56    9.00
  -3  -5  10  413.96    9.80
  -3  -5  10  395.46    9.60
   2   5 -10 1480.45   28.40
   2   5 -10 1451.65   29.70
   2   5 -10 1531.35   29.00
   2   5 -10 1483.05   27.80
   2   5 -10 1506.75   28.30
   2   5 -10 1455.65   28.10
  -2  -5  10 1461.65   28.10
  -2  -5  10 1440.96   26.80
  -2  -5  10 1472.15   30.40
  -2  -5  10 1417.06   26.60
  -2  -5  10 1516.35   28.70
  -2  -5  10 1488.85   28.80
   1   5 -10    0.40    1.30
   1   5 -10    4.50    1.80
   1   5 -10    2.10    1.70
   1   5 -10    3.50    1.40
   1   5 -10    4.00    1.60
   1   5 -10    1.80    1.40
  -1  -5  10    1.30    0.90
  -1  -5  10    4.70    2.00
  -1  -5  10    1.00    1.20
  -1  -5  10    2.90    1.50
  -1  -5  10    4.30    2.30
  -1  -5  10    1.10    1.40
   0   5 -10  427.36   10.80
   0   5 -10  431.86   10.40
   0   5 -10  434.06   11.10
   0   5 -10  433.76   10.40
   0   5 -10  441.66   10.60
   0   5 -10  444.76   10.30
   0  -5  10  440.86   10.50
   0  -5  10  437.56    9.30
   0  -5  10  440.46   10.60
   0  -5  10  443.16   11.00
   0  -5  10  448.16   10.30
   0  -5  10  449.76   11.60
  -1   5 -10  122.49    5.10
  -1   5 -10  121.89    5.70
  -1   5 -10  121.69    5.00
  -1   5 -10  125.99    5.00
  -1   5 -10  134.49    5.20
  -1   5 -10  133.49    5.10
   1  -5  10  133.29    4.20
   1  -5  10  125.09    5.10
   1  -5  10  127.59    5.10
   1  -5  10  120.09    5.50
   1  -5  10  120.79    5.20
  -2   5 -10   47.50    3.50
  -2   5 -10   46.00    3.90
  -2   5 -10   44.60    3.80
  -2   5 -10   40.60    3.80
  -2   5 -10   47.70    4.60
   2  -5  10   53.89    4.70
   2  -5  10   47.60    3.80
   2  -5  10   38.40    4.00
   2  -5  10   42.20    3.10
   2  -5  10   42.90    3.90
  -3   5 -10  376.36   10.60
  -3   5 -10  388.96    9.70
  -3   5 -10  383.56   10.60
  -3   5 -10  389.66   11.60
  -3   5 -10  392.66   10.80
   3  -5  10  372.86   11.00
   3  -5  10  386.86   11.50
   3  -5  10  372.46   10.80
   3  -5  10  386.76    9.90
   3  -5  10  387.36   10.60
  -4   5 -10    2.90    2.60
  -4   5 -10    0.10    2.80
  -4   5 -10    6.60    3.50
  -4   5 -10    2.40    3.30
  -4   5 -10   -3.10    1.90
   4  -5  10   -1.10    3.90
   4  -5  10    2.00    2.80
   4  -5  10   -1.60    2.50
   4  -5  10    2.50    3.50
   4  -5  10   -4.30    2.50
  -5   5 -10   67.69    5.90
  -5   5 -10   87.79    7.70
  -5   5 -10   75.59    4.40
  -5   5 -10   66.89    6.20
  -5   5 -10   90.89    7.20
   5  -5  10   62.19    7.00
   5  -5  10   77.69    6.60
   5  -5  10   72.39    7.90
   5  -5  10   89.39    6.50
   5  -5  10   78.09    7.50
  -6   5 -10    5.30    5.30
  -6   5 -10   22.70    4.20
  -6   5 -10   12.90    5.10
  -6   5 -10   17.50    4.30
  -6   5 -10   15.90    2.10
   6  -5  10   12.10    4.30
   6  -5  10    8.10    6.00
   6  -5  10   17.50    5.80
   6   4 -10    8.10    1.80
   6   4 -10   10.10    2.70
   6   4 -10   11.50    1.10
   6   4 -10   14.00    2.00
   5   4 -10   32.70    2.30
   5   4 -10   34.40    2.50
   5   4 -10   31.90    2.60
   5   4 -10   34.10    2.60
   5   4 -10   30.30    3.40
   4   4 -10    2.80    1.40
   4   4 -10    1.90    1.20
   4   4 -10    3.10    1.20
   4   4 -10    3.10    1.10
   4   4 -10    3.10    1.50
   4   4 -10    0.20    2.00
  -4  -4  10    2.90    1.40
  -4  -4  10    5.50    1.30
   3   4 -10  536.35   11.30
   3   4 -10  546.05   10.70
   3   4 -10  556.34   11.70
   3   4 -10  534.35   11.10
   3   4 -10  531.25   11.50
  -3  -4  10  492.35   12.00
  -3  -4  10  526.25   11.30
  -3  -4  10  549.65   11.40
   2   4 -10   26.20    2.40
   2   4 -10   27.90    2.90
   2   4 -10   26.90    2.90
   2   4 -10   30.20    2.60
   2   4 -10   30.40    2.40
   2   4 -10   28.30    1.80
  -2  -4  10   30.70    2.70
  -2  -4  10   29.10    2.50
  -2  -4  10   32.60    2.80
   1   4 -10  381.56    9.10
   1   4 -10  379.86    8.60
   1   4 -10  369.86    9.40
   1   4 -10  372.46    8.90
   1   4 -10  366.06    8.90
   1   4 -10  373.76    9.70
  -1  -4  10  386.76    7.70
  -1  -4  10  390.26    8.10
  -1  -4  10  374.16    9.20
  -1  -4  10  363.06    8.80
   0   4 -10   10.80    2.10
   0   4 -10    6.50    2.00
   0   4 -10   10.30    2.10
   0   4 -10    9.00    1.70
   0   4 -10   11.70    2.20
   0   4 -10   14.60    1.90
   0  -4  10   12.10    1.90
   0  -4  10   14.30    2.40
   0  -4  10   15.70    1.80
   0  -4  10   11.40    1.60
   0  -4  10   16.70    2.10
  -1   4 -10   75.79    4.00
  -1   4 -10   82.79    4.20
  -1   4 -10   76.89    4.50
  -1   4 -10   74.89    4.40
  -1   4 -10   77.99    4.10
  -1   4 -10   79.49    4.20
   1  -4  10   80.49    3.30
   1  -4  10   80.59    4.50
   1  -4  10   75.89    4.00
   1  -4  10   84.19    4.20
  -2   4 -10  213.88    7.50
  -2   4 -10  201.38    7.00
  -2   4 -10  205.78    6.50
   2  -4  10  210.18    6.20
   2  -4  10  203.18    7.10
   2  -4  10  180.28    7.60
   2  -4  10  200.98    7.40
  -3   4 -10  326.57    8.70
  -3   4 -10  338.67   10.40
  -3   4 -10  339.47    9.70
  -3   4 -10  317.87    9.20
  -3   4 -10  324.47    9.40
  -3   4 -10  328.77    9.90
   3  -4  10  321.87    9.70
   3  -4  10  326.87    9.40
   3  -4  10  320.37   10.10
   3  -4  10  326.47   10.30
   3  -4  10  331.97    9.10
  -4   4 -10    0.10    2.80
  -4   4 -10    2.90    3.40
  -4   4 -10    1.00    2.10
  -4   4 -10   -0.90    3.20
  -4   4 -10   -0.60    2.30
   4  -4  10   -0.50    3.20
   4  -4  10    3.50    2.80
   4  -4  10   -1.30    2.60
   4  -4  10    0.60    2.40
   4  -4  10   -0.40    3.30
  -5   4 -10   16.50    2.50
  -5   4 -10   15.70    4.30
  -5   4 -10   15.00    4.40
  -5   4 -10   16.30    4.00
  -5   4 -10   22.70    4.10
   5  -4  10   13.30    5.00
   5  -4  10   22.10    3.80
   5  -4  10   16.50    3.90
   5  -4  10   23.50    4.00
   5  -4  10   14.70    4.50
  -6   4 -10   23.90    4.60
  -6   4 -10   19.80    4.00
  -6   4 -10   19.20    2.00
  -6   4 -10   20.40    6.30
  -6   4 -10   22.10    5.50
   6  -4  10   16.60    4.50
   6  -4  10   16.00    5.90
   6  -4  10   16.20    5.80
   6   3 -10   71.59    5.20
   6   3 -10   65.99    3.10
   6   3 -10   60.59    3.00
   6   3 -10   63.39    2.50
   5   3 -10  423.76   10.80
   5   3 -10  430.76    9.40
   5   3 -10  435.26    8.80
   5   3 -10  420.66    8.90
   4   3 -10   14.60    1.80
   4   3 -10   12.40    1.40
   4   3 -10   15.10    1.30
   4   3 -10   15.80    1.50
   3   3 -10   96.29    3.40
   3   3 -10   99.29    3.30
   3   3 -10   96.49    3.60
   3   3 -10  101.19    5.30
   3   3 -10  100.39    3.80
  -3  -3  10   97.59    3.20
  -3  -3  10  101.19    3.80
  -3  -3  10   95.29    3.30
   2   3 -10 1806.42   33.50
   2   3 -10 1790.72   33.30
   2   3 -10 1818.62   34.10
   2   3 -10 1830.32   34.20
   2   3 -10 1770.22   33.80
  -2  -3  10 1805.62   33.80
  -2  -3  10 1777.82   33.90
  -2  -3  10 1796.02   33.50
   1   3 -10  786.52   15.90
   1   3 -10  784.12   16.10
   1   3 -10  785.12   17.10
   1   3 -10  793.42   15.90
   1   3 -10  797.12   16.30
   1   3 -10  739.23   17.40
  -1  -3  10  766.12   15.80
  -1  -3  10  779.42   14.80
  -1  -3  10  782.02   16.20
  -1  -3  10  774.12   16.00
  -1  -3  10  765.42   14.50
   0   3 -10  489.35   11.30
   0   3 -10  504.75   11.90
   0   3 -10  509.55   11.60
   0   3 -10  498.55   11.50
   0   3 -10  497.05   12.10
   0   3 -10  517.55   11.60
   0  -3  10  499.05   11.50
   0  -3  10  505.85   10.30
   0  -3  10  506.55   11.40
   0  -3  10  501.15   10.80
   0  -3  10  496.75   11.80
  -1   3 -10    5.90    1.90
  -1   3 -10    2.40    1.70
  -1   3 -10    7.40    1.90
  -1   3 -10    6.10    1.90
  -1   3 -10    2.10    1.90
  -1   3 -10    7.70    1.80
   1  -3  10    4.90    1.70
   1  -3  10    5.70    1.60
   1  -3  10    2.10    1.50
   1  -3  10    4.80    2.00
   1  -3  10    4.60    2.10
  -2   3 -10  128.29    5.80
  -2   3 -10  132.79    5.70
  -2   3 -10  127.79    5.20
  -2   3 -10  125.79    5.90
  -2   3 -10  131.29    5.80
   2  -3  10  134.59    5.20
   2  -3  10  126.59    5.80
   2  -3  10  129.99    5.80
   2  -3  10  128.49    5.10
  -3   3 -10   32.10    3.70
  -3   3 -10   32.90    3.20
  -3   3 -10   33.60    3.60
  -3   3 -10   34.40    3.80
  -3   3 -10   36.10    3.90
  -3   3 -10   32.20    3.20
   3  -3  10   34.20    3.30
   3  -3  10   28.10    4.10
   3  -3  10   39.50    3.80
   3  -3  10   36.60    4.00
   3  -3  10   38.30    3.90
  -4   3 -10  279.67    9.40
  -4   3 -10  272.97    8.70
  -4   3 -10  276.97    9.80
  -4   3 -10  252.97   11.10
  -4   3 -10  273.87    8.20
   4  -3  10  276.47    9.90
   4  -3  10  271.97    9.00
   4  -3  10  293.27    9.20
   4  -3  10  261.67    8.50
   4  -3  10  241.18   11.30
  -5   3 -10   10.30    2.60
  -5   3 -10   17.40    4.00
  -5   3 -10    7.10    4.00
  -5   3 -10    9.50    3.30
  -5   3 -10   15.30    4.40
   5  -3  10    6.60    3.50
   5  -3  10    9.60    4.00
   5  -3  10   15.70    4.70
   5  -3  10   10.90    4.20
  -6   3 -10   10.30    3.70
   6   2 -10   58.29    2.50
   6   2 -10   58.29    5.10
   6   2 -10   55.29    3.50
   6   2 -10   52.79    2.40
   5   2 -10  102.89    3.00
   5   2 -10  110.39    4.50
   5   2 -10  105.19    2.80
   4   2 -10   -0.50    0.80
   4   2 -10   -1.10    1.80
   4   2 -10    0.20    1.60
   4   2 -10    0.00    1.00
   3   2 -10  167.58    4.30
   3   2 -10  174.88    6.20
   3   2 -10  164.58    4.60
   3   2 -10  172.38    5.20
   3   2 -10  174.38    3.90
   3   2 -10  172.28    4.40
  -3  -2  10  167.38    3.80
  -3  -2  10  175.98    5.50
  -3  -2  10  169.78    3.90
   2   2 -10   35.90    2.50
   2   2 -10   40.60    3.60
   2   2 -10   35.00    2.40
   2   2 -10   41.50    3.20
   2   2 -10   35.00    2.10
   2   2 -10   36.50    2.10
  -2  -2  10   38.40    2.10
  -2  -2  10   37.80    2.20
  -2  -2  10   34.50    2.60
   1   2 -10   -1.10    1.00
   1   2 -10    1.80    1.70
   1   2 -10   -0.40    1.20
   1   2 -10   -0.50    1.10
   1   2 -10    3.20    1.60
   1   2 -10   -0.80    1.70
  -1  -2  10   -0.30    0.50
  -1  -2  10   -0.60    1.10
  -1  -2  10   -0.80    0.60
  -1  -2  10    0.10    1.30
  -1  -2  10   -1.80    1.40
   0   2 -10  532.75   12.80
   0   2 -10  514.65   11.80
   0   2 -10  534.75   12.20
   0   2 -10  533.15   12.20
   0   2 -10  535.75   12.10
   0   2 -10  548.95   12.30
   0  -2  10  533.05   12.00
   0  -2  10  541.25   11.00
   0  -2  10  525.65   12.10
   0  -2  10  541.05   11.10
   0  -2  10  535.05   12.20
  -1   2 -10   60.39    4.00
  -1   2 -10   64.59    3.80
  -1   2 -10   61.99    4.00
  -1   2 -10   67.79    4.00
  -1   2 -10   64.19    3.80
  -1   2 -10   66.49    4.00
   1  -2  10   60.99    4.00
   1  -2  10   62.89    3.20
   1  -2  10   72.19    4.10
   1  -2  10   69.69    3.70
   1  -2  10   65.59    3.30
  -2   2 -10   13.80    2.60
  -2   2 -10   14.20    2.80
  -2   2 -10   18.20    3.00
  -2   2 -10   15.80    2.40
   2  -2  10   14.80    2.70
   2  -2  10   13.00    2.40
   2  -2  10   15.80    2.80
   2  -2  10   13.00    2.20
  -3   2 -10   13.60    3.00
  -3   2 -10   12.40    3.00
  -3   2 -10   10.50    2.40
  -3   2 -10    7.30    2.90
  -3   2 -10   12.10    2.70
  -3   2 -10   15.70    2.90
   3  -2  10   15.40    3.00
   3  -2  10   13.10    2.50
   3  -2  10   13.00    3.00
   3  -2  10   11.40    2.50
   3  -2  10   11.40    3.20
  -4   2 -10    7.70    2.80
  -4   2 -10    7.80    3.60
  -4   2 -10   -0.80    2.80
  -4   2 -10    4.90    2.60
  -4   2 -10    5.10    2.70
  -4   2 -10    7.60    3.40
   4  -2  10    0.80    2.60
   4  -2  10    1.90    2.40
   4  -2  10    5.20    3.20
   4  -2  10    0.00    2.80
  -5   2 -10   15.60    5.20
  -5   2 -10    7.00    3.90
  -5   2 -10   17.90    3.10
  -5   2 -10    8.90    3.20
  -5   2 -10   13.00    4.90
   5  -2  10    9.20    3.70
   5  -2  10   18.60    3.50
   5  -2  10   10.90    4.40
   5  -2  10   14.00    5.00
   5  -2  10   16.50    3.70
   6   1 -10   13.40    3.20
   6   1 -10   12.70    1.40
   6   1 -10   13.50    1.30
   6   1 -10   16.60    2.60
   5   1 -10   78.99    2.20
   5   1 -10   76.99    4.60
   5   1 -10   75.69    3.60
   5   1 -10   75.59    2.10
   4   1 -10  197.58    6.00
   4   1 -10  191.98    4.30
   4   1 -10  194.28    6.80
   4   1 -10  191.78    4.50
   3   1 -10    1.70    0.70
   3   1 -10    4.90    1.50
   3   1 -10    1.00    1.00
   3   1 -10    0.60    0.80
   3   1 -10    3.30    2.00
   3   1 -10    1.40    1.00
  -3  -1  10    2.00    0.50
  -3  -1  10    2.20    0.50
   2   1 -10    3.00    1.90
   2   1 -10    7.70    1.30
   2   1 -10    5.40    1.20
   2   1 -10    5.70    1.30
   2   1 -10    8.60    1.40
   2   1 -10    4.50    1.60
  -2  -1  10    5.10    1.30
  -2  -1  10    5.70    1.80
  -2  -1  10    5.30    1.10
   1   1 -10  803.82   16.70
   1   1 -10  826.22   16.60
   1   1 -10  832.92   16.60
   1   1 -10  792.82   16.30
   1   1 -10  801.12   17.80
   1   1 -10  820.22   17.00
  -1  -1  10  821.02   16.60
  -1  -1  10  816.42   16.40
  -1  -1  10  788.52   14.80
  -1  -1  10  779.42   14.90
  -1  -1  10  802.02   16.70
   0   1 -10   40.10    3.10
   0   1 -10   36.70    3.10
   0   1 -10   39.40    2.90
   0   1 -10   43.50    3.00
   0   1 -10   40.00    3.80
   0   1 -10   37.60    3.10
   0  -1  10   42.20    2.50
   0  -1  10   41.40    2.20
   0  -1  10   37.80    3.00
   0  -1  10   40.20    2.90
   0  -1  10   38.20    2.90
  -1   1 -10  148.99    5.60
  -1   1 -10  152.58    5.50
  -1   1 -10  146.19    5.20
  -1   1 -10  138.49    5.40
  -1   1 -10  152.18    5.90
  -1   1 -10  149.39    5.80
   1  -1  10  136.09    4.70
   1  -1  10  150.88    5.80
   1  -1  10  142.39    5.50
   1  -1  10  147.09    4.90
   1  -1  10  141.29    5.20
  -2   1 -10  717.63   18.30
  -2   1 -10  770.52   17.20
  -2   1 -10  765.72   17.40
  -2   1 -10  773.92   17.70
  -2   1 -10  764.32   16.80
   2  -1  10  785.72   16.30
   2  -1  10  720.63   16.70
   2  -1  10  775.62   17.80
   2  -1  10  786.22   16.70
   2  -1  10  758.82   17.20
  -3   1 -10   -0.10    2.40
  -3   1 -10    2.20    2.20
  -3   1 -10    4.10    3.00
  -3   1 -10   -2.80    2.40
  -3   1 -10    2.80    2.20
  -3   1 -10   -0.70    2.50
   3  -1  10    2.90    3.00
   3  -1  10    0.10    2.10
   3  -1  10    3.70    2.90
   3  -1  10    1.30    2.00
   3  -1  10   -0.80    2.40
  -4   1 -10    4.70    3.60
  -4   1 -10    1.00    3.10
  -4   1 -10    2.70    2.50
  -4   1 -10    0.20    3.30
  -4   1 -10    1.50    2.50
  -4   1 -10    3.90    2.80
   4  -1  10    0.20    3.00
   4  -1  10   -6.70    2.70
   4  -1  10   -0.60    3.80
   4  -1  10    0.20    3.30
   4  -1  10    2.60    2.40
  -5   1 -10   32.70    3.90
  -5   1 -10   29.30    4.90
  -5   1 -10   26.00    4.10
  -5   1 -10   26.40    4.40
  -5   1 -10   18.20    3.60
  -5   1 -10   18.10    5.30
   5  -1  10   27.50    4.30
   5  -1  10   15.00    5.50
   5  -1  10   15.40    4.40
   5  -1  10   20.30    3.90
   5  -1  10   24.60    5.70
   6   0 -10   76.29    4.30
   5   0 -10    1.30    2.10
   5   0 -10   -3.00    2.00
   5   0 -10    0.70    0.60
   5   0 -10    1.10    0.70
   4   0 -10   59.39    3.50
   4   0 -10   57.49    2.20
   4   0 -10   67.59    4.50
   4   0 -10   56.89    2.20
   3   0 -10  168.68    3.70
   3   0 -10  161.08    4.00
   3   0 -10  164.48    4.40
   3   0 -10  170.08    6.50
   3   0 -10  169.08    5.70
   3   0 -10  160.58    4.30
  -3   0  10  170.58    3.40
  -3   0  10  161.88    3.50
   2   0 -10    0.40    1.10
   2   0 -10   -1.90    1.80
   2   0 -10   -0.20    1.20
   2   0 -10   -1.80    1.40
   2   0 -10   -0.10    1.20
   2   0 -10    1.80    0.90
  -2   0  10    0.10    0.90
  -2   0  10   -0.30    1.60
  -2   0  10    0.80    1.30
   1   0 -10  377.76    8.90
   1   0 -10  381.86    9.50
   1   0 -10  390.16    8.80
   1   0 -10  377.76    8.80
   1   0 -10  369.96    9.10
  -1   0  10  376.56    8.70
  -1   0  10  380.16    7.40
  -1   0  10  380.26    7.50
  -1   0  10  374.76    9.10
  -1   0  10  386.86    9.40
   0   0 -10   10.80    1.80
   0   0 -10   10.60    2.40
   0   0 -10   10.40    2.00
   0   0  10   11.40    2.30
   0   0  10   16.40    1.70
   0   0  10   17.30    2.00
   0   0  10   10.20    1.90
   0   0  10   11.20    1.80
  -1   0 -10   15.50    2.30
  -1   0 -10   16.90    2.30
  -1   0 -10   14.80    2.60
  -1   0 -10   14.40    2.40
  -1   0 -10   13.50    2.30
   1   0  10   18.50    2.40
   1   0  10   15.50    2.70
   1   0  10   14.10    1.90
   1   0  10   18.10    2.20
   1   0  10   14.10    2.20
  -2   0 -10    2.90    2.20
  -2   0 -10    8.20    2.60
  -2   0 -10    5.60    2.80
  -2   0 -10    3.00    2.30
  -2   0 -10    5.30    2.40
   2   0  10    6.30    2.50
   2   0  10    5.50    2.00
   2   0  10    5.10    2.80
  -3   0 -10   50.29    4.20
  -3   0 -10   44.60    4.70
  -3   0 -10   52.99    5.30
  -3   0 -10   50.09    4.80
   3   0  10   45.70    3.90
   3   0  10   47.30    4.00
   3   0  10   47.70    4.90
   3   0  10   54.99    5.00
   3   0  10   44.00    4.70
  -4   0 -10   59.09    6.30
  -4   0 -10   50.99    5.10
  -4   0 -10   42.40    5.50
  -4   0 -10   53.29    5.50
  -4   0 -10   53.79    5.60
   4   0  10   49.50    4.80
   4   0  10   60.99    5.40
   4   0  10   66.69    7.40
   4   0  10   55.99    4.80
   4   0  10   46.20    8.10
  -5   0 -10    0.80    4.30
  -5   0 -10   -0.90    3.70
  -5   0 -10  -10.90    4.90
  -5   0 -10    5.00    5.00
  -5   0 -10   -2.30    3.90
  -5   0 -10   -1.80    3.50
   5   0  10    1.30    4.50
   5   0  10    1.70    3.00
   5   0  10   -4.40    5.30
   5   0  10   -4.40    3.60
   5   0  10    4.00    3.80
   6  -1 -10  149.59    5.90
   5  -1 -10  327.27    9.00
   5  -1 -10  311.97    6.30
   5  -1 -10  315.67    6.20
   4  -1 -10   20.90    3.10
   4  -1 -10   22.60    1.80
   4  -1 -10   23.50    1.60
   3  -1 -10  124.09    3.80
   3  -1 -10  126.99    3.70
   3  -1 -10  123.89    5.20
   3  -1 -10  125.79    3.80
   3  -1 -10  122.59    5.80
   3  -1 -10  127.59    3.20
  -3   1  10  126.49    3.30
  -3   1  10  127.09    3.40
   2  -1 -10   41.50    2.90
   2  -1 -10   39.80    3.30
   2  -1 -10   39.70    2.70
   2  -1 -10   36.80    2.70
   2  -1 -10   39.40    2.20
  -2   1  10   39.10    2.30
  -2   1  10   41.50    2.80
   1  -1 -10  120.29    4.60
   1  -1 -10  114.79    4.20
   1  -1 -10  121.79    4.90
   1  -1 -10  114.49    4.50
  -1   1  10  117.29    4.30
  -1   1  10  117.79    3.30
  -1   1  10  118.39    4.90
  -1   1  10  115.99    4.60
  -1   1  10  120.39    3.00
   0  -1 -10    0.20    1.50
   0  -1 -10    4.70    1.70
   0  -1 -10    2.40    2.00
   0  -1 -10    2.60    1.70
   0  -1 -10    2.80    1.90
   0   1  10    0.30    1.00
   0   1  10    1.20    2.10
   0   1  10    2.90    1.80
   0   1  10    2.30    1.60
  -1  -1 -10   59.59    3.90
  -1  -1 -10   55.29    3.80
  -1  -1 -10   56.09    4.20
   1   1  10   51.49    4.60
   1   1  10   61.59    4.30
   1   1  10   57.19    4.50
   1   1  10   58.99    2.90
   1   1  10   53.99    3.80
  -2  -1 -10   16.70    2.80
  -2  -1 -10    9.90    3.30
  -2  -1 -10   12.80    2.50
  -2  -1 -10   15.60    3.10
  -2  -1 -10   16.20    2.70
   2   1  10    9.00    2.70
   2   1  10   12.90    2.10
   2   1  10   15.90    2.50
   2   1  10   14.10    3.30
   2   1  10   12.60    3.20
  -3  -1 -10  220.68    8.00
  -3  -1 -10  219.58    7.40
  -3  -1 -10  210.58    7.80
  -3  -1 -10  199.38    9.20
  -3  -1 -10  205.48    8.70
   3   1  10  205.58    8.20
   3   1  10  215.78    9.20
   3   1  10  200.88    8.10
   3   1  10  213.48    7.20
   3   1  10  203.48    7.10
  -4  -1 -10   72.19    7.20
  -4  -1 -10   74.49    8.00
  -4  -1 -10   64.99    5.40
  -4  -1 -10   82.89    8.70
  -4  -1 -10   81.99    6.20
   4   1  10   74.19    5.20
   4   1  10   72.99    6.60
   4   1  10   70.59    8.00
   4   1  10   76.29    5.10
   4   1  10   61.59    6.60
   6  -2 -10   61.79    2.00
   6  -2 -10   71.39    6.40
   6  -2 -10   62.59    2.20
   6  -2 -10   70.29    6.10
   5  -2 -10    6.40    1.10
   5  -2 -10    7.10    2.90
   5  -2 -10    7.80    0.90
   5  -2 -10   10.00    3.20
   4  -2 -10   60.69    1.70
   4  -2 -10   59.09    2.50
   4  -2 -10   54.99    2.40
   4  -2 -10   56.79    4.20
   4  -2 -10   60.79    5.80
   3  -2 -10    4.30    2.00
   3  -2 -10    6.30    1.30
   3  -2 -10    6.30    1.10
   3  -2 -10    4.70    1.50
   3  -2 -10    4.90    1.50
  -3   2  10    4.00    1.50
  -3   2  10    4.40    1.40
   2  -2 -10  295.37    7.40
   2  -2 -10  309.07    7.50
   2  -2 -10  295.47    6.90
   2  -2 -10  293.67    7.90
   2  -2 -10  293.87    8.40
  -2   2  10  303.47    7.80
  -2   2  10  298.07    7.40
   1  -2 -10    4.80    1.60
   1  -2 -10    3.20    2.10
   1  -2 -10    5.70    1.50
   1  -2 -10    5.60    1.90
   1  -2 -10    4.40    2.00
  -1   2  10    5.90    1.00
  -1   2  10    5.20    1.30
  -1   2  10    6.80    1.90
   0  -2 -10   33.30    3.50
   0  -2 -10   32.40    3.00
   0  -2 -10   35.90    3.30
   0  -2 -10   37.30    3.20
   0  -2 -10   38.10    3.70
   0   2  10   36.50    3.70
   0   2  10   35.90    2.00
   0   2  10   32.80    2.90
  -1  -2 -10    8.00    2.10
  -1  -2 -10    8.40    2.50
  -1  -2 -10    8.50    2.40
  -1  -2 -10    8.70    2.80
  -1  -2 -10    6.20    2.00
   1   2  10    7.30    2.30
   1   2  10    4.70    2.70
   1   2  10    6.50    2.30
   1   2  10    5.80    1.40
   1   2  10    8.30    2.30
  -2  -2 -10   -5.30    3.10
  -2  -2 -10    1.60    2.30
  -2  -2 -10    3.30    2.20
  -2  -2 -10    2.30    3.40
   2   2  10    0.80    3.10
   2   2  10    1.90    2.60
   2   2  10    5.50    2.70
   2   2  10   -0.70    2.00
   2   2  10    3.20    2.70
  -3  -2 -10    7.70    3.90
  -3  -2 -10    9.00    4.30
  -3  -2 -10   10.20    3.40
  -3  -2 -10    7.50    2.80
  -3  -2 -10   10.40    3.20
   3   2  10   12.80    2.90
   3   2  10   16.80    3.70
   3   2  10    9.10    3.50
   3   2  10   12.70    2.80
   3   2  10   24.10    4.50
  -4  -2 -10    5.20    3.60
  -4  -2 -10    4.80    3.60
  -4  -2 -10   -0.60    4.20
  -4  -2 -10   -2.30    5.30
  -4  -2 -10    7.80    3.00
   4   2  10    4.40    3.70
   4   2  10   -4.40    5.20
   4   2  10    5.50    4.50
   4   2  10    4.10    2.60
   4   2  10    2.20    4.10
   6  -3 -10  154.38    4.30
   6  -3 -10  163.58    8.30
   6  -3 -10  167.68    8.40
   6  -3 -10  154.88    4.00
   5  -3 -10    6.40    1.20
   5  -3 -10    5.20    2.90
   5  -3 -10    5.20    1.30
   5  -3 -10    8.00    3.70
   4  -3 -10   75.39    3.30
   4  -3 -10   78.09    3.10
   4  -3 -10   75.99    3.00
   4  -3 -10   79.89    5.80
   4  -3 -10   76.09    2.70
  -4   3  10   77.89    2.00
   3  -3 -10   -0.80    1.20
   3  -3 -10    0.30    1.30
   3  -3 -10   -2.60    1.70
   3  -3 -10    0.70    2.30
   3  -3 -10   -0.30    1.30
  -3   3  10   -0.70    1.30
  -3   3  10    1.20    1.60
   2  -3 -10   69.99    4.40
   2  -3 -10   67.09    3.00
   2  -3 -10   62.29    3.40
   2  -3 -10   63.39    3.20
   2  -3 -10   65.29    4.30
  -2   3  10   65.49    3.80
  -2   3  10   63.79    4.10
   1  -3 -10  249.97    6.90
   1  -3 -10  246.58    7.50
   1  -3 -10  250.47    8.20
   1  -3 -10  247.18    7.90
   1  -3 -10  253.97    6.70
  -1   3  10  257.47    5.80
  -1   3  10  246.48    7.50
  -1   3  10  249.58    6.50
  -1   3  10  246.18    7.30
   0  -3 -10   58.69    4.50
   0  -3 -10   64.19    3.70
   0  -3 -10   63.09    3.80
   0  -3 -10   64.49    5.00
   0  -3 -10   60.69    4.60
   0   3  10   58.09    3.00
   0   3  10   60.39    3.80
   0   3  10   66.69    4.80
   0   3  10   56.49    4.20
  -1  -3 -10   39.50    3.80
  -1  -3 -10   48.80    4.60
  -1  -3 -10   40.00    3.80
  -1  -3 -10   41.90    4.60
  -1  -3 -10   37.00    3.80
   1   3  10   38.90    4.20
   1   3  10   46.30    4.60
   1   3  10   41.10    4.00
   1   3  10   37.90    2.80
   1   3  10   42.60    4.40
  -2  -3 -10    4.40    2.60
  -2  -3 -10    6.80    3.50
  -2  -3 -10    4.30    3.20
  -2  -3 -10    0.10    3.90
  -2  -3 -10   -2.50    2.30
   2   3  10   -0.10    3.20
   2   3  10    0.80    1.70
   2   3  10    0.70    3.80
   2   3  10    2.00    3.60
   2   3  10   -0.60    3.00
  -3  -3 -10   15.60    3.20
  -3  -3 -10   15.90    4.40
  -3  -3 -10   15.50    5.40
  -3  -3 -10   25.70    4.90
   3   3  10   16.50    4.10
   3   3  10   16.10    2.70
   3   3  10   21.90    5.30
   3   3  10   16.90    4.10
   3   3  10   19.70    4.30
   6  -4 -10   26.70    2.40
   6  -4 -10   23.50    2.40
   6  -4 -10   22.60    4.90
   6  -4 -10   20.70    5.10
   5  -4 -10   -2.20    3.10
   5  -4 -10    0.30    1.50
   5  -4 -10    0.60    1.30
   5  -4 -10    0.60    1.40
   4  -4 -10  112.29    3.80
   4  -4 -10  106.39    6.30
   4  -4 -10  116.69    4.90
   4  -4 -10  116.29    4.20
   4  -4 -10  119.19    4.30
  -4   4  10  114.69    4.10
  -4   4  10  121.29    3.80
   3  -4 -10   19.20    3.70
   3  -4 -10   13.60    1.80
   3  -4 -10   17.10    2.10
   3  -4 -10   12.00    2.60
   3  -4 -10   14.30    2.10
  -3   4  10   13.90    2.20
  -3   4  10   14.40    2.50
   2  -4 -10  108.99    5.90
   2  -4 -10  125.19    6.00
   2  -4 -10  115.79    5.90
   2  -4 -10  120.49    4.00
  -2   4  10  122.19    5.20
  -2   4  10  121.49    5.60
   1  -4 -10  156.58    6.00
   1  -4 -10  153.48    6.70
   1  -4 -10  156.18    5.40
   1  -4 -10  163.78    5.90
   1  -4 -10  146.49    6.60
  -1   4  10  152.98    5.20
  -1   4  10  164.78    6.60
  -1   4  10  142.89    6.00
  -1   4  10  153.08    4.40
   0  -4 -10   36.50    3.70
   0  -4 -10   39.50    4.30
   0  -4 -10   38.30    3.50
   0  -4 -10   35.30    3.40
   0  -4 -10   35.10    4.00
   0   4  10   36.90    4.00
   0   4  10   38.70    3.10
   0   4  10   43.40    4.50
   0   4  10   33.50    3.70
  -1  -4 -10   35.70    4.20
  -1  -4 -10   31.20    4.30
  -1  -4 -10   36.10    4.10
  -1  -4 -10   41.50    5.00
  -1  -4 -10   37.00    3.40
   1   4  10   32.00    4.60
   1   4  10   41.30    4.20
   1   4  10   38.30    3.10
   1   4  10   39.00    4.00
  -2  -4 -10   13.00    4.90
  -2  -4 -10   -2.00    2.50
  -2  -4 -10   -0.10    2.80
  -2  -4 -10    4.20    3.60
  -2  -4 -10   -2.20    3.60
   2   4  10    1.50    2.40
   2   4  10    1.80    4.40
   2   4  10    2.80    3.70
   2   4  10   -5.40    4.30
  -3  -4 -10   11.40    6.20
  -3  -4 -10   14.70    4.30
  -3  -4 -10    5.20    3.20
  -3  -4 -10   15.00    4.00
   3   4  10   15.20    4.50
   3   4  10   14.00    4.80
   3   4  10   12.90    2.70
   3   4  10    7.00    5.80
   5  -5 -10   10.20    2.20
   5  -5 -10    9.80    2.20
   5  -5 -10   10.70    2.10
   5  -5 -10    4.00    3.80
   5  -5 -10   11.00    2.30
   4  -5 -10  113.79    5.60
   4  -5 -10  143.09    7.50
   4  -5 -10  139.09    6.10
   4  -5 -10  141.39    4.70
  -4   5  10  149.09    5.50
  -4   5  10  133.69    5.00
   3  -5 -10   18.80    2.10
   3  -5 -10   12.60    2.90
   3  -5 -10   16.70    3.60
   3  -5 -10   19.60    2.40
   3  -5 -10   16.90    3.30
  -3   5  10   20.70    3.30
  -3   5  10   20.30    2.80
   2  -5 -10   28.20    2.70
   2  -5 -10   23.00    2.90
   2  -5 -10   29.40    3.80
   2  -5 -10   30.80    3.60
   2  -5 -10   25.30    2.50
  -2   5  10   28.30    3.70
  -2   5  10   27.10    2.00
  -2   5  10   31.80    2.10
  -2   5  10   23.10    3.10
   1  -5 -10   25.10    2.80
   1  -5 -10   27.30    3.90
   1  -5 -10   23.90    2.90
   1  -5 -10   29.50    4.00
   1  -5 -10   30.00    4.00
  -1   5  10   25.10    2.10
  -1   5  10   24.30    4.10
  -1   5  10   26.10    4.10
  -1   5  10   26.30    2.90
   0  -5 -10   58.69    4.70
   0  -5 -10   75.69    6.20
   0  -5 -10   63.49    4.50
   0  -5 -10   61.19    6.00
   0  -5 -10   60.49    6.60
   0   5  10   72.69    5.90
   0   5  10   68.09    4.30
   0   5  10   61.79    5.90
   0   5  10   65.59    6.10
  -1  -5 -10    3.40    3.80
  -1  -5 -10    4.80    5.30
  -1  -5 -10    4.90    2.80
  -1  -5 -10    8.20    3.60
  -1  -5 -10    2.00    2.90
   1   5  10    6.30    4.30
   1   5  10    1.50    2.10
   1   5  10    6.80    3.80
   1   5  10   -5.70    4.10
  -2  -5 -10   13.60    5.80
  -2  -5 -10    7.10    2.90
  -2  -5 -10    3.20    4.10
  -2  -5 -10    8.80    3.80
  -2  -5 -10    8.20    3.70
   2   5  10    2.40    4.10
   2   5  10    3.50    4.60
   2   5  10   -0.10    5.30
   2   5  10   -0.40    3.00
   4  -6 -10   23.70    3.80
   4  -6 -10   23.10    2.80
   4  -6 -10   23.90    3.10
   4  -6 -10   10.40    4.60
   4  -6 -10   21.50    3.10
  -4   6  10   17.40    2.70
   3  -6 -10   65.19    4.80
   3  -6 -10   56.79    5.10
   3  -6 -10   66.59    4.40
   3  -6 -10   67.09    6.30
  -3   6  10   60.99    4.70
   2  -6 -10    0.10    2.60
   2  -6 -10   -3.40    3.30
   2  -6 -10   -2.10    2.20
   2  -6 -10   -1.70    2.20
   2  -6 -10    5.00    3.20
  -2   6  10   -3.00    2.80
  -2   6  10    0.90    1.80
  -2   6  10    1.20    1.70
   1  -6 -10   35.70    3.30
   1  -6 -10   40.80    5.30
   1  -6 -10   30.30    4.40
   1  -6 -10   30.70    3.40
   1  -6 -10   38.10    4.30
  -1   6  10   33.80    3.30
  -1   6  10   31.80    3.50
  -1   6  10   38.50    4.40
  -1   6  10   33.00    5.10
   0  -6 -10    6.90    4.60
   0  -6 -10    6.30    4.10
   0  -6 -10    6.10    2.90
   0  -6 -10   14.60    4.20
   0  -6 -10    3.50    2.80
   0   6  10    4.70    2.20
   0   6  10    5.70    4.00
   0   6  10    7.00    4.40
   0   6  10    8.60    4.20
  -1  -6 -10   44.00    6.00
  -1  -6 -10   36.00    5.80
  -1  -6 -10   36.10    4.30
  -1  -6 -10   42.00    6.10
   1   6  10   36.50    4.80
   1   6  10   33.60    3.80
   1   6  10   32.30    5.40
   1   6  10   55.29    6.20
  -1  11 -11    8.30    3.20
  -1  11 -11    9.20    3.00
   1 -11  11    4.90    4.50
   1 -11  11   -0.20    4.40
   2  10 -11   21.40    5.60
   2  10 -11   13.90    3.70
   2  10 -11   16.00    3.60
   2  10 -11   21.70    3.50
  -2 -10  11   18.50    2.90
  -2 -10  11   30.00    5.30
   1  10 -11   22.40    3.80
   1  10 -11   17.30    3.40
   1  10 -11   25.30    3.20
   1  10 -11   24.20    4.90
   1  10 -11   26.00    3.50
  -1 -10  11   22.10    3.80
  -1 -10  11   27.90    5.10
  -1 -10  11   27.20    3.90
  -1 -10  11   25.30    4.70
  -1 -10  11   23.70    3.00
  -1 -10  11   29.00    4.80
   0  10 -11  103.69    5.90
   0  10 -11  102.59    6.10
   0  10 -11  100.29    7.70
   0  10 -11   95.19    8.30
   0  10 -11  103.69    5.60
   0 -10  11  112.39    8.00
   0 -10  11  119.49    7.10
   0 -10  11  112.49    7.10
   0 -10  11   99.79    5.60
   0 -10  11  101.49    8.00
   0 -10  11  102.69    8.50
  -1  10 -11   -0.20    3.60
  -1  10 -11    5.00    2.90
  -1  10 -11   -4.50    2.70
  -1  10 -11    1.50    4.70
  -1  10 -11    2.50    2.90
   1 -10  11   10.50    4.30
   1 -10  11   -0.50    4.40
   1 -10  11    1.20    3.90
   1 -10  11    6.30    3.10
   1 -10  11   -4.20    4.20
   1 -10  11   10.30    3.90
  -2  10 -11   43.40    4.00
  -2  10 -11   43.60    4.90
  -2  10 -11   40.20    4.20
  -2  10 -11   53.49    5.00
   2 -10  11   46.90    5.40
   2 -10  11   49.00    5.70
   2 -10  11   39.90    4.60
   2 -10  11   48.60    5.00
   2 -10  11   43.10    6.10
   2 -10  11   45.80    5.50
  -3  10 -11   52.59    6.00
  -3  10 -11   50.69    5.30
  -3  10 -11   62.29    6.00
  -3  10 -11   56.09    8.20
  -3  10 -11   56.59    6.10
   3 -10  11   46.00    6.00
   3 -10  11   51.29    5.70
   3 -10  11   60.49    6.60
   3 -10  11   52.89    4.80
   3 -10  11   58.59    7.30
   3 -10  11   63.39    6.90
   3   9 -11    7.50    2.50
   3   9 -11    2.70    2.60
   3   9 -11   10.70    3.70
   3   9 -11    8.00    3.00
   3   9 -11   -0.70    2.90
  -3  -9  11    6.90    1.70
  -3  -9  11    0.60    2.10
  -3  -9  11   12.20    4.60
  -3  -9  11    0.90    3.20
   2   9 -11  134.19    7.80
   2   9 -11  122.39    7.20
   2   9 -11  136.29    5.90
   2   9 -11  125.69    5.30
   2   9 -11  132.99    6.40
  -2  -9  11  119.79    7.10
  -2  -9  11  126.59    6.30
  -2  -9  11  123.29    8.90
  -2  -9  11  135.49    5.50
  -2  -9  11  138.19    4.80
  -2  -9  11  140.09    6.70
   1   9 -11   16.60    4.70
   1   9 -11    6.20    3.10
   1   9 -11   10.80    3.00
   1   9 -11   15.60    3.00
   1   9 -11   11.00    2.30
  -1  -9  11   12.70    3.60
  -1  -9  11   11.50    2.20
  -1  -9  11    9.60    3.50
  -1  -9  11    9.60    4.20
  -1  -9  11   11.50    3.50
  -1  -9  11    9.90    3.00
   0   9 -11    7.10    2.90
   0   9 -11    0.00    3.80
   0   9 -11   10.00    3.10
   0   9 -11    2.80    2.20
   0   9 -11    6.50    2.80
   0  -9  11    8.00    3.20
   0  -9  11    5.30    3.60
   0  -9  11    8.20    4.10
   0  -9  11   10.10    3.40
   0  -9  11   12.20    3.80
   0  -9  11    4.50    2.00
  -1   9 -11  348.57   11.30
  -1   9 -11  354.66   10.10
  -1   9 -11  345.87    9.90
  -1   9 -11  344.37   12.10
  -1   9 -11  356.26    9.80
   1  -9  11  354.16   11.80
   1  -9  11  354.76   11.80
   1  -9  11  348.77    9.10
   1  -9  11  347.87   11.80
   1  -9  11  336.07   10.90
   1  -9  11  334.47   10.50
  -2   9 -11   49.30    5.60
  -2   9 -11   48.30    4.30
  -2   9 -11   56.09    5.00
  -2   9 -11   48.00    5.00
  -2   9 -11   46.30    4.70
   2  -9  11   48.10    4.70
   2  -9  11   56.39    5.20
   2  -9  11   46.90    5.60
   2  -9  11   49.50    5.00
   2  -9  11   49.70    4.30
   2  -9  11   48.10    5.00
  -3   9 -11  271.77    8.40
  -3   9 -11  266.77   10.20
  -3   9 -11  283.97    9.40
  -3   9 -11  253.97   11.70
  -3   9 -11  268.47    9.00
   3  -9  11  277.77   11.20
   3  -9  11  269.87   10.60
   3  -9  11  267.67    8.40
   3  -9  11  284.87   11.80
   3  -9  11  257.37   10.10
   3  -9  11  260.97   11.80
  -4   9 -11    4.40    3.80
  -4   9 -11    0.80    2.40
  -4   9 -11    4.40    6.60
  -4   9 -11    4.40    4.00
  -4   9 -11    0.20    3.10
   4  -9  11    5.90    5.70
   4  -9  11   -4.10    4.80
   4  -9  11    3.40    2.70
   4  -9  11    6.20    3.90
   4  -9  11   -1.10    4.40
   4   8 -11    0.10    3.30
   4   8 -11    3.10    3.00
   4   8 -11   -2.00    3.00
   4   8 -11    3.90    2.60
   4   8 -11    0.60    3.00
  -4  -8  11   -0.30    3.40
  -4  -8  11    7.30    4.60
   3   8 -11    1.20    2.40
   3   8 -11    4.10    2.20
   3   8 -11   -1.60    1.70
   3   8 -11    2.30    2.90
   3   8 -11    1.20    2.70
  -3  -8  11    0.80    1.80
  -3  -8  11   -2.60    3.20
  -3  -8  11    3.90    4.30
  -3  -8  11    3.60    3.40
  -3  -8  11    0.80    0.80
   2   8 -11   -0.50    2.10
   2   8 -11    3.00    3.00
   2   8 -11   -1.70    1.90
   2   8 -11    1.20    2.20
   2   8 -11    3.10    2.60
  -2  -8  11    3.80    2.50
  -2  -8  11   -2.80    3.00
  -2  -8  11   -0.30    2.30
  -2  -8  11   -1.10    1.60
  -2  -8  11   -1.10    3.60
  -2  -8  11    0.10    2.10
   1   8 -11    0.80    2.40
   1   8 -11    3.50    3.00
   1   8 -11   -2.80    2.60
   1   8 -11   -1.10    2.20
  -1  -8  11    3.60    1.50
  -1  -8  11    1.90    2.50
  -1  -8  11   -0.30    2.60
  -1  -8  11    1.90    2.40
  -1  -8  11   -5.40    3.10
  -1  -8  11   -0.60    2.60
   0   8 -11  177.18    7.00
   0   8 -11  177.78    6.30
   0   8 -11  190.18    6.70
   0   8 -11  184.68    7.50
   0   8 -11  183.98    8.10
   0  -8  11  181.78    8.40
   0  -8  11  179.38    7.40
   0  -8  11  216.38    8.20
   0  -8  11  199.88    7.70
   0  -8  11  191.68    7.90
   0  -8  11  182.28    5.60
  -1   8 -11  135.39    7.60
  -1   8 -11  129.09    6.40
  -1   8 -11  136.19    6.20
  -1   8 -11  126.89    5.90
  -1   8 -11  141.19    6.00
   1  -8  11  147.69    6.80
   1  -8  11  136.39    5.30
   1  -8  11  125.99    6.60
   1  -8  11  131.99    7.30
   1  -8  11  121.79    7.20
   1  -8  11  144.99    6.40
  -2   8 -11  101.19    5.60
  -2   8 -11   99.19    7.40
  -2   8 -11  101.29    5.40
  -2   8 -11  100.59    5.30
  -2   8 -11   97.59    6.00
   2  -8  11  102.59    4.70
   2  -8  11  104.09    6.70
   2  -8  11   98.69    6.90
   2  -8  11   93.99    6.30
   2  -8  11  102.49    7.20
   2  -8  11  103.69    6.40
  -3   8 -11   -5.40    3.30
  -3   8 -11   -0.40    2.90
  -3   8 -11    4.50    3.90
  -3   8 -11    6.90    2.90
  -3   8 -11   -7.00    3.70
   3  -8  11   -2.20    2.20
   3  -8  11    0.40    3.10
   3  -8  11    3.30    3.40
   3  -8  11   -2.20    3.90
  -4   8 -11    4.60    3.60
  -4   8 -11    5.50    3.30
  -4   8 -11    2.40    3.60
  -4   8 -11    3.60    2.10
  -4   8 -11    7.60    4.90
   4  -8  11    2.60    3.60
   4  -8  11    1.10    2.90
   4  -8  11   12.10    5.10
   4  -8  11    7.60    5.10
   4  -8  11   -1.70    4.20
   4   7 -11  196.58    6.30
   4   7 -11  204.58    6.50
   4   7 -11  190.38    7.70
   4   7 -11  208.18    6.40
   4   7 -11  196.78    7.30
  -4  -7  11  176.68    9.70
  -4  -7  11  190.38    7.10
   3   7 -11    3.80    2.10
   3   7 -11    5.50    1.60
   3   7 -11    0.10    2.60
   3   7 -11    0.30    2.10
   3   7 -11    6.50    2.70
  -3  -7  11    6.40    3.00
  -3  -7  11    3.10    1.80
  -3  -7  11    3.10    3.80
  -3  -7  11    6.60    2.80
   2   7 -11  177.98    6.50
   2   7 -11  168.88    5.50
   2   7 -11  175.88    6.70
   2   7 -11  169.18    6.80
   2   7 -11  180.28    5.90
  -2  -7  11  165.48    4.40
  -2  -7  11  173.78    6.60
  -2  -7  11  185.88    5.40
  -2  -7  11  174.48    5.70
  -2  -7  11  170.48    8.20
   1   7 -11   23.20    3.30
   1   7 -11   31.70    3.40
   1   7 -11   21.80    2.90
   1   7 -11   25.90    2.50
   1   7 -11   33.20    3.40
  -1  -7  11   25.30    3.20
  -1  -7  11   26.60    3.70
  -1  -7  11   27.80    2.90
  -1  -7  11   27.70    2.40
  -1  -7  11   27.50    3.10
  -1  -7  11   28.60    2.70
   0   7 -11   35.10    3.20
   0   7 -11   36.90    4.20
   0   7 -11   31.20    3.40
   0   7 -11   30.30    3.80
   0   7 -11   33.60    3.30
   0  -7  11   33.50    3.10
   0  -7  11   38.20    3.80
   0  -7  11   35.80    2.60
   0  -7  11   33.30    4.00
   0  -7  11   30.20    3.60
  -1   7 -11  337.87    9.30
  -1   7 -11  336.97   10.00
  -1   7 -11  325.67   10.60
  -1   7 -11  321.17    9.00
  -1   7 -11  340.37    9.30
   1  -7  11  332.47    9.60
   1  -7  11  321.97   10.30
   1  -7  11  325.77    8.20
   1  -7  11  328.27    9.60
   1  -7  11  319.57   10.30
   1  -7  11  342.57    9.80
  -2   7 -11  177.18    6.40
  -2   7 -11  174.58    7.60
  -2   7 -11  170.68    8.20
  -2   7 -11  172.98    6.80
  -2   7 -11  170.48    6.80
   2  -7  11  173.58    7.90
   2  -7  11  176.98    7.20
   2  -7  11  168.08    5.80
   2  -7  11  176.58    7.40
   2  -7  11  172.98    8.00
   2  -7  11  165.68    7.00
  -3   7 -11   20.60    2.80
  -3   7 -11   26.50    3.70
  -3   7 -11   14.50    4.30
  -3   7 -11   13.10    3.60
  -3   7 -11   15.00    3.80
   3  -7  11   22.50    4.40
   3  -7  11   18.90    3.60
   3  -7  11   18.40    2.90
   3  -7  11   16.90    3.40
   3  -7  11   16.00    3.50
  -4   7 -11   54.29    4.70
  -4   7 -11   60.19    5.80
  -4   7 -11   57.89    6.10
  -4   7 -11   60.49    6.10
  -4   7 -11   53.09    4.90
   4  -7  11   59.39    6.30
   4  -7  11   56.19    6.20
   4  -7  11   63.89    5.70
   4  -7  11   66.89    6.80
   4  -7  11   54.19    6.00
  -5   7 -11  229.88    9.00
  -5   7 -11  202.28    9.70
  -5   7 -11  211.18    9.30
  -5   7 -11  205.98    7.50
  -5   7 -11  187.88   11.50
   5  -7  11  187.68    9.10
   5  -7  11  205.48    8.20
   5  -7  11  207.68   12.10
   5  -7  11  200.48    9.70
   5  -7  11  211.18   10.70
   5   6 -11   59.09    4.70
   5   6 -11   48.70    4.20
   5   6 -11   51.89    4.00
   5   6 -11   49.60    5.40
   5   6 -11   55.49    4.50
  -5  -6  11   58.59    6.00
  -5  -6  11   56.09    4.20
  -5  -6  11   50.19    4.10
   4   6 -11    6.10    1.80
   4   6 -11    4.60    2.50
   4   6 -11    1.80    2.90
   4   6 -11    5.00    2.80
  -4  -6  11    4.20    3.70
  -4  -6  11    7.10    2.20
  -4  -6  11    5.30    2.20
   3   6 -11   -0.10    1.90
   3   6 -11    1.60    1.50
   3   6 -11    1.80    1.20
   3   6 -11    1.60    2.80
   3   6 -11    2.40    2.30
  -3  -6  11   -0.80    2.20
  -3  -6  11    3.70    2.20
  -3  -6  11    3.80    3.10
  -3  -6  11    1.40    1.70
   2   6 -11    2.30    1.60
   2   6 -11    4.60    1.90
   2   6 -11    0.10    2.10
  -2  -6  11    0.60    0.80
  -2  -6  11   -4.10    1.60
  -2  -6  11    4.30    2.80
  -2  -6  11    0.30    1.70
  -2  -6  11    0.20    2.20
  -2  -6  11    2.70    1.20
   1   6 -11   31.70    3.10
   1   6 -11   35.40    3.20
   1   6 -11   33.50    3.80
   1   6 -11   39.50    3.70
   1   6 -11   32.60    3.00
  -1  -6  11   31.80    3.10
  -1  -6  11   35.80    3.80
  -1  -6  11   35.40    3.20
  -1  -6  11   39.40    3.10
  -1  -6  11   33.00    3.10
  -1  -6  11   36.90    2.20
   0   6 -11   28.10    3.00
   0   6 -11   23.90    2.80
   0   6 -11   25.50    3.20
   0   6 -11   21.60    3.30
   0   6 -11   24.20    2.70
   0  -6  11   26.00    2.10
   0  -6  11   22.00    3.60
   0  -6  11   25.40    2.60
   0  -6  11   24.80    3.60
   0  -6  11   22.60    2.70
   0  -6  11   24.30    2.70
  -1   6 -11  179.38    6.40
  -1   6 -11  188.98    6.40
  -1   6 -11  191.88    7.60
  -1   6 -11  175.78    6.70
  -1   6 -11  176.48    6.50
   1  -6  11  190.08    6.80
   1  -6  11  186.28    6.70
   1  -6  11  172.98    6.70
   1  -6  11  188.28    7.50
   1  -6  11  182.98    5.30
  -2   6 -11   45.30    4.30
  -2   6 -11   39.90    4.40
  -2   6 -11   45.90    4.50
  -2   6 -11   32.30    3.50
  -2   6 -11   44.70    4.20
   2  -6  11   47.70    4.50
   2  -6  11   44.60    3.50
   2  -6  11   48.00    5.10
   2  -6  11   42.00    4.60
   2  -6  11   42.40    4.00
  -3   6 -11  195.88    7.80
  -3   6 -11  181.28    7.30
  -3   6 -11  172.68    7.60
  -3   6 -11  186.48    7.60
  -3   6 -11  202.28    8.90
   3  -6  11  195.78    6.90
   3  -6  11  180.98    7.50
   3  -6  11  193.78    8.10
   3  -6  11  225.18   10.50
   3  -6  11  211.08    8.00
  -4   6 -11   51.79    5.00
  -4   6 -11   51.89    5.10
  -4   6 -11   60.79    5.80
  -4   6 -11   62.19    4.50
  -4   6 -11   57.69    5.70
   4  -6  11   62.79    6.70
   4  -6  11   51.89    6.80
   4  -6  11   55.69    5.80
   4  -6  11   53.89    5.20
   4  -6  11   53.49    5.10
  -5   6 -11   19.40    4.20
  -5   6 -11   23.70    5.60
  -5   6 -11   30.30    5.20
  -5   6 -11   26.70    4.40
  -5   6 -11   27.40    2.90
   5  -6  11   30.40    4.50
   5  -6  11   26.40    5.40
   5  -6  11   25.20    5.90
   5  -6  11   19.00    4.00
   5   5 -11    5.80    1.70
   5   5 -11    6.80    2.10
   5   5 -11    5.20    2.00
   5   5 -11    7.20    1.70
   5   5 -11    5.00    2.90
  -5  -5  11    6.30    1.30
   4   5 -11  190.08    5.50
   4   5 -11  195.48    6.20
   4   5 -11  177.48    5.00
   4   5 -11  196.58    7.30
   4   5 -11  187.58    5.50
  -4  -5  11  194.88    5.40
  -4  -5  11  194.58    8.50
  -4  -5  11  188.18    5.70
   3   5 -11  186.88    6.90
   3   5 -11  177.18    6.00
   3   5 -11  184.08    4.90
   3   5 -11  179.28    5.50
   3   5 -11  186.48    5.50
   3   5 -11  186.38    5.50
  -3  -5  11  192.88    5.50
  -3  -5  11  190.58    5.90
  -3  -5  11  180.48    5.80
  -3  -5  11  174.58    7.70
   2   5 -11   18.50    2.70
   2   5 -11   14.90    1.80
   2   5 -11   14.10    1.90
   2   5 -11   11.30    1.60
   2   5 -11   12.70    2.10
   2   5 -11   12.50    2.00
  -2  -5  11   11.50    3.00
  -2  -5  11   15.60    1.90
  -2  -5  11   14.10    2.00
  -2  -5  11   12.60    2.30
   1   5 -11  148.69    6.00
   1   5 -11  155.58    5.00
   1   5 -11  154.38    6.00
   1   5 -11  166.28    5.40
   1   5 -11  152.88    5.20
   1   5 -11  162.18    5.40
  -1  -5  11  154.48    6.90
  -1  -5  11  157.18    5.30
  -1  -5  11  152.78    4.70
  -1  -5  11  159.78    5.90
  -1  -5  11  155.18    4.10
  -1  -5  11  146.79    5.20
   0   5 -11  421.86   10.40
   0   5 -11  407.86   10.90
   0   5 -11  414.16   10.30
   0   5 -11  408.56   10.80
   0   5 -11  404.66   10.30
   0   5 -11  416.66   10.50
   0  -5  11  422.66   10.50
   0  -5  11  433.76   10.40
   0  -5  11  424.06   10.90
   0  -5  11  416.86    9.00
  -1   5 -11   88.29    5.50
  -1   5 -11   98.29    4.90
  -1   5 -11  100.19    4.80
  -1   5 -11   88.79    4.80
   1  -5  11   82.49    6.10
   1  -5  11   99.79    3.70
   1  -5  11   94.29    5.10
   1  -5  11   97.79    4.90
  -2   5 -11  295.97    8.70
  -2   5 -11  290.77    8.60
  -2   5 -11  298.47    9.60
  -2   5 -11  287.67    8.70
  -2   5 -11  279.37    8.70
   2  -5  11  296.37    7.80
   2  -5  11  286.07    8.70
   2  -5  11  243.28   10.60
   2  -5  11  287.47    9.10
  -3   5 -11   53.19    5.90
  -3   5 -11   52.49    4.70
  -3   5 -11   53.09    4.90
  -3   5 -11   50.89    5.50
   3  -5  11   52.39    5.00
   3  -5  11   55.09    5.90
   3  -5  11   59.19    4.80
   3  -5  11   58.29    5.60
  -4   5 -11   20.80    5.20
  -4   5 -11   21.90    3.60
  -4   5 -11   21.80    3.70
  -4   5 -11   25.30    2.80
  -4   5 -11   20.90    4.10
   4  -5  11   18.50    4.40
   4  -5  11   17.90    3.40
   4  -5  11   19.00    3.50
   4  -5  11   20.40    3.90
  -5   5 -11   43.00    5.70
  -5   5 -11   40.20    5.40
  -5   5 -11   42.90    6.00
  -5   5 -11   40.10    4.30
  -5   5 -11   48.00    5.00
   5  -5  11   43.50    5.10
   5  -5  11   36.20    5.90
   5  -5  11   52.89    5.60
   5  -5  11   46.60    6.20
   5  -5  11   44.60    5.10
   6   4 -11    1.10    1.90
   6   4 -11   -0.80    3.40
   6   4 -11   -2.80    1.90
   5   4 -11   60.19    3.30
   5   4 -11   56.39    2.70
   5   4 -11   61.09    2.50
   5   4 -11   62.99    3.20
   5   4 -11   50.89    4.90
   5   4 -11   65.19    3.20
   4   4 -11   30.30    2.80
   4   4 -11   26.80    1.90
   4   4 -11   33.90    2.70
   4   4 -11   30.00    2.80
   4   4 -11   25.70    2.40
   4   4 -11   29.70    3.30
  -4  -4  11   29.40    1.90
   3   4 -11   77.29    2.70
   3   4 -11   76.39    3.30
   3   4 -11   76.09    3.60
   3   4 -11   73.69    3.40
   3   4 -11   72.69    3.50
   3   4 -11   75.59    4.80
  -3  -4  11   76.89    3.50
  -3  -4  11   77.89    3.50
  -3  -4  11   60.49    5.50
   2   4 -11   42.50    3.10
   2   4 -11   41.00    4.20
   2   4 -11   41.40    3.20
   2   4 -11   37.80    2.40
   2   4 -11   42.90    3.10
   2   4 -11   39.20    3.00
  -2  -4  11   42.40    2.90
  -2  -4  11   40.00    3.10
  -2  -4  11   40.80    2.90
   1   4 -11  396.26    9.80
   1   4 -11  372.96    9.20
   1   4 -11  386.66    9.70
   1   4 -11  382.06    9.40
  -1  -4  11  376.66    9.30
  -1  -4  11  385.86    8.10
  -1  -4  11  381.36    7.80
   0   4 -11    0.70    2.00
   0   4 -11    1.50    1.80
   0   4 -11    1.00    1.80
   0   4 -11   -0.90    1.90
   0   4 -11    0.90    1.50
   0   4 -11    3.00    1.70
   0  -4  11    1.30    2.10
   0  -4  11    1.10    1.10
   0  -4  11    0.70    1.50
   0  -4  11    3.10    1.60
   0  -4  11    1.80    1.40
  -1   4 -11   75.49    4.30
  -1   4 -11   60.29    4.30
  -1   4 -11   66.69    4.90
  -1   4 -11   70.49    4.70
  -1   4 -11   65.89    4.20
   1  -4  11   72.79    5.40
   1  -4  11   63.29    4.30
   1  -4  11   67.69    3.50
   1  -4  11   62.09    4.20
   1  -4  11   63.19    4.80
  -2   4 -11   74.09    4.90
  -2   4 -11   70.99    5.10
  -2   4 -11   78.79    6.10
  -2   4 -11   79.39    4.80
  -2   4 -11   77.69    4.60
  -2   4 -11   78.29    5.00
   2  -4  11   79.99    4.60
   2  -4  11   79.69    5.10
  -3   4 -11   23.10    3.70
  -3   4 -11   30.20    3.70
  -3   4 -11   27.00    3.40
  -3   4 -11   28.30    4.00
  -3   4 -11   25.20    3.00
   3  -4  11   27.50    3.70
   3  -4  11   23.60    3.20
   3  -4  11   33.60    4.10
   3  -4  11   27.20    3.20
   3  -4  11   25.80    3.80
  -4   4 -11    2.40    4.00
  -4   4 -11    5.50    2.80
  -4   4 -11    5.40    3.60
  -4   4 -11    3.10    2.20
   4  -4  11    8.20    3.10
   4  -4  11    6.80    3.00
   4  -4  11    4.30    3.80
   4  -4  11    0.20    4.10
   4  -4  11    0.70    2.70
  -5   4 -11   21.00    4.30
  -5   4 -11   20.60    4.00
  -5   4 -11   20.10    3.10
  -5   4 -11   17.40    5.10
  -5   4 -11   18.70    5.00
   5  -4  11   20.00    4.20
   5  -4  11   26.90    5.60
   5  -4  11   34.20    5.50
   5  -4  11   12.90    4.10
   5  -4  11   30.80    4.30
   6   3 -11   40.40    3.70
   6   3 -11   37.20    3.00
   6   3 -11   32.30    2.80
   6   3 -11   34.40    2.90
   5   3 -11   47.20    2.60
   5   3 -11   46.50    2.60
   5   3 -11   51.29    3.70
   5   3 -11   53.59    5.60
   4   3 -11   21.70    1.30
   4   3 -11   24.40    3.00
   4   3 -11   20.60    2.00
   4   3 -11   17.80    2.30
   4   3 -11   18.40    1.90
   4   3 -11   21.90    2.00
   3   3 -11  459.65   10.70
   3   3 -11  465.25   10.00
   3   3 -11  457.25    9.80
   3   3 -11  454.45   10.00
   3   3 -11  455.85    9.20
   3   3 -11  452.75   12.00
  -3  -3  11  451.35    9.60
  -3  -3  11  460.65   10.60
   2   3 -11  316.67    7.90
   2   3 -11  325.37    8.30
   2   3 -11  313.47    7.90
   2   3 -11  316.37    7.70
  -2  -3  11  321.17    8.00
  -2  -3  11  318.57    7.50
   1   3 -11   31.10    3.20
   1   3 -11   32.90    3.50
   1   3 -11   26.60    2.60
   1   3 -11   34.40    3.80
   1   3 -11   35.60    2.90
   1   3 -11   37.80    3.20
  -1  -3  11   34.60    3.10
  -1  -3  11   30.20    1.60
  -1  -3  11   30.90    1.50
  -1  -3  11   33.40    2.50
  -1  -3  11   31.60    2.80
   0   3 -11  226.48    7.50
   0   3 -11  236.38    7.10
   0   3 -11  237.08    7.20
   0   3 -11  244.08    7.10
   0   3 -11  234.18    7.50
   0   3 -11  238.18    7.00
   0  -3  11  234.78    7.20
   0  -3  11  233.28    6.90
   0  -3  11  239.28    6.20
   0  -3  11  237.68    5.70
   0  -3  11  237.58    7.10
  -1   3 -11   72.49    4.60
  -1   3 -11   63.29    4.40
  -1   3 -11   70.69    4.20
  -1   3 -11   66.39    4.80
  -1   3 -11   69.39    4.30
   1  -3  11   70.19    3.60
   1  -3  11   60.49    4.70
   1  -3  11   71.29    4.10
   1  -3  11   72.59    4.90
   1  -3  11   64.29    4.40
  -2   3 -11  191.38    6.90
  -2   3 -11  154.78    7.50
  -2   3 -11  201.68    6.90
  -2   3 -11  191.28    7.20
  -2   3 -11  184.38    7.30
  -2   3 -11  179.78    7.10
   2  -3  11  200.08    7.40
   2  -3  11  188.48    6.60
  -3   3 -11   32.00    3.20
  -3   3 -11   27.00    3.30
  -3   3 -11   33.60    3.80
  -3   3 -11   34.10    4.10
  -3   3 -11   33.50    3.50
   3  -3  11   24.10    3.20
   3  -3  11   37.40    4.10
   3  -3  11   30.20    4.10
   3  -3  11   30.40    3.40
  -4   3 -11  184.28    6.90
  -4   3 -11  194.58    8.50
  -4   3 -11  195.18    8.50
  -4   3 -11  192.28    8.30
  -4   3 -11  185.98    8.90
   4  -3  11  179.48    7.70
   4  -3  11  182.28    8.70
   4  -3  11  171.38    9.00
   4  -3  11  182.58    7.50
  -5   3 -11   -0.80    3.30
  -5   3 -11    0.80    3.90
  -5   3 -11    0.20    2.90
  -5   3 -11   -3.10    4.80
  -5   3 -11    4.90    4.60
   5  -3  11    4.40    4.70
   5  -3  11   -2.50    3.50
   5  -3  11   -2.00    5.10
   5  -3  11   -0.90    3.60
   5  -3  11    2.90    3.50
   6   2 -11   -1.90    2.30
   6   2 -11    0.90    3.10
   6   2 -11    2.90    1.10
   6   2 -11    0.80    1.20
   5   2 -11   95.39    4.50
   5   2 -11   92.29    5.40
   5   2 -11   92.29    3.00
   5   2 -11   93.99    3.00
   4   2 -11   14.40    2.30
   4   2 -11   13.10    1.50
   4   2 -11   13.90    2.90
   4   2 -11   14.40    1.60
   3   2 -11   35.50    3.50
   3   2 -11   32.00    3.40
   3   2 -11   31.20    2.10
   3   2 -11   35.20    2.40
   3   2 -11   30.20    2.50
   3   2 -11   33.90    1.70
  -3  -2  11   32.40    1.60
  -3  -2  11   34.00    1.90
  -3  -2  11   28.90    3.20
   2   2 -11  205.48    6.20
   2   2 -11  186.38    8.10
   2   2 -11  200.48    5.60
   2   2 -11  198.98    5.60
   2   2 -11  197.38    5.30
   2   2 -11  196.88    5.70
  -2  -2  11  197.88    5.20
  -2  -2  11  193.98    5.30
  -2  -2  11  193.08    5.90
   1   2 -11  498.75   11.70
   1   2 -11  487.95   11.30
   1   2 -11  496.55   11.50
   1   2 -11  506.15   11.40
   1   2 -11  494.95   11.30
   1   2 -11  490.65   12.50
  -1  -2  11  506.25    9.50
  -1  -2  11  497.75    9.50
  -1  -2  11  496.95   11.30
  -1  -2  11  510.65   11.60
   0   2 -11 1130.39   23.20
   0   2 -11 1140.29   23.30
   0   2 -11 1151.68   23.20
   0   2 -11 1135.79   22.90
   0   2 -11 1136.09   23.10
   0   2 -11 1139.69   24.00
   0  -2  11 1129.09   23.10
   0  -2  11 1122.29   23.10
   0  -2  11 1119.19   21.70
   0  -2  11 1135.39   22.90
   0  -2  11 1132.09   21.70
  -1   2 -11  467.15   11.70
  -1   2 -11  476.25   11.90
  -1   2 -11  467.85   12.00
  -1   2 -11  470.25   12.00
  -1   2 -11  459.25   12.10
  -1   2 -11  467.55   11.80
   1  -2  11  474.05   10.80
   1  -2  11  480.45   10.80
   1  -2  11  463.15   13.10
   1  -2  11  472.95   11.40
   1  -2  11  487.95   12.10
  -2   2 -11  268.97    8.60
  -2   2 -11  261.57    8.00
  -2   2 -11  263.17    8.60
  -2   2 -11  262.87    8.20
  -2   2 -11  267.77    8.50
   2  -2  11  227.38    9.60
   2  -2  11  274.07    9.00
   2  -2  11  265.27    7.90
  -3   2 -11   55.19    4.70
  -3   2 -11   54.79    5.50
  -3   2 -11   52.99    5.00
  -3   2 -11   54.49    5.70
  -3   2 -11   49.00    4.80
   3  -2  11   50.99    5.00
   3  -2  11   59.69    4.60
   3  -2  11   53.19    4.50
   3  -2  11   55.69    5.50
   3  -2  11   52.29    5.70
  -4   2 -11    4.60    4.30
  -4   2 -11    0.90    2.90
  -4   2 -11    3.30    4.30
  -4   2 -11    5.80    3.80
  -4   2 -11   10.00    3.50
   4  -2  11    2.80    3.20
   4  -2  11    4.30    2.80
   4  -2  11    4.00    3.60
   4  -2  11    4.40    3.00
   4  -2  11    5.30    4.10
  -5   2 -11   14.50    5.60
  -5   2 -11   18.80    4.70
  -5   2 -11   26.30    4.90
  -5   2 -11   22.30    5.10
  -5   2 -11   25.40    4.70
   5  -2  11    9.90    5.70
   5  -2  11   24.80    5.30
   5  -2  11   24.70    4.00
   5  -2  11   26.70    4.10
   5  -2  11   18.10    4.00
   6   1 -11    2.00    0.80
   6   1 -11   -1.50    2.40
   6   1 -11   -2.10    3.30
   6   1 -11    0.10    0.70
   5   1 -11   45.10    4.10
   5   1 -11   42.00    2.00
   5   1 -11   49.20    4.70
   5   1 -11   42.10    2.10
   4   1 -11   22.50    2.10
   4   1 -11   21.70    2.40
   4   1 -11   24.80    3.20
   4   1 -11   21.50    2.00
   3   1 -11   23.50    2.70
   3   1 -11   20.70    1.70
   3   1 -11   22.90    1.60
   3   1 -11   23.60    2.20
   3   1 -11   19.70    3.00
   3   1 -11   25.60    2.40
  -3  -1  11   22.40    1.30
  -3  -1  11   24.00    1.40
   2   1 -11    8.30    1.40
   2   1 -11   10.00    1.70
   2   1 -11    9.70    2.00
   2   1 -11    7.80    1.80
   2   1 -11    5.40    1.40
  -2  -1  11    9.00    1.50
  -2  -1  11    9.10    1.30
  -2  -1  11    7.70    1.90
   1   1 -11  633.84   13.70
   1   1 -11  621.84   13.40
   1   1 -11  637.94   14.10
   1   1 -11  617.34   13.90
   1   1 -11  598.24   15.20
   1   1 -11  614.24   13.50
  -1  -1  11  624.24   11.60
  -1  -1  11  590.34   14.10
  -1  -1  11  649.64   13.90
  -1  -1  11  615.84   11.70
   0   1 -11   22.80    2.40
   0   1 -11   19.10    2.90
   0   1 -11   15.40    2.80
   0   1 -11   13.80    2.20
   0   1 -11   20.10    3.00
   0   1 -11   18.50    2.40
   0  -1  11   18.00    1.80
   0  -1  11   17.30    2.30
   0  -1  11   19.50    2.00
  -1   1 -11 1163.38   25.80
  -1   1 -11 1148.39   24.10
  -1   1 -11 1124.39   24.00
   1  -1  11 1149.08   24.40
   1  -1  11 1164.48   22.80
   1  -1  11 1190.48   23.90
   1  -1  11 1174.78   24.60
   1  -1  11 1188.08   23.30
  -2   1 -11   45.70    5.00
  -2   1 -11   39.80    4.30
  -2   1 -11   47.80    4.80
  -2   1 -11   40.90    4.40
  -2   1 -11   39.30    4.30
  -2   1 -11   49.90    5.50
   2  -1  11   46.20    4.10
   2  -1  11   45.20    4.00
   2  -1  11   45.80    4.50
   2  -1  11   50.39    5.10
   2  -1  11   50.09    4.10
  -3   1 -11   33.40    3.50
  -3   1 -11   26.20    4.30
  -3   1 -11   27.20    3.80
  -3   1 -11   27.00    4.00
  -3   1 -11   27.00    3.70
  -3   1 -11   31.40    4.10
   3  -1  11   33.00    3.40
   3  -1  11   32.60    3.20
   3  -1  11   34.00    3.70
   3  -1  11   28.20    5.00
   3  -1  11   28.20    3.90
  -4   1 -11   55.69    5.90
  -4   1 -11   58.09    5.30
  -4   1 -11   61.09    6.00
  -4   1 -11   51.29    4.90
  -4   1 -11   57.79    5.40
  -4   1 -11   56.19    6.20
   4  -1  11   61.09    6.30
   4  -1  11   46.80    6.00
   4  -1  11   53.09    6.00
   4  -1  11   52.49    5.20
   4  -1  11   50.19    5.20
  -5   1 -11   22.20    5.10
  -5   1 -11    4.30    3.30
  -5   1 -11   14.80    4.60
  -5   1 -11   15.00    4.20
  -5   1 -11    5.40    3.30
  -5   1 -11   12.40    6.00
   5  -1  11   12.30    4.40
   5  -1  11   16.60    5.30
   5  -1  11    2.40    6.10
   5  -1  11    6.70    3.90
   5  -1  11   11.10    3.30
   6   0 -11   31.30    3.60
   6   0 -11   27.80    3.50
   5   0 -11   25.30    3.80
   5   0 -11   22.40    1.80
   5   0 -11   20.80    1.80
   5   0 -11   23.50    3.20
   4   0 -11  262.37    9.10
   4   0 -11  241.58    5.80
   3   0 -11  215.58    5.60
   3   0 -11  221.78    8.00
   3   0 -11  223.38    4.90
   3   0 -11  217.38    7.20
   3   0 -11  214.58    5.60
  -3   0  11  221.38    4.70
  -3   0  11  223.08    4.90
   2   0 -11   57.99    2.60
   2   0 -11   63.19    4.90
   2   0 -11   53.79    3.30
   2   0 -11   65.99    3.30
   2   0 -11   49.30    4.30
   2   0 -11   56.39    3.40
  -2   0  11   49.00    3.10
  -2   0  11   65.29    3.20
   1   0 -11   80.69    4.00
   1   0 -11   89.49    3.60
   1   0 -11   82.39    3.80
  -1   0  11   87.69    2.50
  -1   0  11   72.19    4.70
  -1   0  11   85.49    4.00
  -1   0  11   88.09    2.30
  -1   0  11   81.79    3.50
   0   0 -11  457.25   10.80
   0   0  11  436.96    9.80
  -1   0 -11  263.57    8.20
  -1   0 -11  257.97    7.80
  -1   0 -11  266.17    8.00
  -1   0 -11  246.98    8.50
  -1   0 -11  257.67    8.40
   1   0  11  253.67    8.50
   1   0  11  257.97    6.60
   1   0  11  242.68    7.60
   1   0  11  262.47    7.40
  -2   0 -11  344.07   10.30
  -2   0 -11  343.87    9.90
  -2   0 -11  314.67   10.60
  -2   0 -11  317.27    9.30
  -2   0 -11  334.37   10.20
   2   0  11  338.47    9.60
   2   0  11  333.07   10.70
   2   0  11  327.27    9.30
   2   0  11  321.77   10.10
  -3   0 -11    0.90    3.90
  -3   0 -11    5.70    3.70
  -3   0 -11   -2.10    2.80
  -3   0 -11    0.50    2.80
  -3   0 -11   -3.40    2.90
   3   0  11   -2.10    3.30
   3   0  11    5.70    2.60
   3   0  11    0.20    3.20
   3   0  11    2.40    3.10
   3   0  11    3.60    2.30
  -4   0 -11   54.39    5.50
  -4   0 -11   51.09    5.40
  -4   0 -11   60.59    6.50
  -4   0 -11   73.69    7.60
  -4   0 -11   53.39    5.80
   4   0  11   55.89    5.40
   4   0  11   50.19    4.70
   4   0  11   68.39    6.70
   4   0  11   51.89    5.50
   4   0  11   48.80    5.40
   6  -1 -11   82.09    6.10
   6  -1 -11   87.69    6.20
   6  -1 -11   78.49    2.00
   5  -1 -11   38.70    3.90
   5  -1 -11   43.60    2.10
   5  -1 -11   43.90    2.20
   5  -1 -11   37.70    4.40
   4  -1 -11  107.49    6.40
   4  -1 -11  115.29    5.80
   4  -1 -11  112.89    3.60
   4  -1 -11  123.39    3.70
   3  -1 -11  234.88    8.50
   3  -1 -11  238.28    5.20
   3  -1 -11  225.38    7.30
   3  -1 -11  227.48    6.00
   3  -1 -11  226.68    5.90
   3  -1 -11  221.88    5.90
  -3   1  11  229.78    5.40
  -3   1  11  227.68    5.50
   2  -1 -11   52.59    3.30
   2  -1 -11   50.69    3.20
   2  -1 -11   49.10    3.00
   2  -1 -11   54.59    2.70
   2  -1 -11   55.59    4.10
  -2   1  11   52.09    3.40
  -2   1  11   61.19    4.80
   1  -1 -11    6.30    1.60
   1  -1 -11    2.10    2.00
   1  -1 -11    3.70    1.90
   1  -1 -11    3.30    1.90
   1  -1 -11    0.80    2.00
  -1   1  11    3.80    0.90
  -1   1  11    1.50    1.70
  -1   1  11    1.70    2.30
  -1   1  11    4.50    1.00
  -1   1  11    3.70    1.80
   0  -1 -11   27.60    2.60
   0  -1 -11   25.20    2.90
   0  -1 -11   27.10    3.10
   0  -1 -11   25.50    2.90
   0   1  11   25.00    2.60
   0   1  11   25.30    3.10
   0   1  11   26.80    2.10
   0   1  11   25.70    2.50
   0   1  11   26.10    3.30
  -1  -1 -11   86.39    5.20
  -1  -1 -11   78.99    4.70
  -1  -1 -11   77.89    4.50
  -1  -1 -11   89.29    5.60
   1   1  11   82.89    4.50
   1   1  11   84.69    3.70
   1   1  11   83.09    5.60
   1   1  11   84.29    4.90
   1   1  11   86.59    4.80
  -2  -1 -11  253.07    9.90
  -2  -1 -11  267.07    9.00
  -2  -1 -11  261.27    8.30
  -2  -1 -11  263.97    9.50
  -2  -1 -11  276.27    8.70
   2   1  11  268.07    9.00
   2   1  11  273.07   10.00
   2   1  11  268.07    8.50
   2   1  11  269.37    8.80
   2   1  11  266.67    7.60
  -3  -1 -11   50.39    5.80
  -3  -1 -11   46.20    4.80
  -3  -1 -11   44.80    5.20
  -3  -1 -11   43.70    4.50
  -3  -1 -11   45.80    5.00
   3   1  11   45.30    4.70
   3   1  11   49.80    5.40
   3   1  11   48.20    4.20
   3   1  11   46.60    4.80
   3   1  11   48.20    4.90
  -4  -1 -11   -5.30    4.40
  -4  -1 -11    0.30    3.80
  -4  -1 -11    6.20    5.70
  -4  -1 -11    1.70    3.00
  -4  -1 -11   -5.80    4.10
   4   1  11    3.40    5.50
   4   1  11    2.50    4.30
   4   1  11    0.40    2.70
   4   1  11    1.30    3.90
   4   1  11    1.00    3.00
   6  -2 -11   90.79    2.80
   6  -2 -11   88.89    2.70
   6  -2 -11   91.19    7.10
   6  -2 -11   93.09    7.80
   5  -2 -11  141.59    3.90
   5  -2 -11  143.09    4.00
   5  -2 -11  142.69    7.10
   5  -2 -11  145.69    7.50
   4  -2 -11   17.00    1.80
   4  -2 -11   19.80    4.30
   4  -2 -11   20.10    1.80
   4  -2 -11   15.50    1.60
   4  -2 -11   17.50    1.30
   4  -2 -11   16.90    3.10
   3  -2 -11   68.99    4.80
   3  -2 -11   72.49    3.90
   3  -2 -11   79.59    3.50
   3  -2 -11   75.89    2.80
   3  -2 -11   78.29    3.50
  -3   2  11   77.09    3.30
  -3   2  11   77.09    3.40
   2  -2 -11    4.20    1.30
   2  -2 -11    5.40    2.20
   2  -2 -11    4.40    2.30
   2  -2 -11    1.90    1.70
   2  -2 -11    7.10    1.90
  -2   2  11    5.60    1.50
  -2   2  11    5.40    2.10
   1  -2 -11   14.30    2.60
   1  -2 -11    8.00    2.50
   1  -2 -11    9.90    1.60
   1  -2 -11    8.10    1.80
   1  -2 -11   11.40    2.20
  -1   2  11    7.90    1.90
  -1   2  11   10.80    1.50
  -1   2  11    9.20    1.20
   0  -2 -11    1.00    1.90
   0  -2 -11    0.70    2.40
   0  -2 -11   -0.70    2.20
   0  -2 -11   -0.20    2.50
   0  -2 -11    2.00    1.80
   0   2  11    2.80    2.90
   0   2  11    1.20    2.80
   0   2  11    2.00    2.10
   0   2  11    2.60    2.00
   0   2  11    1.60    1.10
  -1  -2 -11   15.50    2.50
  -1  -2 -11   11.30    3.20
  -1  -2 -11   10.00    3.50
  -1  -2 -11    9.60    2.50
  -1  -2 -11   12.10    3.10
   1   2  11   13.90    1.80
   1   2  11   14.80    2.80
   1   2  11    9.30    3.20
   1   2  11    8.70    2.60
   1   2  11   15.90    3.00
  -2  -2 -11    0.90    2.60
  -2  -2 -11    1.40    2.60
  -2  -2 -11   -2.30    3.10
  -2  -2 -11   -2.90    3.60
  -2  -2 -11    3.10    3.30
   2   2  11   -1.40    2.10
   2   2  11    1.50    2.90
   2   2  11    4.90    3.10
   2   2  11   -3.10    2.40
   2   2  11   -2.40    3.50
  -3  -2 -11   13.40    3.20
  -3  -2 -11   17.80    3.80
  -3  -2 -11   16.10    5.20
  -3  -2 -11   21.70    4.20
  -3  -2 -11   19.20    5.20
   3   2  11   17.40    3.50
   3   2  11   19.20    4.40
   3   2  11   15.50    2.90
   3   2  11   24.50    5.10
   6  -3 -11   59.99    6.00
   6  -3 -11   59.49    2.90
   6  -3 -11   69.69    7.60
   6  -3 -11   54.29    2.80
   5  -3 -11    4.00    4.40
   5  -3 -11    1.20    3.20
   5  -3 -11    5.10    1.50
   5  -3 -11    3.90    1.50
   4  -3 -11   31.10    3.00
   4  -3 -11   28.00    2.00
   4  -3 -11   34.40    3.80
   4  -3 -11   31.30    2.90
   4  -3 -11   38.80    2.90
   3  -3 -11    9.00    2.30
   3  -3 -11   12.70    3.00
   3  -3 -11   10.50    2.00
   3  -3 -11    6.10    1.80
   3  -3 -11    5.80    1.30
  -3   3  11    7.60    1.80
  -3   3  11    8.40    2.30
   2  -3 -11  135.19    6.20
   2  -3 -11  129.79    4.80
   2  -3 -11  129.59    5.00
   2  -3 -11  133.59    6.00
   2  -3 -11  134.99    4.20
  -2   3  11  131.49    5.50
  -2   3  11  133.09    5.80
   1  -3 -11  140.59    6.90
   1  -3 -11  152.98    6.00
   1  -3 -11  150.88    5.00
   1  -3 -11  153.48    6.80
   1  -3 -11  122.59    6.00
  -1   3  11  148.59    4.80
  -1   3  11  145.09    6.20
  -1   3  11  142.29    6.10
  -1   3  11  148.59    4.10
   0  -3 -11   24.40    2.70
   0  -3 -11   18.40    3.20
   0  -3 -11   25.10    3.40
   0  -3 -11   19.30    3.70
   0  -3 -11   19.80    2.80
   0   3  11   20.00    2.50
   0   3  11   25.80    2.70
   0   3  11   25.00    3.10
   0   3  11   20.40    3.40
  -1  -3 -11  148.59    6.30
  -1  -3 -11  162.18    6.30
  -1  -3 -11  168.08    8.30
  -1  -3 -11  152.68    7.70
  -1  -3 -11  149.19    8.20
   1   3  11  147.49    8.70
   1   3  11  152.98    6.80
   1   3  11  158.88    5.30
   1   3  11  153.08    7.30
   1   3  11  152.58    7.10
  -2  -3 -11   25.10    3.50
  -2  -3 -11   26.10    5.30
  -2  -3 -11   22.40    3.90
  -2  -3 -11   26.60    4.30
   2   3  11   24.10    4.70
   2   3  11   31.00    2.80
   2   3  11   23.40    5.00
   2   3  11   23.90    4.10
   2   3  11   23.30    4.50
  -3  -3 -11   -2.50    3.70
  -3  -3 -11    0.60    4.00
  -3  -3 -11   -3.30    5.50
  -3  -3 -11    2.10    4.20
  -3  -3 -11    1.40    2.80
   3   3  11    6.40    4.50
   3   3  11    3.70    3.70
   3   3  11    5.90    2.60
   3   3  11    6.40    6.00
   3   3  11    1.00    4.50
   5  -4 -11  226.08    5.10
   5  -4 -11  225.38    5.00
   5  -4 -11  235.08    9.30
   5  -4 -11  221.38    6.10
   5  -4 -11  232.38    6.40
   4  -4 -11   49.30    3.10
   4  -4 -11   52.59    3.70
   4  -4 -11   47.50    4.20
   4  -4 -11   48.10    4.60
   4  -4 -11   50.39    3.50
  -4   4  11   53.59    3.00
  -4   4  11   46.60    3.40
   3  -4 -11   38.80    3.60
   3  -4 -11   33.10    2.80
   3  -4 -11   37.30    4.10
   3  -4 -11   36.90    3.60
  -3   4  11   41.10    3.80
  -3   4  11   30.80    3.30
   2  -4 -11    9.10    2.80
   2  -4 -11    3.70    1.70
   2  -4 -11    0.50    3.00
   2  -4 -11    3.70    3.10
   2  -4 -11    6.10    2.00
  -2   4  11    8.50    2.80
  -2   4  11    4.70    3.00
   1  -4 -11   55.59    5.50
   1  -4 -11   53.39    4.10
   1  -4 -11   54.89    5.20
   1  -4 -11   57.59    4.80
   1  -4 -11   54.19    4.90
  -1   4  11   58.29    2.80
  -1   4  11   57.69    4.70
  -1   4  11   59.99    3.60
  -1   4  11   54.79    4.70
   0  -4 -11    3.80    2.80
   0  -4 -11    3.20    3.20
   0  -4 -11    2.90    3.70
   0  -4 -11    2.70    3.00
   0  -4 -11    1.00    2.20
   0   4  11    2.50    3.00
   0   4  11    3.80    3.50
  -1  -4 -11   22.30    5.00
  -1  -4 -11   16.00    4.20
  -1  -4 -11    8.00    4.50
  -1  -4 -11   16.40    3.10
  -1  -4 -11   18.60    3.10
   1   4  11   13.40    3.70
   1   4  11    9.80    4.50
   1   4  11   13.60    3.50
   1   4  11   16.00    2.30
  -2  -4 -11    4.90    3.40
  -2  -4 -11   -8.90    5.00
  -2  -4 -11    5.70    2.90
  -2  -4 -11    4.70    4.10
  -2  -4 -11    7.40    5.20
   2   4  11    2.00    2.80
   2   4  11    6.00    5.00
   2   4  11    9.90    4.40
   2   4  11   12.00    4.30
   4  -5 -11    7.40    2.50
   4  -5 -11   12.40    4.10
   4  -5 -11   10.60    2.90
   4  -5 -11    9.70    2.20
   4  -5 -11   10.20    2.70
  -4   5  11    6.60    2.80
  -4   5  11    5.20    2.30
   3  -5 -11   38.70    4.50
   3  -5 -11   33.60    3.60
   3  -5 -11   33.20    3.20
   3  -5 -11   31.00    3.40
   3  -5 -11   36.40    4.10
  -3   5  11   36.40    3.50
   2  -5 -11   81.59    5.50
   2  -5 -11   72.79    6.30
   2  -5 -11   79.59    3.90
   2  -5 -11   78.39    5.80
   2  -5 -11   76.49    5.20
  -2   5  11   82.09    6.10
  -2   5  11   74.79    6.30
   1  -5 -11    4.10    2.50
   1  -5 -11    0.40    3.80
   1  -5 -11    0.20    3.50
   1  -5 -11    3.00    3.40
   1  -5 -11    2.80    2.70
  -1   5  11   -2.40    1.60
  -1   5  11    1.30    2.70
  -1   5  11    1.60    3.00
  -1   5  11    0.00    4.00
   0  -5 -11   88.99    6.40
   0  -5 -11   95.19    7.30
   0  -5 -11   75.79    5.20
   0  -5 -11   79.79    8.80
   0  -5 -11   77.99    6.80
   0   5  11   83.79    4.60
   0   5  11   74.29    6.40
   0   5  11   75.69    6.70
   0   5  11   85.39    7.10
  -1  -5 -11   25.10    5.80
  -1  -5 -11    8.30    2.80
  -1  -5 -11   15.90    4.50
  -1  -5 -11   14.70    3.60
  -1  -5 -11   11.00    4.10
   1   5  11    4.10    4.80
   1   5  11   13.50    5.00
   1   5  11    7.40    4.20
   1   5  11    8.50    2.90
   3  -6 -11    7.20    2.80
   3  -6 -11    9.00    3.80
   2  -6 -11    0.10    2.00
   2  -6 -11    5.90    3.40
   2  -6 -11   -0.80    2.70
   2  -6 -11    2.80    3.80
   2  -6 -11   -1.00    3.90
   1  -6 -11   -3.10    3.60
   1  -6 -11   -0.90    2.40
   1  -6 -11    6.00    3.90
   1  -6 -11    0.50    2.90
   1  -6 -11   -2.30    3.40
  -1   6  11    0.40    3.10
  -1   6  11    2.10    2.30
   1  10 -12   61.79    6.40
   1  10 -12   63.59    5.30
   1  10 -12   67.99    4.50
   1  10 -12   45.30    4.30
   1  10 -12   60.69    5.60
  -1 -10  12   63.39    4.60
  -1 -10  12   67.39    6.30
  -1 -10  12   55.19    6.00
  -1 -10  12   59.79    5.60
  -1 -10  12   55.59    5.40
   0  10 -12    7.30    2.80
   0  10 -12    6.80    3.60
   0  10 -12    8.70    3.10
   0  10 -12    4.80    5.10
   0  10 -12    1.30    2.60
   0 -10  12    1.20    2.20
   0 -10  12    3.90    4.50
   0 -10  12   -1.40    3.20
   0 -10  12    1.20    4.30
   0 -10  12    3.70    3.70
   0 -10  12    2.30    4.20
  -1  10 -12    9.80    3.30
  -1  10 -12   11.10    5.30
  -1  10 -12    5.30    3.40
  -1  10 -12    2.40    2.80
  -1  10 -12    5.10    3.10
   1 -10  12   13.40    5.10
   1 -10  12    5.70    5.50
   1 -10  12   12.80    3.90
   1 -10  12    9.80    2.80
   1 -10  12   10.90    5.00
   1 -10  12    3.60    4.60
  -2  10 -12   16.90    6.60
  -2  10 -12   15.30    3.50
  -2  10 -12   14.80    3.00
  -2  10 -12   16.60    3.60
  -2  10 -12   24.80    4.90
   2 -10  12   15.50    3.70
   2 -10  12   22.40    5.90
   2 -10  12   21.70    5.00
   2 -10  12   12.10    6.10
   2 -10  12   15.10    4.30
   2 -10  12   19.10    5.20
   2   9 -12    2.10    3.50
   2   9 -12   -0.40    3.00
   2   9 -12    5.90    2.00
   2   9 -12    1.50    2.80
   2   9 -12    5.80    3.00
  -2  -9  12    4.30    1.80
  -2  -9  12    3.90    3.20
  -2  -9  12    6.40    3.90
  -2  -9  12    2.50    4.50
  -2  -9  12    5.10    3.00
  -2  -9  12    2.80    2.70
   1   9 -12    2.80    4.80
   1   9 -12    1.10    2.90
   1   9 -12    7.30    3.00
   1   9 -12   -2.90    2.10
   1   9 -12   -2.50    3.40
  -1  -9  12   -1.30    1.90
  -1  -9  12    1.00    3.60
  -1  -9  12    2.40    3.40
  -1  -9  12    2.10    4.30
  -1  -9  12   -0.10    3.60
  -1  -9  12   -1.00    3.00
   0   9 -12  147.39    8.00
   0   9 -12  129.39    5.90
   0   9 -12  134.89    6.30
   0   9 -12  139.29    6.70
   0   9 -12  147.39    8.70
   0  -9  12  146.69    6.80
   0  -9  12  135.79    8.00
   0  -9  12  146.29    5.70
   0  -9  12  139.59    7.80
   0  -9  12  136.89    7.60
   0  -9  12  130.29    8.90
  -1   9 -12   57.49    5.00
  -1   9 -12   62.99    5.30
  -1   9 -12   55.09    6.10
  -1   9 -12   59.29    5.40
  -1   9 -12   59.99    6.00
   1  -9  12   66.09    5.10
   1  -9  12   63.09    6.50
   1  -9  12   62.79    6.00
   1  -9  12   63.99    6.00
   1  -9  12   55.79    5.60
   1  -9  12   70.69    6.00
  -2   9 -12    2.00    3.30
  -2   9 -12    2.30    2.90
  -2   9 -12   -3.30    2.90
  -2   9 -12    2.00    2.90
  -2   9 -12    7.00    4.80
   2  -9  12    1.60    2.40
   2  -9  12    2.00    4.30
   2  -9  12    2.60    4.60
   2  -9  12   -1.10    3.70
   2  -9  12    4.00    4.00
   2  -9  12    6.00    4.00
  -3   9 -12  202.98   11.50
  -3   9 -12  184.98    8.50
  -3   9 -12  182.68    7.60
  -3   9 -12  181.78    9.00
  -3   9 -12  195.48    8.10
   3  -9  12  186.68    7.20
   3  -9  12  186.18    9.80
   3  -9  12  202.88   11.30
   3  -9  12  187.68    9.70
   3  -9  12  188.28    9.70
   3   8 -12    5.80    2.80
   3   8 -12   -1.20    3.50
   3   8 -12    6.40    2.40
   3   8 -12    5.30    2.10
   3   8 -12    5.10    3.90
  -3  -8  12    6.10    4.70
  -3  -8  12    8.60    2.90
  -3  -8  12    8.00    3.50
  -3  -8  12    8.50    2.30
   2   8 -12    0.00    1.80
   2   8 -12    1.00    2.50
   2   8 -12   -1.90    2.90
   2   8 -12   -0.80    2.70
   2   8 -12   -3.50    2.20
  -2  -8  12   -2.50    4.00
  -2  -8  12    6.00    3.50
  -2  -8  12   -1.70    2.40
  -2  -8  12    2.10    1.70
  -2  -8  12    0.50    2.20
  -2  -8  12    2.80    2.20
   1   8 -12  162.68    6.80
   1   8 -12  172.78    7.10
   1   8 -12  163.88    7.90
   1   8 -12  173.18    5.90
   1   8 -12  179.78    7.20
  -1  -8  12  178.98    5.10
  -1  -8  12  170.68    6.50
  -1  -8  12  179.08    6.70
  -1  -8  12  166.48    7.60
  -1  -8  12  178.48    7.30
  -1  -8  12  155.08    8.70
   0   8 -12    7.00    2.80
   0   8 -12   13.20    3.80
   0   8 -12    8.80    2.40
   0   8 -12   11.10    3.30
   0   8 -12    8.70    2.90
   0  -8  12    9.20    2.90
   0  -8  12    8.50    3.30
   0  -8  12    7.30    3.20
   0  -8  12   11.30    3.80
   0  -8  12    7.00    3.40
   0  -8  12   10.10    2.30
  -1   8 -12   90.09    7.10
  -1   8 -12   79.69    5.90
  -1   8 -12   97.29    5.40
  -1   8 -12   89.49    5.30
  -1   8 -12   93.79    5.70
   1  -8  12  100.09    6.10
   1  -8  12   78.89    6.90
   1  -8  12   85.99    6.40
   1  -8  12   94.59    6.20
   1  -8  12   91.79    4.30
   1  -8  12   86.99    6.80
  -2   8 -12   46.40    5.10
  -2   8 -12   42.70    4.10
  -2   8 -12   51.59    5.00
  -2   8 -12   51.59    4.70
  -2   8 -12   58.79    5.90
   2  -8  12   50.39    5.60
   2  -8  12   44.90    4.80
   2  -8  12   52.19    5.90
   2  -8  12   53.99    4.90
   2  -8  12   50.89    5.50
   2  -8  12   42.00    4.10
  -3   8 -12   34.20    4.10
  -3   8 -12   30.50    4.60
  -3   8 -12   29.70    4.20
  -3   8 -12   36.00    3.60
   3  -8  12   35.20    3.50
   3  -8  12   38.30    5.20
   3  -8  12   37.10    4.80
   3  -8  12   40.90    4.80
   3  -8  12   32.30    5.60
  -4   8 -12  155.88   10.90
  -4   8 -12  152.28    8.70
  -4   8 -12  154.98    7.40
  -4   8 -12  150.68    8.30
   4  -8  12  159.98    8.80
   4  -8  12  156.78    7.00
   4  -8  12  165.88    8.40
   4  -8  12  154.18    9.50
   4  -8  12  152.88   10.90
   4   7 -12   68.09    5.80
   4   7 -12   68.09    4.60
   4   7 -12   65.99    4.90
   4   7 -12   64.59    5.90
   4   7 -12   62.29    3.90
  -4  -7  12   75.69    6.70
  -4  -7  12   52.39    4.90
   3   7 -12    1.40    2.80
   3   7 -12   -0.20    2.10
   3   7 -12    2.60    1.80
   3   7 -12    0.00    1.80
   3   7 -12    2.10    2.90
  -3  -7  12   -1.60    3.00
  -3  -7  12    5.60    4.00
  -3  -7  12    1.20    2.10
  -3  -7  12   -3.90    2.20
   2   7 -12  216.58    7.90
   2   7 -12  206.58    6.00
   2   7 -12  206.88    6.90
   2   7 -12  228.78    7.20
   2   7 -12  203.88    7.60
  -2  -7  12  210.18    5.40
  -2  -7  12  204.88    4.80
  -2  -7  12  202.18    7.90
  -2  -7  12  170.18   10.30
  -2  -7  12  198.88    9.10
  -2  -7  12  208.98    6.60
   1   7 -12   27.40    3.40
   1   7 -12   26.40    3.20
   1   7 -12   27.00    3.00
   1   7 -12   27.80    3.70
   1   7 -12   31.50    3.20
  -1  -7  12   30.50    2.50
  -1  -7  12   28.40    3.00
  -1  -7  12   30.80    3.60
  -1  -7  12   29.00    4.30
  -1  -7  12   30.10    2.90
   0   7 -12   39.70    3.70
   0   7 -12   37.00    4.20
   0   7 -12   34.60    3.30
   0   7 -12   39.80    4.30
   0   7 -12   36.70    3.40
   0  -7  12   36.70    4.50
   0  -7  12   46.00    4.60
   0  -7  12   42.00    3.10
   0  -7  12   39.90    4.00
   0  -7  12   44.00    4.30
   0  -7  12   42.00    3.70
  -1   7 -12   26.30    3.20
  -1   7 -12   29.10    3.40
  -1   7 -12   30.50    3.60
  -1   7 -12   30.70    3.50
  -1   7 -12   25.10    4.20
   1  -7  12   30.40    3.50
   1  -7  12   33.30    3.00
   1  -7  12   31.10    4.00
   1  -7  12   33.90    4.20
   1  -7  12   28.10    3.90
  -2   7 -12   67.69    5.30
  -2   7 -12   73.39    6.80
  -2   7 -12   70.99    5.60
  -2   7 -12   71.39    5.30
  -2   7 -12   67.09    4.90
   2  -7  12   71.59    5.70
   2  -7  12   74.99    5.70
   2  -7  12   75.49    4.30
   2  -7  12   69.79    5.50
   2  -7  12   68.29    6.70
  -3   7 -12    0.30    3.30
  -3   7 -12    5.50    3.00
  -3   7 -12    5.90    3.30
  -3   7 -12   -2.00    2.90
   3  -7  12   -3.50    3.10
   3  -7  12   -5.70    4.00
   3  -7  12   -1.20    3.40
   3  -7  12    4.60    2.70
   3  -7  12   -1.90    3.90
  -4   7 -12  208.58   10.20
  -4   7 -12  217.58    7.40
  -4   7 -12  196.28    8.70
  -4   7 -12  205.68    9.50
  -4   7 -12  218.38   12.50
   4  -7  12  210.88    9.20
   4  -7  12  217.98    9.90
   4  -7  12  226.18   11.30
   4  -7  12  221.58    8.40
   4  -7  12  215.58   10.30
   5   6 -12    7.60    2.70
   5   6 -12   12.80    3.20
   5   6 -12    8.80    2.20
   5   6 -12   11.60    2.50
   5   6 -12   14.30    3.50
  -5  -6  12   11.50    2.30
   4   6 -12  236.58    7.70
   4   6 -12  207.18    8.00
   4   6 -12  203.48    6.50
   4   6 -12  215.18    7.30
   4   6 -12  201.58    5.80
  -4  -6  12  197.08    6.40
  -4  -6  12  189.28    6.40
  -4  -6  12  207.78    9.90
   3   6 -12   17.20    2.70
   3   6 -12   24.60    3.40
   3   6 -12   18.10    1.80
   3   6 -12   25.70    2.90
  -3  -6  12   16.20    2.30
  -3  -6  12   27.00    5.00
  -3  -6  12   22.10    2.90
  -3  -6  12   18.60    3.00
   2   6 -12    1.30    1.80
   2   6 -12    3.00    2.00
   2   6 -12   -1.60    2.50
   2   6 -12    2.50    1.70
  -2  -6  12    4.40    2.30
  -2  -6  12    0.40    0.70
  -2  -6  12    1.50    0.50
  -2  -6  12    7.40    3.50
  -2  -6  12    1.90    2.10
  -2  -6  12    4.20    2.20
   1   6 -12  136.69    5.50
   1   6 -12  148.89    6.40
   1   6 -12  142.29    5.00
   1   6 -12  155.58    5.60
   1   6 -12  148.69    6.70
   1   6 -12  150.58    5.50
  -1  -6  12  153.18    7.40
  -1  -6  12  138.49    5.20
  -1  -6  12  144.39    5.50
  -1  -6  12  151.18    6.10
  -1  -6  12  144.59    5.10
  -1  -6  12  148.89    4.20
   0   6 -12  112.49    5.30
   0   6 -12  111.69    5.70
   0   6 -12  117.99    6.20
   0   6 -12  118.79    5.70
   0   6 -12  112.69    4.90
   0  -6  12  116.09    5.30
   0  -6  12  112.19    5.30
   0  -6  12  112.39    4.00
   0  -6  12  111.19    5.90
  -1   6 -12    2.40    2.30
  -1   6 -12    2.80    2.40
  -1   6 -12    1.50    2.20
  -1   6 -12   -0.50    2.30
  -1   6 -12    1.30    2.90
   1  -6  12   -0.40    2.20
   1  -6  12    1.80    2.70
   1  -6  12   -0.90    2.30
  -2   6 -12   14.00    3.10
  -2   6 -12   22.70    4.10
  -2   6 -12   19.00    3.70
  -2   6 -12   21.30    3.70
  -2   6 -12   17.20    2.90
   2  -6  12   18.30    3.50
   2  -6  12   19.00    2.90
   2  -6  12   19.60    3.80
   2  -6  12   21.30    3.80
   2  -6  12   19.40    3.30
  -3   6 -12  123.89    6.90
  -3   6 -12  123.79    6.70
  -3   6 -12  118.69    8.00
  -3   6 -12  119.89    5.80
  -3   6 -12  108.39    6.60
   3  -6  12  108.49    6.50
   3  -6  12  114.29    7.00
   3  -6  12  113.29    7.70
   3  -6  12  108.49    5.80
  -4   6 -12   77.99    7.20
  -4   6 -12   73.69    5.00
  -4   6 -12   70.09    6.40
  -4   6 -12   82.69    8.40
  -4   6 -12   57.09    6.50
   4  -6  12   82.79    7.60
   4  -6  12   68.49    7.40
   4  -6  12   67.79    6.00
   4  -6  12   57.99    6.50
  -5   6 -12  178.88    8.60
  -5   6 -12  192.78   10.80
  -5   6 -12  196.98    7.40
  -5   6 -12  205.18   11.80
   5  -6  12  205.08   14.00
   5  -6  12  191.08   11.20
   5   5 -12   70.29    4.10
   5   5 -12   70.39    4.10
   5   5 -12   71.69    3.30
   5   5 -12   73.29    4.20
   5   5 -12   82.09    6.00
   4   5 -12   35.10    3.80
   4   5 -12   40.80    4.00
   4   5 -12   32.40    3.30
   4   5 -12   35.80    3.10
   4   5 -12   32.80    3.40
   4   5 -12   30.00    2.30
  -4  -5  12   32.10    2.80
  -4  -5  12   31.10    3.10
   3   5 -12   50.69    3.60
   3   5 -12   48.60    3.90
   3   5 -12   48.40    3.60
   3   5 -12   43.50    4.80
   3   5 -12   47.60    2.60
   3   5 -12   50.69    3.50
  -3  -5  12   49.50    3.70
  -3  -5  12   42.00    3.40
  -3  -5  12   39.80    3.50
   2   5 -12   12.60    2.00
   2   5 -12   14.60    2.50
   2   5 -12   13.20    2.20
   2   5 -12   14.60    2.80
   2   5 -12   10.50    1.70
   2   5 -12   12.10    2.00
  -2  -5  12   14.10    2.30
  -2  -5  12    7.80    2.20
  -2  -5  12   13.60    2.50
   1   5 -12   63.49    3.70
   1   5 -12   63.39    3.90
   1   5 -12   56.19    4.60
   1   5 -12   57.09    4.20
   1   5 -12   59.89    4.70
   1   5 -12   60.59    3.90
  -1  -5  12   63.09    2.50
  -1  -5  12   65.79    2.90
  -1  -5  12   69.09    4.60
  -1  -5  12   62.99    4.30
   0   5 -12  196.08    7.30
   0   5 -12  203.88    6.70
   0   5 -12  198.58    6.80
   0   5 -12  182.08    8.10
   0   5 -12  199.08    6.70
   0   5 -12  209.28    7.90
   0  -5  12  200.58    6.60
   0  -5  12  197.88    6.00
   0  -5  12  199.98    5.20
   0  -5  12  200.88    6.70
   0  -5  12  201.68    7.20
  -1   5 -12    1.70    2.10
  -1   5 -12    0.50    2.10
  -1   5 -12    5.30    2.70
  -1   5 -12    1.60    2.30
  -1   5 -12    2.80    2.60
  -1   5 -12    4.30    2.70
   1  -5  12    2.30    1.50
   1  -5  12    0.10    2.20
   1  -5  12    4.40    2.30
   1  -5  12    0.50    2.50
   1  -5  12    0.60    2.00
  -2   5 -12  287.07    9.20
  -2   5 -12  310.17   10.80
  -2   5 -12  299.67    9.10
  -2   5 -12  311.77    9.40
  -2   5 -12  292.87    9.40
  -2   5 -12  307.67    9.50
   2  -5  12  291.47   10.10
   2  -5  12  296.07    8.20
   2  -5  12  301.37    9.10
   2  -5  12  294.17    9.60
   2  -5  12  291.77    9.20
  -3   5 -12    1.40    2.60
  -3   5 -12   -2.30    2.80
  -3   5 -12    1.90    3.20
  -3   5 -12   -2.30    2.60
  -3   5 -12   -2.80    3.40
   3  -5  12   -0.80    2.80
   3  -5  12    3.00    3.40
   3  -5  12   -0.60    3.50
   3  -5  12    3.00    2.70
   3  -5  12   -1.90    3.00
  -4   5 -12   12.30    3.90
  -4   5 -12    5.80    4.20
  -4   5 -12   12.00    2.80
  -4   5 -12    9.00    3.50
  -4   5 -12    7.90    4.50
   4  -5  12   10.70    3.60
   4  -5  12    8.10    3.60
   4  -5  12   12.60    4.60
   4  -5  12   13.60    4.90
   4  -5  12   10.70    4.60
  -5   5 -12   -3.90    3.00
  -5   5 -12   -7.90    4.90
  -5   5 -12   -7.30    4.30
  -5   5 -12   -1.90    5.30
  -5   5 -12    1.10    3.60
   5  -5  12    3.30    4.20
   5  -5  12    2.80    5.90
   5  -5  12    6.40    3.60
   5  -5  12   -0.40    5.60
   5  -5  12   -0.90    3.50
   5   4 -12   16.60    4.10
   5   4 -12   25.60    2.40
   5   4 -12   22.00    2.50
   5   4 -12   22.60    2.50
   4   4 -12    3.10    1.10
   4   4 -12    7.50    1.60
   4   4 -12    6.00    2.10
   4   4 -12    5.90    2.80
   4   4 -12    5.00    1.70
   4   4 -12    4.60    1.80
  -4  -4  12    4.80    1.10
  -4  -4  12    4.80    0.90
   3   4 -12   15.10    2.00
   3   4 -12   17.50    3.00
   3   4 -12   17.90    2.00
   3   4 -12   15.40    2.20
   3   4 -12   15.10    2.20
  -3  -4  12   20.80    2.30
  -3  -4  12   18.10    2.50
  -3  -4  12   17.40    2.00
   2   4 -12  335.27    8.50
   2   4 -12  348.27    8.90
   2   4 -12  333.57    9.90
   2   4 -12  343.27    8.80
   2   4 -12  343.47    8.70
   2   4 -12  332.57    7.90
  -2  -4  12  342.57    8.60
  -2  -4  12  343.67    8.30
  -2  -4  12  338.47    8.70
   1   4 -12   33.60    2.80
   1   4 -12   35.10    3.30
   1   4 -12   31.60    3.40
   1   4 -12   32.90    3.30
   1   4 -12   33.40    3.20
   1   4 -12   33.40    3.40
  -1  -4  12   33.60    3.20
  -1  -4  12   34.90    2.10
  -1  -4  12   33.60    1.70
  -1  -4  12   35.30    3.70
   0   4 -12  695.23   15.40
   0   4 -12  680.23   15.10
   0   4 -12  686.63   15.90
   0   4 -12  658.63   15.20
   0   4 -12  670.43   15.60
   0   4 -12  643.64   15.30
   0  -4  12  680.33   15.10
   0  -4  12  676.53   14.20
   0  -4  12  683.73   13.50
   0  -4  12  664.13   15.80
   0  -4  12  662.43   15.10
  -1   4 -12   79.59    5.40
  -1   4 -12   75.69    4.90
  -1   4 -12   81.49    5.20
  -1   4 -12   75.19    4.80
  -1   4 -12   74.49    5.30
   1  -4  12   79.29    4.90
   1  -4  12   84.19    4.60
   1  -4  12   78.49    5.20
   1  -4  12   85.39    4.30
   1  -4  12   84.59    3.70
  -2   4 -12   -5.40    2.80
  -2   4 -12   -1.70    2.70
  -2   4 -12    0.30    2.30
  -2   4 -12   -3.70    2.20
  -2   4 -12    2.70    2.50
  -2   4 -12   -0.60    2.60
   2  -4  12    2.00    2.30
   2  -4  12    7.10    2.90
   2  -4  12    2.80    2.70
   2  -4  12    3.10    2.10
  -3   4 -12  299.87   10.40
  -3   4 -12  298.77    9.40
  -3   4 -12  313.67   10.90
  -3   4 -12  317.27   10.00
  -3   4 -12  305.27    9.80
  -3   4 -12  298.77   10.20
   3  -4  12  303.07   10.80
   3  -4  12  309.47    9.70
   3  -4  12  311.87    9.80
   3  -4  12  315.87    9.40
   3  -4  12  309.67   10.70
  -4   4 -12    0.30    3.50
  -4   4 -12    5.60    2.80
  -4   4 -12    3.00    4.30
  -4   4 -12    6.30    3.30
  -4   4 -12    3.70    4.10
   4  -4  12    2.00    3.40
   4  -4  12    5.10    3.40
   4  -4  12    1.80    4.50
   4  -4  12    5.30    3.20
   4  -4  12    8.10    4.40
  -5   4 -12   -1.50    5.10
  -5   4 -12    2.20    3.50
  -5   4 -12    0.10    5.50
  -5   4 -12    1.80    3.40
  -5   4 -12   -2.20    3.60
   5  -4  12    5.10    3.50
   5  -4  12   -0.50    5.40
   5  -4  12    5.00    5.00
   5  -4  12   -1.50    3.50
   5  -4  12    8.60    7.20
   6   3 -12    4.70    1.70
   6   3 -12    5.80    3.20
   6   3 -12    2.00    1.60
   6   3 -12    1.40    2.10
   5   3 -12  120.39    4.00
   5   3 -12  128.69    6.80
   5   3 -12  122.19    4.20
   5   3 -12  129.39    5.20
   4   3 -12    3.80    0.80
   4   3 -12    4.50    1.40
   4   3 -12    4.40    1.50
   4   3 -12    3.90    2.20
   4   3 -12    5.60    2.70
   4   3 -12    4.60    1.10
   3   3 -12  278.67    7.30
   3   3 -12  288.67    7.20
   3   3 -12  292.47    8.00
   3   3 -12  294.07    7.20
   3   3 -12  272.37    9.10
   3   3 -12  290.67    6.40
  -3  -3  12  280.97    8.10
  -3  -3  12  286.97    6.70
   2   3 -12   27.80    3.10
   2   3 -12   27.50    3.00
   2   3 -12   24.90    2.40
   2   3 -12   22.70    2.40
   2   3 -12   25.40    2.50
   2   3 -12   24.70    3.10
  -2  -3  12   28.90    2.80
  -2  -3  12   23.20    2.70
  -2  -3  12   25.30    2.60
   1   3 -12  180.98    7.10
   1   3 -12  209.98    6.10
   1   3 -12  205.78    6.50
   1   3 -12  201.58    6.60
   1   3 -12  204.98    6.70
   1   3 -12  197.38    7.50
  -1  -3  12  203.08    4.40
  -1  -3  12  198.88    6.00
  -1  -3  12  198.88    4.40
  -1  -3  12  195.78    7.30
   0   3 -12   13.10    2.90
   0   3 -12   16.00    2.60
   0   3 -12   12.80    2.50
   0   3 -12   14.00    2.40
   0   3 -12   17.70    3.10
   0   3 -12   15.70    2.50
   0  -3  12   16.90    2.40
   0  -3  12   13.80    1.70
   0  -3  12   15.40    2.40
   0  -3  12   15.80    4.40
   0  -3  12   12.40    1.60
  -1   3 -12  159.18    6.60
  -1   3 -12  166.68    6.50
  -1   3 -12  161.08    6.50
  -1   3 -12  160.58    6.80
  -1   3 -12  156.98    6.30
   1  -3  12  152.98    6.00
   1  -3  12  156.48    5.60
   1  -3  12  136.29    7.40
   1  -3  12  146.59    6.30
   1  -3  12  155.58    5.10
  -2   3 -12   53.19    5.30
  -2   3 -12   60.29    4.70
  -2   3 -12   51.99    5.20
  -2   3 -12   54.49    4.80
  -2   3 -12   55.59    5.20
  -2   3 -12   54.29    5.10
   2  -3  12   56.29    4.50
   2  -3  12   59.09    5.30
   2  -3  12   65.99    5.20
   2  -3  12   58.19    5.30
   2  -3  12   54.39    4.70
  -3   3 -12   86.09    6.60
  -3   3 -12   95.89    6.80
  -3   3 -12   86.59    5.80
  -3   3 -12   86.79    6.40
  -3   3 -12   96.59    5.90
  -3   3 -12   88.99    6.00
   3  -3  12   92.39    6.70
   3  -3  12   85.69    6.80
   3  -3  12   86.99    6.40
   3  -3  12   97.19    6.60
   3  -3  12   97.69    5.90
  -4   3 -12    9.60    3.40
  -4   3 -12    1.30    3.00
  -4   3 -12   -0.70    3.80
  -4   3 -12    0.60    3.10
  -4   3 -12    0.70    4.00
  -4   3 -12    4.30    4.40
   4  -3  12   -0.60    3.30
   4  -3  12    0.90    4.60
   4  -3  12    9.00    4.20
   4  -3  12    3.50    3.00
   4  -3  12    0.10    3.40
  -5   3 -12    3.90    4.10
  -5   3 -12    5.40    5.10
  -5   3 -12    2.50    5.70
  -5   3 -12    2.30    3.70
  -5   3 -12   -1.90    3.20
   5  -3  12    0.00    5.40
   5  -3  12    2.70    3.70
   5  -3  12   11.90    4.20
   5  -3  12   16.50    6.40
   6   2 -12   14.30    1.40
   6   2 -12   18.40    1.70
   6   2 -12   16.50    4.30
   6   2 -12   21.40    3.30
   5   2 -12  124.79    3.90
   5   2 -12  117.89    3.90
   5   2 -12  129.09    6.80
   5   2 -12  133.49    5.70
   4   2 -12  134.09    4.40
   4   2 -12  133.69    5.30
   4   2 -12  130.39    4.30
   4   2 -12  134.39    6.60
   3   2 -12    3.60    1.60
   3   2 -12    6.00    1.60
   3   2 -12    7.40    2.00
   3   2 -12    1.40    1.00
   3   2 -12    2.40    2.60
   3   2 -12    5.80    1.40
  -3  -2  12    3.50    1.00
  -3  -2  12    3.90    1.10
  -3  -2  12    5.70    2.20
   2   2 -12  219.98    6.10
   2   2 -12  224.08    8.00
   2   2 -12  229.78    6.40
   2   2 -12  232.08    6.60
   2   2 -12  217.18    7.00
   2   2 -12  228.28    6.30
  -2  -2  12  228.08    7.10
  -2  -2  12  219.98    6.00
  -2  -2  12  241.68    8.40
   1   2 -12    4.40    1.70
   1   2 -12   -0.70    2.30
   1   2 -12    2.90    1.90
   1   2 -12    3.30    1.70
   1   2 -12    4.50    1.70
   1   2 -12    4.30    2.60
  -1  -2  12    3.10    0.70
  -1  -2  12    3.70    1.60
  -1  -2  12    2.40    0.70
  -1  -2  12    2.30    1.80
   0   2 -12  156.98    6.10
   0   2 -12  156.18    6.00
   0   2 -12  163.48    6.30
   0   2 -12  178.48    6.30
   0   2 -12  158.28    6.50
   0   2 -12  151.58    6.90
   0  -2  12  166.88    4.60
   0  -2  12  164.88    6.00
   0  -2  12  129.79    6.50
   0  -2  12  159.38    4.60
  -1   2 -12  189.68    7.40
  -1   2 -12  175.08    6.90
  -1   2 -12  167.28    7.00
  -1   2 -12  168.18    6.70
  -1   2 -12  178.48    6.90
   1  -2  12  175.28    5.80
   1  -2  12  183.48    5.60
   1  -2  12  168.88    6.30
   1  -2  12  181.38    7.20
   1  -2  12  167.28    6.80
  -2   2 -12  197.28    7.80
  -2   2 -12  205.08    7.60
  -2   2 -12  198.08    7.80
  -2   2 -12  204.48    8.70
  -2   2 -12  198.58    7.20
  -2   2 -12  200.48    8.00
   2  -2  12  175.68    9.90
   2  -2  12  187.58    8.10
   2  -2  12  197.58    7.10
   2  -2  12  190.48    7.70
   2  -2  12  197.68    6.80
  -3   2 -12   -0.50    3.60
  -3   2 -12    5.60    3.10
  -3   2 -12    5.10    2.90
  -3   2 -12    4.90    3.50
  -3   2 -12    2.80    3.20
  -3   2 -12    6.80    3.10
   3  -2  12    3.00    2.60
   3  -2  12    1.80    2.90
   3  -2  12    7.30    2.60
   3  -2  12   -0.80    3.20
   3  -2  12    5.50    3.70
  -4   2 -12   42.70    4.70
  -4   2 -12   43.80    5.10
  -4   2 -12   37.00    5.10
  -4   2 -12   40.10    5.90
  -4   2 -12   31.60    4.20
  -4   2 -12   40.90    4.80
   4  -2  12   31.50    5.20
   4  -2  12   40.20    4.80
   4  -2  12   40.70    4.30
   4  -2  12   39.60    5.80
   4  -2  12   35.20    5.30
   6   1 -12    8.10    3.50
   6   1 -12    5.00    0.90
   6   1 -12    4.20    1.20
   6   1 -12    4.70    3.10
   5   1 -12   64.69    5.00
   5   1 -12   69.19    6.80
   5   1 -12   63.29    2.90
   5   1 -12   63.99    2.80
   4   1 -12    0.40    2.60
   4   1 -12    1.90    2.70
   4   1 -12    1.30    1.40
   4   1 -12    3.00    1.60
   3   1 -12    5.30    2.30
   3   1 -12    3.90    2.60
   3   1 -12    9.50    2.00
   3   1 -12    5.80    1.20
   3   1 -12    7.10    1.20
   3   1 -12    8.60    1.70
  -3  -1  12    5.60    1.30
  -3  -1  12    7.30    1.10
   2   1 -12   10.00    2.00
   2   1 -12   12.90    1.90
   2   1 -12    7.70    1.60
   2   1 -12    8.90    2.00
   2   1 -12   13.30    2.90
   2   1 -12    7.70    2.30
  -2  -1  12   11.10    2.00
  -2  -1  12   12.60    2.40
  -2  -1  12    9.70    1.70
   1   1 -12  131.39    5.20
   1   1 -12  131.39    5.10
   1   1 -12  129.29    5.60
   1   1 -12  136.29    5.40
   1   1 -12  123.79    4.80
   1   1 -12  120.99    6.30
  -1  -1  12  124.79    2.90
  -1  -1  12  118.09    5.10
  -1  -1  12  115.19    4.80
  -1  -1  12  132.89    6.20
  -1  -1  12  125.49    2.90
   0   1 -12  675.83   15.50
   0   1 -12  682.13   15.60
   0   1 -12  684.33   15.20
   0   1 -12  667.73   16.20
   0   1 -12  668.53   15.30
   0   1 -12  675.83   15.60
   0  -1  12  680.23   13.50
   0  -1  12  691.63   15.70
   0  -1  12  674.83   15.20
   0  -1  12  667.63   13.80
   0  -1  12  667.83   15.10
  -1   1 -12  246.78    8.00
  -1   1 -12  229.98    8.60
  -1   1 -12  238.28    8.40
  -1   1 -12  238.18    8.30
  -1   1 -12  237.58    8.00
  -1   1 -12  242.38    8.20
   1  -1  12  245.78    7.90
   1  -1  12  238.38    6.90
   1  -1  12  240.08    6.50
   1  -1  12  237.68    8.40
   1  -1  12  240.18    7.70
  -2   1 -12   22.80    3.70
  -2   1 -12   27.80    3.60
  -2   1 -12   24.30    4.30
  -2   1 -12   21.70    3.20
  -2   1 -12   25.50    3.60
  -2   1 -12   26.50    4.20
   2  -1  12   29.60    4.10
   2  -1  12   30.10    3.70
   2  -1  12   29.40    3.60
   2  -1  12   25.60    2.70
   2  -1  12   23.60    3.10
  -3   1 -12    1.70    3.10
  -3   1 -12    1.70    3.10
  -3   1 -12    2.50    3.90
  -3   1 -12    3.50    2.80
  -3   1 -12    0.00    3.30
  -3   1 -12    5.90    3.70
   3  -1  12   10.40    3.70
   3  -1  12    9.20    3.50
   3  -1  12    3.40    2.70
   3  -1  12    5.30    2.60
   3  -1  12    7.20    4.20
  -4   1 -12    0.80    5.00
  -4   1 -12   -2.50    3.70
  -4   1 -12    2.60    3.20
  -4   1 -12    6.10    4.10
  -4   1 -12    8.80    4.20
  -4   1 -12   -3.70    4.50
   4  -1  12    2.50    3.10
   4  -1  12    0.70    3.70
   4  -1  12    0.40    4.00
   4  -1  12   -1.20    4.20
   4  -1  12    1.90    5.00
   6   0 -12   17.70    4.50
   6   0 -12   17.40    3.80
   6   0 -12   17.80    1.20
   6   0 -12   15.60    1.20
   5   0 -12   14.10    1.60
   5   0 -12   11.40    3.60
   5   0 -12    8.00    3.20
   5   0 -12    9.30    1.40
   4   0 -12    9.60    1.70
   4   0 -12    6.10    2.90
   4   0 -12   15.40    3.40
   4   0 -12    9.30    1.60
   3   0 -12   78.49    3.30
   3   0 -12   80.19    4.80
   3   0 -12   82.49    2.80
   3   0 -12   83.99    3.70
   3   0 -12   78.79    6.00
  -3   0  12   92.09    3.30
  -3   0  12   82.19    2.70
   2   0 -12    6.20    1.80
   2   0 -12    4.20    2.60
   2   0 -12    4.20    1.80
   2   0 -12    4.50    1.30
   2   0 -12    2.90    2.80
  -2   0  12    1.40    2.20
  -2   0  12    7.20    1.60
  -2   0  12    5.30    2.00
   1   0 -12   27.10    2.90
   1   0 -12   30.90    3.10
   1   0 -12   33.50    3.00
   1   0 -12   31.30    3.80
   1   0 -12   30.30    3.20
  -1   0  12   29.60    1.60
  -1   0  12   31.80    2.90
  -1   0  12   28.10    3.00
  -1   0  12   32.00    3.20
  -1   0  12   30.80    1.50
   0   0 -12  506.65   13.00
   0   0 -12  495.95   12.70
   0   0 -12  487.15   11.90
   0   0 -12  467.65   14.00
   0   0 -12  508.75   12.00
   0   0  12  492.65   11.90
   0   0  12  495.35   10.20
   0   0  12  486.65   12.50
   0   0  12  492.55   12.20
   0   0  12  500.25   10.90
  -1   0 -12   18.00    3.50
  -1   0 -12   16.20    2.90
  -1   0 -12   17.30    3.20
  -1   0 -12   16.60    2.70
  -1   0 -12   16.30    3.20
   1   0  12   15.20    2.80
   1   0  12   18.20    2.00
   1   0  12   20.50    2.90
   1   0  12   19.80    4.00
   1   0  12   18.50    3.30
  -2   0 -12  137.79    7.00
  -2   0 -12  142.39    6.40
  -2   0 -12  146.89    6.80
  -2   0 -12  138.39    7.80
  -2   0 -12  131.79    7.30
   2   0  12  135.29    5.30
   2   0  12  141.19    7.40
   2   0  12  132.29    6.50
   2   0  12  131.99    7.70
   2   0  12  146.59    6.30
  -3   0 -12   46.60    5.70
  -3   0 -12   33.10    4.70
  -3   0 -12   28.70    4.30
  -3   0 -12   37.00    5.10
  -3   0 -12   31.90    3.90
   3   0  12   37.20    4.20
   3   0  12   36.20    4.10
   3   0  12   33.50    4.50
   3   0  12   35.50    4.40
   3   0  12   32.70    5.20
  -4   0 -12   -4.00    2.90
  -4   0 -12   -3.00    4.20
  -4   0 -12    1.10    4.10
  -4   0 -12    2.60    5.70
  -4   0 -12   -3.90    4.70
  -4   0 -12    4.20    5.00
   4   0  12   -4.30    3.30
   4   0  12    2.00    5.70
   4   0  12    2.20    2.80
   4   0  12   -0.40    4.60
   4   0  12    1.50    3.80
   6  -1 -12   29.50    4.00
   6  -1 -12   30.20    4.40
   6  -1 -12   25.30    1.40
   6  -1 -12   24.00    2.10
   5  -1 -12   22.10    1.90
   5  -1 -12   25.20    3.50
   5  -1 -12   22.40    2.20
   5  -1 -12   11.80    4.60
   4  -1 -12   23.80    2.10
   4  -1 -12   26.90    4.20
   4  -1 -12   24.40    3.40
   4  -1 -12   26.70    2.20
   3  -1 -12  196.58    4.80
   3  -1 -12  174.38    8.20
   3  -1 -12  191.08    5.70
   3  -1 -12  189.28    5.50
   3  -1 -12  198.78    6.00
   3  -1 -12  186.18    7.10
  -3   1  12  192.68    5.00
  -3   1  12  200.28    5.10
   2  -1 -12   74.39    4.00
   2  -1 -12   66.29    4.20
   2  -1 -12   69.99    3.20
   2  -1 -12   80.79    5.00
   2  -1 -12   66.29    3.90
  -2   1  12   72.59    4.20
  -2   1  12   70.89    3.50
   1  -1 -12  297.07    8.60
   1  -1 -12  304.97    8.90
   1  -1 -12  320.27    8.20
   1  -1 -12  320.87    8.80
   1  -1 -12  308.47    9.30
  -1   1  12  314.27    6.60
  -1   1  12  314.87    6.40
  -1   1  12  305.07    8.20
  -1   1  12  324.77    9.80
  -1   1  12  304.57    9.00
   0  -1 -12   53.49    4.30
   0  -1 -12   52.09    5.60
   0  -1 -12   50.69    4.80
   0  -1 -12   44.10    3.90
   0   1  12   47.80    3.80
   0   1  12   51.39    3.60
   0   1  12   50.59    2.60
   0   1  12   46.20    4.60
   0   1  12   42.40    4.30
  -1  -1 -12  294.57    9.80
  -1  -1 -12  305.47   10.40
  -1  -1 -12  303.97   10.00
  -1  -1 -12  307.47    9.20
  -1  -1 -12  301.07    8.90
   1   1  12  305.57   10.20
   1   1  12  307.07    9.00
   1   1  12  310.77    9.40
   1   1  12  302.37    9.20
  -2  -1 -12  300.07   10.30
  -2  -1 -12  289.07   11.20
  -2  -1 -12  294.57    9.70
  -2  -1 -12  295.57   10.70
  -2  -1 -12  290.77    9.70
   2   1  12  310.67    8.20
   2   1  12  301.27   10.00
   2   1  12  291.07    9.40
   2   1  12  301.67   11.20
   2   1  12  308.27   10.30
  -3  -1 -12   88.09    8.70
  -3  -1 -12   85.69    5.90
  -3  -1 -12   80.69    6.60
  -3  -1 -12   73.49    6.90
  -3  -1 -12   92.19    8.90
   3   1  12   78.09    6.10
   3   1  12   85.39    7.20
   3   1  12   82.09    5.80
   3   1  12   78.39    8.20
   3   1  12   78.99    8.20
   5  -2 -12   40.80    2.80
   5  -2 -12   40.00    3.20
   5  -2 -12   41.60    5.00
   5  -2 -12   51.99    5.70
   4  -2 -12   16.30    1.50
   4  -2 -12   17.00    2.30
   4  -2 -12   16.90    1.70
   4  -2 -12   14.30    4.00
   4  -2 -12   18.20    4.10
   4  -2 -12   16.80    2.10
   3  -2 -12  122.29    6.40
   3  -2 -12  129.49    3.90
   3  -2 -12  122.09    4.70
   3  -2 -12  123.89    4.90
   3  -2 -12  125.29    5.00
  -3   2  12  127.59    4.50
  -3   2  12  123.09    4.60
   2  -2 -12    1.30    1.70
   2  -2 -12    2.90    1.50
   2  -2 -12    3.00    2.20
   2  -2 -12    3.30    2.80
   2  -2 -12    4.80    2.60
  -2   2  12    3.60    2.50
  -2   2  12    4.60    2.00
   1  -2 -12    9.30    3.00
   1  -2 -12    2.60    2.90
   1  -2 -12    5.00    2.70
   1  -2 -12    4.40    1.70
  -1   2  12    4.80    1.10
  -1   2  12    4.00    2.00
  -1   2  12    6.20    1.40
   0  -2 -12   18.70    2.70
   0  -2 -12   15.80    3.40
   0  -2 -12   12.70    3.10
   0  -2 -12   16.80    3.50
   0  -2 -12   12.20    2.40
   0   2  12   16.20    3.30
   0   2  12   13.80    2.50
   0   2  12   11.80    3.70
   0   2  12   15.00    2.70
   0   2  12   18.20    1.90
  -1  -2 -12  141.39    6.30
  -1  -2 -12  153.28    7.10
  -1  -2 -12  141.29    7.50
  -1  -2 -12  154.38    8.20
   1   2  12  151.18    7.00
   1   2  12  149.88    6.40
   1   2  12  144.79    7.00
   1   2  12  150.98    9.00
   1   2  12  145.19    5.70
  -2  -2 -12   18.40    3.40
  -2  -2 -12   11.60    4.40
  -2  -2 -12   23.30    5.30
  -2  -2 -12   29.30    5.30
  -2  -2 -12   32.50    4.10
   2   2  12   22.10    2.70
   2   2  12   26.70    4.40
   2   2  12   31.60    4.30
   2   2  12   24.50    5.10
   2   2  12   19.30    4.50
  -3  -2 -12  146.19    7.10
  -3  -2 -12  168.38    9.00
  -3  -2 -12  182.08    8.70
  -3  -2 -12  161.38   11.00
  -3  -2 -12  168.78    9.10
   3   2  12  150.98   11.10
   3   2  12  161.88    9.10
   3   2  12  165.78    9.40
   3   2  12  167.18    6.60
   3   2  12  169.48    8.30
   5  -3 -12   20.90    2.50
   5  -3 -12   22.60    2.20
   5  -3 -12   19.30    4.80
   5  -3 -12   23.00    5.80
   4  -3 -12   41.40    3.40
   4  -3 -12   41.60    3.80
   4  -3 -12   45.60    4.20
   4  -3 -12   51.19    5.70
   4  -3 -12   43.80    2.60
   3  -3 -12   17.50    2.90
   3  -3 -12   19.20    2.70
   3  -3 -12   22.90    2.40
   3  -3 -12   27.20    4.40
   3  -3 -12   23.30    3.00
  -3   3  12   14.60    2.30
  -3   3  12   16.80    2.70
   2  -3 -12  109.29    6.40
   2  -3 -12  101.79    5.50
   2  -3 -12  107.49    4.00
   2  -3 -12  105.99    5.10
   2  -3 -12   92.19    5.90
  -2   3  12  101.69    5.40
  -2   3  12  107.29    5.50
   1  -3 -12  130.89    7.30
   1  -3 -12  128.09    4.90
   1  -3 -12  120.79    6.30
   1  -3 -12  127.09    6.80
   1  -3 -12  125.29    5.40
  -1   3  12  131.89    4.50
  -1   3  12  121.19    5.70
  -1   3  12  128.99    3.80
   0  -3 -12  105.39    7.00
   0  -3 -12  100.49    5.90
   0  -3 -12   98.09    6.80
   0  -3 -12  106.89    5.20
   0  -3 -12   96.59    6.50
   0   3  12   95.59    5.80
   0   3  12  110.79    5.00
   0   3  12   98.99    7.60
   0   3  12  109.59    4.20
  -1  -3 -12    0.80    2.80
  -1  -3 -12    5.30    2.90
  -1  -3 -12    1.10    3.80
  -1  -3 -12    1.10    4.20
  -1  -3 -12    0.20    3.60
   1   3  12    2.80    2.20
   1   3  12    9.10    3.80
   1   3  12    3.00    3.60
   1   3  12   -0.30    3.30
   1   3  12    3.30    4.10
  -2  -3 -12   36.50    3.90
  -2  -3 -12   33.90    6.10
  -2  -3 -12   35.90    5.80
  -2  -3 -12   36.60    5.00
   2   3  12   29.20    5.50
   2   3  12   37.30    3.60
   2   3  12   32.40    4.80
   2   3  12   47.10    6.50
   2   3  12   36.70    5.10
   4  -4 -12    7.10    3.10
   4  -4 -12    3.40    3.70
   4  -4 -12    5.70    2.80
   4  -4 -12    6.40    1.90
   4  -4 -12    6.40    2.40
  -4   4  12    5.10    2.30
  -4   4  12    8.30    2.00
   3  -4 -12   48.90    4.30
   3  -4 -12   46.80    4.00
   3  -4 -12   49.20    5.20
   3  -4 -12   47.80    4.90
   3  -4 -12   38.50    3.30
  -3   4  12   40.10    3.90
  -3   4  12   42.50    4.20
   2  -4 -12   60.49    3.90
   2  -4 -12   68.49    6.00
   2  -4 -12   65.39    5.40
   2  -4 -12   68.69    6.20
   2  -4 -12   55.69    4.40
  -2   4  12   55.49    5.90
  -2   4  12   63.79    5.50
   1  -4 -12   10.10    2.30
   1  -4 -12   13.80    3.80
   1  -4 -12   13.10    3.30
   1  -4 -12   14.40    3.90
   1  -4 -12    9.00    3.60
  -1   4  12   16.50    2.50
  -1   4  12   10.60    1.80
  -1   4  12   10.80    3.50
  -1   4  12   14.10    3.30
   0  -4 -12   43.70    6.00
   0  -4 -12   39.00    3.70
   0  -4 -12   39.50    3.80
   0  -4 -12   41.10    5.00
   0  -4 -12   38.90    4.70
   0   4  12   40.40    4.60
   0   4  12   53.69    5.20
   0   4  12   36.50    3.60
   0   4  12   40.50    4.20
  -1  -4 -12    4.30    4.10
  -1  -4 -12    0.10    3.10
  -1  -4 -12   -3.00    4.70
  -1  -4 -12   -2.20    2.80
  -1  -4 -12   -2.20    4.60
   1   4  12   -1.10    4.50
   1   4  12   -0.90    4.50
   1   4  12   -0.40    2.60
   1   4  12    8.80    3.90
   3  -5 -12   43.30    4.20
   3  -5 -12   37.30    4.30
   3  -5 -12   43.00    3.90
   3  -5 -12   45.30    5.20
   3  -5 -12   42.40    4.80
  -3   5  12   34.10    3.50
   2  -5 -12   14.10    4.10
   2  -5 -12   16.00    3.80
   2  -5 -12   14.00    4.40
   2  -5 -12   19.80    3.60
  -2   5  12   14.60    3.50
  -2   5  12   -1.40    4.00
   1  -5 -12    2.10    3.40
   1  -5 -12    4.90    3.00
   1  -5 -12    6.30    3.60
   1  -5 -12   -4.00    2.70
   1  -5 -12   -1.10    4.30
  -1   5  12    3.80    2.40
  -1   5  12   -2.50    3.90
  -1   5  12   -3.20    2.90
  -1   5  12    1.50    1.80
   0  -5 -12    5.70    5.00
   0  10 -13    5.30    3.20
   0  10 -13    8.10    6.50
   0  10 -13    3.40    4.30
   0  10 -13    2.90    2.80
   0 -10  13    5.00    4.40
   0 -10  13    4.00    3.90
   0 -10  13    6.10    2.50
   0 -10  13   -7.70    4.00
   0 -10  13    1.70    4.40
  -1  10 -13    6.60    3.00
  -1  10 -13   -8.10    5.20
  -1  10 -13    4.90    3.00
   1 -10  13   10.70    4.20
   1 -10  13    4.00    4.90
   1 -10  13    6.50    3.40
   1 -10  13   -1.10    5.10
   1 -10  13    6.00    4.60
   1 -10  13   -4.90    4.30
   2   9 -13   22.30    4.60
   2   9 -13   21.80    3.50
   2   9 -13   18.30    3.30
   2   9 -13   19.90    2.70
   2   9 -13   26.50    5.10
  -2  -9  13   19.40    3.40
  -2  -9  13   19.70    2.20
   1   9 -13    0.30    5.00
   1   9 -13    8.00    2.40
   1   9 -13    6.40    3.00
   1   9 -13   10.30    3.00
   1   9 -13    6.40    4.10
  -1  -9  13    8.30    2.90
  -1  -9  13   10.00    4.50
  -1  -9  13   14.90    4.00
  -1  -9  13   13.40    4.20
  -1  -9  13    7.40    2.50
   0   9 -13   93.99    8.30
   0   9 -13  101.29    7.00
   0   9 -13   84.19    5.80
   0   9 -13   91.19    6.20
   0   9 -13   83.19    5.80
   0  -9  13   88.89    5.10
   0  -9  13   86.49    7.60
   0  -9  13   82.09    8.30
   0  -9  13   90.89    6.90
   0  -9  13   84.89    7.20
   0  -9  13   90.49    7.20
  -1   9 -13   -2.00    4.20
  -1   9 -13    3.10    2.70
  -1   9 -13   -5.70    5.80
  -1   9 -13   -1.20    3.10
  -1   9 -13    2.20    3.10
   1  -9  13   -0.20    3.80
   1  -9  13   -4.50    4.40
   1  -9  13   -1.10    3.30
   1  -9  13    3.40    2.90
   1  -9  13    6.20    4.60
   1  -9  13   -2.80    3.50
  -2   9 -13   11.20    4.00
  -2   9 -13    3.10    3.40
  -2   9 -13    8.70    3.10
  -2   9 -13    1.00    3.60
   2  -9  13    8.50    4.80
   2  -9  13    7.00    3.80
   2  -9  13    1.20    5.10
   2  -9  13   11.90    4.30
   2  -9  13    8.80    4.40
   2  -9  13    4.10    2.60
  -3   9 -13   39.20    4.00
  -3   9 -13   41.10    7.00
  -3   9 -13   42.00    4.90
   3  -9  13   42.60    4.80
   3  -9  13   44.10    7.20
   3  -9  13   41.90    5.30
   3  -9  13   41.30    6.00
   3   8 -13   10.10    3.10
   3   8 -13   13.70    3.40
   3   8 -13   18.50    4.40
   3   8 -13   10.30    2.30
   3   8 -13   13.00    2.90
  -3  -8  13   11.90    4.90
  -3  -8  13   16.20    3.60
  -3  -8  13   -1.10    3.40
   2   8 -13    0.40    3.20
   2   8 -13    7.40    2.70
   2   8 -13    8.30    3.00
   2   8 -13    8.00    1.90
   2   8 -13    1.40    3.20
  -2  -8  13    3.00    2.00
  -2  -8  13    3.00    1.40
  -2  -8  13    1.10    4.30
  -2  -8  13    5.60    3.10
  -2  -8  13    7.90    3.30
   1   8 -13   32.00    3.80
   1   8 -13   36.90    3.60
   1   8 -13   34.90    4.60
   1   8 -13   32.40    3.00
   1   8 -13   34.00    4.00
  -1  -8  13   35.90    3.90
  -1  -8  13   37.50    3.10
  -1  -8  13   36.00    4.40
  -1  -8  13   25.40    5.10
  -1  -8  13   36.10    3.80
  -1  -8  13   31.00    3.70
   0   8 -13   44.30    4.80
   0   8 -13   49.60    5.40
   0   8 -13   47.50    4.50
   0   8 -13   48.20    4.20
   0   8 -13   49.10    5.20
   0  -8  13   40.80    5.40
   0  -8  13   45.40    4.90
   0  -8  13   53.29    5.20
   0  -8  13   48.60    4.60
   0  -8  13   47.90    5.00
   0  -8  13   55.89    4.00
  -1   8 -13  319.17    9.60
  -1   8 -13  311.27   11.10
  -1   8 -13  333.87   10.20
  -1   8 -13  316.07   10.00
  -1   8 -13  323.57   12.00
   1  -8  13  322.77   11.70
   1  -8  13  326.67    8.50
   1  -8  13  315.17   10.30
   1  -8  13  313.47   11.60
   1  -8  13  318.17   10.70
   1  -8  13  321.07   10.90
  -2   8 -13   78.29    6.90
  -2   8 -13   67.29    6.00
  -2   8 -13   70.09    5.90
  -2   8 -13   69.99    5.70
  -2   8 -13   69.09    6.70
   2  -8  13   67.29    7.20
   2  -8  13   78.79    6.70
   2  -8  13   67.49    6.60
   2  -8  13   76.39    6.60
   2  -8  13   61.99    4.60
  -3   8 -13   33.00    4.40
  -3   8 -13   42.60    4.90
  -3   8 -13   42.40    4.90
  -3   8 -13   49.50    6.60
  -3   8 -13   49.30    5.10
   3  -8  13   32.10    5.40
   3  -8  13   37.90    4.70
   3  -8  13   34.80    3.80
   3  -8  13   40.00    6.30
   3  -8  13   37.10    5.20
   4   7 -13   13.90    3.10
   4   7 -13   14.00    2.20
   4   7 -13    9.50    3.60
   4   7 -13    8.30    3.60
   4   7 -13   14.20    3.00
  -4  -7  13    1.70    2.80
  -4  -7  13   16.70    5.10
  -4  -7  13   10.40    3.20
   3   7 -13    7.20    2.10
   3   7 -13    2.00    2.70
   3   7 -13    3.60    2.50
   3   7 -13    8.80    3.30
   3   7 -13    2.10    2.80
  -3  -7  13    6.40    5.40
  -3  -7  13   -2.00    3.00
  -3  -7  13    6.20    3.10
  -3  -7  13   11.40    2.40
   2   7 -13  120.49    6.00
   2   7 -13  107.59    6.60
   2   7 -13  128.69    6.40
   2   7 -13  124.69   10.30
  -2  -7  13  104.99    8.30
  -2  -7  13  118.29    5.90
  -2  -7  13   97.09    8.70
  -2  -7  13  113.69    2.70
  -2  -7  13  125.19    6.20
  -2  -7  13  115.19    3.00
   1   7 -13   30.50    3.40
   1   7 -13   28.80    3.40
   1   7 -13   23.00    4.40
   1   7 -13   31.30    3.30
   1   7 -13   33.80    3.70
  -1  -7  13   28.90    4.60
  -1  -7  13   31.90    3.60
  -1  -7  13   31.20    3.80
  -1  -7  13   30.20    2.30
  -1  -7  13   22.00    3.40
  -1  -7  13   28.50    3.20
   0   7 -13    6.50    2.30
   0   7 -13    5.00    3.30
   0   7 -13   -2.80    3.10
   0   7 -13    2.60    3.20
   0   7 -13   -1.00    2.80
   0  -7  13    0.40    1.70
   0  -7  13    2.50    2.70
   0  -7  13    7.00    3.80
   0  -7  13    3.40    2.60
  -1   7 -13    3.00    3.60
  -1   7 -13    6.30    2.80
  -1   7 -13    3.40    2.90
  -1   7 -13    4.80    3.10
  -1   7 -13    7.20    2.90
   1  -7  13   10.60    3.00
   1  -7  13    5.10    3.10
   1  -7  13    6.80    2.90
   1  -7  13    5.40    2.20
   1  -7  13    7.50    3.60
  -2   7 -13   60.19    5.70
  -2   7 -13   56.19    5.50
  -2   7 -13   56.19    5.80
  -2   7 -13   54.59    5.60
  -2   7 -13   49.40    4.60
   2  -7  13   57.69    5.80
   2  -7  13   55.09    5.80
   2  -7  13   52.99    5.80
   2  -7  13   53.29    5.80
   2  -7  13   47.10    4.30
  -3   7 -13   21.80    3.90
  -3   7 -13    9.80    4.80
  -3   7 -13   14.60    4.00
  -3   7 -13   15.00    4.20
  -3   7 -13   21.40    4.20
   3  -7  13    8.90    4.00
   3  -7  13   11.10    4.70
   3  -7  13   13.70    3.10
   3  -7  13   19.80    4.30
   3  -7  13   18.50    5.00
  -4   7 -13    1.20    3.10
  -4   7 -13   20.40    7.10
  -4   7 -13    0.00    3.50
  -4   7 -13    0.30    3.20
  -4   7 -13   -0.90    4.40
   4  -7  13   -6.30    5.60
   4  -7  13    4.00    3.90
   4  -7  13    2.50    5.10
   4   6 -13   34.80    3.50
   4   6 -13   35.20    4.40
   4   6 -13   36.30    3.40
   4   6 -13   36.70    4.10
   4   6 -13   36.90    3.70
  -4  -6  13   39.50    4.10
  -4  -6  13   32.60    2.90
   3   6 -13   12.80    2.70
   3   6 -13   13.70    3.20
   3   6 -13   12.90    1.90
   3   6 -13   15.10    3.50
  -3  -6  13    8.90    3.10
  -3  -6  13   16.90    3.10
  -3  -6  13   13.60    2.50
   2   6 -13  109.99    5.00
   2   6 -13  100.79    6.40
   2   6 -13  100.19    4.90
   2   6 -13  102.99    6.00
   2   6 -13  109.89    4.40
  -2  -6  13  109.69    6.30
  -2  -6  13  113.89    5.70
  -2  -6  13  102.99    5.80
   1   6 -13  106.19    5.40
   1   6 -13  105.69    6.20
   1   6 -13  113.29    4.60
   1   6 -13  115.19    5.50
   1   6 -13  124.79    6.00
   1   6 -13  117.19    5.30
  -1  -6  13  114.49    3.60
  -1  -6  13  119.99    5.00
  -1  -6  13  105.79    4.40
  -1  -6  13  112.79    5.80
   0   6 -13    7.90    2.70
   0   6 -13   10.80    3.20
   0   6 -13    8.00    2.40
   0   6 -13    7.30    3.00
   0   6 -13    7.00    2.50
   0   6 -13    9.30    3.00
   0  -6  13    6.00    1.50
   0  -6  13   11.00    2.60
   0  -6  13   11.30    2.70
   0  -6  13    7.70    2.50
   0  -6  13    9.50    2.90
  -1   6 -13   59.39    6.20
  -1   6 -13   54.09    5.20
  -1   6 -13   47.40    5.00
  -1   6 -13   56.19    4.80
  -1   6 -13   58.19    5.10
   1  -6  13   53.69    5.20
   1  -6  13   60.29    5.70
   1  -6  13   55.29    3.40
   1  -6  13   55.49    5.00
   1  -6  13   53.19    4.50
  -2   6 -13   74.49    5.90
  -2   6 -13   76.49    5.70
  -2   6 -13   71.59    7.00
  -2   6 -13   68.49    5.80
  -2   6 -13   87.49    6.00
   2  -6  13   65.49    5.60
   2  -6  13   68.19    6.60
   2  -6  13   77.39    4.50
   2  -6  13   87.69    6.20
   2  -6  13   71.29    6.40
  -3   6 -13  166.28    8.00
  -3   6 -13  167.88    8.20
  -3   6 -13  165.88    8.60
  -3   6 -13  171.88    9.90
  -3   6 -13  173.08    8.90
   3  -6  13  182.18    9.60
   3  -6  13  185.88    7.80
   3  -6  13  161.58    8.10
   3  -6  13  184.18    8.90
   3  -6  13  175.08    9.00
  -4   6 -13    9.50    3.60
  -4   6 -13    2.90    3.70
  -4   6 -13   14.80    5.40
  -4   6 -13    6.60    3.70
  -4   6 -13    6.90    4.90
   4  -6  13    3.30    5.10
   4  -6  13    5.40    4.10
   4  -6  13    9.20    3.70
   4  -6  13    9.90    5.40
   4  -6  13    0.20    3.30
   5   5 -13   -1.70    4.10
   5   5 -13    0.60    2.00
   5   5 -13    1.30    1.50
   4   5 -13   39.60    3.60
   4   5 -13   38.40    3.30
   4   5 -13   41.80    2.80
   4   5 -13   43.00    4.90
   4   5 -13   41.90    4.20
   4   5 -13   39.00    4.00
  -4  -5  13   41.70    3.10
  -4  -5  13   38.10    2.90
   3   5 -13   48.80    4.30
   3   5 -13   51.49    4.30
   3   5 -13   49.10    5.50
   3   5 -13   58.99    4.10
   3   5 -13   50.79    3.90
   3   5 -13   49.90    2.80
  -3  -5  13   49.40    3.90
  -3  -5  13   48.40    4.20
  -3  -5  13   46.60    4.30
   2   5 -13    2.20    1.60
   2   5 -13    3.40    2.10
   2   5 -13    0.40    2.80
   2   5 -13    4.00    2.80
   2   5 -13    0.90    2.20
  -2  -5  13    4.30    2.20
  -2  -5  13    5.30    2.50
   1   5 -13  132.19    5.90
   1   5 -13  139.39    5.00
   1   5 -13  143.79    6.10
   1   5 -13  134.49    6.70
   1   5 -13  139.79    5.90
   1   5 -13  133.89    6.40
  -1  -5  13  131.39    3.60
  -1  -5  13  136.39    6.20
  -1  -5  13  130.09    4.00
   0   5 -13    3.20    2.70
   0   5 -13    6.10    2.30
   0   5 -13    9.30    3.30
   0   5 -13    8.70    3.00
   0   5 -13    2.60    2.20
   0   5 -13    4.90    2.40
   0  -5  13    6.50    2.60
   0  -5  13    8.50    2.30
   0  -5  13    3.60    2.10
   0  -5  13    7.60    2.40
   0  -5  13    6.10    1.30
  -1   5 -13  104.49    5.80
  -1   5 -13   95.99    5.90
  -1   5 -13   96.59    6.40
  -1   5 -13   95.89    5.70
  -1   5 -13   97.59    5.80
  -1   5 -13   97.59    5.60
   1  -5  13   94.39    5.60
   1  -5  13   85.99    5.40
   1  -5  13   90.59    6.10
  -2   5 -13   80.99    6.10
  -2   5 -13   80.69    5.70
  -2   5 -13   84.69    6.90
  -2   5 -13   89.19    6.00
  -2   5 -13   80.79    5.90
  -2   5 -13   78.29    6.00
   2  -5  13   97.59    6.70
   2  -5  13   79.89    4.60
   2  -5  13   79.99    5.40
   2  -5  13   73.09    5.60
   2  -5  13   79.69    6.20
  -3   5 -13   31.40    4.30
  -3   5 -13   22.00    4.80
  -3   5 -13   25.70    3.60
  -3   5 -13   21.70    4.50
  -3   5 -13   20.30    4.50
   3  -5  13   30.10    4.10
   3  -5  13   24.20    4.70
   3  -5  13   21.20    4.00
   3  -5  13   16.30    3.60
   3  -5  13   20.90    4.60
  -4   5 -13   20.80    5.40
  -4   5 -13   13.90    4.10
  -4   5 -13   18.50    4.10
  -4   5 -13   18.10    3.50
  -4   5 -13   16.80    5.40
   4  -5  13   16.00    5.30
   4  -5  13   14.50    5.00
   4  -5  13    9.60    4.50
   4  -5  13   16.80    5.50
   4  -5  13   17.30    4.00
   5   4 -13    2.20    2.60
   5   4 -13    2.40    4.20
   5   4 -13    0.60    2.10
   5   4 -13    0.90    1.60
   4   4 -13   22.50    2.40
   4   4 -13   23.30    2.30
   4   4 -13   24.60    2.30
   4   4 -13   21.80    3.80
   4   4 -13   24.90    2.70
   4   4 -13   22.80    1.90
   3   4 -13    4.00    2.00
   3   4 -13    9.20    2.20
   3   4 -13    9.70    3.30
   3   4 -13    6.10    2.60
   3   4 -13    7.80    1.40
   3   4 -13    6.60    2.10
  -3  -4  13    9.80    2.50
  -3  -4  13    6.00    1.90
  -3  -4  13    5.70    2.00
   2   4 -13  172.58    7.40
   2   4 -13  171.48    6.10
   2   4 -13  173.28    6.30
   2   4 -13  172.28    5.80
   2   4 -13  162.98    5.20
   2   4 -13  162.58    7.30
  -2  -4  13  170.48    5.40
  -2  -4  13  166.98    6.00
  -2  -4  13  167.18    5.80
   1   4 -13  124.69    5.00
   1   4 -13  117.19    6.20
   1   4 -13  119.29    5.60
   1   4 -13  106.89    6.30
   1   4 -13  106.19    5.00
   1   4 -13  121.49    5.60
  -1  -4  13  100.69    7.50
  -1  -4  13  116.19    5.20
  -1  -4  13  114.89    3.20
  -1  -4  13  112.69    3.10
  -1  -4  13  115.89    4.60
   0   4 -13  251.77    8.20
   0   4 -13  257.27    8.50
   0   4 -13  250.97    8.40
   0   4 -13  256.07    8.70
   0   4 -13  242.08    8.00
   0  -4  13  255.77    7.80
   0  -4  13  247.78    6.70
   0  -4  13  250.47    6.10
   0  -4  13  244.38    8.10
   0  -4  13  242.08    7.70
  -1   4 -13   11.20    3.30
  -1   4 -13    9.10    3.10
  -1   4 -13   12.90    3.10
  -1   4 -13    9.70    2.80
  -1   4 -13    9.40    3.40
  -1   4 -13   13.90    2.90
   1  -4  13   10.70    2.50
   1  -4  13    8.20    2.80
   1  -4  13    9.50    1.80
   1  -4  13   10.70    2.70
   1  -4  13   12.70    3.00
  -2   4 -13  144.89    7.40
  -2   4 -13  152.58    7.30
  -2   4 -13  151.48    7.10
  -2   4 -13  151.78    7.20
  -2   4 -13  145.99    6.90
  -2   4 -13  149.39    7.80
   2  -4  13  156.88    7.00
   2  -4  13  153.78    6.70
   2  -4  13  141.19    6.30
   2  -4  13  136.89    7.50
   2  -4  13  156.98    7.60
  -3   4 -13  123.69    7.60
  -3   4 -13  104.39    6.60
  -3   4 -13  106.29    7.90
  -3   4 -13  115.49    7.00
  -3   4 -13  122.09    7.80
  -3   4 -13   98.59    7.10
   3  -4  13  108.99    6.40
   3  -4  13  103.29    6.60
   3  -4  13   97.59    6.20
   3  -4  13  107.99    7.70
   3  -4  13  113.69    9.00
  -4   4 -13   29.80    4.60
  -4   4 -13   31.30    4.40
  -4   4 -13   33.20    4.60
  -4   4 -13   30.40    5.70
  -4   4 -13   29.00    5.50
   4  -4  13   28.10    4.40
   4  -4  13   28.70    4.60
   4  -4  13   35.00    5.70
   4  -4  13   32.70    4.30
   4  -4  13   32.10    5.80
   5   3 -13   26.90    4.20
   5   3 -13   26.70    2.40
   5   3 -13   28.60    2.80
   5   3 -13   23.20    3.50
   4   3 -13    4.10    1.20
   4   3 -13    2.80    1.90
   4   3 -13    7.40    3.40
   4   3 -13    6.90    2.70
   4   3 -13    4.70    2.00
   4   3 -13    3.40    0.90
   3   3 -13   83.19    6.10
   3   3 -13   82.39    2.90
   3   3 -13   80.59    3.90
   3   3 -13   81.39    4.20
   3   3 -13   81.39    4.20
  -3  -3  13   70.29    5.10
  -3  -3  13   75.19    3.00
  -3  -3  13   76.89    3.40
   2   3 -13   37.40    3.80
   2   3 -13   36.70    3.30
   2   3 -13   30.00    3.90
   2   3 -13   36.80    3.50
   2   3 -13   35.50    3.00
   2   3 -13   33.40    3.40
  -2  -3  13   39.80    3.10
  -2  -3  13   31.20    3.20
  -2  -3  13   38.60    3.30
   1   3 -13   93.39    6.00
   1   3 -13  103.19    5.80
   1   3 -13   93.79    5.30
   1   3 -13   98.19    4.70
   1   3 -13   92.89    4.80
   1   3 -13   97.09    4.80
  -1  -3  13   96.89    4.60
  -1  -3  13   94.49    2.60
  -1  -3  13   94.69    4.80
  -1  -3  13   99.79    5.00
  -1  -3  13  100.09    2.50
   0   3 -13    6.50    2.60
   0   3 -13    4.00    2.80
   0   3 -13    6.50    2.40
   0   3 -13    4.10    2.50
   0   3 -13    2.00    2.30
   0   3 -13   10.10    2.80
   0  -3  13    4.20    2.30
   0  -3  13    2.30    1.40
   0  -3  13    4.60    1.60
   0  -3  13    5.10    2.60
   0  -3  13    2.60    2.20
  -1   3 -13   42.90    4.80
  -1   3 -13   45.70    4.90
  -1   3 -13   50.79    5.00
  -1   3 -13   46.20    4.40
  -1   3 -13   55.99    4.70
  -1   3 -13   48.60    4.30
   1  -3  13   49.80    4.80
   1  -3  13   48.30    3.50
   1  -3  13   43.60    4.70
   1  -3  13   52.69    4.40
   1  -3  13   49.99    3.80
  -2   3 -13   32.60    4.40
  -2   3 -13   38.40    4.00
  -2   3 -13   36.20    4.10
  -2   3 -13   36.60    4.90
  -2   3 -13   41.10    4.60
  -2   3 -13   28.80    3.90
   2  -3  13   38.30    4.10
   2  -3  13   42.80    4.90
   2  -3  13   35.30    3.70
   2  -3  13   34.60    4.40
   2  -3  13   45.70    4.50
  -3   3 -13   24.80    4.70
  -3   3 -13   28.40    4.70
  -3   3 -13   18.20    4.70
  -3   3 -13   24.70    3.80
  -3   3 -13   24.30    4.30
  -3   3 -13   18.30    3.70
   3  -3  13   19.90    4.40
   3  -3  13   17.20    3.70
   3  -3  13   28.60    4.80
   3  -3  13   27.10    3.80
   3  -3  13   24.90    4.10
  -4   3 -13   38.20    4.90
  -4   3 -13   23.20    5.90
  -4   3 -13   34.50    4.40
  -4   3 -13   32.60    4.80
  -4   3 -13   24.70    4.70
  -4   3 -13   23.60    5.20
   4  -3  13   31.80    5.90
   4  -3  13   32.70    4.40
   4  -3  13   36.00    5.80
   4  -3  13   21.60    4.10
   4  -3  13   21.70    4.50
   5   2 -13   97.59    7.10
   5   2 -13   97.49    3.80
   5   2 -13   94.29    4.00
   5   2 -13  112.09    6.10
   4   2 -13   62.49    3.70
   4   2 -13   67.99    5.40
   4   2 -13   79.09    6.40
   4   2 -13   67.79    3.80
   3   2 -13  104.89    4.50
   3   2 -13  113.69    6.70
   3   2 -13  106.49    5.40
   3   2 -13  103.59    3.50
   3   2 -13  100.29    3.80
   3   2 -13  105.39    4.80
  -3  -2  13  108.49    3.40
  -3  -2  13  105.19    3.20
   2   2 -13  377.06    9.10
   2   2 -13  387.26   10.30
   2   2 -13  374.66    9.70
   2   2 -13  390.36    9.40
   2   2 -13  366.96   11.40
   2   2 -13  373.26    9.10
  -2  -2  13  378.66    9.00
  -2  -2  13  379.06    9.90
  -2  -2  13  375.46    8.90
   1   2 -13   15.60    2.50
   1   2 -13   20.30    3.00
   1   2 -13   23.10    2.60
   1   2 -13   22.40    3.60
   1   2 -13   17.10    2.90
   1   2 -13   19.90    2.80
  -1  -2  13   18.10    2.60
  -1  -2  13   20.10    1.10
  -1  -2  13   14.70    2.50
  -1  -2  13   21.80    2.70
  -1  -2  13   20.90    1.20
   0   2 -13   -3.30    2.30
   0   2 -13   -1.60    2.90
   0   2 -13   -1.30    2.20
   0   2 -13    3.30    2.70
   0   2 -13   -2.60    2.80
   0   2 -13    3.60    2.90
   0  -2  13   -2.00    1.30
   0  -2  13   -1.70    2.50
   0  -2  13    0.40    1.30
   0  -2  13   -0.50    1.90
   0  -2  13   -0.70    2.10
  -1   2 -13   21.70    3.40
  -1   2 -13   22.30    3.80
  -1   2 -13   17.80    3.50
  -1   2 -13   22.80    3.50
  -1   2 -13   21.00    3.00
  -1   2 -13   17.20    3.20
   1  -2  13   19.00    2.40
   1  -2  13   20.80    2.20
   1  -2  13   28.50    3.70
   1  -2  13   18.00    3.30
   1  -2  13   21.10    3.20
  -2   2 -13   54.89    5.60
  -2   2 -13   49.99    5.10
  -2   2 -13   48.80    4.50
  -2   2 -13   51.99    4.90
  -2   2 -13   54.09    5.30
  -2   2 -13   47.40    4.90
   2  -2  13   52.79    5.50
   2  -2  13   53.79    5.00
   2  -2  13   59.29    5.70
   2  -2  13   54.39    4.80
   2  -2  13   50.99    5.40
  -3   2 -13    1.00    3.50
  -3   2 -13   -3.20    3.10
  -3   2 -13   -3.50    5.30
  -3   2 -13    0.40    3.50
  -3   2 -13    2.80    3.80
  -3   2 -13    1.70    3.70
   3  -2  13   -5.90    3.20
   3  -2  13    1.40    2.80
   3  -2  13   -4.10    2.80
   3  -2  13    5.50    4.40
   3  -2  13   -4.30    3.50
  -4   2 -13  152.58    8.60
  -4   2 -13  139.19    7.40
  -4   2 -13  151.58    9.60
  -4   2 -13  164.08   10.90
  -4   2 -13  171.18    9.90
  -4   2 -13  158.28    8.60
   4  -2  13  164.08   11.50
   4  -2  13  172.08    8.00
   4  -2  13  162.88    8.60
   4  -2  13  161.18    7.60
   4  -2  13  180.58   11.20
   5   1 -13   12.50    2.00
   5   1 -13   11.50    3.50
   5   1 -13   13.50    2.10
   5   1 -13   17.30    4.70
   4   1 -13   86.29    6.70
   4   1 -13   93.29    4.20
   4   1 -13  104.79    6.20
   4   1 -13   99.09    4.20
   3   1 -13    5.50    3.40
   3   1 -13    2.30    2.40
   3   1 -13    5.20    1.50
   3   1 -13    4.70    1.30
   3   1 -13    6.50    2.20
   3   1 -13    3.70    1.90
  -3  -1  13    2.50    1.10
  -3  -1  13    3.80    1.30
   2   1 -13    5.10    2.10
   2   1 -13    3.60    2.60
   2   1 -13    6.20    2.10
   2   1 -13    3.30    2.20
   2   1 -13    4.90    1.80
   2   1 -13    4.30    3.30
  -2  -1  13    7.90    1.70
  -2  -1  13    2.40    2.20
  -2  -1  13    3.30    1.80
   1   1 -13   96.19    6.60
   1   1 -13   99.39    4.70
   1   1 -13  100.79    5.60
   1   1 -13   97.89    5.30
   1   1 -13  107.29    4.70
   1   1 -13  103.59    5.10
  -1  -1  13  103.79    2.50
  -1  -1  13   98.39    5.20
  -1  -1  13  101.29    2.40
  -1  -1  13   98.79    5.00
  -1  -1  13  101.09    4.70
   0   1 -13  197.68    8.60
   0   1 -13  203.88    6.90
   0   1 -13  210.08    7.70
   0   1 -13  204.68    7.00
   0   1 -13  208.28    7.60
   0   1 -13  195.08    7.60
   0  -1  13  193.48    7.20
   0  -1  13  208.88    5.20
   0  -1  13  210.78    5.70
   0  -1  13  210.68    7.00
   0  -1  13  192.68    7.10
  -1   1 -13   96.79    5.60
  -1   1 -13  107.59    7.30
  -1   1 -13  102.49    5.80
  -1   1 -13  104.59    6.30
  -1   1 -13  119.39    7.10
  -1   1 -13   95.59    6.60
   1  -1  13   88.29    7.00
   1  -1  13  111.49    5.70
   1  -1  13  103.59    5.80
   1  -1  13  108.49    5.20
   1  -1  13  106.79    4.20
  -2   1 -13  106.99    7.20
  -2   1 -13   93.49    5.90
  -2   1 -13  108.09    7.60
  -2   1 -13  103.49    6.70
  -2   1 -13  106.09    7.60
  -2   1 -13  118.19    6.70
   2  -1  13  116.89    6.70
   2  -1  13  103.29    5.90
   2  -1  13  108.69    5.40
   2  -1  13  100.19    7.40
   2  -1  13   99.99    6.00
  -3   1 -13    5.50    4.30
  -3   1 -13   -4.20    3.90
  -3   1 -13    2.30    3.70
  -3   1 -13    8.90    5.90
  -3   1 -13    5.20    3.90
  -3   1 -13    6.40    3.30
   3  -1  13    3.90    4.40
   3  -1  13    6.00    4.00
   3  -1  13   12.70    3.70
   3  -1  13    7.10    4.90
   3  -1  13    7.90    4.00
  -4   1 -13    4.20    4.90
  -4   1 -13   -5.60    4.70
  -4   1 -13    0.60    5.60
   4  -1  13    5.50    3.20
   4  -1  13   -3.00    3.70
   4  -1  13    5.40    3.70
   4  -1  13   16.80    8.10
   4  -1  13   11.70    5.20
   5   0 -13    5.10    2.00
   5   0 -13    4.30    1.80
   5   0 -13    6.70    4.90
   5   0 -13    9.10    3.90
   4   0 -13    5.40    2.80
   4   0 -13   -2.80    1.70
   4   0 -13   -2.80    3.30
   4   0 -13   -2.10    1.90
   3   0 -13   60.59    3.70
   3   0 -13   54.29    3.30
   3   0 -13   49.40    3.90
   3   0 -13   58.69    2.50
   3   0 -13   52.79    5.00
   3   0 -13   57.99    6.40
  -3   0  13   58.09    2.70
  -3   0  13   61.39    2.70
   2   0 -13    1.40    1.90
   2   0 -13    4.00    1.40
   2   0 -13    2.30    2.00
   2   0 -13    2.40    2.70
   2   0 -13    1.40    3.30
   2   0 -13    6.40    1.90
  -2   0  13    0.70    1.60
  -2   0  13    3.40    3.00
  -2   0  13    3.30    2.10
   1   0 -13  497.75   14.30
   1   0 -13  515.05   12.10
   1   0 -13  505.75   13.10
   1   0 -13  513.65   12.80
  -1   0  13  497.15   12.80
  -1   0  13  507.85    9.60
  -1   0  13  506.55    9.60
  -1   0  13  499.15   11.90
   0   0 -13   20.20    3.20
   0   0 -13   15.80    3.30
   0   0 -13   22.30    3.30
   0   0 -13   20.40    3.30
   0   0 -13   19.50    3.30
   0   0  13   19.30    3.20
   0   0  13   20.70    2.20
   0   0  13   19.90    2.20
   0   0  13   23.20    3.20
   0   0  13   18.20    3.20
  -1   0 -13  188.98    8.20
  -1   0 -13  203.58    7.90
  -1   0 -13  214.68    8.60
  -1   0 -13  205.78    7.70
  -1   0 -13  206.78    8.70
   1   0  13  198.48    6.70
   1   0  13  206.48    7.70
   1   0  13  200.38    7.60
   1   0  13  203.28    8.70
  -2   0 -13    8.30    3.10
  -2   0 -13    7.00    4.30
  -2   0 -13    9.90    4.00
  -2   0 -13    3.70    4.30
  -2   0 -13    6.20    3.40
   2   0  13    8.00    3.20
   2   0  13    7.30    4.20
   2   0  13    8.90    4.00
   2   0  13    5.90    2.60
   2   0  13    1.90    3.10
  -3   0 -13    0.60    3.60
  -3   0 -13    4.30    5.30
  -3   0 -13    1.70    4.30
  -3   0 -13    1.50    4.10
  -3   0 -13    2.70    4.10
  -3   0 -13   -2.30    3.00
   3   0  13    9.00    5.30
   3   0  13   -6.40    3.80
   3   0  13   -3.50    2.60
   3   0  13    0.60    3.10
   3   0  13   -2.20    4.00
   5  -1 -13    5.60    4.30
   5  -1 -13    8.80    1.80
   5  -1 -13    6.10    3.50
   4  -1 -13   49.10    4.40
   4  -1 -13   43.50    1.70
   4  -1 -13   33.70    3.90
   4  -1 -13   37.20    3.10
   4  -1 -13   46.80    5.10
   3  -1 -13   93.99    3.40
   3  -1 -13   93.99    7.50
   3  -1 -13   94.39    6.10
   3  -1 -13   96.39    4.70
   3  -1 -13   88.49    4.60
   3  -1 -13   88.99    4.40
  -3   1  13   99.59    3.80
  -3   1  13   93.19    3.70
   2  -1 -13    4.60    2.20
   2  -1 -13    1.20    1.70
   2  -1 -13   -1.50    2.00
   2  -1 -13   -1.70    3.00
   2  -1 -13    1.60    2.50
  -2   1  13   -0.20    2.30
  -2   1  13   -0.30    1.80
   1  -1 -13    6.10    2.60
   1  -1 -13    0.70    1.60
   1  -1 -13   -3.60    2.40
   1  -1 -13   -2.60    2.40
   1  -1 -13    0.70    2.90
  -1   1  13    1.80    1.00
  -1   1  13   -0.40    0.90
  -1   1  13    2.00    3.40
  -1   1  13    2.50    1.90
  -1   1  13   -3.20    2.80
   0  -1 -13   61.89    4.50
   0  -1 -13   54.99    4.50
   0  -1 -13   53.79    5.50
   0  -1 -13   64.89    5.70
   0   1  13   48.20    5.20
   0   1  13   56.89    4.50
   0   1  13   48.20    5.00
   0   1  13   58.59    2.90
   0   1  13   64.29    3.90
  -1  -1 -13   -2.50    3.70
  -1  -1 -13    6.60    3.50
  -1  -1 -13   -4.10    2.50
  -1  -1 -13    4.50    2.90
  -1  -1 -13    4.00    3.50
   1   1  13    0.30    3.60
   1   1  13   -0.60    3.30
   1   1  13    2.20    2.90
   1   1  13    3.20    3.10
   1   1  13    0.50    2.80
  -2  -1 -13   45.30    5.70
  -2  -1 -13   39.20    4.20
  -2  -1 -13   38.20    5.70
  -2  -1 -13   26.80    5.50
  -2  -1 -13   35.30    4.30
   2   1  13   42.80    3.80
   2   1  13   39.80    5.80
   2   1  13   35.10    4.60
   2   1  13   33.90    4.30
   2   1  13   42.40    4.50
  -3  -1 -13    3.80    4.20
  -3  -1 -13    7.00    5.50
  -3  -1 -13    2.70    4.70
   3   1  13   11.40    4.40
   3   1  13    3.80    3.70
   3   1  13    1.20    5.90
   3   1  13    7.10    3.00
   3   1  13    4.10    4.60
   5  -2 -13   68.49    4.20
   5  -2 -13   79.69    7.90
   5  -2 -13   70.19    3.80
   5  -2 -13   74.29    7.30
   4  -2 -13   31.20    5.10
   4  -2 -13   23.80    2.70
   4  -2 -13   27.00    2.50
   4  -2 -13   29.30    2.80
   4  -2 -13   23.30    3.90
   3  -2 -13    8.30    2.40
   3  -2 -13    6.40    2.40
   3  -2 -13    4.60    1.70
   3  -2 -13    6.30    2.60
   3  -2 -13    6.20    3.30
  -3   2  13   11.70    2.40
  -3   2  13    8.30    2.10
   2  -2 -13   49.99    3.40
   2  -2 -13   53.79    4.80
   2  -2 -13   50.39    5.30
   2  -2 -13   47.40    4.40
   2  -2 -13   52.39    5.10
  -2   2  13   53.49    4.30
  -2   2  13   55.99    5.10
   1  -2 -13    6.00    3.30
   1  -2 -13    4.50    2.80
   1  -2 -13    3.90    1.90
   1  -2 -13    0.40    2.70
   1  -2 -13    5.80    3.10
  -1   2  13    4.10    2.30
  -1   2  13    6.70    1.30
  -1   2  13    5.10    1.30
   0  -2 -13    1.30    3.30
   0  -2 -13   -0.50    3.20
   0  -2 -13   -5.40    3.30
   0  -2 -13    0.20    2.70
   0  -2 -13   -1.50    2.40
   0   2  13   -2.60    2.50
   0   2  13   -0.90    2.30
   0   2  13    2.30    3.10
   0   2  13    0.40    1.50
   0   2  13   -3.30    3.10
  -1  -2 -13   16.00    3.40
  -1  -2 -13   11.00    3.10
  -1  -2 -13    6.00    4.40
  -1  -2 -13   22.10    4.30
   1   2  13   13.70    3.90
   1   2  13   14.00    5.40
   1   2  13   15.10    3.90
   1   2  13   17.80    4.40
   1   2  13   14.10    2.10
  -2  -2 -13  112.59    8.30
  -2  -2 -13  118.19    6.50
  -2  -2 -13  129.59    8.40
  -2  -2 -13  110.89    9.50
  -2  -2 -13  112.39    8.20
   2   2  13  127.19    6.00
   2   2  13  133.19    9.60
   2   2  13  114.49    8.60
   2   2  13  127.39    8.10
   2   2  13  118.09    7.60
   4  -3 -13   14.90    4.80
   4  -3 -13    2.30    1.60
   4  -3 -13   -2.40    2.50
   4  -3 -13    4.20    2.30
   4  -3 -13   -2.00    4.60
   3  -3 -13    0.90    2.50
   3  -3 -13    1.10    3.60
   3  -3 -13    4.30    3.10
   3  -3 -13    1.30    2.00
   3  -3 -13    0.60    2.80
  -3   3  13    0.40    3.00
  -3   3  13   -3.00    2.10
   2  -3 -13   -0.70    2.60
   2  -3 -13   -0.30    3.40
   2  -3 -13    4.20    2.00
   2  -3 -13   -0.10    3.30
   2  -3 -13   -0.50    2.70
  -2   3  13    0.70    3.50
  -2   3  13    1.40    2.80
   1  -3 -13   -1.00    3.30
   1  -3 -13   -0.10    1.90
   1  -3 -13   -0.40    3.90
   1  -3 -13   -3.20    2.90
   1  -3 -13    0.20    3.80
  -1   3  13   -1.00    1.80
  -1   3  13    0.90    2.70
  -1   3  13    0.90    1.40
   0  -3 -13   -2.10    2.50
   0  -3 -13    3.10    4.00
   0  -3 -13    4.10    2.80
   0  -3 -13   -1.90    3.90
   0  -3 -13   -3.40    3.50
   0   3  13    1.50    3.50
   0   3  13   -1.30    3.10
   0   3  13   -1.00    1.90
  -1  -3 -13   -5.50    4.40
  -1  -3 -13    0.50    3.90
  -1  -3 -13   -1.70    2.90
  -1  -3 -13    1.00    3.10
   1   3  13    1.00    4.60
   1   3  13   -0.40    1.90
   1   3  13   -3.20    3.30
   1   3  13    5.40    3.60
   3  -4 -13   17.60    2.40
   3  -4 -13   16.80    3.30
   3  -4 -13   15.10    3.80
   3  -4 -13   12.70    3.30
   3  -4 -13   10.80    3.30
  -3   4  13   14.80    2.70
   2  -4 -13    3.90    3.60
   2  -4 -13   19.40    4.00
   2  -4 -13   -2.30    3.60
   2  -4 -13    2.60    2.30
   2  -4 -13    2.20    2.70
  -2   4  13    7.10    3.10
  -2   4  13    0.80    3.10
   1  -4 -13  133.19    6.50
   1  -4 -13  128.09    8.10
   1  -4 -13  124.39    8.80
   1  -4 -13  131.39    5.60
   1  -4 -13  145.49    7.70
  -1   4  13  122.59    6.50
  -1   4  13  136.09    4.80
   0  -4 -13   13.60    5.50
   0  -4 -13   30.30    4.10
   0  -4 -13   32.50    5.20
   0  -4 -13   32.70    5.20
   0  -4 -13   22.60    3.60
   0   4  13   31.70    4.20
   1   9 -14   43.40    5.00
   1   9 -14   47.20    6.40
   1   9 -14   43.40    4.90
   1   9 -14   54.99    5.10
  -1  -9  14   66.49    6.80
  -1  -9  14   56.09    6.40
   0   9 -14    9.10    5.10
   0   9 -14   16.40    4.00
   0   9 -14   21.80    3.60
   0   9 -14   19.70    3.20
   0   9 -14   15.30    3.50
   0  -9  14   24.10    5.10
   0  -9  14   19.60    4.10
   0  -9  14   20.40    4.60
   0  -9  14   13.60    3.00
   0  -9  14   20.20    4.70
   0  -9  14   12.20    3.60
  -1   9 -14  123.69    6.60
  -1   9 -14  112.09    7.00
  -1   9 -14  110.09    7.30
  -1   9 -14  114.09    9.90
  -1   9 -14  110.39    6.50
   1  -9  14  113.89    7.90
   1  -9  14  115.39    7.70
   1  -9  14  124.69    9.00
   1  -9  14  117.79    7.70
   1  -9  14  111.99    6.20
   2   8 -14   50.69    4.70
   2   8 -14   34.30    4.20
   2   8 -14   42.60    4.40
   2   8 -14   43.10    5.10
   2   8 -14   34.50    3.20
  -2  -8  14   34.20    4.70
  -2  -8  14   35.90    4.10
  -2  -8  14   32.60    5.40
   1   8 -14    5.50    4.00
   1   8 -14   -4.50    3.00
   1   8 -14    0.50    2.10
   1   8 -14    0.50    3.50
   1   8 -14    2.80    3.20
  -1  -8  14    2.30    2.90
  -1  -8  14   -0.50    4.20
  -1  -8  14    0.60    3.00
  -1  -8  14    8.00    3.60
  -1  -8  14    3.00    2.90
  -1  -8  14    1.90    1.80
   0   8 -14   55.19    5.50
   0   8 -14   57.29    6.10
   0   8 -14   58.29    5.10
   0   8 -14   58.69    4.80
   0   8 -14   55.69    6.50
   0  -8  14   56.39    5.70
   0  -8  14   61.49    6.90
   0  -8  14   56.79    3.70
   0  -8  14   54.09    5.90
  -1   8 -14  218.68    8.80
  -1   8 -14  208.88    8.50
  -1   8 -14  216.08   11.80
  -1   8 -14  212.38    8.10
  -1   8 -14  216.98    9.30
   1  -8  14  214.38    9.20
   1  -8  14  206.38    7.20
   1  -8  14  214.18   10.30
   1  -8  14  221.18    9.40
   1  -8  14  216.38    9.00
  -2   8 -14   -2.80    3.60
  -2   8 -14   -1.10    5.00
  -2   8 -14    2.40    3.20
  -2   8 -14    1.40    3.40
  -2   8 -14    1.50    3.60
   2  -8  14    2.90    3.60
   2  -8  14   -3.70    3.20
   2  -8  14    1.30    4.10
   2  -8  14   -5.60    4.00
   2  -8  14    6.30    6.30
   3   7 -14   52.19    4.60
   3   7 -14   41.00    3.50
   3   7 -14   50.49    4.70
   3   7 -14   45.50    4.60
   3   7 -14   53.99    4.90
  -3  -7  14   50.59    5.50
  -3  -7  14   42.50    4.10
   2   7 -14   39.60    3.80
   2   7 -14   41.10    4.60
   2   7 -14   46.70    4.10
   2   7 -14   33.10    4.50
  -2  -7  14   39.70    3.80
  -2  -7  14   29.30    4.30
   1   7 -14   -1.10    3.20
   1   7 -14   -5.90    3.20
   1   7 -14   -0.40    2.40
   1   7 -14    0.40    3.10
   1   7 -14   -0.50    2.70
  -1  -7  14    0.70    1.50
  -1  -7  14   -2.20    2.00
  -1  -7  14   -0.70    2.50
  -1  -7  14    3.70    3.90
  -1  -7  14   -1.10    2.20
   0   7 -14   10.20    3.40
   0   7 -14   14.00    2.80
   0   7 -14   10.80    3.20
   0   7 -14    9.50    4.00
   0   7 -14    9.50    3.20
   0  -7  14   14.30    3.30
   0  -7  14   10.70    3.10
   0  -7  14   11.90    2.70
   0  -7  14   13.10    4.50
  -1   7 -14  190.38    9.60
  -1   7 -14  177.98    8.20
  -1   7 -14  187.28    8.20
  -1   7 -14  188.88    8.00
  -1   7 -14  189.08    7.60
   1  -7  14  188.08    8.30
   1  -7  14  184.28    8.00
   1  -7  14  182.78    9.90
  -2   7 -14   69.69    6.60
  -2   7 -14   53.39    5.40
  -2   7 -14   56.39    6.20
  -2   7 -14   63.69    6.40
  -2   7 -14   71.49    7.40
   2  -7  14   78.29    5.60
   2  -7  14   59.19    5.50
   2  -7  14   73.49    7.90
   2  -7  14   57.39    6.20
   2  -7  14   66.69    6.40
  -3   7 -14    6.00    3.50
  -3   7 -14   -5.60    4.00
  -3   7 -14   -8.00    3.30
  -3   7 -14   -4.90    3.10
   3  -7  14   -1.30    3.40
   3  -7  14   -3.90    5.20
   3  -7  14    4.40    4.10
   3  -7  14   -2.30    4.50
   3  -7  14    1.80    3.00
   4   6 -14  140.89    7.80
   4   6 -14  137.99    6.80
   4   6 -14  140.89    6.80
   4   6 -14  135.29    4.80
   4   6 -14  142.59    6.10
  -4  -6  14  140.99    5.50
   3   6 -14   -1.80    1.60
   3   6 -14    0.30    3.20
   3   6 -14    0.90    3.00
   3   6 -14   -3.60    3.30
   3   6 -14    2.70    2.30
  -3  -6  14    5.00    2.80
  -3  -6  14   -1.60    3.00
  -3  -6  14    1.00    2.60
   2   6 -14   60.19    3.90
   2   6 -14   66.19    4.90
   2   6 -14   69.29    5.70
   2   6 -14   53.79    5.30
   2   6 -14   61.29    6.10
   2   6 -14   66.39    4.90
  -2  -6  14   70.39    5.30
  -2  -6  14   64.89    5.50
  -2  -6  14   54.79    4.50
   1   6 -14   56.59    5.60
   1   6 -14   41.70    4.70
   1   6 -14   42.60    4.20
   1   6 -14   44.40    4.90
   1   6 -14   42.70    4.70
   1   6 -14   41.30    3.60
  -1  -6  14   39.40    3.10
  -1  -6  14   45.30    4.30
  -1  -6  14   42.60    4.40
  -1  -6  14   43.80    2.40
   0   6 -14    1.50    2.80
   0   6 -14    2.00    3.10
   0   6 -14    4.70    2.80
   0   6 -14    1.40    3.30
   0   6 -14    4.80    2.70
   0   6 -14    1.80    2.60
   0  -6  14    4.80    3.20
   0  -6  14   -0.40    3.70
   0  -6  14    3.20    1.60
   0  -6  14    4.60    2.10
   0  -6  14    9.80    3.00
  -1   6 -14    1.90    3.10
  -1   6 -14   -3.60    3.50
  -1   6 -14    8.50    3.30
  -1   6 -14    3.90    3.70
  -1   6 -14    5.00    3.10
  -1   6 -14    6.10    3.20
   1  -6  14    2.60    3.10
   1  -6  14    2.00    3.20
   1  -6  14    5.10    3.00
   1  -6  14   -0.40    1.70
   1  -6  14    2.40    3.60
  -2   6 -14  224.48   10.40
  -2   6 -14  211.28    9.10
  -2   6 -14  236.78    9.10
  -2   6 -14  232.48    9.00
  -2   6 -14  224.88    9.30
   2  -6  14  225.98    9.00
   2  -6  14  231.38    9.50
   2  -6  14  229.38    9.20
   2  -6  14  237.08   10.10
   2  -6  14  221.78    7.30
  -3   6 -14   -1.10    3.40
  -3   6 -14   -1.20    3.40
  -3   6 -14    8.10    5.40
  -3   6 -14    2.10    4.20
  -3   6 -14   -1.60    3.50
   3  -6  14    3.10    4.70
   3  -6  14    0.40    3.80
   3  -6  14    3.60    4.90
   3  -6  14   -1.50    3.40
   3  -6  14    1.70    3.70
   4   5 -14  241.38    7.30
   4   5 -14  231.28    7.60
   4   5 -14  232.48    5.90
   4   5 -14  218.88    7.60
   4   5 -14  245.68    9.60
  -4  -5  14  229.78    5.70
   3   5 -14   32.90    3.60
   3   5 -14   29.80    4.30
   3   5 -14   32.50    3.50
   3   5 -14   37.80    3.80
  -3  -5  14   34.90    3.20
  -3  -5  14   27.60    3.20
  -3  -5  14   37.20    4.00
   2   5 -14   46.20    4.50
   2   5 -14   45.90    3.50
   2   5 -14   40.40    3.80
   2   5 -14   48.60    4.20
   2   5 -14   46.70    4.10
  -2  -5  14   41.00    4.30
  -2  -5  14   53.59    4.50
  -2  -5  14   43.10    4.80
   1   5 -14    5.50    2.60
   1   5 -14    9.00    2.60
   1   5 -14    2.80    2.40
   1   5 -14    4.10    3.20
   1   5 -14    6.40    2.80
   1   5 -14    6.00    3.20
  -1  -5  14    6.50    1.10
  -1  -5  14    5.00    2.40
  -1  -5  14    8.20    1.50
  -1  -5  14    9.90    2.80
   0   5 -14   12.60    3.20
   0   5 -14    9.60    2.70
   0   5 -14    8.70    2.90
   0   5 -14   11.80    3.10
   0   5 -14    5.30    3.20
   0   5 -14   14.30    3.60
   0  -5  14   14.00    2.40
   0  -5  14   11.00    3.00
   0  -5  14   10.40    3.20
   0  -5  14   12.60    1.90
   0  -5  14   13.00    2.80
  -1   5 -14    1.40    3.00
  -1   5 -14   -1.00    2.60
  -1   5 -14    0.90    3.30
  -1   5 -14    4.00    2.90
  -1   5 -14    3.00    3.50
  -1   5 -14   -2.30    2.90
   1  -5  14    0.00    1.70
   1  -5  14   -1.20    2.70
   1  -5  14    1.00    3.20
   1  -5  14    0.20    2.90
   1  -5  14    2.00    2.90
  -2   5 -14   38.00    5.20
  -2   5 -14   36.40    5.20
  -2   5 -14   53.39    4.70
  -2   5 -14   45.60    4.60
  -2   5 -14   38.80    4.60
  -2   5 -14   44.10    4.90
   2  -5  14   43.60    4.90
   2  -5  14   44.80    4.50
   2  -5  14   37.90    4.20
   2  -5  14   37.70    3.50
   2  -5  14   33.90    4.70
  -3   5 -14  153.08    8.30
  -3   5 -14  132.79    7.90
  -3   5 -14  151.08    9.00
  -3   5 -14  158.88    8.80
   3  -5  14  151.68    9.20
   3  -5  14  139.09    8.60
   3  -5  14  144.19    7.10
   3  -5  14  156.78    9.60
   3  -5  14  125.09    7.60
   4   4 -14    9.70    2.50
   4   4 -14    2.50    1.90
   4   4 -14    7.40    2.60
   4   4 -14    4.30    1.30
   4   4 -14    7.20    3.20
   4   4 -14    3.30    3.60
   3   4 -14   40.00    4.00
   3   4 -14   37.60    4.30
   3   4 -14   37.10    3.80
   3   4 -14   40.40    4.00
   3   4 -14   38.70    2.80
   3   4 -14   40.40    4.60
  -3  -4  14   35.00    4.40
  -3  -4  14   45.90    3.70
  -3  -4  14   38.90    3.30
   2   4 -14   41.60    3.90
   2   4 -14   42.60    3.80
   2   4 -14   41.20    3.50
   2   4 -14   36.60    4.50
   2   4 -14   46.50    4.60
  -2  -4  14   36.80    3.90
  -2  -4  14   46.80    4.20
  -2  -4  14   44.00    3.80
   1   4 -14   -0.60    3.00
   1   4 -14    1.60    2.90
   1   4 -14    3.10    3.10
   1   4 -14    5.00    2.60
   1   4 -14    0.30    2.30
   1   4 -14    2.80    3.20
  -1  -4  14    4.40    2.40
  -1  -4  14    3.80    2.70
  -1  -4  14    1.80    2.30
  -1  -4  14    3.60    0.90
  -1  -4  14    3.40    1.00
   0   4 -14  224.08    7.80
   0   4 -14  229.28    8.40
   0   4 -14  226.28    9.00
   0   4 -14  231.68    8.20
   0   4 -14  226.38    8.40
   0   4 -14  235.28    8.50
   0  -4  14  229.58    7.80
   0  -4  14  235.08    8.30
   0  -4  14  234.68    5.90
   0  -4  14  233.88    6.30
   0  -4  14  218.88    8.50
  -1   4 -14   17.00    3.80
  -1   4 -14   13.80    4.00
  -1   4 -14   17.10    3.40
  -1   4 -14   15.30    4.10
  -1   4 -14   16.50    3.90
  -1   4 -14    8.00    3.40
   1  -4  14   14.50    3.50
   1  -4  14   17.60    3.50
   1  -4  14   18.60    3.20
   1  -4  14   11.00    2.50
   1  -4  14   16.50    3.40
  -2   4 -14   -2.20    3.50
  -2   4 -14    4.30    3.50
  -2   4 -14   -3.20    3.10
  -2   4 -14    0.40    3.10
  -2   4 -14    2.50    3.50
  -2   4 -14    2.10    3.80
   2  -4  14   -1.90    3.50
   2  -4  14    2.60    2.40
   2  -4  14    3.20    2.60
   2  -4  14    0.70    2.90
   2  -4  14   -4.00    3.50
  -3   4 -14   11.40    4.00
  -3   4 -14    6.50    4.40
  -3   4 -14    4.00    3.60
  -3   4 -14    2.30    4.40
  -3   4 -14   -4.00    4.60
  -3   4 -14   -1.30    3.70
   3  -4  14    4.30    4.10
   3  -4  14   -1.20    3.20
   3  -4  14    1.30    3.50
   3  -4  14   -2.90    5.30
   3  -4  14    2.50    5.60
   5   3 -14    9.00    4.20
   5   3 -14    9.50    2.30
   5   3 -14    6.90    2.40
   5   3 -14    4.10    3.50
   4   3 -14   10.70    3.30
   4   3 -14   12.80    2.50
   4   3 -14   11.20    1.10
   4   3 -14   12.00    2.50
   4   3 -14   10.30    3.80
   4   3 -14   14.60    1.60
   3   3 -14   20.60    3.60
   3   3 -14   17.40    2.70
   3   3 -14   17.50    1.80
   3   3 -14   19.70    4.00
   3   3 -14   16.60    2.70
   3   3 -14   16.50    2.40
  -3  -3  14   17.80    2.90
  -3  -3  14   16.90    1.90
  -3  -3  14   16.30    1.90
   2   3 -14  191.68    6.10
   2   3 -14  203.88    7.50
   2   3 -14  193.58    6.90
   2   3 -14  191.38    6.70
   2   3 -14  189.58    8.50
   2   3 -14  200.18    7.10
  -2  -3  14  186.08    6.10
  -2  -3  14  189.88    6.40
  -2  -3  14  194.98    7.00
   1   3 -14   12.80    3.30
   1   3 -14    8.00    3.50
   1   3 -14   13.70    3.10
   1   3 -14   17.20    3.00
   1   3 -14   13.60    3.30
  -1  -3  14   10.40    2.50
  -1  -3  14   11.60    2.60
  -1  -3  14   11.00    1.10
  -1  -3  14   15.30    1.10
  -1  -3  14   10.10    2.40
   0   3 -14   46.80    4.10
   0   3 -14   53.69    4.90
   0   3 -14   52.09    4.70
   0   3 -14   51.69    5.30
   0   3 -14   48.10    4.60
   0   3 -14   42.70    4.10
   0  -3  14   40.50    4.40
   0  -3  14   47.50    3.00
   0  -3  14   50.49    4.60
   0  -3  14   43.50    4.30
   0  -3  14   53.79    2.90
  -1   3 -14  170.88    7.80
  -1   3 -14  172.68    8.40
  -1   3 -14  170.78    7.90
  -1   3 -14  174.28    7.40
  -1   3 -14  187.08    8.00
  -1   3 -14  174.38    8.80
   1  -3  14  182.18    7.90
   1  -3  14  174.28    7.30
   1  -3  14  183.08    8.30
   1  -3  14  174.08    7.30
  -2   3 -14    1.80    4.80
  -2   3 -14    4.90    3.60
  -2   3 -14    0.80    3.10
  -2   3 -14   -5.20    3.40
  -2   3 -14    0.00    3.70
  -2   3 -14    1.90    3.20
   2  -3  14   -7.10    2.90
   2  -3  14    4.40    3.00
   2  -3  14    1.90    3.50
   2  -3  14    1.50    4.00
   2  -3  14    0.80    3.10
  -3   3 -14    4.70    4.70
  -3   3 -14   13.30    5.10
  -3   3 -14   20.00    4.00
  -3   3 -14   11.10    4.10
  -3   3 -14   12.10    4.20
  -3   3 -14   19.10    4.80
   3  -3  14    8.60    4.40
   3  -3  14    8.10    4.60
   3  -3  14   17.80    3.50
   3  -3  14   16.10    3.80
   3  -3  14   20.80    5.00
   5   2 -14   92.39    4.30
   5   2 -14   93.19    7.00
   5   2 -14   87.59    4.60
   5   2 -14   99.89    8.00
   4   2 -14   56.89    4.20
   4   2 -14   49.30    4.20
   4   2 -14   45.20    1.10
   4   2 -14   50.39    5.80
   4   2 -14   61.59    5.40
   3   2 -14  112.29    3.70
   3   2 -14  116.59    7.70
   3   2 -14  105.79    5.10
   3   2 -14  106.49    6.20
   3   2 -14  115.99    5.10
   3   2 -14  106.09    4.00
  -3  -2  14  105.49    6.00
  -3  -2  14  108.89    3.50
  -3  -2  14  112.29    3.70
   2   2 -14   56.89    4.10
   2   2 -14   59.39    4.80
   2   2 -14   59.79    4.10
   2   2 -14   62.79    6.30
   2   2 -14   58.99    5.30
   2   2 -14   51.09    4.60
  -2  -2  14   55.89    4.60
  -2  -2  14   57.59    3.90
  -2  -2  14   60.09    3.90
   1   2 -14   78.19    5.90
   1   2 -14   80.79    4.80
   1   2 -14   69.89    5.60
   1   2 -14   79.19    4.70
   1   2 -14   95.19    6.90
  -1  -2  14   65.49    4.30
  -1  -2  14   73.19    4.70
  -1  -2  14   71.69    1.70
  -1  -2  14   81.39    5.00
   0   2 -14    9.70    3.30
   0   2 -14   21.90    3.10
   0   2 -14    8.40    3.50
   0   2 -14   15.30    3.30
   0   2 -14   17.10    3.40
   0   2 -14   12.70    3.90
   0  -2  14   17.60    3.40
   0  -2  14   16.00    3.00
   0  -2  14   15.50    1.80
   0  -2  14    9.30    2.70
   0  -2  14   15.00    1.80
  -1   2 -14   78.49    7.00
  -1   2 -14   80.69    6.00
  -1   2 -14   74.79    6.30
  -1   2 -14   66.79    7.00
  -1   2 -14   93.59    6.70
  -1   2 -14   90.69    5.70
   1  -2  14   77.79    6.30
   1  -2  14   94.29    5.00
   1  -2  14   79.49    5.50
   1  -2  14   69.79    7.10
   1  -2  14   76.79    5.80
  -2   2 -14   11.60    4.30
  -2   2 -14   10.70    4.40
  -2   2 -14   10.10    3.50
  -2   2 -14    5.30    3.70
  -2   2 -14    9.10    3.70
  -2   2 -14    3.40    3.80
   2  -2  14   12.80    3.10
   2  -2  14   11.30    3.90
   2  -2  14   11.70    3.10
   2  -2  14    8.90    3.30
   2  -2  14   10.30    4.40
  -3   2 -14   40.10    4.90
  -3   2 -14   31.40    5.00
  -3   2 -14   32.80    5.90
  -3   2 -14   26.00    4.50
  -3   2 -14   27.10    4.00
   3  -2  14   22.20    5.00
   3  -2  14   24.20    4.30
   3  -2  14   34.80    4.40
   3  -2  14   36.00    4.30
   3  -2  14   39.80    6.00
   5   1 -14   33.10    4.20
   5   1 -14   24.50    5.00
   5   1 -14   29.60    2.60
   5   1 -14   26.80    2.60
   4   1 -14   35.50    4.80
   4   1 -14   36.70    3.10
   4   1 -14   37.00    3.70
   4   1 -14   37.10    4.30
   3   1 -14   30.60    3.80
   3   1 -14   28.00    2.60
   3   1 -14   23.60    2.20
   3   1 -14   25.50    2.80
   3   1 -14   27.90    3.10
   3   1 -14   30.00    4.80
  -3  -1  14   28.10    2.20
  -3  -1  14   27.40    2.40
   2   1 -14  134.79    5.10
   2   1 -14  127.09    7.40
   2   1 -14  133.09    6.10
   2   1 -14  133.79    8.10
   2   1 -14  125.99    5.90
   2   1 -14  121.89    5.50
  -2  -1  14  129.19    6.30
  -2  -1  14  131.29    5.30
  -2  -1  14  127.69    4.70
   1   1 -14    7.90    2.30
   1   1 -14    9.10    3.30
   1   1 -14    1.00    2.70
   1   1 -14    2.20    2.40
   1   1 -14    6.80    2.70
   1   1 -14    4.60    3.70
  -1  -1  14    2.10    2.40
  -1  -1  14    4.50    2.30
  -1  -1  14    5.40    2.60
   0   1 -14   25.20    4.40
   0   1 -14   14.70    3.40
   0   1 -14   21.50    4.20
   0   1 -14   21.00    3.70
   0   1 -14   19.30    3.70
   0   1 -14   20.50    3.10
   0  -1  14   20.20    3.20
   0  -1  14   19.50    2.20
   0  -1  14   19.70    3.30
   0  -1  14   20.70    2.90
   0  -1  14   22.30    2.40
  -1   1 -14    6.60    3.10
  -1   1 -14    7.90    4.20
  -1   1 -14    5.90    4.10
  -1   1 -14    9.90    3.70
  -1   1 -14    8.50    3.90
  -1   1 -14    7.50    3.00
   1  -1  14    7.60    2.20
   1  -1  14   10.20    3.90
   1  -1  14   10.10    2.90
   1  -1  14   13.20    3.20
   1  -1  14    9.60    3.30
  -2   1 -14  119.79    7.70
  -2   1 -14  126.39    8.90
  -2   1 -14  106.19    8.30
  -2   1 -14  113.49    6.90
  -2   1 -14  112.69    8.10
  -2   1 -14  127.29    7.70
   2  -1  14  117.19    7.40
   2  -1  14  126.29    6.70
   2  -1  14  123.09    7.10
   2  -1  14  111.39    8.40
   2  -1  14  117.69    5.30
  -3   1 -14   12.10    4.90
  -3   1 -14    8.50    3.70
  -3   1 -14   11.10    4.10
  -3   1 -14    4.90    4.50
  -3   1 -14    6.90    5.50
  -3   1 -14    5.40    5.80
   3  -1  14    4.40    4.40
   3  -1  14    4.10    6.90
   3  -1  14   17.40    4.90
   3  -1  14    7.30    3.10
   3  -1  14    7.40    3.50
   5   0 -14  166.48   10.90
   5   0 -14  170.98    9.20
   5   0 -14  156.58    5.10
   5   0 -14  163.58    5.70
   4   0 -14    4.20    2.40
   4   0 -14    3.00    4.20
   4   0 -14   -0.30    3.30
   4   0 -14    2.00    2.40
   3   0 -14   50.49    4.60
   3   0 -14   52.79    5.50
   3   0 -14   50.59    4.20
   3   0 -14   58.79    3.00
   3   0 -14   51.19    4.80
   3   0 -14   52.79    3.50
  -3   0  14   51.99    3.10
  -3   0  14   50.49    3.00
   2   0 -14   96.29    6.40
   2   0 -14   87.39    4.30
   2   0 -14   83.89    5.00
   2   0 -14   87.19    7.60
   2   0 -14   86.79    4.70
  -2   0  14   90.89    4.20
  -2   0  14   81.99    7.10
  -2   0  14   84.09    4.90
   1   0 -14   44.80    5.00
   1   0 -14   43.30    5.30
   1   0 -14   42.80    4.50
   1   0 -14   37.30    4.30
   1   0 -14   39.00    3.80
  -1   0  14   49.00    4.40
  -1   0  14   35.20    3.90
  -1   0  14   41.00    4.40
   0   0 -14    4.10    2.60
   0   0 -14    4.40    4.30
   0   0 -14    6.50    3.50
   0   0 -14   12.10    3.60
   0   0 -14   10.00    2.70
   0   0 -14    4.00    3.50
   0   0  14    9.60    3.10
   0   0  14    8.30    2.70
   0   0  14    7.20    2.00
   0   0  14   13.00    3.80
   0   0  14    3.60    1.60
  -1   0 -14    3.60    3.00
  -1   0 -14    1.70    3.60
  -1   0 -14   -0.80    3.50
  -1   0 -14   -1.70    3.10
  -1   0 -14    3.90    4.20
  -1   0 -14    7.50    4.00
   1   0  14    8.30    3.10
   1   0  14    7.20    3.60
   1   0  14    7.90    3.30
   1   0  14    8.90    4.10
   1   0  14    7.70    3.10
  -2   0 -14   25.90    5.50
  -2   0 -14   23.20    4.40
  -2   0 -14   24.40    4.40
  -2   0 -14   20.30    4.50
  -2   0 -14   14.90    5.20
  -2   0 -14   16.20    4.70
   2   0  14   10.90    4.40
   2   0  14   20.00    5.30
   2   0  14   19.20    4.10
   2   0  14   21.00    3.30
   2   0  14   20.70    3.90
   4  -1 -14   15.80    5.00
   4  -1 -14   13.20    1.40
   4  -1 -14   13.00    4.00
   4  -1 -14   11.80    2.60
   3  -1 -14    6.60    4.40
   3  -1 -14    7.30    1.80
   3  -1 -14    7.00    3.40
   3  -1 -14    9.10    2.40
  -3   1  14    6.90    2.10
  -3   1  14    9.20    2.10
   2  -1 -14   91.09    4.30
   2  -1 -14   99.19    8.30
   2  -1 -14   94.89    5.50
   2  -1 -14   83.69    5.70
   2  -1 -14   85.79    6.50
  -2   1  14   86.69    4.60
  -2   1  14   90.99    5.60
   1  -1 -14   21.30    4.50
   1  -1 -14   18.80    2.50
   1  -1 -14   14.50    3.40
   1  -1 -14   23.50    3.60
  -1   1  14   13.50    3.70
  -1   1  14   22.60    3.20
  -1   1  14   14.30    1.30
  -1   1  14   17.70    1.30
  -1   1  14   18.00    4.00
   0  -1 -14  129.69    7.00
   0  -1 -14  134.69    6.10
   0  -1 -14  128.79    7.60
   0  -1 -14  146.39    7.80
   0  -1 -14  128.49    7.60
   0   1  14  134.29    7.40
   0   1  14  137.49    5.20
   0   1  14  120.79    6.40
   0   1  14  137.89    4.50
   0   1  14  110.89    6.70
  -1  -1 -14   -1.20    4.20
  -1  -1 -14   -1.10    3.70
  -1  -1 -14    7.20    4.10
  -1  -1 -14    1.80    4.90
  -1  -1 -14   -2.90    3.20
   1   1  14   -4.00    3.30
   1   1  14   -1.50    2.10
   1   1  14    4.80    3.50
   1   1  14    2.70    3.40
   1   1  14    0.90    4.20
  -2  -1 -14   67.89    6.60
  -2  -1 -14   51.59    6.00
  -2  -1 -14   65.99    6.80
  -2  -1 -14   60.79    5.60
  -2  -1 -14   70.09    6.90
   2   1  14   62.09    6.80
   2   1  14   73.99    6.90
   2   1  14   70.79    6.70
   2   1  14   64.29    6.20
   2   1  14   73.39    4.50
   4  -2 -14   24.80    3.40
   4  -2 -14   30.60    6.80
   4  -2 -14   22.50    2.40
   4  -2 -14   30.10    4.60
   3  -2 -14  100.29    5.40
   3  -2 -14   84.79    6.00
   3  -2 -14   94.39    7.20
   3  -2 -14   92.99    3.90
   3  -2 -14  106.29    6.40
   3  -2 -14  109.09    9.10
  -3   2  14   97.99    4.80
  -3   2  14   95.39    5.00
   2  -2 -14   79.89    7.00
   2  -2 -14   68.49    5.70
   2  -2 -14   70.39    4.20
   2  -2 -14   71.79    5.50
   2  -2 -14   86.99    6.40
  -2   2  14   73.69    5.10
   1  -2 -14   -0.80    3.30
   1  -2 -14    3.40    3.80
   1  -2 -14   -2.20    2.30
   1  -2 -14    3.40    4.10
   1  -2 -14   -1.80    2.60
  -1   2  14   -0.60    3.10
  -1   2  14   -2.30    3.10
  -1   2  14   -0.20    1.00
  -1   2  14   -0.90    1.10
   0  -2 -14    1.80    3.60
   0  -2 -14    2.50    3.00
   0  -2 -14    2.40    2.70
   0  -2 -14    9.80    4.10
   0   2  14    3.20    2.60
   0   2  14    4.50    3.80
   0   2  14    0.10    3.50
   0   2  14    6.00    1.90
   0   2  14    5.70    3.00
  -1  -2 -14    4.40    5.40
  -1  -2 -14   15.60    4.70
  -1  -2 -14    6.30    3.20
  -1  -2 -14    9.20    3.90
  -1  -2 -14    4.10    3.30
   1   2  14   11.90    3.50
   1   2  14    7.60    3.60
   1   2  14   11.10    2.60
   1   2  14    4.90    5.50
   1   2  14    0.90    4.20
   3  -3 -14   19.80    3.30
   3  -3 -14   29.50    4.30
   3  -3 -14   21.50    2.40
   3  -3 -14   18.30    4.20
   3  -3 -14   32.10    3.70
  -3   3  14   18.90    3.00
   2  -3 -14   10.90    3.50
   2  -3 -14    0.30    1.90
   2  -3 -14    4.60    3.70
   2  -3 -14   -2.20    2.60
   2  -3 -14    0.00    3.20
  -2   3  14    2.10    2.40
  -2   3  14    4.80    4.10
   1  -3 -14    8.20    4.00
   1  -3 -14   11.70    3.90
   1  -3 -14   11.10    3.70
   1  -3 -14   12.30    3.60
   1  -3 -14   13.00    2.50
  -1   3  14   13.80    1.80
   1   8 -15   38.10    4.70
   1   8 -15   27.90    3.20
   1   8 -15   40.90    4.80
   1   8 -15   36.30    5.00
   1   8 -15   33.70    4.50
  -1  -8  15   33.40    4.60
  -1  -8  15   28.40    2.70
   0   8 -15  201.28    8.70
   0   8 -15  211.38   10.30
   0   8 -15  222.78    9.40
   0   8 -15  207.58    9.60
   0   8 -15  208.68    7.50
   0  -8  15  217.18    8.60
   0  -8  15  223.88   10.40
   0  -8  15  218.18    9.00
  -1   8 -15    7.50    3.50
  -1   8 -15   -3.00    5.00
  -1   8 -15  -10.60    3.50
  -1   8 -15   -1.30    4.30
  -1   8 -15    5.50    3.20
   1  -8  15    8.00    3.70
   1  -8  15   -2.30    3.70
   1  -8  15    5.20    3.80
   1  -8  15   -5.20    4.30
   1  -8  15    6.00    2.50
   2   7 -15   -0.80    3.20
   2   7 -15    2.90    3.40
   2   7 -15    2.60    3.00
   2   7 -15    0.60    1.70
   2   7 -15    4.80    4.00
  -2  -7  15    3.10    3.50
  -2  -7  15    2.30    3.40
  -2  -7  15   -1.10    2.80
   1   7 -15  193.68    8.90
   1   7 -15  195.78    6.80
   1   7 -15  204.08    9.30
   1   7 -15  193.58    8.80
   1   7 -15  211.58    8.10
  -1  -7  15  213.98    5.10
  -1  -7  15  213.28    8.00
  -1  -7  15  193.18    8.40
   0   7 -15   57.59    4.90
   0   7 -15   52.99    5.60
   0   7 -15   55.99    5.10
   0   7 -15   62.19    6.60
   0   7 -15   52.79    5.20
   0  -7  15   63.49    5.50
   0  -7  15   52.39    5.20
   0  -7  15   52.89    6.00
   0  -7  15   56.09    6.30
  -1   7 -15  133.69    9.40
  -1   7 -15  141.29    7.30
  -1   7 -15  149.59    8.40
  -1   7 -15  140.99    8.00
  -1   7 -15  137.69    7.70
   1  -7  15  133.49    8.80
   1  -7  15  157.18    7.70
   1  -7  15  142.09    5.90
   1  -7  15  143.69    8.00
   1  -7  15  151.88    7.80
  -2   7 -15    8.30    4.80
  -2   7 -15    4.90    4.50
  -2   7 -15   13.00    4.40
  -2   7 -15    8.80    5.50
  -2   7 -15    6.20    3.50
   2  -7  15   18.90    4.70
   2  -7  15   15.40    4.30
   2  -7  15   13.10    3.70
   2  -7  15    7.60    4.90
   2  -7  15   15.20    3.40
   3   6 -15    2.20    3.50
   3   6 -15    1.40    1.70
   3   6 -15    4.00    3.40
   3   6 -15    1.10    3.20
   3   6 -15   -0.70    3.30
   3   6 -15    0.90    3.50
  -3  -6  15    3.60    2.60
  -3  -6  15   -2.80    2.80
  -3  -6  15    4.90    3.20
   2   6 -15   15.60    3.20
   2   6 -15   11.00    2.10
   2   6 -15   13.90    3.40
   2   6 -15    9.10    3.90
   2   6 -15    6.00    3.70
   2   6 -15    9.30    3.80
  -2  -6  15   15.30    3.60
  -2  -6  15   16.10    3.10
  -2  -6  15    1.40    2.90
   1   6 -15   52.19    5.50
   1   6 -15   66.59    5.70
   1   6 -15   57.79    4.20
   1   6 -15   57.39    6.50
   1   6 -15   53.39    5.80
   1   6 -15   49.50    5.00
  -1  -6  15   59.69    5.30
  -1  -6  15   56.69    3.10
  -1  -6  15   54.19    2.40
  -1  -6  15   47.40    5.40
   0   6 -15   22.00    4.20
   0   6 -15   24.10    4.50
   0   6 -15   17.50    3.80
   0   6 -15   23.40    3.90
   0   6 -15   20.60    4.50
   0   6 -15   19.90    3.20
   0  -6  15   20.70    2.40
   0  -6  15   21.70    4.10
   0  -6  15   19.10    3.60
   0  -6  15   17.30    2.90
   0  -6  15   20.20    3.30
  -1   6 -15   76.59    6.10
  -1   6 -15   56.49    6.50
  -1   6 -15   64.59    6.80
  -1   6 -15   68.19    6.30
  -1   6 -15   71.79    6.50
  -1   6 -15   59.49    6.50
   1  -6  15   74.49    5.30
   1  -6  15   84.39    6.60
   1  -6  15   67.09    4.00
   1  -6  15   66.59    6.90
   1  -6  15   70.49    6.10
  -2   6 -15   19.80    4.50
  -2   6 -15   25.90    5.70
  -2   6 -15   20.80    4.00
  -2   6 -15   17.70    4.30
  -2   6 -15   19.60    4.40
   2  -6  15   23.80    5.30
   2  -6  15   24.20    4.70
   2  -6  15   30.20    5.00
   2  -6  15   26.90    4.80
   2  -6  15   16.70    3.10
   3   5 -15   48.70    4.00
   3   5 -15   44.00    4.10
   3   5 -15   43.70    5.30
   3   5 -15   43.00    4.20
   3   5 -15   40.60    3.90
  -3  -5  15   43.70    4.20
  -3  -5  15   44.00    3.90
   2   5 -15    8.90    3.30
   2   5 -15   14.60    3.80
   2   5 -15   11.30    3.40
   2   5 -15    7.70    3.90
   2   5 -15    8.30    2.30
   2   5 -15    7.70    3.30
  -2  -5  15    4.50    3.00
  -2  -5  15    8.10    3.00
  -2  -5  15    9.20    2.80
   1   5 -15   85.99    5.80
   1   5 -15   92.19    5.90
   1   5 -15   81.49    6.70
   1   5 -15   88.99    7.00
   1   5 -15   92.99    4.90
   1   5 -15   86.59    6.30
  -1  -5  15   90.19    2.60
  -1  -5  15   91.69    2.80
  -1  -5  15   82.19    6.30
  -1  -5  15   80.39    5.60
  -1  -5  15   93.69    5.00
   0   5 -15   28.50    3.90
   0   5 -15   24.60    3.80
   0   5 -15   28.30    4.30
   0   5 -15   39.20    4.30
   0   5 -15   23.90    4.30
   0   5 -15   26.90    5.00
   0  -5  15   34.30    3.90
   0  -5  15   25.80    4.50
   0  -5  15   24.70    2.70
   0  -5  15   31.70    4.30
   0  -5  15   21.20    2.90
  -1   5 -15   14.10    3.60
  -1   5 -15   18.60    4.00
  -1   5 -15   21.40    4.60
  -1   5 -15   28.10    4.40
  -1   5 -15   20.50    4.50
  -1   5 -15   18.50    4.50
   1  -5  15   17.40    4.10
   1  -5  15   16.00    2.70
   1  -5  15   25.60    3.90
   1  -5  15   20.50    3.40
   1  -5  15   16.40    4.00
  -2   5 -15    6.30    4.80
  -2   5 -15    3.20    3.90
  -2   5 -15    3.50    4.30
  -2   5 -15    3.90    3.60
  -2   5 -15   -1.60    3.60
  -2   5 -15    4.10    4.00
   2  -5  15   -1.20    3.20
   2  -5  15    2.50    3.30
   2  -5  15    4.60    4.30
   2  -5  15    8.80    3.50
   2  -5  15    5.50    4.30
  -3   5 -15  145.29   12.60
  -3   5 -15  158.58    9.60
  -3   5 -15  141.69    8.50
   3  -5  15  134.09   10.00
   3  -5  15  121.29   11.10
   3  -5  15  137.09    8.00
   3  -5  15  142.09    8.30
   4   4 -15   57.19    3.90
   4   4 -15   67.99    4.70
   4   4 -15   60.09    6.50
   4   4 -15   64.39    5.80
   4   4 -15   56.19    3.40
   3   4 -15  321.47   11.50
   3   4 -15  326.27    9.60
   3   4 -15  320.17   10.50
   3   4 -15  274.87   10.10
   3   4 -15  328.67    9.10
   3   4 -15  307.77    7.40
  -3  -4  15  319.67    9.60
  -3  -4  15  320.07    8.10
  -3  -4  15  299.97    7.90
   2   4 -15    3.50    2.20
   2   4 -15    5.30    3.20
   2   4 -15    1.20    2.30
   2   4 -15   10.40    4.00
   2   4 -15    4.30    3.10
   2   4 -15    1.50    3.10
  -2  -4  15    6.30    2.70
  -2  -4  15    4.40    2.50
  -2  -4  15    2.90    2.50
   1   4 -15    8.10    3.00
   1   4 -15   10.40    3.00
   1   4 -15    2.70    3.70
   1   4 -15    8.10    3.30
   1   4 -15   -0.80    3.30
  -1  -4  15    4.80    2.60
  -1  -4  15    4.80    2.40
  -1  -4  15    5.30    0.60
  -1  -4  15    4.80    0.70
  -1  -4  15    4.30    3.30
   0   4 -15    1.10    3.80
   0   4 -15    0.60    3.10
   0   4 -15    7.70    3.30
   0   4 -15    0.50    3.30
   0   4 -15    9.40    3.80
   0   4 -15    1.70    3.60
   0  -4  15    3.50    3.20
   0  -4  15    1.90    1.50
   0  -4  15   -0.70    3.30
   0  -4  15    4.80    2.10
   0  -4  15    1.50    3.50
  -1   4 -15    3.10    3.90
  -1   4 -15    1.70    3.90
  -1   4 -15   -1.40    3.40
  -1   4 -15    3.90    3.80
  -1   4 -15    2.70    3.30
  -1   4 -15    7.90    4.40
   1  -4  15    1.50    3.50
   1  -4  15    2.80    2.40
   1  -4  15    3.10    3.10
   1  -4  15   -3.30    3.20
  -2   4 -15   15.50    4.70
  -2   4 -15   14.80    4.30
  -2   4 -15   27.30    4.70
  -2   4 -15   14.00    5.20
  -2   4 -15   15.10    4.70
  -2   4 -15   15.30    4.00
   2  -4  15    8.10    4.10
   2  -4  15   12.60    3.80
   2  -4  15   12.50    4.50
   2  -4  15    8.50    3.00
   2  -4  15   16.50    4.70
  -3   4 -15   18.70    5.50
  -3   4 -15   12.30    4.60
  -3   4 -15   14.40    5.60
   3  -4  15    9.80    5.20
   3  -4  15   11.20    4.50
   3  -4  15   21.30    4.70
   3  -4  15   17.70    6.50
   4   3 -15   11.50    4.40
   4   3 -15    4.50    2.50
   4   3 -15    6.20    1.70
   4   3 -15    5.00    2.70
   4   3 -15    1.70    3.90
   4   3 -15    5.20    1.10
   3   3 -15   52.49    3.00
   3   3 -15   40.80    4.10
   3   3 -15   49.80    5.50
   3   3 -15   51.09    4.90
   3   3 -15   47.00    5.10
  -3  -3  15   46.60    2.90
  -3  -3  15   52.09    3.60
  -3  -3  15   50.99    5.30
   2   3 -15  118.39    6.00
   2   3 -15  126.19    7.90
   2   3 -15  116.59    5.20
   2   3 -15  120.79    6.80
   2   3 -15  128.79    6.00
  -2  -3  15  113.19    5.10
  -2  -3  15  119.49    6.20
  -2  -3  15  120.19    5.60
   1   3 -15    9.10    3.90
   1   3 -15   11.50    3.00
   1   3 -15    9.40    2.90
   1   3 -15    9.00    2.60
   1   3 -15   10.40    3.20
   1   3 -15    6.40    3.40
  -1  -3  15   10.90    3.00
  -1  -3  15   11.10    3.60
  -1  -3  15   13.10    2.90
   0   3 -15  184.58    8.30
   0   3 -15  179.38    9.10
   0   3 -15  172.98    7.80
   0   3 -15  191.98    8.30
   0   3 -15  194.48    8.40
   0   3 -15  190.68    8.30
   0  -3  15  176.68    7.60
   0  -3  15  180.78    7.40
   0  -3  15  195.88    5.30
   0  -3  15  189.68    5.20
   0  -3  15  191.18    7.90
  -1   3 -15   32.20    4.90
  -1   3 -15   27.70    4.40
  -1   3 -15   35.40    4.70
  -1   3 -15   35.10    4.70
  -1   3 -15   32.80    4.50
  -1   3 -15   27.60    4.00
   1  -3  15   28.70    4.00
   1  -3  15   31.30    3.30
   1  -3  15   44.40    4.90
   1  -3  15   40.00    4.10
   1  -3  15   35.10    4.40
  -2   3 -15    3.00    4.30
  -2   3 -15    0.50    4.20
  -2   3 -15    7.10    5.30
  -2   3 -15   -0.60    4.90
  -2   3 -15    1.40    3.60
  -2   3 -15   -9.70    4.70
   2  -3  15   -2.10    3.20
   2  -3  15    0.60    3.20
   2  -3  15    2.60    2.90
   2  -3  15   -1.60    3.80
   2  -3  15   -0.90    4.40
   4   2 -15   11.10    2.70
   4   2 -15   12.00    4.50
   4   2 -15    7.60    2.70
   4   2 -15    8.50    3.60
   4   2 -15   12.50    1.10
   4   2 -15   11.30    1.10
   3   2 -15   81.09    7.90
   3   2 -15  101.49    7.50
   3   2 -15   74.49    5.40
   3   2 -15   82.49    3.60
   3   2 -15   76.99    4.10
   3   2 -15  101.09    6.60
  -3  -2  15   79.19    3.30
  -3  -2  15   85.69    3.70
  -3  -2  15   82.89    6.50
   2   2 -15  156.48    7.40
   2   2 -15  147.99    8.80
   2   2 -15  160.08    6.10
   2   2 -15  161.68    7.80
   2   2 -15  151.68    6.00
  -2  -2  15  143.19    5.40
  -2  -2  15  152.88    5.90
  -2  -2  15  164.68    7.30
   1   2 -15   11.60    2.80
   1   2 -15    5.50    3.40
   1   2 -15    9.30    2.80
   1   2 -15    5.60    3.90
   1   2 -15    6.90    3.10
   1   2 -15    3.70    2.30
  -1  -2  15    5.60    2.90
  -1  -2  15    6.20    2.40
  -1  -2  15    6.80    2.50
   0   2 -15    5.00    3.90
   0   2 -15    1.90    3.40
   0   2 -15   -1.80    2.80
   0   2 -15   -1.30    2.90
   0   2 -15    6.60    3.00
   0   2 -15    1.80    3.40
   0  -2  15   -2.20    2.40
   0  -2  15    1.30    1.40
   0  -2  15    0.90    1.60
   0  -2  15   -1.30    3.20
   0  -2  15   -0.60    3.00
  -1   2 -15   31.80    4.60
  -1   2 -15   27.20    4.30
  -1   2 -15   25.80    4.30
  -1   2 -15   28.70    5.10
  -1   2 -15   23.60    4.50
  -1   2 -15   18.90    4.50
   1  -2  15   29.20    4.10
   1  -2  15   28.30    3.30
   1  -2  15   22.70    4.50
   1  -2  15   29.40    4.10
  -2   2 -15   -0.40    3.70
  -2   2 -15   -4.90    4.00
  -2   2 -15   -0.40    4.70
  -2   2 -15   -3.80    3.80
  -2   2 -15   -2.50    4.50
  -2   2 -15   -4.80    4.20
   2  -2  15   -2.10    3.10
   2  -2  15    0.90    4.70
   2  -2  15   -2.40    5.50
   2  -2  15    3.20    2.50
   2  -2  15    4.70    3.30
   4   1 -15  125.89    9.00
   4   1 -15  115.69    5.80
   4   1 -15  110.79    7.40
   4   1 -15  111.49    6.10
   3   1 -15   23.00    2.20
   3   1 -15   24.10    4.90
   3   1 -15   22.40    2.30
   3   1 -15   22.40    3.60
   3   1 -15   22.10    4.90
  -3  -1  15   18.10    1.90
  -3  -1  15   21.30    2.20
   2   1 -15    8.20    4.10
   2   1 -15    8.70    2.90
   2   1 -15    5.80    4.30
   2   1 -15    4.30    2.30
   2   1 -15    3.40    3.00
   2   1 -15    7.10    3.30
  -2  -1  15    4.20    2.10
  -2  -1  15    6.50    3.00
  -2  -1  15    1.20    4.00
   1   1 -15    6.20    4.50
   1   1 -15   11.10    3.30
   1   1 -15    5.30    2.70
   1   1 -15    3.90    2.80
   1   1 -15   10.30    4.40
   1   1 -15    8.80    3.50
  -1  -1  15    6.90    3.10
  -1  -1  15    7.20    3.30
  -1  -1  15    2.20    2.70
   0   1 -15   25.20    4.30
   0   1 -15   32.00    4.40
   0   1 -15   22.30    4.40
   0   1 -15   36.20    4.80
   0   1 -15   28.80    3.80
   0   1 -15   19.40    5.60
   0  -1  15   26.20    2.70
   0  -1  15   24.70    3.40
   0  -1  15   24.90    4.00
   0  -1  15   25.80    2.90
   0  -1  15   24.40    3.90
  -1   1 -15   20.60    4.40
  -1   1 -15   25.10    4.80
  -1   1 -15   25.00    4.70
  -1   1 -15   30.60    5.10
  -1   1 -15   22.10    4.60
  -1   1 -15   36.70    5.70
   1  -1  15   26.70    4.10
   1  -1  15   28.20    2.80
   1  -1  15   22.60    3.90
   1  -1  15   38.00    5.10
   1  -1  15   21.20    3.40
  -2   1 -15   72.99    6.80
  -2   1 -15   73.69    7.40
  -2   1 -15   75.39    7.60
  -2   1 -15   66.39    6.60
  -2   1 -15   56.79    5.80
  -2   1 -15   52.19    6.30
   2  -1  15   68.19    6.30
   2  -1  15   53.39    5.40
   2  -1  15   72.49    8.20
   2  -1  15   69.69    5.50
   2  -1  15   70.39    6.20
   4   0 -15    6.50    2.90
   4   0 -15    4.20    2.90
   4   0 -15    3.40    4.70
   4   0 -15    7.20    4.90
   4   0 -15    6.30    0.70
   3   0 -15    1.90    2.40
   3   0 -15    5.10    1.90
   3   0 -15    5.50    2.90
   3   0 -15   -4.20    4.60
   3   0 -15    3.80    3.70
  -3   0  15    4.70    2.00
  -3   0  15    4.00    2.00
   2   0 -15    2.40    4.20
   2   0 -15    1.40    3.60
   2   0 -15    4.50    3.10
   2   0 -15   -0.70    3.00
   2   0 -15    9.40    3.20
   2   0 -15    8.00    2.40
  -2   0  15   -1.40    2.20
  -2   0  15   -2.20    2.80
   1   0 -15   41.10    4.90
   1   0 -15   28.50    5.40
   1   0 -15   35.90    4.20
   1   0 -15   35.50    4.10
   1   0 -15   27.70    4.80
  -1   0  15   40.30    5.10
  -1   0  15   36.70    3.80
  -1   0  15   23.80    4.10
   0   0 -15   12.00    3.30
   0   0 -15   10.90    4.10
   0   0 -15   11.40    4.20
   0   0 -15    1.20    4.50
   0   0 -15    2.20    4.60
   0   0 -15   11.10    3.20
   0   0  15    8.20    2.30
   0   0  15   12.40    3.40
   0   0  15   10.10    3.10
   0   0  15   12.30    3.70
   0   0  15   10.10    1.70
  -1   0 -15    5.90    4.40
  -1   0 -15    5.80    3.50
  -1   0 -15    4.60    4.60
  -1   0 -15    8.70    4.30
  -1   0 -15    2.20    3.40
  -1   0 -15    2.70    3.80
   1   0  15    0.40    2.30
   1   0  15   -3.40    4.00
   1   0  15   -5.20    3.20
   1   0  15    1.90    3.20
   1   0  15    0.70    2.80
   3  -1 -15  128.89   10.80
   3  -1 -15  146.89    8.30
   3  -1 -15  140.19    6.20
   3  -1 -15  138.09    6.50
   3  -1 -15  135.89    7.50
   3  -1 -15  136.59    4.80
  -3   1  15  131.49    5.20
  -3   1  15  138.59    5.40
   2  -1 -15   12.00    4.20
   2  -1 -15    5.40    2.30
   2  -1 -15    0.70    4.60
   2  -1 -15   10.80    3.40
   2  -1 -15   12.90    3.60
   2  -1 -15    6.40    3.80
  -2   1  15   -0.50    2.90
  -2   1  15    6.60    2.60
   1  -1 -15   64.19    5.70
   1  -1 -15   55.19    6.20
   1  -1 -15   61.49    4.30
   1  -1 -15   70.29    6.50
   1  -1 -15   62.39    6.10
   1  -1 -15   59.49    6.70
  -1   1  15   68.09    5.40
  -1   1  15   73.29    7.00
   0  -1 -15   82.39    7.80
   0  -1 -15   85.09    5.60
   0  -1 -15   79.19    7.70
   0  -1 -15   86.19    7.40
   0  -1 -15   87.09    7.00
   0   1  15   70.59    6.70
   0   1  15   83.39    4.40
   0   1  15   74.39    5.50
   2  -2 -15    2.10    4.50
   1   7 -16  155.88    7.90
   1   7 -16  172.18    8.70
  -1  -7  16  170.28    8.80
   0   7 -16   -1.40    4.60
   0   7 -16   -1.80    3.90
   0   7 -16    9.00    3.90
   0   7 -16   13.90    5.60
   0   7 -16    2.30    2.70
   0  -7  16    8.00    3.70
   2   6 -16    6.80    4.00
   2   6 -16   -3.20    4.20
   2   6 -16    3.60    1.90
   2   6 -16    2.80    4.10
   2   6 -16   -2.80    3.30
  -2  -6  16    2.90    3.40
  -2  -6  16    2.10    3.80
   1   6 -16   37.30    4.40
   1   6 -16   47.60    5.00
   1   6 -16   31.90    5.10
   1   6 -16   40.50    4.80
   1   6 -16   50.59    5.60
   1   6 -16   32.30    3.10
  -1  -6  16   26.70    1.40
  -1  -6  16   39.70    4.40
   0   6 -16   76.69    7.40
   0   6 -16   83.29    7.20
   0   6 -16   67.89    7.10
   0   6 -16   88.59    7.20
   0   6 -16   75.09    7.90
   0   6 -16   72.99    5.30
   0  -6  16   54.29    5.30
   0  -6  16   79.09    5.30
   0  -6  16   79.09    6.70
   0  -6  16   74.79    3.80
   0  -6  16   76.29    6.40
  -1   6 -16   11.40    5.20
  -1   6 -16   20.10    4.20
  -1   6 -16   12.50    4.00
  -1   6 -16   19.60    4.20
  -1   6 -16    8.90    3.50
  -1   6 -16   11.40    5.00
   1  -6  16    8.80    3.70
   1  -6  16    7.10    2.80
   1  -6  16    3.30    3.60
   1  -6  16   17.30    4.50
   1  -6  16   14.90    4.10
   2   5 -16   50.19    5.40
   2   5 -16   64.89    6.80
   2   5 -16   58.69    4.10
   2   5 -16   69.39    6.20
   2   5 -16   52.29    5.00
   2   5 -16   62.59    6.00
  -2  -5  16   51.19    5.20
  -2  -5  16   58.59    5.70
   1   5 -16    9.00    4.20
   1   5 -16    1.80    3.70
   1   5 -16   11.50    3.70
   1   5 -16   12.00    3.70
   1   5 -16   17.10    3.20
   1   5 -16   12.60    3.90
  -1  -5  16    6.70    3.60
  -1  -5  16    7.20    3.90
   0   5 -16  143.29    7.50
   0   5 -16  129.59    8.00
   0   5 -16  142.19    7.90
   0   5 -16  152.88    8.70
   0   5 -16  146.39    7.90
   0   5 -16  155.18    8.30
   0  -5  16  142.99    7.50
   0  -5  16  150.78    5.20
   0  -5  16  147.19    8.30
   0  -5  16  156.08    4.80
   0  -5  16  160.08    7.50
  -1   5 -16  103.39    7.90
  -1   5 -16   99.29    8.50
  -1   5 -16  106.89    8.00
  -1   5 -16  100.09    9.40
  -1   5 -16   93.59    8.40
  -1   5 -16  104.09    7.50
   1  -5  16  112.99    7.00
   1  -5  16  105.59    5.40
   1  -5  16   91.09    7.30
   1  -5  16  114.09    7.10
   3   4 -16    4.90    3.20
   3   4 -16    4.80    3.70
   3   4 -16    3.50    4.40
   3   4 -16    7.00    4.00
   3   4 -16    1.60    3.40
   3   4 -16    0.60    2.00
  -3  -4  16    2.10    2.30
  -3  -4  16    7.60    2.20
  -3  -4  16   13.10    4.20
   2   4 -16   12.80    3.40
   2   4 -16    6.90    3.20
   2   4 -16    2.60    4.20
   2   4 -16    8.00    3.30
   2   4 -16    4.50    2.30
   2   4 -16    6.20    3.70
  -2  -4  16    8.00    2.80
  -2  -4  16   12.50    4.00
  -2  -4  16    0.30    2.40
   1   4 -16   31.50    5.20
   1   4 -16   35.90    4.30
   1   4 -16   32.70    4.50
   1   4 -16   34.00    3.80
   1   4 -16   34.00    4.20
  -1  -4  16   27.00    4.00
  -1  -4  16   27.00    3.90
   0   4 -16    6.20    3.80
   0   4 -16   12.10    4.40
   0   4 -16    3.30    3.10
   0   4 -16    1.40    3.70
   0   4 -16    6.20    3.70
   0   4 -16    9.60    5.20
   0  -4  16    5.90    1.70
   0  -4  16    6.30    2.80
   0  -4  16    8.40    3.70
   0  -4  16   11.40    2.20
   0  -4  16   10.40    3.90
  -1   4 -16   21.20    4.80
  -1   4 -16   20.90    4.70
  -1   4 -16   22.60    4.90
  -1   4 -16   18.10    4.30
  -1   4 -16   20.50    4.90
  -1   4 -16   27.20    4.60
   1  -4  16   20.40    3.80
   1  -4  16   14.40    4.10
   1  -4  16   29.30    4.40
   1  -4  16   20.40    3.20
   1  -4  16   17.50    3.00
   3   3 -16   12.50    3.50
   3   3 -16    9.00    4.10
   3   3 -16   11.10    2.10
   3   3 -16   16.00    3.60
   3   3 -16    6.70    3.90
   3   3 -16    6.30    2.70
  -3  -3  16    9.20    2.00
  -3  -3  16    3.80    3.70
  -3  -3  16    7.30    2.30
   2   3 -16  233.48    9.40
   2   3 -16  254.37    7.70
   2   3 -16  249.48    8.60
   2   3 -16  244.98    9.60
   2   3 -16  247.78   11.70
   2   3 -16  245.38    7.90
  -2  -3  16  252.37    9.10
  -2  -3  16  236.08    7.50
   1   3 -16   21.40    4.70
   1   3 -16   29.60    3.80
   1   3 -16   26.70    3.80
   1   3 -16   24.00    4.30
   1   3 -16   30.30    4.90
   1   3 -16   20.60    3.80
  -1  -3  16   25.80    3.90
  -1  -3  16   20.50    3.70
   0   3 -16   -2.30    4.00
   0   3 -16   -4.70    3.70
   0   3 -16   -5.40    4.40
   0   3 -16   -3.80    3.60
   0   3 -16    4.10    3.30
   0   3 -16    3.00    3.50
   0  -3  16   -2.20    3.40
   0  -3  16    8.30    3.30
   0  -3  16    6.20    2.90
   0  -3  16   -2.40    1.70
   0  -3  16   -1.90    1.80
  -1   3 -16    5.60    4.20
  -1   3 -16    7.00    4.60
  -1   3 -16    3.90    4.40
  -1   3 -16    7.80    3.70
  -1   3 -16    3.30    3.80
  -1   3 -16    9.70    3.80
   1  -3  16    6.20    2.70
   1  -3  16    6.10    4.40
   1  -3  16    7.20    2.80
   1  -3  16   12.70    3.80
   1  -3  16    4.20    3.30
   3   2 -16    2.40    3.40
   3   2 -16    5.50    2.20
   3   2 -16   10.60    4.40
   3   2 -16    0.50    3.40
   3   2 -16    8.80    2.40
   3   2 -16    9.40    4.10
  -3  -2  16    2.70    1.70
   2   2 -16   27.10    3.40
   2   2 -16   18.80    4.70
   2   2 -16   29.50    4.00
   2   2 -16   32.30    4.70
   2   2 -16   28.50    3.10
   2   2 -16   32.70    4.20
  -2  -2  16   31.90    3.00
  -2  -2  16   22.10    4.20
   1   2 -16  118.49    7.90
   1   2 -16  106.39    8.40
   1   2 -16  111.69    6.40
   1   2 -16  129.79    8.60
   1   2 -16  115.99    6.70
   1   2 -16  125.69    6.80
  -1  -2  16  116.99    6.20
  -1  -2  16  121.29    7.00
   0   2 -16    6.90    4.30
   0   2 -16   -4.90    3.60
   0   2 -16    6.00    3.30
   0   2 -16    5.00    3.50
   0   2 -16    4.20    3.70
   0   2 -16    1.80    3.80
   0  -2  16    2.40    3.30
   0  -2  16    4.90    3.60
   0  -2  16    2.80    1.70
   0  -2  16    1.20    1.90
   0  -2  16   -1.60    2.80
  -1   2 -16   19.40    5.20
  -1   2 -16   12.30    4.70
  -1   2 -16   23.00    4.30
  -1   2 -16   20.70    4.70
  -1   2 -16   16.70    5.10
  -1   2 -16   20.90    4.10
   1  -2  16   15.50    3.90
   1  -2  16   20.20    2.50
   1  -2  16   21.30    3.30
   1  -2  16    9.90    5.00
   3   1 -16    1.20    5.00
   3   1 -16    3.30    4.30
   3   1 -16    1.40    2.00
   3   1 -16    1.30    3.20
   3   1 -16    2.40    2.30
   3   1 -16    0.90    3.60
  -3  -1  16    0.90    1.90
   2   1 -16  180.58    7.20
   2   1 -16  188.48    8.20
   2   1 -16  173.08    9.80
   2   1 -16  191.08    9.20
   2   1 -16  188.68   10.20
   2   1 -16  192.58    6.80
  -2  -1  16  180.68    8.70
  -2  -1  16  188.48    6.40
   1   1 -16  305.07   12.10
   1   1 -16  296.07   10.30
   1   1 -16  328.87   11.40
   1   1 -16  317.47   10.20
   1   1 -16  316.87   11.20
   1   1 -16  320.77    9.80
  -1  -1  16  305.47   10.60
   0   1 -16    2.10    3.10
   0   1 -16    7.60    5.30
   0   1 -16    1.90    3.70
   0   1 -16    3.80    4.10
   0   1 -16   -2.10    3.50
   0   1 -16    3.60    3.50
   0  -1  16    2.70    1.90
   0  -1  16    1.50    4.00
   0  -1  16    2.20    3.20
   0  -1  16    3.60    2.90
   0  -1  16   -3.50    1.50
   2   0 -16   26.60    4.30
   2   0 -16   43.40    4.90
   2   0 -16   34.40    5.30
   2   0 -16   38.20    4.00
   2   0 -16   43.30    3.70
  -2   0  16   29.60    3.00
   1   0 -16   11.00    3.20
   1   0 -16    8.70    4.00
   1   0 -16    8.00    3.50
   1   0 -16   14.00    4.30
   1   0 -16   18.70    5.60
   0   0   0    0.00    0.00

_computing_structure_solution     'SHELXT 2014/5 (Sheldrick, 2014)'
;
_shelx_hkl_checksum              30122
loop_
_space_group_symop_operation_xyz
'x, y, z'
'-x, -y, -z'
loop_
_atom_site_label
_atom_site_type_symbol
_atom_site_fract_x
_atom_site_fract_y
_atom_site_fract_z
_atom_site_U_iso_or_equiv
_atom_site_adp_type
_atom_site_occupancy
_atom_site_site_symmetry_order
_atom_site_calc_flag
_atom_site_refinement_flags_posn
_atom_site_refinement_flags_adp
_atom_site_refinement_flags_occupancy
_atom_site_disorder_assembly
_atom_site_disorder_group
N1 N 0.5581(2) 0.57249(14) 0.50957(10) 0.0166(2) Uani 1 1 d . . . . .
O1 O 0.7075(2) 0.64046(14) 0.59317(9) 0.0265(3) Uani 1 1 d . . . . .
C1 C 0.5130(2) 0.64967(16) 0.43014(11) 0.0167(3) Uani 1 1 d . . . . .
C2 C 0.6237(2) 0.61948(17) 0.34023(12) 0.0182(3) Uani 1 1 d . . . . .
C3 C 0.5741(3) 0.68930(18) 0.26190(12) 0.0205(3) Uani 1 1 d . . . . .
C4 C 0.4238(3) 0.78869(18) 0.27690(12) 0.0214(3) Uani 1 1 d . . . . .
C5 C 0.3234(2) 0.82134(17) 0.37093(12) 0.0203(3) Uani 1 1 d . . . . .
C6 C 0.3695(2) 0.75171(17) 0.45031(12) 0.0187(3) Uani 1 1 d . . . . .
C7 C 0.7937(3) 0.51968(19) 0.32988(13) 0.0231(3) Uani 1 1 d . . . . .
H7A H 0.835813 0.507021 0.400247 0.035 Uiso 1 1 calc R U . . .
H7B H 0.924997 0.571327 0.307848 0.035 Uiso 1 1 calc R U . . .
H7C H 0.730741 0.415865 0.274822 0.035 Uiso 1 1 calc R U . . .
C8 C 0.6829(3) 0.6564(2) 0.16098(14) 0.0320(4) Uani 1 1 d . . . . .
H8A H 0.757070 0.569341 0.155831 0.048 Uiso 1 1 calc R U . . .
H8B H 0.792254 0.750997 0.165425 0.048 Uiso 1 1 calc R U . . .
H8C H 0.570024 0.627683 0.096266 0.048 Uiso 1 1 calc R U . . .
C9 C 0.3733(3) 0.8631(2) 0.19154(15) 0.0339(4) Uani 1 1 d . . . . .
H9A H 0.267512 0.785455 0.129909 0.051 Uiso 1 1 calc R U . . .
H9B H 0.510485 0.898043 0.166073 0.051 Uiso 1 1 calc R U . . .
H9C H 0.309290 0.953860 0.223377 0.051 Uiso 1 1 calc R U . . .
C10 C 0.1651(3) 0.9308(2) 0.38883(15) 0.0297(4) Uani 1 1 d . . . . .
H10A H 0.242990 1.035205 0.439163 0.044 Uiso 1 1 calc R U . . .
H10B H 0.040894 0.888360 0.419946 0.044 Uiso 1 1 calc R U . . .
H10C H 0.108858 0.939865 0.318991 0.044 Uiso 1 1 calc R U . . .
C11 C 0.2718(3) 0.79050(19) 0.55426(13) 0.0247(3) Uani 1 1 d . . . . .
H11A H 0.114988 0.736391 0.538716 0.037 Uiso 1 1 calc R U . . .
H11B H 0.285127 0.904653 0.584302 0.037 Uiso 1 1 calc R U . . .
H11C H 0.351718 0.755649 0.607287 0.037 Uiso 1 1 calc R U . . .
C1S C 0.8281(3) 0.7213(2) 0.84415(13) 0.0273(3) Uani 1 1 d . . . . .
H1S H 0.770310 0.651342 0.767154 0.033 Uiso 1 1 calc R U . . .
Cl1 Cl 1.04377(9) 0.87393(7) 0.84320(5) 0.04763(16) Uani 1 1 d . . . . .
Cl2 Cl 0.60873(8) 0.79687(6) 0.90127(4) 0.03795(14) Uani 1 1 d . . . . .
Cl3 Cl 0.92532(9) 0.60758(7) 0.91734(4) 0.04261(15) Uani 1 1 d . . . . .
loop_
_atom_site_aniso_label
_atom_site_aniso_U_11
_atom_site_aniso_U_22
_atom_site_aniso_U_33
_atom_site_aniso_U_23
_atom_site_aniso_U_13
_atom_site_aniso_U_12
N1 0.0182(6) 0.0165(6) 0.0126(5) 0.0041(4) 0.0019(4) -0.0010(5)
O1 0.0291(6) 0.0258(6) 0.0171(5) 0.0078(4) -0.0074(4) -0.0080(5)
C1 0.0182(7) 0.0165(6) 0.0138(6) 0.0057(5) 0.0014(5) -0.0006(5)
C2 0.0189(7) 0.0181(7) 0.0172(7) 0.0062(5) 0.0048(5) 0.0015(5)
C3 0.0237(7) 0.0217(7) 0.0168(7) 0.0079(6) 0.0061(6) 0.0031(6)
C4 0.0231(7) 0.0211(7) 0.0204(7) 0.0094(6) 0.0028(6) 0.0021(6)
C5 0.0196(7) 0.0178(7) 0.0228(7) 0.0067(6) 0.0037(6) 0.0023(5)
C6 0.0191(7) 0.0164(6) 0.0181(7) 0.0042(5) 0.0045(5) 0.0000(5)
C7 0.0243(8) 0.0250(7) 0.0239(7) 0.0108(6) 0.0090(6) 0.0073(6)
C8 0.0444(10) 0.0386(10) 0.0233(8) 0.0172(7) 0.0179(7) 0.0169(8)
C9 0.0392(10) 0.0432(10) 0.0306(9) 0.0235(8) 0.0093(7) 0.0156(8)
C10 0.0307(9) 0.0285(8) 0.0345(9) 0.0128(7) 0.0086(7) 0.0127(7)
C11 0.0291(8) 0.0229(7) 0.0218(7) 0.0053(6) 0.0114(6) 0.0053(6)
C1S 0.0299(8) 0.0324(9) 0.0208(7) 0.0107(7) 0.0014(6) 0.0079(7)
Cl1 0.0330(3) 0.0440(3) 0.0686(4) 0.0241(3) 0.0110(2) 0.0046(2)
Cl2 0.0305(2) 0.0449(3) 0.0465(3) 0.0219(2) 0.00823(19) 0.01562(19)
Cl3 0.0574(3) 0.0561(3) 0.0342(2) 0.0266(2) 0.0183(2) 0.0357(3)
loop_
_atom_type_symbol
_atom_type_description
_atom_type_scat_dispersion_real
_atom_type_scat_dispersion_imag
_atom_type_scat_source
C C 0.0033 0.0016 'International Tables Vol C Tables 4.2.6.8 and 6.1.1.4'
H H 0.0000 0.0000 'International Tables Vol C Tables 4.2.6.8 and 6.1.1.4'
N N 0.0061 0.0033 'International Tables Vol C Tables 4.2.6.8 and 6.1.1.4'
O O 0.0106 0.0060 'International Tables Vol C Tables 4.2.6.8 and 6.1.1.4'
Cl Cl 0.1484 0.1585 'International Tables Vol C Tables 4.2.6.8 and 6.1.1.4'
loop_
_geom_angle_atom_site_label_1
_geom_angle_atom_site_label_2
_geom_angle_atom_site_label_3
_geom_angle
_geom_angle_site_symmetry_1
_geom_angle_site_symmetry_3
_geom_angle_publ_flag
O1 N1 N1 120.97(15) . 2_666 ?
O1 N1 C1 121.26(12) . . ?
N1 N1 C1 117.75(14) 2_666 . ?
C6 C1 C2 124.38(14) . . ?
C6 C1 N1 118.32(13) . . ?
C2 C1 N1 117.27(13) . . ?
C1 C2 C3 117.18(14) . . ?
C1 C2 C7 121.10(13) . . ?
C3 C2 C7 121.70(13) . . ?
C2 C3 C4 120.32(13) . . ?
C2 C3 C8 119.53(14) . . ?
C4 C3 C8 120.14(14) . . ?
C5 C4 C3 120.61(14) . . ?
C5 C4 C9 119.97(15) . . ?
C3 C4 C9 119.41(14) . . ?
C4 C5 C6 120.07(14) . . ?
C4 C5 C10 120.97(14) . . ?
C6 C5 C10 118.96(14) . . ?
C1 C6 C5 117.30(13) . . ?
C1 C6 C11 121.61(14) . . ?
C5 C6 C11 121.06(14) . . ?
C2 C7 H7A 109.5 . . ?
C2 C7 H7B 109.5 . . ?
H7A C7 H7B 109.5 . . ?
C2 C7 H7C 109.5 . . ?
H7A C7 H7C 109.5 . . ?
H7B C7 H7C 109.5 . . ?
C3 C8 H8A 109.5 . . ?
C3 C8 H8B 109.5 . . ?
H8A C8 H8B 109.5 . . ?
C3 C8 H8C 109.5 . . ?
H8A C8 H8C 109.5 . . ?
H8B C8 H8C 109.5 . . ?
C4 C9 H9A 109.5 . . ?
C4 C9 H9B 109.5 . . ?
H9A C9 H9B 109.5 . . ?
C4 C9 H9C 109.5 . . ?
H9A C9 H9C 109.5 . . ?
H9B C9 H9C 109.5 . . ?
C5 C10 H10A 109.5 . . ?
C5 C10 H10B 109.5 . . ?
H10A C10 H10B 109.5 . . ?
C5 C10 H10C 109.5 . . ?
H10A C10 H10C 109.5 . . ?
H10B C10 H10C 109.5 . . ?
C6 C11 H11A 109.5 . . ?
C6 C11 H11B 109.5 . . ?
H11A C11 H11B 109.5 . . ?
C6 C11 H11C 109.5 . . ?
H11A C11 H11C 109.5 . . ?
H11B C11 H11C 109.5 . . ?
Cl1 C1S Cl3 110.72(10) . . ?
Cl1 C1S Cl2 111.01(10) . . ?
Cl3 C1S Cl2 109.76(9) . . ?
Cl1 C1S H1S 108.4 . . ?
Cl3 C1S H1S 108.4 . . ?
Cl2 C1S H1S 108.4 . . ?
loop_
_geom_bond_atom_site_label_1
_geom_bond_atom_site_label_2
_geom_bond_distance
_geom_bond_site_symmetry_2
_geom_bond_publ_flag
N1 O1 1.2728(16) . ?
N1 N1 1.325(2) 2_666 ?
N1 C1 1.4594(18) . ?
C1 C6 1.392(2) . ?
C1 C2 1.397(2) . ?
C2 C3 1.404(2) . ?
C2 C7 1.509(2) . ?
C3 C4 1.406(2) . ?
C3 C8 1.512(2) . ?
C4 C5 1.405(2) . ?
C4 C9 1.514(2) . ?
C5 C6 1.410(2) . ?
C5 C10 1.513(2) . ?
C6 C11 1.509(2) . ?
C7 H7A 0.9800 . ?
C7 H7B 0.9800 . ?
C7 H7C 0.9800 . ?
C8 H8A 0.9800 . ?
C8 H8B 0.9800 . ?
C8 H8C 0.9800 . ?
C9 H9A 0.9800 . ?
C9 H9B 0.9800 . ?
C9 H9C 0.9800 . ?
C10 H10A 0.9800 . ?
C10 H10B 0.9800 . ?
C10 H10C 0.9800 . ?
C11 H11A 0.9800 . ?
C11 H11B 0.9800 . ?
C11 H11C 0.9800 . ?
C1S Cl1 1.7542(18) . ?
C1S Cl3 1.7623(17) . ?
C1S Cl2 1.7650(18) . ?
C1S H1S 1.0000 . ?
