#------------------------------------------------------------------------------
#$Date: 2020-04-28 22:54:48 +0300 (Tue, 28 Apr 2020) $
#$Revision: 251234 $
#$URL: file:///home/coder/svn-repositories/cod/cif/4/13/48/4134817.cif $
#------------------------------------------------------------------------------
#
# This file is available in the Crystallography Open Database (COD),
# http://www.crystallography.net/
#
# All data on this site have been placed in the public domain by the
# contributors.
#
data_4134817
loop_
_publ_author_name
'Mao, Lingling'
'Guo, Peijun'
'Kepenekian, Mika\"el'
'Spanopoulos, Ioannis'
'He, Yihui'
'Katan, Claudine'
'Even, Jacky'
'Schaller, Richard D.'
'Seshadri, Ram'
'Stoumpos, Constantinos C.'
'Kanatzidis, Mercouri G.'
_publ_section_title
;
 Organic Cation Alloying on Intralayer A and Interlayer A' sites in 2D
 Hybrid Dion-Jacobson Lead Bromide Perovskites
 (A')(A)Pb<sub>2</sub>Br<sub>7</sub>.
;
_journal_name_full               'Journal of the American Chemical Society'
_journal_paper_doi               10.1021/jacs.0c01625
_journal_year                    2020
_chemical_formula_moiety         'Br7 Pb2, C N, C6 H16 N2'
_chemical_formula_sum            'C7 H0.5 Br7 N3 Pb2'
_chemical_formula_weight         1100.35
_space_group_crystal_system      monoclinic
_space_group_IT_number           7
_space_group_name_Hall           'P -2yc'
_space_group_name_H-M_alt        'P 1 c 1'
_atom_sites_solution_hydrogens   geom
_atom_sites_solution_primary     direct
_audit_creation_date             2020-01-17
_audit_creation_method
;
Olex2 1.2
(compiled 2018.05.29 svn.r3508 for OlexSys, GUI svn.r5506)
;
_cell_angle_alpha                90
_cell_angle_beta                 89.921(6)
_cell_angle_gamma                90
_cell_formula_units_Z            2
_cell_length_a                   16.193(2)
_cell_length_b                   8.3678(11)
_cell_length_c                   8.3469(10)
_cell_measurement_reflns_used    6327
_cell_measurement_temperature    293(2)
_cell_measurement_theta_max      27.809
_cell_measurement_theta_min      2.515
_cell_volume                     1131.0(2)
_computing_cell_refinement       'SAINT V8.38A (?, 2016)'
_computing_data_reduction        'SAINT V8.38A (?, 2016)'
_computing_molecular_graphics    'Olex2 (Dolomanov et al., 2009)'
_computing_publication_material  'Olex2 (Dolomanov et al., 2009)'
_computing_structure_refinement  'XL (Sheldrick, 2008)'
_computing_structure_solution    'XS (Sheldrick, 2008)'
_diffrn_ambient_temperature      293.01
_diffrn_measured_fraction_theta_full 0.990
_diffrn_measured_fraction_theta_max 0.967
_diffrn_measurement_device_type  'Bruker APEX-II CCD'
_diffrn_measurement_method       '\f and \w scans'
_diffrn_radiation_type           MoK\a
_diffrn_radiation_wavelength     0.71073
_diffrn_reflns_av_R_equivalents  0.0436
_diffrn_reflns_av_unetI/netI     0.0507
_diffrn_reflns_Laue_measured_fraction_full 0.990
_diffrn_reflns_Laue_measured_fraction_max 0.967
_diffrn_reflns_limit_h_max       21
_diffrn_reflns_limit_h_min       -21
_diffrn_reflns_limit_k_max       10
_diffrn_reflns_limit_k_min       -10
_diffrn_reflns_limit_l_max       9
_diffrn_reflns_limit_l_min       -10
_diffrn_reflns_number            13102
_diffrn_reflns_point_group_measured_fraction_full 0.962
_diffrn_reflns_point_group_measured_fraction_max 0.925
_diffrn_reflns_theta_full        25.242
_diffrn_reflns_theta_max         27.981
_diffrn_reflns_theta_min         1.257
_diffrn_standards_number         0
_exptl_absorpt_coefficient_mu    27.221
_exptl_absorpt_correction_T_max  0.4811
_exptl_absorpt_correction_T_min  0.1123
_exptl_absorpt_correction_type   numerical
_exptl_absorpt_process_details
'SADABS-2016/2 (Bruker,2016/2) was used for absorption correction. wR2(int) was 0.1216 before and 0.0692 after correction. The Ratio of minimum to maximum transmission is 0.2334. The \l/2 correction factor is Not present.'
_exptl_crystal_colour            yellow
_exptl_crystal_colour_primary    yellow
_exptl_crystal_density_diffrn    3.231
_exptl_crystal_description       plate
_exptl_crystal_F_000             945
_exptl_crystal_size_max          0.13
_exptl_crystal_size_mid          0.097
_exptl_crystal_size_min          0.056
_refine_diff_density_max         2.966
_refine_diff_density_min         -3.172
_refine_diff_density_rms         0.314
_refine_ls_abs_structure_details
;
 Flack x determined using 1469 quotients [(I+)-(I-)]/[(I+)+(I-)]
 (Parsons, Flack and Wagner, Acta Cryst. B69 (2013) 249-259).
;
_refine_ls_abs_structure_Flack   0.49(2)
_refine_ls_extinction_method     none
_refine_ls_goodness_of_fit_ref   1.070
_refine_ls_hydrogen_treatment    constr
_refine_ls_matrix_type           full
_refine_ls_number_parameters     115
_refine_ls_number_reflns         5029
_refine_ls_number_restraints     27
_refine_ls_restrained_S_all      1.069
_refine_ls_R_factor_all          0.0767
_refine_ls_R_factor_gt           0.0576
_refine_ls_shift/su_max          0.000
_refine_ls_shift/su_mean         0.000
_refine_ls_structure_factor_coef Fsqd
_refine_ls_weighting_details
'w=1/[\s^2^(Fo^2^)+(0.0960P)^2^+12.6989P] where P=(Fo^2^+2Fc^2^)/3'
_refine_ls_weighting_scheme      calc
_refine_ls_wR_factor_gt          0.1690
_refine_ls_wR_factor_ref         0.1851
_reflns_Friedel_coverage         0.908
_reflns_Friedel_fraction_full    0.934
_reflns_Friedel_fraction_max     0.882
_reflns_number_gt                3611
_reflns_number_total             5029
_reflns_threshold_expression     'I > 2\s(I)'
_cod_data_source_file            ja0c01625_si_009.cif
_cod_data_source_block           pc
_cod_original_cell_volume        1131.0(3)
_cod_original_formula_sum        'C7 H0.50 Br7 N3 Pb2'
_cod_database_code               4134817
_shelx_shelxl_version_number     2014/7
_shelx_space_group_comment
;
The symmetry employed for this shelxl refinement is uniquely defined
by the following loop, which should always be used as a source of
symmetry information in preference to the above space-group names.
They are only intended as comments.
;
_shelx_estimated_absorpt_t_max   0.311
_shelx_estimated_absorpt_t_min   0.126
_olex2_refinement_description
;
1. Fixed Uiso
 At 1.2 times of:
  All C(H) groups, All C(H,H) groups, All N(H,H) groups, All N(H,H,H) groups
2. Restrained distances
 C1-N1
 1.5 with sigma of 0.02
 N2-C2 = C2-C3
 1.5 with sigma of 0.02
 C2-C3 = C3-C4
 1.5 with sigma of 0.02
 C3-C4 = C4-C5
 1.5 with sigma of 0.02
 C4-C5 = C5-C6
 1.5 with sigma of 0.02
 C5-C6 = C6-N2
 1.5 with sigma of 0.02
 C6-N2 = N2-C2
 1.5 with sigma of 0.02
 C3-C4 = C4-C7
 1.5 with sigma of 0.02
 C4-C7 = C7-N3
 1.5 with sigma of 0.02
 N2-C3
 2.516 with sigma of 0.04
 C2-C4
 2.544 with sigma of 0.04
 C3-C5
 2.544 with sigma of 0.04
 C4-C6
 2.558 with sigma of 0.04
 C5-N2
 2.516 with sigma of 0.04
 C6-C2
 2.544 with sigma of 0.04
 C3-C7
 2.442 with sigma of 0.04
 C4-N3
 2.598 with sigma of 0.04
3. Uiso/Uaniso restraints and constraints
Uiso(C1) = Uiso(N1)
Uiso(N2) = Uiso(C2) = Uiso(C3) = Uiso(C4) = Uiso(C5) = Uiso(C6) = Uiso(C7) =
Uiso(N3)
4.a Ternary CH refined with riding coordinates:
 C4(H4)
4.b Secondary CH2 refined with riding coordinates:
 N2(H2A,H2B), C2(H2D,H2C), C3(H3E,H3D), C5(H5A,H5B), C6(H6A,H6B), C7(H7A,H7B)
4.c Idealised Me refined as rotating group:
 N3(H3A,H3B,H3C)
;
_shelx_res_file
;
    pc.res created by SHELXL-2014/7

TITL Pc in Pc #7
REM reset to Pc #7
CELL 0.71073 16.1932 8.3678 8.3469 90 89.921 90
ZERR 2 0.0022 0.0011 0.001 0 0.0064 0
LATT -1
SYMM +X,-Y,0.5+Z
SFAC Br C N Pb H
UNIT 14 14 6 4 1
DFIX 1.5 C1 N1
DFIX 1.5 N2 C2 C2 C3
DFIX 1.5 C2 C3 C3 C4
DFIX 1.5 C3 C4 C4 C5
DFIX 1.5 C4 C5 C5 C6
DFIX 1.5 C5 C6 C6 N2
DFIX 1.5 C6 N2 N2 C2
DFIX 1.5 C3 C4 C4 C7
DFIX 1.5 C4 C7 C7 N3
DANG 2.516 N2 C3
DANG 2.544 C2 C4
DANG 2.544 C3 C5
DANG 2.558 C4 C6
DANG 2.516 C5 N2
DANG 2.544 C6 C2
DANG 2.442 C3 C7
DANG 2.598 C4 N3
EADP C1 N1
EADP N2 C2 C3 C4 C5 C6 C7 N3

L.S. 50
PLAN  100
SIZE 0.056 0.097 0.13
TEMP 19.86
MORE -1
CONF
fmap 2
ACTA
REM <olex2.extras>
REM <HklSrc "%.\\Pc.hkl">
REM </olex2.extras>

WGHT    0.096000   12.698901
FVAR       0.05374
PB1   4    0.939007    0.250085    0.855427    11.00000    0.03813    0.04189 =
         0.04222    0.00054    0.00027    0.00233
PB2   4    0.561105    0.249987    0.855459    11.00000    0.03152    0.03218 =
         0.03354   -0.00046    0.00054   -0.00198
BR1   1    1.118491    0.255581    0.854324    11.00000    0.05831    0.26349 =
         0.29385   -0.02131    0.00037   -0.01945
BR3   1    0.935932   -0.045677    0.647441    11.00000    0.11680    0.04890 =
         0.05590   -0.02187   -0.01052    0.00982
BR4   1    0.559153   -0.046741    0.649273    11.00000    0.10143    0.06043 =
         0.04625   -0.02288    0.01611   -0.01799
BR5   1    0.935254    0.459929    0.562738    11.00000    0.12314    0.04994 =
         0.07078    0.02766    0.00318    0.00183
BR6   1    0.559132    0.459289    0.560539    11.00000    0.10558    0.06378 =
         0.05966    0.02969   -0.00984   -0.01078
BR7   1    0.384459    0.255661    0.854277    11.00000    0.01401    0.29707 =
         0.29232    0.01737    0.00079    0.00596
BR9   1    0.753882    0.250083    0.856080    11.00000    0.03101    0.10087 =
         0.10209   -0.00040   -0.00162    0.00045
N1    3    0.755905    0.174322    0.438837    11.00000    0.12183
C1    2    0.757355    0.315464    0.321597    11.00000    0.12183
N2    3    0.093815    0.241719    0.367700    11.00000    0.18338
AFIX  23
H2A   5    0.052091    0.285338    0.421708    11.00000   -1.20000
H2B   5    0.071804    0.181377    0.291036    11.00000   -1.20000
AFIX   0
N3    3    0.418802    0.220614    0.392386    11.00000    0.18338
AFIX 137
H3A   5    0.458733    0.267361    0.335960    11.00000   -1.20000
H3B   5    0.412725    0.120091    0.359621    11.00000   -1.20000
H3C   5    0.432068    0.221549    0.495821    11.00000   -1.20000
AFIX   0
C2    2    0.138193    0.134158    0.478827    11.00000    0.18338
AFIX  23
H2D   5    0.125072    0.024732    0.450175    11.00000   -1.20000
H2C   5    0.117110    0.152313    0.586125    11.00000   -1.20000
AFIX   0
C3    2    0.230790    0.151116    0.482996    11.00000    0.18338
AFIX  23
H3E   5    0.245461    0.227313    0.565781    11.00000   -1.20000
H3D   5    0.254868    0.048944    0.511767    11.00000   -1.20000
AFIX   0
C4    2    0.267279    0.205204    0.327238    11.00000    0.18338
AFIX  13
H4    5    0.279181    0.118950    0.251215    11.00000   -1.20000
AFIX   0
C5    2    0.229981    0.350721    0.254246    11.00000    0.18338
AFIX  23
H5A   5    0.237732    0.345741    0.139100    11.00000   -1.20000
H5B   5    0.259633    0.443702    0.292985    11.00000   -1.20000
AFIX   0
C6    2    0.139703    0.373328    0.288368    11.00000    0.18338
AFIX  23
H6A   5    0.133964    0.467915    0.354637    11.00000   -1.20000
H6B   5    0.112464    0.395821    0.187427    11.00000   -1.20000
AFIX   0
C7    2    0.340503    0.308421    0.368720    11.00000    0.18338
AFIX  23
H7A   5    0.348390    0.385981    0.283698    11.00000   -1.20000
H7B   5    0.327955    0.367048    0.466006    11.00000   -1.20000
AFIX   0
HKLF 4

REM  Pc in Pc #7
REM R1 =  0.0576 for    3611 Fo > 4sig(Fo)  and  0.0767 for all    5029 data
REM    115 parameters refined using     27 restraints

END

WGHT      0.0954     12.7898

REM Highest difference peak  2.966,  deepest hole -3.172,  1-sigma level  0.314
Q1    1   0.3832  0.3238  0.8903  11.00000  0.05    2.97
Q2    1   0.3879  0.1713  0.8115  11.00000  0.05    2.94
Q3    1   1.1147  0.3248  0.8927  11.00000  0.05    2.92
Q4    1   1.1152  0.1781  0.8149  11.00000  0.05    2.84
Q5    1   0.3870  0.2925  0.7818  11.00000  0.05    2.61
Q6    1   1.1148  0.1993  0.9250  11.00000  0.05    2.59
Q7    1   0.3854  0.2022  0.9282  11.00000  0.05    2.47
Q8    1   1.1125  0.2901  0.7818  11.00000  0.05    2.36
Q9    1   0.8410  0.2474  0.8589  11.00000  0.05    2.08
Q10   1   0.6581  0.2498  0.8525  11.00000  0.05    2.02
Q11   1   0.4000  0.2513  0.3475  11.00000  0.05    1.85
Q12   1   0.2758  0.2535  0.3606  11.00000  0.05    1.53
Q13   1   0.2237  0.2480  0.3498  11.00000  0.05    1.49
Q14   1   0.2985  0.2469  0.8600  11.00000  0.05    1.48
Q15   1   0.7434  0.3308  0.8896  11.00000  0.05    1.46
Q16   1   0.9956  0.1738  0.8323  11.00000  0.05    1.43
Q17   1   0.5025  0.3434  0.8697  11.00000  0.05    1.39
Q18   1   1.1983  0.2473  0.8524  11.00000  0.05    1.38
Q19   1   0.9995  0.3328  0.8654  11.00000  0.05    1.36
Q20   1   0.6259  0.3804  0.8464  11.00000  0.05    1.36
Q21   1   0.6264  0.1075  0.8467  11.00000  0.05    1.32
Q22   1   1.0473  0.2492  0.8614  11.00000  0.05    1.26
Q23   1   0.7530  0.1643  0.8226  11.00000  0.05    1.22
Q24   1   0.4966  0.1153  0.8551  11.00000  0.05    1.17
Q25   1   0.7459  0.2145  0.9389  11.00000  0.05    1.15
Q26   1   0.7463  0.2815  0.7731  11.00000  0.05    1.14
Q27   1   0.5613  0.4035  0.8214  11.00000  0.05    1.12
Q28   1   0.4579  0.2425  0.8521  11.00000  0.05    1.11
Q29   1   0.5599  0.0923  0.8475  11.00000  0.05    1.03
Q30   1   0.8754  0.1258  0.8649  11.00000  0.05    1.02
Q31   1   0.8744  0.3841  0.8626  11.00000  0.05    1.02
Q32   1   0.4742  0.5264  0.3622  11.00000  0.05    1.01
Q33   1   0.3572  0.2631  0.5108  11.00000  0.05    0.98
Q34   1   0.2196  0.0762  0.3294  11.00000  0.05    0.97
Q35   1   0.3484  0.2599  0.1900  11.00000  0.05    0.96
Q36   1   0.7451  0.2902  0.4008  11.00000  0.05    0.95
Q37   1   0.7515  0.2057  0.3153  11.00000  0.05    0.91
Q38   1   0.1447  0.2628  0.1991  11.00000  0.05    0.86
Q39   1   0.5012  0.2252  0.9132  11.00000  0.05    0.86
Q40   1   0.2818  0.4203  0.3941  11.00000  0.05    0.86
Q41   1   0.1507  0.2332  0.5216  11.00000  0.05    0.85
Q42   1   0.1232  0.0965  0.3686  11.00000  0.05    0.84
Q43   1   0.6553  0.4979  0.3327  11.00000  0.05    0.84
Q44   1   0.8982 -0.0118  0.6210  11.00000  0.05    0.83
Q45   1   0.2807  0.0792  0.3698  11.00000  0.05    0.82
Q46   1   0.2744  0.2512  0.5110  11.00000  0.05    0.81
Q47   1   0.4787 -0.0301  0.3647  11.00000  0.05    0.80
Q48   1   0.4392  0.1494  0.8429  11.00000  0.05    0.80
Q49   1   1.0047  0.0968  0.8567  11.00000  0.05    0.80
Q50   1   0.2780  0.2562  0.1761  11.00000  0.05    0.78
Q51   1   0.4375  0.3581  0.8342  11.00000  0.05    0.77
Q52   1   0.7645  0.3337  0.2513  11.00000  0.05    0.77
Q53   1   0.3739  0.4079  0.3476  11.00000  0.05    0.76
Q54   1   0.7053  0.1867  0.4461  11.00000  0.05    0.75
Q55   1   0.6021  0.4857  0.5908  11.00000  0.05    0.75
Q56   1   0.2194  0.4228  0.3291  11.00000  0.05    0.74
Q57   1   1.0626  0.1167  0.8833  11.00000  0.05    0.74
Q58   1   0.2167  0.5072  0.0817  11.00000  0.05    0.74
Q59   1   0.2243  0.2524  0.2030  11.00000  0.05    0.73
Q60   1   0.3338  0.0992  0.9074  11.00000  0.05    0.73
Q61   1   0.3609  0.4193  0.3819  11.00000  0.05    0.72
Q62   1   0.2779  0.4106  0.3121  11.00000  0.05    0.72
Q63   1   0.0231  0.5325  0.3461  11.00000  0.05    0.71
Q64   1   0.2597  0.1756  0.1493  11.00000  0.05    0.71
Q65   1   0.2251  0.2518  0.5256  11.00000  0.05    0.71
Q66   1   0.1368 -0.1684  0.5643  11.00000  0.05    0.69
Q67   1   0.1151 -0.0010  0.2490  11.00000  0.05    0.69
Q68   1   0.0621  0.1942  0.4656  11.00000  0.05    0.68
Q69   1   0.6870  0.1467  0.8766  11.00000  0.05    0.68
Q70   1   0.9384  0.3988  0.8798  11.00000  0.05    0.67
Q71   1   0.8373  0.2595  0.1912  11.00000  0.05    0.67
Q72   1   0.6980  0.2752  0.4322  11.00000  0.05    0.67
Q73   1   0.3791  0.0241  0.6201  11.00000  0.05    0.67
Q74   1   0.0192 -0.0372  0.3494  11.00000  0.05    0.66
Q75   1   0.8979  0.5028  0.6012  11.00000  0.05    0.66
Q76   1   0.0437  0.2136  0.5169  11.00000  0.05    0.66
Q77   1   0.1218 -0.1491  0.5820  11.00000  0.05    0.66
Q78   1   0.3814  0.4149  0.6241  11.00000  0.05    0.66
Q79   1   0.1085  0.2752  0.5549  11.00000  0.05    0.65
Q80   1   0.3200  0.5119  0.4099  11.00000  0.05    0.65
Q81   1   0.3550  0.0901  0.3960  11.00000  0.05    0.63
Q82   1   0.8479  0.0174  0.3682  11.00000  0.05    0.63
Q83   1   0.2632  0.3826  0.2814  11.00000  0.05    0.63
Q84   1   0.3572  0.2957  0.6428  11.00000  0.05    0.63
Q85   1   0.9893  0.2138  0.9424  11.00000  0.05    0.62
Q86   1   0.7457 -0.0131  0.6045  11.00000  0.05    0.62
Q87   1   0.8470  0.4895  0.3695  11.00000  0.05    0.62
Q88   1   0.6961  0.0940  0.8640  11.00000  0.05    0.62
Q89   1   0.3825  0.5096  0.4633  11.00000  0.05    0.61
Q90   1   0.2194 -0.0053  0.5893  11.00000  0.05    0.61
Q91   1   0.1766 -0.0158  0.2956  11.00000  0.05    0.61
Q92   1   1.2398  0.3225  0.8818  11.00000  0.05    0.61
Q93   1   0.3209 -0.0246  0.4330  11.00000  0.05    0.60
Q94   1   0.6011  0.2996  0.8320  11.00000  0.05    0.59
Q95   1   0.6653  0.0915  0.3557  11.00000  0.05    0.58
Q96   1   0.4537  0.2871  0.1876  11.00000  0.05    0.58
Q97   1   0.3986  0.3252  0.5983  11.00000  0.05    0.58
Q98   1   0.7420  0.5056  0.0895  11.00000  0.05    0.58
Q99   1   0.6014 -0.0079  0.6230  11.00000  0.05    0.58
Q100  1   0.7996  0.2404  0.2742  11.00000  0.05    0.58
;
_shelx_res_checksum              6675
_shelx_hkl_file
;
   0   0   1   -0.02    0.06
   0   0  -1    0.00    0.05
   0   0  -2  237.34   14.68
   0   0  -3    0.07    0.11
   0   0  -4  373.24   22.89
   0   0  -5    0.55    0.20
   0   0  -6   88.24    5.47
   0   0  -7    0.19    0.23
   0   0  -8   15.11    1.15
   0   1   0    0.03    0.02
   0   1   0    0.04    0.01
   0   1   0    0.04    0.02
   0   1   0    0.02    0.02
   0  -1   0    0.01    0.02
   0  -1   0    0.03    0.02
   0  -1   0    0.04    0.02
   0  -1   0    0.05    0.02
   0   1   1  351.65   21.01
   0   1   1  332.41   21.02
   0   1   1  363.98   21.02
   0  -1  -1  346.10   21.00
   0   1   2   25.00    1.49
   0   1   2   23.05    1.49
   0   1   2   25.00    1.48
   0  -1   2   23.32    1.48
   0  -1  -2   25.00    1.48
   0  -1   2   26.14    1.48
   0  -1   2   24.37    1.48
   0  -1  -2   24.80    1.49
   0  -1  -2   24.44    1.49
   0   1   3  425.89   24.17
   0   1   3  375.95   24.17
   0   1   4   59.46    3.52
   0   1   4   54.89    3.52
   0  -1   4   57.12    3.52
   0  -1   4   62.00    3.52
   0   1   5   84.79    5.32
   0   1   5   90.49    5.32
   0  -1   5   82.52    5.32
   0  -1   5   95.18    5.32
   0   1   6   25.83    1.53
   0   1   6   25.59    1.53
   0   1  -6   23.95    1.74
   0   1   7   56.88    3.34
   0   1  -7   53.49    3.55
   0   1  -8    4.88    0.63
   0   1   8    4.51    0.31
   0   1  -9   17.26    1.35
   0   1 -10    0.35    0.37
   0   2   0  264.84   15.69
   0   2   0  255.00   15.68
   0   2   0  245.90   15.67
   0   2   0  265.74   15.67
   0  -2   0  262.97   15.69
   0  -2   0  274.44   15.69
   0  -2   0  264.26   15.68
   0  -2   0  243.36   15.68
   0   2  -1   25.41    1.53
   0   2  -1   27.91    1.53
   0   2   1   26.08    1.53
   0   2   1   24.27    1.53
   0   2  -1   24.82    1.53
   0   2   1   23.45    1.53
   0   2  -1   23.70    1.52
   0  -2   1   24.73    1.52
   0  -2  -1   25.25    1.53
   0  -2   1   26.84    1.53
   0  -2  -1   25.27    1.53
   0  -2  -1   24.82    1.53
   0  -2   1   26.52    1.53
   0  -2   1   25.27    1.53
   0  -2  -1   23.15    1.53
   0   2   2  843.08   50.81
   0   2   3   17.09    1.01
   0   2  -3   15.77    1.00
   0   2   3   15.52    1.01
   0   2  -3   17.99    1.01
   0   2  -3   17.79    1.01
   0  -2  -3   16.00    1.01
   0  -2   3   16.98    1.01
   0  -2  -3   16.20    1.01
   0  -2   3   15.69    1.01
   0   2   4  101.59    6.34
   0   2   4  105.08    6.33
   0  -2   4  108.86    6.34
   0  -2   4  103.97    6.34
   0  -2  -4  107.58    6.33
   0  -2  -4  102.92    6.33
   0   2   5    0.30    0.06
   0   2   5    0.28    0.07
   0  -2   5    0.33    0.05
   0  -2   5    0.31    0.05
   0  -2  -5    0.38    0.07
   0   2   6   75.84    4.51
   0   2   6   74.67    4.51
   0  -2   6   72.71    4.50
   0  -2   6   75.15    4.50
   0   2  -7    0.55    0.39
   0   2   7    0.89    0.12
   0  -2   7    1.07    0.11
   0   2  -8   31.13    2.38
   0   2   8   37.17    2.10
   0   2  -9    1.22    0.45
   0   2 -10    5.34    0.80
   0   3   0    0.13    0.04
   0   3   0    0.16    0.04
   0   3   0    0.17    0.06
   0  -3   0    0.12    0.05
   0  -3   0    0.13    0.04
   0  -3   0    0.22    0.05
   0   3   1  404.71   24.57
   0   3   1  369.57   24.58
   0   3  -1  409.95   24.59
   0   3  -1  417.31   24.60
   0   3  -1  403.67   24.58
   0  -3  -1  385.26   24.57
   0  -3   1  405.75   24.58
   0  -3  -1  399.36   24.58
   0  -3  -1  424.37   24.59
   0  -3   1  404.10   24.60
   0  -3   1  453.01   24.59
   0   3  -2   16.91    1.03
   0   3   2   17.12    1.03
   0   3  -2   16.82    1.03
   0   3   2   16.64    1.04
   0   3  -2   17.46    1.03
   0  -3   2   17.05    1.03
   0  -3  -2   17.99    1.03
   0  -3   2   16.18    1.03
   0  -3  -2   16.27    1.03
   0  -3  -2   15.79    1.03
   0   3   3   89.59    5.47
   0   3   3   91.32    5.46
   0   3  -3  101.41    5.46
   0   3  -3   93.81    5.47
   0   3  -3   81.74    5.48
   0  -3   3   85.98    5.46
   0  -3  -3   85.20    5.46
   0  -3   3   90.85    5.46
   0  -3  -3   93.58    5.46
   0   3  -4   13.08    0.80
   0   3  -4   13.68    0.80
   0   3   4   12.59    0.81
   0  -3  -4   13.04    0.81
   0  -3   4   12.64    0.80
   0  -3  -4   12.81    0.80
   0  -3   4   12.57    0.80
   0   3   5  185.68   11.23
   0   3  -5  197.72   11.27
   0  -3  -5  181.05   11.23
   0  -3   5  197.05   11.25
   0  -3  -5  185.32   11.22
   0  -3   5  170.56   11.24
   0   3   6    7.99    0.54
   0  -3  -6    8.15    0.54
   0  -3   6    8.42    0.52
   0   3   7   13.23    0.83
   0  -3   7   13.21    0.81
   0  -3  -7   12.75    0.83
   0   3   8    4.31    0.33
   0  -3  -8    4.18    0.34
   0  -3   8    4.40    0.30
   0   3   9   20.47    1.17
   0   3  -9   15.39    1.53
   0   3 -10    0.24    0.46
   0   4   0  390.13   23.97
   0   4   0  413.72   23.99
   0   4   0  405.94   23.97
   0  -4   0  368.92   23.97
   0  -4   0  394.02   23.96
   0  -4   0  407.81   24.00
   0   4  -1   59.44    3.48
   0   4   1   55.62    3.48
   0   4   1   57.90    3.48
   0   4  -1   58.06    3.48
   0  -4   1   59.92    3.48
   0  -4  -1   53.69    3.47
   0  -4  -1   54.72    3.48
   0  -4  -1   58.23    3.48
   0  -4   1   59.00    3.48
   0   4  -2  110.29    6.35
   0   4  -2  105.49    6.33
   0   4   2  109.11    6.33
   0   4  -2   96.54    6.32
   0   4   2   96.09    6.34
   0  -4   2  103.46    6.36
   0  -4  -2  111.71    6.33
   0  -4   2  103.90    6.33
   0  -4  -2  104.50    6.33
   0  -4  -2  107.06    6.33
   0   4  -3   12.23    0.79
   0   4   3   12.25    0.80
   0   4  -3   13.63    0.80
   0   4   3   13.47    0.79
   0   4  -3   11.29    0.78
   0  -4  -3   13.86    0.80
   0  -4  -3   13.03    0.80
   0  -4   3   12.11    0.80
   0   4   4  165.38    9.74
   0   4  -4  144.85    9.74
   0   4  -4  165.16    9.76
   0   4  -4  168.46    9.73
   0  -4  -4  161.35    9.73
   0  -4  -4  154.78    9.74
   0  -4   4  169.53    9.79
   0   4  -5    0.43    0.09
   0   4   5    0.48    0.12
   0  -4   5    0.35    0.09
   0  -4  -5    0.37    0.09
   0  -4  -5    0.19    0.11
   0   4   6   34.10    2.08
   0   4  -6   34.48    2.06
   0  -4   6   31.16    2.06
   0  -4  -6   35.43    2.07
   0   4   7    2.78    0.27
   0   4  -7    2.70    0.22
   0  -4   7    2.65    0.22
   0  -4  -7    2.68    0.27
   0   4   8   20.17    1.24
   0  -4   8   19.35    1.22
   0  -4  -8   19.58    1.24
   0   4  -9    0.42    0.56
   0   4   9    1.40    0.20
   0  -4  -9    1.09    0.18
   0   4 -10    6.84    1.05
   0  -4 -10    6.76    0.52
   0   5   0    0.50    0.10
   0   5   0    0.45    0.08
   0   5   0    0.47    0.08
   0  -5   0    0.64    0.10
   0  -5   0    0.59    0.08
   0  -5   0    0.51    0.09
   0   5   1   84.84    5.39
   0   5  -1   86.81    5.38
   0   5  -1   87.40    5.39
   0  -5   1   93.16    5.39
   0  -5  -1   83.87    5.39
   0  -5   1   87.06    5.39
   0  -5   1   95.60    5.39
   0  -5  -1   89.22    5.38
   0  -5  -1   93.28    5.39
   0   5  -2    0.28    0.07
   0   5  -2    0.35    0.08
   0   5   2    0.24    0.06
   0   5   2    0.32    0.11
   0   5  -2    0.36    0.09
   0  -5   2    0.37    0.10
   0  -5  -2    0.25    0.09
   0  -5  -2    0.35    0.08
   0  -5   2    0.30    0.07
   0  -5  -2    0.27    0.09
   0   5  -3  168.71   11.07
   0   5  -3  190.82   11.05
   0   5  -3  184.84   11.10
   0   5   3  184.71   11.04
   0   5   3  188.09   11.05
   0  -5  -3  175.05   11.05
   0  -5  -3  198.80   11.05
   0  -5   3  172.60   11.07
   0   5   4    0.47    0.13
   0   5  -4    0.33    0.09
   0   5  -4    0.28    0.09
   0   5  -4    0.31    0.07
   0  -5   4    0.36    0.10
   0  -5  -4    0.32    0.12
   0  -5  -4    0.27    0.11
   0   5  -5    8.41    0.55
   0   5   5    9.08    0.59
   0   5  -5    8.01    0.55
   0  -5  -5    8.04    0.55
   0  -5  -5    8.25    0.57
   0  -5   5    8.98    0.56
   0   5  -6    1.02    0.13
   0   5   6    1.04    0.18
   0  -5   6    0.92    0.13
   0  -5  -6    0.85    0.16
   0   5   7   49.90    2.88
   0   5  -7   45.72    2.85
   0  -5  -7   47.72    2.87
   0  -5   7   44.08    2.85
   0   5  -8    0.48    0.11
   0   5   8    0.53    0.18
   0  -5  -8    0.30    0.17
   0  -5   8    0.60    0.13
   0   5   9    4.63    0.42
   0   5  -9    4.99    0.36
   0  -5  -9    4.27    0.42
   0   6   0   84.08    5.07
   0   6   0   86.29    5.06
   0  -6   0   82.27    5.05
   0  -6   0   84.16    5.06
   0  -6   0   80.45    5.06
   0   6  -1   27.47    1.64
   0   6  -1   26.42    1.65
   0   6   1   26.54    1.66
   0   6  -1   26.52    1.65
   0   6   1   27.36    1.65
   0  -6   1   26.80    1.64
   0  -6  -1   27.61    1.65
   0  -6   1   25.07    1.65
   0  -6   1   24.87    1.65
   0  -6  -1   28.34    1.65
   0   6  -2   77.17    4.68
   0   6   2   74.84    4.69
   0   6  -2   82.82    4.68
   0   6  -2   79.41    4.67
   0   6   2   79.49    4.68
   0  -6  -2   75.77    4.68
   0  -6   2   76.22    4.67
   0  -6   2   77.14    4.68
   0  -6  -2   74.28    4.67
   0  -6  -2   73.48    4.68
   0   6   3    7.61    0.53
   0   6  -3    7.71    0.54
   0   6   3    7.43    0.55
   0   6  -3    8.25    0.54
   0   6  -3    7.98    0.52
   0  -6   3    8.00    0.54
   0  -6  -3    8.85    0.55
   0  -6  -3    8.10    0.55
   0   6   4   33.42    2.16
   0   6  -4   32.07    2.12
   0   6  -4   33.87    2.14
   0   6  -4   34.30    2.14
   0  -6  -4   35.55    2.14
   0  -6   4   38.17    2.14
   0  -6  -4   36.72    2.15
   0   6   5    0.81    0.18
   0   6  -5    0.87    0.14
   0   6  -5    1.03    0.11
   0  -6  -5    1.07    0.16
   0  -6  -5    0.82    0.17
   0  -6   5    0.88    0.15
   0   6   6   38.60    2.51
   0   6  -6   42.58    2.49
   0  -6   6   42.49    2.49
   0  -6  -6   38.99    2.51
   0   6  -7    0.37    0.12
   0   6   7    0.52    0.19
   0  -6  -7    0.20    0.18
   0  -6   7    0.41    0.13
   0   6  -8    5.06    0.38
   0   6   8    5.78    0.46
   0  -6   8    4.70    0.39
   0  -6  -8    4.76    0.46
   0   6   9    1.31    0.25
   0   6  -9    1.30    0.18
   0   6  -9    1.00    0.63
   0  -6  -9    1.00    0.23
   0   7   0    0.38    0.14
   0   7   0    0.14    0.10
   0  -7   0    0.30    0.13
   0   7  -1   55.79    3.43
   0   7  -1   55.51    3.41
   0   7   1   56.69    3.42
   0   7   1   58.91    3.43
   0  -7   1   59.79    3.43
   0  -7  -1   54.88    3.41
   0  -7  -1   50.93    3.42
   0   7  -2    0.90    0.16
   0   7   2    0.97    0.18
   0   7  -2    1.33    0.15
   0  -7  -2    0.84    0.13
   0  -7  -2    1.06    0.17
   0  -7  -2    0.74    0.16
   0  -7   2    1.10    0.17
   0   7  -3   12.95    0.84
   0   7   3   13.81    0.88
   0   7  -3   12.97    0.85
   0  -7  -3   12.83    0.86
   0  -7   3   12.99    0.85
   0  -7  -3   13.68    0.87
   0   7   4    2.56    0.30
   0   7  -4    2.62    0.23
   0   7  -4    2.64    0.25
   0  -7  -4    2.39    0.31
   0  -7   4    2.48    0.26
   0  -7  -4    2.79    0.28
   0   7   5   45.03    2.88
   0   7  -5   47.29    2.84
   0  -7   5   43.08    2.86
   0  -7  -5   47.07    2.87
   0  -7  -5   50.76    2.87
   0   7   6    0.42    0.20
   0  -7  -6    0.07    0.19
   0  -7   6    0.39    0.14
   0   7   7    3.02    0.37
   0  -7   7    3.28    0.30
   0  -7  -7    2.61    0.32
   0   7   8   -0.05    0.21
   0  -7   8    0.13    0.14
   0  -7  -8   -0.01    0.21
   0   8   0   14.25    0.92
   0  -8   0   13.41    0.91
   0   8  -1    5.09    0.37
   0   8   1    4.55    0.42
   0   8  -1    4.76    0.39
   0  -8   1    4.13    0.38
   0  -8  -1    4.73    0.39
   0   8  -2   39.19    2.26
   0   8   2   35.88    2.29
   0   8  -2   36.86    2.27
   0  -8  -2   38.76    2.28
   0  -8   2   32.98    2.27
   0   8   3    4.41    0.40
   0   8  -3    4.44    0.33
   0   8  -3    4.30    0.36
   0  -8  -3    3.98    0.38
   0  -8   3    3.68    0.37
   0   8  -4   20.46    1.24
   0   8   4   18.83    1.28
   0  -8  -4   20.16    1.26
   0  -8   4   19.23    1.25
   0   8   5    0.66    0.23
   0   8  -5    0.62    0.12
   0  -8   5    0.59    0.17
   0  -8  -5    0.25    0.36
   0   8  -6    5.31    0.36
   0   8   6    5.15    0.47
   0  -8   6    4.68    0.41
   0  -8  -6    4.65    0.49
   0   8   7   -0.11    0.23
   0  -8   7    0.16    0.16
   0  -8  -7   -0.01    0.23
   0   9   0    0.23    0.19
   0  -9   0    0.13    0.18
   0   9  -1   15.21    1.03
   0   9   1   15.09    1.05
   0  -9  -1   15.17    1.02
   0  -9   1   16.45    1.03
   0   9  -2    2.19    0.26
   0   9   2    1.63    0.28
   0  -9  -2    1.57    0.25
   0  -9   2    1.60    0.25
   0   9  -3   17.55    1.19
   0   9   3   18.18    1.21
   0   9  -3   16.30    1.16
   0  -9  -3   19.73    1.20
   0  -9   3   20.17    1.20
   0   9  -4    1.56    0.20
   0   9   4    1.44    0.27
   0  -9   4    1.38    0.23
   0  -9  -4    1.42    0.24
   0   9   5    4.71    0.47
   0   9  -5    4.53    0.35
   0  -9   5    4.28    0.39
   0   9  -6    1.39    0.18
   0   9   6    1.26    0.30
   0  -9   6    1.56    0.24
   0  10   0   20.64    1.26
   0 -10   0   16.93    1.22
   0  10   1    0.45    0.25
   0  10  -1    0.52    0.22
   0 -10  -1    0.50    0.22
   0 -10   1    0.67    0.22
   0  10   2    4.43    0.49
   0  10  -2    4.54    0.45
   0 -10   2    4.56    0.44
   0 -10  -2    4.49    0.46
   0  10   3    0.24    0.26
   0 -10  -3    0.34    0.22
   0 -10   3    0.34    0.19
   0  10  -4    7.01    0.54
   0  10   4    7.88    0.65
   0 -10   4    7.03    0.59
   0 -10  -4    8.86    0.63
   1   0  -9    0.30    0.32
  -1   0   8    3.20    0.24
   1   0  -8    3.37    0.51
  -1   0   7    0.20    0.07
   1   0  -7    0.04    0.25
  -1   0   6   13.88    0.94
  -1   0   6   16.90    0.96
   1   0  -6   15.74    1.14
   1   0  -5    0.04    0.17
  -1   0   5    0.11    0.03
  -1   0   5   -0.23    0.09
  -1   0   4   37.15    2.26
  -1   0   4   36.84    2.24
   1   0  -4   37.16    2.38
  -1   0   3    0.18    0.03
  -1   0   3    0.28    0.05
   1   0  -3    0.14    0.13
  -1   0   3    0.21    0.05
  -1   0   2    0.26    0.03
  -1   0   2    0.38    0.04
   1   0  -2    0.09    0.12
  -1   0   1    0.04    0.03
   1   0  -1    0.01    0.02
  -1   0   1    0.01    0.01
   1   0  -1    0.01    0.08
   1   0  -1    0.00    0.01
  -1   0   1    0.03    0.09
   1   0  -1    0.01    0.01
  -1   0   1    0.00    0.01
   1   0  -1    0.02    0.01
  -1   0   1    0.04    0.03
  -1   0   1    0.01    0.01
  -1   0   0   15.97    0.90
  -1   0   0   13.25    0.90
  -1   0   0   15.24    0.92
   1   0   1    0.02    0.01
  -1   0  -1    0.01    0.03
   1   0   1    0.00    0.01
   1   0   1   -0.01    0.05
   1   0   2    0.21    0.13
  -1   0  -2    0.26    0.08
  -1   0  -3    0.24    0.10
  -1   0  -4   40.36    2.53
  -1   0  -5    0.17    0.15
  -1   0  -6   16.11    1.12
  -1   0  -7    0.18    0.20
  -1   0  -8    3.47    0.48
   1   1 -10    0.46    0.39
   1   1  -9    3.72    0.63
  -1   1   8    0.96    0.11
   1   1  -8    0.66    0.37
  -1  -1   8    0.40    0.17
   1   1  -7   12.99    1.14
  -1   1   7   13.21    0.87
  -1  -1   7   15.78    0.90
  -1   1   6    2.83    0.22
  -1   1   6    3.21    0.23
  -1  -1   6    3.78    0.24
  -1  -1   6    3.86    0.24
  -1   1   5   16.25    1.03
  -1   1   5   16.20    1.04
  -1  -1   5   17.59    1.04
   1  -1  -5   18.45    1.17
  -1  -1   5   16.30    1.03
  -1   1   4    7.86    0.49
  -1   1   4    7.57    0.48
   1  -1  -4    8.84    0.60
  -1  -1   4    7.25    0.48
  -1  -1   4    7.74    0.49
  -1   1   3   38.95    2.39
  -1   1   3   37.35    2.39
   1  -1  -3   39.33    2.39
  -1  -1   3   43.33    2.39
   1  -1  -3   39.40    2.46
  -1  -1   3   38.63    2.38
  -1   1   2    7.05    0.44
   1   1  -2    8.07    0.44
   1   1  -2    7.54    0.43
   1   1  -2    6.68    0.43
  -1   1   2    6.31    0.44
  -1   1   2    6.90    0.43
  -1  -1   2    7.44    0.43
   1  -1  -2    6.95    0.43
   1  -1  -2    6.71    0.44
   1  -1  -2    7.12    0.43
  -1  -1   2    7.47    0.44
  -1  -1   2    6.76    0.43
   1  -1  -2    7.04    0.44
   1   1  -1   44.72    2.40
  -1   1   1   35.52    2.39
   1   1  -1   39.46    2.41
  -1   1   1   37.69    2.39
   1   1  -1   40.82    2.41
   1   1  -1   42.65    2.41
  -1   1   1   40.85    2.39
  -1   1   1   40.85    2.39
  -1  -1   1   40.90    2.40
  -1  -1   1   36.98    2.41
  -1  -1   1   40.09    2.40
   1  -1  -1   37.45    2.39
   1  -1  -1   40.81    2.39
   1  -1  -1   38.82    2.39
  -1  -1   1   37.85    2.41
   1  -1  -1   38.91    2.39
   1   1   0    0.01    0.01
   1   1   0    0.00    0.02
  -1   1   0   -0.01    0.01
   1   1   0    0.02    0.02
  -1   1   0    0.01    0.02
  -1   1   0    0.02    0.02
   1   1   0    0.01    0.01
  -1   1   0   -0.01    0.02
   1  -1   0    0.01    0.02
   1  -1   0    0.00    0.01
  -1  -1   0   -0.01    0.02
  -1  -1   0    0.00    0.02
   1  -1   0   -0.01    0.02
  -1  -1   0    0.00    0.02
   1  -1   0    0.00    0.02
  -1   1  -1   37.87    2.35
  -1   1  -1   38.48    2.34
   1   1   1   36.97    2.33
  -1   1  -1   35.34    2.33
   1   1   1   39.24    2.33
  -1   1  -1   38.75    2.34
   1   1   1   39.20    2.33
   1  -1   1   40.23    2.35
   1  -1   1   39.66    2.35
  -1  -1  -1   37.09    2.33
   1  -1   1   42.99    2.36
   1  -1   1   38.88    2.35
  -1  -1  -1   40.56    2.33
  -1  -1  -1   36.19    2.33
   1   1   2    6.89    0.42
   1   1   2    6.84    0.42
  -1  -1  -2    6.75    0.42
  -1  -1  -2    6.69    0.42
   1  -1   2    6.73    0.41
   1  -1   2    7.02    0.41
  -1  -1  -2    6.15    0.41
   1  -1   2    7.10    0.41
   1   1   3   38.45    2.24
   1   1   3   35.25    2.24
   1  -1   3   38.67    2.24
   1  -1   3   36.02    2.24
   1   1   4    7.51    0.45
   1   1   4    7.05    0.45
   1   1   5   16.41    0.95
  -1   1  -5   13.49    1.13
   1   1   5   16.29    0.95
   1   1   6    3.19    0.22
  -1   1  -6    2.97    0.45
   1   1   6    3.23    0.21
   1   1   7   14.51    0.88
  -1   1  -7   14.01    1.09
   1   1   8    1.00    0.12
  -1   1  -8    0.88    0.33
  -1   1  -9    3.23    0.56
  -1   1 -10    0.13    0.34
   1   2 -10    0.86    0.50
   1   2  -9    0.09    0.39
  -1   2   8    6.64    0.47
  -1  -2   8    7.43    0.47
   1   2  -7   -0.26    0.36
  -1   2   7    0.54    0.10
  -1  -2   7    0.60    0.09
  -1   2   6   10.98    0.72
  -1   2   6   11.51    0.73
  -1  -2   6   11.83    0.72
  -1  -2   6   11.60    0.72
   1  -2  -6   11.95    0.73
  -1   2   5    0.10    0.07
  -1   2   5    0.06    0.05
  -1  -2   5    0.16    0.05
   1  -2  -5    0.13    0.07
  -1  -2   5    0.14    0.05
  -1   2   4   10.35    0.68
   1   2  -4   11.44    0.67
  -1   2   4   10.73    0.68
   1  -2  -4   11.44    0.68
  -1  -2   4   10.16    0.67
  -1  -2   4   11.39    0.68
   1  -2  -4   11.22    0.67
   1   2  -3    0.86    0.09
  -1   2   3    0.92    0.09
  -1   2   3    0.94    0.08
  -1   2   3    0.76    0.09
   1   2  -3    0.84    0.09
   1   2  -3    0.92    0.09
   1  -2  -3    0.78    0.07
   1  -2  -3    0.88    0.09
   1  -2  -3    0.91    0.09
  -1  -2   3    0.75    0.08
  -1  -2   3    0.88    0.08
   1   2  -2   70.87    4.06
   1   2  -2   63.12    4.06
  -1   2   2   68.50    4.03
  -1   2   2   61.81    4.03
   1   2  -2   69.12    4.05
  -1   2   2   66.17    4.03
   1  -2  -2   63.71    4.03
  -1  -2   2   63.27    4.04
   1  -2  -2   68.75    4.03
  -1  -2   2   72.65    4.05
   1  -2  -2   65.26    4.03
  -1  -2   2   68.37    4.04
   1   2  -1    7.28    0.45
  -1   2   1    7.01    0.45
   1   2  -1    7.33    0.44
   1   2  -1    7.34    0.45
   1   2  -1    7.75    0.45
  -1   2   1    7.12    0.45
  -1   2   1    6.73    0.44
   1  -2  -1    7.40    0.45
  -1  -2   1    7.35    0.45
  -1  -2   1    7.74    0.45
  -1  -2   1    6.73    0.44
  -1  -2   1    6.70    0.44
   1  -2  -1    7.09    0.45
   1  -2  -1    7.01    0.44
  -1   2   0    0.19    0.03
  -1   2   0    0.24    0.05
   1   2   0    0.20    0.05
   1   2   0    0.20    0.04
   1   2   0    0.22    0.04
  -1   2   0    0.22    0.04
  -1   2   0    0.25    0.04
   1   2   0    0.20    0.03
   1  -2   0    0.26    0.04
  -1  -2   0    0.21    0.03
  -1  -2   0    0.15    0.04
   1  -2   0    0.27    0.04
  -1  -2   0    0.18    0.04
  -1  -2   0    0.30    0.05
   1  -2   0    0.41    0.05
   1  -2   0    0.25    0.04
   1   2   1    7.02    0.43
   1   2   1    6.69    0.44
   1   2   1    6.61    0.43
  -1   2  -1    6.49    0.43
  -1   2  -1    6.96    0.43
  -1   2  -1    7.32    0.44
  -1   2  -1    7.20    0.43
   1  -2   1    7.45    0.44
  -1  -2  -1    7.00    0.43
   1  -2   1    7.06    0.43
   1  -2   1    7.11    0.43
  -1  -2  -1    6.74    0.43
   1  -2   1    6.95    0.43
   1   2   2   71.74    3.96
   1   2   2   65.36    3.96
  -1   2  -2   63.35    3.96
  -1   2  -2   61.52    3.96
  -1   2  -2   64.19    3.96
   1   2   2   69.13    3.96
  -1   2  -2   65.94    3.97
   1  -2   2   72.85    3.99
   1  -2   2   58.20    3.97
   1  -2   2   71.77    4.00
  -1  -2  -2   61.60    3.96
  -1  -2  -2   61.96    3.96
   1   2   3    0.82    0.09
  -1   2  -3    0.83    0.08
  -1   2  -3    1.05    0.07
   1   2   3    0.95    0.10
  -1  -2  -3    0.83    0.09
   1  -2   3    0.91    0.08
   1  -2   3    0.97    0.08
  -1  -2  -3    0.82    0.09
   1   2   4   10.85    0.69
   1   2   4   11.10    0.68
   1  -2   4   11.63    0.68
   1  -2   4   11.05    0.68
  -1  -2  -4   10.55    0.68
   1   2   5    0.18    0.06
   1   2   5    0.16    0.07
   1  -2   5    0.12    0.04
  -1  -2  -5    0.18    0.07
   1  -2   5    0.12    0.04
   1   2   6   11.93    0.74
   1   2   6   11.41    0.73
   1  -2   6   11.69    0.72
   1  -2   6   12.04    0.72
   1   2   7    0.66    0.10
  -1   2  -7    0.27    0.34
   1  -2   7    0.52    0.07
  -1   2  -8    7.54    0.80
   1   2   8    7.20    0.48
  -1   2  -9    0.10    0.35
  -1   2 -10    0.73    0.42
   1   3 -10   -0.06    0.45
   1   3  -9    2.16    0.64
  -1   3   9    3.11    0.29
   1  -3  -9    3.13    0.29
   1   3  -8   -0.32    0.42
  -1   3   8    0.32    0.13
   1  -3  -8    0.30    0.12
  -1  -3   8    0.25    0.09
  -1   3   7    3.84    0.30
  -1  -3   7    3.97    0.28
   1  -3  -7    3.70    0.30
   1   3  -6    2.02    0.18
  -1   3   6    2.13    0.20
   1  -3  -6    2.35    0.21
  -1  -3   6    2.05    0.18
  -1   3   5   26.20    1.89
   1   3  -5   30.54    1.88
  -1  -3   5   32.37    1.88
   1  -3  -5   32.17    1.89
   1  -3  -5   32.14    1.88
  -1  -3   5   31.81    1.88
  -1   3   4    1.53    0.16
   1   3  -4    1.82    0.15
   1   3  -4    1.82    0.15
  -1  -3   4    1.48    0.15
  -1  -3   4    1.71    0.14
   1  -3  -4    1.81    0.14
   1  -3  -4    1.76    0.17
   1   3  -3    8.58    0.55
  -1   3   3    7.68    0.55
  -1   3   3    8.92    0.55
   1   3  -3    8.98    0.55
   1   3  -3    8.38    0.54
   1  -3  -3    8.29    0.54
   1  -3  -3    8.39    0.55
  -1  -3   3    9.92    0.55
  -1  -3   3    8.97    0.56
   1  -3  -3    8.84    0.55
  -1   3   2    0.97    0.09
   1   3  -2    0.92    0.09
   1   3  -2    0.93    0.10
  -1   3   2    0.81    0.10
   1   3  -2    0.96    0.10
   1  -3  -2    0.78    0.10
   1  -3  -2    0.95    0.09
  -1  -3   2    0.94    0.10
   1  -3  -2    0.95    0.11
  -1  -3   2    0.89    0.09
   1   3  -1   41.34    2.40
  -1   3   1   38.40    2.40
   1   3  -1   38.97    2.40
   1   3  -1   38.98    2.40
  -1   3   1   38.22    2.40
  -1  -3   1   39.13    2.40
   1  -3  -1   39.34    2.40
  -1  -3   1   42.78    2.40
   1  -3  -1   40.08    2.40
   1  -3  -1   37.24    2.40
  -1  -3   1   40.55    2.40
   1   3   0    0.31    0.06
  -1   3   0    0.24    0.04
   1   3   0    0.24    0.05
  -1   3   0    0.25    0.05
   1   3   0    0.20    0.04
  -1   3   0    0.20    0.06
  -1  -3   0    0.27    0.06
   1  -3   0    0.30    0.06
  -1  -3   0    0.20    0.05
   1  -3   0    0.23    0.05
  -1  -3   0    0.28    0.05
   1  -3   0    0.23    0.05
  -1   3  -1   41.99    2.41
  -1   3  -1   39.03    2.42
   1   3   1   39.74    2.41
   1   3   1   38.28    2.42
  -1   3  -1   38.12    2.41
  -1  -3  -1   35.97    2.41
   1  -3   1   44.53    2.41
  -1  -3  -1   36.57    2.41
  -1  -3  -1   38.12    2.41
   1  -3   1   41.08    2.41
   1  -3   1   44.35    2.41
  -1   3  -2    0.85    0.08
   1   3   2    0.92    0.11
  -1   3  -2    0.99    0.10
   1   3   2    0.82    0.09
  -1   3  -2    0.90    0.10
  -1  -3  -2    0.82    0.10
   1  -3   2    0.83    0.10
   1  -3   2    0.90    0.09
  -1  -3  -2    0.73    0.10
  -1   3  -3    9.18    0.55
  -1   3  -3    8.31    0.54
  -1   3  -3    9.03    0.55
   1   3   3    8.48    0.55
   1   3   3    8.54    0.56
   1  -3   3    8.87    0.55
  -1  -3  -3    8.56    0.55
  -1  -3  -3    8.61    0.55
   1  -3   3    9.30    0.55
   1   3   4    1.51    0.16
  -1   3  -4    1.83    0.15
   1  -3   4    1.97    0.15
  -1  -3  -4    1.69    0.15
   1  -3   4    1.84    0.15
  -1  -3  -4    1.76    0.16
   1   3   5   32.16    2.00
  -1   3  -5   35.18    1.99
   1  -3   5   32.85    1.99
  -1  -3  -5   31.21    1.99
   1  -3   5   33.19    1.99
  -1  -3  -5   31.54    1.99
   1   3   6    2.11    0.20
   1  -3   6    2.00    0.17
  -1  -3  -6    1.95    0.20
   1   3   7    4.05    0.31
  -1  -3  -7    4.08    0.31
   1  -3   7    3.85    0.27
  -1   3  -8   -0.03    0.42
   1   3   8    0.37    0.13
  -1  -3  -8    0.20    0.12
   1  -3   8    0.30    0.08
  -1   3  -9    3.05    0.61
  -1  -3  -9    3.02    0.28
  -1   3 -10    0.04    0.41
   1   4 -10    0.60    0.60
   1  -4 -10    0.99    0.19
  -1   4   9    0.51    0.17
   1   4  -9    0.02    0.52
   1  -4  -9    0.38    0.16
   1   4  -8    3.29    0.27
  -1   4   8    3.12    0.31
   1  -4  -8    3.22    0.32
  -1  -4   8    3.58    0.27
  -1   4   7    0.09    0.13
   1  -4  -7    0.12    0.13
  -1  -4   7    0.26    0.09
  -1   4   6    5.68    0.43
   1   4  -6    5.86    0.40
  -1  -4   6    6.17    0.40
   1  -4  -6    5.89    0.43
  -1   4   5    0.00    0.10
   1   4  -5    0.21    0.08
   1   4  -5   -0.01    0.07
  -1  -4   5    0.04    0.08
   1  -4  -5    0.00    0.10
   1  -4  -5    0.00    0.08
  -1   4   4   21.38    1.39
   1   4  -4   20.27    1.36
   1   4  -4   22.76    1.38
   1   4  -4   24.12    1.38
  -1  -4   4   21.51    1.38
   1  -4  -4   24.04    1.39
   1  -4  -4   22.79    1.38
  -1   4   3    1.71    0.15
   1   4  -3    1.76    0.16
   1   4  -3    1.82    0.16
   1   4  -3    1.76    0.14
  -1   4   3    1.65    0.17
  -1  -4   3    1.94    0.16
   1  -4  -3    1.65    0.16
   1  -4  -3    1.77    0.17
   1  -4  -3    1.79    0.15
   1   4  -2   10.97    0.71
  -1   4   2   11.27    0.71
   1   4  -2   11.00    0.71
   1   4  -2   11.58    0.70
  -1   4   2   10.67    0.72
  -1  -4   2   11.53    0.70
   1  -4  -2   10.65    0.70
   1  -4  -2   11.39    0.71
   1  -4  -2   10.69    0.71
  -1  -4   2   12.93    0.71
  -1   4   1    7.77    0.49
  -1   4   1    7.64    0.50
   1   4  -1    7.35    0.48
   1   4  -1    6.79    0.49
  -1  -4   1    7.34    0.48
  -1  -4   1    8.59    0.49
  -1  -4   1    7.52    0.49
   1  -4  -1    7.94    0.50
   1  -4  -1    7.76    0.49
   1  -4  -1    7.56    0.49
  -1   4   0   37.38    2.38
  -1   4   0   40.24    2.39
   1   4   0   40.00    2.39
   1   4   0   38.11    2.38
  -1   4   0   38.52    2.38
   1   4   0   38.20    2.38
   1  -4   0   40.61    2.39
  -1  -4   0   39.65    2.39
  -1  -4   0   37.92    2.39
   1  -4   0   38.58    2.39
  -1  -4   0   42.23    2.38
   1   4   1    7.37    0.48
  -1   4  -1    7.87    0.48
  -1   4  -1    7.37    0.48
   1   4   1    7.49    0.49
  -1   4  -1    7.09    0.48
   1  -4   1    7.07    0.48
  -1  -4  -1    8.09    0.48
  -1  -4  -1    7.34    0.47
   1  -4   1    7.47    0.48
  -1  -4  -1    7.34    0.49
   1  -4   1    7.82    0.48
   1   4   2   11.47    0.71
  -1   4  -2   11.32    0.70
   1   4   2   10.69    0.71
  -1   4  -2   11.88    0.71
  -1   4  -2   10.93    0.71
  -1  -4  -2   11.24    0.71
   1  -4   2   11.11    0.71
  -1  -4  -2   10.40    0.71
   1  -4   2   12.23    0.70
   1   4   3    1.88    0.18
  -1   4  -3    1.54    0.15
  -1   4  -3    1.75    0.16
  -1   4  -3    1.65    0.14
   1   4   3    1.70    0.15
   1  -4   3    1.84    0.16
  -1  -4  -3    1.85    0.16
  -1  -4  -3    1.72    0.17
  -1   4  -4   23.64    1.39
  -1   4  -4   21.54    1.38
   1   4   4   22.35    1.40
  -1   4  -4   22.25    1.39
  -1  -4  -4   24.53    1.40
  -1  -4  -4   21.73    1.39
   1  -4   4   22.60    1.39
  -1   4  -5    0.05    0.07
   1   4   5    0.02    0.10
  -1   4  -5    0.04    0.05
  -1  -4  -5   -0.03    0.08
  -1  -4  -5   -0.03    0.09
   1  -4   5    0.00    0.07
   1   4   6    5.82    0.42
  -1   4  -6    6.02    0.40
  -1  -4  -6    5.38    0.42
   1  -4   6    6.17    0.39
  -1   4  -7    0.14    0.08
   1   4   7    0.21    0.13
  -1  -4  -7    0.09    0.13
   1  -4   7    0.14    0.08
  -1   4  -8    3.33    0.26
   1   4   8    3.03    0.31
  -1  -4  -8    3.10    0.31
   1  -4   8    3.37    0.25
  -1   4  -9    0.26    0.51
   1   4   9    0.56    0.17
  -1  -4  -9    0.41    0.16
  -1  -4 -10    1.15    0.19
   1   5  -9    1.30    0.62
  -1   5   9    0.76    0.21
   1   5  -9    0.98    0.15
   1  -5  -9    0.68    0.20
   1   5  -8    0.23    0.11
  -1   5   8    0.27    0.18
  -1  -5   8    0.36    0.12
   1  -5  -8   -0.15    0.16
  -1   5   7    8.34    0.60
   1   5  -7    8.35    0.56
   1  -5  -7    8.65    0.60
  -1  -5   7    8.28    0.56
   1   5  -6    0.09    0.09
  -1   5   6    0.04    0.14
   1  -5  -6    0.10    0.14
  -1  -5   6    0.05    0.09
  -1   5   5    2.45    0.26
   1   5  -5    2.37    0.18
   1   5  -5    2.53    0.22
   1   5  -5    2.46    0.21
   1  -5  -5    2.14    0.26
   1  -5  -5    2.18    0.22
  -1  -5   5    2.67    0.23
  -1   5   4    0.08    0.11
   1   5  -4    0.05    0.07
   1   5  -4    0.06    0.06
   1   5  -4    0.02    0.08
   1  -5  -4   -0.02    0.10
  -1  -5   4    0.02    0.09
   1  -5  -4    0.01    0.10
  -1   5   3   33.08    2.03
   1   5  -3   34.68    2.02
   1   5  -3   31.91    2.03
   1   5  -3   34.66    2.03
  -1   5   3   31.36    2.04
  -1  -5   3   31.53    2.03
   1  -5  -3   32.89    2.04
   1  -5  -3   35.09    2.03
   1  -5  -3   33.07    2.02
   1   5  -2    0.15    0.07
   1   5  -2    0.16    0.08
  -1   5   2    0.15    0.08
  -1   5   2    0.15    0.10
   1   5  -2    0.09    0.07
   1  -5  -2    0.08    0.08
  -1  -5   2    0.12    0.08
   1  -5  -2    0.17    0.09
   1  -5  -2    0.10    0.07
  -1  -5   2    0.19    0.07
   1   5  -1   15.27    1.05
   1   5  -1   16.50    1.05
   1   5  -1   17.02    1.04
  -1   5   1   16.83    1.06
  -1  -5   1   16.63    1.05
   1  -5  -1   17.28    1.04
   1  -5  -1   16.88    1.05
  -1  -5   1   19.35    1.05
   1  -5  -1   16.27    1.05
  -1  -5   1   16.34    1.05
   1   5   0    0.17    0.09
  -1   5   0    0.05    0.06
   1   5   0    0.04    0.06
   1   5   0    0.09    0.07
  -1   5   0    0.11    0.09
  -1   5   0    0.11    0.06
  -1  -5   0    0.08    0.08
  -1  -5   0    0.05    0.07
   1  -5   0    0.09    0.08
   1  -5   0    0.10    0.06
  -1  -5   0    0.05    0.06
   1  -5   0    0.03    0.09
   1   5   1   17.27    1.04
  -1   5  -1   17.86    1.03
  -1   5  -1   15.22    1.03
  -1  -5  -1   16.25    1.02
  -1  -5  -1   14.91    1.03
   1  -5   1   17.20    1.03
   1  -5   1   16.73    1.03
  -1  -5  -1   16.64    1.04
   1  -5   1   16.97    1.03
  -1   5  -2    0.12    0.09
   1   5   2    0.07    0.09
  -1   5  -2    0.11    0.06
  -1   5  -2    0.10    0.07
   1   5   2    0.12    0.07
  -1  -5  -2    0.25    0.10
   1  -5   2    0.13    0.06
  -1  -5  -2    0.15    0.09
   1  -5   2    0.19    0.09
   1   5   3   30.54    2.01
  -1   5  -3   34.22    2.00
  -1   5  -3   30.89    1.99
   1   5   3   31.50    2.00
  -1   5  -3   35.56    2.00
  -1  -5  -3   31.21    2.00
   1  -5   3   33.72    2.00
  -1  -5  -3   33.68    2.00
  -1   5  -4   -0.01    0.07
   1   5   4    0.08    0.12
  -1   5  -4    0.04    0.06
  -1   5  -4    0.01    0.08
  -1  -5  -4   -0.01    0.10
  -1  -5  -4    0.04    0.10
   1  -5   4    0.00    0.09
  -1   5  -5    2.68    0.21
  -1   5  -5    2.20    0.21
   1   5   5    2.08    0.25
  -1  -5  -5    2.55    0.26
  -1  -5  -5    2.35    0.23
   1  -5   5    2.49    0.22
  -1   5  -6    0.02    0.09
   1   5   6    0.07    0.14
   1  -5   6    0.03    0.09
  -1  -5  -6    0.01    0.13
   1   5   7    8.12    0.59
  -1   5  -7    9.05    0.55
   1  -5   7    7.63    0.55
  -1  -5  -7    8.57    0.59
  -1   5  -8    0.23    0.11
   1   5   8    0.29    0.17
   1  -5   8    0.12    0.10
  -1  -5  -8    0.07    0.16
   1   5   9    0.54    0.20
  -1   5  -9    1.14    0.14
  -1   5  -9    0.42    0.55
  -1  -5  -9    0.69    0.20
  -1   6   9    0.08    0.21
   1   6  -9    0.92    0.62
   1  -6  -9   -0.04    0.21
   1   6  -8    0.98    0.16
  -1   6   8    1.08    0.23
   1  -6  -8    0.83    0.22
  -1  -6   8    1.24    0.18
  -1   6   7    0.10    0.19
   1   6  -7    0.21    0.11
   1  -6  -7   -0.01    0.17
  -1  -6   7    0.20    0.12
   1   6  -6    6.67    0.46
  -1   6   6    5.97    0.49
   1  -6  -6    6.01    0.50
  -1  -6   6    6.72    0.46
   1   6  -5    0.01    0.10
  -1   6   5    0.07    0.15
   1   6  -5    0.07    0.07
   1  -6  -5   -0.05    0.12
   1  -6  -5   -0.09    0.15
  -1  -6   5    0.06    0.11
   1   6  -4    6.26    0.43
   1   6  -4    6.30    0.41
  -1   6   4    5.78    0.46
   1   6  -4    6.29    0.43
   1  -6  -4    5.68    0.46
  -1  -6   4    6.00    0.43
   1  -6  -4    5.98    0.44
   1   6  -3    2.00    0.18
  -1   6   3    2.06    0.24
   1   6  -3    2.07    0.20
  -1   6   3    2.20    0.20
   1   6  -3    1.98    0.21
   1  -6  -3    1.98    0.24
  -1  -6   3    1.78    0.21
   1  -6  -3    1.84    0.22
   1  -6  -3    1.97    0.20
   1   6  -2   12.68    0.74
  -1   6   2   10.97    0.74
  -1   6   2   11.53    0.76
   1   6  -2   11.13    0.73
   1   6  -2   11.33    0.75
   1  -6  -2   11.94    0.74
  -1  -6   2   12.46    0.74
   1  -6  -2   10.93    0.75
   1  -6  -2   11.28    0.75
  -1  -6   2   10.88    0.74
  -1   6   1    3.46    0.27
   1   6  -1    3.38    0.26
   1   6  -1    3.63    0.27
   1   6  -1    3.35    0.29
  -1   6   1    3.27    0.29
   1  -6  -1    3.31    0.28
  -1  -6   1    2.88    0.28
   1  -6  -1    3.47    0.29
  -1  -6   1    3.99    0.27
  -1  -6   1    3.61    0.28
  -1   6   0   14.41    0.93
  -1   6   0   14.79    0.95
   1   6   0   14.63    0.93
   1   6   0   14.23    0.95
   1  -6   0   15.71    0.93
  -1  -6   0   15.06    0.93
   1  -6   0   15.01    0.94
   1  -6   0   14.87    0.94
  -1  -6   0   15.32    0.94
  -1  -6   0   14.03    0.94
   1   6   1    2.85    0.25
  -1   6  -1    3.37    0.27
  -1   6  -1    3.90    0.26
   1   6   1    3.51    0.30
  -1   6  -1    3.09    0.28
   1  -6   1    3.52    0.28
  -1  -6  -1    3.38    0.28
  -1  -6  -1    3.82    0.29
  -1  -6  -1    3.02    0.26
   1  -6   1    3.43    0.26
   1  -6   1    3.45    0.28
  -1   6  -2   11.49    0.75
   1   6   2   11.23    0.74
  -1   6  -2   11.19    0.75
   1   6   2   11.39    0.76
  -1   6  -2   11.77    0.74
   1  -6   2   11.62    0.75
  -1  -6  -2   12.09    0.76
  -1  -6  -2   11.42    0.75
   1  -6   2   12.15    0.74
  -1   6  -3    1.98    0.20
  -1   6  -3    2.03    0.21
   1   6   3    2.02    0.24
  -1   6  -3    1.91    0.19
  -1  -6  -3    2.30    0.22
  -1  -6  -3    1.92    0.23
   1  -6   3    2.04    0.21
  -1   6  -4    6.25    0.42
  -1   6  -4    6.02    0.41
  -1   6  -4    5.71    0.39
   1   6   4    5.75    0.44
   1  -6   4    6.20    0.42
  -1  -6  -4    5.62    0.43
  -1  -6  -4    5.61    0.44
   1   6   5    0.13    0.16
  -1   6  -5    0.09    0.07
  -1   6  -5    0.03    0.09
  -1  -6  -5    0.15    0.12
   1  -6   5    0.05    0.11
  -1  -6  -5    0.05    0.14
   1   6   6    5.66    0.48
  -1   6  -6    6.37    0.44
  -1  -6  -6    5.83    0.49
   1  -6   6    6.68    0.45
  -1   6  -7    0.06    0.10
   1   6   7    0.01    0.17
   1  -6   7    0.22    0.12
  -1  -6  -7    0.07    0.17
  -1   6  -8    1.07    0.16
   1   6   8    1.16    0.23
  -1  -6  -8    0.91    0.22
   1  -6   8    1.05    0.16
  -1   6  -9    0.50    0.57
   1   6   9   -0.06    0.20
  -1   6  -9    0.22    0.13
  -1  -6  -9   -0.09    0.20
  -1   7   8   -0.03    0.22
   1  -7  -8   -0.06    0.21
  -1  -7   8    0.12    0.15
  -1   7   7    0.62    0.22
   1  -7  -7    0.54    0.22
  -1  -7   7    0.37    0.15
   1   7  -6    0.12    0.08
  -1   7   6    0.07    0.19
   1  -7  -6   -0.03    0.19
  -1  -7   6    0.11    0.14
   1   7  -5    7.71    0.52
  -1   7   5    8.39    0.60
   1  -7  -5    7.83    0.56
  -1  -7   5    7.68    0.56
   1  -7  -5    8.67    0.60
   1   7  -4    0.09    0.09
  -1   7   4    0.13    0.17
   1   7  -4    0.31    0.12
   1  -7  -4    0.28    0.15
   1  -7  -4    0.06    0.16
  -1  -7   4    0.24    0.13
   1   7  -3    4.19    0.30
   1   7  -3    4.43    0.33
  -1   7   3    3.47    0.35
   1  -7  -3    3.57    0.31
   1  -7  -3    4.24    0.37
   1  -7  -3    3.64    0.34
  -1  -7   3    4.53    0.34
   1   7  -2    0.61    0.11
   1   7  -2    0.68    0.15
  -1   7   2    0.53    0.17
  -1  -7   2    0.42    0.14
   1  -7  -2    0.46    0.15
   1  -7  -2    0.55    0.15
   1  -7  -2    0.55    0.12
   1   7  -1   14.65    0.90
  -1   7   1   13.19    0.88
   1   7  -1   14.25    0.87
  -1   7   1   13.69    0.90
   1  -7  -1   13.17    0.89
  -1  -7   1   12.63    0.89
   1  -7  -1   14.30    0.89
   1   7   0    0.13    0.09
  -1   7   0    0.07    0.09
   1   7   0    0.05    0.14
  -1   7   0    0.19    0.14
   1  -7   0    0.05    0.12
  -1  -7   0    0.13    0.13
   1   7   1   13.92    0.92
  -1   7  -1   13.73    0.91
   1   7   1   13.99    0.93
  -1   7  -1   13.29    0.89
  -1  -7  -1   14.97    0.90
  -1  -7  -1   14.74    0.92
   1  -7   1   13.97    0.91
  -1   7  -2    0.52    0.14
  -1   7  -2    0.53    0.11
   1   7   2    0.71    0.18
  -1  -7  -2    0.53    0.15
   1  -7   2    0.67    0.15
  -1  -7  -2    0.46    0.14
  -1   7  -3    4.33    0.32
  -1   7  -3    3.81    0.33
   1   7   3    3.94    0.36
  -1  -7  -3    4.00    0.36
  -1  -7  -3    4.51    0.36
   1  -7   3    4.25    0.34
  -1   7  -4    0.13    0.09
   1   7   4    0.11    0.17
  -1   7  -4    0.22    0.11
   1  -7   4    0.13    0.13
  -1  -7  -4    0.30    0.15
  -1  -7  -4    0.07    0.15
   1   7   5    8.46    0.62
  -1   7  -5    8.11    0.55
  -1  -7  -5    8.78    0.62
  -1  -7  -5    7.73    0.60
   1  -7   5    9.11    0.59
   1   7   6    0.17    0.19
   1  -7   6    0.13    0.13
  -1  -7  -6   -0.04    0.18
   1   7   7    0.41    0.22
   1  -7   7    0.55    0.15
  -1  -7  -7    0.28    0.21
   1   7   8    0.00    0.21
   1  -7   8    0.05    0.14
  -1  -7  -8   -0.19    0.21
  -1   8   7    0.03    0.23
   1  -8  -7   -0.21    0.23
  -1  -8   7   -0.06    0.16
   1   8  -6    0.86    0.13
  -1   8   6    0.98    0.26
  -1  -8   6    0.99    0.19
   1  -8  -6    0.86    0.23
  -1   8   5    0.22    0.21
   1   8  -5    0.17    0.10
  -1  -8   5    0.28    0.16
   1   8  -4    3.06    0.28
  -1   8   4    3.45    0.40
  -1  -8   4    3.54    0.33
   1  -8  -4    3.37    0.34
  -1   8   3    0.31    0.19
   1   8  -3    0.22    0.14
   1   8  -3    0.25    0.12
  -1  -8   3    0.35    0.16
   1  -8  -3    0.19    0.17
   1   8  -2    6.88    0.51
   1   8  -2    7.00    0.48
  -1   8   2    6.53    0.53
  -1  -8   2    7.37    0.52
   1  -8  -2    6.62    0.52
  -1   8   1    1.36    0.22
   1   8  -1    0.98    0.19
   1   8  -1    0.87    0.21
   1  -8  -1    1.05    0.19
  -1  -8   1    0.85    0.19
   1   8   0    2.95    0.35
  -1   8   0    3.02    0.33
  -1  -8   0    3.28    0.34
   1  -8   0    3.41    0.32
   1   8   1    1.06    0.22
  -1   8  -1    0.69    0.14
  -1   8  -1    0.92    0.19
   1  -8   1    1.00    0.18
  -1  -8  -1    0.93    0.18
   1   8   2    6.78    0.56
  -1   8  -2    8.18    0.54
  -1   8  -2    7.67    0.51
  -1  -8  -2    6.94    0.55
   1  -8   2    7.17    0.54
   1   8   3    0.26    0.19
  -1   8  -3    0.32    0.11
  -1   8  -3    0.47    0.16
   1  -8   3    0.34    0.16
  -1  -8  -3    0.20    0.17
  -1   8  -4    3.23    0.28
   1   8   4    3.28    0.40
  -1  -8  -4    3.38    0.35
   1  -8   4    3.44    0.33
   1   8   5    0.34    0.22
  -1   8  -5    0.04    0.10
   1  -8   5    0.28    0.15
  -1  -8  -5    0.18    0.22
   1   8   6    1.05    0.25
  -1   8  -6    1.18    0.15
   1  -8   6    1.07    0.20
  -1  -8  -6    0.74    0.23
   1   8   7    0.35    0.23
   1  -8   7    0.27    0.15
  -1  -8  -7   -0.21    0.22
  -1   9   6    0.16    0.26
   1   9  -6   -0.02    0.11
  -1  -9   6    0.13    0.18
  -1   9   5    0.79    0.27
   1   9  -5    0.72    0.14
  -1  -9   5    0.91    0.21
  -1   9   4    0.54    0.24
   1   9  -4    0.46    0.13
  -1  -9   4    0.55    0.20
   1  -9  -4    0.72    0.22
   1   9  -3    2.66    0.29
  -1   9   3    3.16    0.36
   1   9  -3    3.21    0.34
   1  -9  -3    2.76    0.33
  -1  -9   3    2.97    0.33
   1   9  -2    0.02    0.17
  -1   9   2    0.03    0.20
   1  -9  -2    0.11    0.19
  -1  -9   2   -0.12    0.16
  -1   9   1    3.03    0.37
   1   9  -1    3.14    0.34
   1  -9  -1    3.01    0.34
  -1  -9   1    2.69    0.33
   1   9   0    0.20    0.19
  -1   9   0    0.19    0.20
   1  -9   0   -0.09    0.17
  -1  -9   0    0.00    0.17
  -1   9  -1    3.30    0.37
   1   9   1    2.88    0.37
  -1  -9  -1    3.29    0.35
   1  -9   1    2.80    0.33
   1   9   2    0.07    0.21
  -1   9  -2    0.03    0.17
   1  -9   2    0.10    0.17
  -1  -9  -2    0.08    0.19
   1   9   3    2.99    0.39
  -1   9  -3    3.20    0.34
  -1   9  -3    2.99    0.30
  -1  -9  -3    2.96    0.37
   1  -9   3    3.09    0.33
   1   9   4    0.56    0.25
  -1   9  -4    0.38    0.13
   1  -9   4    0.45    0.19
  -1  -9  -4    0.76    0.21
  -1   9  -5    0.65    0.14
   1   9   5    0.61    0.25
   1  -9   5    1.00    0.21
  -1   9  -6    0.03    0.12
   1   9   6    0.31    0.25
   1  -9   6    0.05    0.16
   1  10  -4    1.24    0.21
  -1  10   4    1.61    0.32
  -1 -10   4    1.65    0.26
   1 -10  -4    1.28    0.27
  -1  10   3    0.41    0.26
  -1 -10   3    0.11    0.20
   1 -10  -3    0.03    0.22
  -1  10   2    0.85    0.28
   1  10  -2    0.96    0.23
   1 -10  -2    0.82    0.23
  -1 -10   2    1.10    0.24
  -1  10   1    0.01    0.23
   1  10  -1    0.08    0.21
   1 -10  -1    0.06    0.21
  -1 -10   1    0.04    0.20
  -1  10   0    3.37    0.42
   1  10   0    3.63    0.42
   1 -10   0    3.84    0.40
  -1 -10   0    3.34    0.40
  -1  10  -1   -0.01    0.21
   1  10   1   -0.11    0.23
   1 -10   1   -0.13    0.21
  -1 -10  -1   -0.17    0.20
  -1  10  -2    1.05    0.23
   1  10   2    0.78    0.28
   1 -10   2    0.98    0.24
  -1 -10  -2    1.01    0.25
   1  10   3    0.25    0.25
   1 -10   3    0.24    0.21
  -1 -10  -3    0.21    0.23
  -1  10  -4    1.01    0.17
   1  10   4    1.37    0.31
   1 -10   4    1.27    0.24
  -1 -10  -4    1.55    0.35
   2   0  -9    0.36    0.35
   2   0  -8    5.71    0.67
  -2   0   8    5.34    0.38
  -2   0   7    0.24    0.10
   2   0  -7    0.01    0.26
  -2   0   6   22.01    1.50
  -2   0   6   25.64    1.47
   2   0  -6   24.67    1.68
  -2   0   5    0.04    0.04
   2   0  -5   -0.01    0.19
  -2   0   5   -0.24    0.11
  -2   0   4   88.57    4.78
  -2   0   4   74.34    4.82
   2   0  -4   74.59    4.94
   2   0  -3    0.02    0.02
  -2   0   3    0.04    0.03
  -2   0   3    0.05    0.07
   2   0  -3    0.07    0.04
   2   0  -3   -0.08    0.14
   2   0  -2    0.78    0.07
   2   0  -2    0.28    0.16
  -2   0   2    0.71    0.06
   2   0  -2    0.58    0.05
   2   0  -2    0.80    0.07
   2   0  -2    0.64    0.06
  -2   0   2    0.82    0.10
  -2   0   2    0.74    0.06
  -2   0   1    0.02    0.03
  -2   0   1   -0.01    0.07
  -2   0   1   -0.02    0.03
   2   0  -1   -0.05    0.04
   2   0  -1   -0.04    0.10
  -2   0   1    0.03    0.10
  -2   0   1   -0.01    0.03
   2   0  -1    0.02    0.02
   2   0  -1    0.02    0.03
   2   0  -1    0.02    0.04
   2   0  -1   -0.01    0.04
  -2   0   0  153.67    9.49
  -2   0   0  132.09    9.49
   2   0   0  168.76    9.62
   2   0   0  146.10    9.53
   2   0   0  167.32    9.50
   2   0   0  163.15    9.49
   2   0   0  150.32    9.49
  -2   0   0  176.96    9.50
   2   0   1    0.00    0.03
   2   0   1    0.00    0.05
  -2   0  -1    0.01    0.03
  -2   0  -1    0.00    0.03
  -2   0  -1    0.00    0.02
   2   0   2    0.81    0.07
   2   0   2    0.64    0.06
  -2   0  -2    0.79    0.09
   2   0   3    0.05    0.03
  -2   0  -3    0.01    0.07
  -2   0  -4  104.92    6.39
  -2   0  -5    0.11    0.13
  -2   0  -6   25.60    1.66
  -2   0  -7    0.16    0.19
   2   1 -10    0.57    0.42
   2   1  -9    6.57    0.85
   2   1  -8    2.39    0.51
  -2   1   8    2.66    0.22
  -2   1   7   21.68    1.26
   2   1  -7   16.95    1.51
  -2  -1   7   21.97    1.30
  -2   1   6   11.96    0.76
  -2   1   6   10.55    0.74
   2  -1  -6   13.01    0.93
  -2  -1   6   13.84    0.76
  -2  -1   6   11.39    0.76
  -2   1   5   19.69    1.15
  -2   1   5   17.60    1.13
  -2  -1   5   16.21    1.14
   2  -1  -5   20.09    1.29
  -2  -1   5   19.49    1.14
  -2   1   4   20.11    1.25
  -2   1   4   20.23    1.24
   2  -1  -4   21.89    1.23
   2  -1  -4   19.92    1.24
   2  -1  -4   21.90    1.23
  -2  -1   4   17.60    1.25
  -2  -1   4   19.56    1.24
   2  -1  -4   21.59    1.37
  -2   1   3   72.26    4.63
  -2   1   3   75.09    4.65
   2   1  -3   68.34    4.65
   2   1  -3   80.46    4.63
   2   1  -3   72.92    4.65
  -2  -1   3   75.95    4.64
  -2  -1   3   78.06    4.66
   2  -1  -3   82.82    4.73
   2  -1  -3   79.53    4.64
   2  -1  -3   75.07    4.63
   2  -1  -3   84.81    4.63
   2   1  -2   21.21    1.24
  -2   1   2   18.68    1.24
  -2   1   2   19.55    1.24
   2   1  -2   20.04    1.24
   2   1  -2   20.47    1.24
  -2   1   2   20.71    1.25
   2   1  -2   21.72    1.26
  -2  -1   2   23.05    1.25
  -2  -1   2   21.37    1.24
   2  -1  -2   18.68    1.24
   2  -1  -2   22.70    1.26
   2  -1  -2   19.57    1.24
   2  -1  -2   18.74    1.24
   2   1  -1   91.92    5.59
   2   1  -1   95.76    5.58
   2   1  -1  106.30    5.58
  -2   1   1   92.88    5.56
  -2   1   1   99.03    5.79
  -2   1   1   92.36    5.59
  -2   1   1   85.93    5.55
  -2   1   1   82.80    5.55
  -2  -1   1  102.52    5.59
   2  -1  -1   83.74    5.56
  -2  -1   1   90.98    5.57
   2  -1  -1   93.60    5.57
  -2  -1   1   94.08    5.59
   2  -1  -1   89.58    5.56
   2  -1  -1   80.30    5.55
   2   1   0   -0.02    0.02
  -2   1   0    0.01    0.02
  -2   1   0    0.02    0.02
  -2   1   0    0.01    0.03
   2   1   0   -0.01    0.02
   2   1   0    0.00    0.02
  -2   1   0   -0.01    0.02
  -2  -1   0    0.01    0.02
   2  -1   0   -0.01    0.02
   2  -1   0    0.00    0.02
  -2  -1   0    0.01    0.03
   2  -1   0    0.01    0.03
   2  -1   0   -0.01    0.02
  -2  -1   0    0.00    0.02
  -2   1  -1   97.03    5.82
   2   1   1   93.72    5.82
  -2   1  -1   96.11    5.82
  -2   1  -1   95.67    5.82
  -2   1  -1   94.92    5.83
   2   1   1   99.77    5.81
   2  -1   1   91.06    5.83
  -2  -1  -1   93.90    5.81
  -2  -1  -1   94.26    5.82
   2  -1   1  100.06    5.82
  -2  -1  -1   97.60    5.82
   2  -1   1   94.46    5.82
   2  -1   1  102.02    5.82
   2   1   2   20.01    1.27
   2   1   2   20.74    1.27
  -2   1  -2   20.32    1.27
  -2  -1  -2   20.69    1.27
  -2  -1  -2   19.66    1.27
  -2  -1  -2   21.29    1.28
   2  -1   2   22.43    1.27
   2  -1   2   20.94    1.27
   2  -1   2   23.01    1.28
   2   1   3   76.57    4.81
   2   1   3   79.43    4.81
   2  -1   3   82.45    4.83
   2  -1   3   80.47    4.81
   2   1   4   21.19    1.30
   2   1   4   20.51    1.30
   2  -1   4   21.40    1.29
   2  -1   4   22.39    1.29
  -2   1  -5   19.20    1.32
   2   1   5   19.59    1.16
   2   1   5   18.42    1.16
  -2   1  -6   11.93    0.90
   2   1   6   11.59    0.73
   2   1   6   12.19    0.73
   2   1   7   22.71    1.37
  -2   1  -7   22.10    1.53
  -2   1  -8    2.84    0.46
   2   1   8    2.89    0.26
  -2   1  -9    6.86    0.68
   2   2 -10    1.62    0.58
   2   2  -9    0.62    0.47
  -2   2   8   14.46    0.95
  -2  -2   8   15.83    0.96
   2   2  -7   -0.22    0.38
  -2   2   7    0.46    0.10
   2  -2  -7    0.50    0.10
  -2  -2   7    0.49    0.10
  -2   2   6   20.45    1.40
  -2   2   6   22.95    1.41
   2  -2  -6   23.06    1.41
  -2  -2   6   24.72    1.41
  -2  -2   6   23.50    1.40
  -2   2   5    0.01    0.07
   2   2  -5    0.00    0.05
  -2   2   5    0.00    0.05
   2  -2  -5    0.01    0.07
   2  -2  -5    0.04    0.04
  -2  -2   5    0.00    0.05
  -2  -2   5    0.03    0.06
   2   2  -4   15.83    0.95
  -2   2   4   15.09    0.95
  -2   2   4   14.49    0.96
   2   2  -4   15.56    0.95
   2   2  -4   14.98    0.94
  -2  -2   4   16.41    0.95
   2  -2  -4   15.23    0.96
  -2  -2   4   16.23    0.95
   2  -2  -4   15.87    0.95
  -2   2   3    2.15    0.17
   2   2  -3    2.20    0.14
   2   2  -3    2.39    0.18
  -2   2   3    2.16    0.16
   2   2  -3    1.56    0.19
   2   2  -3    2.16    0.16
  -2   2   3    2.27    0.15
   2  -2  -3    2.20    0.16
   2  -2  -3    2.10    0.15
   2  -2  -3    2.13    0.17
  -2  -2   3    2.41    0.16
  -2  -2   3    2.21    0.16
  -2   2   2  148.78   10.14
  -2   2   2  165.40   10.13
   2   2  -2  190.71   10.19
   2   2  -2  166.42   10.18
   2   2  -2  172.33   10.18
  -2   2   2  166.29   10.17
  -2  -2   2  178.29   10.20
  -2  -2   2  185.42   10.19
   2  -2  -2  164.24   10.15
   2  -2  -2  157.41   10.14
   2  -2  -2  155.30   10.14
   2   2  -1   18.62    1.25
  -2   2   1   21.31    1.26
   2   2  -1   21.49    1.26
   2   2  -1   22.86    1.26
  -2   2   1   19.09    1.26
  -2  -2   1   21.43    1.26
   2  -2  -1   19.55    1.25
   2  -2  -1   19.35    1.25
   2  -2  -1   20.81    1.26
  -2  -2   1   20.23    1.26
  -2  -2   1   22.22    1.26
   2   2   0    0.67    0.07
  -2   2   0    0.59    0.07
  -2   2   0    0.63    0.06
   2   2   0    0.72    0.09
   2   2   0    0.90    0.08
   2   2   0    0.60    0.06
  -2   2   0    0.61    0.07
   2  -2   0    0.63    0.07
  -2  -2   0    0.68    0.07
   2  -2   0    0.56    0.07
   2  -2   0    0.65    0.07
  -2  -2   0    0.62    0.07
   2  -2   0    0.83    0.07
  -2  -2   0    0.80    0.08
  -2   2  -1   19.09    1.21
  -2   2  -1   19.73    1.20
   2   2   1   20.36    1.21
  -2   2  -1   21.19    1.21
   2   2   1   19.72    1.21
   2  -2   1   21.28    1.21
   2  -2   1   19.60    1.21
  -2  -2  -1   19.44    1.21
  -2  -2  -1   19.05    1.21
   2  -2   1   19.89    1.20
   2  -2   1   18.74    1.20
  -2   2  -2  185.06   10.26
  -2   2  -2  149.05   10.24
  -2   2  -2  164.49   10.24
   2   2   2  171.35   10.23
   2   2   2  172.68   10.24
   2  -2   2  165.48   10.25
  -2  -2  -2  161.21   10.24
   2  -2   2  177.90   10.29
   2  -2   2  183.16   10.26
  -2  -2  -2  164.67   10.23
  -2   2  -3    2.63    0.16
   2   2   3    2.26    0.16
  -2   2  -3    2.34    0.16
   2   2   3    2.18    0.17
  -2  -2  -3    2.04    0.16
   2  -2   3    2.33    0.16
  -2  -2  -3    2.02    0.16
   2  -2   3    2.25    0.15
   2   2   4   15.54    0.94
   2   2   4   14.20    0.94
   2  -2   4   15.21    0.93
   2  -2   4   16.88    0.94
  -2  -2  -4   14.61    0.94
   2   2   5   -0.02    0.05
   2   2   5    0.01    0.06
   2  -2   5   -0.02    0.04
   2  -2   5    0.00    0.04
  -2  -2  -5    0.06    0.06
   2   2   6   22.31    1.42
   2   2   6   23.66    1.42
   2  -2   6   24.02    1.41
   2  -2   6   22.92    1.41
   2   2   7    0.44    0.10
  -2   2  -7    0.36    0.31
   2  -2   7    0.51    0.06
   2   2   8   15.41    0.97
  -2   2  -8   15.76    1.22
  -2   2  -9    0.71    0.37
   2   3 -10   -0.29    0.48
  -2   3   9    7.53    0.52
   2  -3  -9    7.19    0.52
  -2   3   8    1.28    0.18
   2   3  -8    0.91    0.55
   2  -3  -8    1.42    0.17
  -2  -3   8    1.79    0.19
  -2   3   7    4.90    0.37
   2  -3  -7    5.21    0.37
  -2  -3   7    5.25    0.36
   2   3  -6    4.62    0.32
  -2   3   6    4.74    0.34
  -2  -3   6    4.45    0.32
   2  -3  -6    4.94    0.34
  -2   3   5   60.06    3.79
   2   3  -5   58.95    3.78
  -2  -3   5   62.14    3.78
   2  -3  -5   62.57    3.78
  -2  -3   5   67.70    3.79
   2  -3  -5   63.67    3.79
   2   3  -4    7.41    0.47
  -2   3   4    7.27    0.50
   2   3  -4    7.19    0.48
   2   3  -4    8.52    0.50
   2  -3  -4    7.74    0.49
   2  -3  -4    7.51    0.48
  -2  -3   4    7.91    0.48
   2  -3  -4    7.25    0.47
  -2   3   3   10.11    0.64
   2   3  -3   10.69    0.64
  -2   3   3    9.50    0.65
   2   3  -3   11.65    0.65
   2   3  -3   10.22    0.64
  -2  -3   3   10.28    0.65
   2  -3  -3   10.69    0.65
   2  -3  -3    9.81    0.64
   2  -3  -3    9.81    0.64
  -2   3   2    1.97    0.17
   2   3  -2    2.19    0.16
   2   3  -2    2.15    0.16
  -2   3   2    2.32    0.16
   2   3  -2    2.36    0.17
   2  -3  -2    2.16    0.16
  -2  -3   2    2.17    0.17
   2  -3  -2    2.10    0.17
  -2  -3   2    2.36    0.16
   2  -3  -2    2.31    0.17
   2   3  -1   76.09    4.82
  -2   3   1   82.21    4.80
   2   3  -1   82.16    4.81
  -2   3   1   75.60    4.81
   2   3  -1   81.92    4.81
  -2  -3   1   85.90    4.83
  -2  -3   1   75.94    4.81
   2  -3  -1   75.13    4.80
  -2  -3   1   78.27    4.80
   2  -3  -1   81.38    4.81
   2  -3  -1   80.57    4.81
  -2   3   0   -0.02    0.05
   2   3   0    0.03    0.03
  -2   3   0    0.04    0.05
   2   3   0    0.01    0.03
   2   3   0   -0.01    0.05
  -2   3   0    0.04    0.03
  -2  -3   0   -0.01    0.04
   2  -3   0    0.04    0.05
  -2  -3   0    0.00    0.05
   2  -3   0    0.00    0.03
   2  -3   0    0.00    0.04
   2   3   1   82.93    4.81
  -2   3  -1   80.70    4.80
  -2   3  -1   80.01    4.80
  -2   3  -1   78.81    4.80
   2   3   1   77.03    4.80
  -2  -3  -1   77.33    4.80
  -2  -3  -1   81.91    4.80
   2  -3   1   82.83    4.80
   2  -3   1   76.21    4.82
   2  -3   1   77.12    4.80
   2   3   2    2.16    0.17
  -2   3  -2    2.23    0.15
   2   3   2    2.24    0.16
  -2   3  -2    2.13    0.16
  -2   3  -2    2.21    0.16
  -2  -3  -2    2.00    0.17
  -2  -3  -2    2.24    0.17
   2  -3   2    2.11    0.15
   2  -3   2    2.12    0.16
   2   3   3    9.16    0.63
   2   3   3   10.39    0.63
  -2   3  -3   10.10    0.62
  -2   3  -3    9.97    0.61
  -2   3  -3   10.07    0.61
   2  -3   3   10.47    0.62
  -2  -3  -3    9.68    0.62
  -2  -3  -3    9.77    0.62
   2  -3   3    9.43    0.62
   2   3   4    7.72    0.49
  -2   3  -4    7.54    0.48
   2  -3   4    6.56    0.47
  -2  -3  -4    7.83    0.48
   2  -3   4    8.06    0.48
  -2  -3  -4    7.40    0.48
  -2   3  -5   68.80    4.05
   2   3   5   64.81    4.05
  -2  -3  -5   67.57    4.05
   2  -3   5   70.04    4.05
  -2  -3  -5   63.28    4.05
   2   3   6    4.69    0.33
   2  -3   6    4.15    0.30
  -2  -3  -6    4.72    0.33
   2   3   7    5.02    0.37
  -2  -3  -7    5.40    0.37
   2  -3   7    5.01    0.34
   2   3   8    1.51    0.17
  -2   3  -8    1.07    0.45
  -2  -3  -8    1.51    0.17
  -2   3  -9    7.92    0.88
   2   4 -10    1.49    0.70
   2  -4 -10    3.38    0.35
  -2   4   9    0.65    0.18
   2   4  -9    0.06    0.54
   2  -4  -9    0.63    0.17
  -2   4   8    7.93    0.55
   2   4  -8    6.22    1.10
   2   4  -8    8.20    0.52
  -2  -4   8    7.80    0.53
   2  -4  -8    7.43    0.55
  -2   4   7    1.03    0.17
   2   4  -7    1.05    0.13
  -2  -4   7    1.14    0.14
   2  -4  -7    0.90    0.16
  -2   4   6   10.01    0.69
   2   4  -6   10.23    0.66
   2  -4  -6   11.12    0.69
  -2  -4   6   10.30    0.67
   2   4  -5    0.42    0.11
  -2   4   5    0.19    0.11
   2   4  -5    0.21    0.08
   2  -4  -5    0.04    0.09
   2  -4  -5    0.08    0.11
  -2  -4   5    0.28    0.09
   2   4  -4   48.10    2.85
   2   4  -4   44.61    2.84
  -2   4   4   44.96    2.86
   2   4  -4   50.49    2.86
   2  -4  -4   47.69    2.86
  -2  -4   4   49.77    2.86
   2  -4  -4   46.15    2.85
   2  -4  -4   44.00    2.85
  -2   4   3    7.82    0.49
   2   4  -3    7.97    0.49
   2   4  -3    7.79    0.48
   2   4  -3    7.26    0.49
  -2   4   3    7.10    0.50
   2  -4  -3    7.46    0.50
   2  -4  -3    7.30    0.48
   2  -4  -3    7.49    0.49
  -2  -4   3    7.84    0.49
   2   4  -2   15.75    0.99
  -2   4   2   15.66    0.99
   2   4  -2   16.32    1.00
  -2   4   2   15.13    1.00
   2   4  -2   17.05    0.99
  -2  -4   2   16.56    0.99
   2  -4  -2   15.88    1.00
   2  -4  -2   15.80    0.99
  -2  -4   2   16.82    1.00
   2  -4  -2   15.16    0.99
   2   4  -1   20.25    1.27
  -2   4   1   20.36    1.28
   2   4  -1   21.99    1.28
  -2   4   1   18.94    1.27
  -2  -4   1   22.33    1.28
   2  -4  -1   20.64    1.27
   2  -4  -1   21.90    1.28
  -2  -4   1   20.77    1.27
  -2  -4   1   20.08    1.27
   2  -4  -1   19.65    1.27
  -2   4   0   97.17    5.77
  -2   4   0   92.07    5.76
   2   4   0   96.69    5.76
   2   4   0   88.85    5.77
   2   4   0   92.82    5.76
  -2   4   0   92.96    5.76
  -2  -4   0   97.39    5.77
   2  -4   0   97.65    5.76
  -2  -4   0   96.68    5.76
   2  -4   0  100.70    5.77
   2  -4   0   92.49    5.76
  -2  -4   0   99.06    5.76
   2   4   1   20.49    1.31
  -2   4  -1   21.77    1.31
   2   4   1   21.22    1.32
  -2   4  -1   20.52    1.30
  -2   4  -1   21.61    1.31
  -2  -4  -1   22.02    1.31
   2  -4   1   21.93    1.31
  -2  -4  -1   21.16    1.31
   2  -4   1   21.12    1.30
   2  -4   1   21.14    1.31
   2   4   2   14.94    0.96
  -2   4  -2   15.54    0.97
  -2   4  -2   15.36    0.97
   2   4   2   16.41    0.98
  -2   4  -2   15.79    0.96
  -2  -4  -2   15.81    0.97
   2  -4   2   15.86    0.96
  -2  -4  -2   15.35    0.97
   2  -4   2   15.13    0.96
  -2   4  -3    7.20    0.48
  -2   4  -3    7.44    0.48
   2   4   3    7.47    0.48
   2   4   3    7.09    0.49
  -2   4  -3    7.40    0.47
   2  -4   3    7.83    0.48
  -2  -4  -3    7.64    0.49
  -2  -4  -3    7.69    0.49
  -2   4  -4   49.75    2.91
  -2   4  -4   48.26    2.91
  -2   4  -4   47.85    2.92
   2   4   4   46.27    2.93
   2  -4   4   49.22    2.92
  -2  -4  -4   48.14    2.92
  -2  -4  -4   46.93    2.92
   2   4   5    0.23    0.11
  -2   4  -5    0.12    0.07
  -2   4  -5    0.22    0.06
  -2  -4  -5    0.12    0.10
  -2  -4  -5    0.20    0.09
   2  -4   5    0.22    0.08
  -2   4  -6    9.89    0.65
   2   4   6   10.20    0.68
  -2  -4  -6   10.97    0.67
   2  -4   6   10.12    0.65
  -2   4  -7    1.06    0.13
   2   4   7    1.11    0.17
  -2  -4  -7    1.05    0.16
   2  -4   7    1.10    0.12
   2   4   8    8.09    0.53
  -2  -4  -8    7.61    0.53
   2  -4   8    7.05    0.49
  -2   4  -9    0.20    0.46
   2   4   9    0.68    0.17
  -2  -4  -9    0.73    0.17
  -2  -4 -10    3.18    0.34
   2   5  -9    2.30    0.24
   2   5  -9    2.27    0.74
  -2   5   9    2.08    0.26
   2  -5  -9    1.66    0.25
  -2   5   8    0.58    0.19
   2   5  -8    0.43    0.12
  -2  -5   8    0.44    0.13
   2  -5  -8    0.26    0.18
   2   5  -7   21.29    1.29
  -2   5   7   19.93    1.31
   2  -5  -7   21.22    1.31
  -2  -5   7   20.04    1.29
  -2   5   6    0.19    0.15
   2   5  -6    0.33    0.10
   2  -5  -6    0.24    0.15
  -2  -5   6    0.38    0.11
   2   5  -5    2.39    0.22
   2   5  -5    2.30    0.18
  -2   5   5    2.20    0.25
   2   5  -5    2.91    0.23
  -2  -5   5    2.47    0.23
   2  -5  -5    2.23    0.23
   2  -5  -5    2.24    0.26
   2   5  -4    0.26    0.07
  -2   5   4    0.20    0.12
   2   5  -4    0.21    0.09
   2   5  -4    0.18    0.08
   2  -5  -4    0.05    0.11
   2  -5  -4    0.17    0.10
   2  -5  -4    0.16    0.08
  -2  -5   4    0.16    0.10
   2   5  -3   61.59    3.88
  -2   5   3   65.29    3.89
   2   5  -3   64.79    3.87
   2   5  -3   63.20    3.88
  -2   5   3   65.27    3.88
   2  -5  -3   60.87    3.87
   2  -5  -3   65.65    3.88
  -2  -5   3   64.96    3.88
   2  -5  -3   63.15    3.88
   2   5  -2    0.03    0.07
  -2   5   2   -0.06    0.09
  -2   5   2    0.09    0.07
   2   5  -2   -0.02    0.08
   2   5  -2    0.05    0.05
   2  -5  -2    0.05    0.06
  -2  -5   2    0.09    0.06
   2  -5  -2   -0.06    0.09
  -2  -5   2    0.09    0.09
   2  -5  -2    0.05    0.09
   2   5  -1   19.95    1.18
   2   5  -1   18.64    1.18
  -2   5   1   18.28    1.19
   2   5  -1   18.83    1.19
   2  -5  -1   19.30    1.19
   2  -5  -1   18.88    1.18
  -2  -5   1   18.89    1.18
  -2  -5   1   20.01    1.19
  -2  -5   1   18.29    1.18
   2  -5  -1   19.92    1.19
  -2   5   0   -0.01    0.06
  -2   5   0    0.02    0.09
   2   5   0    0.09    0.06
   2   5   0    0.03    0.09
  -2   5   0    0.09    0.06
   2  -5   0    0.02    0.07
  -2  -5   0    0.04    0.06
   2  -5   0    0.12    0.07
  -2  -5   0   -0.02    0.08
  -2  -5   0   -0.02    0.07
   2  -5   0    0.05    0.08
   2   5   1   18.25    1.17
  -2   5  -1   19.73    1.17
  -2   5  -1   18.76    1.18
   2   5   1   20.11    1.19
  -2  -5  -1   18.02    1.17
  -2  -5  -1   18.98    1.18
   2  -5   1   19.63    1.17
   2  -5   1   19.39    1.17
   2  -5   1   17.53    1.17
  -2   5  -2    0.00    0.08
  -2   5  -2   -0.02    0.06
   2   5   2    0.00    0.06
   2   5   2    0.06    0.10
  -2   5  -2    0.02    0.07
   2  -5   2   -0.01    0.08
  -2  -5  -2    0.07    0.08
  -2  -5  -2    0.05    0.09
   2  -5   2    0.06    0.07
  -2   5  -3   61.55    3.86
   2   5   3   63.65    3.87
   2   5   3   63.60    3.88
  -2   5  -3   70.95    3.87
  -2   5  -3   62.47    3.87
  -2  -5  -3   60.93    3.87
   2  -5   3   61.00    3.87
  -2  -5  -3   65.84    3.87
   2   5   4    0.20    0.12
  -2   5  -4    0.20    0.09
  -2   5  -4    0.22    0.07
  -2   5  -4    0.23    0.08
  -2  -5  -4    0.19    0.10
  -2  -5  -4    0.17    0.11
   2  -5   4    0.25    0.10
  -2   5  -5    2.32    0.21
   2   5   5    2.23    0.25
  -2  -5  -5    2.19    0.23
   2  -5   5    2.34    0.21
  -2  -5  -5    2.26    0.25
  -2   5  -6    0.20    0.10
   2   5   6    0.19    0.14
   2  -5   6    0.30    0.10
  -2  -5  -6    0.20    0.14
  -2   5  -7   21.37    1.30
   2   5   7   21.88    1.33
   2  -5   7   20.40    1.30
  -2  -5  -7   20.36    1.32
  -2   5  -8    0.32    0.11
   2   5   8    0.38    0.17
  -2  -5  -8    0.15    0.16
   2  -5   8    0.38    0.11
  -2   5  -9    1.67    0.66
  -2   5  -9    2.28    0.23
   2   5   9    1.76    0.25
  -2  -5  -9    1.87    0.24
  -2   6   9    0.21    0.22
   2   6  -9    1.40    0.71
   2  -6  -9    0.41    0.22
  -2   6   8    2.34    0.29
   2  -6  -8    2.37    0.28
  -2  -6   8    2.34    0.27
   2   6  -7    0.13    0.11
  -2   6   7    0.34    0.19
  -2  -6   7    0.17    0.13
   2  -6  -7    0.03    0.18
   2   6  -6   14.76    0.94
  -2   6   6   14.06    0.96
  -2  -6   6   14.27    0.94
   2  -6  -6   15.44    0.97
   2   6  -5    0.20    0.10
  -2   6   5    0.14    0.16
   2   6  -5    0.34    0.08
   2  -6  -5    0.20    0.13
  -2  -6   5    0.35    0.12
   2  -6  -5    0.18    0.15
   2   6  -4    9.94    0.66
   2   6  -4   11.28    0.67
  -2   6   4    9.85    0.69
   2   6  -4    9.97    0.64
   2  -6  -4   11.15    0.69
   2  -6  -4    9.83    0.65
   2  -6  -4    9.11    0.66
  -2  -6   4   10.02    0.67
   2   6  -3    4.58    0.35
   2   6  -3    5.05    0.35
  -2   6   3    4.54    0.38
  -2   6   3    5.83    0.44
   2   6  -3    4.72    0.34
   2  -6  -3    4.70    0.38
   2  -6  -3    4.50    0.36
   2  -6  -3    4.85    0.35
  -2  -6   3    4.86    0.36
   2   6  -2   22.32    1.44
   2   6  -2   23.29    1.44
  -2   6   2   21.99    1.45
   2   6  -2   23.59    1.43
  -2   6   2   25.37    1.44
  -2  -6   2   24.09    1.44
  -2  -6   2   22.47    1.43
   2  -6  -2   22.66    1.44
   2  -6  -2   22.12    1.43
   2  -6  -2   23.39    1.44
  -2   6   1   11.64    0.78
  -2   6   1   12.45    0.76
   2   6  -1   12.08    0.76
   2   6  -1   11.66    0.77
   2   6  -1   11.36    0.76
  -2  -6   1   12.16    0.77
  -2  -6   1   12.20    0.77
   2  -6  -1   12.43    0.78
   2  -6  -1   11.43    0.77
  -2  -6   1   12.42    0.76
   2  -6  -1   11.40    0.76
  -2   6   0   25.38    1.57
   2   6   0   27.53    1.58
   2   6   0   25.45    1.59
  -2   6   0   24.02    1.59
  -2  -6   0   26.92    1.58
   2  -6   0   25.79    1.58
  -2  -6   0   24.49    1.58
   2  -6   0   26.05    1.57
  -2  -6   0   24.90    1.57
   2  -6   0   24.84    1.58
  -2   6  -1   12.10    0.76
  -2   6  -1   12.67    0.77
   2   6   1   11.36    0.78
  -2   6  -1   11.44    0.78
  -2  -6  -1   11.82    0.77
   2  -6   1   12.13    0.77
   2  -6   1   11.88    0.77
  -2  -6  -1   12.41    0.78
   2  -6   1   12.15    0.76
  -2   6  -2   22.33    1.44
  -2   6  -2   24.43    1.45
  -2   6  -2   24.47    1.45
   2   6   2   21.99    1.44
   2   6   2   22.61    1.46
   2  -6   2   24.75    1.45
   2  -6   2   24.49    1.45
  -2  -6  -2   21.70    1.45
  -2  -6  -2   22.88    1.45
   2   6   3    4.70    0.40
  -2   6  -3    4.92    0.35
  -2   6  -3    4.63    0.33
   2   6   3    4.71    0.37
  -2   6  -3    4.18    0.34
  -2  -6  -3    4.92    0.35
   2  -6   3    4.51    0.34
  -2  -6  -3    4.63    0.36
  -2   6  -4   10.52    0.68
  -2   6  -4   10.07    0.67
  -2   6  -4   11.16    0.66
   2   6   4   10.42    0.71
   2  -6   4   10.37    0.68
  -2  -6  -4    9.74    0.69
  -2  -6  -4   10.34    0.70
  -2   6  -5    0.27    0.11
  -2   6  -5    0.29    0.09
   2   6   5    0.18    0.15
  -2  -6  -5    0.31    0.13
  -2  -6  -5    0.22    0.15
   2  -6   5    0.27    0.11
  -2   6  -6   15.79    0.96
   2   6   6   14.36    0.99
  -2  -6  -6   14.62    0.99
   2  -6   6   15.51    0.96
  -2   6  -7    0.08    0.11
   2   6   7    0.10    0.18
   2  -6   7    0.18    0.12
  -2  -6  -7    0.09    0.17
  -2   6  -8    2.86    0.26
   2   6   8    2.28    0.29
   2  -6   8    2.42    0.25
  -2  -6  -8    2.18    0.28
  -2   6  -9    0.50    0.14
   2   6   9    0.46    0.22
  -2   6  -9    0.83    0.67
  -2  -6  -9    0.20    0.22
  -2   7   8   -0.20    0.21
   2  -7  -8   -0.28    0.22
  -2  -7   8    0.11    0.15
  -2   7   7    1.02    0.24
  -2  -7   7    1.03    0.19
   2  -7  -7    0.99    0.24
  -2   7   6    0.21    0.20
   2   7  -6    0.22    0.09
   2  -7  -6    0.02    0.20
  -2  -7   6    0.18    0.14
   2   7  -5   19.99    1.29
  -2   7   5   21.11    1.34
   2  -7  -5   20.59    1.31
   2  -7  -5   21.55    1.34
  -2  -7   5   20.84    1.32
   2   7  -4    1.09    0.16
  -2   7   4    0.83    0.20
   2   7  -4    1.12    0.13
   2  -7  -4    1.11    0.18
  -2  -7   4    1.04    0.17
   2  -7  -4    0.90    0.19
   2  -7  -4    0.88    0.14
   2   7  -3    5.06    0.36
  -2   7   3    4.84    0.41
   2   7  -3    5.29    0.38
  -2  -7   3    4.32    0.38
   2  -7  -3    5.29    0.39
   2  -7  -3    4.81    0.42
   2  -7  -3    5.14    0.37
  -2   7   2    0.49    0.17
   2   7  -2    0.51    0.14
   2   7  -2    0.50    0.11
   2  -7  -2    0.32    0.15
   2  -7  -2    0.54    0.15
   2  -7  -2    0.31    0.10
  -2  -7   2    0.38    0.14
   2   7  -1   21.86    1.32
  -2   7   1   21.69    1.34
   2   7  -1   20.43    1.34
  -2   7   1   21.04    1.34
  -2  -7   1   20.21    1.33
   2  -7  -1   21.66    1.33
  -2   7   0    0.12    0.14
   2   7   0    0.15    0.14
  -2   7   0   -0.06    0.08
   2   7   0   -0.03    0.09
   2  -7   0    0.05    0.13
  -2  -7   0   -0.04    0.12
  -2   7  -1   23.02    1.38
   2   7   1   21.69    1.38
  -2   7  -1   21.16    1.36
   2  -7   1   20.53    1.37
  -2  -7  -1   22.79    1.37
   2   7   2    0.51    0.17
  -2   7  -2    0.51    0.11
  -2   7  -2    0.52    0.14
  -2  -7  -2    0.57    0.15
  -2  -7  -2    0.48    0.14
   2  -7   2    0.34    0.14
  -2   7  -3    4.97    0.37
   2   7   3    4.84    0.43
  -2   7  -3    5.74    0.40
  -2  -7  -3    5.22    0.41
   2  -7   3    4.93    0.40
  -2  -7  -3    5.11    0.42
   2   7   4    1.08    0.22
  -2   7  -4    1.28    0.14
  -2   7  -4    1.29    0.16
  -2  -7  -4    1.10    0.19
  -2  -7  -4    0.98    0.19
   2  -7   4    0.93    0.17
  -2   7  -5   20.49    1.28
   2   7   5   20.43    1.33
   2  -7   5   21.23    1.31
  -2  -7  -5   20.87    1.32
  -2  -7  -5   20.38    1.33
   2   7   6    0.34    0.20
   2  -7   6    0.15    0.13
  -2  -7  -6   -0.03    0.19
   2   7   7    1.31    0.25
  -2  -7  -7    0.91    0.23
   2  -7   7    1.26    0.18
   2   7   8    0.06    0.21
   2  -7   8    0.04    0.13
  -2  -7  -8   -0.16    0.21
  -2   8   7   -0.14    0.22
  -2  -8   7    0.08    0.16
   2  -8  -7   -0.17    0.22
   2   8  -6    2.32    0.22
  -2   8   6    2.48    0.33
  -2  -8   6    2.70    0.32
   2  -8  -6    2.25    0.38
   2   8  -5    0.27    0.10
  -2   8   5    0.23    0.22
  -2  -8   5    0.36    0.16
   2   8  -4    8.31    0.67
  -2   8   4    6.90    0.60
   2   8  -4    8.13    0.54
  -2  -8   4    7.99    0.58
   2  -8  -4    8.54    0.59
  -2   8   3    1.35    0.25
   2   8  -3    1.83    0.21
   2   8  -3    1.43    0.17
  -2  -8   3    1.84    0.23
   2  -8  -3    1.37    0.22
  -2   8   2   14.71    0.99
   2   8  -2   13.66    0.94
   2   8  -2   13.97    0.96
   2  -8  -2   15.33    0.96
  -2  -8   2   15.95    0.97
   2   8  -1    2.55    0.30
  -2   8   1    2.43    0.31
  -2  -8   1    3.12    0.30
   2  -8  -1    2.33    0.29
   2   8   0    4.97    0.43
  -2   8   0    5.22    0.45
   2  -8   0    5.04    0.42
  -2  -8   0    5.42    0.44
   2   8   1    2.69    0.32
  -2   8  -1    2.63    0.30
  -2   8  -1    2.70    0.27
  -2  -8  -1    2.61    0.30
   2  -8   1    2.76    0.31
   2   8   2   14.76    0.99
  -2   8  -2   14.84    0.95
  -2   8  -2   15.15    0.97
  -2  -8  -2   15.16    0.98
   2  -8   2   14.11    0.96
   2   8   3    1.50    0.26
  -2   8  -3    1.82    0.22
  -2   8  -3    1.74    0.20
  -2  -8  -3    1.90    0.25
   2  -8   3    1.68    0.22
  -2   8  -4    8.25    0.53
   2   8   4    7.62    0.61
  -2  -8  -4    7.64    0.58
   2  -8   4    7.56    0.56
  -2   8  -5    0.36    0.12
   2   8   5    0.40    0.22
   2  -8   5    0.35    0.16
  -2  -8  -5    0.10    0.23
  -2   8  -6    2.72    0.26
   2   8   6    2.56    0.33
  -2  -8  -6    2.25    0.31
   2  -8   6    2.59    0.29
   2   8   7    0.08    0.23
  -2  -8  -7   -0.03    0.22
   2  -8   7   -0.19    0.15
   2   9  -6    0.30    0.12
  -2   9   6    0.33    0.26
  -2  -9   6    0.57    0.20
  -2   9   5    2.09    0.32
   2   9  -5    1.80    0.20
  -2  -9   5    1.69    0.25
  -2   9   4    0.88    0.25
   2   9  -4    0.68    0.15
  -2  -9   4    0.68    0.20
   2  -9  -4    0.67    0.20
   2   9  -3    7.91    0.55
   2   9  -3    7.61    0.58
  -2   9   3    7.28    0.62
  -2  -9   3    7.46    0.58
   2  -9  -3    8.57    0.60
   2   9  -2    0.74    0.20
  -2   9   2    0.49    0.23
   2  -9  -2    0.66    0.21
  -2  -9   2    0.68    0.20
  -2   9   1    6.75    0.55
   2   9  -1    6.00    0.52
   2  -9  -1    5.87    0.51
  -2  -9   1    6.48    0.51
   2   9   0    0.20    0.19
  -2   9   0    0.08    0.19
   2  -9   0   -0.02    0.18
  -2  -9   0    0.04    0.18
   2   9   1    6.29    0.55
  -2   9  -1    6.36    0.54
  -2  -9  -1    6.36    0.53
   2  -9   1    7.11    0.52
  -2   9  -2    0.73    0.21
   2   9   2    0.62    0.23
  -2  -9  -2    0.60    0.22
   2  -9   2    0.72    0.20
   2   9   3    7.14    0.61
  -2   9  -3    6.67    0.52
  -2   9  -3    7.43    0.55
  -2  -9  -3    7.56    0.58
   2  -9   3    7.98    0.57
   2   9   4    0.76    0.25
  -2   9  -4    0.44    0.14
   2  -9   4    0.82    0.20
  -2  -9  -4    0.87    0.21
  -2   9  -5    1.91    0.21
   2   9   5    2.09    0.33
   2  -9   5    1.87    0.25
   2   9   6    0.63    0.27
  -2   9  -6    0.37    0.15
   2  -9   6    0.45    0.19
  -2  10   4    4.17    0.48
   2 -10  -4    3.62    0.43
  -2 -10   4    3.71    0.43
  -2  10   3    0.37    0.27
  -2 -10   3    0.30    0.21
   2 -10  -3    0.11    0.21
   2  10  -2    2.33    0.30
  -2  10   2    2.08    0.33
  -2 -10   2    2.04    0.29
   2 -10  -2    2.13    0.30
   2  10  -1    0.21    0.22
  -2  10   1    0.28    0.25
  -2 -10   1    0.21    0.21
   2 -10  -1    0.22    0.20
   2  10   0    9.34    0.69
  -2  10   0    8.97    0.70
   2 -10   0    8.18    0.66
  -2 -10   0    9.21    0.67
   2  10   1    0.38    0.24
  -2  10  -1    0.24    0.21
   2 -10   1    0.48    0.21
  -2 -10  -1    0.11    0.23
   2  10   2    1.85    0.32
  -2  10  -2    1.96    0.29
   2 -10   2    1.81    0.27
  -2 -10  -2    2.00    0.30
   2  10   3    0.20    0.26
   2 -10   3    0.13    0.19
  -2 -10  -3    0.43    0.23
  -2  10  -4    3.08    0.34
   2  10   4    3.76    0.43
   2 -10   4    3.74    0.40
   3   0  -9    0.56    0.37
   3   0  -8   11.41    1.03
  -3   0   8   11.50    0.75
   3   0  -7    0.62    0.32
  -3   0   7    0.72    0.15
   3   0  -6   39.90    2.65
   3   0  -5    0.10    0.23
  -3   0   5    0.16    0.13
  -3   0   5    0.25    0.07
   3   0  -4  112.76    6.70
  -3   0   4  113.29    6.71
   3   0  -4  109.60    6.70
   3   0  -4  109.07    6.71
  -3   0   3    0.19    0.11
   3   0  -3    0.81    0.10
  -3   0   3    0.65    0.08
   3   0  -3    0.59    0.05
   3   0  -3    0.58    0.08
   3   0  -3    0.55    0.06
  -3   0   2   15.25    1.10
   3   0  -2   17.70    1.07
   3   0  -2   17.83    1.06
  -3   0   2   18.82    1.07
  -3   0   2   18.04    1.07
   3   0  -2   17.62    1.07
   3   0  -2   16.48    1.06
   3   0  -1    0.04    0.04
   3   0  -1    0.02    0.04
  -3   0   1   -0.03    0.10
   3   0  -1    0.01    0.06
   3   0  -1   -0.01    0.06
  -3   0   1   -0.02    0.05
  -3   0   1    0.11    0.06
  -3   0   1    0.04    0.05
   3   0  -1    0.07    0.07
   3   0  -1    0.02    0.13
  -3   0   0  179.04   10.42
   3   0   0  182.73   10.42
  -3   0   0  168.36   10.42
  -3   0   0  152.12   10.42
   3   0   0  174.40   10.48
  -3   0   0  161.75   10.41
   3   0   0  179.62   10.43
   3   0   0  182.13   10.42
  -3   0  -1   -0.02    0.05
   3   0   1    0.03    0.05
   3   0   1    0.06    0.08
  -3   0  -1    0.13    0.06
  -3   0  -1    0.05    0.04
   3   0   1    0.03    0.04
  -3   0  -2   17.35    1.06
  -3   0  -2   18.15    1.07
  -3   0  -2   18.68    1.06
   3   0   2   16.03    1.08
   3   0   2   16.98    1.06
   3   0   3    0.38    0.08
   3   0   3    0.48    0.06
  -3   0  -3    0.52    0.09
  -3   0  -4  105.90    6.40
   3   0   4  104.98    6.35
  -3   0  -5    0.31    0.12
   3   0   5   -0.14    0.07
   3   0   5    0.23    0.04
  -3   0  -6   52.53    3.26
   3   1 -10    0.78    0.46
   3   1  -9   10.64    1.08
   3   1  -8    2.50    0.54
  -3  -1   8    2.31    0.32
  -3   1   7   39.54    2.31
  -3  -1   7   33.41    2.35
   3  -1  -7   40.18    2.51
  -3   1   6   17.42    1.08
   3  -1  -6   16.69    1.25
   3  -1  -6   16.04    1.06
  -3  -1   6   18.87    1.09
   3   1  -5   25.71    2.06
  -3   1   5   32.04    1.81
  -3   1   5   28.33    1.79
   3  -1  -5   29.08    1.95
   3  -1  -5   29.59    1.79
  -3  -1   5   30.91    1.80
  -3   1   4   32.44    2.09
   3   1  -4   35.39    2.08
  -3   1   4   38.78    2.12
   3   1  -4   28.81    2.34
   3  -1  -4   37.23    2.09
   3  -1  -4   33.50    2.09
  -3  -1   4   35.18    2.10
   3  -1  -4   33.63    2.23
   3   1  -3   92.50    5.57
  -3   1   3   87.07    5.57
  -3   1   3   87.97    5.57
  -3   1   3  103.74    5.59
   3   1  -3   86.33    5.77
   3   1  -3   99.38    5.57
   3   1  -3   99.44    5.57
   3  -1  -3   89.17    5.57
   3  -1  -3   90.40    5.57
  -3  -1   3   92.76    5.59
   3  -1  -3   89.82    5.57
   3  -1  -3   89.36    5.67
   3   1  -2   25.05    1.58
  -3   1   2   27.27    1.58
   3   1  -2   23.93    1.58
  -3   1   2   27.88    1.56
  -3   1   2   25.66    1.56
   3  -1  -2   24.87    1.55
   3  -1  -2   23.74    1.56
   3  -1  -2   26.56    1.63
  -3  -1   2   26.24    1.56
  -3  -1   2   26.09    1.57
   3  -1  -2   25.20    1.56
  -3   1   1   43.51    2.74
   3   1  -1   45.58    2.74
  -3   1   1   44.24    2.74
  -3   1   1   42.49    2.74
   3   1  -1   50.89    2.75
   3   1  -1   46.87    2.75
  -3   1   1   43.51    2.75
  -3  -1   1   50.73    2.75
  -3  -1   1   43.72    2.74
   3  -1  -1   43.37    2.74
  -3  -1   1   48.50    2.75
   3  -1  -1   44.49    2.74
   3  -1  -1   41.53    2.74
   3   1   0    0.00    0.04
   3   1   0    0.02    0.04
  -3   1   0    0.04    0.03
  -3   1   0    0.02    0.03
  -3   1   0    0.00    0.03
  -3   1   0    0.02    0.04
   3  -1   0   -0.03    0.03
   3  -1   0    0.03    0.04
  -3  -1   0    0.05    0.04
  -3  -1   0    0.01    0.03
   3  -1   0    0.01    0.03
   3  -1   0    0.02    0.03
  -3  -1   0    0.01    0.04
  -3   1  -1   51.86    2.94
   3   1   1   48.43    2.94
  -3   1  -1   42.40    2.93
   3   1   1   44.53    2.93
  -3   1  -1   48.81    2.94
  -3   1  -1   51.10    2.94
   3  -1   1   51.09    2.94
   3  -1   1   44.39    2.94
  -3  -1  -1   49.00    2.94
  -3  -1  -1   50.56    2.94
   3  -1   1   49.60    2.94
   3  -1   1   51.14    2.94
   3   1   2   28.37    1.69
  -3   1  -2   26.00    1.68
  -3   1  -2   28.57    1.69
   3   1   2   26.02    1.69
   3  -1   2   27.85    1.69
   3  -1   2   29.23    1.69
  -3  -1  -2   27.67    1.70
  -3  -1  -2   28.90    1.70
   3  -1   2   28.70    1.69
  -3  -1  -2   27.20    1.69
   3   1   3   92.59    5.61
   3   1   3   98.96    5.62
   3  -1   3   90.53    5.64
   3  -1   3   94.75    5.64
  -3  -1  -3   88.67    5.61
   3   1   4   35.90    2.12
   3   1   4   35.45    2.11
   3  -1   4   34.98    2.11
   3  -1   4   33.25    2.11
  -3   1  -5   32.10    2.00
   3   1   5   31.36    1.88
   3   1   5   30.77    1.88
   3  -1   5   31.59    1.88
   3  -1   5   29.37    1.88
   3   1   6   17.05    1.06
   3   1   6   16.81    1.05
  -3   1  -6   18.14    1.19
  -3   1  -7   43.53    2.61
   3   1   7   38.38    2.47
  -3   1  -8    4.60    0.51
  -3   1  -9   13.07    1.00
   3   2 -10    2.92    0.69
   3   2  -9    0.32    0.47
  -3   2   9    0.59    0.14
   3  -2  -9    0.95    0.16
  -3   2   8   28.19    1.85
  -3  -2   8   34.19    1.89
   3  -2  -8   26.79    1.84
  -3  -2   8   31.66    1.87
  -3   2   7    2.04    0.20
   3   2  -7    1.18    0.50
  -3  -2   7    1.69    0.20
   3  -2  -7    1.88    0.20
  -3   2   6   37.20    2.36
   3   2  -6   34.75    2.73
   3  -2  -6   37.68    2.35
  -3  -2   6   42.66    2.37
  -3  -2   6   40.30    2.36
  -3   2   5    0.71    0.10
   3   2  -5    0.77    0.36
   3   2  -5    0.53    0.08
   3  -2  -5    0.56    0.07
  -3  -2   5    0.71    0.09
  -3  -2   5    0.54    0.09
   3  -2  -5    0.59    0.09
  -3   2   4   17.02    1.09
   3   2  -4   19.20    1.08
   3   2  -4   17.01    1.08
  -3  -2   4   16.77    1.08
  -3  -2   4   19.57    1.09
   3  -2  -4   17.73    1.08
   3  -2  -4   16.05    1.08
   3  -2  -4   17.48    1.07
   3   2  -3    3.89    0.24
   3   2  -3    3.69    0.25
  -3   2   3    3.53    0.24
   3   2  -3    3.35    0.28
  -3   2   3    3.72    0.26
  -3  -2   3    3.80    0.25
   3  -2  -3    3.52    0.24
  -3  -2   3    4.07    0.26
   3  -2  -3    3.61    0.25
   3  -2  -3    3.61    0.25
  -3   2   2  158.32    9.72
   3   2  -2  161.56    9.76
   3   2  -2  151.31    9.76
   3   2  -2  175.24    9.76
  -3   2   2  156.96    9.76
   3  -2  -2  157.77    9.74
  -3  -2   2  171.15    9.77
   3  -2  -2  158.75    9.72
  -3  -2   2  168.80    9.77
   3  -2  -2  153.17    9.74
  -3   2   1   26.25    1.60
  -3   2   1   26.47    1.60
   3   2  -1   28.44    1.60
   3   2  -1   26.83    1.60
   3  -2  -1   24.88    1.60
   3  -2  -1   25.94    1.60
  -3  -2   1   25.05    1.60
  -3  -2   1   26.47    1.60
   3  -2  -1   26.39    1.60
  -3   2   0   16.41    0.99
  -3   2   0   16.77    0.98
   3   2   0   16.68    0.99
   3   2   0   16.00    0.98
  -3   2   0   15.83    0.98
   3  -2   0   15.38    0.98
   3  -2   0   17.02    0.98
  -3  -2   0   16.39    0.99
  -3  -2   0   15.64    0.98
   3  -2   0   14.67    0.98
   3   2   1   26.52    1.60
  -3   2  -1   23.45    1.59
  -3   2  -1   27.15    1.59
  -3   2  -1   26.36    1.59
   3  -2   1   25.03    1.59
   3  -2   1   27.22    1.60
  -3  -2  -1   26.05    1.59
  -3  -2  -1   27.10    1.60
   3  -2   1   25.87    1.59
   3  -2   1   27.47    1.59
   3   2   2  159.54    9.70
  -3   2  -2  167.32    9.74
  -3   2  -2  161.21    9.71
  -3   2  -2  161.99    9.72
   3   2   2  154.61    9.69
  -3  -2  -2  163.62    9.71
   3  -2   2  181.67    9.77
  -3  -2  -2  149.10    9.70
   3  -2   2  148.08    9.72
   3  -2   2  160.24    9.71
   3   2   3    3.63    0.25
  -3   2  -3    3.62    0.24
   3   2   3    3.43    0.24
  -3   2  -3    3.67    0.24
  -3  -2  -3    3.62    0.25
   3  -2   3    3.81    0.24
  -3  -2  -3    4.00    0.26
   3  -2   3    3.70    0.24
   3   2   4   18.36    1.11
  -3   2  -4   16.95    1.11
   3   2   4   18.74    1.11
   3  -2   4   16.93    1.10
  -3  -2  -4   17.40    1.11
   3  -2   4   19.94    1.11
  -3  -2  -4   18.63    1.12
   3   2   5    0.54    0.08
   3   2   5    0.50    0.08
   3  -2   5    0.58    0.07
   3  -2   5    0.50    0.07
  -3  -2  -5    0.51    0.08
   3   2   6   41.72    2.47
   3   2   6   41.73    2.47
  -3  -2  -6   38.93    2.47
   3  -2   6   43.04    2.46
   3  -2   6   38.07    2.46
   3   2   7    1.94    0.17
  -3   2  -7    1.75    0.37
   3  -2   7    1.58    0.13
   3   2   8   28.66    1.79
  -3   2  -8   30.11    1.98
  -3   2  -9    0.92    0.35
   3   3 -10   -0.61    0.51
   3  -3 -10    0.71    0.18
  -3   3   9   12.21    0.80
   3  -3  -9   12.07    0.80
   3   3  -8    1.43    0.58
  -3   3   8    1.50    0.19
  -3  -3   8    2.06    0.22
   3  -3  -8    1.21    0.18
   3   3  -7    7.08    1.06
  -3   3   7    9.35    0.62
   3   3  -7    9.86    0.60
  -3  -3   7    9.85    0.61
   3  -3  -7    9.22    0.61
   3   3  -6    6.85    0.47
  -3   3   6    6.97    0.49
   3  -3  -6    6.96    0.48
   3  -3  -6    7.85    0.47
  -3  -3   6    7.11    0.47
   3   3  -5   95.85    6.16
  -3   3   5   95.96    6.17
   3  -3  -5  104.75    6.15
  -3  -3   5  105.88    6.16
   3  -3  -5  107.27    6.16
   3   3  -4   12.43    0.73
  -3   3   4   11.40    0.74
   3   3  -4   11.03    0.72
   3   3  -4   12.67    0.76
   3  -3  -4   11.79    0.73
  -3  -3   4   11.78    0.74
   3  -3  -4   11.40    0.72
   3  -3  -4   11.37    0.74
  -3   3   3   10.68    0.73
   3   3  -3   11.65    0.71
   3   3  -3   13.49    0.73
  -3   3   3   11.65    0.72
   3   3  -3   12.03    0.72
   3  -3  -3   10.54    0.72
   3  -3  -3   10.85    0.73
   3  -3  -3   11.89    0.72
  -3  -3   3   11.57    0.73
   3   3  -2    4.02    0.25
  -3   3   2    3.37    0.24
   3   3  -2    4.02    0.25
   3   3  -2    3.50    0.24
  -3   3   2    3.11    0.25
   3  -3  -2    3.44    0.25
   3  -3  -2    3.61    0.24
   3  -3  -2    3.64    0.25
  -3   3   1   88.56    5.60
   3   3  -1   86.07    5.60
  -3   3   1   92.37    5.59
   3   3  -1   96.23    5.60
  -3  -3   1   94.37    5.62
   3  -3  -1   87.55    5.59
   3  -3  -1   95.51    5.60
  -3  -3   1  100.45    5.62
   3  -3  -1   92.74    5.59
  -3   3   0    0.44    0.07
  -3   3   0    0.40    0.07
   3   3   0    0.39    0.07
   3   3   0    0.34    0.06
  -3   3   0    0.39    0.06
  -3  -3   0    0.37    0.07
  -3  -3   0    0.34    0.06
   3  -3   0    0.39    0.06
   3  -3   0    0.37    0.06
   3  -3   0    0.37    0.05
   3   3   1   93.92    5.65
  -3   3  -1   97.03    5.64
  -3   3  -1   94.01    5.66
   3   3   1   92.19    5.64
  -3   3  -1   92.98    5.64
   3  -3   1   95.16    5.64
   3  -3   1   91.75    5.66
  -3  -3  -1   92.82    5.64
   3  -3   1   92.63    5.64
  -3  -3  -1   91.75    5.65
   3   3   2    3.40    0.23
  -3   3  -2    3.72    0.24
  -3   3  -2    3.55    0.24
   3   3   2    3.30    0.25
  -3   3  -2    3.58    0.24
  -3  -3  -2    3.35    0.24
   3  -3   2    3.49    0.24
  -3  -3  -2    3.48    0.25
   3  -3   2    3.38    0.23
  -3   3  -3   12.57    0.74
  -3   3  -3   11.51    0.74
  -3   3  -3   12.48    0.73
   3   3   3   11.78    0.75
   3  -3   3   11.98    0.74
  -3  -3  -3   11.04    0.74
  -3  -3  -3   11.69    0.74
  -3   3  -4   11.54    0.74
   3   3   4   12.26    0.76
  -3   3  -4   11.87    0.75
   3  -3   4   12.82    0.75
  -3  -3  -4   11.98    0.75
  -3  -3  -4   11.66    0.75
   3   3   5  107.68    6.45
  -3   3  -5  103.73    6.44
   3  -3   5  121.44    6.45
  -3  -3  -5   98.39    6.45
   3  -3   5  104.94    6.44
  -3  -3  -5  104.42    6.45
   3   3   6    8.02    0.50
   3  -3   6    7.23    0.48
  -3  -3  -6    7.58    0.50
   3   3   7    9.64    0.63
  -3  -3  -7    9.59    0.63
   3  -3   7    9.83    0.61
   3   3   8    1.69    0.18
  -3   3  -8    1.28    0.44
  -3  -3  -8    1.74    0.22
   3  -4 -10    5.26    0.48
  -3   4   9    1.63    0.23
   3   4  -9    1.94    0.68
   3  -4  -9    1.61    0.22
   3   4  -8   14.33    0.88
   3   4  -8   11.43    1.43
  -3   4   8   14.11    0.91
   3  -4  -8   13.66    0.90
  -3  -4   8   14.56    0.90
  -3   4   7    0.92    0.17
   3   4  -7    1.09    0.13
   3  -4  -7    0.94    0.16
  -3  -4   7    0.98    0.15
   3   4  -6   18.82    1.20
  -3   4   6   18.68    1.22
   3  -4  -6   19.56    1.21
  -3  -4   6   20.32    1.21
   3   4  -5    0.06    0.07
  -3   4   5   -0.02    0.10
   3   4  -5    0.35    0.12
   3  -4  -5    0.00    0.06
  -3  -4   5    0.07    0.09
   3  -4  -5   -0.12    0.10
   3  -4  -5   -0.02    0.09
  -3   4   4   63.64    4.27
   3   4  -4   70.12    4.25
   3   4  -4   76.93    4.27
   3   4  -4   70.29    4.26
   3  -4  -4   67.76    4.26
  -3  -4   4   71.74    4.27
   3  -4  -4   72.11    4.27
   3  -4  -4   70.52    4.26
   3   4  -3   12.08    0.75
  -3   4   3   12.96    0.76
   3   4  -3   11.90    0.76
   3   4  -3   12.80    0.76
  -3   4   3   11.07    0.77
   3  -4  -3   11.45    0.75
   3  -4  -3   12.03    0.77
   3  -4  -3   11.83    0.76
  -3  -4   3   12.29    0.76
   3   4  -2   18.22    1.14
   3   4  -2   18.77    1.14
  -3   4   2   19.64    1.14
   3   4  -2   19.55    1.14
  -3   4   2   16.64    1.15
  -3  -4   2   19.14    1.15
   3  -4  -2   18.31    1.15
   3  -4  -2   17.76    1.14
   3  -4  -2   18.29    1.14
  -3   4   1   33.91    2.09
   3   4  -1   33.11    2.07
   3   4  -1   30.58    2.07
   3   4  -1   33.83    2.08
  -3  -4   1   34.78    2.08
   3  -4  -1   35.43    2.07
   3  -4  -1   36.01    2.08
  -3  -4   1   34.36    2.08
   3  -4  -1   34.64    2.08
  -3   4   0  107.47    6.53
  -3   4   0  106.02    6.52
   3   4   0  103.56    6.52
   3   4   0  115.01    6.52
   3   4   0  114.37    6.53
   3  -4   0  103.44    6.52
  -3  -4   0  106.26    6.52
  -3  -4   0  107.13    6.53
   3  -4   0  112.76    6.53
   3  -4   0  103.83    6.52
   3   4   1   37.03    2.11
  -3   4  -1   34.79    2.10
  -3   4  -1   33.90    2.09
   3   4   1   36.16    2.10
  -3   4  -1   34.26    2.10
  -3  -4  -1   33.51    2.10
   3  -4   1   33.23    2.10
   3  -4   1   32.87    2.10
  -3  -4  -1   34.98    2.10
   3  -4   1   33.57    2.09
  -3   4  -2   18.95    1.09
  -3   4  -2   18.42    1.09
  -3   4  -2   16.04    1.08
   3   4   2   17.27    1.10
  -3  -4  -2   16.80    1.09
   3  -4   2   17.93    1.09
  -3  -4  -2   17.30    1.09
   3  -4   2   17.99    1.08
   3   4   3   11.19    0.74
   3   4   3   12.55    0.76
  -3   4  -3   11.78    0.74
  -3   4  -3   12.13    0.75
  -3   4  -3   11.80    0.74
  -3  -4  -3   11.56    0.75
   3  -4   3   11.80    0.74
  -3  -4  -3   12.24    0.76
  -3   4  -4   73.67    4.27
  -3   4  -4   70.75    4.27
   3   4   4   70.25    4.28
  -3   4  -4   73.79    4.27
  -3  -4  -4   68.68    4.28
   3  -4   4   67.28    4.27
  -3  -4  -4   69.63    4.28
  -3   4  -5    0.02    0.07
  -3   4  -5   -0.01    0.05
   3   4   5   -0.09    0.10
   3  -4   5   -0.01    0.07
  -3  -4  -5    0.08    0.10
  -3  -4  -5    0.16    0.09
  -3   4  -6   20.44    1.24
   3   4   6   20.09    1.25
   3  -4   6   20.22    1.23
  -3  -4  -6   19.35    1.25
  -3   4  -7    1.22    0.14
   3   4   7    1.02    0.17
  -3  -4  -7    0.95    0.16
   3  -4   7    1.02    0.12
   3   4   8   13.44    0.89
  -3  -4  -8   13.53    0.89
   3  -4   8   14.35    0.86
   3   4   9    1.76    0.21
  -3  -4  -9    1.59    0.21
  -3  -4 -10    5.61    0.48
   3   5  -9    3.69    0.88
  -3   5   9    3.04    0.36
   3  -5  -9    3.32    0.38
   3   5  -8    0.86    0.64
   3   5  -8    0.88    0.14
  -3   5   8    0.71    0.21
   3  -5  -8    0.66    0.19
  -3  -5   8    0.88    0.16
   3   5  -7   34.49    2.14
  -3   5   7   33.99    2.16
  -3  -5   7   35.75    2.15
   3  -5  -7   35.44    2.16
  -3   5   6    0.31    0.16
   3   5  -6    0.40    0.10
  -3  -5   6    0.35    0.12
   3  -5  -6    0.26    0.14
   3   5  -5    4.52    0.31
  -3   5   5    3.86    0.37
   3   5  -5    5.57    0.36
   3   5  -5    5.19    0.34
   3  -5  -5    4.22    0.33
  -3  -5   5    5.06    0.35
   3  -5  -5    4.28    0.37
   3  -5  -5    4.03    0.32
   3   5  -4    0.03    0.06
   3   5  -4    0.10    0.09
  -3   5   4    0.04    0.12
   3   5  -4    0.01    0.08
   3  -5  -4   -0.03    0.07
  -3  -5   4   -0.01    0.09
   3  -5  -4   -0.04    0.10
   3  -5  -4   -0.01    0.12
   3   5  -3  108.24    6.38
  -3   5   3   98.24    6.38
   3   5  -3  105.26    6.37
  -3   5   3  111.81    6.37
   3   5  -3  109.43    6.38
   3  -5  -3   98.13    6.37
   3  -5  -3  102.95    6.38
   3  -5  -3  103.19    6.38
  -3  -5   3  111.19    6.38
  -3   5   2    0.57    0.11
   3   5  -2    0.54    0.08
   3   5  -2    0.50    0.09
  -3   5   2    0.60    0.12
   3   5  -2    0.49    0.10
  -3  -5   2    0.61    0.12
   3  -5  -2    0.43    0.10
   3  -5  -2    0.59    0.11
   3  -5  -2    0.47    0.09
  -3   5   1   31.38    1.92
  -3   5   1   29.16    1.91
   3   5  -1   31.84    1.92
   3   5  -1   31.89    1.91
   3   5  -1   32.24    1.91
  -3  -5   1   30.57    1.91
   3  -5  -1   30.12    1.91
  -3  -5   1   31.81    1.92
   3  -5  -1   30.78    1.91
   3  -5  -1   32.38    1.92
  -3   5   0    0.18    0.07
   3   5   0    0.20    0.07
  -3   5   0    0.42    0.11
  -3   5   0    0.26    0.08
   3   5   0    0.20    0.10
   3  -5   0    0.33    0.08
   3  -5   0    0.29    0.09
  -3  -5   0    0.15    0.10
   3  -5   0    0.25    0.08
  -3  -5   0    0.21    0.07
   3   5   1   30.82    1.94
  -3   5  -1   30.81    1.94
   3   5   1   33.39    1.96
  -3   5  -1   33.08    1.95
  -3  -5  -1   31.87    1.95
   3  -5   1   32.35    1.95
   3  -5   1   30.85    1.95
   3  -5   1   33.56    1.94
  -3  -5  -1   29.58    1.95
   3   5   2    0.49    0.09
   3   5   2    0.56    0.12
  -3   5  -2    0.61    0.11
  -3   5  -2    0.62    0.10
  -3   5  -2    0.49    0.09
   3  -5   2    0.56    0.10
  -3  -5  -2    0.48    0.10
   3  -5   2    0.68    0.09
  -3  -5  -2    0.54    0.11
  -3   5  -3  108.73    6.26
   3   5   3   99.24    6.26
   3   5   3  102.61    6.28
  -3   5  -3  111.85    6.27
  -3   5  -3  104.97    6.26
  -3  -5  -3   97.68    6.27
   3  -5   3  102.46    6.26
  -3  -5  -3  101.10    6.27
  -3   5  -4    0.00    0.08
  -3   5  -4    0.00    0.07
  -3   5  -4    0.01    0.07
   3   5   4    0.10    0.12
  -3  -5  -4    0.02    0.10
   3  -5   4    0.06    0.09
  -3  -5  -4   -0.06    0.10
   3   5   5    4.04    0.36
  -3   5  -5    4.92    0.33
  -3  -5  -5    4.35    0.34
  -3  -5  -5    4.38    0.36
   3  -5   5    4.67    0.33
  -3   5  -6    0.43    0.11
   3   5   6    0.42    0.16
  -3  -5  -6    0.32    0.14
   3  -5   6    0.41    0.11
  -3   5  -7   37.05    2.15
   3   5   7   35.41    2.17
   3  -5   7   34.60    2.15
  -3  -5  -7   33.21    2.16
  -3   5  -8    0.71    0.13
   3   5   8    0.87    0.19
  -3  -5  -8    0.73    0.18
   3  -5   8    0.69    0.12
   3   5   9    3.16    0.35
  -3   5  -9    3.87    0.29
  -3  -5  -9    2.87    0.36
   3   6  -9    1.56    0.72
  -3   6   9    0.70    0.23
  -3  -6   9    0.65    0.23
   3  -6  -9    0.27    0.21
  -3   6   8    3.79    0.39
  -3  -6   8    4.01    0.35
   3  -6  -8    3.45    0.41
  -3   6   7    0.53    0.21
   3  -6  -7    0.50    0.20
  -3  -6   7    0.60    0.15
  -3   6   6   24.14    1.57
   3  -6  -6   24.77    1.57
  -3  -6   6   25.51    1.55
   3   6  -5    0.29    0.08
   3   6  -5    0.38    0.11
  -3   6   5    0.44    0.18
   3  -6  -5    0.46    0.13
   3  -6  -5    0.34    0.11
   3  -6  -5    0.34    0.16
  -3  -6   5    0.39    0.13
   3   6  -4   19.62    1.24
   3   6  -4   20.65    1.26
   3   6  -4   19.88    1.25
  -3   6   4   19.13    1.27
   3  -6  -4   20.87    1.27
   3  -6  -4   19.39    1.25
   3  -6  -4   20.24    1.24
  -3  -6   4   20.25    1.26
   3   6  -3    7.66    0.49
   3   6  -3    7.63    0.51
  -3   6   3    7.24    0.53
   3   6  -3    7.45    0.51
  -3  -6   3    7.54    0.51
   3  -6  -3    7.44    0.50
   3  -6  -3    7.82    0.53
   3  -6  -3    6.97    0.51
   3   6  -2   38.80    2.55
   3   6  -2   41.27    2.54
  -3   6   2   41.30    2.57
   3   6  -2   43.21    2.55
  -3   6   2   44.54    2.55
   3  -6  -2   41.45    2.55
   3  -6  -2   39.94    2.54
  -3  -6   2   42.03    2.56
   3  -6  -2   42.76    2.56
   3   6  -1   18.10    1.08
   3   6  -1   18.11    1.10
  -3   6   1   16.20    1.10
  -3   6   1   16.97    1.08
   3   6  -1   17.96    1.09
  -3  -6   1   16.20    1.08
   3  -6  -1   17.91    1.09
   3  -6  -1   16.58    1.08
  -3  -6   1   17.75    1.09
   3  -6  -1   17.00    1.09
  -3   6   0   53.08    3.14
   3   6   0   50.25    3.15
   3   6   0   50.56    3.14
  -3   6   0   53.05    3.15
   3  -6   0   52.43    3.14
  -3  -6   0   53.77    3.15
   3  -6   0   47.12    3.14
  -3  -6   0   53.35    3.14
   3  -6   0   50.14    3.14
  -3   6  -1   16.68    1.09
  -3   6  -1   17.45    1.08
   3   6   1   18.50    1.10
  -3   6  -1   17.94    1.08
   3  -6   1   17.50    1.08
   3  -6   1   17.64    1.15
  -3  -6  -1   16.59    1.09
   3  -6   1   16.44    1.08
  -3  -6  -1   16.64    1.08
  -3   6  -2   41.50    2.47
   3   6   2   41.46    2.48
   3   6   2   39.10    2.49
  -3   6  -2   38.72    2.48
  -3   6  -2   45.11    2.48
   3  -6   2   37.61    2.48
  -3  -6  -2   39.27    2.48
  -3  -6  -2   41.09    2.48
  -3   6  -3    6.93    0.48
  -3   6  -3    8.05    0.50
  -3   6  -3    7.63    0.50
   3   6   3    7.39    0.53
   3  -6   3    6.79    0.50
  -3  -6  -3    7.25    0.51
  -3  -6  -3    7.20    0.51
  -3   6  -4   19.42    1.23
  -3   6  -4   20.86    1.24
   3   6   4   19.34    1.26
  -3   6  -4   20.74    1.24
  -3  -6  -4   19.46    1.25
  -3  -6  -4   19.15    1.25
   3  -6   4   20.04    1.24
  -3   6  -5    0.35    0.11
  -3   6  -5    0.45    0.10
   3   6   5    0.43    0.17
  -3  -6  -5    0.37    0.14
   3  -6   5    0.40    0.12
  -3  -6  -5    0.39    0.15
  -3   6  -6   26.80    1.59
   3   6   6   24.66    1.61
  -3  -6  -6   25.07    1.61
   3  -6   6   26.00    1.59
  -3   6  -7    0.62    0.14
   3   6   7    0.53    0.20
  -3  -6  -7    0.51    0.19
   3  -6   7    0.63    0.14
   3   6   8    3.58    0.39
  -3   6  -8    4.23    0.33
   3  -6   8    4.09    0.32
  -3  -6  -8    3.57    0.41
   3   6   9    0.28    0.21
  -3   6  -9    0.57    0.14
  -3  -6  -9    0.37    0.21
  -3   7   8    0.02    0.22
  -3  -7   8    0.13    0.16
   3  -7  -8   -0.35    0.21
  -3   7   7    1.71    0.28
  -3  -7   7    2.22    0.25
   3  -7  -7    1.84    0.28
  -3   7   6    0.44    0.22
   3   7  -6    0.55    0.09
   3  -7  -6    0.46    0.21
  -3  -7   6    0.53    0.16
   3   7  -5   34.35    2.15
  -3   7   5   33.64    2.19
   3  -7  -5   36.57    2.19
   3  -7  -5   34.91    2.17
  -3  -7   5   36.31    2.18
   3   7  -4    1.19    0.18
   3   7  -4    1.34    0.15
  -3   7   4    1.12    0.21
   3  -7  -4    1.02    0.18
   3  -7  -4    0.91    0.15
  -3  -7   4    1.07    0.18
   3  -7  -4    0.89    0.20
   3   7  -3    9.97    0.63
  -3   7   3    8.76    0.67
   3   7  -3    9.88    0.65
   3  -7  -3    9.11    0.64
   3  -7  -3    9.61    0.65
  -3  -7   3   10.29    0.66
   3  -7  -3    9.82    0.67
   3   7  -2    1.90    0.20
   3   7  -2    2.00    0.25
  -3   7   2    2.10    0.27
  -3  -7   2    1.55    0.21
   3  -7  -2    1.91    0.24
   3  -7  -2    1.93    0.22
   3  -7  -2    1.99    0.24
   3   7  -1   37.39    2.38
   3   7  -1   38.57    2.40
  -3   7   1   40.04    2.41
  -3  -7   1   40.24    2.40
   3  -7  -1   38.51    2.40
   3   7   0    0.58    0.11
  -3   7   0    0.72    0.16
  -3   7   0    0.52    0.11
   3   7   0    0.60    0.16
  -3  -7   0    0.72    0.16
   3  -7   0    0.84    0.16
   3   7   1   37.37    2.39
  -3   7  -1   39.60    2.38
  -3   7  -1   41.39    2.39
   3  -7   1   38.72    2.39
  -3  -7  -1   36.74    2.39
   3   7   2    2.10    0.26
  -3   7  -2    1.62    0.21
  -3   7  -2    1.96    0.22
   3  -7   2    1.86    0.23
  -3  -7  -2    1.68    0.20
  -3  -7  -2    1.99    0.25
  -3   7  -3    8.65    0.61
   3   7   3    8.99    0.65
  -3   7  -3   10.27    0.63
  -3  -7  -3    9.50    0.64
   3  -7   3    9.12    0.63
  -3  -7  -3    8.96    0.64
   3   7   4    1.26    0.22
  -3   7  -4    1.27    0.15
  -3   7  -4    1.24    0.17
  -3  -7  -4    0.88    0.19
  -3  -7  -4    0.97    0.19
   3  -7   4    1.14    0.18
   3   7   5   34.35    2.17
  -3   7  -5   37.66    2.13
   3  -7   5   33.56    2.14
  -3  -7  -5   33.01    2.16
  -3  -7  -5   34.91    2.16
   3   7   6    0.78    0.22
   3  -7   6    0.43    0.15
  -3  -7  -6    0.37    0.19
   3   7   7    2.19    0.29
   3  -7   7    2.67    0.27
  -3  -7  -7    1.96    0.29
   3   7   8   -0.10    0.22
   3  -7   8    0.12    0.13
  -3  -7  -8   -0.21    0.21
  -3   8   7    0.04    0.24
   3  -8  -7   -0.19    0.35
  -3  -8   7    0.14    0.16
   3   8  -6    3.86    0.30
  -3   8   6    3.96    0.46
  -3  -8   6    4.09    0.39
   3   8  -5    0.70    0.13
  -3   8   5    1.06    0.26
  -3  -8   5    0.68    0.19
  -3   8   4   13.83    0.95
   3   8  -4   13.90    0.96
   3   8  -4   13.81    0.88
  -3  -8   4   13.95    0.93
   3  -8  -4   13.87    0.92
   3   8  -3    1.62    0.18
  -3   8   3    1.49    0.25
   3   8  -3    1.73    0.22
  -3  -8   3    2.03    0.24
   3  -8  -3    1.62    0.24
   3   8  -2   29.67    1.77
   3   8  -2   27.57    1.78
  -3   8   2   28.51    1.79
   3  -8  -2   28.31    1.78
  -3  -8   2   28.01    1.78
   3   8  -1    4.14    0.39
  -3   8   1    4.12    0.39
  -3  -8   1    4.30    0.38
   3  -8  -1    4.55    0.38
   3   8   0   11.59    0.78
  -3   8   0   11.87    0.78
   3  -8   0   11.03    0.77
  -3  -8   0   10.96    0.77
   3   8   1    4.66    0.40
  -3   8  -1    4.36    0.40
  -3   8  -1    4.24    0.40
  -3  -8  -1    4.98    0.40
   3  -8   1    3.86    0.38
  -3   8  -2   29.55    1.79
  -3   8  -2   29.41    1.80
   3   8   2   29.95    1.82
  -3  -8  -2   28.81    1.81
   3  -8   2   26.28    1.79
   3   8   3    1.72    0.26
  -3   8  -3    1.44    0.18
  -3   8  -3    1.68    0.21
  -3  -8  -3    1.64    0.24
   3  -8   3    1.81    0.22
   3   8   4   12.91    0.93
  -3   8  -4   14.04    0.89
  -3  -8  -4   13.85    0.93
   3  -8   4   14.24    0.91
   3   8   5    1.01    0.24
  -3   8  -5    0.76    0.14
   3  -8   5    0.90    0.18
  -3  -8  -5    0.60    0.26
  -3   8  -6    4.64    0.34
   3   8   6    3.90    0.44
  -3  -8  -6    3.35    0.46
   3  -8   6    3.72    0.37
   3   8   7   -0.13    0.24
  -3  -8  -7   -0.18    0.23
   3  -8   7    0.06    0.14
   3   9  -6    0.43    0.12
  -3   9   6    0.51    0.27
  -3  -9   6    0.62    0.20
  -3   9   5    3.34    0.39
   3   9  -5    3.34    0.30
  -3  -9   5    3.81    0.39
   3   9  -4    1.45    0.19
  -3   9   4    1.89    0.31
   3  -9  -4    2.02    0.27
  -3  -9   4    1.68    0.25
   3   9  -3   12.74    0.87
  -3   9   3   12.98    0.91
  -3  -9   3   13.54    0.88
   3  -9  -3   12.19    0.87
   3   9  -2    1.06    0.21
  -3   9   2    0.83    0.24
   3  -9  -2    0.82    0.22
  -3  -9   2    0.76    0.21
  -3   9   1   11.43    0.80
   3   9  -1   10.95    0.77
   3  -9  -1   11.06    0.77
  -3  -9   1   10.55    0.77
   3   9   0    0.08    0.19
  -3   9   0    0.26    0.20
  -3  -9   0    0.21    0.19
   3  -9   0    0.14    0.18
   3   9   1   10.62    0.81
  -3   9  -1   11.85    0.82
  -3  -9  -1   11.83    0.81
   3  -9   1   12.21    0.81
   3   9   2    0.64    0.24
  -3   9  -2    1.08    0.22
   3  -9   2    0.88    0.20
  -3  -9  -2    0.88    0.23
  -3   9  -3   12.91    0.84
   3   9   3   12.06    0.86
  -3   9  -3   11.15    0.80
   3  -9   3   13.08    0.84
  -3  -9  -3   11.94    0.85
   3   9   4    2.13    0.32
  -3   9  -4    1.83    0.23
  -3  -9  -4    2.17    0.29
   3  -9   4    1.89    0.26
  -3   9  -5    3.59    0.33
   3   9   5    3.55    0.47
   3  -9   5    4.08    0.39
  -3   9  -6    0.44    0.16
   3   9   6    0.24    0.25
   3  -9   6    0.62    0.18
  -3  10   4    5.31    0.56
  -3 -10   4    5.78    0.52
   3 -10  -4    5.78    0.50
  -3  10   3    0.42    0.27
   3 -10  -3    0.63    0.24
  -3 -10   3    0.45    0.22
  -3  10   2    3.77    0.45
   3  10  -2    3.11    0.39
   3 -10  -2    3.35    0.39
  -3 -10   2    3.41    0.43
  -3  10   1    0.43    0.26
   3  10  -1    0.31    0.21
  -3 -10   1    0.30    0.23
   3 -10  -1    0.36    0.22
   3  10   0   14.55    1.03
  -3  10   0   15.67    1.05
  -3 -10   0   15.87    1.04
   3 -10   0   14.66    1.02
  -3  10  -1    0.47    0.24
   3  10   1    0.50    0.24
   3 -10   1    0.25    0.22
  -3 -10  -1    0.39    0.23
  -3  10  -2    3.57    0.43
   3  10   2    3.52    0.47
  -3 -10  -2    3.78    0.45
   3 -10   2    4.04    0.40
   3  10   3    0.65    0.27
  -3 -10  -3    0.77    0.24
   3 -10   3    0.59    0.22
   3  10   4    6.09    0.58
  -3  10  -4    5.29    0.45
   3 -10   4    5.81    0.49
   4   0 -10    0.78    0.45
   4   0  -9    0.43    0.40
  -4   0   8    1.47    0.20
   4   0  -8    1.16    0.43
   4   0  -7    0.43    0.13
   4   0  -7    0.09    0.31
  -4   0   7    0.25    0.14
  -4   0   6    1.11    0.13
   4   0  -6    0.40    0.28
  -4   0   5    0.30    0.15
   4   0  -5    0.54    0.10
   4   0  -5   -0.17    0.22
  -4   0   5    0.26    0.08
  -4   0   4    0.55    0.09
  -4   0   4    0.98    0.19
   4   0  -4    0.50    0.06
   4   0  -4   -0.05    0.22
  -4   0   3    0.05    0.12
   4   0  -3    0.13    0.17
  -4   0   3    0.16    0.07
   4   0  -3    0.22    0.07
   4   0  -3    0.11    0.04
  -4   0   3    0.15    0.06
   4   0  -3    0.09    0.04
   4   0  -2    1.89    0.17
   4   0  -2    1.97    0.14
  -4   0   2    1.52    0.22
   4   0  -2    1.81    0.31
   4   0  -2    1.84    0.14
  -4   0   2    1.63    0.15
  -4   0   2    2.07    0.16
   4   0  -1    0.17    0.07
   4   0  -1    0.21    0.14
  -4   0   1    0.09    0.12
  -4   0   1    0.17    0.08
   4   0  -1    0.19    0.07
  -4   0   1    0.22    0.08
   4   0  -1    0.09    0.08
  -4   0   1    0.05    0.07
   4   0   0    4.14    0.31
   4   0   0    4.31    0.31
  -4   0   0    4.00    0.31
  -4   0   0    3.71    0.33
  -4   0   0    3.76    0.29
   4   0   0    4.89    0.35
  -4   0   0    3.45    0.31
  -4   0  -1    0.09    0.05
   4   0   1    0.00    0.05
   4   0   1    0.34    0.09
   4   0   1    0.07    0.07
  -4   0  -1    0.11    0.08
   4   0   1    0.18    0.09
  -4   0  -1    0.10    0.08
   4   0   1    0.18    0.06
   4   0   2    1.68    0.14
  -4   0  -2    1.78    0.14
  -4   0  -2    1.82    0.13
  -4   0  -2    1.67    0.15
   4   0   2    1.67    0.19
   4   0   3    0.15    0.09
   4   0   3    0.13    0.05
  -4   0  -3    0.16    0.06
  -4   0  -3    0.10    0.03
   4   0   4    0.71    0.11
   4   0   4    0.49    0.07
   4   0   5   -0.07    0.09
   4   0   5    0.29    0.06
   4   0   6    1.22    0.12
   4   0   6    1.28    0.14
   4   0   7    0.27    0.08
   4   1 -10    0.40    0.48
  -4   1   9    0.25    0.14
   4   1  -9   -0.09    0.42
   4   1  -8   -0.24    0.35
  -4   1   8    0.21    0.13
  -4  -1   8   -0.30    0.21
  -4   1   7    2.12    0.22
   4   1  -7    0.26    0.40
   4  -1  -7    1.92    0.20
  -4  -1   7    1.26    0.24
   4   1  -6    0.16    0.33
   4   1  -6   -0.28    0.13
  -4   1   6    0.02    0.06
  -4   1   6    0.31    0.11
  -4  -1   6    0.03    0.09
  -4  -1   6    0.18    0.14
   4  -1  -6    0.24    0.09
   4  -1  -6    0.31    0.24
   4   1  -5    1.65    0.23
  -4   1   5    2.42    0.22
  -4   1   5    1.77    0.16
   4   1  -5    1.94    0.45
  -4  -1   5    2.73    0.22
   4  -1  -5    1.26    0.29
   4  -1  -5    2.16    0.18
  -4  -1   5    2.19    0.20
   4   1  -4    0.28    0.29
  -4   1   4    0.46    0.11
   4   1  -4    0.17    0.12
   4   1  -4    0.27    0.05
  -4   1   4    0.19    0.05
  -4  -1   4    0.20    0.08
  -4  -1   4   -0.01    0.09
   4  -1  -4    0.22    0.05
   4  -1  -4    0.19    0.19
   4  -1  -4    0.33    0.07
   4  -1  -4    0.22    0.04
   4   1  -3    0.05    0.19
   4   1  -3    0.19    0.07
   4   1  -3    0.12    0.05
  -4   1   3    0.06    0.04
  -4   1   3    0.04    0.04
  -4   1   3    0.26    0.09
   4   1  -3   -0.13    0.11
   4  -1  -3    0.06    0.05
  -4  -1   3   -0.05    0.07
   4  -1  -3    0.06    0.04
  -4  -1   3    0.02    0.07
   4  -1  -3    0.14    0.06
   4  -1  -3    0.09    0.15
   4   1  -2    0.11    0.09
   4   1  -2    0.15    0.09
   4   1  -2    0.02    0.08
  -4   1   2    0.18    0.04
  -4   1   2    0.19    0.05
  -4   1   2    0.23    0.08
   4  -1  -2    0.24    0.05
  -4  -1   2    0.15    0.06
   4  -1  -2    0.19    0.04
   4  -1  -2    0.23    0.12
  -4  -1   2    0.15    0.07
   4  -1  -2    0.20    0.05
  -4   1   1    4.24    0.27
   4   1  -1    4.73    0.32
  -4   1   1    3.89    0.27
  -4   1   1    4.07    0.29
   4   1  -1    4.14    0.29
   4   1  -1    4.36    0.29
  -4  -1   1    3.94    0.28
  -4  -1   1    3.88    0.28
   4  -1  -1    3.87    0.27
   4  -1  -1    3.97    0.26
   4  -1  -1    4.00    0.27
   4   1   0    0.18    0.06
  -4   1   0    0.15    0.05
  -4   1   0    0.14    0.05
  -4   1   0    0.10    0.05
   4   1   0    0.08    0.05
  -4   1   0    0.16    0.05
  -4  -1   0    0.08    0.06
   4  -1   0    0.15    0.05
   4  -1   0    0.17    0.05
   4  -1   0    0.15    0.06
  -4  -1   0    0.16    0.05
   4  -1   0    0.28    0.06
  -4   1  -1    4.37    0.28
  -4   1  -1    3.99    0.30
   4   1   1    4.41    0.29
   4   1   1    4.04    0.28
  -4   1  -1    4.46    0.29
   4  -1   1    4.24    0.29
   4  -1   1    4.75    0.29
  -4  -1  -1    4.38    0.30
  -4  -1  -1    4.83    0.30
   4  -1   1    4.09    0.29
   4  -1   1    4.21    0.30
  -4  -1  -1    3.84    0.28
  -4   1  -2    0.22    0.07
   4   1   2    0.13    0.05
  -4   1  -2    0.22    0.04
   4   1   2    0.18    0.06
   4  -1   2    0.10    0.07
   4  -1   2    0.27    0.06
  -4  -1  -2    0.17    0.09
   4  -1   2    0.09    0.04
   4   1   3    0.09    0.05
  -4   1  -3    0.10    0.03
  -4   1  -3    0.06    0.09
   4   1   3    0.17    0.07
   4   1   3    0.09    0.06
  -4  -1  -3   -0.16    0.08
   4  -1   3    0.06    0.06
   4  -1   3    0.06    0.04
  -4   1  -4    0.09    0.12
   4   1   4    0.23    0.05
   4   1   4    0.30    0.07
   4  -1   4    0.20    0.05
   4  -1   4    0.19    0.07
  -4   1  -5    1.85    0.25
   4   1   5    1.90    0.15
   4   1   5    1.76    0.15
   4  -1   5    1.82    0.14
   4  -1   5    2.03    0.16
  -4   1  -6    0.10    0.15
   4   1   6    0.13    0.06
   4   1   6    0.24    0.06
   4  -1   6    0.10    0.06
  -4   1  -7    1.77    0.31
   4   1   7    1.43    0.15
   4   1   8    0.10    0.13
  -4   1  -8    0.16    0.20
   4   2 -10   -0.16    0.50
   4   2  -9   -0.35    0.41
  -4   2   9    0.11    0.14
   4  -2  -9    0.37    0.15
   4   2  -8    0.55    0.47
  -4   2   8    0.55    0.14
  -4  -2   8    0.92    0.21
   4  -2  -8    0.73    0.14
   4   2  -7    0.20    0.39
  -4   2   7    0.18    0.11
   4  -2  -7    0.13    0.11
  -4  -2   7    0.07    0.12
   4   2  -6    1.56    0.51
  -4   2   6    1.81    0.20
   4  -2  -6    1.76    0.19
  -4  -2   6    1.67    0.19
   4   2  -5    0.14    0.31
   4   2  -5    0.57    0.11
  -4   2   5    0.27    0.10
   4  -2  -5    0.33    0.09
   4  -2  -5    0.24    0.07
  -4  -2   5    0.30    0.09
  -4  -2   5    0.38    0.09
   4   2  -4    0.38    0.05
  -4   2   4    0.50    0.10
   4   2  -4    0.16    0.09
   4  -2  -4    0.39    0.06
   4  -2  -4    0.40    0.08
  -4  -2   4    0.32    0.08
   4  -2  -4    0.41    0.07
   4   2  -3    0.07    0.10
   4   2  -3    0.26    0.12
   4   2  -3    0.22    0.04
  -4   2   3    0.16    0.05
   4   2  -3    0.17    0.05
  -4   2   3    0.29    0.08
   4  -2  -3    0.21    0.06
  -4  -2   3    0.18    0.06
   4  -2  -3    0.14    0.05
   4  -2  -3    0.14    0.06
  -4   2   2    0.14    0.05
   4   2  -2    0.21    0.07
  -4   2   2    0.17    0.07
   4   2  -2    0.14    0.04
   4  -2  -2    0.13    0.05
   4  -2  -2    0.16    0.05
  -4  -2   2    0.17    0.06
   4  -2  -2    0.14    0.06
   4   2  -1    0.18    0.06
  -4   2   1    0.21    0.06
  -4   2   1    0.15    0.04
   4  -2  -1    0.12    0.04
  -4  -2   1    0.26    0.05
  -4  -2   1    0.27    0.06
   4  -2  -1    0.16    0.05
   4  -2  -1    0.17    0.05
  -4   2   0    1.63    0.13
   4   2   0    1.53    0.13
  -4   2   0    1.61    0.13
  -4   2   0    1.61    0.14
  -4  -2   0    1.61    0.13
  -4  -2   0    1.79    0.14
   4  -2   0    1.59    0.13
   4  -2   0    1.58    0.13
   4  -2   0    1.74    0.13
  -4   2  -1    0.14    0.05
  -4   2  -1    0.21    0.05
   4   2   1    0.25    0.06
  -4   2  -1    0.21    0.05
  -4  -2  -1    0.17    0.06
   4  -2   1    0.20    0.05
  -4  -2  -1    0.14    0.05
   4  -2   1    0.27    0.05
   4  -2   1    0.20    0.05
  -4   2  -2    0.29    0.06
   4   2   2    0.17    0.06
  -4   2  -2    0.14    0.05
  -4   2  -2    0.20    0.05
  -4  -2  -2    0.19    0.06
   4  -2   2    0.17    0.05
   4  -2   2    0.17    0.05
   4  -2   2    0.15    0.05
  -4  -2  -2    0.15    0.05
   4   2   3    0.27    0.06
   4   2   3    0.23    0.06
  -4   2  -3    0.16    0.04
  -4   2  -3    0.25    0.06
  -4   2  -3   -0.08    0.10
   4  -2   3    0.15    0.05
   4  -2   3    0.20    0.05
  -4  -2  -3    0.24    0.08
  -4  -2  -3    0.20    0.06
  -4   2  -4    0.46    0.08
   4   2   4    0.46    0.08
   4   2   4    0.50    0.07
   4  -2   4    0.40    0.06
  -4  -2  -4    0.43    0.08
   4  -2   4    0.35    0.06
  -4  -2  -4    0.62    0.12
   4   2   5    0.27    0.08
   4   2   5    0.34    0.07
  -4  -2  -5    0.34    0.08
   4  -2   5    0.33    0.05
   4  -2   5    0.19    0.06
   4   2   6    1.70    0.16
  -4   2  -6    1.39    0.32
   4  -2   6    1.49    0.18
   4  -2   6    1.50    0.13
  -4  -2  -6    1.57    0.17
   4   2   7    0.13    0.09
  -4   2  -7    0.03    0.21
   4  -2   7    0.04    0.05
   4   2   8    0.53    0.12
  -4   2  -8    0.68    0.27
   4   3 -10   -0.60    0.50
   4  -3 -10    0.25    0.18
   4   3  -9    0.79    0.53
  -4   3   9    0.25    0.15
   4  -3  -9    0.44    0.17
   4   3  -8    0.49    0.50
  -4   3   8    0.03    0.14
  -4  -3   8    0.03    0.13
   4  -3  -8    0.02    0.14
  -4   3   7    0.71    0.15
   4   3  -7    0.64    0.49
   4  -3  -7    0.82    0.14
  -4  -3   7    0.81    0.14
  -4   3   6    0.18    0.11
   4   3  -6    0.17    0.08
   4  -3  -6    0.23    0.08
   4  -3  -6    0.10    0.11
  -4  -3   6    0.16    0.10
   4   3  -5    0.57    0.12
   4   3  -5    0.85    0.11
  -4   3   5    0.99    0.14
   4  -3  -5    0.98    0.11
   4  -3  -5    0.94    0.13
   4  -3  -5    1.03    0.13
  -4  -3   5    0.94    0.12
   4   3  -4    0.09    0.12
   4   3  -4    0.00    0.04
  -4   3   4    0.14    0.09
   4   3  -4    0.07    0.11
   4   3  -4    0.05    0.06
   4  -3  -4    0.05    0.06
   4  -3  -4    0.07    0.07
  -4  -3   4   -0.04    0.07
   4  -3  -4    0.01    0.08
  -4   3   3    0.43    0.07
   4   3  -3    0.72    0.08
  -4   3   3    0.54    0.10
   4   3  -3    0.52    0.10
   4   3  -3    0.53    0.07
  -4  -3   3    0.65    0.10
   4  -3  -3    0.48    0.09
   4  -3  -3    0.50    0.07
   4  -3  -3    0.46    0.09
   4   3  -2    0.20    0.07
   4   3  -2    0.19    0.06
   4   3  -2    0.15    0.04
  -4   3   2    0.25    0.06
  -4   3   2    0.18    0.08
   4  -3  -2    0.15    0.07
   4  -3  -2    0.14    0.07
  -4  -3   2    0.19    0.07
   4  -3  -2    0.19    0.06
   4   3  -1    0.00    0.02
  -4   3   1    0.05    0.04
   4   3  -1    0.05    0.04
  -4   3   1    0.03    0.07
   4   3  -1    0.08    0.07
   4  -3  -1    0.08    0.06
  -4  -3   1    0.07    0.07
   4  -3  -1    0.03    0.06
  -4  -3   1    0.08    0.05
   4  -3  -1    0.06    0.05
  -4   3   0    0.07    0.05
  -4   3   0    0.08    0.05
   4   3   0    0.12    0.06
  -4   3   0    0.16    0.07
   4   3   0    0.11    0.04
   4  -3   0    0.09    0.05
   4  -3   0    0.11    0.06
  -4  -3   0    0.14    0.06
   4  -3   0    0.15    0.05
  -4  -3   0    0.12    0.06
  -4   3  -1    0.11    0.06
  -4   3  -1    0.09    0.05
  -4   3  -1    0.05    0.05
   4   3   1    0.04    0.07
   4  -3   1    0.11    0.06
   4  -3   1   -0.01    0.05
  -4  -3  -1    0.05    0.05
  -4  -3  -1   -0.01    0.06
   4  -3   1    0.12    0.05
  -4   3  -2    0.15    0.06
   4   3   2    0.21    0.08
  -4   3  -2    0.19    0.06
  -4   3  -2    0.14    0.05
  -4  -3  -2    0.17    0.07
   4  -3   2    0.14    0.06
   4  -3   2    0.14    0.04
  -4  -3  -2    0.19    0.07
  -4   3  -3    0.70    0.09
  -4   3  -3    0.61    0.08
  -4   3  -3    0.67    0.08
   4   3   3    0.37    0.09
  -4  -3  -3    0.51    0.09
   4  -3   3    0.63    0.08
  -4  -3  -3    0.81    0.10
  -4   3  -4    0.04    0.04
   4   3   4    0.09    0.08
  -4   3  -4    0.03    0.06
  -4  -3  -4    0.04    0.08
  -4  -3  -4    0.01    0.07
   4  -3   4   -0.04    0.06
   4  -3   4    0.03    0.05
   4   3   5    0.93    0.13
  -4   3  -5    1.11    0.13
  -4  -3  -5    0.76    0.12
   4  -3   5    0.90    0.10
   4  -3   5    0.92    0.11
  -4  -3  -5    0.89    0.15
   4   3   6    0.14    0.10
  -4   3  -6    0.22    0.08
  -4  -3  -6    0.14    0.09
   4  -3   6    0.07    0.06
   4   3   7    0.72    0.13
  -4   3  -7    0.67    0.35
   4  -3   7    0.81    0.09
  -4  -3  -7    0.76    0.13
   4   3   8    0.09    0.12
  -4   3  -8   -0.01    0.30
  -4  -3  -8    0.04    0.12
  -4  -3  -9    0.22    0.14
   4   4 -10    0.81    0.62
   4  -4 -10    0.01    0.20
  -4   4   9   -0.03    0.17
   4   4  -9    0.55    0.57
   4  -4  -9    0.03    0.18
   4   4  -8    0.63    0.58
  -4   4   8    0.24    0.17
   4  -4  -8    0.39    0.17
  -4  -4   8    0.42    0.15
  -4   4   7    0.25    0.14
   4   4  -7    0.24    0.10
  -4  -4   7    0.29    0.12
   4  -4  -7    0.20    0.14
  -4   4   6    0.60    0.15
   4   4  -6    0.68    0.11
  -4  -4   6    0.76    0.13
   4  -4  -6    0.69    0.15
  -4   4   5    0.01    0.12
   4   4  -5    0.04    0.07
   4   4  -5   -0.10    0.13
   4   4  -5    0.00    0.05
   4   4  -5    0.30    0.12
   4  -4  -5   -0.04    0.11
  -4  -4   5   -0.10    0.09
   4  -4  -5   -0.01    0.09
   4  -4  -5    0.12    0.07
   4   4  -4    1.22    0.15
   4   4  -4    1.46    0.16
  -4   4   4    1.06    0.16
   4   4  -4    1.26    0.12
   4  -4  -4    1.34    0.15
  -4  -4   4    1.08    0.14
   4  -4  -4    1.05    0.15
   4  -4  -4    1.24    0.16
   4   4  -3    0.03    0.06
  -4   4   3    0.03    0.07
   4   4  -3    0.00    0.06
  -4   4   3    0.07    0.09
   4   4  -3    0.06    0.08
  -4  -4   3    0.03    0.08
   4  -4  -3    0.04    0.08
   4  -4  -3   -0.02    0.09
   4  -4  -3    0.04    0.07
   4   4  -2    0.29    0.06
   4   4  -2    0.43    0.09
  -4   4   2    0.51    0.11
  -4   4   2    0.37    0.08
   4   4  -2    0.41    0.07
   4  -4  -2    0.38    0.09
   4  -4  -2    0.42    0.08
   4  -4  -2    0.45    0.09
  -4  -4   2    0.41    0.09
   4   4  -1    0.25    0.08
   4   4  -1    0.15    0.05
   4   4  -1    0.16    0.06
  -4   4   1    0.23    0.09
  -4  -4   1    0.19    0.08
   4  -4  -1    0.28    0.08
   4  -4  -1    0.22    0.07
  -4  -4   1    0.22    0.07
   4  -4  -1    0.22    0.08
  -4   4   0    0.43    0.08
   4   4   0    0.50    0.10
  -4   4   0    0.54    0.10
   4   4   0    0.38    0.07
   4   4   0    0.41    0.08
  -4   4   0    0.48    0.08
  -4  -4   0    0.35    0.10
   4  -4   0    0.56    0.09
  -4  -4   0    0.49    0.08
   4  -4   0    0.49    0.09
   4  -4   0    0.53    0.08
   4   4   1    0.15    0.05
  -4   4  -1    0.15    0.07
  -4   4  -1    0.17    0.08
  -4   4  -1    0.13    0.06
   4   4   1    0.22    0.09
   4  -4   1    0.16    0.07
   4  -4   1    0.10    0.07
  -4  -4  -1    0.29    0.09
   4  -4   1    0.27    0.06
  -4  -4  -1    0.18    0.07
  -4   4  -2    0.44    0.09
  -4   4  -2    0.39    0.07
  -4   4  -2    0.43    0.08
   4   4   2    0.35    0.09
   4   4   2    0.32    0.06
   4  -4   2    0.28    0.08
  -4  -4  -2    0.33    0.08
   4  -4   2    0.42    0.07
  -4  -4  -2    0.37    0.10
  -4   4  -3    0.12    0.06
  -4   4  -3    0.05    0.06
  -4   4  -3    0.01    0.06
   4   4   3   -0.01    0.05
   4   4   3    0.06    0.09
  -4  -4  -3   -0.03    0.08
   4  -4   3   -0.01    0.06
  -4  -4  -3    0.04    0.08
   4   4   4    0.96    0.15
  -4   4  -4    1.45    0.15
  -4   4  -4    1.17    0.13
  -4   4  -4    1.32    0.15
   4  -4   4    1.21    0.14
  -4  -4  -4    1.13    0.14
  -4  -4  -4    1.08    0.14
   4   4   5   -0.02    0.11
  -4   4  -5   -0.10    0.05
  -4   4  -5   -0.01    0.07
  -4  -4  -5    0.01    0.10
  -4  -4  -5    0.01    0.10
   4  -4   5   -0.02    0.07
  -4   4  -6    0.83    0.11
   4   4   6    0.74    0.15
   4  -4   6    0.68    0.10
  -4  -4  -6    0.61    0.13
   4   4   7    0.25    0.14
  -4   4  -7    0.29    0.09
  -4  -4  -7    0.08    0.13
   4  -4   7    0.30    0.09
   4   4   8    0.18    0.15
  -4   4  -8    0.63    0.43
  -4  -4  -8    0.38    0.15
   4  -4   8    0.34    0.09
   4   4   9   -0.03    0.15
  -4  -4  -9    0.00    0.16
  -4  -4 -10   -0.11    0.16
   4   5  -9    0.80    0.66
  -4   5   9    0.01    0.20
  -4  -5   9    0.11    0.18
   4  -5  -9   -0.16    0.19
   4   5  -8    0.09    0.11
   4   5  -8    0.12    0.57
  -4   5   8   -0.09    0.18
  -4  -5   8    0.15    0.14
   4  -5  -8    0.05    0.17
  -4   5   7    0.34    0.18
   4   5  -7    0.36    0.11
   4  -5  -7    0.37    0.17
  -4  -5   7    0.33    0.14
  -4   5   6    0.07    0.15
   4   5  -6    0.00    0.09
   4  -5  -6    0.08    0.14
  -4  -5   6    0.01    0.12
   4   5  -5    0.87    0.09
   4   5  -5    1.05    0.15
  -4   5   5    0.53    0.16
   4   5  -5    0.78    0.12
   4  -5  -5    0.68    0.14
   4  -5  -5    0.66    0.11
  -4  -5   5    0.73    0.14
   4  -5  -5    0.57    0.15
  -4   5   4    0.03    0.12
   4   5  -4   -0.02    0.10
   4   5  -4    0.06    0.07
   4   5  -4    0.03    0.07
   4  -5  -4    0.01    0.08
   4  -5  -4    0.00    0.10
  -4  -5   4   -0.02    0.10
   4  -5  -4   -0.02    0.12
   4   5  -3    0.82    0.14
   4   5  -3    0.82    0.10
  -4   5   3    0.94    0.14
  -4   5   3    0.76    0.15
   4   5  -3    1.18    0.14
  -4  -5   3    1.06    0.15
   4  -5  -3    0.84    0.12
   4  -5  -3    0.73    0.14
   4  -5  -3    0.88    0.15
   4   5  -2    0.28    0.10
  -4   5   2    0.21    0.06
   4   5  -2    0.22    0.07
  -4   5   2    0.30    0.12
   4   5  -2    0.36    0.08
   4  -5  -2    0.31    0.10
   4  -5  -2    0.29    0.09
  -4  -5   2    0.24    0.10
   4  -5  -2    0.28    0.11
  -4   5   1    1.74    0.20
   4   5  -1    1.68    0.19
   4   5  -1    1.97    0.17
  -4   5   1    1.87    0.18
  -4  -5   1    2.02    0.20
  -4  -5   1    1.75    0.18
   4  -5  -1    1.65    0.19
   4  -5  -1    2.00    0.20
   4  -5  -1    1.79    0.17
   4   5   0    0.24    0.10
  -4   5   0    0.26    0.08
  -4   5   0    0.26    0.07
   4   5   0    0.21    0.07
  -4   5   0    0.21    0.11
  -4  -5   0    0.16    0.07
   4  -5   0    0.26    0.08
  -4  -5   0    0.21    0.10
   4  -5   0    0.25    0.09
   4  -5   0    0.23    0.09
  -4   5  -1    1.76    0.17
   4   5   1    1.66    0.16
  -4   5  -1    1.75    0.19
   4   5   1    1.86    0.20
   4  -5   1    1.93    0.19
   4  -5   1    2.06    0.17
  -4  -5  -1    1.94    0.18
  -4  -5  -1    1.44    0.18
   4  -5   1    1.80    0.18
   4   5   2    0.16    0.11
  -4   5  -2    0.34    0.08
  -4   5  -2    0.21    0.08
  -4   5  -2    0.38    0.10
   4   5   2    0.27    0.08
  -4  -5  -2    0.29    0.12
   4  -5   2    0.29    0.09
  -4  -5  -2    0.20    0.10
   4   5   3    0.68    0.12
  -4   5  -3    0.90    0.13
  -4   5  -3    0.98    0.12
  -4   5  -3    1.11    0.13
   4   5   3    0.90    0.15
   4  -5   3    1.10    0.13
  -4  -5  -3    0.72    0.13
  -4  -5  -3    0.85    0.14
  -4   5  -4    0.02    0.08
  -4   5  -4    0.14    0.09
  -4   5  -4    0.02    0.08
   4   5   4    0.05    0.13
   4  -5   4    0.01    0.08
  -4  -5  -4   -0.07    0.11
  -4  -5  -4    0.05    0.11
   4   5   5    0.58    0.16
  -4   5  -5    0.95    0.13
  -4  -5  -5    0.63    0.14
   4  -5   5    0.79    0.12
  -4  -5  -5    0.57    0.14
  -4   5  -6    0.05    0.09
   4   5   6   -0.06    0.15
   4  -5   6    0.07    0.09
  -4  -5  -6    0.05    0.13
  -4   5  -7    0.61    0.12
   4   5   7    0.15    0.17
  -4  -5  -7    0.34    0.16
   4  -5   7    0.34    0.11
   4   5   8    0.00    0.16
  -4   5  -8    0.04    0.11
  -4  -5  -8   -0.10    0.16
   4  -5   8    0.07    0.10
  -4   5  -9    0.12    0.12
   4   5   9    0.14    0.19
  -4  -5  -9   -0.04    0.18
   4   6  -9    0.78    0.69
  -4   6   8    0.15    0.21
  -4  -6   8    0.14    0.16
   4  -6  -8    0.02    0.19
  -4   6   7   -0.08    0.19
  -4  -6   7    0.08    0.14
   4  -6  -7   -0.05    0.18
  -4   6   6    0.19    0.18
   4   6  -6    0.50    0.17
   4   6  -6    0.32    0.08
  -4  -6   6    0.19    0.15
   4  -6  -6    0.33    0.18
  -4   6   5    0.19    0.17
   4   6  -5    0.04    0.07
  -4  -6   5   -0.07    0.12
   4  -6  -5    0.04    0.10
   4  -6  -5    0.13    0.13
   4  -6  -5    0.01    0.15
   4   6  -4    0.75    0.15
  -4   6   4    0.61    0.18
   4   6  -4    0.68    0.10
  -4  -6   4    0.71    0.15
   4  -6  -4    0.68    0.13
   4  -6  -4    0.54    0.15
   4  -6  -4    0.76    0.17
  -4   6   3    0.15    0.14
   4   6  -3    0.07    0.11
   4   6  -3    0.06    0.07
   4  -6  -3    0.03    0.13
  -4  -6   3    0.07    0.12
   4  -6  -3    0.13    0.10
   4  -6  -3    0.11    0.13
   4   6  -2    1.83    0.21
   4   6  -2    1.58    0.17
  -4   6   2    1.16    0.15
  -4   6   2    1.74    0.21
   4  -6  -2    1.46    0.16
   4  -6  -2    1.72    0.19
   4  -6  -2    1.63    0.21
  -4  -6   2    1.47    0.19
  -4   6   1    0.06    0.09
  -4   6   1    0.18    0.13
   4   6  -1    0.14    0.11
   4   6  -1    0.05    0.08
  -4  -6   1    0.13    0.12
   4  -6  -1    0.11    0.08
   4  -6  -1    0.15    0.11
   4  -6  -1    0.05    0.11
  -4   6   0    1.11    0.17
   4   6   0    1.13    0.17
  -4   6   0    1.09    0.14
  -4  -6   0    0.84    0.13
  -4  -6   0    1.12    0.17
   4  -6   0    1.18    0.14
   4  -6   0    1.15    0.15
   4  -6   0    1.12    0.14
   4   6   1    0.21    0.13
  -4   6  -1    0.19    0.12
  -4   6  -1    0.19    0.08
  -4   6  -1    0.18    0.09
  -4  -6  -1    0.05    0.12
  -4  -6  -1    0.05    0.10
   4  -6   1    0.14    0.08
   4  -6   1    0.25    0.11
  -4   6  -2    1.81    0.21
   4   6   2    1.41    0.18
  -4   6  -2    1.33    0.17
   4   6   2    1.63    0.20
  -4   6  -2    1.69    0.20
  -4  -6  -2    1.79    0.22
  -4  -6  -2    1.67    0.20
   4  -6   2    1.85    0.20
  -4   6  -3    0.11    0.08
  -4   6  -3    0.12    0.10
  -4   6  -3    0.11    0.11
   4   6   3    0.26    0.14
  -4  -6  -3    0.12    0.13
   4  -6   3    0.15    0.11
  -4  -6  -3    0.10    0.12
  -4   6  -4    0.62    0.11
  -4   6  -4    0.80    0.13
   4   6   4    0.83    0.18
  -4   6  -4    0.75    0.13
   4  -6   4    0.76    0.14
  -4  -6  -4    0.73    0.16
  -4  -6  -4    0.71    0.16
  -4   6  -5    0.09    0.10
   4   6   5   -0.06    0.16
  -4   6  -5    0.23    0.11
   4  -6   5   -0.02    0.10
  -4  -6  -5    0.10    0.14
  -4  -6  -5   -0.07    0.14
   4   6   6    0.20    0.19
  -4   6  -6    0.38    0.12
   4  -6   6    0.25    0.12
  -4  -6  -6    0.37    0.17
  -4   6  -7    0.02    0.12
   4   6   7   -0.12    0.18
   4  -6   7    0.01    0.11
  -4  -6  -7    0.00    0.17
   4   6   8    0.02    0.19
  -4   6  -8    0.18    0.12
   4  -6   8    0.20    0.12
  -4  -6  -8    0.02    0.19
  -4   7   8    0.07    0.23
   4  -7  -8   -0.26    0.22
  -4  -7   8    0.11    0.17
  -4   7   7    0.16    0.23
   4  -7  -7   -0.21    0.20
  -4  -7   7    0.31    0.17
   4   7  -6    0.26    0.20
   4   7  -6    0.00    0.08
  -4   7   6    0.02    0.20
   4  -7  -6    0.01    0.19
  -4  -7   6   -0.06    0.15
   4   7  -5    0.25    0.09
  -4   7   5    0.46    0.21
   4  -7  -5    0.42    0.19
  -4  -7   5    0.18    0.16
   4  -7  -5    0.41    0.17
   4  -7  -5    0.33    0.13
  -4   7   4    0.29    0.18
   4   7  -4    0.27    0.10
   4   7  -4    0.32    0.14
   4  -7  -4    0.09    0.16
  -4  -7   4    0.21    0.15
   4  -7  -4    0.33    0.12
   4  -7  -4    0.22    0.17
   4   7  -3    0.84    0.13
   4   7  -3    0.87    0.16
  -4   7   3    0.77    0.20
   4  -7  -3    0.83    0.18
   4  -7  -3    0.55    0.18
   4  -7  -3    0.69    0.14
  -4  -7   3    0.86    0.17
   4   7  -2    0.04    0.08
   4   7  -2    0.00    0.13
  -4   7   2    0.21    0.16
   4  -7  -2    0.05    0.14
  -4  -7   2    0.06    0.14
   4   7  -1    1.26    0.20
   4   7  -1    1.66    0.18
  -4   7   1    1.27    0.21
   4  -7  -1    1.43    0.20
  -4  -7   1    1.47    0.20
   4   7   0    0.25    0.15
   4   7   0    0.12    0.10
  -4   7   0    0.32    0.15
  -4   7   0    0.18    0.11
   4  -7   0    0.27    0.14
  -4  -7   0    0.01    0.14
  -4   7  -1    1.44    0.20
   4   7   1    1.32    0.21
  -4   7  -1    1.35    0.17
   4  -7   1    1.38    0.19
  -4  -7  -1    1.48    0.21
   4   7   2    0.04    0.15
  -4   7  -2    0.19    0.13
  -4   7  -2   -0.01    0.11
   4  -7   2    0.02    0.13
  -4  -7  -2    0.09    0.15
  -4  -7  -2    0.01    0.13
   4   7   3    0.78    0.19
  -4   7  -3    0.98    0.14
  -4   7  -3    1.01    0.16
  -4  -7  -3    1.01    0.19
  -4  -7  -3    0.64    0.17
   4  -7   3    1.04    0.17
  -4   7  -4    0.25    0.11
   4   7   4    0.31    0.19
  -4   7  -4    0.16    0.13
  -4  -7  -4    0.30    0.17
  -4  -7  -4    0.15    0.17
   4  -7   4    0.25    0.14
  -4   7  -5    0.34    0.13
   4   7   5    0.32    0.20
   4  -7   5    0.34    0.14
  -4  -7  -5    0.14    0.18
   4   7   6    0.15    0.20
  -4  -7  -6   -0.14    0.18
   4  -7   6   -0.01    0.13
   4   7   7   -0.14    0.20
  -4  -7  -7   -0.04    0.20
   4  -7   7    0.12    0.14
   4   7   8   -0.04    0.22
   4  -7   8   -0.08    0.14
  -4  -7  -8   -0.24    0.22
  -4   8   7    0.05    0.25
  -4  -8   7    0.08    0.18
   4   8  -6   -0.02    0.10
  -4   8   6    0.07    0.23
  -4  -8   6    0.04    0.18
   4   8  -5   -0.04    0.09
  -4   8   5    0.03    0.21
  -4  -8   5   -0.07    0.17
   4  -8  -5    0.34    0.23
   4   8  -4    0.34    0.12
  -4   8   4    0.00    0.21
   4   8  -4    0.37    0.20
  -4  -8   4    0.09    0.18
   4  -8  -4    0.36    0.19
   4   8  -3    0.03    0.15
   4   8  -3    0.08    0.11
  -4   8   3    0.02    0.20
  -4  -8   3   -0.06    0.16
   4  -8  -3    0.05    0.16
   4   8  -2    0.55    0.18
  -4   8   2    0.53    0.20
   4   8  -2    0.39    0.13
   4  -8  -2    0.71    0.19
  -4  -8   2    0.36    0.18
  -4   8   1    0.06    0.18
   4   8  -1   -0.06    0.16
  -4  -8   1    0.03    0.16
   4  -8  -1    0.12    0.16
  -4   8   0    1.24    0.22
   4   8   0    1.13    0.22
   4  -8   0    0.95    0.19
  -4  -8   0    0.86    0.20
   4   8   1    0.25    0.18
  -4   8  -1    0.11    0.16
  -4  -8  -1   -0.05    0.17
   4  -8   1    0.14    0.16
  -4   8  -2    0.56    0.15
  -4   8  -2    0.78    0.18
   4   8   2    0.48    0.20
   4  -8   2    0.78    0.18
  -4  -8  -2    0.27    0.19
  -4   8  -3    0.11    0.15
  -4   8  -3   -0.06    0.11
   4   8   3    0.05    0.18
   4  -8   3    0.04    0.15
  -4  -8  -3    0.10    0.19
   4   8   4    0.25    0.22
  -4   8  -4    0.29    0.13
  -4  -8  -4    0.25    0.19
   4  -8   4    0.37    0.16
  -4   8  -5    0.07    0.13
   4   8   5    0.08    0.20
   4  -8   5    0.02    0.15
   4   8   6    0.22    0.22
   4  -8   6    0.19    0.16
  -4  -8  -6    0.15    0.22
   4   8   7   -0.22    0.24
  -4  -8  -7   -0.25    0.24
   4  -8   7    0.03    0.15
   4   9  -5    0.00    0.12
  -4   9   5    0.16    0.25
  -4  -9   5    0.20    0.19
  -4   9   4    0.05    0.25
   4   9  -4   -0.09    0.11
  -4  -9   4    0.06    0.19
   4  -9  -4    0.29    0.19
  -4   9   3    0.29    0.24
   4   9  -3    0.25    0.18
  -4  -9   3    0.16    0.20
   4  -9  -3    0.37    0.22
   4   9  -2    0.18    0.18
  -4   9   2    0.17    0.22
  -4  -9   2   -0.03    0.19
   4  -9  -2    0.18    0.18
  -4   9   1    0.52    0.22
   4   9  -1    0.27    0.20
   4  -9  -1    0.44    0.20
  -4  -9   1    0.23    0.21
  -4   9   0    0.09    0.20
   4   9   0   -0.10    0.19
   4  -9   0    0.08    0.18
  -4  -9   0   -0.01    0.19
   4   9   1    0.35    0.22
  -4   9  -1    0.35    0.21
  -4  -9  -1    0.40    0.21
   4  -9   1    0.28    0.19
  -4   9  -2    0.07    0.19
   4   9   2    0.09    0.22
   4  -9   2    0.06    0.17
  -4  -9  -2    0.24    0.21
  -4   9  -3    0.19    0.17
  -4   9  -3    0.44    0.19
   4   9   3    0.12    0.23
   4  -9   3    0.34    0.18
  -4  -9  -3    0.41    0.23
   4   9   4    0.17    0.24
  -4   9  -4   -0.10    0.13
   4  -9   4   -0.04    0.18
  -4  -9  -4    0.35    0.21
  -4   9  -5   -0.01    0.14
   4   9   5    0.18    0.24
   4  -9   5    0.07    0.17
  -4  10   4    0.01    0.26
  -4 -10   4    0.10    0.21
   4 -10  -4   -0.15    0.24
  -4  10   3    0.00    0.27
  -4 -10   3   -0.04    0.21
   4 -10  -3    0.28    0.22
  -4  10   2   -0.05    0.24
   4  10  -2    0.34    0.22
   4 -10  -2    0.18    0.22
  -4 -10   2    0.32    0.23
   4  10  -1    0.12    0.21
  -4  10   1    0.27    0.25
   4 -10  -1   -0.03    0.21
  -4 -10   1    0.03    0.22
   4  10   0    0.20    0.23
  -4  10   0    0.24    0.24
  -4 -10   0    0.34    0.23
   4 -10   0    0.30    0.21
   4  10   1   -0.10    0.22
  -4  10  -1   -0.05    0.23
   4 -10   1   -0.09    0.20
  -4 -10  -1    0.20    0.23
   4  10   2    0.24    0.26
  -4  10  -2    0.28    0.22
  -4 -10  -2    0.31    0.24
   4 -10   2    0.20    0.21
   4  10   3    0.12    0.25
   4 -10   3    0.06    0.20
  -4 -10  -3    0.28    0.24
   4  10   4    0.23    0.28
  -4  10  -4   -0.10    0.15
   5   0 -10   12.13    1.21
  -5   0   9    0.29    0.16
   5   0  -9    0.10    0.40
   5   0  -8    7.91    0.88
   5   0  -8    6.15    0.55
   5   0  -7   -0.23    0.32
   5   0  -7    0.20    0.14
  -5   0   7   -0.33    0.16
   5   0  -6   28.41    2.29
  -5   0   6   38.53    2.13
   5   0  -5    0.05    0.05
  -5   0   5   -0.13    0.15
   5   0  -5    0.35    0.11
   5   0  -5   -0.12    0.23
   5   0  -4  182.51   12.40
   5   0  -4  222.53   12.22
   5   0  -4  216.02   12.23
   5   0  -4  205.68   12.21
  -5   0   4  185.50   12.28
  -5   0   3    0.10    0.15
   5   0  -3    0.08    0.09
   5   0  -3    0.02    0.06
   5   0  -3    0.05    0.17
   5   0  -3    0.02    0.04
  -5   0   3    0.09    0.08
   5   0  -2   96.16    6.03
   5   0  -2  102.32    6.16
   5   0  -2  102.45    6.01
  -5   0   2   97.11    6.03
   5   0  -2   99.40    6.01
   5   0  -1   -0.06    0.07
   5   0  -1    0.09    0.12
  -5   0   1    0.00    0.12
   5   0  -1   -0.04    0.08
   5   0  -1    0.12    0.10
  -5   0   1   -0.03    0.09
  -5   0   0  828.46   52.47
   5   0   0 1000.00   52.85
  -5   0   0  871.76   52.49
  -5   0   0  740.48   52.54
   5   0   0  907.03   52.48
   5   0   0  851.65   52.49
   5   0   0  883.97   52.50
   5   0   1   -0.03    0.07
   5   0   1    0.19    0.09
  -5   0  -1   -0.16    0.09
   5   0   1    0.19    0.09
  -5   0  -1   -0.03    0.10
   5   0   1   -0.16    0.09
   5   0   1    0.01    0.05
  -5   0  -2   93.53    5.89
   5   0   2   98.44    5.89
  -5   0  -2  100.09    5.90
  -5   0  -3    0.04    0.04
   5   0   3   -0.07    0.07
   5   0   3    0.20    0.09
  -5   0  -3   -0.05    0.07
  -5   0  -4  216.09   13.11
   5   0   4  211.63   13.15
   5   0   4  224.76   13.11
   5   0   5    0.13    0.07
   5   0   5    0.09    0.10
   5   0   6   60.76    3.58
   5   0   6   57.36    3.59
   5   0   7    0.20    0.11
   5   1 -10    0.12    0.50
  -5   1   9   12.34    0.81
   5  -1  -9   12.33    0.85
  -5   1   8    3.24    0.31
  -5  -1   8    2.58    0.37
   5  -1  -8    3.56    0.33
   5   1  -7   32.95    2.60
   5  -1  -7   42.11    2.31
   5  -1  -7   36.99    2.55
   5   1  -6   12.77    1.13
  -5   1   6   13.62    0.84
   5   1  -6   11.07    0.84
   5  -1  -6   13.72    0.81
   5  -1  -6   10.39    1.01
  -5  -1   6   13.72    0.88
   5   1  -5   68.41    4.42
   5   1  -5   62.38    4.18
   5   1  -5   73.34    4.13
  -5   1   5   70.00    4.18
   5  -1  -5   68.17    4.13
  -5  -1   5   70.51    4.18
   5  -1  -5   67.61    4.15
  -5  -1   5   66.31    4.17
  -5   1   4   22.15    1.56
   5   1  -4   23.49    1.80
   5   1  -4   25.43    1.51
   5   1  -4   24.43    1.57
   5   1  -4   27.03    1.52
   5  -1  -4   24.13    1.51
   5  -1  -4   23.81    1.52
   5  -1  -4   23.26    1.51
  -5  -1   4   28.00    1.55
  -5  -1   4   26.37    1.54
   5   1  -3  205.42   13.22
   5   1  -3  239.14   13.19
   5   1  -3  188.36   13.39
  -5   1   3  213.49   13.22
   5   1  -3  197.89   13.19
  -5   1   3  249.60   13.19
   5  -1  -3  234.43   13.21
   5  -1  -3  198.62   13.31
   5  -1  -3  233.06   13.20
   5  -1  -3  226.32   13.19
  -5   1   2   14.09    0.94
   5   1  -2   14.72    0.94
   5   1  -2   15.23    0.94
  -5   1   2   15.13    0.91
   5  -1  -2   14.97    0.90
   5  -1  -2   12.13    1.00
   5  -1  -2   13.72    0.90
  -5  -1   2   16.58    0.93
   5  -1  -2   14.81    0.91
  -5  -1   2   15.37    0.91
  -5   1   1  299.20   16.89
   5   1  -1  267.00   16.77
  -5   1   1  298.96   16.79
   5   1  -1  248.36   16.77
   5   1  -1  267.32   16.78
   5  -1  -1  290.09   16.80
  -5  -1   1  309.45   16.91
   5  -1  -1  277.50   16.79
   5  -1  -1  280.66   16.82
   5  -1  -1  243.29   17.04
  -5   1   0    0.02    0.06
  -5   1   0    0.05    0.06
  -5   1   0    0.06    0.05
   5   1   0    0.04    0.06
   5   1   0   -0.03    0.06
  -5  -1   0    0.06    0.07
   5  -1   0    0.05    0.07
   5  -1   0    0.05    0.05
  -5  -1   0    0.00    0.07
  -5  -1   0    0.07    0.07
   5  -1   0    0.10    0.06
   5   1   1  289.66   16.19
  -5   1  -1  270.62   16.25
  -5   1  -1  258.07   16.16
  -5   1  -1  227.52   16.15
  -5   1  -1  274.46   16.26
   5  -1   1  261.34   16.15
   5  -1   1  280.29   16.16
   5  -1   1  264.40   16.20
  -5  -1  -1  270.30   16.17
  -5  -1  -1  280.97   16.16
  -5   1  -2   16.02    0.91
   5   1   2   15.02    0.91
   5  -1   2   14.56    0.92
   5  -1   2   13.24    0.92
  -5  -1  -2   15.16    0.92
  -5   1  -3  248.97   14.00
   5   1   3  218.28   14.08
   5   1   3  236.53   13.99
   5  -1   3  255.26   14.02
   5  -1   3  200.71   13.98
  -5   1  -4   26.83    1.53
   5   1   4   25.15    1.50
  -5  -1  -4   21.75    1.49
   5  -1   4   24.43    1.50
  -5   1  -5   69.64    4.19
   5   1   5   64.68    4.14
   5   1   5   70.94    4.15
   5  -1   5   68.73    4.15
   5   1   6   13.55    0.82
  -5   1  -6   14.77    0.90
   5  -1   6   12.30    0.84
   5  -1   6   12.54    0.82
   5   1   7   43.06    2.68
  -5   1  -7   44.66    2.76
   5  -1   7   45.06    2.68
   5   1   8    2.72    0.23
  -5   2   9    0.57    0.17
   5   2  -9    0.26    0.48
  -5  -2   9    0.54    0.46
   5  -2  -9    0.92    0.19
  -5   2   8   25.28    1.59
   5   2  -8   24.53    1.99
  -5  -2   8   26.12    1.66
   5  -2  -8   25.88    1.59
  -5   2   7    0.72    0.15
   5   2  -7    1.00    0.49
  -5  -2   7    0.79    0.17
   5  -2  -7    0.66    0.14
  -5  -2   7    0.81    0.19
  -5   2   6   52.87    3.06
   5   2  -6   51.56    3.06
   5   2  -6   46.51    3.40
  -5  -2   6   47.70    3.05
   5  -2  -6   49.19    3.04
   5  -2  -6   51.42    3.02
   5   2  -5   -0.13    0.28
   5   2  -5    0.15    0.11
   5   2  -5    0.05    0.06
  -5   2   5    0.14    0.11
   5  -2  -5   -0.01    0.06
  -5  -2   5    0.03    0.09
   5  -2  -5    0.04    0.05
   5  -2  -5    0.01    0.09
  -5   2   4   71.87    4.04
   5   2  -4   62.29    4.02
   5   2  -4   65.72    4.00
   5   2  -4   67.34    4.04
   5  -2  -4   65.70    4.01
  -5  -2   4   65.14    4.02
   5  -2  -4   65.37    4.02
   5  -2  -4   67.19    4.01
   5   2  -3    5.55    0.36
   5   2  -3    4.75    0.38
  -5   2   3    5.50    0.36
  -5   2   3    4.72    0.32
   5  -2  -3    4.76    0.31
  -5  -2   3    4.67    0.34
   5  -2  -3    4.64    0.33
   5  -2  -3    4.37    0.32
   5   2  -2  421.97   25.35
  -5   2   2  442.28   25.39
  -5   2   2  409.24   25.28
   5  -2  -2  394.01   25.31
   5  -2  -2  417.32   25.28
   5  -2  -2  430.72   25.31
  -5  -2   2  418.34   25.34
  -5   2   1   14.54    0.91
   5   2  -1   14.82    0.92
  -5   2   1   15.27    0.93
   5  -2  -1   14.58    0.92
  -5  -2   1   14.49    0.91
   5  -2  -1   14.34    0.91
   5  -2  -1   15.50    0.91
  -5  -2   1   14.83    0.92
  -5   2   0   90.05    5.73
  -5   2   0   96.12    5.73
   5   2   0   93.69    5.73
   5  -2   0   91.07    5.72
   5  -2   0   94.87    5.73
  -5  -2   0   97.03    5.73
   5  -2   0   94.58    5.72
  -5  -2   0   95.73    5.73
  -5  -2   0   99.96    5.73
  -5   2  -1   15.60    0.95
   5   2   1   14.53    0.95
  -5   2  -1   14.82    0.95
  -5   2  -1   15.74    0.95
  -5  -2  -1   15.59    0.95
   5  -2   1   15.56    0.95
  -5  -2  -1   15.32    0.96
   5  -2   1   15.44    0.94
   5  -2   1   15.27    0.95
  -5   2  -2  435.50   26.08
  -5   2  -2  453.97   26.09
   5   2   2  395.54   26.07
  -5   2  -2  408.13   26.09
  -5  -2  -2  438.29   26.11
   5  -2   2  460.18   26.10
  -5  -2  -2  408.76   26.11
   5  -2   2  454.88   26.11
  -5   2  -3    5.31    0.34
  -5   2  -3    4.85    0.32
   5   2   3    4.69    0.34
   5  -2   3    5.28    0.33
   5  -2   3    4.65    0.33
  -5  -2  -3    4.83    0.34
  -5  -2  -3    5.71    0.37
  -5  -2  -3    5.22    0.36
  -5   2  -4   71.43    4.11
  -5   2  -4   67.78    4.09
   5   2   4   63.74    4.10
   5  -2   4   69.59    4.10
  -5  -2  -4   67.66    4.11
   5  -2   4   66.76    4.11
  -5   2  -5   -0.03    0.16
   5   2   5   -0.01    0.08
  -5   2  -5    0.15    0.08
   5   2   5    0.06    0.07
  -5  -2  -5   -0.01    0.08
   5  -2   5    0.05    0.06
   5  -2   5    0.08    0.06
   5   2   6   50.90    3.07
  -5   2  -6   50.79    3.19
  -5  -2  -6   50.61    3.06
   5  -2   6   49.72    3.05
   5   2   7    0.59    0.11
  -5   2  -7    0.66    0.22
  -5  -2  -7    0.62    0.11
   5  -2   7    0.65    0.08
   5   2   8   24.93    1.53
   5   3 -10   -0.06    0.53
   5  -3 -10    0.38    0.21
   5   3  -9   12.73    1.37
  -5   3   9   13.02    0.87
   5  -3  -9   12.47    0.88
  -5  -3   9   14.39    0.97
   5   3  -8    2.63    0.70
  -5   3   8    1.90    0.23
  -5  -3   8    2.24    0.25
   5  -3  -8    1.85    0.23
  -5   3   7   13.63    0.85
   5   3  -7   11.48    1.33
   5  -3  -7   12.59    0.85
  -5  -3   7   13.65    0.85
   5   3  -6    3.34    0.69
  -5   3   6    4.54    0.35
   5  -3  -6    4.20    0.34
   5  -3  -6    4.52    0.30
  -5  -3   6    4.38    0.34
  -5   3   5  110.99    6.95
   5   3  -5  118.11    6.92
   5   3  -5  119.32    6.93
   5  -3  -5  121.35    6.94
   5  -3  -5  120.59    6.93
   5  -3  -5  115.32    6.93
  -5  -3   5   97.87    6.94
   5   3  -4    6.83    0.52
   5   3  -4    7.26    0.45
   5   3  -4    7.08    0.46
  -5   3   4    6.60    0.48
   5  -3  -4    6.88    0.47
  -5  -3   4    7.25    0.47
   5  -3  -4    7.17    0.46
   5  -3  -4    6.96    0.45
   5   3  -3   73.14    3.97
   5   3  -3   62.29    3.95
  -5   3   3   61.25    3.96
  -5   3   3   67.18    3.95
   5   3  -3   62.38    3.94
  -5  -3   3   67.71    3.96
   5  -3  -3   63.61    3.95
   5  -3  -3   63.01    3.95
   5  -3  -3   66.59    3.95
   5   3  -2    4.89    0.32
  -5   3   2    4.61    0.32
   5   3  -2    4.96    0.31
   5   3  -2    5.23    0.34
  -5   3   2    4.64    0.34
  -5  -3   2    4.67    0.33
   5  -3  -2    4.70    0.33
   5  -3  -2    4.64    0.32
   5  -3  -2    4.53    0.32
   5   3  -1  258.18   14.53
  -5   3   1  249.75   14.53
   5  -3  -1  237.39   14.49
  -5  -3   1  231.74   14.52
   5  -3  -1  240.48   14.51
  -5  -3   1  250.33   14.58
   5  -3  -1  213.42   14.52
  -5   3   0    0.01    0.07
  -5   3   0   -0.01    0.03
   5   3   0    0.06    0.04
   5   3   0   -0.01    0.06
  -5   3   0    0.03    0.05
   5  -3   0    0.01    0.05
  -5  -3   0    0.04    0.07
  -5  -3   0   -0.04    0.06
   5  -3   0    0.03    0.06
   5  -3   0   -0.02    0.06
  -5   3  -1  243.62   14.66
   5   3   1  250.49   14.65
  -5   3  -1  232.31   14.62
  -5   3  -1  227.75   14.70
   5  -3   1  251.19   14.64
  -5  -3  -1  243.00   14.65
   5  -3   1  241.09   14.67
  -5  -3  -1  244.33   14.63
   5  -3   1  247.20   14.62
  -5   3  -2    4.91    0.32
  -5   3  -2    4.58    0.32
  -5   3  -2    4.68    0.32
   5   3   2    4.36    0.32
  -5  -3  -2    4.70    0.33
   5  -3   2    5.00    0.31
  -5  -3  -2    4.62    0.32
   5  -3   2    4.51    0.31
  -5   3  -3   71.99    4.10
  -5   3  -3   70.18    4.09
   5   3   3   65.68    4.10
  -5   3  -3   66.11    4.09
  -5  -3  -3   67.52    4.10
  -5  -3  -3   66.95    4.09
   5  -3   3   64.70    4.09
  -5   3  -4    6.93    0.48
  -5   3  -4    7.45    0.47
   5   3   4    7.53    0.49
  -5  -3  -4    6.97    0.49
  -5  -3  -4    7.91    0.50
   5  -3   4    7.62    0.47
   5   3   5  126.77    7.34
  -5   3  -5  121.17    7.33
   5  -3   5  119.00    7.34
  -5  -3  -5  115.15    7.36
   5  -3   5  124.82    7.33
  -5  -3  -5  121.09    7.33
  -5   3  -6    4.33    0.31
   5   3   6    4.53    0.33
  -5  -3  -6    4.51    0.33
   5  -3   6    4.19    0.30
   5   3   7   12.51    0.80
  -5   3  -7   11.36    1.02
   5  -3   7   12.69    0.78
  -5  -3  -7   13.01    0.80
   5   3   8    2.28    0.24
  -5  -3  -8    1.95    0.21
   5   4  -9    1.47    0.67
  -5   4   9    0.82    0.22
   5  -4  -9    0.64    0.21
  -5  -4   9    0.92    0.22
   5   4  -8   12.58    1.47
  -5   4   8   13.06    0.89
  -5  -4   8   14.65    0.89
   5  -4  -8   12.85    0.89
  -5   4   7    1.24    0.20
   5   4  -7    1.01    0.58
  -5  -4   7    1.05    0.17
   5  -4  -7    1.17    0.19
  -5   4   6   24.49    1.52
   5   4  -6   24.78    1.50
   5  -4  -6   23.45    1.51
   5  -4  -6   23.72    1.48
  -5  -4   6   24.86    1.51
   5   4  -5    0.46    0.14
   5   4  -5    0.26    0.15
  -5   4   5    0.22    0.13
   5   4  -5    0.18    0.08
   5   4  -5    0.21    0.06
   5  -4  -5    0.09    0.08
   5  -4  -5    0.05    0.11
   5  -4  -5    0.06    0.10
  -5  -4   5    0.15    0.11
  -5   4   4   95.55    6.03
   5   4  -4   96.78    6.01
   5   4  -4  101.79    6.02
   5   4  -4  104.41    6.04
   5  -4  -4  102.68    6.02
   5  -4  -4  104.39    6.03
   5  -4  -4   93.50    6.01
  -5  -4   4   97.26    6.03
   5   4  -3    6.84    0.48
  -5   4   3    7.08    0.49
  -5   4   3    7.38    0.50
   5   4  -3    8.03    0.50
   5   4  -3    7.53    0.48
  -5  -4   3    7.29    0.50
   5  -4  -3    7.38    0.48
   5  -4  -3    7.35    0.49
   5  -4  -3    7.68    0.50
   5   4  -2   66.92    4.07
  -5   4   2   64.07    4.08
  -5   4   2   67.96    4.07
   5   4  -2   67.94    4.07
   5   4  -2   70.70    4.06
  -5  -4   2   68.68    4.08
   5  -4  -2   65.18    4.06
   5  -4  -2   64.88    4.07
   5  -4  -2   67.25    4.07
  -5   4   1   23.89    1.50
   5   4  -1   23.00    1.49
   5   4  -1   24.12    1.48
   5   4  -1   25.71    1.50
   5  -4  -1   23.18    1.48
  -5  -4   1   24.13    1.50
   5  -4  -1   25.15    1.49
   5  -4  -1   23.00    1.49
  -5  -4   1   25.76    1.49
   5   4   0  210.26   12.76
  -5   4   0  206.18   12.79
   5   4   0  215.16   12.74
  -5   4   0  208.30   12.72
  -5   4   0  219.93   12.71
  -5  -4   0  202.34   12.71
  -5  -4   0  203.54   12.72
   5  -4   0  215.88   12.77
   5  -4   0  221.43   12.72
   5  -4   0  205.22   12.71
   5   4   1   24.61    1.52
  -5   4  -1   24.61    1.51
   5   4   1   23.68    1.50
  -5   4  -1   24.81    1.51
  -5  -4  -1   24.37    1.52
  -5  -4  -1   23.84    1.51
   5  -4   1   25.62    1.51
   5  -4   1   24.14    1.51
   5  -4   1   25.09    1.50
  -5   4  -2   64.73    4.08
   5   4   2   66.44    4.09
  -5   4  -2   69.85    4.08
  -5   4  -2   66.13    4.08
   5   4   2   72.14    4.08
  -5  -4  -2   71.64    4.09
  -5  -4  -2   65.18    4.08
   5  -4   2   62.66    4.08
  -5   4  -3    7.45    0.47
  -5   4  -3    7.30    0.47
   5   4   3    8.03    0.47
   5   4   3    7.27    0.48
  -5   4  -3    6.87    0.47
  -5  -4  -3    6.78    0.48
   5  -4   3    6.89    0.47
  -5  -4  -3    6.73    0.48
  -5   4  -4  100.35    5.94
   5   4   4  102.14    5.96
  -5   4  -4   96.55    5.95
  -5   4  -4   97.39    5.95
  -5  -4  -4   99.96    5.95
  -5  -4  -4   96.45    5.96
   5  -4   4   95.57    5.94
   5   4   5    0.15    0.12
  -5   4  -5    0.11    0.08
   5  -4   5    0.18    0.08
  -5  -4  -5    0.10    0.10
  -5  -4  -5    0.19    0.11
   5   4   6   25.70    1.57
  -5   4  -6   24.93    1.55
  -5  -4  -6   26.20    1.56
   5  -4   6   24.01    1.54
   5   4   7    1.30    0.18
  -5   4  -7    1.18    0.14
   5  -4   7    1.13    0.13
  -5  -4  -7    0.96    0.17
   5   4   8   13.18    0.88
   5  -4   8   13.28    0.85
  -5  -4  -8   14.17    0.88
   5   4   9    0.91    0.19
  -5  -4  -9    0.72    0.18
  -5   5   9    3.47    0.40
   5   5  -9    4.19    0.94
   5  -5  -9    3.31    0.44
  -5  -5   9    4.18    0.40
  -5   5   8    0.18    0.20
   5   5  -8    0.44    0.60
  -5  -5   8    0.41    0.17
   5  -5  -8    0.22    0.19
   5   5  -7   32.04    1.99
  -5   5   7   32.10    2.01
   5  -5  -7   31.51    2.00
  -5  -5   7   33.05    2.00
  -5   5   6    0.56    0.17
   5   5  -6    0.39    0.11
   5  -5  -6    0.22    0.15
  -5  -5   6    0.20    0.13
   5  -5  -6    0.40    0.10
   5   5  -5    9.27    0.62
   5   5  -5    8.45    0.68
   5   5  -5    9.72    0.60
   5   5  -5   10.61    0.66
  -5   5   5    9.04    0.65
   5  -5  -5    9.50    0.62
   5  -5  -5    9.65    0.65
   5  -5  -5    8.96    0.61
  -5  -5   5    9.00    0.63
   5   5  -4    0.18    0.08
  -5   5   4    0.14    0.13
   5   5  -4    0.19    0.10
   5   5  -4    0.31    0.12
  -5  -5   4    0.19    0.12
   5  -5  -4    0.11    0.11
   5  -5  -4    0.16    0.10
   5  -5  -4    0.00    0.12
   5   5  -3  121.17    7.60
   5   5  -3  128.35    7.59
  -5   5   3  115.78    7.61
  -5   5   3  131.18    7.60
   5   5  -3  136.66    7.61
   5  -5  -3  120.17    7.59
   5  -5  -3  121.66    7.59
  -5  -5   3  129.28    7.61
   5  -5  -3  126.38    7.60
   5   5  -2   -0.01    0.05
  -5   5   2    0.04    0.11
   5   5  -2    0.13    0.06
  -5   5   2   -0.04    0.08
   5   5  -2    0.01    0.10
   5  -5  -2   -0.03    0.08
   5  -5  -2    0.08    0.10
   5  -5  -2   -0.02    0.10
  -5  -5   2    0.00    0.10
   5   5  -1   66.89    4.06
   5   5  -1   72.02    4.06
  -5   5   1   67.82    4.06
   5   5  -1   67.71    4.07
  -5   5   1   64.81    4.07
  -5  -5   1   65.55    4.07
   5  -5  -1   66.65    4.06
   5  -5  -1   65.13    4.06
  -5  -5   1   63.67    4.06
   5  -5  -1   68.52    4.06
  -5   5   0    0.08    0.11
   5   5   0    0.11    0.06
  -5   5   0    0.19    0.09
   5   5   0    0.14    0.10
  -5   5   0    0.00    0.07
  -5  -5   0    0.21    0.08
   5  -5   0    0.04    0.09
   5  -5   0    0.12    0.09
  -5  -5   0    0.17    0.11
   5  -5   0    0.14    0.08
  -5   5  -1   69.76    4.08
   5   5   1   62.42    4.08
  -5   5  -1   69.39    4.07
   5  -5   1   65.77    4.07
   5  -5   1   71.35    4.08
  -5  -5  -1   63.52    4.07
  -5  -5  -1   67.07    4.08
   5  -5   1   67.56    4.07
   5   5   2   -0.06    0.06
   5   5   2   -0.06    0.11
  -5   5  -2   -0.02    0.09
  -5   5  -2    0.00    0.07
  -5   5  -2    0.06    0.08
  -5  -5  -2    0.06    0.09
  -5  -5  -2    0.02    0.11
   5  -5   2    0.10    0.09
  -5   5  -3  113.40    7.36
  -5   5  -3  120.87    7.36
  -5   5  -3  118.90    7.36
   5   5   3  127.25    7.38
   5   5   3  124.10    7.36
  -5  -5  -3  122.08    7.37
  -5  -5  -3  126.87    7.38
   5  -5   3  121.03    7.36
  -5   5  -4    0.25    0.10
  -5   5  -4    0.10    0.09
  -5   5  -4    0.11    0.09
   5   5   4    0.02    0.13
   5  -5   4    0.11    0.09
  -5  -5  -4    0.14    0.11
  -5  -5  -4    0.19    0.12
  -5   5  -5   10.04    0.61
   5   5   5    9.46    0.63
  -5   5  -5    7.56    0.62
  -5  -5  -5    9.04    0.63
  -5  -5  -5    9.34    0.63
   5  -5   5   10.05    0.61
   5   5   6    0.46    0.16
  -5   5  -6    0.32    0.11
  -5  -5  -6    0.29    0.15
   5  -5   6    0.42    0.11
  -5   5  -7   32.61    2.07
   5   5   7   34.11    2.09
  -5  -5  -7   34.29    2.08
   5  -5   7   33.72    2.06
   5   5   8    0.37    0.18
  -5   5  -8    0.28    0.13
   5  -5   8    0.24    0.11
  -5  -5  -8    0.17    0.17
   5   5   9    3.94    0.38
  -5   5  -9    3.98    0.34
  -5  -5  -9    3.64    0.40
  -5   6   8    4.46    0.46
  -5  -6   8    4.95    0.42
   5  -6  -8    3.60    0.45
  -5   6   7   -0.07    0.20
   5  -6  -7    0.12    0.19
  -5  -6   7    0.09    0.15
  -5   6   6   23.71    1.56
   5   6  -6   24.31    1.50
   5   6  -6   24.63    1.56
   5  -6  -6   26.60    1.56
   5  -6  -6   23.25    1.51
  -5  -6   6   24.85    1.55
  -5   6   5    0.46    0.18
   5   6  -5    0.36    0.09
   5  -6  -5    0.35    0.16
   5  -6  -5    0.37    0.12
   5  -6  -5    0.53    0.15
  -5  -6   5    0.27    0.15
   5   6  -4   27.40    1.56
  -5   6   4   23.69    1.59
   5   6  -4   26.33    1.58
   5  -6  -4   25.06    1.59
  -5  -6   4   25.39    1.59
   5  -6  -4   24.81    1.58
   5  -6  -4   24.39    1.57
   5   6  -3    4.66    0.36
  -5   6   3    4.07    0.38
   5   6  -3    4.49    0.32
   5  -6  -3    4.54    0.38
   5  -6  -3    4.37    0.34
  -5  -6   3    4.25    0.36
   5  -6  -3    4.63    0.36
   5   6  -2   52.56    3.07
  -5   6   2   51.51    3.08
  -5   6   2   50.16    3.09
   5   6  -2   49.30    3.08
   5  -6  -2   51.74    3.09
   5  -6  -2   49.03    3.07
  -5  -6   2   48.83    3.09
   5  -6  -2   50.31    3.08
   5   6  -1   14.08    0.90
   5   6  -1   14.17    0.88
  -5   6   1   13.83    0.88
  -5   6   1   13.90    0.90
  -5  -6   1   13.13    0.90
   5  -6  -1   13.92    0.88
   5  -6  -1   14.13    0.89
   5  -6  -1   13.55    0.88
   5   6   0   59.04    3.55
  -5   6   0   56.03    3.55
  -5   6   0   57.27    3.53
  -5  -6   0   55.81    3.55
  -5  -6   0   57.19    3.54
   5  -6   0   56.97    3.53
   5  -6   0   64.56    3.61
   5  -6   0   58.15    3.54
   5   6   1   12.96    0.88
  -5   6  -1   13.24    0.87
  -5  -6  -1   12.79    0.86
   5  -6   1   13.91    0.87
  -5  -6  -1   14.74    0.89
   5  -6   1   13.41    0.86
   5   6   2   51.57    3.07
   5   6   2   49.50    3.09
  -5   6  -2   50.86    3.05
  -5   6  -2   49.43    3.06
  -5  -6  -2   51.13    3.06
   5  -6   2   50.27    3.06
  -5  -6  -2   47.84    3.07
  -5   6  -3    4.32    0.34
  -5   6  -3    4.42    0.33
   5   6   3    4.40    0.37
  -5   6  -3    4.49    0.34
  -5  -6  -3    4.48    0.36
   5  -6   3    4.57    0.34
  -5  -6  -3    4.35    0.37
  -5   6  -4   26.55    1.57
   5   6   4   25.47    1.59
  -5   6  -4   25.50    1.57
  -5   6  -4   25.29    1.58
  -5  -6  -4   25.98    1.59
   5  -6   4   24.75    1.57
  -5  -6  -4   23.98    1.58
  -5   6  -5    0.61    0.13
   5   6   5    0.45    0.17
  -5   6  -5    0.32    0.12
  -5  -6  -5    0.36    0.16
   5  -6   5    0.32    0.12
  -5  -6  -5    0.31    0.15
  -5   6  -6   23.94    1.61
   5   6   6   25.77    1.63
   5  -6   6   27.10    1.60
  -5  -6  -6   26.21    1.62
  -5   6  -7    0.01    0.13
   5   6   7    0.04    0.18
   5  -6   7    0.18    0.12
  -5  -6  -7    0.09    0.18
   5   6   8    4.24    0.42
   5  -6   8    4.27    0.34
  -5  -6  -8    4.07    0.44
  -5   7   8   -0.16    0.24
  -5  -7   8    0.16    0.19
   5  -7  -8   -0.16    0.23
  -5   7   7    2.46    0.33
  -5  -7   7    2.75    0.33
   5  -7  -7    2.00    0.30
  -5   7   6    0.23    0.21
   5   7  -6    0.22    0.19
   5   7  -6    0.15    0.09
   5  -7  -6    0.27    0.13
  -5  -7   6    0.11    0.16
   5  -7  -6   -0.11    0.21
  -5   7   5   32.99    2.07
   5   7  -5   32.40    2.01
  -5  -7   5   33.23    2.06
   5  -7  -5   32.41    2.04
   5  -7  -5   33.50    2.06
   5  -7  -5   32.78    2.02
  -5   7   4    1.49    0.24
   5   7  -4    1.34    0.20
   5   7  -4    1.27    0.16
   5  -7  -4    0.90    0.21
   5  -7  -4    1.43    0.21
   5  -7  -4    1.22    0.18
  -5  -7   4    1.02    0.20
   5   7  -3   13.11    0.84
  -5   7   3   13.02    0.88
   5   7  -3   13.65    0.86
  -5  -7   3   12.57    0.87
   5  -7  -3   12.99    0.86
   5   7  -2    0.64    0.16
   5   7  -2    0.42    0.10
  -5   7   2    0.51    0.19
  -5  -7   2    0.48    0.16
   5  -7  -2    0.54    0.16
   5   7  -1   42.18    2.56
  -5   7   1   43.95    2.58
   5   7  -1   41.51    2.57
  -5  -7   1   41.01    2.58
   5  -7  -1   39.83    2.56
  -5   7   0   -0.04    0.11
  -5   7   0    0.03    0.15
   5   7   0   -0.03    0.14
  -5  -7   0    0.02    0.15
   5  -7   0   -0.02    0.13
  -5   7  -1   41.81    2.62
  -5   7  -1   45.10    2.63
   5   7   1   42.90    2.64
  -5  -7  -1   41.77    2.64
   5  -7   1   42.02    2.62
   5   7   2    0.59    0.18
  -5   7  -2    0.58    0.13
  -5   7  -2    0.70    0.16
  -5  -7  -2    0.67    0.18
  -5  -7  -2    0.66    0.18
   5  -7   2    0.64    0.16
  -5   7  -3   12.46    0.84
   5   7   3   13.27    0.88
  -5   7  -3   13.74    0.86
  -5  -7  -3   13.26    0.88
  -5  -7  -3   12.60    0.86
   5  -7   3   13.10    0.85
  -5   7  -4    1.29    0.17
   5   7   4    1.22    0.22
  -5  -7  -4    1.15    0.21
   5  -7   4    1.36    0.18
  -5  -7  -4    1.07    0.20
  -5   7  -5   34.64    2.03
   5   7   5   31.27    2.06
  -5  -7  -5   33.34    2.05
   5  -7   5   32.02    2.03
   5   7   6    0.30    0.21
  -5  -7  -6    0.21    0.21
   5  -7   6    0.27    0.14
   5   7   7    2.78    0.33
  -5  -7  -7    2.34    0.31
   5  -7   7    2.86    0.29
   5   7   8    0.08    0.23
   5  -7   8   -0.06    0.14
  -5  -7  -8    0.02    0.22
  -5   8   7    0.12    0.25
  -5  -8   7    0.19    0.19
  -5   8   6    4.54    0.50
   5   8  -6    5.69    0.51
   5   8  -6    4.16    0.33
  -5  -8   6    4.29    0.43
   5   8  -5    0.19    0.11
  -5   8   5    0.58    0.25
  -5  -8   5    0.41    0.19
  -5   8   4   14.01    0.96
   5   8  -4   13.48    0.88
   5   8  -4   14.49    0.97
  -5  -8   4   12.80    0.93
   5  -8  -4   14.04    0.92
   5   8  -3    1.87    0.23
   5   8  -3    2.09    0.25
  -5   8   3    2.19    0.30
  -5  -8   3    1.93    0.26
   5  -8  -3    2.36    0.29
   5   8  -2   26.05    1.58
  -5   8   2   24.85    1.60
  -5  -8   2   24.37    1.59
   5  -8  -2   24.54    1.57
  -5   8   1    3.04    0.32
   5   8  -1    2.38    0.31
   5  -8  -1    2.50    0.30
  -5  -8   1    2.22    0.28
  -5   8   0   11.69    0.80
   5   8   0   11.73    0.80
  -5  -8   0   11.41    0.80
   5  -8   0   11.64    0.79
   5   8   1    2.51    0.33
  -5   8  -1    2.86    0.32
   5  -8   1    2.67    0.32
  -5  -8  -1    2.52    0.33
  -5   8  -2   23.93    1.60
  -5   8  -2   25.83    1.59
   5   8   2   25.61    1.62
   5  -8   2   24.94    1.60
  -5  -8  -2   26.82    1.62
  -5   8  -3    2.19    0.25
  -5   8  -3    2.21    0.25
   5   8   3    2.28    0.30
   5  -8   3    2.34    0.26
  -5  -8  -3    2.25    0.29
   5   8   4   13.73    0.94
  -5   8  -4   13.91    0.89
   5  -8   4   13.40    0.91
  -5  -8  -4   13.88    0.93
  -5   8  -5    0.32    0.15
   5   8   5    0.35    0.24
   5  -8   5    0.39    0.17
   5   8   6    4.75    0.48
  -5  -8  -6    4.24    0.53
   5  -8   6    4.41    0.39
   5   8   7    0.10    0.24
   5  -8   7    0.11    0.16
  -5  -8  -7   -0.02    0.23
  -5   9   5    3.99    0.51
   5   9  -5    3.68    0.33
  -5  -9   5    3.96    0.43
  -5   9   4    0.80    0.28
   5   9  -4    0.75    0.16
   5  -9  -4    0.76    0.23
  -5  -9   4    0.90    0.23
  -5   9   3   13.52    0.92
   5   9  -3   13.09    0.88
  -5  -9   3   11.86    0.89
   5  -9  -3   12.90    0.88
  -5   9   2    0.79    0.25
   5   9  -2    0.74    0.21
  -5  -9   2    0.91    0.24
   5  -9  -2    0.82    0.23
   5   9  -1   11.44    0.80
  -5   9   1   11.90    0.83
  -5  -9   1   12.18    0.83
   5  -9  -1   10.68    0.79
   5   9   0   -0.09    0.20
  -5   9   0    0.04    0.20
   5  -9   0   -0.14    0.18
  -5  -9   0    0.11    0.20
  -5   9  -1   11.98    0.84
   5   9   1   11.50    0.83
  -5  -9  -1   12.22    0.84
   5  -9   1   11.64    0.81
  -5   9  -2    0.83    0.22
   5   9   2    0.39    0.23
  -5  -9  -2    0.59    0.24
   5  -9   2    0.62    0.20
   5   9   3   13.11    0.93
  -5   9  -3   12.76    0.87
   5  -9   3   12.78    0.89
  -5  -9  -3   13.91    0.92
   5   9   4    0.82    0.26
  -5   9  -4    0.61    0.17
  -5  -9  -4    0.86    0.24
   5  -9   4    0.76    0.20
   5   9   5    3.86    0.48
  -5   9  -5    3.79    0.37
   5  -9   5    4.37    0.40
  -5  10   3    0.51    0.28
   5 -10  -3    0.14    0.23
  -5 -10   3    0.18    0.23
  -5  10   2    3.58    0.42
   5  10  -2    4.04    0.43
  -5 -10   2    3.60    0.46
   5 -10  -2    3.40    0.43
   5  10  -1    0.18    0.23
  -5  10   1    0.47    0.25
  -5 -10   1    0.27    0.24
   5 -10  -1    0.14    0.22
   5  10   0   13.63    0.94
  -5  10   0   14.38    0.97
   5 -10   0   12.28    0.93
  -5 -10   0   13.95    0.97
   5  10   1    0.23    0.24
  -5  10  -1    0.24    0.24
  -5 -10  -1    0.21    0.24
   5 -10   1    0.43    0.22
   5  10   2    3.97    0.49
  -5  10  -2    3.87    0.45
   5 -10   2    3.66    0.43
  -5 -10  -2    3.98    0.48
   5  10   3    0.14    0.26
  -5 -10  -3    0.28    0.25
   5 -10   3    0.17    0.20
   6   0 -10    4.48    0.79
   6   0  -9   -0.16    0.41
  -6   0   9    0.38    0.19
   6   0  -9    0.69    0.21
   6   0  -8    3.80    0.43
  -6   0   8    4.11    0.41
   6   0  -7    0.07    0.16
   6   0  -7   -0.37    0.35
  -6   0   6   26.09    1.78
   6   0  -6   29.43    1.76
   6   0  -5    0.17    0.12
   6   0  -5    0.23    0.27
  -6   0   5    0.11    0.17
   6   0  -5    0.01    0.06
   6   0  -5    0.01    0.05
  -6   0   4   99.35    6.13
   6   0  -4  101.40    6.26
   6   0  -4   96.46    6.04
   6   0  -4  101.81    6.05
   6   0  -4  101.70    6.08
   6   0  -3    0.14    0.07
  -6   0   3    0.06    0.10
   6   0  -3    0.22    0.11
   6   0  -3    0.09    0.20
   6   0  -3    0.08    0.06
  -6   0   3    0.02    0.16
   6   0  -2   59.54    3.61
  -6   0   2   55.10    3.63
   6   0  -2   64.66    3.61
   6   0  -2   57.59    3.64
  -6   0   2   59.90    3.67
   6   0  -1   -0.12    0.08
  -6   0   1    0.08    0.13
   6   0  -1    0.18    0.14
   6   0  -1    0.27    0.12
   6   0  -1   -0.03    0.09
  -6   0   1    0.11    0.13
   6   0   0  528.57   29.47
   6   0   0  533.64   29.74
   6   0   0  469.70   29.41
  -6   0   0  439.10   29.59
  -6   0   0  482.82   29.41
   6   0   0  470.44   29.47
  -6   0  -1    0.00    0.11
   6   0   1   -0.06    0.08
  -6   0  -1    0.17    0.12
   6   0   1    0.12    0.07
   6   0   1   -0.02    0.10
   6   0   1    0.10    0.10
   6   0   2   56.19    3.74
  -6   0  -2   60.43    3.75
   6   0   2   67.68    3.75
   6   0   3   -0.02    0.10
   6   0   3    0.31    0.11
  -6   0  -3   -0.02    0.10
  -6   0  -3    0.13    0.06
   6   0   4  107.90    6.52
   6   0   4  109.04    6.55
  -6   0  -4  106.26    6.52
   6   0   5   -0.11    0.10
  -6   0  -5   -0.19    0.11
   6   0   5   -0.05    0.10
   6   0   6   29.27    1.81
   6   0   7    0.22    0.12
   6   1 -10   -0.88    0.48
   6  -1 -10    0.31    0.23
   6   1  -9    2.85    0.30
   6   1  -9    1.61    0.63
  -6  -1   9    2.19    0.37
   6   1  -8    0.70    0.45
  -6   1   8    1.08    0.20
  -6  -1   8    0.93    0.29
   6  -1  -8    0.37    0.42
   6  -1  -8    1.17    0.20
   6   1  -7   14.79    1.18
   6   1  -7   19.28    1.51
  -6   1   7   19.57    1.18
  -6  -1   7   17.76    1.25
   6  -1  -7   19.89    1.17
   6   1  -6    5.74    0.47
  -6   1   6    6.65    0.48
   6   1  -6    7.17    0.79
   6  -1  -6    6.14    0.44
  -6  -1   6    4.70    0.51
   6  -1  -6    5.64    0.38
   6   1  -5   30.82    1.81
   6   1  -5   29.35    1.87
   6   1  -5   29.59    1.80
   6   1  -5   32.80    2.14
  -6   1   5   27.27    1.87
   6   1  -5   28.83    1.80
   6  -1  -5   28.97    1.83
   6  -1  -5   29.63    1.80
   6  -1  -5   30.58    1.81
   6   1  -4   13.81    0.82
   6   1  -4   13.56    0.89
   6   1  -4   13.02    1.09
   6   1  -4   14.07    0.83
   6  -1  -4   12.62    0.82
   6  -1  -4   12.96    0.81
   6  -1  -4   12.62    0.84
  -6  -1   4   12.67    0.86
  -6  -1   4   13.56    0.88
   6   1  -3  103.47    6.28
  -6   1   3  113.46    6.25
   6   1  -3   88.92    6.25
   6   1  -3   86.13    6.45
   6  -1  -3  114.31    6.24
   6  -1  -3  105.58    6.25
   6  -1  -3  105.34    6.23
  -6  -1   3  107.99    6.27
  -6   1   2    6.38    0.42
   6   1  -2    6.38    0.45
   6   1  -2    6.78    0.46
   6   1  -2    5.35    0.60
   6  -1  -2    6.10    0.41
  -6  -1   2    6.41    0.44
  -6  -1   2    7.03    0.45
   6  -1  -2    6.38    0.43
   6  -1  -2    6.12    0.41
  -6   1   1   94.71    6.47
  -6  -1   1  108.12    6.46
   6  -1  -1  112.78    6.45
   6  -1  -1  112.15    6.44
   6  -1  -1  105.12    6.44
   6   1   0    0.07    0.08
   6   1   0    0.06    0.08
  -6   1   0    0.01    0.08
  -6   1   0    0.14    0.08
  -6   1   0    0.07    0.07
  -6  -1   0    0.11    0.09
  -6  -1   0    0.11    0.10
   6  -1   0    0.12    0.08
   6  -1   0    0.10    0.07
   6  -1   0    0.15    0.07
  -6  -1   0    0.04    0.09
  -6   1  -1  105.74    6.06
  -6   1  -1  108.07    6.06
   6  -1   1   94.60    6.05
  -6  -1  -1  102.95    6.09
   6  -1   1   92.87    6.06
   6  -1   1   84.67    6.07
  -6  -1  -1  110.95    6.06
  -6   1  -2    6.44    0.41
  -6   1  -2    6.45    0.40
   6   1   2    5.86    0.41
  -6  -1  -2    6.36    0.42
  -6   1  -3  113.51    6.63
   6   1   3  103.80    6.62
   6  -1   3  112.68    6.64
  -6  -1  -3  108.67    6.63
  -6   1  -4   11.37    0.79
   6   1   4   14.64    0.87
   6   1   4   14.36    0.84
   6   1   4   12.25    0.81
  -6   1  -4   13.94    0.81
  -6  -1  -4   12.62    0.82
  -6  -1  -4   11.29    0.81
   6  -1   4   14.59    0.84
   6   1   5   32.31    1.86
   6   1   5   29.49    1.84
  -6   1  -5   29.34    1.86
  -6  -1  -5   30.41    1.85
   6  -1   5   29.29    1.86
   6   1   6    6.14    0.41
  -6  -1  -6    6.05    0.42
   6   1   7   20.21    1.22
   6  -1   7   19.27    1.21
   6   1   8    0.89    0.14
   6   2 -10    1.04    0.63
   6  -2 -10    3.47    0.43
  -6   2   9    0.23    0.17
   6   2  -9    0.34    0.50
  -6  -2   9    0.59    0.29
   6  -2  -9    0.74    0.20
  -6   2   8   15.69    0.95
   6   2  -8   15.10    1.37
   6  -2  -8   14.02    0.96
  -6  -2   8   13.05    1.03
  -6   2   7    0.64    0.16
   6   2  -7    0.84    0.47
   6   2  -7    0.55    0.17
  -6  -2   7    0.40    0.20
   6  -2  -7    0.62    0.15
  -6   2   6   23.72    1.44
   6   2  -6   21.43    1.45
   6   2  -6   22.92    1.82
  -6  -2   6   22.94    1.44
  -6  -2   6   24.48    1.46
   6  -2  -6   22.09    1.42
   6  -2  -6   22.55    1.40
  -6   2   5    0.39    0.13
   6   2  -5    0.26    0.09
   6   2  -5    0.14    0.07
   6   2  -5    0.09    0.05
   6   2  -5    0.19    0.14
   6   2  -5    0.08    0.36
  -6  -2   5    0.12    0.11
   6  -2  -5    0.27    0.11
   6  -2  -5    0.23    0.08
   6  -2  -5    0.23    0.07
   6   2  -4   39.75    2.44
   6   2  -4   38.46    2.39
  -6   2   4   43.75    2.44
   6  -2  -4   37.67    2.40
   6  -2  -4   40.33    2.41
   6  -2  -4   39.29    2.40
  -6  -2   4   37.52    2.42
  -6   2   3    3.02    0.23
  -6   2   3    3.49    0.28
   6   2  -3    3.17    0.29
   6   2  -3    3.68    0.31
   6   2  -3    2.74    0.29
  -6  -2   3    3.10    0.25
   6  -2  -3    2.96    0.24
   6  -2  -3    2.94    0.23
   6  -2  -3    3.11    0.22
  -6   2   2  207.18   12.63
  -6   2   2  210.03   12.65
   6   2  -2  212.60   12.67
   6   2  -2  222.90   12.66
   6  -2  -2  198.64   12.65
  -6  -2   2  200.10   12.68
   6  -2  -2  204.58   12.63
  -6  -2   2  213.34   12.70
   6  -2  -2  216.13   12.64
   6   2  -1    7.05    0.43
  -6   2   1    6.28    0.44
   6  -2  -1    6.11    0.41
   6  -2  -1    6.30    0.41
   6  -2  -1    5.71    0.42
  -6  -2   1    6.26    0.43
  -6  -2   1    6.64    0.42
   6   2   0   65.99    4.10
  -6   2   0   66.83    4.10
  -6   2   0   69.23    4.11
  -6   2   0   67.14    4.10
   6  -2   0   67.01    4.10
   6  -2   0   69.32    4.10
   6  -2   0   67.53    4.10
  -6  -2   0   66.30    4.10
  -6  -2   0   69.61    4.11
  -6   2  -1    6.54    0.43
  -6   2  -1    6.67    0.43
   6   2   1    5.75    0.42
  -6   2  -1    6.86    0.43
   6  -2   1    6.41    0.42
   6  -2   1    6.66    0.43
  -6  -2  -1    6.51    0.43
   6  -2   1    6.75    0.42
  -6  -2  -1    5.64    0.43
  -6   2  -2  197.62   13.41
  -6   2  -2  226.59   13.36
   6   2   2  205.01   13.37
  -6   2  -2  202.31   13.37
   6  -2   2  224.54   13.36
  -6  -2  -2  236.11   13.38
  -6  -2  -2  234.48   13.40
  -6  -2  -2  231.73   13.37
   6  -2   2  235.04   13.41
  -6   2  -3    2.77    0.21
   6   2   3    2.72    0.23
  -6   2  -3    3.74    0.25
   6  -2   3    3.30    0.23
  -6  -2  -3    2.89    0.29
  -6  -2  -3    3.08    0.24
  -6   2  -4   38.93    2.43
  -6   2  -4   43.17    2.45
   6   2   4   37.61    2.44
   6  -2   4   44.35    2.45
  -6  -2  -4   39.84    2.45
   6  -2   4   37.25    2.45
  -6   2  -5    0.45    0.10
  -6   2  -5    0.16    0.16
   6   2   5    0.15    0.09
   6  -2   5    0.27    0.07
  -6  -2  -5    0.26    0.07
   6  -2   5    0.14    0.07
  -6  -2  -5    0.16    0.10
   6   2   6   21.90    1.42
  -6   2  -6   23.92    1.42
  -6   2  -6   23.52    1.50
  -6  -2  -6   23.31    1.42
   6  -2   6   22.63    1.41
   6   2   7    0.48    0.12
  -6   2  -7    0.48    0.19
   6  -2   7    0.42    0.08
  -6  -2  -7    0.49    0.12
   6   2   8   13.54    0.86
   6   3 -10    0.30    0.58
   6  -3 -10    0.22    0.23
  -6   3   9    5.64    0.50
   6   3  -9    7.81    1.10
   6  -3  -9    6.48    0.53
  -6  -3   9    5.73    0.59
   6   3  -8    1.37    0.59
  -6   3   8    0.88    0.20
  -6  -3   8    0.78    0.21
   6  -3  -8    1.07    0.19
  -6  -3   8    0.89    0.25
   6   3  -7    5.94    0.96
  -6   3   7    6.54    0.47
   6  -3  -7    5.89    0.46
  -6  -3   7    5.60    0.46
  -6   3   6    1.76    0.22
   6   3  -6    1.46    0.55
  -6  -3   6    2.10    0.24
   6  -3  -6    1.97    0.17
   6  -3  -6    2.22    0.23
   6  -3  -6    1.93    0.25
  -6   3   5   60.70    3.40
   6   3  -5   54.77    3.36
   6   3  -5   46.62    3.38
  -6  -3   5   56.75    3.39
   6  -3  -5   54.60    3.37
   6  -3  -5   58.09    3.37
   6  -3  -5   57.67    3.39
   6   3  -4    3.10    0.30
   6   3  -4    2.11    0.28
  -6   3   4    2.99    0.26
   6   3  -4    2.66    0.20
  -6  -3   4    2.51    0.24
   6  -3  -4    2.68    0.22
   6  -3  -4    2.74    0.25
   6  -3  -4    2.75    0.21
  -6   3   3   25.77    1.63
  -6   3   3   25.61    1.62
   6   3  -3   28.75    1.67
   6   3  -3   29.06    1.64
   6   3  -3   25.33    1.61
   6  -3  -3   26.02    1.61
   6  -3  -3   25.33    1.61
  -6  -3   3   26.24    1.63
   6  -3  -3   25.49    1.62
   6   3  -2    3.24    0.24
  -6   3   2    2.75    0.22
  -6   3   2    3.00    0.25
   6  -3  -2    2.76    0.22
   6  -3  -2    2.90    0.24
   6  -3  -2    2.73    0.22
  -6  -3   2    2.75    0.24
  -6  -3   2    2.97    0.22
  -6   3   1   99.17    6.35
   6   3  -1  109.78    6.35
   6  -3  -1  109.20    6.34
  -6  -3   1   95.71    6.35
   6  -3  -1  109.42    6.34
  -6  -3   1  111.18    6.34
   6  -3  -1   99.76    6.34
  -6   3   0    0.14    0.06
   6   3   0    0.05    0.08
  -6   3   0    0.11    0.07
  -6   3   0    0.19    0.08
   6  -3   0    0.01    0.07
   6  -3   0    0.11    0.06
   6  -3   0    0.06    0.07
  -6  -3   0    0.11    0.07
  -6  -3   0   -0.02    0.08
   6   3   1  107.97    6.51
  -6   3  -1  113.70    6.51
  -6   3  -1  115.21    6.52
  -6   3  -1  109.83    6.51
  -6  -3  -1  103.22    6.52
   6  -3   1  111.86    6.51
  -6  -3  -1  105.07    6.51
   6  -3   1  101.83    6.51
   6  -3   1  100.86    6.51
  -6   3  -2    3.19    0.23
  -6   3  -2    2.63    0.23
   6   3   2    2.72    0.23
  -6   3  -2    3.32    0.24
  -6  -3  -2    2.75    0.24
   6  -3   2    3.31    0.23
  -6  -3  -2    2.98    0.24
   6  -3   2    3.32    0.24
   6   3   3   26.34    1.61
  -6   3  -3   27.97    1.61
  -6   3  -3   25.45    1.63
  -6   3  -3   25.20    1.61
   6  -3   3   27.41    1.61
  -6  -3  -3   25.72    1.62
  -6  -3  -3   25.54    1.61
  -6   3  -4    2.71    0.23
  -6   3  -4    2.65    0.20
   6   3   4    2.52    0.23
  -6  -3  -4    2.56    0.23
  -6  -3  -4    3.09    0.28
   6  -3   4    2.77    0.21
  -6  -3  -4    2.89    0.26
  -6   3  -5   58.83    3.43
   6   3   5   57.26    3.43
   6  -3   5   50.84    3.42
  -6  -3  -5   58.90    3.43
   6   3   6    1.99    0.21
  -6   3  -6    2.02    0.20
   6  -3   6    1.65    0.17
  -6  -3  -6    1.97    0.22
  -6   3  -7    5.35    0.64
  -6   3  -7    5.86    0.41
   6   3   7    6.80    0.43
  -6  -3  -7    6.12    0.44
   6  -3   7    5.72    0.39
   6   3   8    0.75    0.16
  -6  -3  -8    0.94    0.16
  -6  -3  -9    5.36    0.42
  -6   4   9    0.73    0.21
   6   4  -9    1.18    0.65
  -6  -4   9    0.70    0.22
   6  -4  -9    0.50    0.22
  -6  -4   9    0.40    0.26
  -6   4   8    6.98    0.54
   6   4  -8    5.58    1.08
   6  -4  -8    6.82    0.55
  -6  -4   8    7.61    0.54
   6   4  -7    0.53    0.53
  -6   4   7    1.04    0.20
  -6  -4   7    0.71    0.17
   6  -4  -7    0.70    0.19
  -6   4   6   13.48    0.86
   6  -4  -6   12.89    0.81
  -6  -4   6   12.06    0.85
   6  -4  -6   13.20    0.85
   6   4  -5    0.07    0.15
  -6   4   5    0.12    0.14
   6   4  -5   -0.04    0.06
   6   4  -5    0.09    0.15
   6  -4  -5   -0.03    0.10
  -6  -4   5   -0.08    0.11
   6  -4  -5    0.00    0.12
   6  -4  -5   -0.03    0.09
  -6   4   4   46.59    3.01
   6   4  -4   51.68    3.02
   6   4  -4   49.36    2.98
   6   4  -4   48.57    3.00
   6   4  -4   47.27    3.04
   6  -4  -4   48.45    2.99
   6  -4  -4   49.59    2.99
   6  -4  -4   51.91    3.00
  -6  -4   4   48.92    3.01
  -6   4   3    2.89    0.26
   6   4  -3    2.58    0.20
   6   4  -3    2.82    0.25
   6   4  -3    2.63    0.22
  -6   4   3    2.64    0.22
   6  -4  -3    2.38    0.22
   6  -4  -3    2.81    0.22
  -6  -4   3    2.62    0.25
   6  -4  -3    2.63    0.25
  -6   4   2   42.13    2.36
   6   4  -2   36.43    2.36
  -6   4   2   37.81    2.37
   6   4  -2   39.35    2.35
   6   4  -2   39.63    2.37
   6  -4  -2   36.31    2.35
  -6  -4   2   38.41    2.36
   6  -4  -2   37.12    2.36
  -6  -4   2   38.75    2.37
   6  -4  -2   40.02    2.36
   6   4  -1   12.76    0.79
  -6   4   1   11.84    0.81
   6   4  -1   12.32    0.79
   6   4  -1   12.81    0.80
  -6  -4   1   13.28    0.81
  -6  -4   1   12.35    0.79
   6  -4  -1   12.97    0.79
   6  -4  -1   12.83    0.80
   6  -4  -1   11.99    0.79
   6   4   0   98.21    5.97
  -6   4   0   99.61    5.97
   6   4   0   96.72    5.96
  -6   4   0   98.91    5.96
   6  -4   0  101.34    5.97
   6  -4   0   97.79    5.96
   6  -4   0   96.13    5.96
  -6  -4   0   99.94    5.97
   6   4   1   12.75    0.82
  -6   4  -1   12.56    0.81
  -6   4  -1   13.04    0.82
  -6  -4  -1   13.49    0.82
   6  -4   1   12.85    0.81
   6  -4   1   13.07    0.81
  -6  -4  -1   12.48    0.82
   6  -4   1   12.47    0.81
  -6   4  -2   41.44    2.41
  -6   4  -2   39.05    2.41
   6   4   2   38.40    2.41
  -6   4  -2   39.49    2.41
  -6  -4  -2   39.69    2.41
   6  -4   2   39.86    2.41
  -6  -4  -2   38.25    2.42
  -6   4  -3    2.61    0.22
  -6   4  -3    2.86    0.23
   6   4   3    2.49    0.24
  -6   4  -3    2.58    0.22
  -6  -4  -3    2.62    0.25
   6  -4   3    2.83    0.22
  -6  -4  -3    2.62    0.24
   6   4   4   48.74    2.90
  -6   4  -4   50.97    2.90
  -6   4  -4   45.04    2.91
  -6   4  -4   47.21    2.89
  -6  -4  -4   47.87    2.91
  -6  -4  -4   47.48    2.90
   6  -4   4   45.25    2.89
  -6   4  -5    0.05    0.08
   6   4   5    0.09    0.12
  -6  -4  -5   -0.14    0.15
   6  -4   5   -0.03    0.08
  -6  -4  -5   -0.05    0.11
  -6  -4  -5    0.20    0.13
  -6   4  -6   12.60    0.82
   6   4   6   13.66    0.84
  -6  -4  -6   13.33    0.84
   6  -4   6   12.40    0.82
  -6   4  -7    0.87    0.13
   6   4   7    0.97    0.18
   6  -4   7    0.91    0.12
  -6  -4  -7    0.86    0.17
  -6   4  -8    6.81    0.46
   6   4   8    6.62    0.49
   6  -4   8    6.58    0.45
  -6  -4  -8    6.68    0.50
   6   4   9    0.62    0.18
  -6  -4  -9    0.43    0.18
  -6   5   9    2.07    0.30
   6   5  -9    3.35    0.88
  -6  -5   9    2.36    0.30
   6  -5  -9    1.74    0.29
  -6   5   8    0.28    0.21
   6   5  -8    0.00    0.57
   6  -5  -8   -0.16    0.19
  -6  -5   8    0.22    0.17
  -6   5   7   13.97    0.97
   6  -5  -7   14.59    0.97
  -6  -5   7   15.05    0.97
   6   5  -6    0.22    0.11
  -6   5   6    0.08    0.17
   6  -5  -6    0.01    0.17
   6  -5  -6    0.13    0.11
  -6  -5   6    0.09    0.14
   6   5  -5    3.33    0.40
   6   5  -5    4.04    0.28
   6   5  -5    3.74    0.31
  -6   5   5    4.11    0.36
   6   5  -5    4.66    0.38
   6  -5  -5    3.89    0.32
  -6  -5   5    3.99    0.35
   6  -5  -5    4.10    0.36
   6  -5  -5    3.81    0.31
   6   5  -4    0.05    0.08
   6   5  -4   -0.01    0.07
   6   5  -4    0.12    0.13
  -6   5   4    0.00    0.15
   6  -5  -4   -0.04    0.10
   6  -5  -4   -0.06    0.11
   6  -5  -4   -0.03    0.12
  -6  -5   4    0.02    0.12
   6   5  -3   56.35    3.55
   6   5  -3   58.36    3.54
  -6   5   3   58.29    3.55
  -6   5   3   58.55    3.56
   6   5  -3   59.12    3.55
   6  -5  -3   56.93    3.54
   6  -5  -3   60.99    3.56
  -6  -5   3   56.85    3.56
   6  -5  -3   58.87    3.54
   6   5  -2    0.07    0.11
   6   5  -2    0.16    0.07
   6   5  -2    0.12    0.07
  -6   5   2    0.10    0.12
  -6   5   2    0.19    0.11
   6  -5  -2    0.23    0.09
   6  -5  -2    0.16    0.11
   6  -5  -2    0.28    0.11
  -6  -5   2    0.12    0.12
   6   5  -1   30.58    1.81
   6   5  -1   29.77    1.80
  -6   5   1   29.41    1.80
  -6   5   1   28.85    1.82
  -6  -5   1   30.83    1.82
  -6  -5   1   28.39    1.80
   6  -5  -1   28.93    1.80
   6  -5  -1   28.43    1.80
   6  -5  -1   28.56    1.81
  -6   5   0   -0.01    0.11
  -6   5   0    0.08    0.08
  -6   5   0   -0.02    0.06
   6   5   0    0.07    0.11
   6   5   0    0.02    0.06
   6  -5   0   -0.09    0.09
  -6  -5   0   -0.03    0.11
   6  -5   0    0.04    0.07
   6  -5   0   -0.11    0.09
  -6  -5   0   -0.04    0.08
   6   5   1   29.68    1.85
   6   5   1   32.44    1.83
  -6   5  -1   29.22    1.85
  -6   5  -1   29.98    1.84
   6  -5   1   28.33    1.84
   6  -5   1   29.35    1.84
  -6  -5  -1   30.60    1.84
  -6  -5  -1   30.00    1.85
   6  -5   1   29.30    1.83
   6   5   2    0.27    0.09
  -6   5  -2    0.12    0.10
   6   5   2    0.17    0.12
  -6   5  -2    0.13    0.08
  -6   5  -2    0.19    0.10
   6  -5   2    0.11    0.09
  -6  -5  -2    0.24    0.13
  -6  -5  -2    0.21    0.10
  -6   5  -3   59.63    3.50
  -6   5  -3   61.59    3.50
   6   5   3   53.97    3.50
  -6   5  -3   57.81    3.49
   6   5   3   55.36    3.49
  -6  -5  -3   55.80    3.51
   6  -5   3   56.04    3.49
  -6  -5  -3   59.16    3.50
  -6   5  -4    0.02    0.09
  -6   5  -4    0.20    0.11
  -6   5  -4   -0.03    0.08
   6   5   4    0.02    0.14
   6  -5   4   -0.04    0.09
  -6  -5  -4   -0.02    0.11
  -6  -5  -4   -0.01    0.13
  -6   5  -5    4.05    0.32
   6   5   5    4.06    0.35
   6  -5   5    4.03    0.31
  -6  -5  -5    4.06    0.35
  -6  -5  -5    4.01    0.35
   6   5   6    0.01    0.16
  -6   5  -6    0.09    0.10
  -6  -5  -6    0.09    0.15
   6  -5   6    0.01    0.09
  -6   5  -7   16.29    0.97
   6   5   7   15.19    1.00
   6  -5   7   14.62    0.96
  -6  -5  -7   15.03    1.00
   6   5   8    0.10    0.18
  -6   5  -8    0.09    0.12
   6  -5   8    0.08    0.11
  -6  -5  -8   -0.03    0.18
   6   5   9    1.88    0.26
  -6   5  -9    2.27    0.26
  -6  -5  -9    2.03    0.27
  -6   6   8    2.21    0.31
  -6  -6   8    2.36    0.28
   6  -6  -8    1.53    0.29
  -6   6   7    0.13    0.22
   6  -6  -7   -0.06    0.21
  -6  -6   7    0.25    0.17
   6   6  -6   12.79    0.84
  -6   6   6   13.54    0.93
   6   6  -6   13.29    0.92
  -6  -6   6   14.36    0.91
   6  -6  -6   14.24    0.87
   6  -6  -6   12.97    0.91
   6   6  -5    0.06    0.08
  -6   6   5    0.09    0.17
   6  -6  -5    0.26    0.15
   6  -6  -5    0.22    0.12
  -6  -6   5   -0.01    0.15
   6  -6  -5    0.05    0.17
  -6   6   4   12.84    0.90
   6   6  -4   13.60    0.88
   6   6  -4   13.69    0.85
   6  -6  -4   13.37    0.89
   6  -6  -4   13.59    0.87
   6  -6  -4   13.33    0.86
  -6  -6   4   13.33    0.88
  -6   6   3    1.91    0.24
   6   6  -3    2.12    0.25
   6   6  -3    1.75    0.19
   6  -6  -3    2.00    0.23
   6  -6  -3    1.84    0.23
  -6  -6   3    2.13    0.25
   6  -6  -3    1.98    0.22
   6   6  -2   23.24    1.42
   6   6  -2   22.74    1.41
  -6   6   2   22.13    1.44
   6  -6  -2   22.91    1.42
   6  -6  -2   22.72    1.41
  -6  -6   2   22.78    1.43
   6  -6  -2   22.28    1.43
   6   6  -1    5.61    0.42
  -6   6   1    6.15    0.46
  -6   6   1    6.44    0.44
   6   6  -1    6.35    0.45
   6  -6  -1    6.33    0.45
   6  -6  -1    5.87    0.43
  -6  -6   1    6.15    0.46
   6  -6  -1    6.03    0.44
   6   6   0   34.02    2.01
  -6   6   0   33.37    2.00
   6   6   0   33.71    2.00
  -6   6   0   32.13    2.01
  -6  -6   0   32.58    2.02
   6  -6   0   30.98    2.00
  -6  -6   0   32.63    2.02
   6  -6   0   30.31    2.00
  -6   6  -1    5.72    0.42
  -6   6  -1    6.05    0.44
   6   6   1    5.52    0.44
  -6  -6  -1    6.31    0.45
   6  -6   1    5.91    0.42
  -6  -6  -1    6.03    0.43
  -6   6  -2   21.56    1.39
  -6   6  -2   22.36    1.39
   6   6   2   21.72    1.40
   6  -6   2   21.75    1.39
  -6  -6  -2   22.98    1.40
  -6  -6  -2   23.10    1.41
  -6   6  -3    2.05    0.22
  -6   6  -3    1.93    0.22
   6   6   3    2.11    0.26
   6  -6   3    2.01    0.23
  -6  -6  -3    2.26    0.26
  -6  -6  -3    2.15    0.26
  -6   6  -4   12.68    0.84
  -6   6  -4   13.54    0.85
   6   6   4   13.58    0.87
  -6  -6  -4   13.50    0.88
  -6  -6  -4   12.71    0.87
   6  -6   4   13.13    0.85
  -6   6  -5    0.16    0.14
   6   6   5    0.08    0.18
  -6  -6  -5    0.08    0.16
   6  -6   5    0.17    0.12
   6   6   6   14.11    0.91
   6  -6   6   12.97    0.86
  -6  -6  -6   13.29    0.90
   6   6   7    0.06    0.20
  -6  -6  -7    0.13    0.19
   6  -6   7    0.16    0.12
   6   6   8    2.15    0.29
   6  -6   8    2.52    0.25
  -6  -6  -8    1.85    0.28
  -6   7   7    1.34    0.29
  -6  -7   7    1.62    0.25
   6  -7  -7    1.13    0.28
   6   7  -6    0.13    0.09
   6   7  -6    0.42    0.21
  -6   7   6    0.27    0.23
   6  -7  -6   -0.08    0.21
  -6  -7   6    0.08    0.17
   6  -7  -6    0.11    0.13
  -6   7   5   15.73    1.03
   6   7  -5   15.03    0.95
   6  -7  -5   15.18    0.98
   6  -7  -5   14.36    0.96
   6  -7  -5   14.88    1.01
  -6  -7   5   15.09    1.00
   6   7  -4    0.95    0.14
  -6   7   4    0.67    0.23
   6   7  -4    1.04    0.19
   6  -7  -4    1.07    0.19
   6  -7  -4    1.00    0.20
  -6  -7   4    0.72    0.20
   6   7  -3    5.75    0.47
  -6   7   3    6.44    0.51
   6   7  -3    6.20    0.43
  -6  -7   3    6.41    0.49
   6  -7  -3    6.12    0.47
  -6   7   2    0.46    0.18
   6   7  -2    0.50    0.11
   6   7  -2    0.49    0.16
  -6  -7   2    0.35    0.17
   6  -7  -2    0.26    0.15
   6   7  -1   19.05    1.24
  -6   7   1   20.22    1.28
   6   7  -1   19.45    1.27
  -6  -7   1   20.74    1.28
   6  -7  -1   19.85    1.26
   6   7   0    0.04    0.15
  -6   7   0    0.15    0.16
  -6   7   0   -0.03    0.14
  -6  -7   0    0.05    0.16
   6  -7   0    0.10    0.14
  -6   7  -1   19.42    1.22
  -6   7  -1   20.13    1.20
   6   7   1   17.49    1.22
  -6  -7  -1   19.16    1.23
   6  -7   1   18.94    1.21
  -6   7  -2    0.35    0.11
  -6   7  -2    0.47    0.15
   6   7   2    0.31    0.17
   6  -7   2    0.45    0.15
  -6  -7  -2    0.23    0.17
   6   7   3    6.32    0.49
  -6   7  -3    6.09    0.46
  -6   7  -3    5.99    0.44
  -6  -7  -3    6.19    0.48
   6  -7   3    5.90    0.45
  -6  -7  -3    6.39    0.49
  -6   7  -4    1.01    0.17
   6   7   4    0.77    0.21
  -6  -7  -4    0.90    0.20
  -6  -7  -4    0.60    0.20
   6  -7   4    1.06    0.17
  -6   7  -5   15.58    1.00
   6   7   5   15.67    1.04
   6  -7   5   14.85    1.00
  -6  -7  -5   16.10    1.03
   6   7   6    0.23    0.22
   6  -7   6    0.20    0.14
  -6  -7  -6    0.10    0.19
   6   7   7    1.28    0.27
   6  -7   7    1.52    0.20
  -6  -7  -7    1.06    0.26
  -6   8   6    2.42    0.35
   6   8  -6    2.19    0.33
   6   8  -6    1.90    0.21
  -6  -8   6    2.12    0.29
   6  -8  -6    2.03    0.25
  -6   8   5    0.26    0.25
   6   8  -5    0.12    0.11
  -6  -8   5    0.07    0.19
  -6   8   4    7.16    0.59
   6   8  -4    6.65    0.48
  -6  -8   4    6.30    0.54
   6  -8  -4    7.07    0.54
   6   8  -3    0.90    0.20
  -6   8   3    1.29    0.26
   6   8  -3    0.82    0.16
  -6  -8   3    0.88    0.22
   6  -8  -3    1.11    0.21
  -6   8   2   13.89    0.96
   6   8  -2   13.80    0.92
   6  -8  -2   14.24    0.93
  -6  -8   2   13.47    0.94
   6   8  -1    0.97    0.21
  -6   8   1    1.00    0.23
   6  -8  -1    1.16    0.21
  -6  -8   1    0.76    0.22
   6   8   0    4.69    0.42
  -6   8   0    5.31    0.45
  -6  -8   0    5.18    0.44
   6  -8   0    4.28    0.40
   6   8   1    0.74    0.21
  -6   8  -1    1.23    0.22
  -6  -8  -1    0.72    0.22
   6  -8   1    0.85    0.19
  -6   8  -2   13.83    0.92
  -6   8  -2   13.44    0.89
   6   8   2   13.87    0.93
   6  -8   2   13.04    0.90
  -6  -8  -2   14.19    0.94
   6   8   3    0.94    0.23
  -6   8  -3    0.66    0.15
  -6   8  -3    0.87    0.19
   6  -8   3    1.00    0.19
  -6  -8  -3    0.97    0.23
   6   8   4    7.06    0.58
  -6   8  -4    6.35    0.50
   6  -8   4    6.48    0.51
  -6  -8  -4    7.37    0.56
  -6   8  -5    0.25    0.16
   6   8   5    0.05    0.22
   6  -8   5    0.11    0.15
   6   8   6    2.11    0.32
   6  -8   6    2.35    0.26
  -6   9   5    2.60    0.36
   6   9  -5    1.91    0.21
  -6  -9   5    1.74    0.30
  -6   9   4    0.40    0.27
   6   9  -4    0.51    0.16
   6  -9  -4    0.88    0.24
  -6  -9   4    0.67    0.23
  -6   9   3    6.25    0.56
   6   9  -3    5.43    0.49
  -6  -9   3    5.80    0.52
   6  -9  -3    5.68    0.51
   6   9  -2    0.61    0.21
  -6   9   2    0.35    0.26
  -6  -9   2    0.41    0.23
   6  -9  -2    0.32    0.21
   6   9  -1    5.87    0.49
  -6   9   1    5.71    0.53
   6  -9  -1    5.46    0.50
  -6  -9   1    5.81    0.52
   6   9   0   -0.08    0.20
  -6   9   0    0.19    0.21
   6  -9   0    0.05    0.19
  -6  -9   0   -0.17    0.22
   6   9   1    5.81    0.51
  -6   9  -1    5.84    0.52
  -6  -9  -1    5.76    0.52
   6  -9   1    5.91    0.50
  -6   9  -2    0.36    0.21
   6   9   2    0.55    0.24
  -6  -9  -2    0.47    0.24
   6  -9   2    0.65    0.20
  -6   9  -3    5.02    0.45
   6   9   3    5.90    0.54
  -6  -9  -3    5.74    0.53
   6  -9   3    5.82    0.47
  -6   9  -4    0.38    0.17
   6   9   4    0.41    0.25
   6  -9   4    0.47    0.19
  -6   9  -5    2.20    0.27
   6   9   5    2.21    0.35
   6  -9   5    2.25    0.28
  -6  10   3    0.02    0.28
   6 -10  -3    0.14    0.23
  -6 -10   3    0.12    0.24
  -6  10   2    2.13    0.34
   6  10  -2    1.79    0.29
   6 -10  -2    2.03    0.31
  -6 -10   2    1.77    0.32
   6  10  -1    0.06    0.22
  -6  10   1    0.28    0.26
  -6 -10   1    0.26    0.25
   6 -10  -1    0.05    0.23
  -6  10   0    7.09    0.61
   6  10   0    7.35    0.60
  -6 -10   0    6.68    0.61
   6 -10   0    6.91    0.58
  -6  10  -1    0.09    0.24
   6  10   1    0.00    0.23
  -6 -10  -1    0.01    0.25
   6 -10   1    0.05    0.21
   6  10   2    1.80    0.33
  -6  10  -2    1.69    0.30
  -6 -10  -2    2.12    0.33
   6 -10   2    1.58    0.27
   6  10   3    0.16    0.26
   6 -10   3    0.33    0.21
  -6 -10  -3    0.31    0.27
   7   0  -9   -0.72    0.41
   7   0  -9    0.39    0.21
  -7   0   9    0.16    0.20
   7   0  -8    1.70    0.26
  -7   0   8    0.57    0.25
   7   0  -8    0.82    0.49
   7   0  -7    0.15    0.37
  -7   0   7   -0.39    0.19
   7   0  -7    0.01    0.17
   7   0  -6    3.82    0.64
   7   0  -6    3.72    0.41
   7   0  -6    4.67    0.33
  -7   0   6    4.71    0.46
   7   0  -5    0.32    0.08
   7   0  -5    0.39    0.29
  -7   0   5    0.28    0.19
   7   0  -5    0.21    0.15
   7   0  -5    0.30    0.07
  -7   0   4   26.90    1.74
   7   0  -4   22.91    1.69
   7   0  -4   29.04    1.87
   7   0  -4   28.38    1.65
   7   0  -4   26.92    1.64
  -7   0   3    0.32    0.12
   7   0  -3    0.38    0.21
   7   0  -3    0.36    0.08
  -7   0   3    0.29    0.18
   7   0  -3    0.47    0.10
   7   0  -3    0.31    0.14
   7   0  -2   14.47    0.80
   7   0  -2   11.57    0.83
  -7   0   2   11.57    0.82
   7   0  -2   11.47    0.79
  -7   0   1    0.06    0.13
   7   0  -1    0.11    0.14
   7   0  -1   -0.02    0.10
  -7   0   1   -0.07    0.13
   7   0  -1   -0.04    0.10
   7   0  -1    0.04    0.11
   7   0   0  139.93    8.51
   7   0   0  144.56    8.56
  -7   0   0  135.18    8.52
   7   0   0  135.71    8.52
   7   0   0  147.59    8.52
  -7   0  -1    0.15    0.13
   7   0   1    0.09    0.08
   7   0   1    0.11    0.11
   7   0   1    0.02    0.09
  -7   0  -1    0.08    0.12
   7   0   1    0.06    0.12
   7   0   2   13.24    0.82
  -7   0  -2   12.07    0.83
   7   0   2   11.44    0.80
  -7   0  -3    0.46    0.09
  -7   0  -3    0.13    0.14
   7   0   3    0.10    0.12
   7   0   4   26.27    1.65
  -7   0  -4   28.15    1.57
   7   0   4   23.95    1.60
  -7   0  -4   24.40    1.62
   7   0   5   -0.10    0.13
  -7   0  -5    0.02    0.14
   7   0   5    0.13    0.13
   7   0   6    2.79    0.28
  -7   0  -6    2.79    0.34
   7   0   7    0.06    0.14
   7   1 -10   -0.87    0.51
   7   1 -10   -0.27    0.21
   7  -1 -10    0.60    0.26
   7   1  -9    0.86    0.56
  -7   1   9    1.62    0.25
   7  -1  -9    0.93    0.25
  -7  -1   9    0.40    0.29
   7   1  -8    0.85    0.47
  -7   1   8    0.59    0.20
   7   1  -8    0.00    0.18
   7  -1  -8    0.55    0.19
  -7  -1   8    0.28    0.26
   7  -1  -8   -0.63    0.38
   7   1  -7    3.65    0.39
  -7   1   7    4.05    0.40
   7   1  -7    4.38    0.73
   7  -1  -7    4.66    0.39
  -7  -1   7    3.14    0.43
   7   1  -6    2.84    0.32
  -7   1   6    1.92    0.28
   7   1  -6    2.31    0.50
   7  -1  -6    2.32    0.20
   7  -1  -6    2.95    0.29
   7   1  -5    5.76    0.37
   7   1  -5    5.28    0.35
   7   1  -5    5.98    0.71
   7   1  -5    5.79    0.45
  -7  -1   5    4.39    0.48
   7  -1  -5    5.27    0.36
   7  -1  -5    5.70    0.41
   7  -1  -5    5.10    0.35
   7   1  -4    2.95    0.22
   7   1  -4    2.79    0.52
   7   1  -4    2.91    0.23
   7   1  -4    2.80    0.30
   7  -1  -4    3.01    0.26
   7  -1  -4    2.29    0.20
  -7  -1   4    2.39    0.31
   7  -1  -4    2.22    0.20
  -7   1   3   26.39    1.61
   7   1  -3   25.77    1.65
   7   1  -3   23.98    1.83
   7  -1  -3   26.22    1.60
   7  -1  -3   26.94    1.62
  -7  -1   3   26.99    1.66
   7  -1  -3   26.03    1.60
   7   1  -2    1.32    0.19
   7   1  -2    1.26    0.17
   7   1  -2    0.91    0.29
  -7   1   2    1.65    0.18
   7   1  -2    1.33    0.19
   7  -1  -2    1.64    0.16
   7  -1  -2    1.87    0.20
   7  -1  -2    1.95    0.17
  -7  -1   2    1.37    0.21
   7   1  -1   34.39    2.13
  -7   1   1   27.20    2.09
   7  -1  -1   38.01    2.10
  -7  -1   1   37.62    2.14
  -7   1   0    0.06    0.10
  -7   1   0    0.06    0.10
   7   1   0   -0.16    0.09
   7   1   0    0.22    0.15
  -7   1   0   -0.07    0.07
   7   1   0   -0.01    0.11
   7  -1   0    0.06    0.10
   7  -1   0   -0.03    0.08
   7  -1   0    0.05    0.09
  -7  -1   0   -0.11    0.12
  -7  -1   0   -0.01    0.11
  -7   1  -1   31.51    2.02
   7   1   1   36.48    1.99
  -7   1  -1   34.64    2.00
  -7   1  -1   37.19    2.01
   7  -1   1   27.39    2.00
  -7  -1  -1   27.28    2.03
   7  -1   1   31.16    2.01
  -7   1  -2    1.18    0.14
   7   1   2    1.56    0.17
  -7   1  -2    1.53    0.16
  -7  -1  -2    1.72    0.18
   7  -1   2    1.49    0.19
  -7  -1  -2    1.49    0.22
  -7   1  -3   26.30    1.53
  -7   1  -3   22.10    1.56
   7   1   3   26.28    1.53
   7  -1   3   24.51    1.55
  -7  -1  -3   26.44    1.54
  -7  -1  -3   23.42    1.56
   7   1   4    2.13    0.19
  -7   1  -4    2.34    0.16
  -7   1  -4    2.20    0.25
   7   1   4    2.75    0.21
  -7  -1  -4    1.66    0.20
  -7  -1  -4    2.38    0.23
   7  -1   4    1.78    0.24
  -7   1  -5    3.71    0.39
   7   1   5    4.86    0.33
  -7  -1  -5    5.59    0.35
   7  -1   5    4.59    0.37
   7  -1   5    3.51    0.35
   7  -1   6    0.97    0.16
   7   1   7    3.98    0.29
  -7  -1  -7    3.51    0.32
   7  -1   7    2.99    0.27
   7   1   8    0.60    0.14
   7   2 -10    0.79    0.59
   7  -2 -10    1.17    0.28
  -7   2   9    0.26    0.20
   7   2  -9    0.58    0.50
  -7  -2   9    0.29    0.29
   7  -2  -9    0.65    0.22
  -7   2   8    3.29    0.36
   7   2  -8    2.82    0.64
   7  -2  -8    3.72    0.39
  -7   2   7    0.35    0.17
   7   2  -7    0.02    0.17
   7   2  -7    0.41    0.42
   7  -2  -7    0.24    0.15
  -7  -2   7    0.11    0.20
  -7   2   6    6.40    0.48
   7   2  -6    5.79    0.84
   7  -2  -6    6.00    0.45
  -7  -2   6    5.28    0.47
  -7  -2   6    6.56    0.50
   7  -2  -6    6.23    0.41
   7  -2  -6    5.82    0.39
   7   2  -5    0.02    0.33
   7   2  -5    0.11    0.10
   7   2  -5   -0.17    0.15
   7   2  -5    0.08    0.05
  -7   2   5    0.36    0.15
   7   2  -5    0.18    0.08
  -7  -2   5    0.26    0.14
   7  -2  -5    0.28    0.12
   7  -2  -5    0.13    0.09
  -7  -2   5   -0.09    0.12
   7  -2  -5    0.15    0.08
  -7   2   4    7.33    0.49
   7   2  -4    5.19    0.69
   7   2  -4    5.69    0.46
  -7  -2   4    6.76    0.46
   7  -2  -4    6.48    0.42
   7  -2  -4    6.20    0.45
   7  -2  -4    6.45    0.42
   7   2  -3    0.68    0.16
  -7   2   3    0.69    0.11
   7   2  -3    0.49    0.15
  -7   2   3    0.74    0.14
   7   2  -3    0.94    0.17
   7  -2  -3    0.77    0.10
  -7  -2   3    0.49    0.13
   7  -2  -3    0.72    0.10
   7  -2  -3    0.73    0.12
   7   2  -2   48.63    3.28
   7   2  -2   54.26    3.28
  -7   2   2   55.48    3.25
  -7  -2   2   54.96    3.25
   7  -2  -2   56.10    3.25
  -7  -2   2   52.86    3.27
   7  -2  -2   53.43    3.25
   7  -2  -2   52.16    3.26
   7   2  -1    1.37    0.18
  -7   2   1    1.71    0.19
  -7  -2   1    1.34    0.17
   7  -2  -1    1.53    0.15
  -7  -2   1    1.41    0.15
   7  -2  -1    1.75    0.16
   7  -2  -1    1.56    0.18
  -7   2   0   19.25    1.15
  -7   2   0   17.74    1.14
   7   2   0   17.47    1.14
  -7   2   0   17.83    1.14
   7  -2   0   18.27    1.13
  -7  -2   0   18.82    1.14
  -7  -2   0   19.55    1.15
  -7  -2   0   17.07    1.14
   7  -2   0   18.45    1.13
   7  -2   0   17.77    1.14
   7   2   1    1.49    0.16
  -7   2  -1    1.56    0.17
  -7   2  -1    1.59    0.19
  -7   2  -1    1.63    0.18
  -7  -2  -1    1.42    0.19
   7  -2   1    1.84    0.17
  -7  -2  -1    1.77    0.20
   7  -2   1    1.49    0.19
   7  -2   1    1.70    0.17
  -7   2  -2   56.84    3.41
  -7   2  -2   59.71    3.42
   7   2   2   52.92    3.41
   7  -2   2   57.43    3.41
  -7  -2  -2   52.54    3.42
  -7  -2  -2   54.25    3.43
   7  -2   2   60.94    3.42
  -7  -2  -2   54.81    3.44
  -7   2  -3    0.81    0.13
   7   2   3    0.70    0.11
  -7   2  -3    0.63    0.09
   7  -2   3    0.94    0.12
  -7  -2  -3    0.49    0.17
  -7   2  -4    7.27    0.46
   7   2   4    5.98    0.44
  -7   2  -4    5.97    0.42
  -7  -2  -4    6.87    0.46
   7  -2   4    7.38    0.44
  -7  -2  -4    5.98    0.49
   7   2   5    0.02    0.10
  -7   2  -5    0.32    0.12
  -7   2  -5    0.13    0.12
   7  -2   5    0.29    0.09
  -7  -2  -5   -0.12    0.11
  -7   2  -6    5.49    0.44
  -7   2  -6    5.97    0.42
   7   2   6    5.59    0.41
  -7  -2  -6    6.19    0.43
   7  -2   6    6.02    0.39
   7   2   7    0.08    0.11
  -7  -2  -7   -0.01    0.12
   7  -2   7    0.13    0.08
   7   2   8    2.72    0.26
  -7  -2  -8    3.05    0.30
  -7  -2  -8    2.61    0.29
  -7   3   9    2.07    0.28
   7   3  -9    1.93    0.65
   7  -3  -9    2.09    0.28
  -7  -3   9    1.50    0.35
   7   3  -8    0.45    0.53
  -7   3   8    0.38    0.20
   7  -3  -8    0.79    0.20
  -7  -3   8    0.43    0.24
  -7  -3   8    0.62    0.21
  -7   3   7    1.15    0.20
   7   3  -7    1.04    0.54
   7  -3  -7    1.21    0.19
  -7  -3   7    0.99    0.20
  -7   3   6    0.49    0.17
   7   3  -6   -0.10    0.39
  -7  -3   6    0.35    0.15
   7  -3  -6    0.51    0.15
   7  -3  -6    0.36    0.09
  -7   3   5   11.74    0.74
   7   3  -5   10.23    0.68
   7   3  -5    9.02    0.73
   7  -3  -5   11.61    0.73
   7  -3  -5   11.34    0.69
  -7  -3   5   11.07    0.73
   7  -3  -5   11.34    0.70
  -7   3   4    1.49    0.18
   7   3  -4    0.98    0.20
   7   3  -4    1.34    0.13
   7   3  -4    1.88    0.22
   7  -3  -4    1.09    0.16
  -7  -3   4    1.04    0.16
   7  -3  -4    1.14    0.13
   7  -3  -4    1.41    0.17
   7   3  -3    7.54    0.52
  -7   3   3    6.96    0.50
  -7   3   3    7.12    0.47
   7   3  -3    7.43    0.55
  -7  -3   3    6.84    0.49
   7  -3  -3    6.75    0.47
   7  -3  -3    6.78    0.48
   7  -3  -3    7.11    0.46
  -7   3   2    0.59    0.10
  -7   3   2    0.80    0.14
   7   3  -2    0.61    0.13
  -7  -3   2    0.60    0.12
   7  -3  -2    0.62    0.11
   7  -3  -2    0.71    0.10
  -7  -3   2    0.87    0.11
   7  -3  -2    0.62    0.12
   7   3  -1   25.63    1.59
  -7   3   1   23.34    1.58
  -7   3   1   26.73    1.60
   7  -3  -1   27.36    1.59
  -7  -3   1   25.56    1.60
   7  -3  -1   25.16    1.58
  -7  -3   1   26.12    1.58
   7  -3  -1   25.99    1.58
   7   3   0    0.25    0.10
  -7   3   0    0.26    0.08
  -7   3   0    0.41    0.10
  -7   3   0    0.30    0.09
   7  -3   0    0.43    0.10
   7  -3   0    0.43    0.08
  -7  -3   0    0.31    0.09
  -7  -3   0    0.23    0.10
   7  -3   0    0.50    0.09
  -7  -3   0    0.32    0.10
  -7   3  -1   27.01    1.60
   7   3   1   25.68    1.60
  -7   3  -1   25.43    1.60
  -7   3  -1   24.05    1.60
   7  -3   1   25.82    1.61
   7  -3   1   27.60    1.60
   7  -3   1   25.98    1.60
  -7  -3  -1   26.50    1.61
   7   3   2    0.53    0.11
  -7   3  -2    0.90    0.11
  -7   3  -2    0.68    0.11
  -7   3  -2    0.70    0.12
  -7  -3  -2    0.66    0.11
   7  -3   2    0.74    0.10
  -7  -3  -2    0.62    0.13
   7   3   3    6.62    0.47
  -7   3  -3    7.38    0.47
  -7   3  -3    5.74    0.49
  -7   3  -3    6.92    0.45
  -7  -3  -3    7.32    0.50
   7  -3   3    7.61    0.46
  -7  -3  -3    6.68    0.49
  -7  -3  -3    6.92    0.47
  -7   3  -4    1.59    0.18
   7   3   4    1.18    0.16
  -7   3  -4    1.14    0.13
  -7  -3  -4    1.40    0.21
   7  -3   4    1.34    0.15
  -7  -3  -4    1.13    0.15
  -7   3  -5   11.52    0.70
   7   3   5   10.62    0.70
   7  -3   5   11.16    0.68
  -7  -3  -5    9.25    0.74
  -7  -3  -5   10.71    0.70
  -7   3  -6    0.54    0.12
   7   3   6    0.36    0.13
  -7   3  -6    0.41    0.21
  -7  -3  -6    0.41    0.13
   7  -3   6    0.49    0.09
  -7   3  -7    1.15    0.15
   7   3   7    1.04    0.16
  -7  -3  -7    1.05    0.17
   7  -3   7    1.04    0.12
   7   3   8    0.54    0.16
   7  -3   8    0.42    0.14
  -7  -3  -8    0.46    0.16
  -7  -3  -9    1.76    0.22
  -7   4   9   -0.01    0.21
   7   4  -9    0.46    0.62
  -7  -4   9   -0.46    0.27
  -7  -4   9    0.13    0.22
   7  -4  -9    0.18    0.22
   7   4  -8    2.34    0.75
  -7   4   8    2.19    0.29
   7  -4  -8    2.13    0.28
  -7  -4   8    2.39    0.30
  -7   4   7    0.30    0.19
   7   4  -7   -0.12    0.43
   7  -4  -7    0.15    0.18
  -7  -4   7    0.21    0.17
   7   4  -6    2.64    0.24
  -7   4   6    2.78    0.32
   7   4  -6    2.54    0.20
   7  -4  -6    2.84    0.23
  -7  -4   6    2.65    0.29
   7  -4  -6    2.65    0.32
   7   4  -5    0.11    0.07
   7   4  -5    0.16    0.15
   7   4  -5    0.30    0.17
  -7   4   5    0.37    0.16
   7  -4  -5    0.15    0.14
  -7  -4   5    0.11    0.13
   7  -4  -5    0.16    0.10
   7  -4  -5    0.10    0.11
  -7   4   4   12.00    0.76
   7   4  -4   12.16    0.71
   7   4  -4    8.83    0.79
   7   4  -4   11.38    0.77
  -7  -4   4   11.21    0.75
   7  -4  -4   11.69    0.75
   7  -4  -4   10.93    0.73
   7  -4  -4   11.32    0.72
  -7   4   3    1.34    0.18
   7   4  -3    1.26    0.18
   7   4  -3    1.30    0.14
   7  -4  -3    1.49    0.17
   7  -4  -3    1.18    0.17
   7  -4  -3    1.10    0.15
  -7  -4   3    1.31    0.18
   7   4  -2    6.51    0.42
  -7   4   2    6.55    0.46
  -7   4   2    6.36    0.44
   7   4  -2    6.68    0.45
  -7  -4   2    6.09    0.43
   7  -4  -2    6.45    0.43
   7  -4  -2    6.41    0.45
  -7  -4   2    6.35    0.46
   7  -4  -2    6.06    0.43
   7   4  -1    2.91    0.24
  -7   4   1    2.45    0.24
  -7   4   1    2.35    0.22
  -7  -4   1    2.67    0.22
   7  -4  -1    2.28    0.21
  -7  -4   1    2.63    0.25
   7  -4  -1    2.28    0.23
   7  -4  -1    2.37    0.22
  -7   4   0   26.65    1.61
  -7   4   0   26.32    1.61
  -7   4   0   24.40    1.62
   7   4   0   27.35    1.62
   7  -4   0   26.12    1.62
  -7  -4   0   24.33    1.62
   7  -4   0   26.37    1.61
   7  -4   0   26.94    1.61
  -7  -4   0   26.62    1.61
   7   4   1    2.27    0.23
  -7   4  -1    2.51    0.22
  -7   4  -1    2.84    0.24
  -7  -4  -1    2.03    0.25
   7  -4   1    2.55    0.21
  -7  -4  -1    2.35    0.23
   7  -4   1    2.60    0.23
   7  -4   1    2.88    0.23
  -7   4  -2    6.42    0.43
   7   4   2    6.36    0.44
  -7   4  -2    6.65    0.44
  -7   4  -2    6.15    0.43
  -7  -4  -2    5.94    0.43
  -7  -4  -2    6.04    0.44
   7  -4   2    6.13    0.43
  -7   4  -3    1.25    0.14
  -7   4  -3    1.33    0.16
  -7   4  -3    1.05    0.14
   7   4   3    1.23    0.16
  -7  -4  -3    1.03    0.17
  -7  -4  -3    1.04    0.15
   7  -4   3    1.07    0.14
   7   4   4   11.08    0.75
  -7   4  -4   10.98    0.73
  -7   4  -4   11.53    0.74
  -7  -4  -4   11.30    0.75
  -7  -4  -4   12.68    0.77
   7  -4   4   11.51    0.73
  -7   4  -5    0.21    0.10
   7   4   5    0.17    0.13
  -7  -4  -5    0.19    0.17
  -7  -4  -5    0.26    0.14
   7  -4   5    0.24    0.10
  -7  -4  -5    0.10    0.12
  -7   4  -6    2.77    0.25
   7   4   6    3.03    0.29
  -7  -4  -6    2.90    0.30
   7  -4   6    2.50    0.23
   7   4   7    0.10    0.15
  -7   4  -7    0.27    0.11
  -7  -4  -7    0.07    0.15
   7  -4   7    0.22    0.10
  -7   4  -8    2.13    0.23
   7   4   8    2.19    0.28
   7  -4   8    1.78    0.20
  -7  -4  -8    2.19    0.24
   7   4   9    0.10    0.18
  -7  -4  -9   -0.15    0.17
   7   5  -9    0.50    0.65
  -7   5   9    0.49    0.25
  -7  -5   9    0.48    0.25
   7  -5  -9    0.29    0.25
   7   5  -8   -0.31    0.56
  -7   5   8   -0.05    0.21
   7  -5  -8   -0.09    0.21
  -7  -5   8    0.21    0.19
  -7   5   7    4.03    0.42
   7  -5  -7    4.56    0.44
  -7  -5   7    3.92    0.39
   7  -5  -7    3.97    0.31
   7   5  -6   -0.19    0.15
   7   5  -6    0.11    0.07
  -7   5   6    0.26    0.19
   7  -5  -6    0.01    0.18
  -7  -5   6    0.11    0.16
   7  -5  -6    0.25    0.12
   7   5  -5    1.24    0.22
   7   5  -5    0.74    0.22
   7   5  -5    0.94    0.12
  -7   5   5    1.13    0.21
   7  -5  -5    0.70    0.18
   7  -5  -5    0.95    0.16
   7  -5  -5    0.89    0.15
  -7  -5   5    0.96    0.19
   7   5  -4    0.24    0.15
  -7   5   4    0.22    0.16
   7   5  -4    0.19    0.08
  -7  -5   4    0.19    0.14
   7  -5  -4    0.08    0.15
   7  -5  -4    0.21    0.11
   7  -5  -4    0.17    0.13
  -7   5   3   11.70    0.75
   7   5  -3   10.73    0.72
   7   5  -3   10.18    0.73
   7   5  -3   10.98    0.70
  -7  -5   3   11.22    0.74
   7  -5  -3   11.01    0.74
   7  -5  -3   11.57    0.73
   7  -5  -3   10.81    0.71
   7   5  -2    0.11    0.08
  -7   5   2   -0.04    0.11
  -7   5   2    0.10    0.13
   7   5  -2    0.05    0.12
  -7  -5   2    0.07    0.12
   7  -5  -2    0.03    0.12
   7  -5  -2    0.10    0.11
   7  -5  -2    0.18    0.10
   7   5  -1    5.02    0.36
  -7   5   1    5.50    0.40
  -7   5   1    4.64    0.36
   7   5  -1    5.14    0.35
   7   5  -1    4.53    0.37
   7  -5  -1    4.92    0.36
   7  -5  -1    5.11    0.38
  -7  -5   1    5.20    0.36
   7  -5  -1    4.72    0.36
   7   5   0    0.13    0.06
   7   5   0    0.22    0.12
  -7   5   0    0.16    0.08
  -7   5   0    0.19    0.10
  -7   5   0    0.24    0.12
   7  -5   0    0.17    0.11
   7  -5   0    0.30    0.11
  -7  -5   0    0.19    0.13
  -7  -5   0    0.25    0.09
   7  -5   0    0.22    0.09
   7   5   1    5.05    0.35
   7   5   1    4.95    0.39
  -7   5  -1    5.08    0.37
  -7   5  -1    5.24    0.38
  -7  -5  -1    5.09    0.38
   7  -5   1    4.89    0.37
   7  -5   1    5.42    0.36
  -7  -5  -1    4.75    0.39
  -7   5  -2    0.06    0.11
   7   5   2    0.13    0.13
   7   5   2    0.14    0.07
  -7   5  -2    0.08    0.10
  -7   5  -2    0.08    0.10
  -7  -5  -2    0.05    0.11
  -7  -5  -2   -0.01    0.13
   7  -5   2    0.12    0.10
  -7   5  -3   11.30    0.72
  -7   5  -3   10.75    0.71
   7   5   3   10.67    0.73
  -7   5  -3   10.90    0.71
   7  -5   3   10.88    0.71
  -7  -5  -3   11.14    0.73
  -7  -5  -3   11.26    0.74
  -7   5  -4    0.18    0.09
  -7   5  -4    0.29    0.11
  -7   5  -4    0.25    0.13
   7   5   4    0.11    0.15
   7  -5   4    0.14    0.10
  -7  -5  -4    0.09    0.13
  -7  -5  -4    0.04    0.15
  -7   5  -5    0.85    0.14
   7   5   5    0.68    0.18
  -7   5  -5    0.80    0.19
  -7  -5  -5    0.90    0.20
  -7  -5  -5    1.09    0.18
   7  -5   5    1.01    0.14
  -7   5  -6    0.10    0.11
   7   5   6    0.18    0.16
   7  -5   6    0.15    0.11
  -7  -5  -6   -0.04    0.15
   7   5   7    4.12    0.39
  -7   5  -7    4.09    0.34
  -7  -5  -7    4.48    0.40
   7  -5   7    4.04    0.33
   7   5   8    0.04    0.19
  -7   5  -8    0.08    0.12
  -7  -5  -8   -0.16    0.18
   7  -5   8   -0.04    0.11
   7   5   9    0.63    0.21
  -7   5  -9    0.70    0.16
  -7  -5  -9    0.53    0.21
   7   6  -8    0.85    0.71
  -7   6   8    0.61    0.26
  -7  -6   8    0.96    0.23
   7  -6  -8    0.58    0.26
  -7   6   7   -0.10    0.22
   7  -6  -7   -0.15    0.22
   7  -6  -7   -0.12    0.12
  -7  -6   7    0.06    0.18
  -7   6   6    3.94    0.42
   7   6  -6    3.29    0.26
   7   6  -6    3.75    0.39
  -7  -6   6    3.51    0.36
   7  -6  -6    3.03    0.41
   7  -6  -6    3.43    0.31
  -7   6   5    0.11    0.19
   7   6  -5    0.15    0.22
   7   6  -5    0.13    0.09
  -7  -6   5    0.16    0.17
   7  -6  -5    0.07    0.16
   7  -6  -5    0.16    0.13
   7  -6  -5   -0.17    0.17
   7   6  -4    2.85    0.30
  -7   6   4    2.81    0.35
   7   6  -4    2.55    0.24
  -7  -6   4    2.63    0.30
   7  -6  -4    2.97    0.29
   7  -6  -4    2.57    0.34
   7  -6  -4    2.85    0.28
   7   6  -3    0.54    0.12
  -7   6   3    0.40    0.18
   7   6  -3    0.49    0.16
  -7  -6   3    0.39    0.16
   7  -6  -3    0.27    0.16
   7  -6  -3    0.34    0.13
   7  -6  -3    0.29    0.15
   7   6  -2    5.29    0.40
  -7   6   2    6.41    0.48
   7   6  -2    5.75    0.43
   7  -6  -2    6.01    0.45
  -7  -6   2    5.68    0.45
   7  -6  -2    5.71    0.43
   7  -6  -2    5.52    0.42
   7   6  -1    2.06    0.25
  -7   6   1    1.95    0.23
   7   6  -1    1.95    0.20
  -7   6   1    2.37    0.28
  -7  -6   1    1.99    0.24
   7  -6  -1    2.47    0.24
  -7   6   0    4.05    0.36
   7   6   0    3.92    0.30
  -7   6   0    3.96    0.32
   7   6   0    4.27    0.35
   7  -6   0    3.93    0.33
  -7  -6   0    3.93    0.35
   7   6   1    2.43    0.28
  -7   6  -1    2.07    0.27
  -7   6  -1    1.99    0.23
  -7  -6  -1    2.14    0.24
  -7  -6  -1    2.25    0.27
   7  -6   1    1.94    0.23
   7   6   2    6.12    0.46
  -7   6  -2    5.86    0.44
  -7   6  -2    5.77    0.42
   7  -6   2    5.51    0.42
  -7  -6  -2    6.03    0.44
  -7  -6  -2    5.58    0.45
  -7   6  -3    0.48    0.14
  -7   6  -3    0.56    0.14
   7   6   3    0.21    0.16
   7  -6   3    0.47    0.13
  -7  -6  -3    0.47    0.15
  -7  -6  -3    0.32    0.17
  -7   6  -4    2.33    0.25
   7   6   4    2.70    0.30
  -7   6  -4    2.71    0.28
   7  -6   4    2.47    0.26
  -7  -6  -4    2.62    0.31
  -7  -6  -4    2.68    0.31
  -7   6  -5    0.22    0.17
   7   6   5   -0.05    0.18
   7  -6   5    0.22    0.12
  -7  -6  -5   -0.04    0.16
   7   6   6    3.67    0.37
  -7  -6  -6    3.49    0.37
   7  -6   6    3.03    0.30
   7   6   7    0.08    0.20
   7  -6   7   -0.08    0.12
  -7  -6  -7   -0.12    0.19
   7   6   8    1.05    0.24
  -7  -6  -8    0.82    0.23
   7  -6   8    0.91    0.16
  -7   7   7    0.61    0.28
  -7  -7   7    0.62    0.22
   7  -7  -7    0.19    0.25
   7   7  -6    0.09    0.20
   7   7  -6   -0.02    0.09
  -7   7   6    0.12    0.23
  -7  -7   6   -0.13    0.18
   7  -7  -6   -0.10    0.14
   7  -7  -6   -0.57    0.35
   7   7  -5    4.41    0.33
  -7   7   5    4.29    0.47
  -7  -7   5    3.96    0.42
   7  -7  -5    3.99    0.37
   7  -7  -5    4.73    0.39
   7   7  -4    0.32    0.12
  -7   7   4    0.21    0.21
   7   7  -4    0.16    0.16
  -7  -7   4    0.09    0.17
   7  -7  -4    0.25    0.18
  -7   7   3    1.28    0.24
   7   7  -3    1.33    0.16
   7   7  -3    1.22    0.21
   7  -7  -3    0.76    0.19
  -7  -7   3    0.92    0.21
   7   7  -2    0.06    0.10
  -7   7   2    0.19    0.19
   7   7  -2    0.04    0.15
  -7  -7   2    0.10    0.17
   7  -7  -2    0.08    0.15
   7   7  -1    3.09    0.34
  -7   7   1    3.82    0.37
   7  -7  -1    3.68    0.33
  -7  -7   1    3.60    0.36
   7   7   0    0.01    0.16
  -7   7   0    0.08    0.17
  -7  -7   0   -0.12    0.17
   7  -7   0    0.09    0.14
   7   7   1    3.63    0.34
  -7   7  -1    3.16    0.30
  -7   7  -1    3.21    0.34
   7  -7   1    3.23    0.31
  -7  -7  -1    3.28    0.37
  -7   7  -2    0.08    0.13
   7   7   2    0.00    0.16
  -7   7  -2    0.07    0.16
  -7  -7  -2    0.02    0.17
   7  -7   2    0.16    0.14
  -7   7  -3    1.05    0.17
  -7   7  -3    1.12    0.18
   7   7   3    1.06    0.22
  -7  -7  -3    1.07    0.22
   7  -7   3    1.33    0.19
   7   7   4    0.24    0.21
  -7   7  -4    0.27    0.15
  -7  -7  -4    0.21    0.17
  -7  -7  -4    0.40    0.19
   7  -7   4    0.18    0.14
   7   7   5    4.18    0.42
  -7   7  -5    4.36    0.39
   7  -7   5    4.05    0.36
  -7  -7  -5    4.58    0.43
   7   7   6   -0.11    0.21
  -7  -7  -6   -0.20    0.21
   7  -7   6    0.20    0.15
   7   7   7    0.48    0.24
   7  -7   7    0.73    0.17
  -7  -7  -7    0.36    0.23
   7   8  -6    1.13    0.26
  -7   8   6    0.86    0.28
   7   8  -6    0.70    0.12
  -7  -8   6    0.66    0.24
   7   8  -5    0.11    0.11
  -7   8   5    0.08    0.24
  -7  -8   5   -0.25    0.19
  -7   8   4    2.31    0.32
   7   8  -4    1.81    0.20
  -7  -8   4    1.78    0.28
   7  -8  -4    1.97    0.27
  -7   8   3    0.72    0.24
   7   8  -3    0.60    0.20
   7   8  -3    0.55    0.15
  -7  -8   3    0.61    0.22
   7  -8  -3    0.68    0.21
  -7   8   2    3.00    0.39
   7   8  -2    2.68    0.35
   7  -8  -2    2.88    0.34
  -7  -8   2    2.82    0.37
   7   8  -1    0.50    0.20
  -7   8   1    0.44    0.23
  -7  -8   1    0.50    0.22
   7  -8  -1    0.30    0.18
  -7   8   0    1.76    0.27
   7   8   0    1.69    0.25
  -7  -8   0    1.48    0.26
   7  -8   0    1.85    0.25
  -7   8  -1    0.32    0.20
   7   8   1    0.46    0.21
  -7  -8  -1    0.35    0.21
   7  -8   1    0.55    0.18
  -7   8  -2    2.96    0.32
  -7   8  -2    2.67    0.30
   7   8   2    2.58    0.32
  -7  -8  -2    2.70    0.33
   7  -8   2    2.66    0.32
  -7   8  -3    0.55    0.15
  -7   8  -3    0.67    0.19
   7   8   3    0.53    0.24
   7  -8   3    0.62    0.19
  -7  -8  -3    0.64    0.23
  -7   8  -4    2.01    0.25
   7   8   4    2.00    0.31
  -7  -8  -4    2.08    0.30
   7  -8   4    2.25    0.26
   7   8   5   -0.06    0.24
  -7   8  -5   -0.13    0.17
   7  -8   5   -0.05    0.15
   7   8   6    0.90    0.29
   7  -8   6    0.96    0.20
  -7   9   5    0.76    0.30
   7   9  -5    0.49    0.14
  -7  -9   5    0.49    0.24
  -7   9   4    0.41    0.28
  -7  -9   4    0.09    0.21
   7  -9  -4    0.10    0.23
  -7   9   3    2.26    0.34
   7   9  -3    1.82    0.28
  -7  -9   3    1.83    0.30
   7  -9  -3    1.98    0.29
   7   9  -2    0.13    0.20
  -7   9   2    0.28    0.25
   7  -9  -2    0.35    0.23
  -7  -9   2    0.01    0.23
   7   9  -1    1.15    0.25
  -7   9   1    1.41    0.30
  -7  -9   1    1.11    0.28
   7  -9  -1    1.30    0.25
   7   9   0   -0.14    0.20
  -7   9   0   -0.14    0.22
  -7  -9   0   -0.22    0.22
   7  -9   0    0.17    0.20
   7   9   1    1.36    0.28
  -7   9  -1    1.56    0.27
   7  -9   1    1.29    0.25
  -7  -9  -1    1.35    0.28
  -7   9  -2    0.20    0.20
   7   9   2    0.00    0.22
  -7  -9  -2    0.31    0.24
   7  -9   2    0.21    0.19
   7   9   3    2.08    0.32
   7  -9   3    2.29    0.28
  -7  -9  -3    1.84    0.32
   7   9   4   -0.21    0.25
  -7   9  -4   -0.20    0.17
   7  -9   4    0.11    0.18
   7   9   5    0.53    0.28
  -7   9  -5    0.51    0.20
   7  -9   5    0.60    0.20
   7  10  -2    0.44    0.24
  -7  10   2    0.56    0.29
   7 -10  -2    0.70    0.25
  -7 -10   2    0.48    0.26
  -7  10   1    0.30    0.27
   7  10  -1    0.18    0.24
  -7 -10   1    0.12    0.25
   7 -10  -1    0.16    0.23
   7  10   0    2.45    0.33
  -7  10   0    2.31    0.34
   7 -10   0    1.93    0.30
  -7 -10   0    1.51    0.33
   7  10   1   -0.06    0.25
  -7  10  -1    0.18    0.24
  -7 -10  -1    0.10    0.26
   7 -10   1    0.09    0.21
   7  10   2    0.48    0.27
   7 -10   2    0.68    0.23
  -7 -10  -2    0.70    0.29
  -8   0   9   -0.14    0.22
   8   0  -9   -0.59    0.45
   8   0  -8   10.89    0.76
   8   0  -8    8.12    1.04
  -8   0   7   -0.20    0.22
   8   0  -7    0.38    0.21
   8   0  -7    0.47    0.41
   8   0  -6   37.69    2.61
  -8   0   6   38.61    2.43
   8   0  -5    0.14    0.17
   8   0  -5    0.30    0.30
   8   0  -5    0.17    0.08
  -8   0   5    0.31    0.21
   8   0  -5    0.31    0.10
   8   0  -4   72.73    4.71
   8   0  -4   75.61    4.51
   8   0  -4   74.56    4.52
  -8   0   4   75.02    4.60
   8   0  -3    0.40    0.11
   8   0  -3    0.35    0.23
  -8   0   3    0.27    0.19
   8   0  -3    0.27    0.09
  -8   0   3    0.27    0.14
   8   0  -3    0.13    0.14
  -8   0   2    0.52    0.19
  -8   0   2    0.68    0.16
   8   0  -2    0.23    0.11
   8   0  -2    0.78    0.23
   8   0  -2    0.56    0.16
   8   0  -1   -0.01    0.11
   8   0  -1    0.10    0.11
   8   0  -1    0.07    0.15
  -8   0   1    0.02    0.16
   8   0  -1    0.19    0.12
  -8   0   1    0.31    0.09
   8   0   0  112.01    6.72
   8   0   0  110.34    6.71
  -8   0   0  115.99    6.72
   8   0   0  116.61    6.77
  -8   0   0  101.48    6.74
   8   0   0  107.27    6.72
  -8   0  -1    0.17    0.14
  -8   0  -1   -0.01    0.13
   8   0   1    0.07    0.09
   8   0   1    0.13    0.13
   8   0   1    0.03    0.12
   8   0   1    0.08    0.09
   8   0   2    0.69    0.16
  -8   0  -2    0.73    0.18
   8   0   2    0.82    0.16
   8   0   3    0.11    0.13
  -8   0  -3    0.32    0.10
  -8   0  -3    0.02    0.15
  -8   0  -4   52.61    3.04
   8   0   4   45.73    3.02
   8   0   5    0.03    0.14
  -8   0  -5   -0.27    0.16
   8   0   6   35.16    1.90
  -8   0  -6   25.29    1.91
   8   0   7    0.25    0.15
  -8   0  -7    0.11    0.19
   8   0   8    9.68    0.66
   8   1 -10   -0.38    0.53
   8   1  -9    9.69    1.10
   8  -1  -9    6.59    0.70
  -8  -1   9    8.22    0.72
  -8   1   8    2.10    0.29
   8   1  -8    1.67    0.27
   8   1  -8    2.27    0.57
  -8  -1   8    1.52    0.33
   8  -1  -8    1.71    0.28
   8   1  -7   26.18    1.78
  -8   1   7   23.71    1.79
   8   1  -7   32.08    2.11
  -8  -1   7   29.56    1.85
   8  -1  -7   29.53    1.78
   8   1  -6    7.27    0.55
   8   1  -6    7.05    0.77
   8  -1  -6    6.68    0.43
   8  -1  -6    7.13    0.48
   8  -1  -6    6.60    0.52
  -8  -1   6    5.38    0.61
   8   1  -5   27.95    1.82
   8   1  -5   29.49    2.05
   8   1  -5   30.70    1.76
   8   1  -5   29.86    1.77
   8  -1  -5   28.31    1.80
   8  -1  -5   28.87    1.76
   8  -1  -5   26.51    1.76
   8   1  -4   14.59    1.14
   8   1  -4   14.72    0.92
   8   1  -4   12.75    0.86
   8  -1  -4   14.17    0.85
   8  -1  -4   11.20    1.05
  -8  -1   4   11.19    0.93
   8  -1  -4   14.16    0.85
   8  -1  -4   14.63    0.89
   8   1  -3   55.33    3.27
   8   1  -3   52.32    3.46
   8   1  -3   45.23    3.24
  -8   1   3   54.72    3.24
   8  -1  -3   59.89    3.23
   8  -1  -3   48.13    3.39
   8  -1  -3   56.69    3.23
   8  -1  -3   55.96    3.25
  -8  -1   3   48.75    3.29
   8   1  -2   10.92    0.67
   8   1  -2    7.45    0.80
   8   1  -2   10.34    0.66
   8   1  -2    9.11    0.67
  -8   1   2    9.71    0.64
   8  -1  -2    9.88    0.63
  -8  -1   2    9.43    0.70
   8  -1  -2    9.50    0.65
   8  -1  -2   10.10    0.63
   8   1  -1   30.89    1.79
   8   1  -1   24.05    1.89
   8   1  -1   25.35    1.78
   8   1  -1   30.33    1.80
  -8  -1   1   28.08    1.82
   8  -1  -1   31.82    1.79
   8  -1  -1   29.79    1.77
   8  -1  -1   28.24    1.76
  -8   1   0   -0.06    0.09
   8   1   0   -0.32    0.11
   8   1   0    0.18    0.13
  -8   1   0   -0.17    0.11
   8   1   0   -0.21    0.10
   8  -1   0    0.11    0.12
  -8  -1   0    0.16    0.13
  -8  -1   0    0.00    0.16
   8  -1   0   -0.22    0.12
   8  -1   0   -0.17    0.10
  -8   1  -1   27.10    1.65
   8  -1   1   25.56    1.65
  -8   1  -2    9.50    0.59
   8   1   2    8.49    0.59
  -8   1  -2    7.42    0.61
   8  -1   2    9.79    0.62
   8  -1   2    8.46    0.60
  -8  -1  -2    8.56    0.65
  -8  -1  -2    9.76    0.61
  -8   1  -3   50.22    3.20
  -8   1  -3   51.31    3.23
   8   1   3   51.18    3.21
  -8  -1  -3   53.35    3.22
   8  -1   3   54.03    3.22
  -8  -1  -3   56.30    3.25
  -8   1  -4   12.34    0.88
   8   1   4   13.56    0.84
  -8   1  -4   13.14    0.82
  -8  -1  -4   13.45    0.86
   8  -1   4   13.34    0.86
   8   1   5   26.80    1.59
  -8   1  -5   25.09    1.62
  -8  -1  -5   26.52    1.60
   8  -1   5   24.26    1.60
  -8   1  -6    4.29    0.47
   8   1   6    6.46    0.42
  -8  -1  -6    6.46    0.45
   8   1   7   30.35    1.85
  -8  -1  -7   29.39    1.86
   8   1   8    2.40    0.28
   8   2 -10    3.59    0.79
   8   2  -9    0.80    0.53
  -8   2   9    0.63    0.24
   8  -2  -9    0.84    0.24
  -8  -2   9    0.31    0.32
   8   2  -8   22.30    1.79
  -8   2   8   21.27    1.41
   8  -2  -8   21.78    1.41
  -8   2   7    1.15    0.23
   8   2  -7    0.85    0.48
   8   2  -7    0.03    0.20
  -8  -2   7    0.57    0.26
   8  -2  -7    1.26    0.20
   8   2  -6   31.45    1.95
   8   2  -6   30.55    2.31
  -8   2   6   32.42    2.02
   8  -2  -6   32.22    1.95
   8  -2  -6   36.59    2.01
   8  -2  -6   30.50    1.99
  -8  -2   6   30.46    2.04
  -8   2   5    0.41    0.17
   8   2  -5    0.05    0.31
   8   2  -5    0.40    0.11
   8   2  -5   -0.39    0.16
   8   2  -5   -0.04    0.12
   8   2  -5    0.18    0.06
   8  -2  -5    0.27    0.09
  -8  -2   5    0.47    0.18
   8  -2  -5    0.26    0.10
   8  -2  -5    0.31    0.14
  -8  -2   5    0.25    0.15
   8   2  -4   22.79    1.37
  -8   2   4   19.64    1.39
  -8  -2   4   21.66    1.38
   8  -2  -4   21.16    1.34
   8  -2  -4   22.71    1.34
  -8  -2   4   22.76    1.39
   8  -2  -4   21.20    1.36
  -8   2   3    1.33    0.20
   8   2  -3    1.56    0.21
  -8   2   3    1.19    0.15
   8   2  -3    1.81    0.22
   8   2  -3    1.03    0.22
   8  -2  -3    1.64    0.16
  -8  -2   3    1.85    0.22
   8  -2  -3    1.48    0.17
  -8  -2   3    1.43    0.19
   8  -2  -3    1.42    0.17
  -8   2   2   97.33    5.56
  -8   2   2   85.43    5.58
   8   2  -2   81.83    5.58
  -8  -2   2   93.64    5.58
  -8  -2   2   86.23    5.57
   8  -2  -2   94.99    5.55
  -8  -2   2   92.03    5.55
   8  -2  -2   94.77    5.56
   8  -2  -2   98.58    5.55
   8   2  -1    9.52    0.67
   8   2  -1   11.77    0.70
  -8   2   1   10.02    0.67
  -8  -2   1   10.41    0.65
   8  -2  -1   10.34    0.64
   8  -2  -1    9.12    0.64
  -8  -2   1   10.32    0.67
  -8  -2   1    8.62    0.66
   8  -2  -1    9.56    0.65
  -8   2   0    0.62    0.12
  -8   2   0    0.86    0.14
   8   2   0    0.78    0.13
  -8   2   0    0.62    0.11
  -8  -2   0    0.53    0.13
  -8  -2   0    0.76    0.15
  -8  -2   0    0.68    0.13
   8  -2   0    0.58    0.09
   8  -2   0    0.76    0.13
   8  -2   0    0.72    0.11
   8   2   1    9.18    0.64
  -8   2  -1    9.05    0.66
  -8   2  -1   10.63    0.65
  -8   2  -1    9.98    0.65
  -8  -2  -1   10.27    0.68
  -8  -2  -1    9.43    0.66
   8  -2   1   10.00    0.64
   8  -2   1   10.05    0.64
   8  -2   1    9.43    0.66
  -8   2  -2   95.37    5.90
  -8   2  -2   95.73    5.89
   8   2   2   98.13    5.89
   8  -2   2   98.72    5.89
  -8  -2  -2   98.25    5.90
  -8   2  -3    1.38    0.18
  -8   2  -3    1.64    0.15
   8   2   3    1.22    0.15
   8  -2   3    1.65    0.18
  -8  -2  -3    1.31    0.17
  -8  -2  -3    0.84    0.21
   8   2   4   20.50    1.30
  -8   2  -4   22.18    1.28
  -8   2  -4   20.31    1.32
  -8  -2  -4   21.01    1.31
   8  -2   4   20.70    1.30
  -8  -2  -4   20.38    1.34
  -8   2  -5    0.39    0.14
   8   2   5    0.30    0.12
   8  -2   5    0.40    0.11
  -8  -2  -5    0.11    0.13
  -8  -2  -5    0.24    0.12
   8   2   6   29.96    1.90
  -8   2  -6   30.49    1.91
  -8  -2  -6   32.12    1.91
   8  -2   6   31.44    1.90
  -8  -2  -6   30.63    1.91
  -8   2  -7    1.00    0.16
   8   2   7    0.95    0.16
   8  -2   7    0.98    0.13
  -8  -2  -7    1.10    0.18
  -8  -2  -7    1.07    0.18
   8   2   8   21.11    1.35
  -8  -2  -8   21.31    1.36
  -8  -2  -8   22.10    1.35
  -8  -2  -9    0.37    0.17
  -8  -2  -9    0.45    0.19
  -8   3   9   10.75    0.78
   8   3  -9   12.06    1.28
   8  -3  -9   10.87    0.80
  -8  -3   9    8.93    0.86
   8   3  -8    0.73    0.56
  -8   3   8    0.56    0.21
  -8  -3   8    0.84    0.28
   8  -3  -8    0.87    0.24
   8   3  -7   11.03    1.26
  -8   3   7   11.98    0.83
   8  -3  -7   11.15    0.82
  -8  -3   7   13.21    0.88
  -8  -3   7   12.31    0.84
   8   3  -6    2.60    0.68
   8   3  -6    3.66    0.28
  -8   3   6    4.50    0.38
   8  -3  -6    3.82    0.36
   8  -3  -6    3.69    0.28
  -8  -3   6    2.98    0.36
  -8   3   5   64.54    3.96
   8   3  -5   57.30    4.26
   8   3  -5   66.02    3.92
   8   3  -5   67.36    3.95
   8  -3  -5   68.20    3.92
  -8  -3   5   59.82    3.96
   8  -3  -5   65.78    3.95
   8  -3  -5   67.37    3.93
   8   3  -4    4.60    0.39
   8   3  -4    3.79    0.28
  -8   3   4    4.20    0.36
   8   3  -4    4.11    0.38
   8  -3  -4    3.86    0.30
  -8  -3   4    3.73    0.34
   8  -3  -4    3.77    0.31
   8  -3  -4    3.88    0.34
  -8   3   3   14.37    0.91
  -8   3   3   14.09    0.88
   8   3  -3   12.15    0.92
  -8  -3   3   14.09    0.90
   8  -3  -3   13.54    0.89
   8  -3  -3   14.05    0.88
   8  -3  -3   14.54    0.87
   8   3  -2    1.50    0.19
  -8   3   2    1.72    0.21
  -8   3   2    1.17    0.15
  -8  -3   2    1.52    0.17
  -8  -3   2    1.46    0.18
   8  -3  -2    1.21    0.16
   8  -3  -2    1.40    0.16
   8  -3  -2    1.35    0.17
  -8   3   1   59.51    3.37
   8   3  -1   52.18    3.36
  -8   3   1   56.08    3.35
   8  -3  -1   54.01    3.35
  -8  -3   1   53.08    3.35
  -8  -3   1   52.44    3.36
   8  -3  -1   57.05    3.35
   8  -3  -1   56.29    3.36
  -8   3   0    0.31    0.08
  -8   3   0    0.21    0.11
  -8   3   0    0.29    0.10
   8   3   0    0.15    0.10
   8  -3   0    0.38    0.09
   8  -3   0    0.22    0.10
  -8  -3   0    0.20    0.11
  -8  -3   0    0.19    0.08
   8  -3   0    0.27    0.08
  -8   3  -1   53.59    3.23
  -8   3  -1   52.40    3.23
   8   3   1   52.11    3.23
  -8   3  -1   49.07    3.23
  -8  -3  -1   55.33    3.23
   8  -3   1   53.14    3.22
   8  -3   1   54.37    3.23
  -8  -3  -1   53.77    3.24
   8  -3   1   54.37    3.23
  -8  -3  -1   51.74    3.24
  -8   3  -2    1.62    0.18
  -8   3  -2    1.73    0.19
  -8   3  -2    1.45    0.17
   8   3   2    1.19    0.16
  -8  -3  -2    1.22    0.18
  -8  -3  -2    1.46    0.18
   8  -3   2    1.57    0.16
  -8   3  -3   14.95    0.89
   8   3   3   12.82    0.88
  -8   3  -3   13.12    0.87
  -8  -3  -3   13.86    0.89
   8  -3   3   14.41    0.88
  -8  -3  -3   15.26    0.93
  -8  -3  -3   13.12    0.91
   8   3   4    3.80    0.32
  -8   3  -4    4.03    0.29
  -8   3  -4    4.54    0.33
  -8  -3  -4    4.39    0.34
   8  -3   4    4.25    0.30
  -8  -3  -4    3.37    0.40
   8   3   5   64.74    3.99
  -8   3  -5   69.80    4.00
  -8  -3  -5   65.46    4.00
   8  -3   5   69.89    3.99
  -8  -3  -5   58.28    4.03
  -8   3  -6    3.78    0.32
   8   3   6    3.62    0.31
   8  -3   6    3.54    0.28
  -8  -3  -6    3.76    0.33
  -8   3  -7   12.40    0.74
   8   3   7   10.49    0.74
  -8  -3  -7   11.05    0.75
   8  -3   7   11.23    0.72
  -8   3  -8    0.74    0.14
   8   3   8    0.52    0.16
  -8  -3  -8    0.42    0.17
   8  -3   8    0.44    0.11
  -8  -3  -9   10.36    0.69
  -8  -3  -9    9.31    0.71
   8   4  -9    1.33    0.71
  -8   4   9    1.16    0.27
   8  -4  -9    0.97    0.28
  -8  -4   9    1.09    0.33
  -8   4   8   12.02    0.86
   8   4  -8   11.31    1.38
   8  -4  -8   11.25    0.85
  -8  -4   8   12.46    0.90
  -8  -4   8   12.73    0.87
  -8   4   7    1.00    0.23
   8   4  -7    0.25    0.54
  -8  -4   7    0.23    0.19
   8  -4  -7    0.77    0.21
   8  -4  -7    0.57    0.11
   8   4  -6   18.46    1.10
  -8   4   6   17.88    1.17
  -8  -4   6   17.57    1.16
   8  -4  -6   17.91    1.16
   8  -4  -6   17.46    1.11
   8   4  -5    0.01    0.07
  -8   4   5    0.24    0.17
   8   4  -5    0.03    0.17
   8   4  -5    0.00    0.16
   8  -4  -5   -0.02    0.15
  -8  -4   5   -0.01    0.14
   8  -4  -5    0.03    0.11
   8  -4  -5   -0.11    0.12
   8   4  -4   48.77    2.93
   8   4  -4   43.75    2.98
  -8   4   4   49.53    2.97
   8  -4  -4   49.58    2.94
   8  -4  -4   50.32    2.94
  -8  -4   4   45.90    2.96
   8  -4  -4   49.05    2.96
  -8   4   3    3.73    0.31
   8   4  -3    3.84    0.35
  -8   4   3    4.21    0.36
   8   4  -3    3.96    0.28
   8  -4  -3    3.95    0.31
  -8  -4   3    3.31    0.33
   8  -4  -3    4.07    0.30
   8  -4  -3    3.85    0.33
  -8   4   2   20.74    1.33
   8   4  -2   22.57    1.34
  -8   4   2   21.38    1.35
  -8  -4   2   20.49    1.34
   8  -4  -2   21.75    1.32
   8  -4  -2   20.76    1.32
   8  -4  -2   21.31    1.34
  -8  -4   2   21.18    1.32
  -8   4   1   13.41    0.88
  -8   4   1   14.56    0.90
   8   4  -1   13.43    0.88
   8  -4  -1   14.29    0.89
   8  -4  -1   13.67    0.87
   8  -4  -1   13.00    0.87
  -8  -4   1   14.06    0.88
  -8   4   0   68.50    4.24
   8   4   0   68.21    4.24
  -8   4   0   69.67    4.25
   8  -4   0   67.06    4.23
   8  -4   0   72.78    4.23
  -8  -4   0   68.90    4.24
  -8  -4   0   69.94    4.25
   8  -4   0   72.96    4.25
  -8   4  -1   14.29    0.86
   8   4   1   12.94    0.86
  -8   4  -1   13.42    0.86
  -8  -4  -1   12.38    0.87
  -8  -4  -1   14.39    0.86
   8  -4   1   13.08    0.85
   8  -4   1   12.42    0.86
   8  -4   1   14.11    0.85
  -8   4  -2   22.18    1.36
  -8   4  -2   22.34    1.36
  -8   4  -2   22.19    1.36
   8   4   2   20.79    1.36
  -8  -4  -2   21.84    1.37
  -8  -4  -2   22.04    1.36
   8  -4   2   20.84    1.35
  -8   4  -3    4.14    0.34
  -8   4  -3    3.95    0.31
  -8   4  -3    4.14    0.31
   8   4   3    3.66    0.32
  -8  -4  -3    4.07    0.33
  -8  -4  -3    3.73    0.34
   8  -4   3    3.82    0.30
  -8   4  -4   47.30    3.00
   8   4   4   47.25    3.00
  -8   4  -4   47.71    2.99
  -8  -4  -4   50.26    3.01
  -8  -4  -4   51.75    3.04
   8  -4   4   49.26    2.99
  -8  -4  -4   50.52    3.03
  -8   4  -5    0.07    0.10
   8   4   5    0.07    0.14
  -8  -4  -5    0.04    0.13
   8  -4   5    0.03    0.10
  -8  -4  -5    0.11    0.19
   8   4   6   16.87    1.14
  -8   4  -6   18.40    1.13
  -8  -4  -6   18.00    1.15
   8  -4   6   18.43    1.12
   8   4   7    0.47    0.17
  -8   4  -7    0.67    0.14
   8  -4   7    0.42    0.12
  -8  -4  -7    0.36    0.17
   8   4   8   12.15    0.78
  -8   4  -8   12.11    0.76
   8  -4   8   10.61    0.74
  -8  -4  -8   11.42    0.79
  -8   4  -9    0.87    0.16
   8   4   9    1.04    0.25
  -8  -4  -9    0.95    0.22
  -8   5   8    0.36    0.25
   8   5  -8    0.21    0.61
   8  -5  -8    0.14    0.24
  -8  -5   8    0.48    0.22
  -8   5   7   25.29    1.56
   8   5  -7   22.23    2.04
  -8  -5   7   24.19    1.55
   8  -5  -7   24.62    1.49
   8  -5  -7   23.76    1.55
  -8   5   6    0.25    0.20
   8   5  -6   -0.13    0.15
   8   5  -6    0.04    0.08
   8  -5  -6    0.10    0.12
  -8  -5   6   -0.08    0.16
   8  -5  -6    0.02    0.18
   8   5  -5    6.58    0.58
   8   5  -5    7.52    0.60
   8   5  -5    8.30    0.50
  -8   5   5    7.14    0.57
   8  -5  -5    7.29    0.51
   8  -5  -5    7.41    0.53
  -8  -5   5    7.55    0.56
   8  -5  -5    7.73    0.58
   8   5  -4    0.04    0.16
   8   5  -4    0.19    0.22
  -8   5   4    0.10    0.18
   8   5  -4   -0.03    0.07
  -8  -5   4   -0.07    0.15
   8  -5  -4    0.08    0.12
   8  -5  -4    0.04    0.14
   8  -5  -4   -0.01    0.16
  -8   5   3   65.93    4.04
   8   5  -3   66.79    4.04
   8   5  -3   69.22    4.01
   8  -5  -3   69.11    4.04
   8  -5  -3   64.03    4.02
  -8  -5   3   59.38    4.04
   8  -5  -3   67.85    4.02
   8   5  -2    0.23    0.13
  -8   5   2    0.07    0.10
  -8   5   2    0.20    0.15
   8   5  -2    0.19    0.08
   8  -5  -2    0.22    0.13
   8  -5  -2    0.05    0.13
  -8  -5   2    0.14    0.15
   8  -5  -2    0.33    0.11
   8   5  -1   28.15    1.67
   8   5  -1   26.75    1.65
  -8   5   1   26.80    1.66
  -8   5   1   27.81    1.68
  -8  -5   1   26.65    1.68
   8  -5  -1   27.10    1.67
   8  -5  -1   25.85    1.65
   8  -5  -1   25.11    1.66
   8   5   0    0.20    0.13
  -8   5   0    0.25    0.10
  -8   5   0    0.33    0.15
   8   5   0    0.12    0.07
  -8  -5   0    0.22    0.15
   8  -5   0    0.06    0.16
   8  -5   0    0.09    0.10
   8  -5   0    0.19    0.12
  -8  -5   0    0.19    0.11
   8   5   1   28.33    1.68
  -8   5  -1   27.99    1.70
  -8   5  -1   28.16    1.69
   8   5   1   25.16    1.69
   8  -5   1   26.86    1.68
  -8  -5  -1   25.75    1.70
   8  -5   1   27.18    1.68
  -8  -5  -1   28.13    1.69
  -8   5  -2    0.14    0.10
  -8   5  -2    0.30    0.12
  -8   5  -2    0.19    0.12
   8   5   2    0.23    0.14
   8  -5   2    0.19    0.11
  -8  -5  -2    0.10    0.14
  -8  -5  -2    0.06    0.13
   8   5   3   67.51    4.02
  -8   5  -3   63.42    4.01
  -8   5  -3   65.71    4.02
  -8   5  -3   65.49    4.01
  -8  -5  -3   69.06    4.02
  -8  -5  -3   66.00    4.03
   8  -5   3   63.97    4.00
  -8   5  -4   -0.10    0.15
  -8   5  -4   -0.07    0.10
  -8   5  -4    0.12    0.11
   8   5   4    0.03    0.15
  -8  -5  -4   -0.02    0.14
  -8  -5  -4    0.03    0.15
   8  -5   4   -0.01    0.11
  -8   5  -5    7.93    0.53
   8   5   5    6.98    0.55
  -8  -5  -5    7.72    0.56
   8  -5   5    7.93    0.53
  -8   5  -6    0.08    0.11
   8   5   6   -0.11    0.17
   8  -5   6    0.04    0.11
  -8  -5  -6    0.00    0.16
  -8   5  -7   23.55    1.50
   8   5   7   23.82    1.52
   8  -5   7   23.39    1.49
  -8  -5  -7   25.25    1.52
  -8   5  -8    0.43    0.14
   8   5   8    0.44    0.20
  -8  -5  -8    0.51    0.21
   8  -5   8    0.27    0.12
  -8   6   8    4.24    0.48
   8   6  -8    3.65    0.91
  -8  -6   8    5.34    0.48
   8  -6  -8    3.37    0.42
  -8   6   7    0.30    0.24
  -8  -6   7    0.18    0.20
   8  -6  -7   -0.21    0.23
   8  -6  -7    0.13    0.14
   8   6  -6   18.63    1.18
  -8   6   6   17.52    1.25
   8   6  -6   19.60    1.25
  -8  -6   6   18.32    1.24
   8  -6  -6   20.25    1.20
   8  -6  -6   19.34    1.25
   8   6  -5    0.12    0.20
   8   6  -5   -0.04    0.09
  -8   6   5    0.12    0.20
  -8  -6   5   -0.06    0.18
   8  -6  -5    0.10    0.13
   8  -6  -5   -0.08    0.19
   8  -6  -5    0.17    0.16
  -8   6   4   16.58    1.20
   8   6  -4   20.04    1.20
   8   6  -4   18.82    1.16
   8  -6  -4   18.73    1.18
   8  -6  -4   18.66    1.17
   8  -6  -4   17.98    1.20
  -8  -6   4   17.99    1.20
   8   6  -3    3.53    0.29
   8   6  -3    3.56    0.35
  -8   6   3    3.57    0.38
  -8  -6   3    3.43    0.35
   8  -6  -3    3.96    0.32
   8  -6  -3    3.92    0.39
   8  -6  -3    3.58    0.34
  -8   6   2   30.49    1.96
   8   6  -2   30.83    1.94
   8   6  -2   31.49    1.92
  -8  -6   2   32.09    1.95
   8  -6  -2   30.88    1.93
  -8   6   1    6.68    0.51
   8   6  -1    6.34    0.45
   8   6  -1    6.74    0.49
   8  -6  -1    6.36    0.48
  -8  -6   1    7.04    0.51
   8   6   0   38.73    2.35
  -8   6   0   36.99    2.35
   8   6   0   36.51    2.34
  -8   6   0   39.21    2.34
  -8  -6   0   37.21    2.36
   8  -6   0   38.90    2.34
  -8   6  -1    7.58    0.51
   8   6   1    6.19    0.50
  -8   6  -1    6.99    0.49
  -8  -6  -1    6.90    0.52
   8  -6   1    6.50    0.48
  -8   6  -2   31.03    1.91
  -8   6  -2   32.07    1.92
   8   6   2   30.35    1.92
   8  -6   2   29.68    1.91
  -8  -6  -2   30.80    1.93
  -8  -6  -2   30.68    1.91
   8   6   3    3.84    0.34
  -8   6  -3    3.27    0.31
  -8   6  -3    3.45    0.33
  -8  -6  -3    3.71    0.35
  -8  -6  -3    3.56    0.37
   8  -6   3    3.50    0.31
  -8   6  -4   18.42    1.18
   8   6   4   18.45    1.18
  -8  -6  -4   17.42    1.18
  -8  -6  -4   18.44    1.20
   8  -6   4   18.72    1.16
  -8   6  -5   -0.32    0.17
   8   6   5   -0.09    0.19
   8  -6   5    0.15    0.13
  -8  -6  -5   -0.14    0.17
   8   6   6   20.61    1.28
   8  -6   6   18.83    1.24
  -8  -6  -6   19.63    1.28
   8   6   7    0.07    0.21
   8  -6   7    0.20    0.14
  -8  -6  -7    0.41    0.21
   8   6   8    4.59    0.45
  -8  -6  -8    4.12    0.47
   8  -6   8    4.27    0.37
  -8   7   7    2.93    0.38
  -8  -7   7    3.15    0.40
   8  -7  -7    3.02    0.31
  -8   7   6    0.53    0.27
   8   7  -6    0.57    0.23
   8   7  -6    0.11    0.10
  -8  -7   6    0.22    0.21
   8  -7  -6    0.26    0.16
   8   7  -5   25.00    1.62
   8   7  -5   25.38    1.52
  -8   7   5   24.33    1.59
   8  -7  -5   23.49    1.54
  -8  -7   5   23.74    1.57
  -8   7   4    0.62    0.24
   8   7  -4    0.60    0.19
   8   7  -4    0.48    0.11
  -8  -7   4    0.38    0.20
   8  -7  -4    0.44    0.19
   8   7  -3   11.57    0.82
  -8   7   3   11.25    0.84
   8   7  -3   12.37    0.79
  -8  -7   3   13.08    0.84
   8  -7  -3   11.69    0.81
   8   7  -2    0.65    0.13
  -8   7   2    1.00    0.23
   8   7  -2    0.75    0.19
  -8  -7   2    1.24    0.23
   8  -7  -2    1.09    0.20
   8   7  -1   31.17    1.96
  -8   7   1   31.04    1.97
   8  -7  -1   30.60    1.95
  -8  -7   1   32.33    1.97
   8   7   0    0.33    0.18
  -8   7   0    0.40    0.19
   8  -7   0    0.31    0.16
  -8  -7   0    0.28    0.19
  -8   7  -1   30.67    1.91
  -8   7  -1   28.50    1.89
   8   7   1   31.27    1.92
  -8  -7  -1   30.54    1.92
   8  -7   1   31.38    1.90
   8   7   2    0.99    0.21
  -8   7  -2    0.94    0.19
  -8   7  -2    0.86    0.20
   8  -7   2    0.93    0.18
  -8  -7  -2    0.97    0.23
  -8   7  -3   11.84    0.81
  -8   7  -3   12.72    0.81
   8   7   3   12.12    0.83
   8  -7   3   12.33    0.81
  -8  -7  -3   11.25    0.83
  -8   7  -4    0.69    0.18
   8   7   4    0.35    0.22
  -8  -7  -4    0.32    0.20
   8  -7   4    0.58    0.17
  -8  -7  -4    0.37    0.19
   8   7   5   23.00    1.51
  -8   7  -5   23.20    1.51
  -8  -7  -5   24.35    1.52
   8  -7   5   23.82    1.49
   8   7   6    0.27    0.23
   8  -7   6    0.26    0.15
  -8  -7  -6    0.16    0.21
   8   7   7    3.15    0.41
   8  -7   7    3.28    0.33
  -8  -7  -7    3.01    0.36
   8   8  -6    3.92    0.49
   8   8  -6    4.57    0.34
  -8   8   6    3.68    0.45
  -8  -8   6    4.98    0.48
   8   8  -5    0.40    0.13
  -8   8   5    0.36    0.27
  -8  -8   5    0.28    0.22
   8   8  -4   11.64    0.80
  -8   8   4   12.10    0.89
   8  -8  -4   11.99    0.83
  -8  -8   4   13.04    0.88
  -8   8   3    0.70    0.26
   8   8  -3    0.67    0.21
  -8  -8   3    0.61    0.23
   8  -8  -3    0.71    0.22
   8   8  -2   21.38    1.39
  -8   8   2   22.61    1.43
   8  -8  -2   21.84    1.39
  -8  -8   2   20.93    1.41
  -8   8   1    2.49    0.32
   8   8  -1    1.85    0.27
  -8  -8   1    1.67    0.28
   8  -8  -1    2.08    0.27
  -8   8   0   11.48    0.80
   8   8   0   10.49    0.77
   8  -8   0   11.22    0.76
  -8  -8   0   10.84    0.80
  -8   8  -1    2.02    0.29
   8   8   1    2.14    0.29
   8  -8   1    1.81    0.25
  -8  -8  -1    2.05    0.30
  -8   8  -2   23.11    1.41
   8   8   2   21.39    1.42
   8  -8   2   21.06    1.40
  -8  -8  -2   22.20    1.44
  -8   8  -3    0.77    0.23
   8   8   3    0.50    0.24
  -8   8  -3    0.66    0.18
   8  -8   3    0.57    0.19
  -8  -8  -3    0.49    0.23
   8   8   4   12.54    0.88
  -8   8  -4   12.52    0.85
   8  -8   4   12.63    0.84
  -8  -8  -4   11.69    0.90
  -8   8  -5    0.35    0.20
   8   8   5    0.44    0.24
   8  -8   5    0.26    0.18
   8   8   6    4.53    0.50
   8  -8   6    4.21    0.39
  -8   9   4    1.28    0.34
  -8  -9   4    1.20    0.29
   8  -9  -4    1.10    0.26
  -8   9   3   10.66    0.82
   8   9  -3   10.47    0.75
  -8  -9   3   10.13    0.78
   8  -9  -3   10.37    0.77
  -8   9   2    0.19    0.26
   8   9  -2    0.47    0.22
   8  -9  -2    0.43    0.23
  -8  -9   2    0.46    0.25
   8   9  -1   10.62    0.78
  -8   9   1   11.69    0.84
  -8  -9   1   10.98    0.81
   8  -9  -1   10.42    0.78
   8   9   0    0.06    0.21
  -8   9   0    0.22    0.25
  -8  -9   0    0.07    0.25
   8  -9   0    0.31    0.21
   8   9   1   11.01    0.79
  -8   9  -1   11.15    0.80
  -8  -9  -1   10.96    0.81
   8  -9   1   10.00    0.76
  -8   9  -2    0.42    0.23
   8   9   2    0.33    0.24
   8  -9   2    0.46    0.21
  -8  -9  -2    0.36    0.26
   8   9   3   10.69    0.78
   8  -9   3    9.67    0.73
  -8  -9  -3   10.43    0.80
   8   9   4    1.30    0.31
  -8   9  -4    0.65    0.21
   8  -9   4    1.01    0.23
   8  10  -1    0.06    0.25
  -8  10   1    0.48    0.29
  -8 -10   1    0.30    0.27
   8 -10  -1    0.31    0.25
   8  10   0   10.89    0.82
  -8  10   0   11.62    0.84
  -8 -10   0   11.42    0.86
   8 -10   0   10.57    0.81
   8  10   1    0.37    0.27
  -8  10  -1    0.14    0.26
   8 -10   1    0.50    0.23
  -8 -10  -1    0.32    0.29
   9   0  -9   -0.26    0.46
   9   0  -8    1.13    0.26
   9   0  -8    0.38    0.47
  -9   0   8   -0.62    0.24
   9   0  -7    0.31    0.39
   9   0  -7    0.40    0.21
  -9   0   7    0.06    0.24
   9   0  -6    3.97    0.64
   9   0  -6    3.57    0.25
  -9   0   6    3.57    0.42
   9   0  -6    2.39    0.35
   9   0  -5    0.03    0.18
   9   0  -5    0.12    0.27
   9   0  -5    0.21    0.11
  -9   0   5    0.00    0.19
   9   0  -5    0.02    0.09
  -9   0   4    4.19    0.44
   9   0  -4    3.80    0.30
   9   0  -4    2.83    0.40
   9   0  -4    4.33    0.56
   9   0  -4    4.09    0.31
   9   0  -3   -0.04    0.12
   9   0  -3    0.21    0.24
   9   0  -3    0.04    0.10
  -9   0   3    0.05    0.17
   9   0  -3    0.19    0.15
  -9   0   3    0.45    0.16
  -9   0   2    0.29    0.16
   9   0  -2    0.64    0.23
  -9   0   2    0.47    0.19
   9   0  -2    0.14    0.13
   9   0  -2    0.63    0.17
   9   0  -2    0.01    0.10
   9   0  -1    0.16    0.17
  -9   0   1    0.18    0.16
   9   0  -1    0.14    0.12
   9   0  -1    0.28    0.14
   9   0  -1   -0.05    0.11
   9   0   0   21.82    1.30
  -9   0   0   21.16    1.30
  -9   0   0   19.78    1.32
   9   0   0   18.33    1.28
   9   0   0   19.51    1.29
   9   0   0   21.13    1.34
  -9   0  -1    0.13    0.16
   9   0   1    0.24    0.11
  -9   0  -1    0.09    0.11
   9   0   1    0.07    0.10
   9   0   1    0.13    0.12
   9   0   1    0.29    0.14
  -9   0  -2    0.13    0.14
  -9   0  -2    0.51    0.17
   9   0   2    0.62    0.15
   9   0   2    0.60    0.15
   9   0   3    0.05    0.14
  -9   0  -3   -0.04    0.10
  -9   0  -3   -0.07    0.15
   9   0   4    3.39    0.33
  -9   0  -4    3.52    0.27
  -9   0  -4    3.03    0.38
  -9   0  -5    0.13    0.19
   9   0   5   -0.01    0.15
  -9   0  -6    2.78    0.33
   9   0   6    3.25    0.32
   9   0   7   -0.09    0.15
  -9   0  -7    0.17    0.21
   9   0   8    0.03    0.17
  -9   0  -8    0.22    0.22
   9   1  -9    1.10    0.58
   9   1  -9    0.32    0.24
  -9   1   9    0.64    0.25
   9  -1  -9    0.52    0.28
  -9  -1   9    0.32    0.30
  -9   1   8    0.21    0.23
   9   1  -8    0.41    0.20
   9   1  -8    0.31    0.45
  -9  -1   8    0.00    0.27
   9  -1  -8    0.06    0.23
   9   1  -7    1.55    0.46
   9   1  -7    1.68    0.25
   9  -1  -7    0.63    0.40
  -9  -1   7    1.66    0.34
   9  -1  -7    1.34    0.25
   9   1  -6    0.54    0.10
   9   1  -6    0.78    0.20
   9   1  -6    0.73    0.39
  -9  -1   6    0.29    0.25
   9  -1  -6    0.61    0.10
   9  -1  -6    1.09    0.21
   9  -1  -6    0.26    0.36
   9   1  -5    1.60    0.21
   9   1  -5    1.75    0.25
   9   1  -5    1.88    0.44
   9   1  -5    1.88    0.20
   9  -1  -5    1.63    0.18
   9  -1  -5    1.68    0.24
   9  -1  -5    1.03    0.36
   9  -1  -5    1.84    0.20
   9   1  -4    1.37    0.36
   9   1  -4    1.06    0.17
  -9   1   4    0.83    0.25
   9   1  -4    1.77    0.24
   9  -1  -4    1.69    0.18
   9  -1  -4    1.29    0.20
  -9  -1   4    0.66    0.24
   9  -1  -4    1.63    0.17
   9  -1  -4    1.44    0.37
  -9   1   3    6.56    0.49
   9   1  -3    5.48    0.49
   9   1  -3    7.23    0.72
   9   1  -3    6.62    0.49
   9   1  -3    7.38    0.52
   9  -1  -3    6.94    0.47
   9  -1  -3    7.68    0.47
   9  -1  -3    7.17    0.51
  -9  -1   3    4.96    0.56
   9  -1  -3    7.18    0.67
  -9   1   2    0.91    0.17
   9   1  -2    1.24    0.18
   9   1  -2    1.16    0.17
   9   1  -2    0.78    0.28
   9   1  -2    1.20    0.19
  -9   1   2    0.38    0.20
   9  -1  -2    0.95    0.25
   9  -1  -2    0.88    0.18
   9  -1  -2    0.88    0.12
  -9  -1   2    0.75    0.22
   9  -1  -2    0.96    0.14
   9   1  -1    4.10    0.32
  -9   1   1    2.17    0.32
   9   1  -1    3.42    0.44
   9  -1  -1    2.77    0.28
   9  -1  -1    3.14    0.37
   9  -1  -1    3.24    0.28
  -9  -1   1    2.77    0.35
   9  -1  -1    3.83    0.33
   9   1   0    0.13    0.13
   9   1   0    0.01    0.16
   9   1   0   -0.27    0.11
  -9   1   0    0.11    0.15
   9   1   0   -0.14    0.12
  -9  -1   0   -0.20    0.16
   9  -1   0   -0.35    0.12
   9  -1   0   -0.28    0.10
   9  -1   0    0.31    0.13
  -9  -1   0    0.22    0.14
  -9   1  -1    2.39    0.30
   9   1   1    2.97    0.35
  -9   1  -1    4.46    0.36
   9   1   1    4.33    0.34
  -9   1  -1    2.84    0.31
   9   1   1    3.36    0.32
  -9  -1  -1    3.77    0.38
   9  -1   1    3.36    0.30
   9  -1   1    3.62    0.32
   9   1   2    0.73    0.15
  -9   1  -2    0.84    0.18
  -9   1  -2    1.07    0.16
   9   1   2    0.83    0.17
   9  -1   2    1.29    0.21
  -9  -1  -2    1.26    0.22
   9  -1   2    1.16    0.17
  -9  -1  -2    0.95    0.18
  -9   1  -3    6.71    0.47
   9   1   3    6.39    0.48
  -9   1  -3    6.62    0.52
  -9  -1  -3    6.86    0.52
   9  -1   3    7.11    0.49
  -9  -1  -3    7.22    0.51
   9   1   4    1.27    0.18
  -9   1  -4    1.38    0.22
  -9   1  -4    1.51    0.16
  -9  -1  -4    1.39    0.20
   9  -1   4    1.68    0.20
  -9   1  -5    1.29    0.22
   9   1   5    1.32    0.19
  -9  -1  -5    1.54    0.21
  -9  -1  -5    1.31    0.16
   9  -1   5    1.31    0.19
  -9   1  -6    0.17    0.18
   9   1   6    0.51    0.16
  -9  -1  -6    0.57    0.19
   9  -1   6    0.38    0.15
   9   1   7    1.37    0.20
  -9  -1  -7    1.35    0.24
   9  -1   7    0.10    0.16
   9   1   8    0.34    0.16
   9  -1   8   -0.11    0.12
  -9  -1  -8   -0.17    0.16
  -9  -1  -8   -0.28    0.21
  -9   2   9    0.45    0.24
   9   2  -9    0.26    0.52
  -9  -2   9    0.04    0.32
   9  -2  -9    0.78    0.28
   9   2  -8    2.13    0.59
  -9   2   8    1.87    0.30
  -9  -2   8    1.24    0.36
   9  -2  -8    1.69    0.28
   9   2  -7    0.21    0.44
  -9   2   7    0.40    0.22
   9  -2  -7    0.27    0.19
  -9  -2   7    0.08    0.25
  -9   2   6    1.22    0.25
   9   2  -6    1.02    0.13
   9   2  -6    1.06    0.46
   9   2  -6    1.15    0.13
  -9  -2   6    0.95    0.28
   9  -2  -6    1.03    0.20
   9  -2  -6    1.00    0.13
   9   2  -5    0.06    0.33
   9   2  -5   -0.53    0.17
  -9   2   5    0.27    0.19
   9   2  -5    0.02    0.11
   9  -2  -5    0.12    0.15
   9  -2  -5    0.07    0.10
   9  -2  -5   -0.01    0.11
  -9  -2   5    0.02    0.19
   9   2  -4    1.92    0.23
  -9   2   4    1.32    0.23
   9   2  -4    1.07    0.43
   9   2  -4    1.45    0.21
   9  -2  -4    1.67    0.20
  -9  -2   4    1.70    0.25
   9  -2  -4    1.57    0.21
  -9  -2   4    1.48    0.23
   9  -2  -4    2.00    0.19
   9   2  -3    0.34    0.15
   9   2  -3    0.33    0.15
  -9   2   3    0.24    0.12
  -9   2   3    0.13    0.15
   9   2  -3    0.15    0.26
   9  -2  -3    0.23    0.10
  -9  -2   3    0.06    0.13
   9  -2  -3    0.29    0.13
  -9  -2   3    0.34    0.16
   9  -2  -3    0.25    0.10
  -9   2   2    7.30    0.52
   9   2  -2    6.85    0.57
   9  -2  -2    7.39    0.51
  -9  -2   2    7.00    0.54
  -9  -2   2    8.03    0.51
   9  -2  -2    7.54    0.51
  -9  -2   2    8.35    0.56
   9  -2  -2    7.66    0.53
   9   2  -1    1.31    0.20
  -9   2   1    1.22    0.19
   9   2  -1    0.79    0.19
  -9   2   1    0.93    0.14
   9  -2  -1    0.88    0.13
   9  -2  -1    1.19    0.15
  -9  -2   1    0.80    0.17
   9  -2  -1    1.11    0.16
  -9  -2   1    0.82    0.13
  -9  -2   1    1.37    0.21
   9   2   0    0.59    0.14
  -9   2   0    0.54    0.13
  -9   2   0    0.40    0.12
  -9   2   0    0.66    0.15
  -9  -2   0    0.46    0.16
   9  -2   0    0.45    0.13
  -9  -2   0    0.60    0.15
  -9  -2   0    0.49    0.15
   9  -2   0    0.61    0.12
   9  -2   0    0.52    0.12
  -9   2  -1    1.25    0.16
   9   2   1    0.82    0.15
  -9   2  -1    0.73    0.17
  -9   2  -1    0.69    0.14
  -9  -2  -1    1.19    0.21
   9  -2   1    0.98    0.17
   9  -2   1    0.98    0.15
   9  -2   1    1.13    0.15
  -9  -2  -1    0.91    0.15
   9   2   2    7.08    0.46
  -9   2  -2    5.87    0.48
  -9   2  -2    6.09    0.51
  -9  -2  -2    7.04    0.48
  -9  -2  -2    6.23    0.53
   9  -2   2    6.78    0.47
  -9   2  -3    0.22    0.07
   9   2   3    0.09    0.11
  -9   2  -3   -0.01    0.13
  -9   2  -3    0.30    0.10
  -9  -2  -3    0.15    0.19
   9  -2   3    0.19    0.12
  -9  -2  -3    0.28    0.13
  -9   2  -4    0.99    0.20
   9   2   4    1.30    0.17
  -9   2  -4    1.68    0.16
  -9  -2  -4    1.91    0.25
   9  -2   4    1.87    0.22
  -9  -2  -4    1.66    0.20
  -9   2  -5   -0.08    0.14
   9   2   5    0.04    0.12
  -9  -2  -5   -0.23    0.12
  -9  -2  -5    0.02    0.14
   9  -2   5    0.19    0.12
   9   2   6    1.09    0.17
  -9   2  -6    1.16    0.19
  -9  -2  -6    1.01    0.19
  -9  -2  -6    0.90    0.19
   9  -2   6    1.13    0.15
  -9   2  -7    0.56    0.16
   9   2   7    0.16    0.15
  -9  -2  -7    0.17    0.16
   9  -2   7    0.37    0.11
  -9  -2  -7    0.09    0.17
  -9   2  -8    2.81    0.30
   9   2   8    1.82    0.23
   9  -2   8    1.84    0.20
  -9  -2  -8    1.54    0.25
  -9  -2  -8    1.53    0.23
  -9  -2  -9    0.04    0.18
  -9  -2  -9   -0.03    0.21
   9   3  -9    0.87    0.58
  -9   3   9    0.65    0.26
  -9  -3   9    0.68    0.32
   9  -3  -9    0.88    0.27
  -9   3   8    0.44    0.23
   9   3  -8    0.17    0.52
  -9  -3   8    0.19    0.29
   9  -3  -8    0.31    0.22
  -9   3   7    0.93    0.24
   9   3  -7    0.53    0.53
   9  -3  -7    0.61    0.11
   9  -3  -7    0.65    0.21
  -9  -3   7    0.68    0.27
   9   3  -6   -0.17    0.44
  -9   3   6    0.32    0.20
   9   3  -6    0.25    0.11
   9   3  -6    0.11    0.07
  -9  -3   6    0.19    0.19
   9  -3  -6    0.13    0.18
   9  -3  -6    0.03    0.11
  -9  -3   6    0.17    0.20
   9   3  -5    5.35    0.43
  -9   3   5    5.78    0.47
   9   3  -5    5.33    0.35
  -9  -3   5    4.32    0.43
   9  -3  -5    5.42    0.44
   9  -3  -5    5.09    0.38
   9  -3  -5    5.04    0.38
   9   3  -4    0.51    0.18
   9   3  -4    0.57    0.18
  -9   3   4    0.64    0.18
   9  -3  -4    0.44    0.12
   9  -3  -4    0.39    0.15
   9  -3  -4    0.62    0.14
  -9  -3   4    0.31    0.17
  -9   3   3    0.67    0.13
   9   3  -3    0.46    0.19
  -9   3   3    1.08    0.19
   9   3  -3    0.86    0.20
   9  -3  -3    0.71    0.13
   9  -3  -3    0.82    0.13
  -9  -3   3    0.68    0.17
   9  -3  -3    0.82    0.16
  -9   3   2    0.56    0.15
  -9   3   2    0.13    0.10
   9   3  -2    0.13    0.14
   9   3  -2    0.15    0.18
   9  -3  -2    0.26    0.11
   9  -3  -2    0.09    0.12
  -9  -3   2    0.32    0.10
  -9  -3   2   -0.02    0.13
   9  -3  -2    0.21    0.11
   9   3  -1    6.58    0.49
  -9   3   1    6.80    0.48
  -9  -3   1    7.10    0.48
   9  -3  -1    6.57    0.49
   9  -3  -1    7.50    0.47
   9  -3  -1    7.46    0.47
  -9  -3   1    6.15    0.50
  -9   3   0    0.00    0.09
   9   3   0    0.09    0.12
  -9   3   0    0.11    0.10
  -9   3   0    0.14    0.12
   9  -3   0    0.26    0.11
   9  -3   0   -0.01    0.11
   9  -3   0    0.13    0.09
  -9  -3   0   -0.01    0.13
  -9  -3   0    0.11    0.09
  -9   3  -1    6.81    0.49
  -9   3  -1    6.87    0.49
   9   3   1    6.72    0.48
  -9  -3  -1    7.26    0.49
   9  -3   1    7.41    0.48
  -9  -3  -1    6.55    0.50
   9  -3   1    6.84    0.50
   9  -3   1    7.04    0.48
  -9  -3  -1    6.98    0.50
  -9   3  -2    0.41    0.16
   9   3   2    0.15    0.12
  -9   3  -2    0.18    0.11
  -9   3  -2    0.31    0.11
   9  -3   2    0.38    0.11
  -9  -3  -2    0.19    0.14
  -9  -3  -2    0.24    0.12
  -9  -3  -2    0.22    0.15
  -9  -3  -2    0.13    0.12
   9   3   3    0.75    0.15
  -9   3  -3    1.02    0.13
  -9   3  -3    0.87    0.15
  -9   3  -3    0.56    0.20
   9  -3   3    0.98    0.14
  -9  -3  -3    0.96    0.22
  -9  -3  -3    0.86    0.16
  -9  -3  -3    0.64    0.16
   9   3   4    0.32    0.14
  -9   3  -4    0.42    0.10
  -9   3  -4    0.49    0.14
  -9  -3  -4    0.45    0.14
   9  -3   4    0.46    0.12
  -9  -3  -4    0.37    0.14
  -9  -3  -4    0.16    0.19
  -9   3  -5    5.66    0.41
   9   3   5    4.83    0.39
   9  -3   5    4.75    0.37
  -9  -3  -5    4.50    0.59
  -9  -3  -5    5.54    0.42
  -9  -3  -5    4.97    0.42
   9   3   6   -0.03    0.14
  -9   3  -6    0.16    0.13
  -9  -3  -6    0.01    0.16
  -9  -3  -6   -0.09    0.15
   9  -3   6    0.30    0.10
   9   3   7    0.41    0.16
  -9   3  -7    0.63    0.15
   9  -3   7    0.55    0.12
  -9  -3  -7    0.40    0.18
  -9  -3  -7    0.44    0.18
  -9   3  -8    0.40    0.14
   9   3   8    0.12    0.16
   9  -3   8    0.02    0.10
  -9  -3  -8   -0.10    0.18
  -9  -3  -8    0.16    0.19
  -9  -3  -9    0.37    0.22
  -9  -3  -9    0.51    0.20
   9   4  -9    0.51    0.62
  -9   4   9    0.02    0.26
  -9  -4   9    0.34    0.32
   9  -4  -9    0.18    0.27
  -9   4   8    0.83    0.26
   9   4  -8    0.74    0.61
  -9  -4   8    0.43    0.31
  -9  -4   8    0.94    0.26
   9  -4  -8    0.74    0.26
  -9   4   7    0.54    0.23
   9   4  -7   -0.02    0.47
   9  -4  -7    0.33    0.22
   9  -4  -7    0.41    0.12
  -9  -4   7    0.10    0.23
  -9  -4   7    0.25    0.20
  -9   4   6    1.30    0.25
   9   4  -6    1.01    0.12
   9   4  -6    1.03    0.53
  -9  -4   6    1.18    0.22
   9  -4  -6    1.05    0.15
   9  -4  -6    1.21    0.23
   9   4  -5    0.12    0.16
  -9   4   5    0.17    0.18
   9   4  -5    0.11    0.17
   9   4  -5    0.08    0.08
  -9  -4   5    0.07    0.17
   9  -4  -5    0.06    0.12
   9  -4  -5    0.02    0.17
   9  -4  -5    0.13    0.13
  -9   4   4    2.89    0.31
   9   4  -4    2.03    0.30
   9   4  -4    2.26    0.31
   9   4  -4    2.44    0.21
  -9  -4   4    2.16    0.28
   9  -4  -4    2.73    0.31
   9  -4  -4    2.32    0.26
   9  -4  -4    2.56    0.25
   9   4  -3    0.57    0.21
   9   4  -3    0.35    0.17
  -9   4   3    0.50    0.17
   9   4  -3    0.43    0.10
   9  -4  -3    0.28    0.15
   9  -4  -3    0.39    0.14
  -9  -4   3    0.28    0.15
   9  -4  -3    0.45    0.12
   9   4  -2    1.94    0.25
  -9   4   2    2.07    0.26
  -9   4   2    1.35    0.18
  -9  -4   2    1.94    0.23
   9  -4  -2    1.54    0.20
   9  -4  -2    1.81    0.21
   9  -4  -2    1.79    0.23
  -9   4   1    1.49    0.21
   9   4  -1    1.48    0.19
  -9   4   1    1.30    0.16
  -9  -4   1    1.56    0.19
   9  -4  -1    1.35    0.17
  -9  -4   1    1.21    0.19
   9  -4  -1    1.58    0.19
   9  -4  -1    1.29    0.18
  -9   4   0    3.60    0.31
   9   4   0    3.30    0.30
  -9   4   0    3.31    0.28
  -9   4   0    3.06    0.29
  -9  -4   0    3.48    0.30
   9  -4   0    3.60    0.29
   9  -4   0    3.66    0.28
   9  -4   0    3.12    0.30
  -9  -4   0    3.49    0.32
  -9   4  -1    1.50    0.18
  -9   4  -1    1.78    0.20
   9   4   1    1.47    0.19
   9  -4   1    1.35    0.20
  -9  -4  -1    0.96    0.19
  -9  -4  -1    1.54    0.21
   9  -4   1    1.30    0.17
   9  -4   1    1.74    0.18
  -9  -4  -1    1.59    0.19
  -9   4  -2    1.87    0.22
   9   4   2    1.47    0.20
  -9   4  -2    1.83    0.21
  -9   4  -2    2.04    0.23
   9  -4   2    2.06    0.21
  -9  -4  -2    1.81    0.23
  -9  -4  -2    1.78    0.23
  -9   4  -3    0.34    0.12
  -9   4  -3    0.23    0.16
  -9   4  -3    0.36    0.12
   9   4   3    0.28    0.14
  -9  -4  -3    0.44    0.18
  -9  -4  -3    0.46    0.17
   9  -4   3    0.49    0.12
  -9  -4  -3    0.39    0.14
   9   4   4    2.49    0.27
  -9   4  -4    2.18    0.29
  -9   4  -4    2.70    0.26
  -9   4  -4    2.29    0.23
  -9  -4  -4    2.65    0.31
   9  -4   4    2.40    0.24
  -9  -4  -4    2.49    0.29
  -9  -4  -4    2.27    0.28
   9   4   5    0.02    0.15
  -9   4  -5    0.20    0.12
  -9  -4  -5    0.06    0.15
   9  -4   5    0.14    0.11
   9   4   6    0.88    0.19
  -9   4  -6    0.99    0.16
   9  -4   6    1.22    0.16
  -9  -4  -6    1.07    0.20
   9   4   7    0.30    0.18
  -9   4  -7    0.40    0.13
   9  -4   7    0.32    0.12
  -9  -4  -7    0.09    0.18
  -9   4  -8    0.77    0.15
   9   4   8    0.60    0.20
   9  -4   8    0.71    0.14
  -9  -4  -8    0.61    0.20
  -9   4  -9    0.13    0.14
   9   4   9    0.30    0.24
  -9  -4  -9   -0.07    0.20
   9   5  -8    0.00    0.59
  -9   5   8   -0.15    0.25
   9  -5  -8   -0.25    0.23
  -9  -5   8    0.17    0.23
   9   5  -7    0.77    0.61
  -9   5   7    1.92    0.30
  -9  -5   7    1.56    0.28
   9  -5  -7    1.49    0.28
   9  -5  -7    1.64    0.18
   9   5  -6    0.01    0.08
   9   5  -6   -0.13    0.16
  -9   5   6    0.05    0.22
   9  -5  -6   -0.17    0.20
  -9  -5   6   -0.11    0.18
   9  -5  -6    0.11    0.13
   9   5  -5    0.55    0.25
  -9   5   5    0.26    0.21
   9   5  -5    0.26    0.20
   9   5  -5    0.22    0.10
  -9  -5   5    0.14    0.17
   9  -5  -5    0.20    0.15
   9  -5  -5    0.32    0.13
   9  -5  -5    0.09    0.18
   9   5  -4    0.06    0.09
   9   5  -4    0.10    0.18
   9   5  -4    0.00    0.20
  -9   5   4    0.19    0.19
   9  -5  -4   -0.02    0.17
   9  -5  -4    0.09    0.13
  -9  -5   4    0.15    0.17
   9  -5  -4    0.06    0.15
   9   5  -3    5.64    0.37
  -9   5   3    5.46    0.45
   9   5  -3    5.02    0.44
   9  -5  -3    5.15    0.41
  -9  -5   3    4.66    0.43
   9  -5  -3    5.35    0.40
   9  -5  -3    4.65    0.44
   9   5  -2    0.06    0.08
   9   5  -2    0.01    0.14
  -9   5   2    0.16    0.17
  -9  -5   2    0.01    0.15
   9  -5  -2   -0.13    0.15
   9  -5  -2    0.12    0.14
   9  -5  -2    0.16    0.12
   9   5  -1    1.75    0.17
  -9   5   1    1.36    0.21
   9   5  -1    1.17    0.20
  -9   5   1    1.18    0.17
   9  -5  -1    1.47    0.19
  -9  -5   1    1.07    0.20
   9  -5  -1    1.67    0.18
  -9   5   0   -0.06    0.10
  -9   5   0    0.00    0.14
   9   5   0    0.04    0.14
  -9  -5   0    0.07    0.12
  -9  -5   0    0.06    0.15
   9  -5   0   -0.02    0.12
  -9   5  -1    1.65    0.21
  -9   5  -1    1.35    0.18
   9   5   1    1.19    0.20
  -9  -5  -1    1.71    0.20
  -9  -5  -1    1.53    0.22
   9  -5   1    1.40    0.18
   9   5   2    0.08    0.14
  -9   5  -2    0.02    0.13
  -9   5  -2    0.13    0.13
  -9  -5  -2   -0.04    0.16
   9  -5   2    0.10    0.11
  -9  -5  -2    0.02    0.13
  -9   5  -3    5.26    0.41
   9   5   3    4.04    0.39
  -9   5  -3    5.32    0.39
  -9  -5  -3    5.48    0.42
  -9  -5  -3    4.89    0.44
   9  -5   3    5.18    0.38
   9   5   4    0.20    0.16
  -9   5  -4    0.14    0.18
  -9   5  -4    0.04    0.11
   9  -5   4    0.12    0.12
  -9  -5  -4    0.10    0.17
  -9  -5  -4    0.04    0.15
   9   5   5    0.22    0.18
  -9  -5  -5    0.13    0.17
   9  -5   5    0.27    0.13
   9   5   6    0.00    0.18
   9  -5   6    0.01    0.12
  -9  -5  -6    0.07    0.18
   9   5   7    1.55    0.25
  -9  -5  -7    1.51    0.25
   9  -5   7    1.74    0.20
   9   5   8    0.06    0.20
   9  -5   8    0.14    0.12
  -9  -5  -8    0.14    0.21
   9   6  -8    0.24    0.64
  -9   6   7    0.19    0.25
  -9  -6   7   -0.13    0.20
   9  -6  -7   -0.19    0.15
   9  -6  -7   -0.41    0.24
   9   6  -6    1.62    0.19
   9   6  -6    1.51    0.25
  -9   6   6    1.99    0.31
   9  -6  -6    1.61    0.20
   9  -6  -6    1.37    0.29
  -9  -6   6    1.61    0.27
   9   6  -5   -0.07    0.10
  -9   6   5    0.15    0.23
   9   6  -5    0.13    0.21
  -9  -6   5   -0.14    0.17
   9  -6  -5    0.01    0.14
   9  -6  -5   -0.09    0.19
   9  -6  -5   -0.07    0.17
  -9   6   4    1.14    0.25
   9   6  -4    0.76    0.12
   9   6  -4    1.26    0.22
   9  -6  -4    1.14    0.19
  -9  -6   4    1.06    0.22
   9  -6  -4    1.00    0.20
   9   6  -3    0.18    0.17
   9   6  -3    0.05    0.09
  -9   6   3    0.05    0.20
   9  -6  -3    0.15    0.16
  -9  -6   3    0.04    0.18
  -9   6   2    1.05    0.22
   9   6  -2    1.17    0.21
   9  -6  -2    1.18    0.20
  -9  -6   2    1.21    0.23
   9   6  -1    0.28    0.09
   9   6  -1    0.64    0.18
  -9   6   1    0.75    0.20
  -9  -6   1    0.60    0.20
   9  -6  -1    0.65    0.17
  -9   6   0    3.32    0.36
  -9   6   0    3.08    0.30
   9   6   0    2.79    0.32
   9  -6   0    3.28    0.31
  -9  -6   0    3.09    0.35
  -9   6  -1    0.50    0.15
  -9   6  -1    0.55    0.19
   9   6   1    0.63    0.19
  -9  -6  -1    0.74    0.21
   9  -6   1    0.63    0.16
  -9   6  -2    1.18    0.18
   9   6   2    1.03    0.21
  -9   6  -2    1.30    0.21
  -9  -6  -2    0.98    0.19
  -9  -6  -2    1.19    0.22
   9  -6   2    1.06    0.18
   9   6   3    0.10    0.17
  -9   6  -3    0.09    0.14
  -9   6  -3    0.19    0.16
  -9  -6  -3    0.02    0.18
   9  -6   3    0.09    0.14
  -9  -6  -3    0.02    0.16
   9   6   4    1.02    0.23
  -9   6  -4    1.30    0.22
  -9  -6  -4    1.06    0.21
  -9  -6  -4    1.18    0.24
   9  -6   4    1.21    0.19
   9   6   5    0.08    0.20
  -9   6  -5   -0.34    0.19
   9  -6   5    0.14    0.14
  -9  -6  -5   -0.19    0.18
   9   6   6    1.60    0.26
   9  -6   6    1.30    0.19
  -9  -6  -6    1.38    0.25
   9   6   7    0.03    0.21
   9  -6   7    0.02    0.14
  -9  -6  -7   -0.19    0.21
   9   7  -7   -0.28    0.17
  -9   7   7    0.55    0.30
   9   7  -7    0.08    0.09
   9  -7  -7    0.10    0.16
  -9  -7   7    0.18    0.23
   9   7  -6    0.05    0.10
  -9   7   6    0.15    0.27
   9   7  -6    0.14    0.21
   9  -7  -6    0.00    0.17
  -9  -7   6   -0.08    0.21
   9   7  -5    1.66    0.32
   9   7  -5    1.56    0.18
  -9   7   5    1.58    0.31
  -9  -7   5    1.59    0.28
   9  -7  -5    1.59    0.25
  -9   7   4    0.23    0.23
   9   7  -4    0.30    0.11
   9   7  -4    0.18    0.21
  -9  -7   4    0.15    0.21
   9  -7  -4    0.12    0.20
  -9   7   3    0.59    0.23
   9   7  -3    0.27    0.09
   9   7  -3    0.57    0.19
   9  -7  -3    0.54    0.19
  -9  -7   3    0.42    0.21
   9   7  -2    0.04    0.18
  -9   7   2    0.22    0.23
  -9  -7   2    0.01    0.20
   9  -7  -2    0.23    0.19
  -9   7   1    1.50    0.27
   9   7  -1    1.53    0.24
  -9  -7   1    1.67    0.27
   9  -7  -1    1.27    0.22
  -9   7   0    0.17    0.20
   9   7   0   -0.04    0.17
  -9  -7   0    0.04    0.20
   9  -7   0    0.00    0.16
  -9   7  -1    1.88    0.25
   9   7   1    1.28    0.24
  -9  -7  -1    1.26    0.26
   9  -7   1    1.36    0.21
   9   7   2    0.24    0.19
  -9   7  -2    0.17    0.15
  -9   7  -2    0.24    0.18
  -9  -7  -2   -0.02    0.20
   9  -7   2    0.24    0.16
   9   7   3    0.40    0.21
  -9   7  -3    0.44    0.17
  -9   7  -3    0.37    0.17
   9  -7   3    0.31    0.17
  -9  -7  -3    0.44    0.22
  -9   7  -4    0.37    0.19
   9   7   4    0.28    0.22
   9  -7   4    0.17    0.16
  -9  -7  -4    0.24    0.22
   9   7   5    1.45    0.28
  -9   7  -5    1.50    0.27
   9  -7   5    1.71    0.22
  -9  -7  -5    1.54    0.26
   9   7   6    0.27    0.24
   9  -7   6   -0.07    0.15
  -9  -7  -6   -0.09    0.22
   9   7   7    0.34    0.25
  -9  -7  -7    0.09    0.23
   9  -7   7    0.30    0.16
  -9   8   5    0.18    0.28
   9   8  -5    0.07    0.13
   9   8  -5    0.31    0.29
  -9  -8   5    0.15    0.23
  -9   8   4    0.91    0.30
   9   8  -4    0.53    0.15
   9  -8  -4    0.58    0.23
  -9  -8   4    0.72    0.26
   9   8  -3    0.15    0.21
  -9   8   3    0.27    0.26
  -9  -8   3   -0.03    0.22
   9  -8  -3    0.09    0.20
   9   8  -2    1.59    0.27
  -9   8   2    1.76    0.31
  -9  -8   2    1.67    0.30
   9  -8  -2    1.97    0.28
   9   8  -1    0.11    0.19
  -9   8   1    0.23    0.24
  -9  -8   1   -0.03    0.22
   9  -8  -1    0.21    0.20
   9   8   0    0.23    0.21
  -9   8   0    0.50    0.24
  -9  -8   0    0.16    0.23
   9  -8   0    0.46    0.20
   9   8   1    0.14    0.22
  -9   8  -1    0.02    0.21
   9  -8   1    0.24    0.19
  -9  -8  -1   -0.03    0.22
  -9   8  -2    2.03    0.29
   9   8   2    1.72    0.30
   9  -8   2    1.89    0.26
  -9  -8  -2    1.58    0.30
   9   8   3    0.09    0.23
  -9   8  -3   -0.03    0.18
  -9  -8  -3    0.18    0.23
   9  -8   3    0.10    0.17
   9   8   4    0.90    0.27
  -9   8  -4    0.65    0.21
   9  -8   4    0.55    0.19
   9   8   5   -0.19    0.23
  -9   8  -5   -0.07    0.21
   9  -8   5    0.12    0.17
  -9   9   4    0.30    0.29
  -9  -9   4    0.34    0.27
   9  -9  -4    0.42    0.25
   9   9  -3    0.43    0.24
  -9   9   3    0.61    0.29
   9  -9  -3    0.78    0.26
  -9  -9   3    0.75    0.28
   9   9  -2    0.01    0.22
  -9   9   2    0.18    0.29
  -9  -9   2    0.02    0.26
   9  -9  -2    0.20    0.24
   9   9  -1    0.73    0.25
  -9   9   1    0.69    0.28
   9  -9  -1    0.93    0.24
  -9  -9   1    0.61    0.28
  -9   9   0    0.61    0.27
   9   9   0   -0.08    0.22
   9  -9   0    0.13    0.21
  -9  -9   0   -0.10    0.25
   9   9   1    0.93    0.27
  -9   9  -1    0.68    0.27
   9  -9   1    0.73    0.24
  -9  -9  -1    0.54    0.29
   9   9   2    0.19    0.25
  -9   9  -2    0.32    0.22
  -9  -9  -2    0.22    0.27
   9  -9   2    0.30    0.22
   9   9   3    0.56    0.28
   9  -9   3    0.78    0.23
  -9  -9  -3    0.88    0.29
   9   9   4    0.19    0.26
  -9   9  -4    0.04    0.20
   9  -9   4    0.32    0.20
  10   0  -9   -0.24    0.50
  10   0  -9    0.79    0.26
 -10   0   8    5.79    0.69
  10   0  -8    7.36    0.97
  10   0  -8    9.29    0.68
 -10   0   7   -0.11    0.26
  10   0  -7   -0.10    0.39
  10   0  -7    0.65    0.25
 -10   0   6   28.26    1.68
  10   0  -6   22.02    1.63
  10   0  -6   25.05    1.54
  10   0  -6   25.62    1.85
  10   0  -5    0.26    0.11
  10   0  -5    0.39    0.13
 -10   0   5    0.22    0.24
  10   0  -5    0.10    0.31
  10   0  -5    0.44    0.22
  10   0  -4   54.52    3.35
  10   0  -4   51.86    3.40
 -10   0   4   56.06    3.43
  10   0  -4   58.65    3.56
  10   0  -4   53.28    3.35
  10   0  -3    0.02    0.22
 -10   0   3    0.04    0.18
 -10   0   3   -0.02    0.12
  10   0  -3   -0.23    0.11
  10   0  -3    0.10    0.17
 -10   0   2   23.70    1.56
 -10   0   2   23.96    1.53
  10   0  -2   27.15    1.65
  10   0  -2   25.84    1.54
  10   0  -2   19.06    1.49
  10   0  -1    0.08    0.13
  10   0  -1    0.13    0.17
  10   0  -1    0.32    0.14
 -10   0   1    0.13    0.17
  10   0  -1   -0.04    0.12
  10   0   0  136.36    8.45
  10   0   0  128.93    8.40
 -10   0   0  145.05    8.41
 -10   0   0  146.43    8.44
  10   0   0  139.02    8.41
  10   0   0  135.81    8.39
  10   0   1   -0.01    0.11
  10   0   1    0.14    0.13
 -10   0  -1    0.06    0.16
  10   0   1    0.02    0.12
  10   0   1    0.07    0.11
  10   0   2   25.08    1.62
  10   0   2   25.70    1.64
 -10   0  -2   26.50    1.65
  10   0   3   -0.05    0.15
 -10   0  -3    0.02    0.17
  10   0   4   54.26    3.26
 -10   0  -4   50.89    3.24
 -10   0  -4   54.14    3.29
 -10   0  -5    0.28    0.20
  10   0   5    0.14    0.15
  10   0   6   25.01    1.57
 -10   0  -6   24.79    1.61
 -10   0  -7    0.12    0.21
  10   0   7   -0.04    0.17
 -10   0  -8    7.24    0.64
  10   0   8    7.88    0.57
 -10   1   9    4.83    0.57
  10   1  -9    5.27    0.57
  10   1  -9    6.00    0.97
  10  -1  -9    5.83    0.65
 -10  -1   9    4.94    0.63
 -10   1   8    0.03    0.26
  10   1  -8    0.94    0.23
  10   1  -8    0.76    0.52
  10  -1  -8    0.17    0.26
 -10  -1   8    0.49    0.32
  10  -1  -8   -0.14    0.50
  10   1  -7   18.50    1.47
  10   1  -7   18.38    1.17
 -10  -1   7   19.16    1.25
  10  -1  -7   16.13    1.44
  10  -1  -7   14.77    1.19
  10   1  -6    2.21    0.52
  10   1  -6    2.03    0.27
  10   1  -6    2.07    0.21
  10  -1  -6    1.97    0.21
  10  -1  -6    1.47    0.28
 -10  -1   6    2.08    0.36
  10  -1  -6    1.45    0.48
 -10   1   5   22.50    1.78
  10   1  -5   28.53    1.71
  10   1  -5   26.86    1.72
  10   1  -5   30.78    2.00
  10   1  -5   28.79    1.76
  10  -1  -5   30.32    1.70
  10  -1  -5   29.91    1.71
 -10  -1   5   23.31    1.81
  10  -1  -5   26.66    1.95
  10  -1  -5   26.86    1.77
  10   1  -4    3.73    0.55
 -10   1   4    3.35    0.42
  10   1  -4    4.49    0.40
  10  -1  -4    4.00    0.57
  10  -1  -4    3.83    0.41
  10  -1  -4    4.04    0.32
  10  -1  -4    4.17    0.32
  10   1  -3   52.88    3.42
  10   1  -3   57.91    3.61
 -10   1   3   52.47    3.43
  10   1  -3   58.17    3.41
 -10   1   3   49.05    3.46
  10   1  -3   57.85    3.44
  10  -1  -3   59.22    3.58
  10  -1  -3   53.00    3.44
  10  -1  -3   57.50    3.40
  10  -1  -3   58.40    3.40
  10   1  -2    1.65    0.19
  10   1  -2    1.33    0.32
  10   1  -2    1.66    0.21
 -10   1   2    0.98    0.25
  10   1  -2    1.80    0.21
 -10   1   2    1.24    0.20
  10  -1  -2    1.02    0.18
  10  -1  -2    1.07    0.21
  10  -1  -2    1.14    0.17
  10  -1  -2    1.06    0.26
 -10  -1   2    0.64    0.24
  10   1  -1   45.42    2.72
 -10   1   1   37.09    2.60
  10   1  -1   45.26    2.59
  10  -1  -1   34.02    2.59
  10  -1  -1   46.08    2.66
  10   1   0   -0.06    0.17
  10   1   0    0.21    0.15
  10   1   0   -0.25    0.12
 -10   1   0   -0.07    0.16
 -10   1   0   -0.22    0.14
  10   1   0    0.02    0.15
 -10  -1   0    0.17    0.15
  10  -1   0   -0.27    0.12
 -10  -1   0    0.04    0.18
  10  -1   0   -0.12    0.13
  10  -1   0    0.17    0.13
  10   1   1   39.26    2.68
  10  -1   1   44.65    2.63
 -10  -1  -1   44.21    2.68
  10   1   2    1.65    0.22
 -10   1  -2    1.07    0.19
  10   1   2    1.93    0.24
 -10   1  -2    1.45    0.21
  10   1   2    0.89    0.20
 -10  -1  -2    1.32    0.22
 -10  -1  -2    1.50    0.25
  10  -1   2    1.63    0.20
 -10   1  -3   60.22    3.56
 -10   1  -3   57.10    3.54
  10   1   3   51.62    3.55
 -10  -1  -3   57.16    3.57
  10  -1   3   62.00    3.55
 -10  -1  -3   59.86    3.57
 -10   1  -4    3.53    0.28
  10   1   4    3.41    0.34
 -10   1  -4    3.32    0.38
 -10  -1  -4    4.13    0.39
  10  -1   4    3.56    0.33
  10   1   5   26.54    1.84
 -10   1  -5   30.92    1.86
  10  -1   5   30.75    1.83
 -10  -1  -5   29.38    1.86
  10   1   6    1.54    0.24
 -10   1  -6    1.34    0.24
 -10  -1  -6    1.87    0.28
  10  -1   6    1.66    0.22
 -10   1  -7   11.84    0.93
  10   1   7   13.65    0.92
 -10  -1  -7   15.22    0.97
  10  -1   7   14.06    0.90
  10   1   8    0.44    0.20
 -10  -1  -8    0.38    0.24
 -10  -1  -9    5.48    0.47
 -10  -1  -9    5.09    0.53
 -10   2   9    0.54    0.26
  10   2  -9    0.05    0.52
  10  -2  -9    0.22    0.28
 -10  -2   9   -0.04    0.33
  10   2  -8   12.03    1.20
 -10   2   8   10.96    0.85
 -10  -2   8   10.16    0.91
  10  -2  -8   11.25    0.86
 -10   2   7    0.70    0.25
  10   2  -7    0.36    0.46
  10  -2  -7    0.23    0.10
 -10  -2   7    0.19    0.28
  10  -2  -7    0.62    0.23
  10   2  -6   24.04    1.74
 -10   2   6   17.52    1.43
  10   2  -6   22.35    1.34
  10   2  -6   23.71    1.35
 -10  -2   6   17.57    1.47
  10  -2  -6   22.79    1.41
  10  -2  -6   23.10    1.35
 -10   2   5   -0.28    0.19
  10   2  -5    0.12    0.20
  10   2  -5   -0.22    0.13
  10   2  -5    0.12    0.34
  10  -2  -5    0.04    0.13
 -10  -2   5    0.07    0.22
  10  -2  -5    0.15    0.11
  10  -2  -5    0.16    0.18
  10   2  -4   26.68    1.57
  10   2  -4   20.65    1.82
  10   2  -4   25.28    1.58
  10  -2  -4   25.57    1.55
  10  -2  -4   25.87    1.58
 -10  -2   4   23.20    1.62
  10  -2  -4   25.82    1.54
  10   2  -3    0.88    0.19
  10   2  -3    0.04    0.19
  10   2  -3    0.13    0.31
 -10   2   3    0.06    0.18
  10   2  -3    0.81    0.18
 -10   2   3    0.76    0.16
  10  -2  -3    0.80    0.13
 -10  -2   3    0.53    0.21
  10  -2  -3    0.76    0.17
  10  -2  -3    0.92    0.14
  10   2  -2   75.28    4.94
 -10   2   2   81.05    4.93
  10   2  -2   81.43    4.96
  10  -2  -2   83.46    4.93
 -10  -2   2   77.13    4.92
  10  -2  -2   80.22    4.91
  10  -2  -2   88.18    4.92
 -10  -2   2   80.23    4.97
 -10   2   1    1.01    0.21
  10   2  -1    1.02    0.21
 -10   2   1    1.19    0.18
  10   2  -1    1.38    0.23
  10  -2  -1    1.32    0.20
  10  -2  -1    1.39    0.18
 -10  -2   1    1.91    0.27
  10   2   0   22.67    1.38
 -10   2   0   20.03    1.36
 -10   2   0   19.99    1.38
 -10   2   0   22.04    1.38
  10  -2   0   21.37    1.35
  10  -2   0   22.87    1.39
  10  -2   0   21.90    1.36
  10   2   1    1.42    0.20
 -10   2  -1    1.90    0.23
 -10   2  -1    0.79    0.20
  10  -2   1    1.41    0.21
  10  -2   1    1.26    0.18
 -10  -2  -1    1.49    0.20
 -10  -2  -1    1.18    0.25
  10  -2   1    1.34    0.20
  10   2   2   79.46    4.74
 -10   2  -2   84.48    4.77
 -10   2  -2   76.73    4.74
  10  -2   2   63.87    4.73
 -10  -2  -2   85.28    4.76
 -10   2  -3    0.87    0.13
  10   2   3    0.72    0.15
 -10  -2  -3    0.57    0.22
 -10  -2  -3    0.73    0.16
  10  -2   3    0.24    0.16
  10   2   4   25.14    1.49
 -10   2  -4   24.20    1.47
 -10  -2  -4   24.04    1.50
  10  -2   4   19.72    1.48
 -10  -2  -4   25.67    1.53
  10   2   5   -0.02    0.14
  10  -2   5   -0.07    0.13
 -10  -2  -5    0.23    0.16
  10   2   6   22.18    1.34
  10  -2   6   19.38    1.33
 -10  -2  -6   20.89    1.35
 -10  -2  -6   22.33    1.36
 -10   2  -7    0.14    0.17
  10   2   7    0.42    0.17
 -10  -2  -7    0.23    0.19
 -10  -2  -7    0.15    0.18
  10  -2   7    0.30    0.13
  10   2   8   10.97    0.74
 -10   2  -8   10.79    0.73
 -10  -2  -8   10.99    0.74
 -10  -2  -8   10.03    0.78
  10  -2   8    9.84    0.68
 -10  -2  -9   -0.05    0.20
 -10  -2  -9    0.22    0.25
  10   3  -9    6.52    1.04
 -10   3   9    6.56    0.59
 -10  -3   9    4.48    0.64
  10  -3  -9    5.85    0.64
  10   3  -8    0.32    0.54
 -10   3   8    0.58    0.27
  10  -3  -8    0.54    0.25
 -10  -3   8    0.23    0.32
 -10   3   7    9.25    0.69
  10   3  -7    8.90    1.03
 -10  -3   7    8.35    0.75
  10  -3  -7    8.52    0.57
  10  -3  -7    8.65    0.69
 -10   3   6    1.30    0.26
  10   3  -6    0.34    0.47
  10   3  -6    0.98    0.12
  10   3  -6    0.66    0.15
 -10  -3   6    0.65    0.23
  10  -3  -6    1.00    0.15
  10  -3  -6    1.09    0.22
 -10  -3   6    1.15    0.28
  10   3  -5   39.11    2.35
  10   3  -5   39.78    2.39
  10   3  -5   34.29    2.38
 -10   3   5   38.34    2.42
  10  -3  -5   40.65    2.37
  10  -3  -5   40.85    2.36
 -10  -3   5   38.81    2.43
 -10  -3   5   37.39    2.41
  10  -3  -5   37.17    2.39
 -10   3   4    1.40    0.24
  10   3  -4    1.49    0.22
  10   3  -4    1.14    0.21
  10  -3  -4    0.89    0.16
  10  -3  -4    1.10    0.20
 -10  -3   4    1.12    0.22
 -10  -3   4    1.13    0.23
  10  -3  -4    1.02    0.15
 -10   3   3   26.33    1.66
 -10   3   3   28.31    1.70
  10   3  -3   24.65    1.70
 -10  -3   3   24.84    1.68
  10  -3  -3   27.87    1.65
  10  -3  -3   27.31    1.65
 -10  -3   3   26.33    1.69
  10  -3  -3   26.25    1.67
 -10   3   2    0.76    0.19
 -10   3   2    0.62    0.15
  10   3  -2    0.78    0.20
  10   3  -2    0.69    0.21
  10  -3  -2    0.92    0.16
  10  -3  -2    0.88    0.15
  10  -3  -2    0.62    0.16
 -10  -3   2    0.85    0.18
  10   3  -1   56.94    3.51
 -10   3   1   57.40    3.51
 -10   3   1   58.14    3.50
 -10  -3   1   51.17    3.50
  10  -3  -1   59.19    3.50
 -10  -3   1   54.84    3.52
  10  -3  -1   59.86    3.49
  10  -3  -1   59.32    3.49
 -10   3   0   -0.03    0.10
 -10   3   0   -0.06    0.12
 -10   3   0    0.21    0.14
  10   3   0   -0.03    0.13
 -10  -3   0    0.12    0.15
 -10  -3   0   -0.21    0.13
  10  -3   0   -0.17    0.12
  10  -3   0    0.05    0.09
  10  -3   0    0.06    0.11
 -10  -3   0   -0.04    0.11
 -10   3  -1   55.30    3.50
  10   3   1   55.53    3.48
 -10   3  -1   53.79    3.49
  10  -3   1   62.76    3.49
 -10  -3  -1   63.23    3.53
  10  -3   1   54.34    3.48
 -10  -3  -1   58.71    3.51
  10  -3   1   53.64    3.50
 -10  -3  -1   59.30    3.49
 -10  -3  -1   54.00    3.49
 -10   3  -2    0.73    0.16
 -10   3  -2    0.95    0.16
  10   3   2    0.69    0.15
 -10   3  -2    0.45    0.17
 -10  -3  -2    0.76    0.21
 -10  -3  -2    0.68    0.16
 -10  -3  -2    0.86    0.17
 -10  -3  -2    0.64    0.18
  10  -3   2    0.89    0.15
 -10   3  -3   27.55    1.67
 -10   3  -3   27.28    1.70
 -10   3  -3   25.62    1.65
  10   3   3   26.41    1.66
  10  -3   3   27.40    1.66
 -10  -3  -3   23.11    1.72
 -10  -3  -3   27.01    1.67
 -10  -3  -3   27.95    1.67
 -10   3  -4    0.89    0.18
 -10   3  -4    1.08    0.15
  10   3   4    1.10    0.18
 -10  -3  -4    0.92    0.19
 -10  -3  -4    0.76    0.24
 -10  -3  -4    0.87    0.18
  10  -3   4    1.13    0.17
 -10   3  -5   38.32    2.31
  10   3   5   36.26    2.30
 -10  -3  -5   39.19    2.32
 -10  -3  -5   37.13    2.32
  10  -3   5   35.84    2.29
 -10   3  -6    0.90    0.19
  10   3   6    1.07    0.19
 -10  -3  -6    1.03    0.21
  10  -3   6    1.15    0.16
 -10  -3  -6    0.95    0.21
  10   3   7    7.67    0.59
 -10   3  -7    9.22    0.61
  10  -3   7    8.82    0.57
 -10  -3  -7    8.00    0.64
 -10  -3  -7    8.36    0.62
  10   3   8    0.27    0.18
 -10   3  -8    0.19    0.16
 -10  -3  -8    0.05    0.21
 -10  -3  -8    0.04    0.19
  10  -3   8    0.22    0.12
 -10   3  -9    5.88    0.48
 -10  -3  -9    6.16    0.53
 -10   4   8    7.14    0.65
  10   4  -8    6.81    1.09
  10  -4  -8    6.73    0.65
 -10  -4   8    7.00    0.70
  10   4  -7   -0.07    0.51
 -10   4   7    0.32    0.24
  10  -4  -7    0.13    0.13
 -10  -4   7    0.19    0.26
  10  -4  -7    0.12    0.22
 -10  -4   7   -0.20    0.21
  10   4  -6   12.99    0.78
 -10   4   6   11.51    0.87
  10  -4  -6   12.36    0.87
  10  -4  -6   12.69    0.80
 -10  -4   6   11.52    0.87
 -10   4   5    0.25    0.21
  10   4  -5   -0.05    0.08
  10   4  -5   -0.07    0.18
  10   4  -5   -0.03    0.17
  10  -4  -5   -0.03    0.13
 -10  -4   5    0.14    0.19
  10  -4  -5   -0.03    0.15
  10  -4  -5    0.24    0.20
  10   4  -4   33.16    2.06
 -10   4   4   33.81    2.12
  10   4  -4   32.26    2.13
  10  -4  -4   35.43    2.10
  10  -4  -4   34.96    2.07
 -10  -4   4   30.87    2.10
  10  -4  -4   33.98    2.07
  10   4  -3    0.83    0.22
  10   4  -3    0.85    0.24
 -10   4   3    1.23    0.22
 -10  -4   3    1.17    0.21
  10  -4  -3    1.18    0.16
  10  -4  -3    1.04    0.18
  10  -4  -3    1.07    0.20
 -10   4   2   23.93    1.55
  10   4  -2   24.19    1.57
 -10   4   2   24.52    1.57
  10  -4  -2   25.65    1.54
  10  -4  -2   24.19    1.56
  10  -4  -2   27.14    1.55
 -10  -4   2   23.01    1.56
 -10   4   1    3.85    0.33
  10   4  -1    3.72    0.34
 -10   4   1    3.82    0.36
  10  -4  -1    3.55    0.31
  10  -4  -1    3.48    0.34
  10  -4  -1    4.05    0.32
 -10  -4   1    3.62    0.36
 -10   4   0   57.44    3.45
 -10   4   0   63.26    3.47
  10   4   0   50.03    3.44
 -10  -4   0   57.93    3.45
 -10  -4   0   55.04    3.47
  10  -4   0   54.15    3.44
  10  -4   0   57.03    3.44
 -10   4  -1    3.93    0.35
 -10   4  -1    3.81    0.34
  10   4   1    3.48    0.32
  10  -4   1    3.41    0.30
 -10  -4  -1    3.85    0.33
  10  -4   1    3.63    0.31
 -10  -4  -1    3.82    0.36
 -10   4  -2   26.54    1.62
 -10   4  -2   24.14    1.61
 -10   4  -2   28.46    1.60
  10   4   2   23.50    1.59
 -10  -4  -2   22.76    1.61
 -10  -4  -2   26.70    1.61
  10  -4   2   27.22    1.59
 -10  -4  -2   24.69    1.63
 -10   4  -3    0.67    0.21
  10   4   3    1.04    0.19
 -10   4  -3    1.06    0.18
 -10   4  -3    1.15    0.17
 -10  -4  -3    1.07    0.20
  10  -4   3    1.43    0.17
 -10  -4  -3    1.18    0.23
 -10  -4  -3    1.42    0.26
  10   4   4   30.23    2.08
 -10   4  -4   35.03    2.08
 -10   4  -4   35.49    2.07
 -10  -4  -4   34.42    2.09
  10  -4   4   32.72    2.07
 -10   4  -5   -0.01    0.14
  10   4   5    0.14    0.16
 -10  -4  -5   -0.17    0.16
  10  -4   5    0.03    0.12
 -10   4  -6   12.74    0.84
  10   4   6   12.44    0.85
  10  -4   6   12.79    0.82
 -10  -4  -6   12.33    0.86
 -10   4  -7    0.08    0.14
  10   4   7   -0.14    0.18
  10  -4   7    0.10    0.12
 -10  -4  -7   -0.09    0.20
 -10   4  -8    6.84    0.49
  10   4   8    6.19    0.51
  10  -4   8    6.53    0.47
 -10  -4  -8    6.31    0.55
 -10   5   8    0.17    0.28
  10   5  -8    0.20    0.60
 -10  -5   8    0.17    0.26
 -10  -5   8    0.01    0.31
  10  -5  -8    0.07    0.28
 -10   5   7   12.67    0.90
  10  -5  -7   11.64    0.79
 -10  -5   7   12.77    0.90
  10  -5  -7   11.41    0.88
  10   5  -6   -0.15    0.17
 -10   5   6    0.38    0.23
  10   5  -6    0.15    0.10
  10  -5  -6    0.05    0.22
 -10  -5   6    0.11    0.22
  10  -5  -6    0.15    0.15
 -10   5   5    8.56    0.64
  10   5  -5    8.31    0.54
  10   5  -5    8.84    0.64
  10  -5  -5    7.90    0.57
  10  -5  -5    7.67    0.58
 -10  -5   5    7.26    0.62
  10  -5  -5    7.67    0.63
  10   5  -4    0.03    0.10
  10   5  -4   -0.03    0.19
 -10   5   4    0.18    0.21
  10   5  -4   -0.04    0.20
  10  -5  -4    0.03    0.16
  10  -5  -4    0.03    0.18
 -10  -5   4    0.02    0.19
  10  -5  -4   -0.06    0.14
  10   5  -3   44.26    2.41
 -10   5   3   39.97    2.46
  10   5  -3   36.75    2.45
  10  -5  -3   39.96    2.44
  10  -5  -3   37.42    2.41
  10  -5  -3   38.18    2.42
 -10  -5   3   38.23    2.45
 -10   5   2    0.12    0.18
  10   5  -2    0.14    0.09
  10   5  -2    0.10    0.16
 -10  -5   2    0.11    0.17
  10  -5  -2    0.00    0.15
  10   5  -1   27.52    1.84
 -10   5   1   29.79    1.86
 -10   5   1   33.72    1.94
  10  -5  -1   27.66    1.83
 -10  -5   1   29.72    1.86
 -10   5   0    0.03    0.13
  10   5   0    0.10    0.15
 -10   5   0    0.18    0.17
  10  -5   0    0.08    0.13
 -10  -5   0    0.06    0.17
 -10   5  -1   31.18    1.90
 -10   5  -1   33.13    1.92
  10   5   1   29.31    1.90
 -10  -5  -1   30.45    1.90
 -10  -5  -1   29.61    1.92
  10  -5   1   29.50    1.89
  10   5   2   -0.12    0.15
 -10   5  -2    0.17    0.16
 -10   5  -2    0.13    0.15
 -10  -5  -2    0.20    0.18
 -10  -5  -2    0.10    0.16
  10  -5   2    0.25    0.14
 -10   5  -3   37.87    2.46
 -10   5  -3   39.56    2.44
  10   5   3   36.81    2.45
  10  -5   3   40.07    2.44
 -10  -5  -3   42.13    2.48
 -10  -5  -3   41.54    2.46
 -10   5  -4   -0.29    0.18
  10   5   4   -0.13    0.17
 -10  -5  -4    0.09    0.19
 -10  -5  -4    0.00    0.17
 -10  -5  -4   -0.02    0.21
  10  -5   4    0.21    0.14
  10   5   5    7.20    0.57
  10  -5   5    8.01    0.55
 -10  -5  -5    7.93    0.59
  10   5   6    0.14    0.19
 -10  -5  -6   -0.04    0.19
  10  -5   6    0.21    0.14
  10   5   7   11.83    0.82
  10  -5   7   11.79    0.78
 -10  -5  -7   11.49    0.83
  10   5   8    0.17    0.22
 -10  -5  -8    0.11    0.22
  10  -5   8    0.10    0.14
 -10   6   7    0.01    0.28
  10   6  -7    0.07    0.09
 -10  -6   7    0.21    0.25
  10  -6  -7    0.17    0.16
  10   6  -6   10.41    0.73
 -10   6   6    9.40    0.79
  10   6  -6   10.29    0.66
 -10  -6   6    9.68    0.76
  10  -6  -6    9.79    0.69
  10   6  -5    0.01    0.11
 -10   6   5    0.06    0.24
  10   6  -5    0.23    0.21
  10  -6  -5    0.24    0.18
 -10  -6   5   -0.21    0.20
  10  -6  -5    0.20    0.20
  10   6  -4   12.46    0.82
  10   6  -4   12.68    0.95
  10   6  -4   13.16    0.90
 -10   6   4   13.39    0.91
  10  -6  -4   12.78    0.86
 -10  -6   4   11.85    0.88
 -10   6   3    1.01    0.25
  10   6  -3    1.21    0.23
  10   6  -3    0.87    0.14
 -10  -6   3    0.71    0.22
  10  -6  -3    1.13    0.21
  10   6  -2   21.90    1.45
 -10   6   2   22.28    1.47
  10   6  -2   23.12    1.42
 -10  -6   2   22.30    1.47
  10  -6  -2   23.64    1.44
  10   6  -1    1.77    0.25
 -10  -6   1    2.36    0.29
  10  -6  -1    1.89    0.24
 -10   6   0   25.80    1.58
  10   6   0   25.07    1.57
  10  -6   0   24.19    1.56
 -10  -6   0   23.73    1.58
 -10   6  -1    2.20    0.27
 -10   6  -1    2.00    0.24
  10   6   1    1.85    0.25
  10  -6   1    2.10    0.24
 -10  -6  -1    1.60    0.27
 -10   6  -2   23.41    1.46
  10   6   2   21.69    1.46
 -10   6  -2   23.56    1.46
 -10  -6  -2   23.31    1.49
  10  -6   2   22.83    1.45
 -10   6  -3    1.10    0.19
  10   6   3    1.07    0.23
 -10   6  -3    0.90    0.20
 -10  -6  -3    0.97    0.21
 -10  -6  -3    1.07    0.24
  10  -6   3    0.91    0.19
  10   6   4   11.91    0.85
 -10   6  -4   11.52    0.86
 -10  -6  -4   13.89    0.89
  10  -6   4   12.37    0.82
 -10  -6  -4   12.15    0.85
 -10   6  -5    0.17    0.22
  10   6   5    0.01    0.21
 -10  -6  -5   -0.19    0.20
  10  -6   5    0.22    0.16
  10   6   6    9.07    0.69
 -10  -6  -6    9.74    0.70
  10  -6   6    9.08    0.65
  10   6   7   -0.33    0.22
 -10  -6  -7   -0.02    0.22
  10  -6   7    0.05    0.14
  10   7  -6    0.02    0.21
  10   7  -6    0.05    0.11
 -10   7   6    0.03    0.30
 -10  -7   6   -0.15    0.23
  10   7  -5   12.08    0.82
 -10   7   5   13.41    0.94
  10  -7  -5   12.78    0.91
 -10  -7   5   11.99    0.91
  10   7  -4    0.08    0.10
  10   7  -4    0.25    0.21
 -10   7   4    0.30    0.26
 -10  -7   4   -0.03    0.21
  10  -7  -4    0.12    0.20
 -10   7   3    9.37    0.71
  10   7  -3    8.91    0.66
 -10  -7   3    8.17    0.68
  10  -7  -3    8.51    0.64
  10   7  -2    0.02    0.18
 -10   7   2    0.17    0.23
  10  -7  -2    0.38    0.19
 -10  -7   2    0.18    0.22
  10   7  -1   18.09    1.23
 -10   7   1   20.60    1.27
 -10  -7   1   18.32    1.27
  10  -7  -1   18.95    1.23
  10   7   0    0.09    0.19
 -10   7   0    0.20    0.21
 -10  -7   0    0.02    0.22
  10  -7   0    0.26    0.18
  10   7   1   17.60    1.22
 -10   7  -1   19.78    1.24
 -10  -7  -1   19.13    1.25
  10  -7   1   18.62    1.22
 -10   7  -2    0.38    0.20
 -10   7  -2    0.33    0.18
  10   7   2    0.25    0.21
 -10  -7  -2    0.08    0.21
  10  -7   2    0.40    0.18
 -10   7  -3    8.85    0.63
  10   7   3    7.99    0.65
 -10   7  -3    8.49    0.64
  10  -7   3    8.63    0.63
 -10  -7  -3    8.63    0.67
  10   7   4   -0.12    0.20
 -10   7  -4   -0.06    0.19
  10  -7   4    0.07    0.16
 -10  -7  -4    0.11    0.24
  10   7   5   12.52    0.87
  10  -7   5   11.75    0.82
  10   7   6    0.34    0.25
 -10  -7  -6    0.12    0.23
  10  -7   6   -0.02    0.16
 -10   8   5    0.36    0.30
  10   8  -5    0.05    0.13
 -10  -8   5    0.09    0.25
 -10   8   4    6.85    0.64
  10  -8  -4    5.94    0.53
 -10  -8   4    6.80    0.61
  10   8  -3    0.35    0.22
 -10   8   3    0.58    0.29
 -10  -8   3    0.21    0.25
  10  -8  -3    0.14    0.23
 -10   8   2   11.26    0.85
  10   8  -2   10.54    0.80
 -10  -8   2   11.85    0.85
  10  -8  -2   10.90    0.80
  10   8  -1    0.67    0.23
 -10   8   1    0.82    0.28
 -10  -8   1    0.71    0.27
  10  -8  -1    0.52    0.21
 -10   8   0    8.11    0.66
  10   8   0    7.33    0.62
 -10  -8   0    8.26    0.67
  10  -8   0    8.43    0.63
  10   8   1    0.59    0.24
 -10   8  -1    0.77    0.26
  10  -8   1    0.61    0.21
 -10  -8  -1    0.69    0.27
  10   8   2   10.62    0.81
 -10   8  -2   11.23    0.80
  10  -8   2   11.06    0.77
 -10  -8  -2   11.02    0.83
 -10   8  -3    0.12    0.20
  10   8   3    0.16    0.24
  10  -8   3    0.37    0.20
 -10  -8  -3    0.53    0.25
 -10   8  -4    6.12    0.55
  10   8   4    6.80    0.59
  10  -8   4    6.48    0.53
  10   8   5    0.12    0.26
 -10   8  -5    0.14    0.23
  10  -8   5    0.06    0.18
  10   9  -3    5.80    0.56
 -10   9   3    6.57    0.64
  10  -9  -3    6.48    0.58
 -10  -9   3    6.50    0.61
  10   9  -2    0.10    0.23
 -10   9   2    0.41    0.28
  10  -9  -2    0.23    0.24
 -10  -9   2    0.30    0.27
 -10   9   1    6.55    0.64
  10   9  -1    6.00    0.55
  10  -9  -1    6.44    0.55
 -10  -9   1    5.37    0.62
 -10   9   0    0.09    0.27
  10   9   0    0.16    0.24
 -10  -9   0    0.20    0.28
  10  -9   0    0.04    0.23
  10   9   1    5.82    0.56
 -10   9  -1    7.09    0.60
 -10  -9  -1    6.10    0.60
  10  -9   1    6.06    0.55
 -10   9  -2   -0.08    0.25
  10   9   2    0.13    0.25
 -10  -9  -2    0.26    0.27
  10  -9   2    0.18    0.23
  10   9   3    5.23    0.55
  10  -9   3    5.97    0.52
 -10  -9  -3    6.24    0.60
 -11   0   9   -0.79    0.28
  11   0  -9   -0.27    0.51
  11   0  -9    0.31    0.25
 -11   0   8    6.06    0.67
  11   0  -8    6.06    0.93
  11   0  -8    6.80    0.62
  11   0  -7    0.27    0.43
  11   0  -7    0.15    0.10
  11   0  -7    0.55    0.24
 -11   0   7    0.12    0.29
  11   0  -6   31.16    2.19
  11   0  -6   29.95    1.89
 -11   0   6   33.20    2.01
  11   0  -6   28.98    1.98
  11   0  -5    0.18    0.22
  11   0  -5    0.27    0.13
 -11   0   5    0.42    0.26
  11   0  -5    0.02    0.32
  11   0  -5    0.27    0.15
  11   0  -4   76.65    4.81
  11   0  -4   71.50    4.76
  11   0  -4   82.55    4.96
 -11   0   4   82.68    4.84
  11   0  -3    0.05    0.25
  11   0  -3    0.34    0.20
 -11   0   3    0.16    0.21
 -11   0   3    0.41    0.19
  11   0  -2   77.00    5.11
  11   0  -2   85.05    5.14
  11   0  -2   77.03    5.11
  11   0  -2   90.92    5.24
 -11   0   2   89.88    5.17
  11   0  -1    0.02    0.14
 -11   0   1    0.16    0.19
  11   0  -1   -0.15    0.13
  11   0  -1    0.16    0.15
  11   0  -1    0.08    0.18
  11   0   0  267.64   18.15
 -11   0   0  305.94   18.16
 -11   0   0  319.07   18.20
  11   0   0  302.04   18.21
  11   0   0  308.82   18.15
 -11   0  -1    0.23    0.09
  11   0   1   -0.04    0.13
  11   0   1   -0.09    0.16
  11   0   1   -0.04    0.11
 -11   0  -1   -0.01    0.17
  11   0   1   -0.02    0.14
 -11   0  -2   94.20    5.33
 -11   0  -2   76.98    5.31
  11   0   2   89.84    5.30
  11   0   3    0.29    0.16
 -11   0  -3    0.02    0.18
  11   0   4   80.80    5.14
 -11   0  -4   87.87    5.17
 -11   0  -5    0.10    0.21
  11   0   5    0.07    0.16
 -11   0  -6   31.75    1.96
  11   0   6   30.00    1.93
 -11   0  -7   -0.12    0.22
  11   0   7    0.00    0.18
  11   0   8    5.73    0.49
 -11   0  -8    6.40    0.57
  11   1  -9    5.88    0.95
  11   1  -9    4.68    0.58
 -11   1   9    3.21    0.51
  11  -1  -9    6.12    0.67
 -11  -1   9    5.12    0.66
  11   1  -8    0.01    0.44
  11   1  -8    0.35    0.24
 -11  -1   8    0.15    0.33
  11  -1  -8    0.22    0.27
  11   1  -7   15.81    1.39
  11   1  -7   14.93    1.12
  11  -1  -7   15.52    1.39
  11  -1  -7   18.20    1.02
 -11  -1   7   16.68    1.19
  11   1  -6    2.31    0.23
  11   1  -6    1.74    0.46
 -11   1   6    1.73    0.35
  11   1  -6    2.13    0.29
  11  -1  -6    2.43    0.23
  11  -1  -6    1.75    0.50
 -11  -1   6    1.80    0.37
  11  -1  -6    1.47    0.31
 -11   1   5   29.46    1.96
  11   1  -5   30.82    1.92
  11   1  -5   32.57    2.14
  11   1  -5   27.98    1.87
 -11  -1   5   29.89    1.99
  11  -1  -5   30.18    2.12
  11  -1  -5   33.60    1.87
  11  -1  -5   26.68    1.94
 -11   1   4    2.75    0.39
  11   1  -4    4.67    0.40
  11   1  -4    2.56    0.30
  11   1  -4    4.07    0.59
 -11  -1   4    2.92    0.43
  11  -1  -4    2.61    0.35
  11  -1  -4    3.37    0.55
  11  -1  -4    3.54    0.30
  11  -1  -4    3.81    0.31
  11   1  -3  103.67    6.00
  11   1  -3  100.02    6.00
  11   1  -3  104.08    6.02
 -11   1   3  101.75    6.06
  11   1  -3  108.69    6.19
  11  -1  -3   96.88    5.99
 -11  -1   3   84.86    6.06
  11  -1  -3   91.50    5.99
  11  -1  -3   86.33    6.03
  11  -1  -3  107.99    6.17
 -11   1   2    1.81    0.27
  11   1  -2    2.23    0.42
  11   1  -2    2.71    0.30
 -11   1   2    2.24    0.32
  11  -1  -2    1.24    0.21
 -11  -1   2    1.79    0.33
  11  -1  -2    1.71    0.26
  11  -1  -2    2.27    0.40
  11  -1  -2    1.45    0.22
 -11   1   1  130.81    7.97
  11   1  -1  143.36    8.07
  11   1  -1  134.50    7.94
  11  -1  -1  107.21    7.92
  11  -1  -1  147.02    8.03
 -11  -1   1  121.15    7.99
 -11   1   0   -0.09    0.14
 -11   1   0   -0.12    0.17
  11   1   0   -0.29    0.13
  11   1   0   -0.04    0.18
  11   1   0    0.22    0.15
  11   1   0    0.11    0.15
  11  -1   0    0.17    0.15
  11  -1   0   -0.37    0.13
  11  -1   0   -0.26    0.14
 -11  -1   0   -0.14    0.19
  11   1   1  137.74    8.69
  11  -1   1  152.61    8.66
 -11  -1  -1  120.44    8.67
  11  -1   1  157.12    8.66
  11  -1   1  143.51    8.64
 -11  -1  -1  144.50    8.69
  11   1   2    3.07    0.31
 -11   1  -2    2.12    0.28
  11   1   2    2.70    0.27
 -11  -1  -2    2.63    0.32
  11  -1   2    2.70    0.30
  11   1   3   79.74    5.64
 -11   1  -3   86.83    5.62
 -11  -1  -3  102.21    5.66
 -11  -1  -3   83.30    5.66
  11  -1   3  110.48    5.64
  11   1   4    2.41    0.32
 -11   1  -4    3.21    0.37
 -11   1  -4    3.72    0.28
 -11  -1  -4    2.21    0.30
  11  -1   4    4.21    0.33
 -11  -1  -4    2.99    0.40
  11   1   5   24.53    1.83
 -11   1  -5   33.70    1.85
 -11  -1  -5   26.99    1.86
  11  -1   5   30.99    1.82
 -11   1  -6    1.34    0.25
  11   1   6    0.96    0.24
  11  -1   6    1.97    0.23
 -11  -1  -6    1.62    0.29
  11   1   7   10.92    0.85
 -11   1  -7   13.22    0.87
 -11  -1  -7   10.78    0.90
  11  -1   7   14.06    0.83
  11   1   8    0.25    0.20
 -11  -1  -8   -0.12    0.23
 -11  -1  -9    6.15    0.63
 -11  -1  -9    4.89    0.49
 -11   2   9    0.68    0.29
  11   2  -9    0.37    0.53
 -11  -2   9    0.28    0.34
  11  -2  -9    0.22    0.32
 -11   2   8    9.04    0.81
  11   2  -8   11.71    1.18
 -11  -2   8   10.59    0.91
  11  -2  -8   10.59    0.86
 -11   2   7   -0.05    0.25
  11   2  -7   -0.27    0.23
  11   2  -7    0.14    0.43
  11  -2  -7    0.33    0.24
 -11  -2   7   -0.10    0.29
  11  -2  -7    0.10    0.12
  11   2  -6   19.09    1.64
  11   2  -6   19.33    1.30
  11   2  -6   21.92    1.29
  11  -2  -6   20.17    1.38
  11  -2  -6   22.98    1.30
  11   2  -5    0.11    0.20
  11   2  -5   -0.17    0.17
  11   2  -5   -0.03    0.36
  11  -2  -5    0.29    0.13
  11  -2  -5    0.51    0.15
 -11  -2   5    0.22    0.26
  11  -2  -5    0.31    0.19
  11   2  -4   47.86    2.67
  11   2  -4   36.77    2.88
  11   2  -4   39.06    2.68
  11   2  -4   45.15    2.67
 -11  -2   4   36.93    2.72
  11  -2  -4   43.80    2.68
  11  -2  -4   46.61    2.64
  11  -2  -4   46.62    2.64
  11   2  -3    0.67    0.19
  11   2  -3    0.60    0.19
  11   2  -3    0.39    0.20
 -11   2   3    0.47    0.18
  11   2  -3    0.36    0.33
 -11  -2   3    0.66    0.24
  11  -2  -3    0.49    0.14
  11  -2  -3    0.54    0.18
  11  -2  -3    0.81    0.16
  11   2  -2  140.22    8.79
  11   2  -2  152.89    8.80
 -11   2   2  142.30    8.78
 -11  -2   2  133.21    8.82
  11  -2  -2  155.93    8.77
  11  -2  -2  143.21    8.76
  11  -2  -2  145.21    8.79
 -11   2   1    2.36    0.27
  11   2  -1    1.83    0.27
  11  -2  -1    2.11    0.25
 -11  -2   1    2.16    0.32
  11  -2  -1    2.26    0.27
  11  -2  -1    2.31    0.25
 -11   2   0   56.96    4.23
  11   2   0   77.16    4.27
  11   2   0   72.35    4.24
  11  -2   0   67.18    4.21
 -11  -2   0   70.69    4.29
  11  -2   0   67.80    4.22
  11  -2   0   71.86    4.25
 -11   2  -1    1.67    0.26
  11   2   1    2.11    0.25
 -11   2  -1    2.42    0.28
 -11  -2  -1    1.05    0.28
  11  -2   1    1.68    0.23
  11  -2   1    1.19    0.21
 -11  -2  -1    2.63    0.32
  11  -2   1    2.62    0.28
  11   2   2  148.55    8.39
 -11   2  -2  129.07    8.38
 -11  -2  -2  127.21    8.44
 -11  -2  -2  147.96    8.41
  11   2   3    0.34    0.17
 -11   2  -3    1.01    0.15
 -11  -2  -3    0.64    0.19
 -11  -2  -3    0.58    0.23
 -11   2  -4   45.30    2.72
  11   2   4   40.08    2.74
 -11  -2  -4   50.49    2.78
 -11  -2  -4   42.50    2.76
  11   2   5    0.17    0.17
 -11  -2  -5    0.28    0.19
  11   2   6   19.34    1.14
 -11  -2  -6   16.16    1.15
  11  -2   6   14.83    1.12
 -11  -2  -6   20.20    1.18
  11   2   7    0.21    0.19
 -11  -2  -7   -0.21    0.19
  11  -2   7    0.07    0.14
 -11  -2  -7    0.03    0.22
  11   2   8   10.89    0.76
 -11   2  -8    8.95    0.74
 -11  -2  -8   11.39    0.77
  11  -2   8   10.58    0.70
 -11  -2  -8   10.79    0.82
 -11   2  -9    0.28    0.21
 -11  -2  -9   -0.07    0.21
 -11  -2  -9    0.47    0.27
  11   3  -8    0.47    0.54
 -11   3   8    0.56    0.30
 -11  -3   8    0.41    0.31
  11  -3  -8    0.64    0.28
 -11   3   7    8.95    0.72
  11   3  -7    7.87    1.05
  11   3  -7    8.50    0.56
 -11  -3   7    7.04    0.76
  11  -3  -7    8.96    0.58
  11  -3  -7    9.25    0.71
 -11   3   6    0.62    0.25
  11   3  -6    0.29    0.46
  11   3  -6    0.41    0.10
  11   3  -6   -0.17    0.14
  11  -3  -6    0.41    0.22
  11  -3  -6    0.45    0.15
 -11  -3   6    0.23    0.27
  11   3  -5   45.70    2.72
 -11   3   5   40.81    2.76
  11   3  -5   41.69    2.72
  11   3  -5   48.96    2.69
  11  -3  -5   44.52    2.73
 -11  -3   5   41.36    2.77
  11  -3  -5   48.16    2.71
 -11  -3   5   37.07    2.74
  11  -3  -5   46.36    2.69
 -11   3   4    1.17    0.26
  11   3  -4    0.60    0.40
  11   3  -4    1.33    0.23
  11   3  -4    1.31    0.23
  11  -3  -4    1.28    0.19
 -11  -3   4    0.93    0.23
  11  -3  -4    1.11    0.21
  11  -3  -4    1.23    0.18
 -11  -3   4    1.20    0.27
  11   3  -3   36.76    2.46
 -11   3   3   35.34    2.47
  11   3  -3   40.59    2.48
 -11  -3   3   39.00    2.46
 -11  -3   3   41.34    2.48
  11  -3  -3   39.80    2.42
  11  -3  -3   40.85    2.45
  11  -3  -3   41.22    2.42
 -11   3   2    0.77    0.21
  11   3  -2    0.46    0.20
  11   3  -2    0.27    0.20
 -11   3   2    0.50    0.15
 -11  -3   2    0.52    0.20
  11  -3  -2    0.81    0.15
  11  -3  -2    0.48    0.17
  11  -3  -2    0.77    0.16
 -11  -3   2    0.54    0.19
 -11   3   1   93.56    6.34
  11   3  -1  105.22    6.37
  11   3  -1   96.61    6.33
 -11   3   1  101.61    6.32
  11  -3  -1  110.51    6.31
 -11  -3   1  100.42    6.34
  11  -3  -1  110.66    6.31
  11  -3  -1  112.04    6.33
 -11  -3   1  100.41    6.32
 -11  -3   1  108.99    6.36
 -11   3   0    0.24    0.15
  11   3   0   -0.01    0.16
 -11   3   0    0.21    0.15
 -11  -3   0    0.19    0.17
 -11  -3   0    0.00    0.11
  11  -3   0    0.18    0.15
  11  -3   0    0.34    0.14
 -11  -3   0    0.44    0.20
  11  -3   0    0.02    0.12
  11   3   1   90.82    6.05
 -11   3  -1  104.84    6.07
 -11   3  -1   92.66    6.08
 -11  -3  -1  103.66    6.07
  11  -3   1  103.31    6.06
 -11  -3  -1  100.76    6.11
  11  -3   1  101.71    6.06
 -11   3  -2    0.85    0.16
 -11   3  -2    0.27    0.16
  11   3   2    0.38    0.16
 -11   3  -2    0.14    0.18
  11  -3   2    0.69    0.16
 -11  -3  -2    0.49    0.17
 -11  -3  -2    0.39    0.23
 -11   3  -3   34.14    2.36
  11   3   3   37.93    2.35
 -11   3  -3   40.53    2.35
  11  -3   3   37.83    2.35
 -11  -3  -3   39.98    2.37
 -11   3  -4    1.11    0.16
  11   3   4    1.08    0.19
 -11   3  -4    0.85    0.19
  11  -3   4    1.16    0.18
 -11  -3  -4    0.98    0.26
 -11  -3  -4    0.85    0.21
  11   3   5   42.04    2.58
 -11   3  -5   37.79    2.59
  11  -3   5   42.04    2.58
 -11  -3  -5   45.57    2.60
 -11   3  -6    0.37    0.18
  11   3   6    0.29    0.18
  11  -3   6    0.78    0.15
 -11  -3  -6    0.11    0.20
  11   3   7    8.32    0.61
 -11   3  -7    8.23    0.61
  11  -3   7    8.33    0.57
 -11  -3  -7    8.11    0.63
  11   3   8    0.82    0.21
 -11   3  -8    0.47    0.19
 -11  -3  -8    0.28    0.22
  11  -3   8    0.62    0.14
  11   4  -8    6.78    1.10
 -11   4   8    7.64    0.67
  11  -4  -8    7.15    0.68
 -11  -4   8    6.25    0.72
 -11   4   7    1.21    0.29
  11   4  -7    0.25    0.55
  11   4  -7    0.46    0.10
  11   4  -7    0.54    0.14
 -11  -4   7    0.41    0.30
 -11  -4   7    0.71    0.26
  11  -4  -7    0.74    0.16
  11  -4  -7    0.46    0.27
  11   4  -6   13.21    0.85
 -11   4   6   13.45    0.97
 -11  -4   6   12.86    0.96
 -11  -4   6   14.10    1.00
  11  -4  -6   13.99    0.88
  11  -4  -6   13.07    0.95
  11   4  -5    0.00    0.09
  11   4  -5   -0.07    0.41
 -11   4   5    0.30    0.22
  11   4  -5   -0.11    0.19
  11   4  -5   -0.08    0.18
  11  -4  -5    0.18    0.16
  11  -4  -5    0.12    0.15
 -11  -4   5    0.00    0.19
  11  -4  -5    0.06    0.20
 -11  -4   5   -0.10    0.22
  11   4  -4   36.79    2.43
  11   4  -4   36.89    2.42
  11   4  -4   39.60    2.36
 -11   4   4   40.05    2.43
  11  -4  -4   40.49    2.38
  11  -4  -4   38.77    2.41
 -11  -4   4   35.30    2.41
  11  -4  -4   40.16    2.38
  11   4  -3    0.70    0.24
  11   4  -3    0.70    0.24
 -11   4   3    1.50    0.25
  11  -4  -3    1.27    0.20
  11  -4  -3    1.31    0.18
 -11  -4   3    1.16    0.23
  11  -4  -3    1.15    0.23
 -11   4   2   42.90    2.77
  11   4  -2   43.87    2.77
  11   4  -2   44.94    2.80
 -11  -4   2   47.12    2.77
  11  -4  -2   42.21    2.75
  11  -4  -2   43.06    2.74
  11  -4  -2   47.67    2.74
 -11   4   1    3.37    0.33
  11   4  -1    3.33    0.36
 -11   4   1    3.36    0.36
  11  -4  -1    3.67    0.32
 -11  -4   1    3.92    0.39
 -11   4   0   78.28    4.89
  11   4   0   77.16    4.89
 -11   4   0   82.20    4.90
 -11  -4   0   77.35    4.90
 -11  -4   0   87.27    4.93
  11  -4   0   78.99    4.88
 -11   4  -1    4.17    0.35
 -11   4  -1    3.91    0.36
  11   4   1    3.09    0.33
 -11  -4  -1    3.68    0.42
  11  -4   1    4.42    0.33
 -11  -4  -1    3.11    0.39
 -11  -4  -1    3.62    0.35
 -11   4  -2   42.64    2.77
 -11   4  -2   41.29    2.79
  11   4   2   43.15    2.77
 -11  -4  -2   47.24    2.79
  11  -4   2   47.97    2.77
 -11  -4  -2   48.06    2.82
 -11  -4  -2   44.68    2.80
 -11   4  -3    1.15    0.18
  11   4   3    1.25    0.20
 -11   4  -3    0.50    0.22
 -11  -4  -3    1.41    0.23
  11  -4   3    1.78    0.22
 -11  -4  -3    1.26    0.28
 -11   4  -4   40.92    2.35
  11   4   4   35.98    2.33
  11  -4   4   40.26    2.32
 -11  -4  -4   39.05    2.35
 -11  -4  -4   31.34    2.39
  11   4   5    0.04    0.17
 -11  -4  -5   -0.02    0.18
  11  -4   5    0.20    0.13
  11   4   6   12.14    0.87
 -11  -4  -6   13.49    0.90
  11  -4   6   13.06    0.85
  11   4   7    0.66    0.22
  11  -4   7    0.74    0.16
 -11  -4  -7    0.68    0.23
  11   4   8    6.63    0.53
  11  -4   8    6.12    0.47
 -11  -4  -8    6.55    0.57
  11   5  -8    0.01    0.56
 -11   5   7   12.61    0.93
  11   5  -7   10.83    0.76
 -11  -5   7   12.32    0.91
  11  -5  -7   12.97    0.80
  11  -5  -7   11.74    0.91
 -11  -5   7   12.03    0.95
  11   5  -6    0.06    0.10
  11   5  -6   -0.09    0.18
  11   5  -6   -0.30    0.50
 -11   5   6    0.33    0.27
  11  -5  -6   -0.01    0.16
  11  -5  -6    0.05    0.24
 -11  -5   6    0.00    0.24
  11   5  -5    9.32    0.59
 -11   5   5    9.43    0.72
  11   5  -5    8.58    0.68
  11  -5  -5    8.91    0.69
  11  -5  -5    8.80    0.63
  11  -5  -5    8.75    0.62
 -11  -5   5    6.95    0.67
  11   5  -4    0.30    0.21
  11   5  -4    0.18    0.21
  11   5  -4    0.00    0.11
 -11   5   4    0.47    0.24
  11  -5  -4    0.26    0.18
 -11  -5   4    0.00    0.20
  11  -5  -4    0.06    0.24
  11   5  -3   44.02    2.67
  11   5  -3   42.31    2.72
 -11   5   3   45.99    2.73
  11   5  -3   41.65    2.75
  11  -5  -3   47.11    2.69
 -11  -5   3   40.05    2.71
  11   5  -2    0.08    0.18
  11   5  -2    0.21    0.11
 -11   5   2    0.71    0.21
 -11  -5   2    0.06    0.19
  11  -5  -2    0.28    0.17
  11   5  -1   31.48    1.96
 -11   5   1   33.05    1.98
  11  -5  -1   31.65    1.94
 -11  -5   1   28.73    1.97
  11   5   0    0.25    0.18
 -11   5   0    0.32    0.18
 -11   5   0    0.18    0.15
 -11  -5   0    0.24    0.19
  11  -5   0    0.44    0.17
 -11   5  -1   32.17    1.95
  11   5   1   27.83    1.94
 -11   5  -1   31.33    1.95
  11  -5   1   34.08    1.94
 -11  -5  -1   29.90    1.96
 -11   5  -2    0.30    0.17
 -11   5  -2    0.30    0.18
  11   5   2    0.39    0.17
 -11  -5  -2    0.29    0.21
 -11  -5  -2    0.18    0.16
  11  -5   2    0.28    0.15
  11   5   3   44.35    2.71
 -11   5  -3   44.95    2.71
 -11   5  -3   38.82    2.73
 -11  -5  -3   44.42    2.72
  11  -5   3   42.59    2.70
 -11  -5  -3   47.00    2.77
 -11  -5  -3   45.12    2.74
 -11   5  -4   -0.28    0.19
  11   5   4   -0.05    0.19
  11  -5   4    0.19    0.15
 -11  -5  -4   -0.19    0.23
 -11  -5  -4    0.25    0.20
 -11  -5  -4    0.04    0.17
  11   5   5    8.17    0.64
  11  -5   5    9.08    0.61
 -11  -5  -5    8.45    0.66
  11   5   6    0.12    0.21
 -11  -5  -6    0.25    0.21
  11  -5   6    0.16    0.14
  11   5   7   11.08    0.81
  11  -5   7   11.48    0.78
 -11  -5  -7   12.54    0.85
  11   6  -7   -0.41    0.16
  11   6  -7   -0.37    0.55
  11   6  -7   -0.04    0.09
 -11   6   7    0.41    0.30
  11  -6  -7   -0.03    0.18
 -11  -6   7    0.20    0.27
 -11   6   6   12.60    0.87
  11   6  -6   10.85    0.72
  11   6  -6    9.89    0.79
  11  -6  -6   11.50    0.75
 -11  -6   6   10.17    0.83
  11   6  -5    0.18    0.23
  11   6  -5    0.01    0.11
 -11   6   5    0.27    0.28
  11  -6  -5    0.04    0.19
 -11  -6   5   -0.07    0.22
  11   6  -4   11.03    1.00
 -11   6   4   14.51    1.00
  11   6  -4   13.34    0.99
  11   6  -4   15.70    0.91
  11  -6  -4   14.88    0.94
 -11  -6   4   13.28    0.97
  11   6  -3    0.38    0.21
 -11   6   3    0.67    0.26
  11   6  -3    0.37    0.13
 -11  -6   3    0.45    0.23
  11  -6  -3    0.71    0.21
 -11   6   2   22.60    1.40
  11   6  -2   20.97    1.37
  11  -6  -2   21.04    1.36
 -11  -6   2   20.31    1.39
  11   6  -1    1.95    0.27
 -11   6   1    2.73    0.32
  11  -6  -1    2.59    0.33
 -11  -6   1    1.77    0.29
  11   6   0   27.57    1.82
 -11   6   0   28.46    1.84
  11  -6   0   30.18    1.82
 -11  -6   0   29.70    1.85
 -11   6  -1    1.91    0.26
  11   6   1    2.29    0.28
 -11   6  -1    2.23    0.29
 -11  -6  -1    2.06    0.30
  11  -6   1    2.13    0.26
 -11   6  -2   19.67    1.33
  11   6   2   18.91    1.32
 -11   6  -2   21.41    1.33
 -11  -6  -2   21.93    1.36
  11  -6   2   20.78    1.32
 -11   6  -3    0.42    0.18
  11   6   3    0.37    0.20
 -11   6  -3    0.19    0.19
  11  -6   3    0.48    0.18
 -11  -6  -3    0.42    0.24
 -11   6  -4   10.29    0.91
  11   6   4   13.58    0.91
  11  -6   4   14.26    0.89
 -11  -6  -4   13.55    0.98
 -11  -6  -4   13.44    0.94
 -11  -6  -4   13.34    0.92
  11   6   5    0.16    0.22
  11  -6   5    0.21    0.16
 -11  -6  -5   -0.01    0.22
  11   6   6   10.60    0.79
 -11  -6  -6   11.44    0.81
  11  -6   6   10.60    0.75
  11   6   7    0.09    0.24
 -11  -6  -7   -0.09    0.25
  11  -6   7   -0.13    0.16
 -11   7   6    0.11    0.31
  11   7  -6   -0.20    0.22
  11   7  -6    0.03    0.12
 -11  -7   6    0.25    0.26
 -11   7   5   12.73    0.94
  11   7  -5   12.51    0.82
 -11  -7   5   11.99    0.92
 -11   7   4    1.01    0.31
  11   7  -4    0.75    0.27
  11   7  -4    0.71    0.17
  11  -7  -4    0.84    0.22
 -11  -7   4    0.68    0.25
 -11   7   3    8.79    0.71
  11   7  -3    8.54    0.66
  11  -7  -3    9.38    0.65
 -11  -7   3    7.78    0.69
  11   7  -2    0.10    0.20
 -11   7   2    0.36    0.26
 -11  -7   2    0.04    0.23
  11  -7  -2    0.46    0.22
  11   7  -1   16.46    1.14
 -11   7   1   17.40    1.16
  11  -7  -1   18.38    1.13
 -11  -7   1   16.02    1.16
  11   7   0    0.11    0.20
 -11   7   0    0.29    0.23
 -11  -7   0    0.18    0.22
  11  -7   0    0.31    0.20
 -11   7  -1   18.46    1.16
  11   7   1   16.57    1.13
 -11  -7  -1   17.08    1.16
  11  -7   1   16.39    1.13
  11   7   2    0.10    0.21
 -11   7  -2    0.11    0.21
 -11   7  -2   -0.13    0.22
  11  -7   2    0.33    0.19
 -11  -7  -2    0.20    0.24
 -11   7  -3    8.35    0.65
  11   7   3    8.18    0.66
 -11  -7  -3    8.86    0.69
  11  -7   3    8.37    0.64
  11   7   4    0.69    0.25
 -11   7  -4    0.50    0.24
  11  -7   4    0.73    0.21
  11   7   5   11.00    0.79
 -11   7  -5    9.13    0.80
  11  -7   5   11.54    0.76
  11   7   6    0.06    0.25
  11  -7   6    0.08    0.17
 -11   8   4    7.82    0.70
 -11  -8   4    6.58    0.64
  11  -8  -4    7.20    0.59
 -11   8   3    0.57    0.31
  11   8  -3    0.41    0.25
 -11  -8   3    0.21    0.26
  11  -8  -3    0.56    0.25
 -11   8   2   11.99    0.91
  11   8  -2   11.48    0.86
 -11  -8   2   11.99    0.91
  11  -8  -2   12.72    0.86
  11   8  -1    0.30    0.23
 -11   8   1    0.36    0.28
  11  -8  -1    0.22    0.22
 -11  -8   1    0.08    0.27
  11   8   0    6.40    0.60
 -11   8   0    7.53    0.62
  11  -8   0    7.39    0.58
 -11  -8   0    6.19    0.62
 -11   8  -1    0.43    0.25
  11   8   1    0.24    0.24
  11  -8   1    0.41    0.22
 -11  -8  -1    0.20    0.26
 -11   8  -2   13.00    0.88
  11   8   2   11.08    0.86
 -11  -8  -2   12.10    0.91
  11  -8   2   12.19    0.86
  11   8   3    0.49    0.26
 -11   8  -3    0.29    0.28
 -11  -8  -3    0.58    0.27
  11  -8   3    0.23    0.22
 -11   8  -4    6.01    0.58
  11   8   4    6.55    0.61
  11  -8   4    6.64    0.55
 -11   9   2    0.71    0.32
  11   9  -2    0.31    0.26
 -11  -9   2    0.43    0.30
  11  -9  -2    0.51    0.26
 -11   9   1    6.44    0.66
  11   9  -1    5.64    0.56
 -11  -9   1    6.41    0.63
  11  -9  -1    6.78    0.60
 -11   9   0    0.12    0.29
  11   9   0    0.15    0.27
 -11  -9   0    0.09    0.29
  11  -9   0    0.27    0.25
 -11   9  -1    6.54    0.63
  11   9   1    6.14    0.58
  11  -9   1    6.54    0.59
 -11  -9  -1    6.20    0.63
  11   9   2    0.32    0.28
  11  -9   2    0.52    0.25
 -11  -9  -2    0.49    0.30
 -12   0   9   -0.19    0.31
  12   0  -9    0.33    0.27
  12   0  -9   -0.01    0.55
 -12   0   8   -0.21    0.31
  12   0  -8   -0.05    0.47
  12   0  -8    0.76    0.26
  12   0  -7    0.06    0.12
 -12   0   7   -0.14    0.29
  12   0  -7    0.00    0.41
  12   0  -7    0.42    0.24
 -12   0   6    0.19    0.26
  12   0  -6    0.10    0.37
  12   0  -6    0.62    0.24
  12   0  -6    0.36    0.14
  12   0  -5    0.09    0.16
 -12   0   5    0.51    0.27
  12   0  -5    0.08    0.30
  12   0  -5    0.19    0.14
  12   0  -5    0.31    0.23
  12   0  -4    1.56    0.28
 -12   0   4    1.30    0.30
  12   0  -4    1.09    0.37
  12   0  -3    0.36    0.19
  12   0  -3   -0.11    0.17
  12   0  -3   -0.42    0.15
 -12   0   3    0.52    0.24
  12   0  -3    0.06    0.25
  12   0  -2    0.86    0.20
  12   0  -2    0.90    0.28
  12   0  -2    0.78    0.19
 -12   0   2    1.16    0.26
  12   0  -2    0.84    0.19
  12   0  -1   -0.11    0.13
  12   0  -1    0.28    0.15
 -12   0   1    0.17    0.21
  12   0  -1    0.18    0.19
  12   0  -1   -0.05    0.14
  12   0   0    3.57    0.40
  12   0   0    3.70    0.34
  12   0   0    3.51    0.35
 -12   0   0    3.87    0.42
  12   0   0    3.68    0.35
  12   0   1   -0.01    0.12
  12   0   1    0.10    0.15
  12   0   1   -0.05    0.13
 -12   0  -1   -0.25    0.16
 -12   0  -1    0.01    0.19
  12   0   2    1.05    0.19
 -12   0  -2    0.73    0.21
 -12   0  -2    0.92    0.23
 -12   0  -3    0.05    0.19
  12   0   3    0.32    0.17
 -12   0  -3   -0.13    0.16
 -12   0  -4    0.87    0.24
  12   0   4    1.09    0.21
  12   0   5    0.24    0.18
 -12   0  -5    0.10    0.21
  12   0   6    0.25    0.18
 -12   0  -6   -0.21    0.21
  12   0   7   -0.15    0.19
 -12   0  -7   -0.13    0.23
  12   0   8   -0.04    0.19
 -12   0  -8   -0.43    0.22
  12   1  -9   -0.04    0.27
  12   1  -9    0.03    0.54
  12  -1  -9    0.30    0.31
 -12  -1   9   -0.19    0.34
  12   1  -8    0.33    0.50
  12   1  -8   -0.06    0.24
 -12  -1   8   -0.28    0.32
  12  -1  -8    0.29    0.28
  12   1  -7    0.14    0.12
 -12   1   7   -0.34    0.26
  12   1  -7    0.21    0.43
  12   1  -7    0.04    0.08
  12   1  -7    0.47    0.23
  12  -1  -7   -0.08    0.45
 -12  -1   7    0.52    0.31
  12  -1  -7    0.25    0.13
  12  -1  -7    0.24    0.26
  12   1  -6    0.52    0.21
  12   1  -6    0.31    0.39
 -12   1   6   -0.08    0.27
  12   1  -6    0.27    0.14
 -12  -1   6    0.28    0.28
  12  -1  -6    0.21    0.24
  12  -1  -6    0.23    0.14
  12  -1  -6   -0.10    0.35
  12   1  -5    0.48    0.37
  12   1  -5   -0.20    0.14
 -12   1   5   -0.05    0.26
  12   1  -5    0.45    0.20
  12  -1  -5    0.36    0.16
  12  -1  -5    0.26    0.14
  12  -1  -5   -0.03    0.29
 -12  -1   5    0.00    0.26
  12  -1  -5    0.24    0.25
  12   1  -4   -0.29    0.16
  12   1  -4    0.34    0.18
 -12   1   4   -0.02    0.23
  12   1  -4   -0.10    0.17
  12   1  -4    0.09    0.30
  12  -1  -4    0.38    0.14
 -12  -1   4    0.38    0.26
  12  -1  -4    0.01    0.27
  12  -1  -4    0.13    0.22
  12  -1  -4    0.29    0.16
 -12   1   3    1.00    0.28
  12   1  -3    0.78    0.19
  12   1  -3    1.62    0.37
  12   1  -3    0.95    0.20
  12   1  -3    0.65    0.19
  12  -1  -3    0.58    0.16
  12  -1  -3    0.52    0.18
 -12  -1   3    0.59    0.26
  12  -1  -3    0.85    0.31
  12  -1  -3    0.61    0.22
 -12   1   2    0.37    0.17
  12   1  -2    0.16    0.17
  12   1  -2    0.13    0.16
 -12   1   2    0.28    0.23
  12   1  -2    0.23    0.18
  12   1  -2    0.24    0.25
  12  -1  -2    0.27    0.19
  12  -1  -2   -0.35    0.14
 -12  -1   2    0.03    0.22
  12  -1  -2    0.23    0.24
  12  -1  -2   -0.33    0.15
  12   1  -1    2.92    0.41
  12   1  -1    2.77    0.33
 -12   1   1    3.07    0.36
 -12   1   1    2.12    0.27
  12   1  -1    3.12    0.31
  12  -1  -1    2.41    0.28
  12  -1  -1    2.12    0.27
  12  -1  -1    3.14    0.36
 -12  -1   1    2.65    0.36
 -12   1   0   -0.12    0.19
  12   1   0   -0.27    0.15
  12   1   0    0.06    0.18
  12   1   0    0.00    0.16
  12   1   0    0.04    0.16
  12  -1   0   -0.21    0.15
  12  -1   0   -0.05    0.16
  12  -1   0    0.36    0.16
 -12  -1   0   -0.07    0.19
  12   1   1    2.90    0.33
 -12   1  -1    1.73    0.30
 -12   1  -1    1.87    0.27
  12   1   1    3.72    0.35
  12   1   1    2.65    0.33
 -12  -1  -1    3.23    0.37
 -12  -1  -1    3.41    0.39
  12  -1   1    2.39    0.30
  12  -1   1    2.92    0.30
  12   1   2    0.36    0.12
 -12   1  -2   -0.10    0.16
  12   1   2    0.41    0.19
  12   1   2   -0.21    0.16
 -12  -1  -2    0.23    0.21
 -12  -1  -2    0.36    0.20
  12  -1   2    0.27    0.16
 -12   1  -3    0.28    0.16
 -12   1  -3    0.98    0.21
  12   1   3    0.24    0.19
 -12  -1  -3    0.68    0.22
 -12  -1  -3    0.78    0.22
  12  -1   3    0.75    0.19
  12   1   4   -0.37    0.17
 -12   1  -4   -0.17    0.18
 -12   1  -4    0.08    0.13
  12  -1   4   -0.01    0.17
 -12  -1  -4   -0.27    0.17
 -12  -1  -4    0.22    0.21
  12   1   5   -0.37    0.17
 -12   1  -5   -0.25    0.19
  12  -1   5    0.28    0.17
 -12  -1  -5   -0.03    0.21
 -12   1  -6   -0.22    0.20
  12   1   6    0.08    0.20
 -12  -1  -6    0.27    0.23
  12  -1   6    0.15    0.17
  12   1   7   -0.09    0.20
 -12   1  -7   -0.61    0.20
  12  -1   7   -0.08    0.18
 -12  -1  -7    0.34    0.25
  12   1   8   -0.10    0.20
 -12  -1  -8    0.04    0.28
 -12  -1  -9   -0.14    0.32
 -12  -1  -9   -0.43    0.22
  12   2  -8    0.53    0.52
 -12   2   8   -0.24    0.29
 -12  -2   8    0.17    0.34
  12  -2  -8    0.23    0.30
  12   2  -7    0.14    0.09
  12   2  -7    0.16    0.12
  12   2  -7    0.31    0.45
  12   2  -7   -0.55    0.23
 -12  -2   7   -0.05    0.30
  12  -2  -7    0.23    0.27
  12  -2  -7    0.17    0.14
  12   2  -6    0.05    0.23
  12   2  -6    0.16    0.14
  12   2  -6    0.15    0.41
  12  -2  -6    0.24    0.24
  12  -2  -6    0.26    0.15
 -12  -2   6   -0.10    0.28
  12   2  -5   -0.29    0.17
  12   2  -5   -0.08    0.21
  12   2  -5   -0.29    0.16
  12   2  -5    0.03    0.38
  12  -2  -5    0.25    0.14
 -12  -2   5   -0.50    0.24
  12  -2  -5    0.16    0.16
  12  -2  -5    0.22    0.22
 -12   2   4   -0.46    0.21
  12   2  -4    0.13    0.17
  12   2  -4    0.10    0.18
  12   2  -4   -0.01    0.20
  12   2  -4    0.03    0.33
 -12  -2   4   -0.11    0.25
  12  -2  -4    0.22    0.14
  12  -2  -4    0.38    0.16
  12  -2  -4    0.02    0.19
 -12   2   3   -0.50    0.20
  12   2  -3   -0.03    0.17
  12   2  -3   -0.38    0.17
  12   2  -3   -0.08    0.18
  12   2  -3   -0.25    0.29
 -12  -2   3   -0.09    0.23
  12  -2  -3    0.00    0.18
  12  -2  -3    0.02    0.15
  12  -2  -3    0.14    0.13
  12   2  -2    0.75    0.24
 -12   2   2    1.33    0.22
  12   2  -2    0.77    0.34
  12   2  -2    1.60    0.24
  12   2  -2    1.53    0.23
  12  -2  -2    0.86    0.22
 -12  -2   2    1.32    0.31
  12  -2  -2    1.25    0.19
  12  -2  -2    1.35    0.21
  12   2  -1    0.27    0.18
 -12   2   1    0.01    0.15
  12   2  -1   -0.10    0.18
  12   2  -1    0.06    0.25
  12  -2  -1    0.01    0.14
  12  -2  -1    0.23    0.18
  12  -2  -1    0.01    0.16
 -12  -2   1    0.00    0.24
  12   2   0    0.48    0.25
  12   2   0    0.26    0.19
 -12   2   0   -0.49    0.18
 -12   2   0    0.37    0.18
  12   2   0    0.73    0.19
  12  -2   0    0.14    0.17
  12  -2   0    0.11    0.16
 -12  -2   0    0.40    0.25
  12   2   1    0.41    0.18
  12   2   1   -0.05    0.17
 -12   2  -1   -0.15    0.16
 -12   2  -1    0.22    0.18
  12  -2   1   -0.30    0.13
  12  -2   1   -0.34    0.15
 -12  -2  -1    0.00    0.23
  12   2   2    1.16    0.22
 -12   2  -2    1.54    0.21
 -12   2  -2    0.30    0.24
  12  -2   2    0.88    0.21
 -12  -2  -2    1.34    0.28
  12   2   3    0.09    0.13
 -12   2  -3    0.35    0.14
  12   2   3   -0.04    0.18
 -12   2  -3   -0.54    0.17
 -12  -2  -3   -0.03    0.21
 -12   2  -4    0.23    0.13
 -12   2  -4   -0.51    0.18
  12   2   4    0.04    0.18
  12  -2   4   -0.21    0.17
 -12  -2  -4   -0.05    0.20
  12   2   5   -0.08    0.19
  12  -2   5   -0.49    0.15
  12   2   6    0.20    0.20
  12   2   7    0.27    0.22
 -12  -2  -7   -0.40    0.20
  12  -2   7   -0.26    0.16
  12  -2   8    0.19    0.15
 -12  -2  -8   -0.16    0.22
 -12   3   8    0.28    0.30
  12   3  -8    0.08    0.49
  12  -3  -8    0.01    0.28
 -12  -3   8   -0.30    0.34
  12   3  -7    0.05    0.09
 -12   3   7    0.15    0.27
  12   3  -7    0.22    0.13
  12   3  -7    0.00    0.47
  12  -3  -7    0.26    0.27
  12  -3  -7    0.18    0.15
 -12  -3   7   -0.05    0.30
  12   3  -6    0.00    0.10
 -12   3   6   -0.21    0.25
  12   3  -6   -0.15    0.44
  12  -3  -6    0.00    0.24
 -12  -3   6    0.02    0.29
  12  -3  -6    0.10    0.15
  12   3  -5   -0.21    0.39
  12   3  -5    0.03    0.19
 -12   3   5    0.11    0.24
  12   3  -5    0.04    0.17
 -12  -3   5   -0.03    0.26
  12  -3  -5    0.35    0.17
  12  -3  -5    0.29    0.22
  12  -3  -5    0.17    0.16
 -12   3   4   -0.23    0.22
  12   3  -4   -0.26    0.35
  12   3  -4    0.03    0.18
  12   3  -4    0.18    0.19
 -12  -3   4    0.03    0.25
  12  -3  -4    0.20    0.21
  12  -3  -4    0.40    0.17
  12  -3  -4    0.24    0.15
  12   3  -3    0.54    0.20
 -12   3   3    0.19    0.22
  12   3  -3    0.63    0.21
  12   3  -3    0.48    0.38
  12  -3  -3    0.47    0.21
  12  -3  -3    0.61    0.17
  12  -3  -3    0.66    0.17
 -12  -3   3    0.38    0.20
 -12  -3   3    0.63    0.24
  12   3  -2    0.16    0.18
 -12   3   2    0.03    0.20
  12   3  -2   -0.22    0.19
  12  -3  -2    0.09    0.15
 -12  -3   2    0.04    0.21
  12  -3  -2   -0.15    0.17
  12  -3  -2    0.08    0.13
 -12  -3   2   -0.33    0.17
 -12   3   1    0.66    0.22
  12   3  -1    0.78    0.22
 -12   3   1    0.63    0.18
  12   3  -1    0.43    0.21
 -12  -3   1    0.67    0.25
  12  -3  -1    0.83    0.16
  12  -3  -1    0.87    0.17
 -12  -3   1    0.43    0.21
 -12   3   0    0.26    0.17
 -12   3   0    0.13    0.15
  12   3   0   -0.22    0.17
 -12  -3   0   -0.08    0.15
  12  -3   0    0.20    0.15
 -12  -3   0   -0.13    0.20
  12   3   1    0.54    0.20
 -12   3  -1    0.55    0.21
 -12   3  -1    1.16    0.21
 -12  -3  -1    0.59    0.17
 -12  -3  -1    0.95    0.29
  12  -3   1    0.64    0.17
 -12   3  -2   -0.23    0.19
 -12   3  -2    0.22    0.16
  12   3   2   -0.15    0.15
 -12  -3  -2    0.01    0.24
  12  -3   2    0.02    0.15
 -12  -3  -2   -0.20    0.15
 -12   3  -3    0.68    0.17
  12   3   3    0.37    0.18
  12  -3   3    0.43    0.18
 -12  -3  -3    0.18    0.18
 -12  -3  -3    0.02    0.23
  12   3   4    0.21    0.18
 -12   3  -4    0.17    0.14
 -12  -3  -4   -0.09    0.17
 -12  -3  -4   -0.03    0.23
  12  -3   4    0.17    0.15
  12   3   5    0.29    0.19
  12  -3   5    0.16    0.15
 -12  -3  -5    0.13    0.19
  12   3   6    0.06    0.19
 -12  -3  -6   -0.17    0.20
  12  -3   6    0.15    0.14
  12   3   7    0.23    0.20
 -12  -3  -7   -0.17    0.21
  12  -3   7    0.24    0.15
  12   3   8    0.34    0.22
  12  -3   8    0.09    0.15
 -12  -3  -8   -0.01    0.24
 -12   4   8    0.56    0.31
  12   4  -8    0.26    0.57
  12  -4  -8    0.39    0.31
 -12  -4   8    0.59    0.37
  12  -4  -8    0.25    0.14
  12   4  -7   -0.06    0.09
 -12   4   7    0.34    0.28
  12   4  -7    0.08    0.52
  12   4  -7    0.08    0.13
  12  -4  -7   -0.19    0.26
 -12  -4   7    0.30    0.34
  12  -4  -7    0.13    0.16
  12   4  -6   -0.01    0.11
  12   4  -6   -0.03    0.42
  12   4  -6   -0.09    0.18
 -12   4   6    0.39    0.26
  12  -4  -6    0.09    0.16
 -12  -4   6    0.16    0.24
 -12  -4   6    0.12    0.29
  12  -4  -6   -0.07    0.24
  12   4  -5   -0.07    0.10
  12   4  -5   -0.19    0.24
  12   4  -5   -0.25    0.18
 -12   4   5    0.31    0.27
  12   4  -5   -0.12    0.42
  12  -4  -5   -0.04    0.23
 -12  -4   5    0.26    0.26
  12  -4  -5    0.21    0.16
 -12  -4   5   -0.01    0.22
  12  -4  -5    0.13    0.18
  12   4  -4    0.19    0.21
  12   4  -4    0.31    0.21
 -12   4   4    0.58    0.25
 -12  -4   4    0.15    0.22
  12  -4  -4    0.25    0.20
  12  -4  -4    0.07    0.16
  12  -4  -4    0.34    0.19
 -12  -4   4    0.33    0.24
  12   4  -3   -0.18    0.19
  12   4  -3    0.27    0.21
 -12   4   3    0.56    0.23
  12  -4  -3    0.33    0.18
 -12  -4   3    0.17    0.20
 -12  -4   3    0.18    0.22
  12   4  -2    0.14    0.21
 -12   4   2    0.40    0.21
  12   4  -2    0.13    0.21
  12  -4  -2    0.36    0.16
 -12  -4   2    0.06    0.19
 -12  -4   2    0.14    0.20
  12   4  -1    0.00    0.19
 -12   4   1    0.50    0.20
 -12  -4   1    0.26    0.21
  12  -4  -1    0.32    0.16
 -12  -4   1    0.07    0.18
  12   4   0    0.92    0.22
 -12   4   0    0.84    0.19
 -12   4   0    1.27    0.23
 -12  -4   0    0.94    0.25
 -12  -4   0    0.94    0.23
  12  -4   0    1.31    0.20
  12   4   1    0.17    0.17
 -12   4  -1    0.43    0.18
 -12   4  -1    0.18    0.18
 -12  -4  -1    0.19    0.24
 -12  -4  -1    0.09    0.16
  12  -4   1    0.40    0.16
 -12  -4  -1    0.31    0.21
  12   4   2   -0.07    0.17
 -12   4  -2    0.13    0.16
 -12   4  -2    0.07    0.19
 -12  -4  -2    0.04    0.20
 -12  -4  -2   -0.03    0.23
 -12  -4  -2   -0.01    0.17
  12  -4   2    0.35    0.16
 -12   4  -3   -0.11    0.21
  12   4   3    0.10    0.18
 -12   4  -3    0.21    0.15
 -12  -4  -3    0.18    0.27
 -12  -4  -3    0.08    0.18
  12  -4   3    0.26    0.16
  12   4   4    0.13    0.18
  12  -4   4    0.39    0.16
 -12  -4  -4    0.26    0.23
 -12  -4  -4    0.04    0.18
  12   4   5    0.17    0.19
 -12  -4  -5   -0.03    0.19
  12  -4   5    0.19    0.15
  12   4   6    0.22    0.20
  12  -4   6    0.25    0.15
 -12  -4  -6   -0.01    0.22
  12   4   7    0.04    0.21
  12  -4   7    0.33    0.15
 -12  -4  -7   -0.17    0.23
  12   4   8    0.08    0.23
 -12  -4  -8    0.02    0.25
  12  -4   8    0.05    0.15
 -12   5   7    0.41    0.32
  12   5  -7    0.18    0.10
  12   5  -7    0.01    0.55
  12   5  -7   -0.46    0.15
 -12  -5   7    0.34    0.28
  12  -5  -7    0.30    0.17
 -12  -5   7    0.03    0.34
  12   5  -6    0.03    0.44
  12   5  -6   -0.07    0.11
 -12   5   6    0.40    0.29
  12   5  -6   -0.38    0.18
 -12  -5   6    0.09    0.26
 -12  -5   6    0.25    0.31
  12  -5  -6    0.19    0.18
  12   5  -5   -0.04    0.21
  12   5  -5    0.04    0.11
 -12   5   5    0.17    0.27
 -12  -5   5    0.01    0.23
  12  -5  -5    0.16    0.20
 -12   5   4    0.38    0.26
  12   5  -4    0.01    0.11
  12   5  -4    0.11    0.21
  12   5  -4    0.30    0.22
 -12  -5   4    0.11    0.23
  12  -5  -4    0.11    0.20
 -12   5   3    0.70    0.25
  12   5  -3    0.19    0.23
  12   5  -3    0.07    0.10
  12  -5  -3    0.56    0.21
 -12  -5   3    0.28    0.22
 -12   5   2    0.42    0.23
  12   5  -2   -0.21    0.19
 -12  -5   2   -0.05    0.20
  12  -5  -2    0.22    0.18
  12   5  -1    0.21    0.19
 -12   5   1    0.22    0.21
  12  -5  -1    0.42    0.18
 -12  -5   1    0.10    0.21
  12   5   0    0.07    0.18
 -12   5   0    0.21    0.20
 -12  -5   0    0.02    0.21
  12  -5   0    0.18    0.17
 -12   5  -1    0.17    0.16
  12   5   1    0.15    0.18
 -12   5  -1    0.39    0.20
 -12  -5  -1   -0.04    0.21
  12  -5   1    0.33    0.17
 -12   5  -2    0.00    0.19
 -12   5  -2    0.15    0.18
  12   5   2    0.02    0.18
  12  -5   2    0.24    0.16
 -12  -5  -2    0.19    0.25
 -12  -5  -2    0.19    0.22
 -12   5  -3    0.47    0.17
 -12   5  -3    0.02    0.20
  12   5   3    0.22    0.19
 -12  -5  -3   -0.05    0.27
 -12  -5  -3    0.31    0.24
 -12  -5  -3    0.25    0.19
  12  -5   3    0.27    0.17
 -12   5  -4   -0.01    0.23
  12   5   4    0.15    0.21
  12  -5   4    0.25    0.16
 -12  -5  -4    0.08    0.27
 -12  -5  -4    0.05    0.19
  12   5   5    0.13    0.21
  12  -5   5    0.15    0.16
 -12  -5  -5    0.04    0.22
  12   5   6    0.00    0.22
 -12  -5  -6   -0.15    0.22
  12  -5   6    0.18    0.16
  12   5   7    0.39    0.24
  12  -5   7    0.14    0.16
 -12  -5  -7   -0.06    0.24
  12   6  -6   -0.05    0.21
 -12   6   6    0.74    0.33
  12   6  -6    0.10    0.12
 -12  -6   6    0.01    0.29
  12   6  -5    0.33    0.24
 -12   6   5    0.37    0.29
  12   6  -5    0.00    0.13
  12  -6  -5    0.22    0.21
 -12  -6   5   -0.06    0.24
  12   6  -4   -0.02    0.12
 -12   6   4    0.69    0.28
  12   6  -4    0.20    0.23
 -12  -6   4    0.08    0.25
  12  -6  -4    0.36    0.21
  12   6  -3    0.22    0.22
 -12   6   3    0.20    0.25
  12  -6  -3    0.18    0.21
 -12  -6   3    0.14    0.23
 -12   6   2    0.63    0.26
  12   6  -2    0.39    0.22
 -12  -6   2    0.10    0.23
  12  -6  -2    0.46    0.22
  12   6  -1    0.03    0.20
 -12   6   1    0.31    0.24
 -12  -6   1    0.04    0.22
  12  -6  -1    0.28    0.20
 -12   6   0    0.46    0.23
  12   6   0    0.08    0.20
  12  -6   0    0.42    0.19
 -12  -6   0    0.15    0.24
 -12   6  -1    0.20    0.21
  12   6   1   -0.06    0.20
 -12  -6  -1    0.30    0.23
  12  -6   1    0.25    0.19
 -12   6  -2    0.13    0.20
 -12   6  -2    0.57    0.22
  12   6   2    0.16    0.21
 -12  -6  -2    0.10    0.24
  12  -6   2    0.43    0.19
 -12   6  -3    0.07    0.18
 -12   6  -3   -0.06    0.21
  12   6   3    0.02    0.21
 -12  -6  -3   -0.25    0.26
  12  -6   3    0.03    0.18
 -12  -6  -3   -0.01    0.22
  12   6   4   -0.03    0.21
 -12   6  -4   -0.17    0.22
  12  -6   4    0.09    0.17
  12   6   5    0.03    0.24
  12  -6   5    0.25    0.18
 -12  -6  -5    0.02    0.24
  12   6   6    0.07    0.24
 -12  -6  -6   -0.07    0.24
  12  -6   6    0.25    0.18
 -12   7   5    0.78    0.33
  12   7  -5    0.06    0.14
 -12  -7   5    0.04    0.26
 -12   7   4    0.45    0.31
 -12  -7   4    0.34    0.27
  12  -7  -4   -0.05    0.24
 -12   7   3    0.36    0.27
  12   7  -3    0.24    0.23
  12  -7  -3    0.12    0.24
 -12  -7   3    0.07    0.26
 -12   7   2    0.54    0.27
  12   7  -2    0.22    0.23
 -12  -7   2    0.07    0.25
  12  -7  -2    0.35    0.22
 -12   7   1    0.49    0.27
  12   7  -1    0.19    0.22
  12  -7  -1    0.41    0.22
 -12  -7   1    0.10    0.24
 -12   7   0    0.21    0.24
  12   7   0   -0.18    0.22
  12  -7   0    0.13    0.21
 -12  -7   0   -0.10    0.24
  12   7   1    0.07    0.22
 -12   7  -1    0.49    0.24
 -12  -7  -1    0.14    0.25
  12  -7   1    0.44    0.22
 -12   7  -2    0.28    0.22
  12   7   2   -0.11    0.22
  12  -7   2    0.47    0.21
 -12  -7  -2    0.35    0.26
  12   7   3    0.17    0.25
 -12   7  -3   -0.08    0.22
 -12  -7  -3    0.03    0.27
  12  -7   3    0.36    0.21
  12   7   4    0.01    0.25
 -12   7  -4    0.09    0.23
  12  -7   4    0.05    0.19
 -12   7  -5   -0.08    0.24
  12   7   5    0.33    0.26
  12  -7   5    0.29    0.20
 -12   8   4    0.34    0.34
 -12  -8   4   -0.16    0.28
  12  -8  -4   -0.30    0.26
  12   8  -3    0.35    0.26
 -12   8   3    0.26    0.31
  12  -8  -3    0.41    0.26
 -12  -8   3    0.15    0.28
 -12   8   2    0.66    0.31
  12   8  -2    0.18    0.25
 -12  -8   2   -0.01    0.27
  12  -8  -2   -0.02    0.25
 -12   8   1    0.42    0.30
  12   8  -1    0.12    0.25
  12  -8  -1    0.39    0.25
 -12  -8   1    0.05    0.27
  12   8   0    0.19    0.24
 -12   8   0    0.23    0.27
  12  -8   0    0.33    0.24
 -12  -8   0    0.15    0.28
  12   8   1   -0.14    0.23
 -12   8  -1    0.22    0.26
 -12  -8  -1   -0.01    0.28
  12  -8   1    0.29    0.23
  12   8   2    0.19    0.26
 -12   8  -2   -0.05    0.26
  12  -8   2    0.21    0.23
 -12  -8  -2    0.43    0.29
  12   8   3    0.16    0.27
 -12  -8  -3    0.52    0.29
  12  -8   3    0.25    0.22
  12   8   4    0.14    0.27
 -12   8  -4    0.18    0.26
  12  -8   4    0.42    0.23
  12   9   0    0.09    0.27
 -12   9   0    0.44    0.31
 -12  -9   0    0.26    0.30
  12  -9   0   -0.04    0.25
 -13   0   8    5.21    0.60
  13   0  -8    5.25    0.88
  13   0  -8    5.81    0.60
  13   0  -7    0.08    0.14
  13   0  -7    0.14    0.40
 -13   0   7   -0.16    0.31
  13   0  -7    0.46    0.25
  13   0  -6   14.56    1.04
  13   0  -6   14.57    0.95
 -13   0   6   14.90    1.09
  13   0  -6   14.50    1.26
  13   0  -5    0.21    0.35
  13   0  -5    0.02    0.16
  13   0  -5   -0.09    0.18
 -13   0   5    0.22    0.28
  13   0  -5    0.59    0.22
  13   0  -4   28.88    2.00
  13   0  -4   27.51    1.85
 -13   0   4   30.15    1.89
  13   0  -3    0.03    0.26
 -13   0   3    0.40    0.26
  13   0  -3    0.18    0.18
  13   0  -3   -0.23    0.17
  13   0  -3   -0.16    0.17
  13   0  -2   13.11    0.99
 -13   0   2   13.74    0.94
  13   0  -2   13.03    0.86
  13   0  -2   12.30    0.87
  13   0  -2   11.66    0.89
  13   0  -1    0.05    0.20
  13   0  -1    0.03    0.16
  13   0  -1   -0.27    0.15
 -13   0   1    0.12    0.22
  13   0  -1    0.14    0.16
 -13   0   0   55.38    3.51
  13   0   0   57.61    3.48
  13   0   0   56.89    3.53
  13   0   0   55.87    3.47
  13   0   1    0.02    0.17
 -13   0  -1   -0.16    0.20
 -13   0  -2   11.76    0.85
  13   0   2   11.93    0.81
  13   0   3    0.05    0.17
 -13   0  -3   -0.12    0.18
  13   0   5    0.10    0.19
  13   0   6   14.88    1.00
  13   0   7    0.11    0.21
  13   0   8    5.62    0.48
  13   1  -8   -0.15    0.25
 -13   1   8   -0.43    0.31
  13   1  -8   -0.09    0.50
 -13  -1   8   -0.11    0.32
  13  -1  -8    0.42    0.31
  13   1  -7   11.73    0.75
  13   1  -7   11.64    0.87
 -13   1   7    9.58    0.91
  13   1  -7   11.80    1.15
 -13  -1   7   12.85    0.95
  13  -1  -7   11.93    0.75
  13  -1  -7   10.89    1.14
  13  -1  -7   10.45    0.92
  13   1  -6    1.08    0.24
 -13   1   6    1.02    0.33
  13   1  -6    0.82    0.44
  13   1  -6    0.88    0.18
  13  -1  -6    0.69    0.28
  13  -1  -6    0.67    0.44
  13  -1  -6    1.05    0.18
 -13  -1   6    0.68    0.31
  13   1  -5   15.07    1.21
 -13   1   5   14.10    1.05
  13   1  -5   12.82    0.97
  13  -1  -5   14.20    0.93
  13  -1  -5   14.96    1.20
  13  -1  -5   13.54    0.93
 -13  -1   5   14.18    1.06
  13   1  -4    1.36    0.24
  13   1  -4    1.64    0.27
  13   1  -4    1.56    0.41
  13   1  -4    1.13    0.23
 -13   1   4    1.85    0.35
  13  -1  -4    0.96    0.27
  13  -1  -4    1.22    0.22
  13  -1  -4    1.42    0.38
 -13  -1   4    1.46    0.32
  13  -1  -4    1.40    0.21
 -13   1   3   30.21    1.76
  13   1  -3   26.51    1.84
  13   1  -3   26.29    1.69
  13   1  -3   26.86    1.67
  13   1  -3   28.74    1.68
 -13  -1   3   23.12    1.74
  13  -1  -3   21.27    1.71
  13  -1  -3   27.85    1.83
  13   1  -2    0.84    0.20
  13   1  -2    1.14    0.31
  13   1  -2    0.80    0.20
 -13   1   2    0.95    0.28
  13   1  -2    1.22    0.21
 -13  -1   2    1.16    0.31
  13  -1  -2    0.35    0.20
  13  -1  -2    0.94    0.23
  13  -1  -2    0.28    0.19
  13  -1  -2    1.01    0.30
  13   1  -1   27.10    1.76
  13   1  -1   29.25    1.77
 -13   1   1   27.88    1.80
 -13   1   1   25.69    1.78
  13   1  -1   30.87    1.76
  13   1  -1   29.77    1.87
  13  -1  -1   26.04    1.75
  13  -1  -1   25.70    1.75
  13  -1  -1   27.13    1.82
  13   1   0    0.10    0.16
  13   1   0   -0.03    0.18
  13   1   0    0.12    0.21
 -13   1   0   -0.11    0.20
 -13  -1   0    0.26    0.23
  13  -1   0   -0.29    0.17
  13  -1   0    0.06    0.18
  13   1   1   24.22    1.69
  13   1   1   28.95    1.73
 -13   1  -1   23.73    1.71
 -13  -1  -1   27.05    1.74
  13  -1   1   29.14    1.69
  13   1   2    0.86    0.21
  13   1   2    1.02    0.17
 -13  -1  -2    1.01    0.26
  13  -1   2    1.07    0.21
  13   1   3   24.31    1.71
 -13  -1  -3   28.26    1.73
  13  -1   3   27.86    1.69
  13   1   4    1.15    0.26
 -13   1  -4    1.25    0.20
  13  -1   4    1.82    0.24
 -13  -1  -4    1.37    0.25
  13   1   5   11.46    0.91
  13  -1   5   14.83    0.90
  13   1   6    0.82    0.24
  13  -1   6    1.05    0.22
  13   1   7   10.56    0.75
  13  -1   7   10.02    0.73
  13   1   8    0.14    0.22
  13  -1   8   -0.52    0.19
  13   2  -8    5.53    0.57
  13  -2  -8    3.93    0.55
 -13  -2   8    7.47    0.71
  13   2  -7    0.04    0.45
  13   2  -7   -0.54    0.25
  13   2  -7   -0.03    0.09
  13   2  -7    0.08    0.14
  13  -2  -7    0.21    0.16
 -13  -2   7   -0.15    0.31
  13  -2  -7    0.12    0.30
  13   2  -6   11.41    1.08
  13   2  -6   10.53    0.81
  13  -2  -6   10.30    0.85
 -13  -2   6    8.79    0.88
  13   2  -5   -0.25    0.17
  13   2  -5   -0.15    0.23
 -13   2   5   -0.26    0.26
  13   2  -5   -0.16    0.19
  13   2  -5   -0.15    0.36
 -13  -2   5   -0.24    0.29
  13  -2  -5    0.12    0.17
  13  -2  -5    0.37    0.18
  13  -2  -5    0.25    0.24
  13   2  -4   15.90    0.99
  13   2  -4   13.67    1.02
  13   2  -4   13.67    1.22
  13   2  -4   15.77    0.98
  13  -2  -4   15.34    0.97
  13  -2  -4   14.49    0.96
  13  -2  -4   13.26    1.04
  13   2  -3   -0.14    0.20
  13   2  -3    0.24    0.19
  13   2  -3    0.18    0.33
  13   2  -3    0.40    0.20
 -13   2   3   -0.02    0.23
 -13  -2   3   -0.36    0.24
  13  -2  -3    0.22    0.17
  13  -2  -3    0.24    0.16
  13  -2  -3    0.31    0.21
  13   2  -2   34.30    2.25
 -13   2   2   27.33    2.07
  13   2  -2   35.11    2.07
  13   2  -2   38.69    2.05
  13  -2  -2   31.58    2.03
  13  -2  -2   27.29    2.02
  13  -2  -2   32.61    2.10
  13   2  -1    0.96    0.22
 -13   2   1    0.18    0.23
  13   2  -1    0.73    0.21
 -13   2   1    0.73    0.21
  13   2  -1    0.73    0.30
  13  -2  -1    0.01    0.19
 -13  -2   1    0.06    0.25
  13   2   0    8.03    0.71
  13   2   0    7.87    0.59
  13  -2   0    6.18    0.55
 -13   2  -1    1.07    0.25
  13   2   1    0.23    0.20
  13   2   1    0.67    0.25
 -13  -2  -1    0.57    0.28
  13  -2   1    0.47    0.20
  13   2   2   28.62    1.89
  13   2   2   28.21    1.92
  13  -2   2   32.42    1.88
 -13   2  -3    0.36    0.16
  13   2   3   -0.03    0.20
 -13  -2  -3    0.29    0.23
  13  -2   3   -0.01    0.19
 -13   2  -4   16.38    0.98
  13   2   4   11.69    0.96
  13  -2   4   13.83    0.94
 -13  -2  -4   14.17    0.97
  13   2   5   -0.12    0.21
  13  -2   5   -0.13    0.18
  13   2   6    9.50    0.69
  13  -2   6    8.09    0.64
  13   2   7    0.07    0.22
 -13  -2  -7   -0.62    0.21
  13   2   8    6.12    0.52
  13  -2   8    4.68    0.45
 -13  -2  -8    5.61    0.54
 -13   3   8   -0.03    0.32
  13   3  -8    0.14    0.53
  13  -3  -8    0.54    0.34
 -13  -3   8    0.27    0.37
  13   3  -7    5.99    0.92
  13   3  -7    5.96    0.40
 -13   3   7    3.96    0.55
  13   3  -7    5.29    0.43
  13  -3  -7    6.41    0.66
  13  -3  -7    6.49    0.46
 -13   3   6   -0.41    0.28
  13   3  -6    0.35    0.12
  13   3  -6    0.03    0.17
  13   3  -6    0.08    0.46
  13  -3  -6    0.40    0.17
 -13  -3   6    0.11    0.31
  13  -3  -6    0.33    0.26
  13   3  -5   21.54    1.35
  13   3  -5   17.82    1.66
  13   3  -5   20.88    1.35
  13  -3  -5   20.07    1.39
  13  -3  -5   22.40    1.34
  13  -3  -5   21.28    1.32
  13   3  -4    0.32    0.20
  13   3  -4    0.07    0.40
  13   3  -4    0.60    0.22
 -13  -3   4    0.37    0.30
  13  -3  -4    0.73    0.20
  13  -3  -4    0.48    0.23
  13  -3  -4    0.54    0.18
  13   3  -3   12.16    0.86
  13   3  -3   13.05    0.88
 -13  -3   3   11.78    0.94
  13  -3  -3   12.26    0.83
  13   3  -2    0.02    0.33
 -13   3   2   -0.61    0.20
  13   3  -2    0.20    0.21
  13  -3  -2    0.50    0.18
 -13  -3   2    0.03    0.24
  13   3  -1   16.27    1.11
 -13   3   0    0.23    0.18
  13   3   0    0.04    0.20
 -13   3   0   -0.03    0.18
  13  -3   0    0.03    0.17
 -13  -3   0   -0.06    0.25
 -13   3  -1   23.55    1.39
  13   3   1   23.71    1.39
  13  -3   1   18.87    1.36
 -13  -3  -1   21.71    1.47
 -13  -3  -1   18.92    1.37
 -13   3  -2    0.27    0.23
 -13   3  -2    0.46    0.18
  13   3   2    0.20    0.20
 -13  -3  -2   -0.25    0.22
 -13  -3  -2    0.00    0.17
  13  -3   2   -0.22    0.17
  13   3   3   10.15    0.65
 -13  -3  -3    7.18    0.65
  13  -3   3    8.27    0.64
 -13  -3  -3    9.35    0.75
  13   3   4    0.41    0.21
 -13  -3  -4    0.02    0.19
 -13  -3  -4    0.49    0.27
  13  -3   4    0.11    0.19
  13   3   5   18.50    1.06
  13  -3   5   13.97    1.03
 -13  -3  -5   14.79    1.07
  13   3   6    0.35    0.22
 -13  -3  -6    0.15    0.23
  13  -3   6    0.16    0.17
  13   3   7    5.56    0.51
 -13  -3  -7    5.03    0.54
  13  -3   7    5.36    0.44
  13   3   8    0.39    0.25
 -13  -3  -8   -0.09    0.24
  13  -3   8    0.03    0.16
  13   4  -7   -0.39    0.14
  13   4  -7   -0.05    0.10
 -13   4   7    0.66    0.30
  13   4  -7   -0.02    0.54
  13  -4  -7    0.14    0.17
  13  -4  -7    0.19    0.34
 -13  -4   7   -0.30    0.32
 -13   4   6    7.70    0.75
  13   4  -6    6.46    1.05
  13   4  -6    8.91    0.57
  13   4  -6    8.16    0.63
  13  -4  -6   10.00    0.62
 -13  -4   6    7.22    0.79
 -13   4   5   -0.08    0.28
  13   4  -5   -0.11    0.19
  13   4  -5   -0.31    0.43
  13   4  -5   -0.02    0.11
  13  -4  -5    0.24    0.21
  13  -4  -5    0.21    0.18
 -13  -4   5    0.02    0.28
 -13  -4   5   -0.31    0.22
 -13   4   4   16.90    1.27
  13   4  -4   19.17    1.24
  13   4  -4   18.77    1.23
 -13  -4   4   16.62    1.24
 -13  -4   4   17.76    1.28
  13  -4  -4   20.47    1.21
 -13   4   3    0.52    0.26
  13   4  -3    0.29    0.24
 -13  -4   3    0.77    0.30
 -13  -4   3    0.26    0.23
  13  -4  -3    0.58    0.21
 -13   4   2   12.99    0.98
 -13  -4   2   13.97    0.99
  13  -4  -2   14.67    0.94
 -13   4   1    1.48    0.27
  13   4  -1    1.61    0.29
  13  -4  -1    1.55    0.23
 -13  -4   1    1.27    0.28
 -13  -4   1    1.91    0.34
  13   4   0   25.49    1.67
 -13   4   0   25.75    1.67
 -13  -4   0   25.78    1.72
 -13  -4   0   24.98    1.69
  13  -4   0   27.90    1.65
  13   4   1    1.33    0.26
 -13   4  -1    1.27    0.25
 -13   4  -1    1.96    0.27
  13  -4   1    1.70    0.23
 -13  -4  -1    1.96    0.35
  13   4   2   14.85    1.01
 -13   4  -2   15.55    1.01
  13  -4   2   15.27    1.00
 -13  -4  -2   14.90    1.02
 -13  -4  -2   14.06    1.10
  13   4   3    0.54    0.21
 -13   4  -3    0.25    0.24
 -13   4  -3    0.76    0.20
 -13  -4  -3    0.17    0.28
  13  -4   3    0.66    0.19
 -13  -4  -3    0.42    0.21
  13   4   4   17.71    1.15
 -13  -4  -4   14.74    1.23
 -13  -4  -4   19.14    1.17
  13  -4   4   17.19    1.12
  13   4   5    0.17    0.22
 -13  -4  -5   -0.26    0.21
  13  -4   5    0.10    0.17
  13   4   6    9.00    0.68
  13  -4   6    9.08    0.64
 -13  -4  -6    8.15    0.70
  13   4   7    0.22    0.24
 -13  -4  -7   -0.25    0.25
  13  -4   7    0.24    0.17
  13   5  -7    8.24    0.57
 -13   5   7    8.44    0.79
 -13  -5   7    8.22    0.84
  13  -5  -7    9.16    0.63
  13   5  -6    0.05    0.12
  13   5  -6   -0.27    0.19
 -13   5   6    0.16    0.31
  13   5  -6   -0.41    0.49
 -13  -5   6   -0.07    0.35
  13  -5  -6   -0.11    0.27
 -13  -5   6   -0.13    0.28
 -13   5   5    6.59    0.65
  13   5  -5    6.35    0.46
  13   5  -5    4.75    0.95
  13   5  -5    6.40    0.55
 -13  -5   5    6.04    0.66
 -13  -5   5    5.37    0.61
  13  -5  -5    6.70    0.54
  13   5  -4   -0.17    0.13
  13   5  -4   -0.06    0.24
 -13   5   4    0.22    0.27
 -13  -5   4   -0.19    0.23
  13  -5  -4    0.32    0.22
 -13  -5   4    0.03    0.26
 -13   5   3   21.51    1.43
  13  -5  -3   23.56    1.38
 -13  -5   3   19.33    1.41
 -13  -5   3   19.94    1.43
  13   5  -2   -0.06    0.23
 -13   5   2    0.68    0.26
 -13  -5   2   -0.11    0.22
  13  -5  -2    0.32    0.20
 -13   5   1   13.57    0.96
  13   5  -1   12.89    0.94
 -13  -5   1   12.91    0.97
  13  -5  -1   14.91    0.93
 -13  -5   1   14.06    1.00
  13   5   0   -0.05    0.21
 -13   5   0    0.28    0.22
 -13  -5   0   -0.02    0.22
 -13  -5   0   -0.04    0.24
  13  -5   0    0.21    0.18
  13   5   1   13.12    0.95
 -13   5  -1   13.95    0.96
  13  -5   1   13.89    0.93
 -13  -5  -1   13.36    0.99
 -13  -5  -1   14.99    1.03
 -13   5  -2    0.53    0.21
 -13   5  -2   -0.01    0.21
  13   5   2   -0.03    0.20
 -13  -5  -2    0.21    0.25
  13  -5   2    0.26    0.18
 -13  -5  -2    0.32    0.29
  13   5   3   18.08    1.31
 -13   5  -3   23.30    1.33
  13  -5   3   19.90    1.31
 -13  -5  -3   20.02    1.41
  13   5   4   -0.01    0.21
  13  -5   4    0.14    0.18
 -13  -5  -4   -0.35    0.22
  13   5   5    5.78    0.53
  13  -5   5    6.06    0.48
 -13  -5  -5    5.71    0.56
  13   5   6   -0.19    0.22
 -13  -5  -6   -0.10    0.25
  13  -5   6    0.14    0.18
  13   5   7    8.10    0.65
 -13  -5  -7    8.50    0.72
  13  -5   7    8.10    0.61
  13   6  -6    7.13    0.61
  13   6  -6    7.40    0.53
  13   6  -6    5.54    1.09
 -13   6   6    8.30    0.76
 -13  -6   6    7.74    0.71
 -13  -6   6    8.00    0.78
 -13   6   5    0.46    0.32
  13   6  -5   -0.01    0.13
 -13  -6   5    0.06    0.29
 -13   6   4    9.98    0.79
  13   6  -4    6.67    0.70
 -13  -6   4    9.09    0.76
  13  -6  -4    9.55    0.68
 -13   6   3    0.78    0.30
  13   6  -3    0.11    0.26
 -13  -6   3    0.16    0.26
  13  -6  -3    0.63    0.24
 -13   6   2   12.77    0.91
  13   6  -2   11.43    0.87
 -13  -6   2   11.41    0.90
  13  -6  -2   13.02    0.86
 -13   6   1    1.13    0.29
  13   6  -1    0.72    0.26
  13  -6  -1    1.25    0.26
 -13  -6   1    0.69    0.28
 -13   6   0   15.57    1.02
  13   6   0   12.61    0.98
  13  -6   0   14.66    0.98
 -13  -6   0   15.36    1.04
 -13   6  -1    1.18    0.26
  13   6   1    0.66    0.24
  13  -6   1    1.23    0.24
 -13  -6  -1    0.78    0.28
  13   6   2   11.43    0.88
 -13   6  -2   13.30    0.90
 -13   6  -2   11.58    0.93
 -13  -6  -2   12.85    0.94
 -13  -6  -2   13.34    0.98
  13  -6   2   13.02    0.87
  13   6   3    0.22    0.24
 -13   6  -3    0.59    0.25
 -13  -6  -3    0.58    0.28
  13  -6   3    0.47    0.21
 -13  -6  -3    0.06    0.33
 -13   6  -4    7.01    0.68
  13   6   4    7.61    0.64
  13  -6   4    9.34    0.63
  13   6   5   -0.09    0.23
  13  -6   5    0.06    0.19
  13   6   6    6.67    0.61
  13  -6   6    7.40    0.57
  13   7  -5    7.74    0.60
 -13   7   5   10.04    0.84
 -13  -7   5    7.74    0.74
 -13   7   4    0.22    0.33
  13  -7  -4    0.05    0.24
 -13  -7   4    0.20    0.29
  13   7  -3    6.30    0.61
 -13   7   3    7.81    0.70
  13  -7  -3    7.42    0.62
 -13  -7   3    6.91    0.68
 -13   7   2    0.71    0.30
  13   7  -2   -0.08    0.25
 -13  -7   2    0.03    0.28
  13  -7  -2    0.22    0.24
  13   7  -1   11.29    0.85
 -13   7   1   11.53    0.88
 -13  -7   1   11.61    0.91
  13  -7  -1   11.88    0.85
  13   7   0    0.22    0.23
 -13   7   0    0.31    0.27
  13  -7   0    0.44    0.25
 -13  -7   0    0.09    0.28
 -13   7  -1   12.42    0.88
  13   7   1   11.07    0.83
  13  -7   1   11.76    0.84
 -13  -7  -1   10.86    0.87
  13   7   2    0.33    0.25
 -13   7  -2    0.30    0.25
 -13  -7  -2    0.20    0.29
  13  -7   2    0.28    0.23
  13   7   3    5.89    0.58
 -13   7  -3    5.66    0.58
 -13  -7  -3    6.67    0.63
 -13  -7  -3    5.34    0.68
  13  -7   3    6.75    0.56
  13   7   4    0.09    0.26
 -13   7  -4    0.25    0.24
  13  -7   4    0.40    0.22
  13   7   5    8.24    0.68
  13  -7   5    8.33    0.65
 -13   8   3    0.55    0.33
  13   8  -3    0.72    0.27
 -13  -8   3    0.07    0.30
  13  -8  -3    0.18    0.27
 -13   8   2   10.06    0.81
  13   8  -2    8.29    0.72
 -13  -8   2    9.27    0.80
  13  -8  -2    9.04    0.74
 -13   8   1    0.43    0.31
  13   8  -1    0.17    0.27
 -13  -8   1   -0.01    0.29
  13  -8  -1    0.62    0.27
  13   8   0    5.32    0.56
 -13   8   0    7.01    0.66
 -13  -8   0    5.30    0.64
  13  -8   0    6.44    0.57
 -13   8  -1    0.38    0.29
  13   8   1   -0.03    0.27
 -13  -8  -1    0.27    0.31
  13  -8   1    0.57    0.25
  13   8   2    8.34    0.71
 -13  -8  -2    8.41    0.76
  13  -8   2    8.94    0.70
  13   8   3    0.01    0.27
  13  -8   3    0.50    0.24
 -13  -8  -3    0.14    0.46
  14   0  -8    1.93    0.58
  14   0  -8    1.72    0.33
 -14   0   8    1.37    0.42
  14   0  -7    0.07    0.40
  14   0  -7    0.42    0.28
  14   0  -7    0.01    0.16
 -14   0   7   -0.16    0.32
  14   0  -6    6.82    0.52
  14   0  -6    7.01    0.63
 -14   0   6    7.15    0.70
  14   0  -6    6.68    0.85
  14   0  -5    0.29    0.22
 -14   0   5    0.31    0.29
  14   0  -5    0.39    0.36
  14   0  -5   -0.39    0.17
  14   0  -4    3.01    0.37
  14   0  -4    5.32    0.66
  14   0  -4    3.49    0.39
 -14   0   4    4.86    0.52
  14   0  -3    0.20    0.28
  14   0  -3   -0.08    0.17
  14   0  -3    0.19    0.19
 -14   0   3    0.05    0.26
  14   0  -3   -0.10    0.19
  14   0  -2    0.87    0.30
 -14   0   2    0.83    0.28
  14   0  -2    0.86    0.23
  14   0  -1    0.06    0.21
  14   0  -1    0.05    0.17
 -14   0   1    0.09    0.23
 -14   0   0    6.90    0.57
  14   0   0    5.61    0.53
  14   0   0    5.54    0.47
 -14   0  -1    0.18    0.22
  14   0   1    0.20    0.18
  14   0   2    0.86    0.21
 -14   0  -2    0.69    0.25
 -14   0  -3    0.18    0.20
  14   0   3    0.34    0.20
  14   0   4    5.29    0.47
  14   0   5    0.40    0.21
  14   0   6    7.56    0.60
  14   0   7   -0.15    0.20
  14   0   8    1.67    0.27
 -14   1   8   -0.15    0.34
  14   1  -8    0.14    0.28
  14   1  -8    0.02    0.49
  14  -1  -8    0.50    0.31
 -14  -1   8   -0.09    0.34
  14   1  -7    4.83    0.81
 -14   1   7    3.96    0.52
  14   1  -7    4.14    0.53
  14   1  -7    4.50    0.37
  14  -1  -7    4.85    0.38
  14  -1  -7    3.33    0.47
 -14  -1   7    4.58    0.55
  14   1  -6    0.06    0.23
  14   1  -6    0.34    0.42
  14   1  -6    0.05    0.16
 -14   1   6    0.18    0.30
  14  -1  -6    0.39    0.27
  14  -1  -6    0.14    0.43
 -14  -1   6    0.26    0.31
  14  -1  -6    0.24    0.18
  14   1  -5    4.11    0.45
 -14   1   5    3.81    0.47
  14   1  -5    3.96    0.66
  14   1  -5    3.16    0.37
  14  -1  -5    3.88    0.50
 -14  -1   5    3.95    0.51
  14  -1  -5    2.99    0.37
  14  -1  -5    3.86    0.38
  14  -1  -5    3.94    0.66
  14   1  -4    0.58    0.35
  14   1  -4    0.37    0.21
  14   1  -4    0.63    0.22
 -14   1   4    0.86    0.30
  14   1  -4    0.41    0.23
 -14  -1   4    0.59    0.29
  14  -1  -4    0.67    0.35
  14  -1  -4    0.62    0.24
  14  -1  -4    0.02    0.18
  14   1  -3    4.42    0.41
  14   1  -3    4.63    0.46
  14   1  -3    4.65    0.59
  14   1  -3    4.29    0.43
 -14   1   3    4.74    0.56
  14  -1  -3    5.06    0.60
 -14  -1   3    3.96    0.52
  14  -1  -3    4.53    0.54
  14   1  -2    0.38    0.19
 -14   1   2    0.53    0.27
  14   1  -2    0.16    0.25
  14  -1  -2    0.03    0.20
 -14  -1   2    0.38    0.25
  14   1  -1    1.34    0.24
 -14   1   1    0.98    0.28
  14   1  -1    1.24    0.30
  14  -1  -1    0.74    0.22
 -14  -1   1    1.11    0.29
  14   1   0    0.11    0.18
  14   1   0    0.02    0.19
 -14   1   0   -0.04    0.21
  14  -1   0    0.03    0.18
 -14  -1   0    0.17    0.24
  14   1   1    0.99    0.22
 -14   1  -1    0.92    0.27
  14   1   1    1.08    0.22
  14  -1   1    1.38    0.22
 -14  -1  -1    1.77    0.31
  14   1   2    0.33    0.18
 -14   1  -2    0.07    0.22
 -14  -1  -2    0.42    0.24
  14  -1   2    0.41    0.19
  14   1   3    3.92    0.44
 -14  -1  -3    5.00    0.47
  14  -1   3    4.99    0.42
  14   1   4    0.46    0.22
 -14  -1  -4    0.43    0.22
  14  -1   4    0.69    0.20
  14   1   5    3.83    0.43
  14  -1   5    4.25    0.41
  14   1   6    0.25    0.22
  14  -1   6    0.08    0.20
  14   1   7    3.85    0.44
  14  -1   7    4.01    0.41
  14   1   8   -0.10    0.22
  14  -1   8   -0.43    0.20
  14   2  -8    2.95    0.66
 -14  -2   8    3.46    0.50
  14  -2  -8    2.88    0.46
  14   2  -7   -0.58    0.27
  14   2  -7    0.14    0.11
  14   2  -7    0.34    0.48
 -14   2   7   -0.57    0.31
  14   2  -7    0.38    0.16
  14  -2  -7    0.37    0.31
 -14  -2   7    0.28    0.34
  14  -2  -7    0.45    0.18
 -14   2   6    2.00    0.42
  14   2  -6    3.63    0.64
  14   2  -6    2.73    0.38
  14  -2  -6    2.24    0.40
 -14  -2   6    3.31    0.48
 -14   2   5   -0.34    0.28
  14   2  -5   -0.23    0.19
  14   2  -5   -0.20    0.21
  14   2  -5   -0.03    0.23
  14   2  -5    0.18    0.39
  14  -2  -5    0.05    0.26
 -14  -2   5   -0.09    0.30
  14  -2  -5    0.35    0.19
  14  -2  -5    0.15    0.18
 -14   2   4    3.22    0.46
  14   2  -4    4.68    0.67
  14   2  -4    4.63    0.43
  14   2  -4    3.52    0.47
  14   2  -4    5.09    0.42
 -14  -2   4    3.44    0.51
  14  -2  -4    4.37    0.39
  14  -2  -4    3.55    0.40
  14  -2  -4    2.58    0.54
  14   2  -3    0.08    0.31
 -14   2   3   -0.12    0.25
  14   2  -3   -0.14    0.21
  14   2  -3    0.20    0.19
  14  -2  -3   -0.09    0.19
 -14  -2   3   -0.46    0.27
  14   2  -2    4.83    0.41
  14   2  -2    4.59    0.60
 -14   2   2    3.33    0.44
 -14  -2   2    3.15    0.48
  14   2  -1    0.17    0.27
 -14   2   1    0.03    0.25
  14   2  -1    0.42    0.21
  14  -2  -1   -0.16    0.19
 -14  -2   1    0.07    0.27
 -14   2   0    0.30    0.25
 -14   2   0    0.63    0.21
  14   2   0    0.49    0.22
  14   2   0    0.61    0.27
  14  -2   0    0.47    0.21
 -14  -2   0    0.40    0.29
  14   2   1    0.34    0.22
  14   2   1   -0.05    0.20
  14  -2   1    0.14    0.19
 -14  -2  -1    0.38    0.26
  14   2   2    4.86    0.46
  14  -2   2    4.39    0.44
 -14  -2  -2    5.45    0.53
  14   2   3   -0.42    0.20
 -14   2  -3    0.05    0.17
  14  -2   3   -0.04    0.20
 -14  -2  -3    0.19    0.26
  14   2   4    2.80    0.39
 -14  -2  -4    3.83    0.47
  14  -2   4    4.16    0.40
  14   2   5   -0.38    0.21
  14  -2   5    0.10    0.20
  14   2   6    2.64    0.36
  14  -2   6    2.89    0.33
  14   2   7    0.47    0.24
  14  -2   7   -0.42    0.19
 -14  -2  -8    1.25    0.30
  14   3  -7    1.18    0.21
  14   3  -7    2.36    0.61
 -14   3   7   -0.10    0.35
  14  -3  -7    1.94    0.43
 -14  -3   7    1.86    0.45
  14   3  -6    0.00    0.41
  14   3  -6    0.14    0.11
  14   3  -6   -0.31    0.18
 -14  -3   6   -0.31    0.31
  14  -3  -6    0.32    0.19
  14   3  -5    6.97    0.63
  14   3  -5    6.44    0.93
  14   3  -5    7.20    0.58
  14  -3  -5    7.81    0.58
  14  -3  -5    7.52    0.56
  14   3  -4   -0.02    0.38
  14   3  -4   -0.02    0.21
  14   3  -4   -0.04    0.19
  14  -3  -4    0.33    0.20
 -14  -3   4   -0.21    0.30
  14   3  -3    2.65    0.32
  14   3  -3    1.67    0.50
 -14  -3   3    2.06    0.41
  14  -3  -3    2.54    0.32
  14   3  -2   -0.08    0.30
  14   3  -2    0.16    0.21
 -14  -3   2   -0.24    0.27
  14  -3  -2    0.22    0.20
  14   3  -1    3.19    0.54
  14   3  -1    2.90    0.37
 -14  -3   1    2.99    0.46
  14  -3  -1    3.09    0.37
  14   3   0   -0.19    0.21
 -14  -3   0   -0.20    0.27
  14  -3   0   -0.30    0.18
 -14   3  -1    2.95    0.35
 -14   3  -1    3.42    0.39
  14   3   1    3.36    0.42
 -14  -3  -1    2.26    0.41
 -14   3  -2    0.38    0.19
  14   3   2   -0.09    0.20
 -14  -3  -2   -0.30    0.27
 -14   3  -3    2.79    0.33
  14   3   3    1.96    0.32
 -14  -3  -3    2.19    0.38
  14   3   4    0.08    0.22
  14  -3   5    3.85    0.38
 -14  -3  -5    3.15    0.39
  14   3   6    0.13    0.24
 -14  -3  -6   -0.54    0.22
  14  -3   6   -0.46    0.17
  14   3   7    2.17    0.34
  14  -3   7    2.13    0.27
 -14  -3  -7    1.74    0.33
  14   4  -7    0.01    0.12
 -14   4   7   -0.05    0.31
  14   4  -7    0.26    0.56
 -14  -4   7   -0.15    0.34
  14  -4  -7    0.24    0.20
 -14   4   6    2.33    0.45
  14   4  -6    3.11    0.72
  14   4  -6    3.16    0.40
  14   4  -6    4.06    0.32
 -14  -4   6    3.26    0.52
  14  -4  -6    3.67    0.38
 -14   4   5   -0.18    0.30
  14   4  -5   -0.25    0.46
  14   4  -5   -0.15    0.20
  14   4  -5   -0.01    0.12
 -14  -4   5   -0.22    0.32
  14  -4  -5    0.14    0.23
  14   4  -4    4.64    0.44
 -14   4   4    2.62    0.44
  14   4  -4    2.73    0.67
 -14  -4   4    4.43    0.51
 -14   4   3   -0.47    0.27
  14   4  -3    0.19    0.24
  14   4  -3   -0.01    0.40
  14  -4  -3    0.60    0.22
 -14  -4   3    0.17    0.30
  14   4  -2    2.13    0.36
 -14   4   2    2.51    0.38
 -14  -4   2    4.09    0.46
  14   4  -1    0.25    0.24
 -14   4   1    0.42    0.24
 -14  -4   1    0.65    0.31
  14  -4  -1    0.63    0.21
  14   4   0    4.24    0.45
 -14   4   0    3.91    0.45
  14  -4   0    4.14    0.40
 -14  -4   0    4.82    0.55
 -14   4  -1    0.11    0.20
  14   4   1    0.56    0.24
 -14   4  -1    0.61    0.23
  14  -4   1    0.46    0.20
 -14  -4  -1    0.28    0.31
 -14   4  -2    4.87    0.43
  14   4   2    3.43    0.41
 -14   4  -2    3.13    0.41
 -14  -4  -2    3.07    0.49
  14  -4   2    4.32    0.41
 -14   4  -3    0.30    0.19
  14   4   3   -0.16    0.22
  14  -4   3    0.05    0.19
 -14  -4  -3   -0.26    0.24
 -14  -4  -3    0.10    0.28
  14   4   4    4.40    0.44
  14  -4   4    4.06    0.38
 -14  -4  -4    3.19    0.39
  14   4   5    0.20    0.23
  14  -4   5    0.10    0.18
 -14  -4  -5   -0.21    0.22
  14   4   6    2.97    0.37
 -14  -4  -6    2.76    0.37
  14  -4   6    3.34    0.36
  14   4   7    0.31    0.25
  14  -4   7    0.29    0.18
 -14  -4  -7   -0.40    0.27
  14   5  -6   -0.07    0.14
  14   5  -6   -0.16    0.19
  14   5  -6   -0.12    0.54
 -14   5   6   -0.10    0.33
 -14  -5   6   -0.08    0.35
  14   5  -5    1.42    0.63
 -14   5   5    1.82    0.39
  14   5  -5    2.33    0.28
  14  -5  -5    2.46    0.33
 -14  -5   5    2.10    0.43
 -14  -5   5    2.44    0.40
  14   5  -4    0.09    0.16
  14   5  -4    0.19    0.25
 -14   5   4    0.24    0.29
 -14  -5   4   -0.12    0.27
 -14  -5   4    0.29    0.33
  14  -5  -4    0.30    0.24
 -14   5   3    6.30    0.65
 -14  -5   3    6.77    0.64
  14  -5  -3    7.66    0.60
 -14  -5   3    7.31    0.71
  14   5  -2    0.17    0.25
 -14   5   2    0.23    0.27
 -14  -5   2   -0.15    0.28
 -14  -5   2    0.11    0.26
  14  -5  -2    0.41    0.22
  14   5  -1    3.54    0.45
 -14   5   1    4.82    0.49
 -14  -5   1    3.69    0.49
 -14  -5   1    4.33    0.54
  14  -5  -1    4.29    0.42
  14   5   0    0.15    0.23
 -14   5   0    0.60    0.25
 -14  -5   0    0.25    0.25
 -14  -5   0    0.19    0.30
  14  -5   0    0.34    0.21
 -14   5  -1    4.99    0.48
  14   5   1    3.86    0.44
 -14  -5  -1    3.77    0.49
  14  -5   1    4.12    0.41
 -14  -5  -1    4.17    0.51
  14   5   2    0.01    0.22
 -14   5  -2    0.01    0.22
 -14   5  -2    0.34    0.21
 -14  -5  -2    0.09    0.30
  14  -5   2    0.13    0.20
  14   5   3    5.79    0.55
 -14   5  -3    5.68    0.61
 -14   5  -3    8.25    0.73
 -14  -5  -3    6.01    0.70
  14  -5   3    7.37    0.55
  14   5   4    0.05    0.24
  14  -5   4    0.16    0.19
  14   5   5    1.88    0.32
  14  -5   5    2.81    0.34
 -14  -5  -5    1.75    0.36
  14   5   6   -0.10    0.25
  14  -5   6   -0.02    0.19
 -14  -5  -6   -0.33    0.26
  14   6  -5   -0.24    0.14
 -14   6   5    0.35    0.35
 -14  -6   5    0.01    0.36
 -14  -6   5   -0.41    0.30
 -14   6   4    4.91    0.57
  14   6  -4    2.77    0.43
 -14  -6   4    3.75    0.50
 -14  -6   4    3.45    0.45
  14  -6  -4    4.38    0.50
 -14   6   3    0.95    0.32
  14   6  -3    0.34    0.27
  14  -6  -3    0.49    0.28
 -14  -6   3    0.30    0.29
 -14  -6   3    0.22    0.31
 -14   6   2    4.97    0.57
  14   6  -2    4.47    0.52
  14  -6  -2    4.87    0.49
 -14  -6   2    3.56    0.47
 -14   6   1    0.35    0.28
  14   6  -1    0.43    0.25
  14  -6  -1    0.60    0.25
 -14  -6   1    0.11    0.28
 -14  -6   1    0.65    0.32
 -14   6   0    7.10    0.62
  14   6   0    6.66    0.60
  14  -6   0    7.92    0.58
 -14  -6   0    5.65    0.62
 -14  -6   0    6.53    0.70
  14   6   1    0.36    0.25
 -14   6  -1    0.78    0.26
 -14  -6  -1   -0.07    0.32
  14  -6   1    0.48    0.22
 -14  -6  -1    0.20    0.28
  14   6   2    4.16    0.49
 -14   6  -2    4.49    0.50
 -14  -6  -2    4.08    0.49
 -14  -6  -2    4.48    0.55
  14  -6   2    4.84    0.45
  14   6   3    0.10    0.23
 -14   6  -3   -0.20    0.23
 -14  -6  -3    0.02    0.33
  14  -6   3    0.42    0.21
  14   6   4    2.93    0.38
 -14   6  -4    3.18    0.41
  14  -6   4    4.07    0.42
  14   6   5    0.14    0.26
  14  -6   5    0.35    0.21
 -14   7   4    0.35    0.37
  14  -7  -4    0.04    0.28
 -14  -7   4   -0.15    0.32
 -14   7   3    2.83    0.45
  14   7  -3    3.21    0.42
  14  -7  -3    3.14    0.39
 -14  -7   3    3.26    0.46
  14   7  -2    0.21    0.26
 -14   7   2    0.59    0.32
 -14  -7   2    0.06    0.31
  14  -7  -2    0.45    0.28
  14   7  -1    4.44    0.53
 -14   7   1    5.40    0.57
  14  -7  -1    5.49    0.55
 -14  -7   1    4.44    0.58
 -14   7   0    0.10    0.30
  14   7   0    0.18    0.26
  14  -7   0    0.16    0.25
 -14  -7   0    0.12    0.31
  14   7   1    4.34    0.52
 -14   7  -1    5.37    0.56
 -14  -7  -1    3.52    0.49
  14  -7   1    5.06    0.50
 -14   7  -2    0.21    0.27
  14   7   2    0.43    0.26
 -14  -7  -2   -0.21    0.35
  14  -7   2    0.32    0.25
 -14  -7  -2    0.43    0.32
  14   7   3    2.34    0.37
 -14  -7  -3    2.11    0.49
  14  -7   3    3.17    0.36
 -14  -7  -3    2.81    0.42
 -14   7  -4    0.76    0.27
  14   7   4    0.01    0.28
  14  -7   4    0.21    0.24
 -14   8   1    0.42    0.33
  14   8  -1    0.14    0.28
 -14  -8   1    0.49    0.32
  14  -8  -1    0.55    0.29
 -14   8   0    2.41    0.41
  14   8   0    1.81    0.34
  14  -8   0    2.59    0.36
 -14  -8   0    1.91    0.39
  14   8   1    0.01    0.28
 -14   8  -1    0.11    0.30
  14  -8   1    0.40    0.27
 -14  -8  -1    0.00    0.33
  15   0  -7    0.30    0.18
 -15   0   7   -0.12    0.33
  15   0  -7    0.14    0.25
  15   0  -7    0.02    0.43
 -15   0   6    4.57    0.55
  15   0  -6    5.23    0.77
  15   0  -6    4.19    0.43
  15   0  -6    5.39    0.54
  15   0  -5    0.10    0.29
 -15   0   5    0.43    0.32
  15   0  -5    0.06    0.37
  15   0  -4    9.01    0.87
 -15   0   4    8.97    0.74
  15   0  -4    7.11    0.64
  15   0  -3   -0.13    0.21
  15   0  -3    0.07    0.28
 -15   0   3    0.18    0.28
 -15   0   2    4.23    0.53
  15   0  -2    3.55    0.41
  15   0  -2    3.96    0.50
  15   0  -1    0.21    0.20
  15   0  -1    0.05    0.22
 -15   0   1    0.11    0.25
  15   0   0   10.77    0.80
 -15   0   0   10.80    0.82
  15   0   0    9.87    0.73
 -15   0  -1    0.25    0.25
  15   0   1    0.23    0.19
 -15   0  -2    3.55    0.46
  15   0   2    3.83    0.40
 -15   0  -3   -0.10    0.21
  15   0   3    0.19    0.19
  15   0   4    9.46    0.70
  15   0   5    0.10    0.21
  15   0   6    4.93    0.48
  15   0   7    0.12    0.21
  15   1  -7    3.95    0.71
 -15   1   7    4.20    0.53
  15   1  -7    3.53    0.45
  15   1  -7    3.91    0.37
  15  -1  -7    3.38    0.45
 -15  -1   7    4.04    0.52
  15  -1  -7    4.10    0.38
  15   1  -6   -0.37    0.18
  15   1  -6    0.16    0.24
 -15   1   6    0.25    0.31
  15   1  -6    0.11    0.42
  15  -1  -6    0.18    0.31
 -15  -1   6    0.04    0.32
  15  -1  -6    0.23    0.19
  15   1  -5    4.66    0.45
  15   1  -5    4.62    0.57
 -15   1   5    5.79    0.59
  15   1  -5    5.58    0.72
  15   1  -5    3.09    0.38
  15  -1  -5    5.16    0.71
 -15  -1   5    5.81    0.62
  15  -1  -5    3.17    0.40
  15  -1  -5    3.89    0.42
  15   1  -4    0.04    0.31
 -15   1   4    0.55    0.29
  15   1  -4    0.05    0.22
 -15  -1   4    0.41    0.28
  15  -1  -4    0.06    0.35
  15   1  -3    5.59    0.69
  15   1  -3    5.98    0.51
 -15   1   3    6.44    0.61
 -15  -1   3    5.34    0.59
  15   1  -2    0.16    0.26
 -15   1   2    0.12    0.26
  15   1  -2    0.06    0.19
 -15  -1   2    0.07    0.25
  15  -1  -2   -0.17    0.21
  15   1  -1    3.55    0.36
 -15   1   1    2.89    0.40
  15   1  -1    3.22    0.45
 -15  -1   1    3.35    0.42
  15  -1  -1    2.94    0.37
  15   1   0    0.13    0.19
 -15   1   0    0.18    0.24
  15   1   0    0.15    0.19
  15  -1   0   -0.07    0.19
 -15  -1   0    0.38    0.26
 -15   1  -1    2.75    0.38
  15   1   1    3.23    0.38
  15   1   1    3.53    0.38
  15  -1   1    3.03    0.36
 -15  -1  -1    3.16    0.40
  15   1   2    0.16    0.19
 -15   1  -2   -0.13    0.23
 -15  -1  -2    0.15    0.24
  15  -1   2    0.02    0.19
  15   1   3    5.60    0.50
  15  -1   3    5.85    0.51
 -15  -1  -3    6.84    0.57
  15   1   4    0.24    0.22
  15  -1   4    0.29    0.21
  15   1   5    5.14    0.50
  15  -1   5    5.59    0.49
  15   1   6    0.07    0.22
  15  -1   6    0.10    0.21
  15   1   7    4.04    0.45
  15  -1   7    3.49    0.43
  15   2  -7    0.02    0.11
  15   2  -7   -0.73    0.28
 -15   2   7   -0.29    0.33
  15   2  -7   -0.06    0.45
  15   2  -7   -0.29    0.16
 -15  -2   7    0.27    0.35
  15  -2  -7    0.29    0.19
 -15   2   6    4.78    0.58
  15   2  -6    5.36    0.82
  15   2  -6    4.49    0.53
 -15  -2   6    5.30    0.67
  15  -2  -6    5.51    0.46
  15   2  -5   -0.18    0.20
  15   2  -5   -0.23    0.24
 -15   2   5   -0.05    0.32
  15   2  -5    0.14    0.37
 -15  -2   5    0.35    0.32
  15  -2  -5    0.40    0.20
 -15   2   4    4.13    0.50
  15   2  -4    4.54    0.68
  15   2  -4    5.24    0.44
 -15  -2   4    3.75    0.52
  15  -2  -4    2.95    0.42
 -15   2   3   -0.08    0.28
  15   2  -3   -0.03    0.19
  15   2  -3    0.09    0.33
 -15  -2   3    0.07    0.29
 -15   2   2    8.19    0.76
  15   2  -2    9.91    0.68
  15   2  -2    8.93    0.85
 -15  -2   2    7.15    0.76
 -15   2   1   -0.46    0.25
  15   2  -1    0.00    0.26
  15   2  -1    0.14    0.20
 -15  -2   1   -0.02    0.28
  15  -2  -1   -0.14    0.20
  15   2   0    2.96    0.45
 -15   2   0    2.47    0.39
  15   2   0    3.33    0.37
 -15  -2   0    3.27    0.44
  15  -2   0    2.58    0.33
  15   2   1   -0.07    0.20
 -15   2  -1   -0.51    0.22
  15   2   1   -0.03    0.22
 -15  -2  -1    0.21    0.28
  15  -2   1   -0.24    0.20
  15   2   2    6.31    0.60
 -15  -2  -2    8.24    0.68
  15  -2   2    8.06    0.59
  15   2   3   -0.26    0.21
 -15  -2  -3    0.23    0.27
  15  -2   3    0.02    0.20
  15   2   4    2.73    0.38
  15  -2   4    4.15    0.40
  15   2   5    0.08    0.24
  15  -2   5   -0.13    0.21
  15   2   6    4.01    0.45
  15  -2   6    4.02    0.44
  15   2   7    0.05    0.26
  15  -2   7   -0.43    0.21
  15   3  -7    1.98    0.24
  15   3  -7    1.95    0.58
 -15  -3   7    2.20    0.48
  15   3  -6    0.05    0.47
  15   3  -6   -0.13    0.20
  15   3  -6   -0.11    0.13
 -15  -3   6    0.07    0.38
  15  -3  -6    0.34    0.20
  15   3  -5    5.72    0.53
  15   3  -5    5.32    0.85
  15  -3  -5    6.35    0.54
  15   3  -4   -0.06    0.22
  15   3  -4   -0.19    0.39
  15  -3  -4    0.24    0.21
 -15  -3   4   -0.35    0.29
  15   3  -3    3.91    0.69
  15   3  -3    5.53    0.47
 -15  -3   3    2.91    0.50
  15  -3  -3    4.28    0.42
  15   3  -2    0.10    0.21
  15   3  -2   -0.12    0.32
  15  -3  -2   -0.59    0.20
 -15  -3   2   -0.32    0.28
  15   3  -1    3.22    0.58
 -15   3   1    1.57    0.37
 -15  -3   1    2.15    0.43
  15  -3  -1    3.13    0.35
  15   3   0   -0.31    0.21
  15   3   0   -0.14    0.27
 -15  -3   0   -0.28    0.27
  15   3   1    3.65    0.51
 -15   3  -1    4.98    0.56
  15   3   1    3.18    0.41
  15  -3   1    2.81    0.37
 -15  -3  -1    4.06    0.53
 -15   3  -2   -0.02    0.20
  15   3   2   -0.04    0.24
 -15  -3  -2    0.15    0.30
 -15   3  -3    3.87    0.42
  15   3   3    3.81    0.47
  15  -3   3    3.06    0.39
 -15  -3  -3    4.65    0.54
  15   3   4   -0.24    0.25
  15   3   5    4.85    0.49
  15  -3   5    2.90    0.38
  15   3   6    0.36    0.27
  15  -3   7    0.60    0.23
 -15  -3  -7    0.33    0.29
  15   4  -6    2.27    0.66
  15   4  -6    2.31    0.30
  15   4  -6    2.54    0.29
 -15  -4   6    2.34    0.49
  15   4  -5   -0.21    0.15
  15   4  -5   -0.22    0.44
  15  -4  -5    0.01    0.24
 -15  -4   5   -0.19    0.34
  15   4  -4    6.66    0.55
  15   4  -4    4.12    0.78
  15  -4  -4    6.62    0.55
 -15  -4   4    5.41    0.72
  15   4  -3    0.16    0.24
  15   4  -3   -0.21    0.37
 -15  -4   3   -0.20    0.32
  15  -4  -3    0.33    0.22
  15   4  -2    3.78    0.69
  15   4  -2    3.97    0.50
 -15  -4   2    3.71    0.52
  15  -4  -2    4.41    0.44
 -15   4   1   -0.72    0.24
  15   4  -1   -0.44    0.21
 -15  -4   1    0.16    0.33
  15  -4  -1    0.03    0.22
  15   4   0    6.56    0.57
 -15   4   0    4.36    0.55
 -15  -4   0    7.26    0.72
  15  -4   0    6.17    0.51
 -15   4  -1   -0.11    0.23
  15   4   1    0.29    0.25
 -15  -4  -1    0.06    0.32
  15  -4   1   -0.12    0.21
 -15   4  -2    4.15    0.49
 -15   4  -2    4.22    0.44
  15   4   2    3.93    0.45
  15  -4   2    3.17    0.38
 -15  -4  -2    2.58    0.47
  15   4   3    0.13    0.24
 -15   4  -3    0.17    0.21
  15  -4   3   -0.64    0.20
 -15  -4  -3    0.10    0.31
  15  -4   4    3.21    0.40
  15   4   5    0.07    0.24
  15  -4   5   -0.45    0.19
 -15  -4  -5   -0.30    0.23
  15   4   6    3.07    0.38
  15  -4   6    2.21    0.30
 -15  -4  -6    1.66    0.35
  15   5  -6    0.16    0.54
  15   5  -5    2.24    0.26
 -15   5   5    1.38    0.40
  15   5  -5    1.05    0.58
 -15  -5   5    2.69    0.49
  15   5  -4   -0.04    0.47
  15   5  -4    0.02    0.25
 -15   5   4   -0.40    0.31
 -15  -5   4    0.15    0.33
  15  -5  -4   -0.10    0.26
 -15   5   3    4.24    0.54
  15   5  -3    4.56    0.57
 -15  -5   3    5.76    0.68
  15  -5  -3    6.60    0.55
 -15  -5   3    5.38    0.58
 -15   5   2   -0.16    0.28
  15   5  -2   -0.17    0.24
  15  -5  -2    0.34    0.25
 -15  -5   2   -0.02    0.27
 -15  -5   2   -0.07    0.31
  15   5  -1    4.66    0.54
 -15   5   1    4.83    0.56
  15  -5  -1    5.56    0.50
 -15  -5   1    5.06    0.57
 -15  -5   1    5.68    0.64
  15   5   0    0.22    0.27
 -15   5   0   -0.01    0.25
 -15  -5   0   -0.07    0.32
  15  -5   0    0.30    0.23
 -15   5  -1    4.84    0.51
  15   5   1    4.89    0.50
 -15  -5  -1    4.91    0.62
  15  -5   1    4.86    0.47
  15   5   2    0.17    0.25
 -15   5  -2    0.22    0.24
  15  -5   2    0.28    0.22
 -15  -5  -2    0.15    0.34
  15   5   3    5.18    0.53
 -15   5  -3    5.71    0.58
 -15  -5  -3    5.02    0.65
  15  -5   3    5.39    0.51
  15   5   4    0.03    0.25
  15  -5   4   -0.03    0.21
  15   5   5    2.25    0.36
  15  -5   5    2.67    0.32
  15   6  -5   -0.15    0.53
 -15   6   4    2.91    0.47
  15  -6  -4    3.15    0.40
 -15  -6   4    2.62    0.45
 -15  -6   4    3.49    0.53
  15   6  -3    0.46    0.27
 -15   6   3    0.36    0.34
 -15  -6   3    0.00    0.35
  15  -6  -3    0.44    0.29
 -15  -6   3    0.12    0.32
 -15   6   2    5.74    0.62
  15   6  -2    5.19    0.61
  15  -6  -2    6.32    0.57
 -15  -6   2    5.04    0.61
 -15  -6   2    6.05    0.66
 -15   6   1    0.60    0.29
  15   6  -1    0.12    0.27
 -15  -6   1   -0.08    0.30
  15  -6  -1    0.30    0.26
 -15  -6   1    0.25    0.34
 -15   6   0    5.44    0.60
  15   6   0    4.90    0.56
 -15  -6   0    5.50    0.60
  15  -6   0    5.46    0.54
 -15  -6   0    5.13    0.67
  15   6   1    0.19    0.26
 -15   6  -1    0.19    0.28
  15  -6   1    0.40    0.25
 -15  -6  -1    0.16    0.30
 -15  -6  -1   -0.19    0.34
  15   6   2    5.72    0.59
 -15   6  -2    6.44    0.60
  15  -6   2    6.13    0.54
 -15  -6  -2    5.39    0.66
 -15   6  -3    0.46    0.27
  15   6   3    0.22    0.27
 -15  -6  -3    0.54    0.39
  15  -6   3    0.23    0.24
  15   6   4    3.15    0.41
  15  -6   4    3.78    0.44
 -15   7   3    2.74    0.46
  15   7  -3    2.60    0.40
 -15  -7   3    2.36    0.43
 -15  -7   3    2.22    0.48
  15  -7  -3    2.78    0.39
 -15   7   2   -0.07    0.35
  15   7  -2    0.52    0.31
 -15  -7   2   -0.10    0.36
  15  -7  -2    0.24    0.28
 -15  -7   2    0.05    0.32
 -15   7   1    5.54    0.63
  15   7  -1    3.83    0.52
  15  -7  -1    5.30    0.56
 -15  -7   1    4.44    0.58
 -15  -7   1    3.98    0.52
  15   7   0    0.13    0.26
 -15   7   0    0.75    0.31
  15  -7   0    0.56    0.28
 -15  -7   0   -0.14    0.38
 -15  -7   0    0.40    0.33
 -15   7  -1    5.23    0.58
  15   7   1    4.41    0.55
  15  -7   1    5.35    0.54
 -15  -7  -1    3.95    0.53
 -15  -7  -1    3.86    0.57
  15   7   2    0.21    0.28
 -15  -7  -2   -0.44    0.40
 -15  -7  -2    0.04    0.33
  15  -7   2    0.34    0.27
  15   7   3    2.14    0.37
  15  -7   3    2.73    0.37
  16   0  -7    0.08    0.19
 -16   0   7    0.00    0.35
  16   0  -7   -0.02    0.47
  16   0  -6   13.23    1.22
 -16   0   6   14.12    1.08
 -16   0   5   -0.04    0.31
  16   0  -5   -0.57    0.23
  16   0  -5    0.03    0.39
 -16   0   4   30.21    1.98
  16   0  -4   29.62    2.09
  16   0  -4   30.25    1.91
 -16   0   3    0.26    0.30
  16   0  -3   -0.02    0.30
  16   0  -3   -0.28    0.21
  16   0  -2   44.20    2.65
 -16   0   2   42.35    2.71
  16   0  -2   40.68    2.75
  16   0  -1    0.07    0.23
 -16   0   1   -0.04    0.26
  16   0  -1   -0.05    0.20
 -16   0   0   77.38    4.61
  16   0   0   71.31    4.54
  16   0   1    0.07    0.20
 -16   0  -1    0.17    0.27
  16   0   2   39.33    2.38
 -16   0  -2   36.93    2.42
  16   0   3    0.04    0.20
 -16   0  -3   -0.15    0.24
  16   0   4   30.49    1.93
  16   0   5    0.09    0.20
  16   0   6   13.65    0.94
  16   0   7    0.02    0.22
  16   1  -7    5.90    0.58
 -16   1   7    8.09    0.79
  16   1  -7    8.26    0.98
  16  -1  -7    8.20    0.59
 -16  -1   7    9.60    0.81
 -16   1   6   -0.05    0.32
  16   1  -6    0.15    0.45
  16  -1  -6   -0.24    0.20
 -16  -1   6    0.38    0.35
  16   1  -5   17.17    1.28
 -16   1   5   17.48    1.31
  16   1  -5   18.62    1.48
 -16  -1   5   20.71    1.34
  16   1  -4    0.23    0.35
 -16   1   4    0.52    0.31
  16   1  -4    0.26    0.23
 -16  -1   4    0.75    0.33
  16  -1  -4   -0.42    0.23
  16   1  -3   39.16    2.79
  16   1  -3   46.62    2.65
 -16   1   3   47.41    2.72
 -16  -1   3   40.02    2.71
  16  -1  -3   39.22    2.64
  16   1  -2    0.18    0.28
  16   1  -2    0.19    0.20
 -16   1   2    0.18    0.29
  16  -1  -2   -0.06    0.22
 -16  -1   2    0.25    0.30
  16   1  -1   56.04    3.60
  16   1  -1   56.81    3.51
 -16   1   1   52.55    3.56
  16  -1  -1   56.72    3.52
 -16  -1   1   62.92    3.59
  16   1   0   -0.17    0.20
 -16   1   0    0.06    0.27
  16   1   0    0.16    0.20
  16  -1   0   -0.05    0.23
 -16  -1   0    0.11    0.29
  16   1   1   55.73    3.44
 -16   1  -1   57.82    3.49
 -16  -1  -1   54.43    3.49
  16  -1   1   55.21    3.44
  16   1   2    0.26    0.21
 -16   1  -2    0.12    0.26
 -16  -1  -2    0.36    0.26
  16  -1   2    0.11    0.21
  16   1   3   41.41    2.78
  16  -1   3   45.98    2.78
 -16  -1  -3   46.98    2.82
  16   1   4    0.57    0.23
  16  -1   4    0.29    0.22
  16   1   5   18.14    1.26
  16  -1   5   19.95    1.26
  16   1   6    0.34    0.24
  16  -1   6    0.41    0.22
  16   1   7    8.83    0.71
  16  -1   7    8.87    0.69
  16   2  -7    0.13    0.47
  16   2  -6    6.76    0.66
 -16   2   6   10.07    0.84
  16   2  -6   10.35    1.02
 -16  -2   6    9.01    0.86
  16   2  -5   -0.03    0.41
 -16   2   5    0.01    0.34
 -16  -2   5    0.02    0.33
  16  -2  -5    0.09    0.23
  16   2  -4   24.80    1.43
 -16   2   4   21.09    1.51
  16   2  -4   20.69    1.65
 -16  -2   4   20.06    1.53
  16   2  -3    0.23    0.21
  16   2  -3    0.07    0.35
 -16   2   3   -0.15    0.30
 -16  -2   3    0.22    0.31
  16   2  -2   46.27    3.04
 -16   2   2   46.81    2.95
  16   2  -2   51.40    2.89
 -16  -2   2   40.18    2.96
  16   2  -1    0.13    0.28
 -16   2   1   -0.04    0.29
  16   2  -1    0.30    0.22
  16  -2  -1   -0.14    0.24
 -16  -2   1    0.56    0.32
 -16   2   0   34.76    2.39
  16   2   0   37.98    2.45
  16   2   0   39.02    2.36
  16  -2   0   37.48    2.35
 -16  -2   0   38.08    2.43
  16   2   1    0.19    0.22
 -16   2  -1   -0.01    0.27
  16  -2   1    0.09    0.23
 -16  -2  -1    0.51    0.29
 -16  -2  -2   55.48    3.35
  16  -2   2   50.98    3.28
  16   2   3    0.08    0.24
  16  -2   3   -0.10    0.21
 -16  -2  -3    0.08    0.26
  16   2   4   18.56    1.40
  16  -2   4   23.25    1.38
  16   2   5   -0.11    0.25
  16  -2   5   -0.13    0.22
  16   2   6    8.59    0.73
  16  -2   6    9.41    0.68
 -16  -2  -6    8.28    0.69
  16   3  -6   -0.08    0.46
  16   3  -6   -0.38    0.21
 -16   3   6   -0.97    0.33
 -16  -3   6    0.09    0.37
  16   3  -5   16.84    1.39
 -16   3   5   14.64    1.18
  16  -3  -5   17.28    1.10
 -16  -3   5   12.38    1.22
  16   3  -4   -0.06    0.23
 -16   3   4   -0.32    0.33
  16   3  -4   -0.09    0.40
  16  -3  -4    0.18    0.23
 -16  -3   4   -0.19    0.34
 -16   3   3   17.35    1.18
  16  -3  -3   15.06    1.05
 -16  -3   3   13.94    1.20
  16   3  -2   -0.23    0.35
  16   3  -2    0.32    0.24
 -16  -3   2   -0.51    0.31
 -16   3   1   28.21    1.94
  16   3  -1   31.47    2.09
 -16  -3   1   27.97    1.99
  16   3   0    0.00    0.28
  16   3   0   -0.10    0.25
  16  -3   0   -0.63    0.22
 -16  -3   0   -0.11    0.31
  16   3   1   27.15    2.02
  16   3   1   24.99    1.82
  16  -3   1   31.51    1.80
  16   3   2   -0.33    0.22
  16  -3   2   -0.34    0.22
 -16  -3  -2   -0.04    0.31
  16   3   3   14.22    1.19
 -16  -3  -3   20.15    1.26
  16  -3   3   18.58    1.19
  16   3   4   -0.49    0.25
  16  -3   4   -0.06    0.23
  16   3   5   11.74    0.93
  16  -3   5   12.58    0.88
  16   3   6    0.38    0.27
  16  -3   6   -0.53    0.21
 -16  -4   6    3.88    0.59
  16   4  -5   -0.33    0.47
 -16  -4   5   -0.02    0.35
  16   4  -4   17.74    1.05
  16   4  -4   12.26    1.33
  16  -4  -4   16.41    1.05
 -16  -4   4   11.31    1.16
  16   4  -3   -0.16    0.42
  16   4  -3    0.33    0.25
 -16  -4   3   -0.51    0.35
  16  -4  -3    0.21    0.24
  16   4  -2   13.75    1.36
  16   4  -2   18.80    1.15
  16  -4  -2   16.15    1.11
 -16  -4   2   16.85    1.28
  16   4  -1    0.19    0.38
  16   4  -1    0.05    0.25
 -16  -4   1    0.28    0.37
  16  -4  -1   -0.19    0.23
  16   4   0   17.98    1.28
 -16  -4   0   19.42    1.38
  16  -4   0   18.35    1.24
 -16   4  -1   -0.58    0.23
  16   4   1    0.13    0.26
  16  -4   1   -0.62    0.22
 -16  -4  -1   -0.20    0.29
  16   4   2   18.44    1.19
 -16   4  -2   15.09    1.15
 -16  -4  -2   17.29    1.29
  16   4   3    0.11    0.26
 -16  -4  -3    0.27    0.33
  16  -4   4    6.84    0.59
  16   4   5    0.29    0.29
 -16  -4  -6    3.45    0.43
  16   5  -5    4.97    0.95
 -16  -5   5    5.33    0.69
  16   5  -4    0.01    0.27
  16   5  -4   -0.19    0.47
  16  -5  -4    0.28    0.27
 -16  -5   4    0.07    0.38
  16   5  -3   15.49    1.12
  16   5  -3   13.39    1.45
 -16  -5   3   16.42    1.27
  16  -5  -3   17.85    1.11
  16   5  -2   -0.01    0.25
  16  -5  -2   -0.06    0.27
 -16  -5   2    0.11    0.38
  16   5  -1   13.98    1.03
 -16   5   1   10.91    1.01
  16  -5  -1   15.18    0.97
 -16  -5   1   14.55    1.12
  16   5   0   -0.15    0.27
 -16   5   0   -0.01    0.27
  16  -5   0   -0.07    0.24
 -16  -5   0   -0.26    0.34
 -16   5  -1   15.01    1.08
  16   5   1   15.98    1.09
  16  -5   1   14.54    1.04
 -16  -5  -1   14.48    1.19
 -16   5  -2    0.01    0.25
  16   5   2    0.07    0.28
 -16  -5  -2    0.44    0.36
  16  -5   2   -0.34    0.23
  16  -5   3   13.23    0.89
 -16  -5  -3   10.54    1.00
  16   5   4    0.41    0.29
  16  -5   4   -0.21    0.23
  16   5   5    6.34    0.59
  16  -5   5    4.57    0.51
  16   6  -4    5.83    1.03
 -16  -6   4    8.24    0.85
  16   6  -3    0.37    0.30
 -16   6   3   -0.17    0.35
  16  -6  -3    0.39    0.29
 -16  -6   3    0.01    0.33
 -16  -6   3    0.50    0.39
  16   6  -2    8.11    0.76
 -16   6   2    8.65    0.79
 -16  -6   2    9.85    0.92
 -16  -6   2    9.37    0.84
 -16   6   1    0.33    0.31
  16   6  -1    0.32    0.32
 -16  -6   1    0.10    0.38
  16  -6  -1    0.26    0.28
 -16  -6   1    0.38    0.33
 -16   6   0   12.73    1.01
  16   6   0   13.42    0.99
 -16  -6   0   12.78    1.02
  16  -6   0   14.01    0.97
 -16  -6   0   13.09    1.09
  16   6   1    0.37    0.29
 -16   6  -1    0.26    0.31
 -16  -6  -1    0.39    0.40
  16  -6   1    0.21    0.27
 -16   6  -2   11.06    0.93
  16   6   2    9.40    0.80
 -16  -6  -2   10.29    0.98
  16  -6   2   10.30    0.79
  16   6   3    0.18    0.29
  16  -6   3    0.23    0.26
  16   7  -1    9.52    0.83
  16  -7  -1   10.51    0.81
 -16  -7   1    8.88    0.92
 -16  -7   1    8.94    0.85
  16   7   0    0.00    0.31
 -16   7   0    0.92    0.34
 -16  -7   0    0.25    0.33
 -16  -7   0   -0.16    0.43
  16  -7   0    0.57    0.31
  16   7   1    9.74    0.84
 -16   7  -1   10.19    0.84
 -16  -7  -1   10.15    0.91
  16  -7   1   10.94    0.85
 -16  -7  -1   10.06    0.99
 -17   0   6    1.44    0.41
  17   0  -6    1.06    0.49
  17   0  -5   -0.01    0.38
 -17   0   5    0.02    0.33
  17   0  -4    1.96    0.33
  17   0  -4    1.97    0.47
 -17   0   4    1.59    0.38
  17   0  -3    0.04    0.31
  17   0  -3    0.14    0.23
 -17   0   3    0.00    0.30
  17   0  -2    5.15    0.51
 -17   0   2    5.07    0.61
  17   0  -2    4.54    0.59
  17   0  -1    0.13    0.23
 -17   0   1    0.08    0.28
  17   0  -1   -0.15    0.23
 -17   0   0    9.66    0.78
  17   0   0    8.21    0.68
 -17   0  -1    0.11    0.29
  17   0   1   -0.07    0.20
 -17   0  -2    5.06    0.56
  17   0   2    4.34    0.44
  17   0   3    0.01    0.22
 -17   0  -3   -0.37    0.25
  17   0   4    1.87    0.29
  17   0   5    0.16    0.23
  17   0   6    1.55    0.28
  17   1  -6    0.00    0.43
 -17   1   6   -0.07    0.33
 -17  -1   6    0.07    0.34
  17   1  -5    1.24    0.48
 -17   1   5    1.20    0.37
 -17  -1   5    1.02    0.38
  17   1  -4    0.04    0.25
  17   1  -4   -0.15    0.34
 -17   1   4    0.03    0.31
  17  -1  -4   -0.48    0.25
 -17  -1   4    0.22    0.33
 -17   1   3    3.89    0.49
  17   1  -3    3.03    0.56
  17   1  -3    3.35    0.41
 -17  -1   3    3.49    0.48
  17  -1  -3    3.10    0.38
 -17   1   2    0.02    0.29
  17   1  -2   -0.09    0.27
  17   1  -2   -0.07    0.22
 -17  -1   2    0.26    0.31
  17  -1  -2   -0.03    0.23
  17   1  -1    5.36    0.48
 -17   1   1    4.93    0.59
  17   1  -1    5.51    0.60
 -17  -1   1    5.76    0.64
  17  -1  -1    4.97    0.49
  17   1   0    0.04    0.22
 -17   1   0   -0.05    0.27
  17   1   0    0.04    0.21
 -17  -1   0    0.09    0.28
  17  -1   0   -0.15    0.23
  17   1   1    5.60    0.49
 -17   1  -1    4.80    0.57
 -17  -1  -1    5.11    0.60
  17  -1   1    5.32    0.49
  17   1   2    0.13    0.23
 -17   1  -2   -0.31    0.27
 -17  -1  -2   -0.18    0.27
  17  -1   2    0.03    0.22
 -17   1  -3    2.12    0.39
  17   1   3    3.58    0.42
 -17  -1  -3    2.95    0.41
  17  -1   3    3.15    0.36
  17   1   4    0.07    0.23
  17  -1   4   -0.19    0.22
  17   1   5    1.26    0.28
  17  -1   5    0.92    0.25
  17   1   6   -0.22    0.25
  17  -1   6   -0.25    0.24
  17   2  -6    0.33    0.47
 -17   2   6    0.61    0.40
 -17  -2   6    0.72    0.39
 -17   2   5   -0.42    0.33
  17   2  -5   -0.06    0.39
 -17  -2   5    0.38    0.35
 -17   2   4    2.27    0.44
  17   2  -4    2.05    0.50
  17   2  -4    2.12    0.32
 -17  -2   4    2.59    0.45
  17   2  -3    0.00    0.34
 -17   2   3   -0.23    0.33
  17   2  -3    0.18    0.22
 -17  -2   3    0.13    0.32
  17  -2  -3   -0.53    0.24
  17   2  -2    3.54    0.43
 -17   2   2    3.59    0.47
  17   2  -2    3.43    0.54
  17  -2  -2    2.75    0.38
 -17  -2   2    3.31    0.48
  17   2  -1    0.13    0.26
  17   2  -1    0.43    0.24
 -17   2   1   -0.07    0.32
 -17  -2   1    0.14    0.33
  17  -2  -1   -0.24    0.24
  17   2   0    4.88    0.48
  17   2   0    4.81    0.55
 -17   2   0    4.56    0.57
  17  -2   0    4.84    0.48
 -17  -2   0    4.58    0.57
  17   2   1    0.09    0.22
 -17   2  -1   -0.37    0.27
  17  -2   1    0.06    0.22
 -17  -2  -1   -0.12    0.29
 -17   2  -2    2.83    0.42
  17   2   2    3.11    0.42
  17  -2   2    3.85    0.44
 -17  -2  -2    4.10    0.47
  17   2   3    0.13    0.24
 -17  -2  -3   -0.20    0.27
  17  -2   3   -0.03    0.23
  17   2   4    2.27    0.35
  17  -2   4    2.71    0.34
  17   2   5    0.22    0.25
  17  -2   5   -0.09    0.23
  17   2   6    0.98    0.30
  17  -2   6    0.10    0.24
 -17  -2  -6    1.20    0.25
 -17   3   5    0.13    0.38
  17   3  -5    1.06    0.50
 -17  -3   5    1.20    0.42
  17   3  -4    0.04    0.40
  17   3  -4   -0.16    0.22
 -17   3   4   -0.31    0.34
 -17  -3   4   -0.38    0.34
  17  -3  -4   -0.44    0.25
  17   3  -3    1.37    0.46
  17   3  -3    1.52    0.29
 -17   3   3    1.05    0.40
 -17  -3   3    0.66    0.38
 -17   3   2   -0.53    0.32
  17   3  -2    0.01    0.35
  17   3  -2    0.12    0.25
 -17  -3   2   -0.28    0.33
 -17   3   1    1.89    0.40
  17   3  -1    2.98    0.36
  17   3  -1    2.67    0.49
 -17  -3   1    2.72    0.48
  17  -3  -1    1.64    0.33
  17   3   0    0.07    0.29
 -17   3   0   -0.33    0.28
  17   3   0   -0.13    0.23
  17  -3   0   -0.30    0.24
 -17  -3   0    0.21    0.33
  17   3   1    2.72    0.40
  17  -3   1    2.74    0.37
 -17  -3  -1    3.40    0.50
  17   3   2   -0.35    0.26
 -17  -3  -2   -0.01    0.31
  17  -3   2   -0.35    0.22
  17   3   3    0.87    0.31
 -17  -3  -3    1.28    0.37
  17  -3   3    1.30    0.29
  17   3   4   -0.24    0.26
  17  -3   4   -0.41    0.24
  17   3   5    0.42    0.29
  17  -3   5    0.50    0.26
  17   4  -5    0.10    0.49
 -17  -4   5   -0.35    0.37
  17   4  -4    0.80    0.28
 -17   4   4   -0.42    0.38
  17   4  -4    0.71    0.50
 -17  -4   4    0.17    0.38
  17  -4  -4    0.71    0.32
  17   4  -3   -0.01    0.42
  17   4  -3   -0.02    0.26
 -17  -4   3   -0.47    0.32
  17  -4  -3   -0.46    0.26
  17   4  -2    1.84    0.52
 -17   4   2   -0.03    0.34
 -17  -4   2    0.98    0.41
  17  -4  -2    0.46    0.29
  17   4  -1    0.25    0.36
  17   4  -1   -0.08    0.25
 -17  -4   1   -0.05    0.35
  17   4   0    1.00    0.32
  17   4   0    1.05    0.39
 -17  -4   0    0.97    0.39
  17   4   1   -0.39    0.25
 -17  -4  -1   -0.20    0.35
  17   4   2    1.66    0.36
 -17  -4  -2    2.31    0.44
  17  -4   2    0.62    0.30
  17   4   3    0.08    0.29
  17   4   4    1.04    0.32
  17  -4   4   -0.22    0.25
  17   4   5    0.27    0.29
  17   5  -4    0.00    0.48
  17  -5  -4    0.19    0.30
 -17  -5   4    0.06    0.43
  17   5  -3    0.69    0.32
  17   5  -3    0.63    0.50
 -17  -5   3    0.45    0.44
  17  -5  -3    0.78    0.31
  17   5  -2   -0.26    0.42
  17   5  -2    0.01    0.29
 -17  -5   2   -0.11    0.39
  17  -5  -2   -0.27    0.29
  17   5  -1    0.62    0.29
 -17  -5   1    1.17    0.45
  17  -5  -1    0.32    0.28
  17   5   0   -0.19    0.30
  17  -5   0   -0.48    0.24
 -17  -5   0   -0.01    0.41
  17   5   1    1.11    0.35
 -17   5  -1   -0.12    0.29
  17  -5   1   -0.15    0.27
 -17  -5  -1    0.79    0.39
  17   5   2   -0.19    0.31
 -17   5  -2   -0.36    0.28
 -17  -5  -2    0.11    0.34
  17  -5   2   -0.71    0.23
  17   5   3    1.29    0.35
  17  -5   3    0.13    0.27
  17   5   4    0.00    0.32
  17   6  -2    0.96    0.30
 -17   6   2   -0.59    0.34
 -17  -6   2    0.63    0.43
  17  -6  -2    0.87    0.34
 -17   6   1   -0.83    0.32
  17   6  -1    0.26    0.32
 -17  -6   1    0.26    0.43
  17  -6  -1   -0.12    0.30
  17   6   0    1.46    0.38
 -17   6   0    0.55    0.37
  17  -6   0    1.12    0.34
 -17  -6   0    1.79    0.48
  17   6   1    0.37    0.34
 -17   6  -1   -0.03    0.31
  17  -6   1   -0.34    0.28
 -17  -6  -1    0.02    0.41
  17   6   2    0.64    0.35
 -17  -6  -2    0.59    0.42
  17  -6   2    0.28    0.30
 -18   0   5    0.20    0.35
  18   0  -5    0.07    0.41
 -18   0   4    8.29    0.80
  18   0  -4    8.12    0.88
  18   0  -4    7.84    0.66
  18   0  -3   -0.19    0.24
 -18   0   3    0.29    0.33
  18   0  -3    0.05    0.31
  18   0  -2    9.13    0.84
  18   0  -2    9.68    0.73
 -18   0   2    9.79    0.85
 -18   0   1   -0.05    0.31
  18   0  -1    0.11    0.23
 -18   0   0   22.02    1.49
  18   0   0   21.10    1.40
 -18   0  -1    0.13    0.28
  18   0   1    0.20    0.22
  18   0   2    9.27    0.72
 -18   0  -2    9.55    0.77
  18   0   3    0.03    0.22
  18   0   4    7.99    0.65
  18   0   5    0.04    0.23
 -18   1   5    3.99    0.53
  18   1  -5    4.47    0.77
 -18  -1   5    4.07    0.54
  18   1  -4    0.09    0.24
 -18   1   4    0.07    0.33
  18   1  -4   -0.03    0.36
  18  -1  -4   -0.46    0.26
 -18  -1   4    0.41    0.33
  18   1  -3   10.15    0.76
  18   1  -3   10.13    0.91
  18  -1  -3    8.98    0.76
  18   1  -2    0.09    0.29
  18   1  -2    0.40    0.25
 -18   1   2   -0.08    0.31
 -18  -1   2    0.35    0.34
  18  -1  -2   -0.04    0.26
  18   1  -1   14.44    1.09
 -18   1   1   13.99    1.07
  18   1  -1   14.15    1.00
 -18  -1   1   13.57    1.07
  18  -1  -1   15.66    1.01
 -18   1   0   -0.13    0.30
  18   1   0   -0.06    0.23
  18  -1   0   -0.10    0.22
 -18  -1   0    0.12    0.31
 -18   1  -1   15.14    1.07
  18   1   1   13.76    1.00
  18  -1   1   15.00    1.01
 -18  -1  -1   14.16    1.08
 -18   1  -2   -0.33    0.28
  18   1   2    0.02    0.24
  18  -1   2    0.11    0.23
 -18  -1  -2    0.09    0.29
  18   1   3    9.91    0.74
  18  -1   3    9.61    0.73
  18   1   4    0.32    0.26
  18  -1   4    0.12    0.23
  18   1   5    4.57    0.49
  18  -1   5    3.61    0.47
 -18   2   5   -0.34    0.37
  18   2  -5    0.35    0.42
 -18  -2   5    0.19    0.37
  18   2  -4    5.04    0.72
  18   2  -4    5.61    0.51
 -18   2   4    5.17    0.64
  18  -2  -4    3.26    0.46
 -18  -2   4    4.84    0.58
 -18   2   3    0.19    0.34
  18   2  -3   -0.03    0.32
  18   2  -3   -0.09    0.23
 -18  -2   3    0.32    0.33
  18  -2  -3   -0.51    0.25
  18   2  -2   11.77    0.84
 -18   2   2   13.04    0.96
  18   2  -2   11.37    0.99
 -18  -2   2   11.31    0.97
  18  -2  -2   10.58    0.84
  18   2  -1    0.23    0.24
  18   2  -1    0.06    0.28
 -18   2   1   -0.22    0.32
 -18  -2   1    0.34    0.34
  18  -2  -1   -0.06    0.26
  18   2   0    9.08    0.73
 -18   2   0    9.43    0.83
 -18  -2   0    9.55    0.85
  18  -2   0    9.40    0.74
 -18   2  -1   -0.32    0.31
  18   2   1    0.18    0.24
 -18  -2  -1    0.00    0.33
  18  -2   1    0.05    0.25
 -18   2  -2    9.98    0.86
  18   2   2   11.24    0.84
 -18  -2  -2   11.71    0.89
  18  -2   2   11.75    0.84
  18   2   3    0.32    0.26
  18  -2   3   -0.04    0.25
  18   2   4    4.82    0.51
  18  -2   4    5.25    0.52
  18   2   5    0.46    0.27
  18  -2   5   -0.06    0.25
  18   3  -5    4.19    0.78
 -18   3   4   -0.49    0.36
  18   3  -4    0.32    0.25
  18   3  -4    0.16    0.41
 -18  -3   4   -0.01    0.38
  18   3  -3    6.00    0.55
  18   3  -3    5.39    0.79
 -18   3   3    4.80    0.61
 -18  -3   3    4.60    0.62
 -18   3   2   -0.37    0.34
  18   3  -2    0.10    0.27
  18   3  -2    0.14    0.36
  18  -3  -2   -0.71    0.25
 -18  -3   2    0.21    0.37
  18   3  -1    8.81    0.84
  18   3  -1    9.29    0.70
 -18   3   1    8.40    0.78
  18  -3  -1    7.25    0.66
 -18  -3   1    7.89    0.82
 -18   3   0   -0.33    0.30
  18   3   0    0.17    0.25
  18  -3   0   -0.22    0.25
 -18  -3   0    0.06    0.34
  18   3   1    8.54    0.69
 -18   3  -1    6.02    0.71
 -18  -3  -1    9.32    0.82
  18  -3   1    8.21    0.67
 -18   3  -2   -0.35    0.26
  18   3   2    0.00    0.28
  18  -3   2   -0.25    0.23
 -18  -3  -2   -0.09    0.31
  18   3   3    4.46    0.56
  18  -3   3    4.42    0.49
  18   3   4   -0.12    0.27
  18  -3   4   -0.24    0.25
  18   4  -4    4.51    0.80
  18   4  -4    4.04    0.49
 -18   4   4    3.49    0.55
  18  -4  -4    2.35    0.44
 -18  -4   4    2.86    0.60
  18   4  -3   -0.14    0.41
 -18   4   3   -1.01    0.36
  18   4  -3   -0.15    0.28
 -18  -4   3   -0.16    0.41
  18   4  -2    4.38    0.71
 -18   4   2    3.23    0.51
 -18  -4   2    2.65    0.55
  18   4  -1    0.12    0.36
  18   4  -1    0.19    0.27
 -18  -4   1   -0.36    0.38
  18   4   0    6.00    0.58
 -18   4   0    3.78    0.54
 -18  -4   0    6.26    0.72
  18  -4   0    4.32    0.51
  18   4   1   -0.03    0.28
 -18  -4  -1    0.56    0.39
  18  -4   1   -0.77    0.26
  18   4   2    2.33    0.43
  18  -4   2    4.14    0.43
 -18  -4  -2    3.83    0.54
  18   4   3    0.19    0.27
  18  -4   3   -0.60    0.26
  18   4   4    2.85    0.43
  18  -4   4    2.79    0.39
  18   5  -3    2.90    0.70
 -18  -5   3    2.88    0.57
  18   5  -2    0.21    0.28
  18   5  -2   -0.23    0.42
 -18  -5   2   -0.01    0.39
  18   5  -1    3.24    0.45
  18   5  -1    2.67    0.59
  18  -5  -1    1.46    0.37
 -18  -5   1    3.16    0.55
  18   5   0    0.13    0.29
 -18  -5   0    0.39    0.37
  18   5   1    2.50    0.41
 -18  -5  -1    2.41    0.50
  18  -5   1    0.81    0.35
  18   5   2    0.17    0.32
 -18  -5  -2    0.10    0.40
  19   0  -4    3.21    0.41
 -19   0   4    3.65    0.51
  19   0  -4    2.80    0.55
  19   0  -3    0.03    0.25
 -19   0   3   -0.04    0.34
  19   0  -3   -0.26    0.32
  19   0  -2    1.75    0.32
 -19   0   2    1.65    0.41
 -19   0   1    0.06    0.34
  19   0  -1    0.07    0.26
 -19   0   0    3.26    0.46
  19   0   0    2.66    0.35
 -19   0  -1   -0.18    0.30
  19   0   1    0.20    0.24
  19   0   2    1.75    0.30
 -19   0  -2    1.69    0.37
  19   0   3    0.26    0.24
  19   0   4    2.95    0.36
  19   1  -4   -0.33    0.26
  19   1  -4   -0.01    0.37
 -19   1   4    0.13    0.34
 -19  -1   4    0.13    0.35
  19  -1  -4   -0.24    0.27
  19   1  -3    2.81    0.52
 -19   1   3    3.57    0.49
  19   1  -3    2.89    0.38
  19  -1  -3    3.05    0.39
 -19  -1   3    2.90    0.49
  19   1  -2   -0.04    0.30
  19   1  -2    0.02    0.26
 -19   1   2    0.66    0.35
  19  -1  -2   -0.06    0.28
 -19  -1   2    0.15    0.34
  19   1  -1    1.56    0.29
 -19   1   1    1.61    0.39
  19  -1  -1    1.61    0.31
 -19  -1   1    1.71    0.41
  19   1   0   -0.09    0.23
 -19   1   0   -0.01    0.33
  19  -1   0   -0.07    0.24
 -19  -1   0    0.44    0.33
  19   1   1    1.94    0.31
 -19   1  -1    1.57    0.38
  19  -1   1    1.75    0.30
 -19  -1  -1    1.73    0.39
 -19   1  -2   -0.15    0.30
  19   1   2    0.08    0.23
  19  -1   2    0.14    0.25
 -19  -1  -2   -0.52    0.32
  19   1   3    3.27    0.38
  19  -1   3    2.94    0.38
  19   1   4    0.07    0.27
  19  -1   4   -0.12    0.25
  19   2  -4    3.72    0.41
  19   2  -4    2.92    0.57
 -19   2   4    4.11    0.55
 -19  -2   4    3.65    0.53
  19  -2  -4    1.91    0.40
  19   2  -3   -0.02    0.33
  19   2  -3   -0.25    0.25
 -19   2   3   -0.07    0.36
 -19  -2   3   -0.15    0.36
  19  -2  -3   -0.25    0.25
 -19   2   2    3.03    0.47
  19   2  -2    2.40    0.35
  19   2  -2    2.30    0.46
  19  -2  -2    2.70    0.37
 -19  -2   2    3.58    0.50
 -19   2   1   -0.21    0.32
  19   2  -1    0.11    0.26
 -19  -2   1   -0.02    0.35
  19  -2  -1   -0.07    0.26
 -19   2   0    1.05    0.38
  19   2   0    1.87    0.32
  19  -2   0    1.75    0.32
 -19  -2   0    1.76    0.42
 -19   2  -1   -0.28    0.32
  19   2   1    0.01    0.25
  19  -2   1   -0.04    0.25
 -19  -2  -1    0.31    0.33
 -19   2  -2    2.58    0.41
  19   2   2    2.71    0.37
  19  -2   2    2.55    0.35
 -19  -2  -2    3.02    0.44
  19   2   3    0.10    0.25
  19  -2   3    0.00    0.26
  19   2   4    3.10    0.40
  19  -2   4    3.21    0.38
  19   3  -3    2.85    0.36
 -19   3   3    2.70    0.49
  19   3  -3    2.68    0.54
  19  -3  -3    1.48    0.38
 -19  -3   3    2.47    0.51
  19   3  -2   -0.03    0.27
  19   3  -2    0.09    0.33
 -19   3   2   -0.43    0.33
  19  -3  -2   -0.28    0.25
 -19  -3   2    0.03    0.37
 -19   3   1    3.03    0.48
  19   3  -1    3.53    0.41
 -19  -3   1    2.91    0.51
  19  -3  -1    2.59    0.38
 -19   3   0   -0.46    0.32
  19   3   0    0.24    0.27
  19  -3   0   -0.17    0.25
 -19  -3   0    0.27    0.35
 -19   3  -1    2.09    0.43
  19   3   1    2.99    0.39
  19  -3   1    2.87    0.39
 -19  -3  -1    3.15    0.48
  19   3   2   -0.06    0.28
 -19   3  -2   -0.18    0.39
 -19  -3  -2   -0.64    0.36
  19  -3   2    0.03    0.25
  19   3   3    2.39    0.38
  19  -3   3    2.37    0.37
 -19   4   2    1.98    0.49
  19   4  -2    3.68    0.43
  19   4  -2    2.99    0.60
 -19  -4   2    3.19    0.56
 -19   4   1   -0.44    0.34
  19   4  -1    0.15    0.29
 -19  -4   1    0.14    0.39
  19  -4  -1   -0.68    0.27
  19   4   0    2.25    0.39
 -19   4   0    1.90    0.43
 -19  -4   0    2.98    0.53
  19  -4   0    2.48    0.39
  19   4   1   -0.15    0.29
 -19  -4  -1    0.08    0.39
  19  -4   1   -0.31    0.27
  19   4   2    2.32    0.41
 -19  -4  -2    2.50    0.49
  19  -4   2    2.38    0.37
  20   0  -3   -0.29    0.26
 -20   0   3   -0.08    0.36
 -20   0   2    0.25    0.37
  20   0  -2    0.03    0.27
  20   0  -1   -0.04    0.27
 -20   0   1    0.18    0.36
 -20   0   0    1.29    0.38
  20   0   0    1.09    0.28
  20   0   1   -0.20    0.24
 -20   0  -1    0.08    0.33
 -20   0  -2   -0.08    0.32
  20   0   2    0.24    0.27
  20   0   3    0.26    0.26
  20   1  -3    0.40    0.27
  20   1  -3    0.41    0.37
 -20   1   3    0.69    0.37
  20  -1  -3    0.30    0.31
 -20  -1   3    0.76    0.39
 -20   1   2    0.09    0.34
  20   1  -2    0.02    0.43
  20   1  -2    0.00    0.26
  20  -1  -2   -0.02    0.29
 -20  -1   2    0.20    0.36
  20   1  -1    0.26    0.26
 -20   1   1    0.41    0.36
 -20  -1   1    0.43    0.36
  20  -1  -1    0.63    0.28
 -20   1   0   -0.21    0.33
  20   1   0    0.08    0.26
  20  -1   0    0.14    0.26
 -20  -1   0   -0.14    0.31
 -20   1  -1    0.08    0.35
  20   1   1    0.85    0.26
  20  -1   1    0.57    0.27
 -20  -1  -1    0.68    0.36
  20   1   2   -0.01    0.24
 -20   1  -2   -0.38    0.39
 -20  -1  -2    0.27    0.32
  20  -1   2    0.18    0.25
  20   1   3    0.32    0.27
  20  -1   3    0.34    0.26
 -20   2   3   -0.12    0.36
  20   2  -3   -0.25    0.28
  20   2  -3   -0.07    0.37
 -20  -2   3   -0.50    0.38
  20  -2  -3   -0.52    0.27
 -20   2   2    0.31    0.36
  20   2  -2    0.65    0.27
  20   2  -2    0.45    0.42
 -20  -2   2    0.67    0.40
  20  -2  -2    0.43    0.31
 -20   2   1   -0.21    0.34
  20   2  -1    0.27    0.26
  20  -2  -1   -0.12    0.28
 -20  -2   1   -0.16    0.35
 -20   2   0    0.00    0.34
  20   2   0    0.30    0.26
  20  -2   0    0.25    0.27
 -20  -2   0    0.28    0.34
 -20   2  -1   -0.45    0.33
  20   2   1    0.08    0.29
 -20  -2  -1   -0.18    0.35
  20  -2   1   -0.41    0.25
  20   2   2    0.89    0.30
  20  -2   2    0.57    0.28
 -20  -2  -2    0.73    0.35
  20   2   3    0.11    0.29
  20  -2   3   -0.09    0.27
  20   3  -2   -0.07    0.40
  20   3  -2   -0.17    0.26
 -20   3   2   -0.35    0.37
  20  -3  -2   -0.47    0.28
 -20  -3   2    0.55    0.38
 -20   3   1   -0.05    0.35
  20   3  -1    0.14    0.30
 -20  -3   1    0.52    0.38
  20  -3  -1   -0.08    0.27
 -20   3   0   -0.44    0.34
  20   3   0   -0.21    0.27
 -20  -3   0   -0.02    0.37
  20  -3   0   -0.20    0.28
  20   3   1    0.43    0.31
 -20   3  -1   -0.48    0.33
 -20  -3  -1    0.16    0.40
  20  -3   1    0.28    0.28
  20   3   2    0.02    0.27
  20  -3   2    0.01    0.28
 -20  -3  -2    0.10    0.37
  21   0  -1    0.03    0.27
 -21   0   1   -0.24    0.35
 -21   0   0   13.35    1.06
  21   0   0   13.17    0.96
  21   0   1    0.11    0.26
 -21   0  -1   -0.10    0.35
  21   1  -1    8.68    0.73
 -21   1   1    8.90    0.88
  21  -1  -1    9.36    0.77
 -21  -1   1    9.94    0.86
  21   1   0    0.06    0.26
 -21   1   0   -0.33    0.37
  21  -1   0   -0.10    0.28
 -21  -1   0   -0.38    0.35
  21   1   1    7.77    0.70
 -21   1  -1    9.48    0.80
  21  -1   1    8.98    0.71
 -21  -1  -1    8.87    0.86
   0   0   0    0.00    0.00
;
_shelx_hkl_checksum              26106
_olex2_submission_special_instructions 'No special instructions were received'
loop_
_space_group_symop_operation_xyz
'x, y, z'
'x, -y, z+1/2'
loop_
_atom_site_label
_atom_site_type_symbol
_atom_site_fract_x
_atom_site_fract_y
_atom_site_fract_z
_atom_site_U_iso_or_equiv
_atom_site_adp_type
_atom_site_occupancy
_atom_site_site_symmetry_order
_atom_site_calc_flag
_atom_site_refinement_flags_posn
_atom_site_refinement_flags_adp
_atom_site_refinement_flags_occupancy
_atom_site_disorder_assembly
_atom_site_disorder_group
Pb1 Pb 0.93901(5) 0.25008(12) 0.85543(7) 0.0408(4) Uani 1 1 d . . . . .
Pb2 Pb 0.56111(5) 0.24999(10) 0.85546(9) 0.0324(3) Uani 1 1 d . . . . .
Br1 Br 1.1185(6) 0.2556(12) 0.854(2) 0.205(8) Uani 1 1 d . . . . .
Br3 Br 0.9359(5) -0.0457(4) 0.6474(9) 0.0739(14) Uani 1 1 d . . . . .
Br4 Br 0.5592(5) -0.0467(4) 0.6493(8) 0.0694(13) Uani 1 1 d . . . . .
Br5 Br 0.9353(5) 0.4599(4) 0.5627(9) 0.0813(16) Uani 1 1 d . . . . .
Br6 Br 0.5591(5) 0.4593(5) 0.5605(9) 0.0763(15) Uani 1 1 d . . . . .
Br7 Br 0.3845(4) 0.2557(11) 0.8543(19) 0.201(8) Uani 1 1 d . . . . .
Br9 Br 0.7539(6) 0.2501(5) 0.8561(14) 0.0780(11) Uani 1 1 d . . . . .
N1 N 0.756(3) 0.174(5) 0.439(6) 0.122(10) Uiso 1 1 d D . . . .
C1 C 0.757(4) 0.315(6) 0.322(7) 0.122(10) Uiso 1 1 d D . . . .
N2 N 0.094(3) 0.242(7) 0.368(8) 0.183(11) Uiso 1 1 d D . . . .
H2A H 0.0521 0.2853 0.4217 0.220 Uiso 1 1 calc R . . . .
H2B H 0.0718 0.1814 0.2910 0.220 Uiso 1 1 calc R . . . .
N3 N 0.419(3) 0.221(6) 0.392(9) 0.183(11) Uiso 1 1 d D . . . .
H3A H 0.4587 0.2674 0.3360 0.220 Uiso 1 1 calc GR . . . .
H3B H 0.4127 0.1201 0.3596 0.220 Uiso 1 1 calc GR . . . .
H3C H 0.4321 0.2215 0.4958 0.220 Uiso 1 1 calc GR . . . .
C2 C 0.138(3) 0.134(7) 0.479(8) 0.183(11) Uiso 1 1 d D . . . .
H2D H 0.1251 0.0247 0.4502 0.220 Uiso 1 1 calc R . . . .
H2C H 0.1171 0.1523 0.5861 0.220 Uiso 1 1 calc R . . . .
C3 C 0.231(3) 0.151(7) 0.483(7) 0.183(11) Uiso 1 1 d D . . . .
H3E H 0.2455 0.2273 0.5658 0.220 Uiso 1 1 calc R . . . .
H3D H 0.2549 0.0489 0.5118 0.220 Uiso 1 1 calc R . . . .
C4 C 0.267(3) 0.205(6) 0.327(6) 0.183(11) Uiso 1 1 d D . . . .
H4 H 0.2792 0.1190 0.2512 0.220 Uiso 1 1 calc R . . . .
C5 C 0.230(4) 0.351(6) 0.254(8) 0.183(11) Uiso 1 1 d D . . . .
H5A H 0.2377 0.3457 0.1391 0.220 Uiso 1 1 calc R . . . .
H5B H 0.2596 0.4437 0.2930 0.220 Uiso 1 1 calc R . . . .
C6 C 0.140(3) 0.373(6) 0.288(9) 0.183(11) Uiso 1 1 d D . . . .
H6A H 0.1340 0.4679 0.3546 0.220 Uiso 1 1 calc R . . . .
H6B H 0.1125 0.3958 0.1874 0.220 Uiso 1 1 calc R . . . .
C7 C 0.341(3) 0.308(6) 0.369(8) 0.183(11) Uiso 1 1 d D . . . .
H7A H 0.3484 0.3860 0.2837 0.220 Uiso 1 1 calc R . . . .
H7B H 0.3280 0.3670 0.4660 0.220 Uiso 1 1 calc R . . . .
loop_
_atom_site_aniso_label
_atom_site_aniso_U_11
_atom_site_aniso_U_22
_atom_site_aniso_U_33
_atom_site_aniso_U_23
_atom_site_aniso_U_13
_atom_site_aniso_U_12
Pb1 0.0381(10) 0.0419(7) 0.0422(8) 0.0005(4) 0.0003(6) 0.0023(4)
Pb2 0.0315(6) 0.0322(5) 0.0335(6) -0.0005(4) 0.0005(4) -0.0020(4)
Br1 0.058(7) 0.263(19) 0.29(2) -0.021(10) 0.000(9) -0.019(5)
Br3 0.117(4) 0.049(2) 0.056(3) -0.0219(18) -0.011(3) 0.010(2)
Br4 0.101(4) 0.060(3) 0.046(2) -0.0229(19) 0.016(2) -0.018(2)
Br5 0.123(4) 0.050(2) 0.071(3) 0.028(2) 0.003(3) 0.002(2)
Br6 0.106(4) 0.064(3) 0.060(3) 0.030(2) -0.010(3) -0.011(3)
Br7 0.014(3) 0.297(17) 0.292(16) 0.017(9) 0.001(5) 0.006(4)
Br9 0.0310(19) 0.101(3) 0.102(3) -0.0004(16) -0.0016(16) 0.0005(14)
loop_
_atom_type_symbol
_atom_type_description
_atom_type_scat_dispersion_real
_atom_type_scat_dispersion_imag
_atom_type_scat_source
Br Br -0.2901 2.4595 'International Tables Vol C Tables 4.2.6.8 and 6.1.1.4'
C C 0.0033 0.0016 'International Tables Vol C Tables 4.2.6.8 and 6.1.1.4'
N N 0.0061 0.0033 'International Tables Vol C Tables 4.2.6.8 and 6.1.1.4'
Pb Pb -3.3944 10.1111 'International Tables Vol C Tables 4.2.6.8 and 6.1.1.4'
H H 0.0000 0.0000 'International Tables Vol C Tables 4.2.6.8 and 6.1.1.4'
loop_
_geom_angle_atom_site_label_1
_geom_angle_atom_site_label_2
_geom_angle_atom_site_label_3
_geom_angle
_geom_angle_site_symmetry_1
_geom_angle_site_symmetry_3
_geom_angle_publ_flag
Br1 Pb1 Br3 91.6(4) . 2 ?
Br1 Pb1 Br3 91.6(3) . . ?
Br1 Pb1 Br5 90.5(3) . 2_565 ?
Br1 Pb1 Br5 90.5(4) . . ?
Br1 Pb1 Br9 179.1(2) . . ?
Br3 Pb1 Br3 89.97(5) 2 . ?
Br3 Pb1 Br5 177.8(3) 2 . ?
Br3 Pb1 Br5 89.5(2) 2 2_565 ?
Br3 Pb1 Br9 89.0(3) 2 . ?
Br5 Pb1 Br3 177.8(3) 2_565 . ?
Br5 Pb1 Br3 90.6(2) . . ?
Br5 Pb1 Br5 89.76(5) 2_565 . ?
Br5 Pb1 Br9 88.8(2) 2_565 . ?
Br9 Pb1 Br3 89.1(2) . . ?
Br9 Pb1 Br5 88.9(3) . . ?
Br4 Pb2 Br4 89.98(4) 2 . ?
Br4 Pb2 Br6 90.7(2) . . ?
Br4 Pb2 Br6 178.6(3) 2 . ?
Br4 Pb2 Br9 90.5(2) 2 . ?
Br4 Pb2 Br9 90.7(2) . . ?
Br6 Pb2 Br4 178.7(3) 2_565 . ?
Br6 Pb2 Br4 89.6(2) 2_565 2 ?
Br6 Pb2 Br6 89.69(5) 2_565 . ?
Br6 Pb2 Br9 90.7(2) . . ?
Br6 Pb2 Br9 90.5(2) 2_565 . ?
Br7 Pb2 Br4 90.0(3) . . ?
Br7 Pb2 Br4 90.2(3) . 2 ?
Br7 Pb2 Br6 88.8(3) . 2_565 ?
Br7 Pb2 Br6 88.6(3) . . ?
Br7 Pb2 Br9 179.0(2) . . ?
Pb1 Br3 Pb1 160.0(2) 2_554 . ?
Pb2 Br4 Pb2 159.4(2) 2_554 . ?
Pb1 Br5 Pb1 161.1(2) 2_564 . ?
Pb2 Br6 Pb2 160.5(2) 2_564 . ?
Pb1 Br9 Pb2 179.8(4) . . ?
C2 N2 C6 119(3) . . ?
N2 C2 C3 116(3) . . ?
C4 C3 C2 114(3) . . ?
C3 C4 C7 106(3) . . ?
C5 C4 C3 116(3) . . ?
C5 C4 C7 87(4) . . ?
C4 C5 C6 115(3) . . ?
N2 C6 C5 119(3) . . ?
N3 C7 C4 115(4) . . ?
loop_
_geom_bond_atom_site_label_1
_geom_bond_atom_site_label_2
_geom_bond_distance
_geom_bond_site_symmetry_2
_geom_bond_publ_flag
Pb1 Br1 2.907(10) . ?
Pb1 Br3 2.978(6) 2 ?
Pb1 Br3 3.024(5) . ?
Pb1 Br5 3.009(6) . ?
Pb1 Br5 2.981(5) 2_565 ?
Pb1 Br9 2.998(10) . ?
Pb2 Br4 3.021(5) . ?
Pb2 Br4 2.985(6) 2 ?
Pb2 Br6 2.975(5) 2_565 ?
Pb2 Br6 3.021(6) . ?
Pb2 Br7 2.861(6) . ?
Pb2 Br9 3.122(10) . ?
Br3 Pb1 2.978(6) 2_554 ?
Br4 Pb2 2.985(6) 2_554 ?
Br5 Pb1 2.981(5) 2_564 ?
Br6 Pb2 2.975(5) 2_564 ?
N1 C1 1.53(3) . ?
N2 C2 1.479(19) . ?
N2 C6 1.484(19) . ?
N3 C7 1.48(3) . ?
C2 C3 1.507(19) . ?
C3 C4 1.497(16) . ?
C4 C5 1.490(19) . ?
C4 C7 1.508(19) . ?
C5 C6 1.501(19) . ?
loop_
_geom_torsion_atom_site_label_1
_geom_torsion_atom_site_label_2
_geom_torsion_atom_site_label_3
_geom_torsion_atom_site_label_4
_geom_torsion
_geom_torsion_site_symmetry_1
_geom_torsion_site_symmetry_2
_geom_torsion_site_symmetry_3
_geom_torsion_site_symmetry_4
_geom_torsion_publ_flag
N2 C2 C3 C4 -30(9) . . . . ?
C2 N2 C6 C5 30(10) . . . . ?
C2 C3 C4 C5 51(7) . . . . ?
C2 C3 C4 C7 146(5) . . . . ?
C3 C4 C5 C6 -31(8) . . . . ?
C3 C4 C7 N3 87(6) . . . . ?
C4 C5 C6 N2 -9(10) . . . . ?
C5 C4 C7 N3 -157(6) . . . . ?
C6 N2 C2 C3 -9(10) . . . . ?
C7 C4 C5 C6 -138(7) . . . . ?
