#------------------------------------------------------------------------------
#$Date: 2020-02-27 01:45:26 +0200 (Thu, 27 Feb 2020) $
#$Revision: 248461 $
#$URL: file:///home/coder/svn-repositories/cod/cif/4/13/42/4134255.cif $
#------------------------------------------------------------------------------
#
# This file is available in the Crystallography Open Database (COD),
# http://www.crystallography.net/
#
# All data on this site have been placed in the public domain by the
# contributors.
#
data_4134255
loop_
_publ_author_name
'Zhang, Han-Yue'
'Song, Xian-Jiang'
'Cheng, Hao'
'Zeng, Yu-Ling'
'Zhang, Yi'
'Li, Peng-Fei'
'Liao, Wei-Qiang'
'Xiong, Ren-Gen'
_publ_section_title
;
 A Three-Dimensional Lead Halide Perovskite-Related Ferroelectric.
;
_journal_name_full               'Journal of the American Chemical Society'
_journal_paper_doi               10.1021/jacs.0c00375
_journal_year                    2020
_chemical_formula_moiety         '2(Cl3 Pb), C5 H16 N2'
_chemical_formula_sum            'C5 H16 Cl6 N2 Pb2'
_chemical_formula_weight         731.30
_space_group_crystal_system      orthorhombic
_space_group_IT_number           51
_space_group_name_Hall           '-P 2a 2a'
_space_group_name_H-M_alt        'P m m a'
_atom_sites_solution_hydrogens   difmap
_audit_creation_method           SHELXL-2014/7
_cell_angle_alpha                90
_cell_angle_beta                 90
_cell_angle_gamma                90
_cell_formula_units_Z            2
_cell_length_a                   14.9183(9)
_cell_length_b                   5.8648(3)
_cell_length_c                   9.4829(5)
_cell_measurement_reflns_used    2951
_cell_measurement_temperature    423(2)
_cell_measurement_theta_max      30.5420
_cell_measurement_theta_min      2.5590
_cell_volume                     829.69(8)
_computing_cell_refinement       'CrysAlisPro 1.171.39.46 (Rigaku OD, 2018)'
_computing_data_collection       'CrysAlisPro 1.171.39.46 (Rigaku OD, 2018)'
_computing_data_reduction        'CrysAlisPro 1.171.39.46 (Rigaku OD, 2018)'
_computing_molecular_graphics    'DIAMOND (Brandenburg & Putz, 2005)'
_computing_publication_material  'SHELXL-2014/7 (Sheldrick, 2014)'
_computing_structure_refinement  'SHELXL-2014/7 (Sheldrick, 2014)'
_computing_structure_solution    'SHELXL-2014/7 (Sheldrick, 2014)'
_diffrn_ambient_temperature      423(2)
_diffrn_measured_fraction_theta_full 0.997
_diffrn_measured_fraction_theta_max 0.995
_diffrn_measurement_device_type  'XtaLAB Synergy R, DW system, HyPix'
_diffrn_measurement_method       'four-circle diffractometer'
_diffrn_radiation_type           MoK\a
_diffrn_radiation_wavelength     0.71073
_diffrn_reflns_av_R_equivalents  0.0843
_diffrn_reflns_av_unetI/netI     0.0546
_diffrn_reflns_Laue_measured_fraction_full 0.997
_diffrn_reflns_Laue_measured_fraction_max 0.995
_diffrn_reflns_limit_h_max       18
_diffrn_reflns_limit_h_min       -14
_diffrn_reflns_limit_k_max       6
_diffrn_reflns_limit_k_min       -7
_diffrn_reflns_limit_l_max       11
_diffrn_reflns_limit_l_min       -11
_diffrn_reflns_number            4345
_diffrn_reflns_point_group_measured_fraction_full 0.997
_diffrn_reflns_point_group_measured_fraction_max 0.995
_diffrn_reflns_theta_full        25.242
_diffrn_reflns_theta_max         26.500
_diffrn_reflns_theta_min         2.545
_diffrn_source                   'Rotating-anode X-ray tube'
_exptl_absorpt_coefficient_mu    21.207
_exptl_absorpt_correction_T_max  0.020
_exptl_absorpt_correction_T_min  0.018
_exptl_absorpt_correction_type   multi-scan
_exptl_absorpt_process_details   'CrysAlisPro 1.171.39.46 (Rigaku OD, 2018)'
_exptl_crystal_colour            Colourless
_exptl_crystal_density_diffrn    2.927
_exptl_crystal_description       Block
_exptl_crystal_F_000             652
_exptl_crystal_size_max          0.200
_exptl_crystal_size_mid          0.200
_exptl_crystal_size_min          0.190
_refine_diff_density_max         2.799
_refine_diff_density_min         -1.850
_refine_diff_density_rms         0.350
_refine_ls_extinction_coef       0.0042(9)
_refine_ls_extinction_expression Fc^*^=kFc[1+0.001xFc^2^\l^3^/sin(2\q)]^-1/4^
_refine_ls_extinction_method     'SHELXL-2014/7 (Sheldrick 2014'
_refine_ls_goodness_of_fit_ref   1.008
_refine_ls_hydrogen_treatment    constr
_refine_ls_matrix_type           full
_refine_ls_number_parameters     68
_refine_ls_number_reflns         975
_refine_ls_number_restraints     68
_refine_ls_restrained_S_all      0.996
_refine_ls_R_factor_all          0.0539
_refine_ls_R_factor_gt           0.0494
_refine_ls_shift/su_max          0.000
_refine_ls_shift/su_mean         0.000
_refine_ls_structure_factor_coef Fsqd
_refine_ls_weighting_details
'w=1/[\s^2^(Fo^2^)+(0.1177P)^2^] where P=(Fo^2^+2Fc^2^)/3'
_refine_ls_weighting_scheme      calc
_refine_ls_wR_factor_gt          0.1422
_refine_ls_wR_factor_ref         0.1472
_reflns_Friedel_coverage         0.000
_reflns_number_gt                864
_reflns_number_total             975
_reflns_threshold_expression     'I > 2\s(I)'
_cod_data_source_file            ja0c00375_si_004.cif
_cod_data_source_block           Pmma
_cod_database_code               4134255
_shelx_shelxl_version_number     2014/7
_shelx_space_group_comment
;
The symmetry employed for this shelxl refinement is uniquely defined
by the following loop, which should always be used as a source of
symmetry information in preference to the above space-group names.
They are only intended as comments.
;
_shelx_estimated_absorpt_t_min   0.101
_shelx_estimated_absorpt_t_max   0.107
_shelx_res_file
;

    Pmma.res created by SHELXL-2014/7


TITL Pmma_2 in Pmma
CELL 0.71073  14.9183   5.8648   9.4829  90.000  90.000  90.000
ZERR    2.00   0.0009   0.0003   0.0005   0.000   0.000   0.000
LATT 1
SYMM 0.5-X, -Y, Z
SYMM -X, Y, -Z
SYMM 0.5+X, -Y, -Z
SFAC C  H  N  Cl Pb
UNIT 10 32 4 12 4
OMIT   0.00  53.00
L.S. 25
ACTA
BOND
FMAP 2
PLAN 5
SIZE 0.19 0.20 0.20
ISOR 0.02 C1 C2 C3 C4 N1 N2
DFIX 2.45 0.02 C2 C3 C2 C4 C3 C4
DFIX 1.50 0.02 N1 C1 C1 C2 C2 N2 N2 C3 N2 C4
SIMU 0.02 N2 C2 C3 C4
DELU 0.02 N2 C2 C3 C4
TEMP 150
WGHT    0.117700
EXTI    0.004156
FVAR       0.10813
PB1   5    0.441101    0.500000    0.788122    10.50000    0.03272    0.04148 =
         0.03661    0.00000    0.00052    0.00000
CL1   4    0.435903    1.000000    0.794951    10.50000    0.10451    0.03874 =
         0.08564    0.00000    0.01084    0.00000
CL2   4    0.500000    0.500000    0.500000    10.25000    0.09981    0.10229 =
         0.05159    0.00000    0.02075    0.00000
CL3   4    0.250000    0.500000    0.747932    10.25000    0.03882    0.13257 =
         0.06934    0.00000    0.00000    0.00000
CL4   4    0.612565    0.500000    0.918858    10.50000    0.04081    0.09707 =
         0.05467    0.00000    0.00647    0.00000
N1    3    0.750000    1.060141    1.019192    10.25000    0.05602    0.06547 =
         0.04844   -0.00151    0.00000    0.00000
AFIX   3
H1A   2    0.703030    0.999998    1.059151    10.50000   -1.50000
H1C   2    0.750000    1.212511    1.027042    10.25000   -1.50000
AFIX   0
N2    3    0.750000    1.000000    0.616305    10.25000    0.07491    0.08931 =
         0.07161    0.00000    0.00000    0.00000
C1    1    0.718652    1.000000    0.875245    10.25000    0.04488    0.08601 =
         0.05297    0.00000    0.00748    0.00000
AFIX   3
H1D   2    0.660702    1.066910    0.860255    10.25000   -1.20000
H1E   2    0.711551    0.837540    0.869925    10.25000   -1.20000
AFIX   0
C2    1    0.778125    1.074296    0.757762    10.25000    0.07352    0.09235 =
         0.06874    0.01315    0.00062   -0.00907
AFIX   3
H2A   2    0.782525    1.237586    0.758732    10.25000   -1.20000
H2B   2    0.837016    0.999994    0.774412    10.25000   -1.20000
AFIX   0
C3    1    0.660360    1.082725    0.573788    10.25000    0.07822    0.10122 =
         0.08884    0.00948   -0.01295   -0.00763
AFIX   3
H3A   2    0.658459    1.246205    0.577988    10.25000   -1.50000
H3B   2    0.645640    1.033263    0.480108    10.25000   -1.50000
H3C   2    0.617869    1.020494    0.639350    10.25000   -1.50000
AFIX   0
C4    1    0.750000    0.738996    0.611587    10.50000    0.13931    0.12516 =
         0.12865   -0.01547    0.00000    0.00000
AFIX   3
H4A   2    0.815190    0.690276    0.609777    10.50000   -1.50000
H4B   2    0.724260    0.673746    0.691986    10.50000   -1.50000
H4C   2    0.724250    0.689696    0.526966    10.50000   -1.50000

AFIX   0
HKLF 4

REM  Pmma_2 in Pmma
REM R1 =  0.0494 for     864 Fo > 4sig(Fo)  and  0.0539 for all     975 data
REM     68 parameters refined using     68 restraints

END

WGHT      0.0962      0.0000

REM Highest difference peak  2.799,  deepest hole -1.850,  1-sigma level  0.350
Q1    1   0.3840  0.5818  0.7859  11.00000  0.05    2.80
Q2    1   0.4942  0.5792  0.7867  11.00000  0.05    2.62
Q3    1   0.4035  0.5000  0.9272  10.50000  0.05    1.57
Q4    1   0.4776  0.5000  0.6542  10.50000  0.05    1.53
Q5    1   0.4776  0.5000  0.9233  10.50000  0.05    1.43
;
_shelx_res_checksum              3554
_shelx_hkl_file
;
  -8   0   0  233.65   14.52
  -7   0   0   -0.16    0.38
  -6   0   0  356.17   21.84
  -5   0   0    0.19    0.31
  -4   0   0   29.84    2.02
  -3   0   0   -0.07    0.19
  -2   0   0  268.92   16.37
   2   0   0  268.52   16.36
   3   0   0    0.03    0.19
   4   0   0   31.39    2.14
   5   0   0   -0.07    0.34
   6   0   0  355.03   21.82
   7   0   0    0.06    0.39
   8   0   0  232.21   14.49
   9   0   0    0.38    0.59
  10   0   0  213.27   13.47
  11   0   0   -0.35    0.84
  12   0   0   10.75    1.34
  13   0   0    0.35    0.63
  13   0   0   -0.22    0.84
  14   0   0   11.36    1.51
  14   0   0   10.78    1.32
  15   0   0    0.14    1.01
  15   0   0    0.18    0.76
  16   0   0   95.70    6.53
  16   0   0   88.40    6.30
  17   0   0    0.14    1.09
  17   0   0    0.57    0.95
  18   0   0   46.32    3.82
 -13   0  -1  136.05    8.83
 -12   0  -1    7.06    1.04
 -11   0  -1  222.75   14.02
 -10   0  -1    7.13    0.97
  -9   0  -1   15.21    1.41
  -8   0  -1   18.95    1.64
  -7   0  -1  173.43   10.89
  -6   0  -1   74.28    4.81
  -5   0  -1  789.06   47.94
  -4   0  -1   31.40    2.09
  -3   0  -1  698.36   42.35
   1   0  -1  112.24    7.03
   2   0  -1   31.57    2.19
   3   0  -1  714.91   43.52
   4   0   1   30.25    2.01
   4   0   1   29.99    1.97
   5   0   1  785.25   46.74
   5   0  -1  784.25   46.88
   5   0   1  741.22   46.79
   6   0  -1   81.96    4.87
   6   0   1   72.30    4.65
   6   0   1   69.71    4.73
   7   0   1  144.61   10.07
   7   0   1  162.20   10.01
   8   0   1   14.99    1.43
   8   0   1   17.96    1.36
   9   0   1   12.80    1.27
   9   0   1   11.90    1.13
  10   0   1    6.59    0.98
  10   0   1    7.27    0.83
  11   0   1  205.45   13.37
  11   0   1  194.03   13.47
  12   0   1    5.43    1.06
  12   0   1    6.31    0.88
  13   0  -1  165.00    8.57
  13   0   1  140.25    8.16
  13   0  -1   95.43    8.10
  13   0   1  116.73    8.16
  14   0  -1    0.20    1.00
  14   0   1    0.29    0.65
  14   0  -1   -0.30    0.84
  14   0   1   -0.06    0.79
  15   0  -1   49.77    3.73
  15   0   1   51.85    3.52
  16   0   1    5.17    1.30
  16   0  -1    3.60    1.16
  16   0  -1    4.05    1.31
  17   0   1    1.97    1.18
  17   0  -1    0.15    1.21
  17   0  -1    1.35    1.04
  18   0  -1    4.65    1.51
  18   0   1    5.13    1.43
 -14   0  -2   22.98    2.07
 -13   0  -2   34.62    2.76
 -12   0  -2    4.89    0.96
 -11   0  -2   78.48    5.42
 -10   0  -2  255.56   16.04
  -9   0  -2    1.82    0.62
  -8   0  -2  411.62   25.27
  -7   0  -2   74.76    4.86
  -6   0  -2  302.30   18.54
  -5   0  -2  196.61   12.57
  -5   0  -2  223.16   12.69
  -1   0  -2   28.90    1.84
  -1   0   2   31.32    1.88
   0   0   2  691.95   41.89
   1   0   2   30.11    1.87
   2   0  -2  315.31   19.52
   3   0  -2   99.62    6.55
   4   0  -2   16.02    1.51
   5   0  -2  211.17   13.35
   6   0  -2  283.09   17.73
   7   0  -2   64.34    4.55
   8   0  -2  451.19   27.77
   9   0  -2    2.49    0.73
  10   0  -2  303.99   19.08
  11   0  -2  106.25    7.31
  12   0  -2    9.44    1.53
  13   0  -2   44.91    3.07
  13   0  -2   23.07    2.55
  14   0  -2   28.14    2.32
  14   0  -2   12.31    1.78
  15   0  -2    7.51    1.45
  16   0  -2   65.42    5.05
  17   0  -2    0.82    1.23
  18   0  -2   28.53    2.68
  18   0  -2   18.95    2.45
 -13   0  -3   60.40    4.41
 -12   0  -3    5.04    0.99
 -11   0  -3   75.21    5.12
 -10   0  -3   66.73    4.54
  -9   0  -3    1.05    0.58
  -8   0  -3  182.68   11.42
  -7   0  -3   17.75    1.38
  -7   0  -3   15.79    1.16
  -6   0  -3   50.27    3.53
  -6   0  -3   61.00    3.63
  -2   0   3  362.67   22.06
  -1   0  -3  272.25   16.84
  -1   0   3  285.95   16.89
   0   0  -3  510.38   32.25
   0   0   3  560.34   32.27
   1   0   3  279.03   16.94
   2   0   3  368.17   22.32
   3   0   3  492.32   29.84
   4   0  -3    6.61    1.21
   5   0  -3  343.12   21.47
   6   0  -3   53.32    3.97
   7   0  -3   15.29    1.68
   8   0  -3  151.43    9.97
   9   0  -3    1.37    0.87
  10   0  -3   79.14    4.73
  10   0  -3   52.95    4.71
  11   0  -3   96.51    6.62
  12   0  -3    7.11    1.35
  13   0  -3   87.28    6.28
  14   0  -3   21.70    2.46
  15   0  -3   55.56    4.46
  16   0  -3   34.01    3.20
  17   0  -3    0.51    1.27
  18   0  -3   22.20    2.60
 -13   0  -4   83.79    5.76
 -12   0  -4    1.15    0.79
 -11   0  -4   60.91    4.26
 -10   0  -4   64.54    4.39
  -9   0  -4    9.94    1.09
  -8   0  -4   75.08    5.04
  -8   0  -4   91.63    5.28
  -7   0  -4   39.91    2.77
  -4   0   4   35.86    3.26
  -3   0   4  552.46   34.37
  -2   0   4  130.98    7.92
  -2   0   4  114.35    8.56
  -1   0  -4   84.72    5.53
  -1   0   4   99.00    5.60
   0   0   4  324.36   19.23
   0   0  -4  308.44   19.21
   1   0  -4   86.92    5.62
   1   0  -4   89.11    5.61
   1   0   4   95.31    5.61
   2   0   4  134.27    8.15
   2   0  -4  131.71    8.24
   3   0   4  548.89   32.96
   3   0  -4  531.98   33.07
   4   0  -4   35.07    2.32
   4   0   4   34.03    2.17
   5   0  -4  303.44   18.15
   5   0  -4  271.75   18.71
   6   0  -4   45.49    3.89
   6   0  -4   51.77    3.37
   7   0  -4   35.23    3.20
   7   0  -4   37.78    2.63
   8   0  -4   74.50    5.48
   9   0  -4    8.10    1.47
  10   0  -4   47.35    3.86
  11   0  -4   45.17    3.75
  12   0  -4    0.55    1.09
  12   0  -4   -0.12    0.85
  13   0  -4   51.96    5.27
  13   0  -4  114.30    5.81
  14   0  -4   11.36    1.77
  15   0  -4   50.75    4.38
  16   0  -4   32.41    3.32
  17   0  -4    0.19    1.49
 -12   0  -5    5.91    1.06
 -11   0  -5   31.58    2.48
 -10   0  -5  170.77   10.84
  -9   0  -5    0.32    0.31
  -9   0  -5    0.41    0.61
  -8   0  -5  298.08   18.43
  -5   0   5   97.66    7.24
  -4   0   5    8.54    1.69
  -3   0   5   14.90    1.12
  -3   0   5   13.00    1.88
  -2   0   5  190.13   10.99
  -2   0  -5  175.04   10.90
  -1   0   5   16.20    1.17
  -1   0  -5   15.91    1.11
   0   0  -5  357.50   22.71
   0   0   5  391.96   22.74
   1   0  -5   15.14    1.14
   1   0   5   17.10    1.15
   2   0  -5  186.46   11.48
   3   0   5   15.34    0.99
   3   0  -5   12.57    1.09
   4   0  -5    9.13    0.86
   4   0   5   10.15    0.72
   5   0  -5   89.11    5.96
   5   0   5   95.48    5.78
   6   0  -5  143.62    9.23
   6   0   5  148.50    9.03
   7   0  -5    5.34    0.74
   8   0  -5  278.00   16.32
   8   0  -5  229.79   16.80
   9   0  -5    1.18    1.28
   9   0  -5    0.15    0.54
  10   0  -5  145.86    9.08
  10   0  -5  131.64    9.58
  11   0  -5   25.50    2.13
  11   0  -5   23.00    2.59
  12   0  -5    4.02    0.89
  12   0  -5    3.64    1.42
  13   0  -5    9.94    1.53
  14   0  -5   22.72    2.44
  15   0  -5    5.64    1.58
  16   0  -5   51.05    4.41
 -11   0  -6   73.41    5.02
 -10   0  -6    0.97    0.36
 -10   0  -6    2.93    0.80
  -9   0  -6   10.72    1.21
  -5   0   6  319.10   20.85
  -4   0   6    7.10    1.84
  -3   0   6  283.82   20.47
  -3   0   6  326.42   19.54
  -2   0   6    0.86    1.29
  -2   0  -6    0.97    0.25
  -2   0   6    0.57    0.32
  -1   0  -6   47.90    3.07
  -1   0   6   54.12    3.16
   0   0   6   26.69    1.73
   0   0  -6   23.74    1.68
   1   0   6   54.21    3.37
   1   0  -6   50.64    3.36
   2   0   6    0.56    0.31
   2   0  -6    0.47    0.30
   3   0  -6  308.54   18.92
   4   0   6    6.69    0.55
   4   0  -6    6.16    0.71
   5   0  -6  279.52   18.66
   5   0   6  314.23   18.49
   6   0  -6   15.70    1.34
   6   0   6   15.55    1.09
   7   0  -6   73.64    4.97
   7   0   6   75.59    4.69
   8   0   6   -0.04    0.27
   8   0  -6    0.29    0.53
   9   0   6    9.63    0.80
   9   0  -6    9.05    1.09
  10   0  -6    1.50    0.67
  11   0  -6   62.21    4.36
  12   0  -6   -0.35    0.70
  13   0  -6   59.62    4.31
  14   0  -6    0.43    1.14
  14   0  -6    0.72    0.84
  15   0  -6   12.73    1.66
  15   0  -6   23.93    2.31
  16   0  -6   -0.13    0.98
  16   0  -6    0.89    1.39
 -11   0  -7    0.04    0.33
 -10   0  -7   41.83    2.93
  -5   0   7    2.97    1.71
  -4   0   7   -0.38    1.62
  -3   0   7    3.67    1.62
  -3   0   7    6.06    0.68
  -2   0  -7  156.92   10.16
  -2   0   7  138.85   11.18
  -1   0   7    1.69    1.27
  -1   0   7    2.42    0.49
  -1   0  -7    1.87    0.36
   0   0   7  429.87   24.67
   0   0  -7  383.40   24.62
   1   0  -7    2.22    0.42
   1   0   7    1.74    0.42
   2   0  -7  170.31   11.36
   2   0   7  198.89   11.38
   3   0  -7    5.97    0.68
   3   0  -7    5.45    0.66
   3   0   7    5.70    0.62
   4   0  -7    1.12    0.44
   5   0  -7    3.47    0.61
   5   0   7    2.43    0.35
   6   0  -7   71.92    5.09
   6   0   7   80.66    4.87
   7   0   7    0.21    0.27
   7   0  -7    0.13    0.53
   8   0  -7  105.48    7.25
   8   0   7  114.78    6.96
   9   0  -7    0.66    0.66
   9   0   7    0.46    0.32
  10   0  -7   50.55    3.94
  10   0   7   58.57    3.61
  11   0   7   -0.03    0.38
  11   0  -7    0.39    0.66
  12   0   7    6.30    0.69
  12   0  -7    5.95    1.07
  13   0  -7    1.51    0.86
  14   0  -7    7.04    1.18
  15   0  -7   -0.06    0.86
 -11   0  -8   35.86    2.50
  -5   0   8  124.31    9.39
  -4   0   8    4.45    1.90
  -3   0   8  104.69    8.49
  -3   0   8  116.56    7.25
  -2   0   8   14.45    2.62
  -2   0   8   21.43    1.55
  -1   0  -8   11.36    0.96
  -1   0   8    9.18    2.09
  -1   0   8   13.69    1.07
   0   0   8   15.61    1.18
   0   0  -8   13.53    1.10
   1   0  -8   12.40    1.04
   1   0   8   12.26    1.03
   2   0   8   21.83    1.57
   2   0  -8   20.33    1.58
   3   0   8  128.62    7.48
   3   0  -8  109.48    7.48
   4   0  -8    6.49    0.81
   4   0  -8    5.19    0.76
   4   0   8    7.10    0.71
   5   0  -8  121.13    7.60
   5   0  -8  116.89    7.59
   6   0  -8    5.75    0.82
   7   0   8   42.17    2.66
   7   0  -8   38.76    2.94
   8   0   8   18.18    1.27
   8   0  -8   17.60    1.61
   9   0   8    5.14    0.53
   9   0  -8    3.75    0.85
  10   0  -8    4.51    0.92
  10   0   8    5.62    0.58
  11   0  -8   40.94    3.13
  12   0  -8    1.35    0.89
  13   0  -8   31.93    2.69
  14   0  -8    0.12    1.00
  -5   0   9   36.82    4.05
  -4   0   9    0.31    1.98
  -3   0   9   20.51    3.05
  -2   0   9   40.63    4.16
  -2   0   9   43.68    2.95
  -1   0   9    1.36    1.52
  -1   0  -9    1.52    0.44
  -1   0   9    1.49    0.49
   0   0   9   82.07    4.67
   0   0  -9   69.03    4.58
   1   0   9    3.03    1.48
   1   0  -9    2.25    0.51
   1   0   9    1.82    0.53
   2   0  -9   38.95    2.86
   2   0   9   45.41    2.88
   3   0  -9   26.20    2.05
   3   0   9   29.37    2.01
   4   0   9    0.34    0.49
   4   0  -9    0.18    0.51
   5   0  -9   36.19    2.76
   5   0   9   40.37    2.66
   6   0  -9   31.36    2.29
   6   0  -9   27.16    2.21
   7   0  -9   17.89    1.61
   7   0  -9   16.51    1.54
   8   0  -9   53.71    3.80
   9   0  -9    1.00    0.75
  10   0  -9   20.78    1.89
  11   0  -9    7.98    1.18
  12   0  -9    0.52    0.81
  13   0  -9    8.50    1.30
  -5   0  10   24.85    3.33
  -4   0  10   -1.44    1.98
  -3   0  10   36.17    4.08
  -2   0  10   29.05    3.66
  -2   0  10   33.79    2.38
  -1   0 -10   10.06    0.91
  -1   0  10   10.87    2.39
  -1   0  10    8.28    0.94
   0   0  10   62.71    3.79
   0   0 -10   52.79    3.71
   0   0  10   49.33    4.88
   1   0  10   11.87    1.04
   1   0 -10    8.40    0.93
   1   0  10    7.77    2.07
   2   0 -10   31.48    2.36
   2   0  10   37.60    2.40
   3   0 -10   35.57    2.75
   3   0  10   43.45    2.76
   4   0  10    0.53    0.53
   4   0 -10    0.10    0.57
   5   0  10   31.15    2.19
   5   0 -10   27.57    2.27
   6   0 -10   10.28    1.23
   6   0  10   13.09    1.19
   7   0 -10    3.20    0.81
   7   0 -10    3.64    0.81
   8   0 -10   24.38    2.02
   8   0 -10   20.48    1.88
   9   0 -10    1.36    0.81
   9   0 -10    1.06    0.83
  10   0 -10    9.34    1.39
  10   0 -10   10.60    1.31
  11   0 -10    5.49    1.07
  -4   0  11    0.16    2.04
  -3   0  11   35.79    4.23
  -2   0  11    8.83    2.33
  -1   0  11    6.77    2.23
   0   0 -11   10.53    1.04
   0   0  11   12.41    2.44
   1   0 -11    5.25    0.73
   1   0  11    4.04    2.01
   2   0 -11    7.15    0.89
   2   0  11    8.15    2.07
   3   0  11   29.44    3.51
   3   0 -11   37.56    2.62
   4   0 -11    0.38    0.64
   5   0 -11   27.34    2.18
   6   0 -11    1.80    0.81
   7   0 -11    5.70    1.04
   8   0 -11    8.87    1.18
   9   0 -11    1.84    0.85
   9   0 -11    0.20    0.81
  -3   0  12   -0.32    2.37
  -2   0  12   16.26    3.00
  -1   0  12    0.30    1.97
   0   0  12   24.96    3.37
   1   0 -12    0.03    0.55
   1   0  12    2.16    1.99
   2   0  12   15.42    2.55
   2   0 -12   11.98    1.21
   3   0  12    2.55    1.93
   3   0 -12    2.14    0.74
   4   0 -12    0.54    0.64
   4   0  12    1.63    1.80
   5   0 -12    1.05    0.74
   5   0  12    2.82    1.99
   6   0 -12    8.36    1.18
   7   0 -12    1.24    0.90
   8   0 -12   22.07    2.07
  -2   0  13   -2.12    2.28
  -1   0  13    1.72    2.18
   0   0  13   -0.31    2.32
   1   0  13    1.86    2.03
   5   0 -13   11.63    1.32
   6   0 -13   -0.35    0.85
  -7   1   0   -0.23    0.40
  -7  -1   0    0.22    0.36
  -6  -1   0  111.72    8.23
  -6   1   0  157.77    8.30
  -5   1   0    0.02    0.31
  -4   1   0    0.27    0.30
  -3   1   0    0.01    0.25
  -3   1   0    0.18    0.49
  -2   1   0  435.79   26.46
  -1  -1   0    0.04    0.20
   0  -1   0  709.72   43.17
   1   1   0    0.02    0.06
   1   1   0    0.14    0.07
   1   1   0    0.20    0.18
   2   1   0  505.43   29.04
   2   1   0  455.72   29.23
   2   1   0  448.94   29.07
   3   1   0   -0.02    0.22
   3   1   0   -0.10    0.22
   4   1   0    0.80    0.33
   4   1   0    0.43    0.27
   4  -1   0    1.08    0.70
   5  -1   0    1.06    0.62
   5   1   0    0.11    0.32
   5   1   0    0.65    0.33
   6   1   0  175.91    9.57
   6  -1   0  167.75    9.66
   7   1   0    0.08    0.35
   7   1   0    0.15    0.42
   7  -1   0   -0.09    0.65
   8   1   0  179.69   10.30
   8   1   0  147.37   10.13
   8  -1   0  158.92   10.32
   9   1   0   -0.56    0.59
   9   1   0    0.19    0.45
   9  -1   0    0.05    0.69
  10  -1   0  108.22    7.80
  10   1   0  113.22    7.69
  11  -1   0    0.24    0.84
  11  -1   0   -0.05    0.74
  11   1   0    0.33    0.69
  11   1   0    0.12    0.60
  12   1   0   15.53    1.62
  12  -1   0    9.96    1.49
  12  -1   0   13.86    1.51
  12   1   0   12.36    1.45
  13   1   0    0.21    0.77
  13   1   0   -0.22    0.88
  13  -1   0    0.83    0.90
  13  -1   0   -0.06    0.86
  14  -1   0    5.52    1.21
  14  -1   0    9.60    1.41
  14   1   0    8.18    1.30
  14   1   0    9.37    1.37
  15  -1   0    0.13    0.92
  15  -1   0    0.42    0.63
  15  -1   0    0.21    1.10
  15   1   0   -0.14    1.06
  15   1   0   -0.16    0.84
  16  -1   0   74.66    5.33
  16   1   0   70.32    5.29
  16  -1   0   82.90    5.02
  17   1   0    0.85    1.14
  17   1   0   -0.62    1.20
  17  -1   0    1.05    1.07
  18  -1   0   40.27    3.46
  18   1   0   39.38    3.43
 -12   1  -1    4.46    0.87
 -12  -1  -1    4.52    0.88
 -11   1  -1  158.59    9.51
 -11  -1  -1  138.37    9.49
 -10  -1  -1    6.80    0.97
 -10   1  -1    5.60    0.91
  -9  -1  -1    0.82    0.58
  -9   1  -1    0.81    0.54
  -8   1  -1   12.54    1.13
  -8  -1  -1    8.51    1.06
  -7  -1  -1   87.66    6.26
  -7   1  -1  107.78    6.31
  -6  -1  -1   20.48    1.72
  -6   1  -1   26.00    1.75
  -5  -1  -1  520.95   31.15
  -5   1  -1  533.66   31.11
  -5   1   1  600.20   31.59
  -4   1   1   59.08    4.01
  -4   1  -1   57.40    3.57
  -4  -1  -1   52.00    3.65
  -3   1   1  193.99   12.33
  -3   1  -1  195.83   11.95
  -2   1  -1    6.27    0.53
  -1  -1  -1  143.24    8.82
  -1  -1   1  150.28    8.87
   0   1  -1   66.48    4.14
   0  -1   1   67.85    4.14
   1   1  -1  146.66    9.12
   1   1  -1  152.39    9.12
   2  -1   1    7.07    0.57
   2   1   1    7.49    0.49
   2   1  -1    7.87    0.56
   2   1  -1    7.01    0.54
   3  -1   1  210.18   12.63
   3   1  -1  213.52   12.50
   3  -1   1  195.23   12.47
   4   1   1   54.69    3.48
   4  -1   1   54.75    3.63
   5   1  -1  490.07   30.23
   5   1   1  501.02   30.15
   5   1   1  490.84   30.40
   6   1   1   19.41    1.68
   6   1  -1   23.02    1.68
   6  -1  -1   21.54    1.99
   6   1   1   20.39    1.53
   7  -1  -1   85.27    6.21
   7   1  -1  103.81    6.06
   7   1   1   88.96    5.85
   7   1   1   88.01    6.01
   8  -1  -1   10.09    1.35
   8   1   1    8.65    1.06
   8   1   1    9.80    1.00
   8   1  -1   11.95    1.23
   9   1  -1    1.67    0.76
   9  -1  -1    2.05    0.92
   9   1   1    1.16    0.56
   9   1   1    1.30    0.54
  10   1  -1    6.99    1.10
  10   1   1    4.14    0.79
  10   1   1    4.28    0.83
  10  -1  -1    4.67    1.08
  11   1   1  132.08    9.21
  11  -1   1  156.53    8.81
  11  -1  -1  124.87    9.29
  11  -1   1  113.76    9.05
  11  -1  -1  177.05    9.42
  11   1  -1  177.79    9.42
  11   1   1  118.63    9.01
  12  -1  -1    5.10    1.15
  12   1   1    3.77    0.86
  12   1  -1    4.90    1.06
  12   1  -1    5.79    1.13
  12   1   1    2.86    0.89
  12  -1   1    3.63    0.89
  12  -1   1    2.67    0.84
  12  -1   1    4.81    0.59
  12  -1  -1    2.89    1.09
  13  -1  -1   69.90    6.57
  13   1   1   81.87    6.49
  13   1   1   87.00    6.67
  13   1  -1  110.53    6.97
  13  -1   1   91.36    6.56
  13   1  -1  122.21    6.97
  13  -1  -1  134.66    7.04
  13  -1   1  122.64    6.30
  13  -1   1   76.40    6.51
  14  -1   1    0.06    0.84
  14   1   1   -0.06    0.82
  14  -1   1    0.30    0.44
  14  -1  -1    0.14    0.93
  14  -1   1    0.81    0.91
  14  -1  -1    0.20    1.00
  14   1   1    0.23    0.88
  14   1  -1    0.87    0.97
  14   1  -1   -0.08    0.79
  15  -1  -1   21.76    2.68
  15   1   1   30.27    2.76
  15   1  -1   33.44    3.05
  15   1   1   35.66    3.05
  15  -1   1   20.79    2.59
  15  -1   1   30.37    2.81
  15  -1  -1   42.60    3.07
  15   1  -1   39.42    3.04
  15  -1   1   42.52    2.42
  16  -1   1    3.72    1.20
  16   1  -1    3.92    1.36
  16  -1   1    2.22    1.02
  16  -1  -1    4.66    1.31
  16   1   1    2.31    1.13
  16   1  -1    3.89    1.29
  17   1   1    0.07    1.05
  17  -1  -1    0.82    1.13
  17   1  -1   -0.10    1.11
  17   1  -1   -0.30    1.16
  17  -1   1    1.20    1.20
  18   1  -1    3.81    1.54
  18   1  -1    3.21    1.43
  18  -1  -1    3.59    1.46
 -14  -1  -2    9.05    1.28
 -14   1  -2   10.49    1.29
 -13   1  -2   34.20    2.53
 -13  -1  -2   27.03    2.48
 -12  -1  -2    2.79    0.84
 -12   1  -2    3.81    0.88
 -11  -1  -2   33.02    2.80
 -11   1  -2   37.47    2.80
 -10   1  -2  220.30   13.01
 -10  -1  -2  190.94   12.99
  -9   1  -2    3.81    0.73
  -9  -1  -2    3.64    0.78
  -8  -1  -2  236.12   15.28
  -8   1  -2  254.45   15.24
  -7  -1  -2   55.51    3.92
  -7  -1  -2   57.22    3.98
  -7   1  -2   67.62    3.99
  -6  -1  -2  148.01    9.72
  -6  -1  -2  149.30    9.78
  -6   1   2  172.92   10.37
  -6   1  -2  164.86    9.72
  -5  -1  -2  108.38    6.88
  -5   1   2  124.93    7.57
  -5   1  -2  116.71    6.87
  -4   1  -2   27.17    1.73
  -4  -1  -2   23.73    1.73
  -4   1   2   25.18    2.28
  -3   1   2   34.94    2.73
  -2  -1   2   82.46    5.12
  -1  -1   2    0.60    0.15
  -1  -1   2    0.44    0.15
   0  -1   2  399.41   24.00
   0  -1   2  395.27   24.00
   0   1  -2  389.14   24.05
   1  -1   2    0.66    0.15
   1  -1  -2    0.72    0.12
   1   1  -2    0.42    0.14
   2   1  -2   82.79    5.19
   2   1  -2   84.72    5.20
   3   1  -2   36.41    2.36
   4   1  -2   26.49    1.81
   5   1  -2  125.08    7.81
   8   1  -2  276.10   17.21
   9  -1  -2    5.15    1.27
   9   1  -2    4.48    0.88
  10  -1  -2  244.43   13.58
  10   1  -2  247.40   13.62
  11  -1  -2   48.47    3.46
  11   1  -2   50.11    3.50
  12   1  -2    4.81    1.23
  12  -1  -2    4.44    1.25
  12  -1  -2    2.71    1.22
  13  -1  -2   44.76    3.11
  13   1  -2   39.95    3.04
  14   1  -2   13.23    1.74
  14  -1  -2   15.00    1.77
  15  -1  -2    3.40    1.29
  15  -1   2    1.79    0.87
  15   1  -2    3.94    1.26
  16   1  -2   60.88    3.91
  16  -1  -2   59.23    3.77
  17   1  -2   -0.52    1.17
  17   1  -2    0.58    1.25
  17  -1  -2    0.71    1.30
  18   1  -2   21.34    2.46
  18  -1  -2   22.85    2.49
  18   1  -2   19.56    2.54
 -13   1  -3   54.74    3.98
 -13  -1  -3   51.33    4.03
 -12   1  -3    1.83    0.87
 -12  -1  -3    3.32    1.04
 -11   1  -3   42.23    3.03
 -11  -1  -3   38.19    3.03
 -10   1  -3   58.97    3.90
 -10  -1  -3   53.30    3.90
  -9  -1  -3    1.06    0.61
  -9   1  -3    0.91    0.59
  -8  -1  -3   73.32    5.05
  -8   1  -3   82.34    5.08
  -8  -1  -3   77.47    5.10
  -7   1   3   12.21    1.72
  -7  -1  -3   11.00    1.08
  -7   1  -3   13.30    1.12
  -7  -1  -3   11.24    1.11
  -6  -1  -3   42.09    2.86
  -6   1   3   45.45    3.68
  -6  -1  -3   35.42    2.98
  -6   1  -3   46.08    2.85
  -5   1   3  229.38   14.85
  -4   1   3   16.63    1.85
  -3  -1   3  276.70   16.92
  -2  -1   3  165.35   10.16
  -1  -1   3  112.74    6.89
  -1  -1   3  116.91    6.92
  -1   1  -3  106.87    6.89
   0   1   3  281.86   17.13
   0  -1   3  289.64   17.21
   0  -1   3  276.43   17.19
   1  -1   3  116.28    6.89
   1   1  -3  110.08    7.13
   1  -1   3  125.78    7.04
   1   1  -3  102.22    6.89
   1  -1  -3  106.66    6.84
   1   1   3  114.97    6.82
   2   1  -3  164.88   10.05
   2   1  -3  158.51    9.79
   2  -1   3  158.56    9.75
   2  -1  -3  158.49    9.74
   3   1  -3  272.02   16.93
   3   1  -3  271.42   17.20
   3  -1   3  282.52   16.89
   4   1  -3   18.60    1.31
   4   1  -3   15.68    1.53
   5   1  -3  205.43   14.43
   5   1  -3  246.38   14.25
   6   1  -3   47.96    3.23
   7   1  -3   12.09    1.08
  10   1  -3   67.87    4.67
  10  -1  -3   63.67    4.60
  11  -1  -3   31.00    3.34
  11   1  -3   54.63    3.39
  11  -1  -3   51.31    3.31
  11   1  -3   28.41    2.97
  12  -1  -3    3.05    1.13
  12  -1  -3    2.32    1.25
  12   1  -3    0.43    0.87
  12   1  -3    2.78    1.09
  13   1  -3   33.01    3.53
  13  -1  -3   76.15    4.39
  13  -1  -3   38.43    3.86
  13   1  -3   78.46    4.51
  14  -1  -3   10.53    1.78
  14   1  -3   11.51    1.85
  15   1  -3   47.87    4.08
  15  -1  -3   49.43    4.07
  16   1  -3   31.38    2.67
  16  -1  -3   29.24    2.52
  17   1  -3   -0.27    1.30
  17  -1  -3    1.47    1.33
  18   1  -3   10.81    1.97
 -13  -1  -4   60.06    4.45
 -13   1  -4   61.95    4.38
 -12   1  -4    1.36    0.79
 -12  -1  -4    0.81    0.81
 -11  -1  -4   38.66    3.08
 -11   1  -4   43.50    3.06
 -10  -1  -4   59.07    3.94
 -10   1  -4   64.36    3.92
  -9   1  -4    2.91    0.67
  -9  -1  -4    2.25    0.54
  -9  -1  -4    2.80    0.69
  -8  -1  -4   58.89    3.79
  -8   1  -4   62.63    3.75
  -7   1  -4   28.51    1.90
  -7  -1  -4   20.18    1.98
  -7   1   4   26.50    2.90
  -7  -1  -4   25.46    1.92
  -6   1   4   25.47    2.72
  -3  -1   4  249.02   15.27
  -2  -1   4   80.55    5.07
  -1  -1   4   82.16    4.93
  -1  -1  -4   77.16    4.80
  -1   1   4   80.37    4.86
  -1   1  -4   75.76    4.89
   0   1  -4  198.45   12.85
   0  -1   4  204.97   12.85
   0  -1   4  211.78   12.87
   0  -1   4  233.06   13.28
   0   1   4  216.20   12.80
   1   1   4   81.67    4.84
   1  -1   4   79.59    5.26
   1  -1  -4   73.39    4.86
   1  -1   4   82.14    4.91
   1   1  -4   76.55    4.92
   2   1  -4   71.35    5.09
   2   1  -4   73.93    4.73
   2  -1   4   79.75    4.70
   2  -1  -4   72.91    4.68
   3  -1   4  272.28   16.00
   3  -1  -4  252.54   16.02
   3   1  -4  255.01   16.45
   4  -1   4   35.38    2.26
   4  -1  -4   33.63    2.31
   4   1  -4   32.44    2.71
   5   1   4  162.92    9.79
   5  -1  -4  155.03   10.03
   5   1  -4  148.26   10.40
   6   1  -4   29.09    2.48
   7   1  -4   20.96    2.03
   8   1  -4   47.06    3.65
   9   1  -4    2.17    0.66
   9   1  -4    1.23    0.90
  10   1  -4   59.60    3.75
  10   1  -4   42.16    3.89
  11   1  -4   37.04    2.84
  11  -1  -4   43.23    3.03
  12  -1  -4    0.60    0.92
  12   1  -4    0.05    0.76
  12   1  -4    0.32    0.96
  12   1  -4    0.94    0.98
  13   1  -4   76.20    4.96
  13  -1  -4   81.84    4.94
  14   1  -4    8.32    1.70
  14  -1  -4    8.73    1.59
  15  -1  -4   44.67    3.86
  15   1  -4   40.82    3.86
  16   1  -4   31.07    3.20
  16  -1  -4   27.87    3.01
  17  -1  -4    0.27    1.36
  17   1  -4    0.20    1.44
  19   1  -4    7.21    1.98
 -12  -1  -5    7.06    1.17
 -12   1  -5    8.11    1.15
 -11   1  -5   26.09    1.93
 -11  -1  -5   23.27    1.96
 -10   1  -5  112.92    6.70
 -10  -1  -5  104.64    6.72
 -10  -1  -5   92.13    6.58
  -9  -1  -5    0.48    0.48
  -9   1  -5    1.60    0.63
  -9  -1  -5    0.99    0.67
  -8   1  -5  232.57   14.17
  -8  -1  -5  222.43   14.19
  -4  -1   5    5.06    0.60
  -3  -1   5   14.81    1.15
  -3   1   5   15.27    1.88
  -2  -1   5  131.75    7.50
  -2  -1  -5  117.01    7.31
  -1  -1  -5    5.87    0.45
  -1  -1   5    6.36    1.18
  -1   1   5    5.91    0.53
  -1   1  -5    5.58    0.54
  -1  -1   5    5.48    0.59
   0  -1   5  154.81    9.34
   0  -1   5  164.46    9.94
   0   1   5  152.26    9.26
   0   1  -5  142.53    9.31
   1  -1   5    7.78    0.65
   1   1  -5    5.96    0.59
   1  -1   5    6.20    1.13
   1  -1   5    6.53    0.58
   1   1   5    5.99    0.52
   2  -1  -5  117.27    7.91
   2  -1   5  136.50    7.94
   2   1   5  131.28    7.87
   2   1  -5  127.62    7.98
   3  -1  -5   15.05    1.12
   3  -1   5   15.39    1.10
   3   1  -5   15.06    1.18
   4  -1  -5    4.64    0.55
   4  -1   5    5.17    0.52
   4   1  -5    4.15    1.16
   4   1  -5    5.25    0.62
   5  -1   5   57.75    3.42
   5   1  -5   45.48    3.99
   5  -1  -5   49.70    3.48
   6   1  -5   56.82    4.69
   6  -1   5   69.81    4.12
   6  -1  -5   53.77    4.16
   6   1   5   65.03    3.92
   7   1   5   13.15    0.83
   7   1  -5   10.64    1.62
   7  -1  -5    9.69    1.08
   8  -1  -5  197.51   12.01
   8   1  -5  178.90   12.42
   9   1  -5    1.13    1.06
  10   1  -5   75.87    5.54
  11   1  -5   16.73    1.98
  12   1  -5    5.17    1.31
  13   1  -5   10.96    1.63
  13  -1  -5   10.96    1.54
  14   1  -5   21.66    2.47
  14  -1  -5   21.88    2.32
  15  -1  -5    4.80    1.49
  15   1  -5    5.12    1.54
  16  -1  -5   40.10    3.69
  16   1  -5   38.57    3.81
 -11   1  -6   57.64    3.68
 -11  -1  -6   45.16    3.47
 -11  -1  -6   52.13    3.70
 -10   1  -6    2.79    0.75
 -10  -1  -6    2.76    0.83
 -10  -1  -6    1.22    0.57
  -9  -1  -6    2.55    0.75
  -9  -1  -6    1.93    0.75
  -9   1  -6    3.50    0.73
  -6   1   6   16.60    2.48
  -5   1   6  179.86   12.25
  -4  -1   6    3.43    0.56
  -4   1   6    4.75    1.59
  -3   1   6  157.01   11.97
  -3  -1   6  188.22   11.25
  -2  -1   6   -0.08    1.04
  -2  -1  -6    0.19    0.16
  -1  -1   6   29.26    1.97
  -1   1  -6   28.88    1.93
  -1   1   6   30.13    1.90
  -1  -1  -6   25.59    1.80
   0  -1   6   23.75    1.62
   0  -1  -6   20.86    1.49
   0   1   6   22.96    1.53
   0  -1   6   23.68    2.34
   0   1  -6   22.61    1.59
   1   1   6   31.13    1.97
   1  -1   6   31.15    2.06
   1   1  -6   27.44    2.03
   1  -1   6   27.04    2.68
   2  -1  -6    0.46    0.27
   2   1  -6    0.33    0.34
   2  -1   6    0.18    0.32
   2   1   6    0.26    0.24
   2  -1   6    0.09    0.25
   3   1   6  198.95   11.68
   3  -1  -6  170.57   11.74
   3   1  -6  193.14   11.82
   3  -1   6  200.76   11.73
   3   1  -6  184.85   11.80
   4   1  -6    4.44    0.63
   4  -1   6    4.07    0.48
   4   1  -6    4.35    0.60
   4  -1  -6    3.20    0.51
   5   1  -6  197.10   12.50
   5  -1   6  213.41   12.37
   5   1  -6  206.34   12.52
   5  -1  -6  184.06   12.44
   6   1  -6   14.86    1.39
   6  -1   6   18.38    1.26
   6  -1  -6   15.21    1.34
   7  -1  -6   48.63    3.62
   7   1   6   54.51    3.31
   7   1  -6   52.31    3.69
   7   1  -6   46.53    4.19
   7  -1   6   57.05    3.51
   8   1   6    0.34    0.15
   8  -1   6    0.39    0.38
   8  -1  -6    0.41    0.47
   9   1   6    3.38    0.33
   9  -1   6    3.43    0.57
   9  -1  -6    4.46    0.73
   9   1  -6    2.43    1.29
  10   1  -6    3.09    1.38
  10  -1  -6    1.79    0.68
  10   1   6    2.13    0.31
  11   1  -6   40.12    3.61
  11  -1  -6   41.96    3.09
  12  -1  -6    0.15    0.69
  13  -1  -6   42.81    3.27
  14  -1  -6    0.06    0.82
  14  -1  -6    0.68    1.09
  14   1  -6    0.77    1.18
  15   1  -6   22.63    2.40
  15  -1  -6   22.95    2.30
  16  -1  -6    0.63    0.92
 -12  -1  -7    7.03    0.89
 -11  -1  -7   -0.04    0.53
 -10  -1  -7   33.50    2.71
  -9  -1  -7    2.29    0.79
  -9   1  -7    2.37    0.75
  -8   1   7   76.27    6.32
  -7   1   7   -0.14    1.74
  -6   1   7   38.67    3.97
  -5   1   7    2.44    1.58
  -4  -1   7    0.77    0.43
  -4   1   7    0.77    1.46
  -3  -1   7    8.94    0.87
  -3   1   7    7.76    1.73
  -2  -1   7  151.06    8.82
  -2  -1   7  141.27    7.73
  -1   1   7    0.60    0.36
  -1  -1  -7    0.66    0.24
  -1  -1   7    0.49    1.29
  -1  -1   7    0.43    0.42
  -1   1  -7    0.39    0.34
   0  -1   7  288.45   16.28
   0   1  -7  244.33   16.22
   0  -1  -7  251.73   16.15
   0   1   7  277.96   16.19
   0  -1   7  282.83   17.22
   1  -1   7    1.66    1.30
   1  -1  -7    0.94    0.32
   1  -1   7    0.41    0.41
   1   1   7    0.66    0.32
   1   1  -7    0.77    0.41
   2   1   7  135.98    8.32
   2  -1   7  148.31    8.44
   2   1  -7  129.21    8.42
   3  -1  -7    7.15    0.77
   3  -1   7    8.69    0.83
   3  -1   7    8.94    0.77
   3   1   7    9.51    0.76
   3   1  -7    8.73    0.88
   4  -1  -7    0.61    0.40
   4   1  -7    1.03    0.48
   4  -1   7    1.02    0.32
   4   1  -7    0.87    0.44
   4   1   7    0.58    0.31
   5   1  -7    0.61    0.51
   5  -1   7    0.81    0.37
   5  -1  -7    0.43    0.43
   5   1  -7    0.54    0.48
   6  -1  -7   39.55    3.11
   6   1  -7   49.33    3.25
   6  -1   7   48.13    3.02
   6   1  -7   47.59    3.22
   7   1  -7    0.99    0.62
   7  -1   7    0.90    0.40
   7  -1  -7    0.77    0.51
   7   1  -7    0.66    0.58
   8   1  -7   82.89    5.46
   8  -1   7   89.33    5.23
   9  -1   7    0.91    0.42
   9  -1  -7    0.55    0.59
   9   1  -7    1.30    0.71
  10   1  -7   49.23    3.53
  10   1  -7   35.17    3.91
  10  -1  -7   36.22    3.33
  10   1   7   50.16    2.98
  10  -1   7   50.74    3.22
  11  -1  -7   -0.36    0.63
  11  -1   7    0.21    0.47
  11   1  -7   -0.49    0.79
  11   1   7    0.26    0.23
  12  -1   7    6.80    0.82
  12   1  -7    4.37    1.06
  12  -1  -7    4.76    0.95
  13   1  -7   -0.06    0.89
  13  -1  -7    0.31    0.71
  13  -1   7    0.75    0.59
  14  -1  -7    3.30    0.96
  14   1  -7    5.50    1.10
  15  -1  -7   -0.35    0.85
 -12  -1  -8    1.76    0.70
 -11  -1  -8   28.77    2.38
  -8   1   8    4.61    1.98
  -7   1   8   24.86    3.26
  -6   1   8    6.07    1.99
  -5   1   8   69.61    5.78
  -4   1   8    1.07    1.55
  -4  -1   8    1.65    0.54
  -3   1   8   52.74    5.15
  -3  -1   8   69.32    4.33
  -2  -1   8    5.26    0.70
  -2  -1   8    4.50    1.61
  -2   1   8    4.20    1.57
  -1   1  -8   10.42    0.98
  -1  -1  -8   10.47    0.85
  -1  -1   8   12.51    2.11
  -1   1   8   12.39    0.97
  -1  -1   8   13.51    1.11
   0   1  -8   15.39    1.24
   0  -1   8   16.33    1.30
   0   1   8   16.43    1.19
   0  -1   8   16.77    2.32
   0  -1  -8   14.23    1.12
   1  -1  -8   10.99    0.96
   1   1   8   13.08    1.00
   1  -1   8   10.99    1.98
   1   1  -8   11.30    1.05
   1  -1   8   13.20    1.09
   2   1   8    4.98    0.56
   2  -1   8    5.62    0.70
   2   1  -8    4.88    0.68
   2  -1   8    4.73    1.58
   2  -1  -8    4.13    0.58
   3   1   8   76.44    4.69
   3  -1   8   62.04    5.40
   3   1  -8   67.19    4.81
   3  -1   8   81.53    4.83
   4  -1   8    2.23    0.55
   4   1   8    1.93    0.44
   4  -1   8    1.26    0.40
   4  -1  -8    2.20    0.49
   4   1  -8    1.66    0.60
   5   1  -8  103.21    6.72
   5   1   8  109.79    6.54
   5  -1   8  108.40    6.55
   5  -1  -8   93.61    6.65
   5   1  -8  102.31    6.73
   6  -1   8    5.72    0.63
   6  -1  -8    5.41    0.80
   6   1  -8    5.91    0.89
   6   1  -8    7.99    0.94
   7   1  -8   35.64    2.51
   7  -1   8   35.29    2.24
   7   1  -8   34.92    2.52
   8   1  -8    8.14    1.09
   8  -1  -8    7.21    0.96
   8   1  -8    8.16    1.06
   8  -1   8    8.34    0.79
   9   1  -8    3.04    0.87
   9  -1   8    2.91    0.53
   9   1  -8    1.72    0.75
   9  -1  -8    2.23    0.73
  10   1  -8    4.50    0.97
  10  -1   8    3.78    0.59
  10  -1  -8    2.38    0.78
  11   1  -8   35.02    2.87
  11  -1  -8   29.72    2.78
  12   1  -8    1.72    0.89
  12  -1  -8    2.73    0.87
  13   1  -8   30.85    2.56
  13  -1  -8   26.70    2.38
  14  -1  -8    0.17    0.76
  -8   1   9   41.23    4.32
  -7   1   9   13.36    2.68
  -6   1   9   17.92    2.84
  -5   1   9   16.20    2.57
  -4  -1   9    0.03    0.53
  -4   1   9    0.13    1.46
  -3  -1   9   19.26    1.52
  -3   1   9   11.45    2.42
  -2   1   9   20.82    3.07
  -2  -1   9   37.35    2.42
  -1  -1   9    0.56    0.54
  -1   1  -9    0.32    0.45
  -1   1   9    0.54    0.42
  -1  -1  -9    0.50    0.31
  -1  -1   9   -0.96    1.62
   0   1  -9   53.22    3.60
   0  -1   9   57.09    4.85
   0  -1  -9   48.18    3.45
   0   1   9   57.08    3.53
   0  -1   9   61.26    3.66
   1   1   9    0.49    0.44
   1  -1   9    0.40    0.53
   1  -1   9    1.70    1.58
   1   1  -9    0.45    0.45
   1  -1  -9    0.33    0.37
   2  -1   9   37.26    2.47
   2  -1  -9   32.64    2.37
   2  -1   9   33.29    3.38
   2   1   9   36.58    2.36
   2   1  -9   31.72    2.44
   3  -1   9   17.94    1.47
   3   1   9   19.19    1.36
   3   1  -9   16.50    1.48
   3  -1  -9   15.77    1.39
   4   1  -9    0.46    0.54
   4  -1   9    1.12    1.38
   4  -1   9   -0.17    0.51
   4  -1  -9    0.17    0.49
   4   1   9    0.08    0.39
   5  -1   9   25.41    1.83
   5   1   9   25.51    1.71
   5   1  -9   24.33    1.92
   6  -1  -9   18.23    1.71
   6   1   9   23.15    1.61
   6   1  -9   23.42    1.88
   6   1  -9   20.12    1.78
   6  -1   9   22.96    1.60
   7  -1  -9   12.68    1.29
   7   1  -9   13.76    1.40
   7   1  -9   12.19    1.35
   7  -1   9   15.92    1.17
   8  -1  -9   39.85    3.25
   8   1  -9   47.13    3.43
   8  -1   9   50.11    3.09
   8   1  -9   47.33    3.39
   9   1  -9    0.32    0.72
   9  -1  -9    0.08    0.62
   9   1  -9    1.61    0.88
  10   1  -9   23.28    2.03
  10   1  -9   26.91    2.18
  11   1  -9    8.95    1.32
  11   1  -9    7.98    1.21
  11  -1  -9    4.79    1.00
  12   1  -9    1.24    0.90
  12  -1  -9    0.81    0.82
  12   1  -9    1.92    1.03
  13  -1  -9    5.40    1.07
  -7   1  10    3.73    2.07
  -6   1  10    5.81    2.41
  -5   1  10   15.14    2.68
  -4   1  10   -0.28    1.67
  -3   1  10   22.78    3.08
  -2   1  10   22.74    2.96
  -1  -1 -10    5.71    0.61
  -1   1  10    5.29    1.77
  -1  -1  10    5.55    1.85
   0  -1 -10   31.61    2.38
   0   1 -10   36.41    2.55
   0  -1  10   43.94    3.90
   0   1  10   40.37    2.51
   1  -1  10    4.33    1.82
   1  -1 -10    5.89    0.70
   1   1 -10    5.64    0.82
   1   1  10    6.35    0.74
   2   1  10   31.34    2.03
   2   1 -10   27.51    2.12
   2  -1  10   31.38    3.25
   2  -1 -10   25.20    2.00
   3  -1  10   41.44    3.65
   3   1 -10   34.47    2.55
   3  -1 -10   32.24    2.47
   3   1  10   36.48    2.42
   4  -1  10    0.97    1.56
   4  -1 -10    0.12    0.52
   4   1 -10    0.14    0.65
   4   1  10    0.13    0.47
   5   1  10   23.18    1.68
   5  -1 -10   21.04    1.80
   5  -1  10   24.50    2.62
   5   1 -10   22.42    1.88
   6   1  10    7.39    0.82
   6  -1 -10    5.99    0.97
   6   1 -10    7.51    1.05
   7   1  10    5.32    0.71
   7   1 -10    4.37    0.97
   7  -1 -10    3.34    0.79
   8   1  10   21.71    1.53
   8   1 -10   21.30    1.86
   8   1 -10   17.98    1.74
   9   1 -10   -0.05    0.77
   9  -1 -10    0.47    0.70
   9   1 -10    0.90    0.77
  10  -1 -10    6.37    1.05
  10   1 -10    8.32    1.27
  10   1 -10    8.83    1.23
  11  -1 -10    3.53    0.96
  12  -1 -10    1.04    0.79
  -7   1  11    3.79    2.05
  -6   1  11   -1.00    2.21
  -5   1  11   16.63    2.99
  -4   1  11    1.38    2.06
  -3   1  11   22.21    3.10
  -2   1  11    6.21    2.04
  -1   1  11    5.20    1.91
   0   1  11    9.38    0.94
   0  -1 -11    8.86    0.85
   0   1 -11    8.72    1.01
   0   1  11    7.34    2.00
   0  -1  11   10.12    2.16
   1   1  11    4.84    0.71
   1  -1  11    6.44    1.94
   1  -1 -11    4.39    0.63
   1   1 -11    3.91    0.76
   2   1 -11    7.64    1.00
   2  -1  11    8.43    1.99
   2  -1 -11    7.87    0.87
   2   1  11    7.88    0.89
   3   1 -11   27.91    2.31
   3  -1  11   36.70    3.40
   3  -1 -11   27.61    2.20
   3   1  11   33.90    2.21
   4   1 -11    1.19    0.68
   4  -1  11    0.97    1.59
   4  -1 -11    1.00    0.62
   5  -1  11   24.04    2.67
   5  -1 -11   18.32    1.67
   5   1 -11   20.24    1.77
   6  -1 -11    1.06    0.68
   6   1 -11    1.20    0.80
   6  -1  11    3.03    1.64
   7  -1 -11    5.25    0.93
   7   1 -11    5.77    1.03
   8   1 -11    6.29    1.12
   8  -1 -11    6.21    1.05
   9  -1 -11    0.39    0.86
   9   1 -11    0.87    0.97
   9  -1 -11    1.30    0.72
  10  -1 -11    4.36    0.96
  -5   1  12   -0.17    2.20
  -4   1  12   -1.29    2.15
  -3   1  12    0.31    2.05
  -2   1  12   10.01    2.33
  -1   1  12   -0.42    1.89
   0   1  12   10.97    2.35
   1  -1 -12    0.12    0.50
   1   1 -12    0.52    0.67
   2  -1 -12   11.06    1.10
   2   1 -12   14.46    1.35
   2   1  12   10.23    2.28
   2  -1  12   13.37    2.34
   3  -1 -12    1.25    0.59
   3   1 -12    1.57    0.74
   4  -1 -12    0.55    0.59
   4   1 -12    0.52    0.66
   5  -1 -12    1.92    0.74
   5   1 -12    1.94    0.79
   6  -1 -12    5.68    1.00
   6   1 -12    6.82    1.14
   7  -1 -12    0.76    0.76
   7   1 -12    0.38    0.82
   8  -1 -12   19.97    1.88
  -2   1  13    0.31    2.18
  -1   1  13    1.75    2.19
   0   1  13    0.43    1.91
   1   1  13    3.17    2.16
   2   1  13    0.27    1.88
   2   1 -13    0.19    0.75
   3   1 -13   14.21    1.44
   3   1  13    9.94    2.35
   4   1  13    1.11    1.90
   4   1 -13    0.54    0.80
  -6   2   0  326.11   20.32
  -5   2   0   -0.14    0.74
  -4   2   0   12.12    1.26
  -3  -2   0    0.16    0.16
  -2  -2   0  424.16   26.02
  -2  -2   0  430.64   25.68
  -2  -2   0  415.27   25.66
  -1  -2   0    0.33    0.39
  -1  -2   0    0.12    0.14
  -1  -2   0   -0.05    0.15
   0  -2   0 1599.91   97.20
   1  -2   0   -0.09    0.41
   2   2   0  437.00   25.10
   2   2   0  423.17   25.13
   2   2   0  415.85   25.09
   2   2   0  378.82   25.53
   2  -2   0  385.44   25.10
   3   2   0    0.19    0.17
   3   2   0   -0.01    0.19
   3   2   0    0.04    0.42
   3   2   0    0.34    0.16
   3  -2   0    0.16    0.20
   4  -2   0    7.99    0.76
   4   2   0   10.53    0.78
   4   2   0    6.80    0.96
   4   2   0   10.12    0.73
   4   2   0    8.87    0.70
   5   2   0    0.06    0.20
   5   2   0   -0.10    0.43
   5  -2   0   -0.15    0.37
   5   2   0    0.16    0.34
   6  -2   0  282.15   17.22
   6   2   0  252.31   17.16
   6   2   0  308.73   17.09
   6   2   0  246.18   17.46
   7   2   0    0.06    0.46
   7   2   0    0.12    0.52
   7  -2   0   -0.09    0.44
   8   2   0  198.71   13.28
   8   2   0  204.36   13.65
   8  -2   0  241.21   13.98
   8  -2   0  223.75   13.35
   9  -2   0    0.12    0.59
   9  -2   0    0.97    1.08
   9   2   0    0.07    0.61
   9   2   0   -0.11    0.57
  10  -2   0  150.08   10.04
  10   2   0  139.32    9.54
  10   2   0  144.97    9.92
  10  -2   0  163.96    9.64
  11   2   0   -0.70    0.80
  11   2   0   -0.14    0.73
  11  -2   0   -0.08    1.13
  11  -2   0   -0.05    0.76
  12   2   0    8.55    1.22
  12  -2   0    7.57    1.52
  12  -2   0    8.92    1.24
  12   2   0    6.10    1.27
  13  -2   0   -0.47    0.95
  13   2   0    0.57    0.86
  13   2   0    0.18    0.92
  13  -2   0    1.13    1.23
  14  -2   0    9.60    1.74
  14  -2   0   14.02    1.64
  14   2   0   11.66    1.59
  14   2   0   10.95    1.75
  15  -2   0    0.25    0.99
  15   2   0   -0.06    0.94
  15   2   0   -0.63    1.06
  15  -2   0    0.98    1.21
  16   2   0   61.30    4.52
  16  -2   0   70.92    4.66
  17   2   0   -0.49    1.51
  17  -2   0   -0.21    1.13
  17   2   0   -0.28    1.16
  18  -2   0   37.35    3.25
  18   2   0   35.23    3.75
  18   2   0   36.56    3.26
 -11  -2  -1  115.55    9.23
 -11   2  -1  181.55    9.34
 -10  -2  -1    4.77    0.91
 -10   2  -1    7.96    0.95
  -9  -2  -1    6.60    1.01
  -9   2  -1   11.87    1.09
  -8  -2  -1   11.60    1.25
  -8   2  -1   15.71    1.29
  -7   2  -1  132.24    7.25
  -7   2   1  144.92    7.90
  -6   2   1   55.51    3.53
  -6  -2  -1   39.97    3.00
  -6   2  -1   48.21    2.93
  -6  -2  -1   33.63    2.90
  -5  -2  -1  610.64   38.07
  -5   2  -1  667.86   37.82
  -4   2   1   14.50    1.38
  -4   2  -1   11.74    0.92
  -4   2  -1   13.66    1.14
  -3   2  -1  508.17   29.04
  -3  -2  -1  409.50   29.05
  -3  -2   1  490.53   29.06
  -3  -2  -1  464.59   28.98
  -3   2  -1  578.58   29.23
  -2  -2   1   10.02    0.76
  -2  -2  -1   10.34    0.71
  -2  -2  -1    8.36    0.71
  -2   2  -1   12.02    0.74
  -1   2  -1  104.05    7.15
  -1  -2  -1  115.99    6.86
  -1  -2   1  112.59    6.87
  -1  -2  -1  110.04    6.80
   0  -2   1   97.70    6.12
   0  -2   1  105.27    6.40
   1   2  -1  113.35    7.10
   1  -2   1  120.75    7.36
   2   2   1   10.99    0.72
   2  -2   1   11.72    1.02
   2   2  -1   10.88    0.79
   2   2  -1   10.72    0.81
   3   2  -1  507.42   30.33
   3   2   1  483.73   30.28
   3   2  -1  471.84   30.70
   3  -2   1  519.40   30.55
   3   2  -1  484.73   30.33
   3   2   1  519.49   30.28
   4   2  -1   12.71    0.92
   4   2  -1   13.20    0.93
   4   2   1   11.73    0.84
   4  -2  -1   12.83    1.02
   4   2  -1    9.74    0.95
   4   2  -1   11.58    1.24
   4  -2   1   13.67    1.10
   5   2  -1  566.93   39.27
   5   2  -1  609.25   39.59
   5   2  -1  635.76   39.17
   5  -2   1  768.46   39.40
   5  -2  -1  640.31   39.31
   5   2   1  639.32   39.10
   5   2  -1  675.34   39.20
   6  -2   1   55.33    3.11
   6   2   1   41.45    2.89
   6   2  -1   38.58    3.23
   6  -2  -1   47.95    3.13
   6   2  -1   39.56    3.04
   6   2  -1   44.57    2.87
   6   2   1   43.42    2.79
   6   2  -1   47.37    2.93
   6  -2   1   37.62    2.90
   7  -2   1  114.57    7.51
   7  -2   1  118.28    7.96
   7   2  -1  119.43    7.91
   7   2  -1  116.64    7.67
   7   2   1   99.34    7.88
   7   2   1  117.54    7.48
   8   2  -1   14.68    1.58
   8  -2  -1   17.30    1.46
   8   2   1   12.83    1.18
   8   2   1    9.18    1.45
   8  -2   1   13.80    1.64
   8   2  -1   13.64    1.38
   8  -2   1   12.43    1.21
   9   2  -1    9.85    1.34
   9  -2   1    9.46    1.08
   9   2   1    8.37    1.02
   9  -2   1    8.71    1.38
   9   2   1    8.29    1.35
   9   2  -1   10.27    1.22
   9  -2  -1   12.20    1.29
  10  -2  -1    7.98    1.15
  10   2  -1    7.19    1.12
  10   2  -1    6.48    1.22
  10  -2   1    6.75    1.03
  10   2   1    6.82    0.94
  10  -2   1    5.94    1.33
  10  -2  -1    9.55    1.78
  10   2   1    6.36    1.26
  11   2  -1  169.39   10.16
  11   2  -1  174.67   10.62
  11   2   1  142.31    9.92
  11   2   1  137.70   10.42
  11  -2   1  160.99   10.03
  11  -2   1  138.29   10.19
  11  -2  -1  138.73   10.40
  11  -2  -1  192.26   10.24
  12   2   1    3.24    1.15
  12   2  -1    5.13    1.18
  12   2  -1    4.45    1.23
  12  -2   1    3.65    0.96
  12   2   1    3.23    0.90
  12  -2   1    4.23    1.26
  12  -2  -1    4.57    1.11
  12  -2  -1    4.71    1.48
  13  -2  -1  131.41    6.88
  13   2  -1  116.06    6.80
  13  -2  -1   78.42    6.77
  13  -2   1  108.11    6.63
  13   2  -1   99.96    7.12
  13  -2   1   77.61    6.61
  13   2   1   82.82    6.88
  13   2   1   89.80    6.47
  14   2   1    0.33    0.79
  14   2  -1   -0.20    0.99
  14  -2  -1    0.06    0.95
  14  -2  -1    1.19    1.32
  14   2  -1    0.30    1.10
  14  -2   1   -0.06    0.91
  14  -2   1    1.28    1.06
  15   2   1   27.19    2.55
  15   2  -1   35.36    2.82
  15  -2   1   23.95    2.65
  15   2  -1   28.35    2.99
  15  -2  -1   20.57    2.71
  15  -2   1   34.92    2.74
  15  -2  -1   39.04    2.85
  16  -2   1    2.95    1.19
  16  -2   1    2.36    1.26
  16  -2  -1    3.45    1.31
  16   2  -1    2.36    1.32
  16   2  -1    3.02    1.23
  16   2   1    2.70    1.15
  17   2  -1    1.93    1.38
  17  -2  -1    0.15    1.26
  17   2  -1   -0.23    1.25
  18  -2  -1    4.21    1.45
  18   2  -1    4.57    1.53
  18   2  -1    3.36    1.67
 -14  -2  -2   11.40    1.50
 -14   2  -2   16.09    1.53
 -13   2  -2   26.60    2.12
 -13  -2  -2   22.18    2.15
 -12   2  -2    4.53    0.92
 -12  -2  -2    3.96    0.96
 -11   2  -2   51.51    3.39
 -11  -2  -2   40.45    3.37
 -10   2  -2  220.21   12.05
 -10  -2  -2  160.88   11.97
  -9   2  -2    2.80    0.73
  -9  -2  -2    1.80    0.77
  -8  -2  -2  276.64   18.67
  -8  -2  -2  258.51   18.62
  -7   2  -2   54.14    3.38
  -7  -2  -2   42.27    3.39
  -7  -2  -2   47.71    3.56
  -6   2  -2  220.41   12.72
  -6  -2  -2  186.76   12.74
  -6  -2  -2  176.41   12.91
  -5   2  -2  151.86    8.74
  -5  -2  -2  126.10    9.05
  -5  -2  -2  124.19    8.74
  -4  -2  -2    9.31    0.83
  -4  -2  -2    8.96    1.23
  -4   2  -2   11.16    0.83
  -3   2  -2   75.87    5.31
  -3  -2   2   87.70    5.22
  -2  -2   2  218.97   13.16
  -2   2  -2  198.77   13.28
  -2  -2  -2  216.78   13.05
  -1   2  -2    7.16    0.80
  -1  -2   2    8.22    0.65
   0   2  -2  486.12   31.15
   0  -2   2  534.90   30.94
   0   2  -2  494.40   30.92
   1  -2   2    8.50    0.67
   1   2  -2    7.48    0.64
   2  -2   2  239.03   13.96
   2   2  -2  229.27   13.91
   2   2  -2  216.73   13.92
   3   2  -2   92.17    5.64
   3   2  -2   88.32    5.64
   4   2   2   10.88    0.78
   4   2  -2   12.33    0.94
   4   2  -2   13.62    0.95
   5   2  -2  155.00    9.71
   5   2   2  153.96    9.57
   5   2  -2  167.06    9.74
   6   2  -2  217.97   13.50
   6   2  -2  227.14   13.52
   6  -2   2  221.58   13.84
   6   2   2  215.58   13.34
   7   2  -2   55.61    3.58
   7  -2   2   49.38    3.86
   7  -2  -2   56.61    3.69
   7   2  -2   49.96    3.67
   8   2  -2  341.16   20.82
   8  -2  -2  372.58   20.82
   8   2  -2  340.79   20.63
   9   2  -2    2.46    0.64
   9  -2  -2    3.42    0.89
   9  -2   2    1.60    0.90
   9   2  -2    2.85    0.90
  10  -2  -2  255.68   12.86
  10   2  -2  250.83   12.96
  10  -2   2  143.71   12.42
  10   2  -2  186.52   12.88
  11  -2  -2   69.93    4.27
  11   2  -2   64.98    4.32
  11  -2   2   41.26    3.89
  11   2  -2   49.60    4.28
  12  -2  -2    5.31    1.20
  12   2  -2    5.03    1.26
  12   2  -2    4.90    1.32
  12  -2   2    4.10    1.12
  13  -2  -2   36.83    2.78
  13   2  -2   37.91    2.87
  13   2  -2   28.83    2.93
  14  -2  -2   19.25    1.97
  14   2  -2   17.88    2.23
  14   2  -2   19.21    2.04
  14  -2   2   11.74    1.70
  15   2  -2    6.47    1.52
  15  -2  -2    6.05    1.49
  15   2  -2    3.67    1.41
  15  -2   2    2.74    1.16
  16   2  -2   49.12    3.64
  16   2  -2   42.13    3.90
  16  -2  -2   47.85    3.48
  17  -2  -2    0.52    1.25
  17   2  -2    0.91    1.42
  17   2  -2    1.72    1.38
  18  -2  -2   22.81    2.37
  18   2  -2   21.14    2.43
 -13   2  -3   55.28    3.67
 -13  -2  -3   42.10    3.65
 -12   2  -3    3.38    0.97
 -12  -2  -3    2.54    1.00
 -11   2  -3   59.63    3.92
 -11  -2  -3   49.33    3.98
 -10  -2  -3   47.43    3.92
 -10   2  -3   64.36    3.93
  -9   2  -3    2.08    0.63
  -9  -2  -3    1.45    0.62
  -9  -2  -3    2.19    0.71
  -8   2  -3  149.21    8.69
  -8  -2  -3  124.54    8.72
  -8  -2  -3  120.58    8.83
  -7  -2  -3   14.13    1.49
  -7   2  -3   17.49    1.34
  -7  -2  -3   15.22    1.38
  -6  -2  -3   43.34    3.73
  -6  -2  -3   47.74    3.47
  -5  -2  -3  238.29   16.05
  -5   2   3  295.00   16.74
  -5   2  -3  273.44   16.03
  -4   2  -3    3.92    0.50
  -3   2  -3  332.79   20.43
  -2   2  -3  214.75   13.01
  -2  -2  -3  207.64   12.71
  -2  -2   3  213.12   12.86
  -1  -2   3  128.20    7.94
   0  -2   3  387.47   23.61
   1  -2   3  132.40    7.43
   1  -2  -3  116.01    7.27
   2  -2   3  230.55   13.33
   2   2  -3  210.03   13.28
   2   2  -3  211.77   13.31
   3   2  -3  349.30   21.23
   3   2  -3  330.68   21.23
   3  -2   3  364.85   21.26
   4   2  -3    3.89    0.52
   4   2  -3    5.06    0.57
   5   2  -3  266.17   16.57
   5   2   3  267.71   16.35
   5   2  -3  285.03   16.59
   6  -2   3   54.45    3.64
   6   2  -3   52.91    3.49
   6   2   3   50.99    3.25
   6   2  -3   58.69    3.54
   7   2  -3   18.65    1.45
   7  -2   3   17.69    1.61
   7   2  -3   18.38    1.46
   7   2   3   17.77    1.19
   8  -2   3  124.78    8.81
   8   2  -3  148.67    8.75
   9  -2   3    0.97    0.72
   9   2  -3    1.75    0.61
   9   2  -3    1.57    0.75
   9  -2  -3    2.33    0.78
  10   2  -3   61.47    4.20
  10  -2  -3   73.28    4.48
  10   2  -3   67.70    4.49
  11  -2  -3   74.91    4.49
  11   2  -3   69.35    4.53
  11   2  -3   60.84    4.12
  12   2  -3    3.95    0.92
  12   2  -3    6.31    1.40
  12  -2   3    3.54    0.98
  12  -2  -3    5.15    1.33
  13  -2  -3   74.48    4.46
  13   2  -3   73.50    4.55
  14  -2  -3   14.79    1.87
  14   2  -3   15.83    1.96
  14   2  -3   12.24    1.98
  14   2  -3    9.92    1.43
  15  -2  -3   35.64    2.81
  15   2  -3   38.07    3.04
  15   2  -3   25.98    2.94
  15  -2   3   16.59    2.17
  15   2  -3   25.41    2.39
  16  -2   3   13.97    1.89
  16   2  -3   16.96    2.57
  16   2  -3   26.70    2.54
  16  -2  -3   24.72    2.42
  16   2  -3   17.19    2.00
  17   2  -3   -0.66    1.17
  17  -2  -3    0.25    1.33
  17   2  -3   -0.42    1.36
  17  -2   3    0.61    1.03
  17   2  -3    0.74    1.45
  18   2  -3   11.97    2.41
  19   2  -3    4.19    1.95
 -13  -2  -4   61.29    4.59
 -12   2  -4    0.40    0.78
 -12  -2  -4    0.79    0.88
 -11   2  -4   51.51    3.33
 -11  -2  -4   44.72    3.38
 -11  -2  -4   40.66    3.23
 -10  -2  -4   46.28    3.45
 -10  -2  -4   40.72    3.35
  -9   2  -4    5.02    0.81
  -9  -2  -4    5.83    0.91
  -9  -2  -4    5.04    0.90
  -9   2   4    5.85    1.67
  -8  -2  -4   53.89    4.78
  -8  -2  -4   66.94    4.70
  -7   2  -4   34.57    2.28
  -7  -2  -4   26.38    2.62
  -7  -2  -4   28.97    2.30
  -6   2  -4   31.93    2.39
  -6   2  -4   41.95    2.54
  -6  -2  -4   36.40    2.58
  -6   2   4   47.13    3.47
  -5   2  -4  215.88   13.68
  -5   2   4  247.36   14.46
  -4   2  -4   17.71    1.36
  -1  -2   4   72.03    4.57
   0  -2   4  220.53   13.95
   0  -2   4  233.77   13.95
   1  -2  -4   61.97    4.05
   1   2  -4   65.35    4.35
   1  -2   4   70.12    4.21
   1  -2   4   73.14    4.21
   2   2   4   89.92    5.41
   2  -2   4   93.76    5.60
   2  -2  -4   83.46    5.48
   2   2  -4   89.28    5.82
   3  -2   4  368.25   21.23
   3   2  -4  372.23   21.26
   3   2  -4  338.32   21.46
   3  -2  -4  321.50   21.15
   4  -2   4   17.99    1.31
   4   2  -4   13.89    1.50
   4   2  -4   17.85    1.33
   5   2  -4  235.18   14.60
   5  -2   4  246.47   14.59
   5   2  -4  228.03   14.58
   6   2  -4   39.43    2.75
   6  -2   4   40.00    2.69
   6   2  -4   39.18    2.73
   7  -2   4   33.25    2.34
   7   2  -4   34.03    2.36
   7   2   4   31.39    1.98
   7   2  -4   36.49    2.38
   8   2  -4   78.04    4.74
   8  -2   4   67.62    4.69
   8   2  -4   75.43    4.72
   8   2   4   69.17    4.34
   9   2  -4    6.55    0.90
   9  -2   4    4.91    0.86
  10  -2   4   39.23    3.29
  10   2  -4   53.78    3.38
  11   2  -4   51.03    3.57
  11   2  -4   56.66    3.87
  11  -2  -4   59.71    3.78
  12  -2  -4    0.06    0.93
  12  -2   4    0.40    0.77
  12   2  -4    0.92    0.77
  12   2  -4    0.07    1.08
  12   2  -4   -0.06    0.87
  13  -2  -4   88.02    5.09
  13   2  -4   91.57    5.34
  14   2  -4    7.91    1.24
  14  -2  -4   10.61    1.88
  14   2  -4   11.76    1.94
  15  -2  -4   39.65    2.97
  15   2  -4   38.99    3.14
  15  -2   4   13.77    1.94
  15   2  -4   20.85    2.15
  16  -2  -4   24.65    2.44
  16   2  -4   27.55    2.67
  16   2  -4   14.81    2.56
  16   2  -4   14.17    1.84
  16  -2   4    8.94    1.58
  17  -2  -4    0.50    1.36
  17   2  -4    1.47    1.52
  17   2  -4    0.30    1.58
  18   2  -4    3.06    1.73
  19   2  -4    6.45    2.25
 -12   2  -5    4.75    0.96
 -12  -2  -5    3.03    0.95
 -11  -2  -5   19.05    1.86
 -11  -2  -5   18.52    1.77
 -11   2  -5   22.54    1.81
 -10  -2  -5  107.00    7.26
 -10  -2  -5   95.06    7.26
  -9   2  -5    0.66    0.65
  -9  -2  -5    0.53    0.72
  -9   2   5    0.12    1.63
  -9  -2  -5   -0.29    0.70
  -8   2  -5  237.99   13.71
  -8  -2  -5  208.47   13.75
  -7  -2  -5    5.86    0.84
  -7   2  -5    4.35    0.50
  -7   2  -5    7.11    0.83
  -7   2   5    6.48    1.64
  -6   2   5  125.55    7.51
  -6   2  -5   96.69    6.32
  -5   2   5   65.42    5.02
  -4  -2   5    6.22    0.70
  -3  -2   5   15.04    1.22
  -2  -2   5  166.21   10.34
  -1  -2   5   10.21    0.90
  -1   2  -5    9.34    0.85
  -1  -2   5    9.97    0.85
   0  -2   5  270.17   16.72
   0   2  -5  260.15   16.73
   0  -2   5  290.80   16.77
   1   2  -5    9.98    0.88
   1  -2   5   10.94    0.91
   1  -2   5   10.24    0.88
   1   2   5   10.16    0.72
   2  -2   5  164.23    9.28
   2   2  -5  138.70    9.52
   2  -2  -5  129.67    9.14
   2   2   5  160.90    9.10
   2   2  -5  145.46    9.28
   3   2  -5   14.31    1.17
   3   2  -5   15.36    1.56
   3  -2  -5   13.16    1.05
   3   2   5   15.09    0.96
   3  -2   5   14.64    1.14
   4   2  -5    5.12    1.01
   4  -2   5    5.43    0.61
   4   2  -5    5.22    0.66
   4  -2  -5    4.66    0.53
   5  -2   5   61.96    3.64
   5  -2  -5   47.43    3.56
   5   2  -5   61.32    3.71
   5   2  -5   51.51    4.01
   6   2  -5  105.36    6.30
   6  -2   5  113.25    6.24
   6   2  -5   86.67    6.57
   6  -2  -5   83.84    6.18
   7  -2   5    6.66    0.74
   7   2  -5    4.86    0.76
   7  -2   5    4.96    0.65
   7   2  -5    5.09    0.77
   7   2  -5    5.79    1.17
   8   2  -5  183.07   13.82
   8  -2   5  197.22   13.40
   8   2  -5  241.56   13.59
   8   2  -5  246.40   13.61
   9   2  -5    0.43    0.60
   9   2  -5    0.28    0.58
   9  -2   5    0.35    0.50
   9   2  -5   -0.20    0.95
  10  -2   5   95.90    7.35
  10   2  -5   88.35    7.67
  10   2   5  119.68    7.03
  10   2  -5  131.51    7.59
  11  -2   5   16.34    1.65
  11   2  -5   14.12    1.93
  12   2  -5    4.70    1.01
  12  -2   5    2.58    0.83
  12  -2  -5    4.33    1.07
  12   2  -5    4.56    1.22
  13  -2  -5   11.16    1.55
  13   2  -5    9.88    1.62
  13  -2   5    5.66    1.12
  13   2  -5    8.45    1.25
  14  -2  -5   17.54    1.96
  14   2  -5   20.93    2.31
  14   2  -5   14.47    1.67
  15   2  -5    4.05    1.66
  15   2  -5    2.79    1.05
  15  -2  -5    2.44    1.38
  15  -2   5    1.94    0.92
  16  -2  -5   39.91    3.41
  16   2  -5   38.15    3.63
 -12  -2  -6    0.81    0.68
 -11  -2  -6   44.11    3.36
 -10   2  -6    1.62    0.77
 -10  -2  -6    1.08    0.74
 -10   2   6   -0.13    1.65
 -10  -2  -6    0.75    0.80
  -9  -2  -6    6.18    0.98
  -9  -2  -6    4.17    1.06
  -9   2  -6    6.58    0.92
  -8  -2  -6    0.24    0.66
  -8   2  -6    0.32    0.58
  -8   2  -6    0.23    0.26
  -7   2  -6   49.50    3.24
  -5  -2   6  218.91   13.60
  -4  -2   6    3.55    0.61
  -3  -2   6  241.99   14.95
  -2  -2   6    0.38    0.44
  -1  -2   6   43.89    2.79
  -1   2  -6   38.26    2.73
   0  -2   6   15.95    1.24
   0   2  -6   13.84    1.20
   0  -2   6   15.78    1.21
   1   2  -6   40.85    2.90
   1  -2   6   43.58    2.88
   1   2   6   43.58    2.74
   1  -2   6   45.54    2.94
   2   2   6    0.11    0.21
   2  -2   6    0.36    0.42
   2  -2   6    0.29    0.37
   2   2  -6    0.21    0.38
   3   2  -6  229.86   13.77
   3  -2   6  244.08   13.72
   3   2   6  235.77   13.55
   4  -2  -6    3.07    0.47
   4   2  -6    3.49    0.61
   4   2  -6    4.33    1.20
   4  -2   6    4.27    0.57
   5  -2   6  237.54   13.23
   5  -2  -6  188.56   13.17
   5   2  -6  202.61   13.70
   5   2  -6  228.46   13.33
   6  -2  -6    8.26    0.88
   6  -2   6   10.99    0.95
   6   2  -6    9.14    1.55
   7   2  -6   55.94    3.55
   7  -2   6   57.36    3.43
   7   2  -6   46.32    3.92
   7  -2  -6   42.98    3.38
   8   2  -6    0.04    0.60
   8  -2   6    0.42    0.51
   8   2  -6    0.85    1.11
   8  -2  -6    0.07    0.47
   9  -2  -6    4.45    0.78
   9  -2   6    7.31    0.82
   9   2  -6    6.41    0.96
   9   2  -6    5.40    1.32
  10  -2  -6   -0.24    0.64
  10   2  -6    0.84    0.76
  10   2  -6    1.19    1.03
  10  -2   6    0.64    0.48
  10   2  -6    1.17    0.79
  11  -2   6   43.69    3.52
  11   2  -6   60.68    3.86
  11   2  -6   41.33    3.99
  11   2  -6   68.33    3.94
  12   2  -6    0.32    0.86
  12   2  -6    0.21    0.86
  12   2   6    0.37    0.16
  12  -2   6    0.04    0.66
  12   2   6    0.49    0.15
  13  -2  -6   67.17    4.33
  13   2  -6   72.35    4.63
  13   2  -6   56.92    4.16
  14   2  -6    1.32    0.96
  14  -2  -6    0.41    1.09
  14  -2   6    0.10    0.80
  14   2  -6    0.33    1.28
  15   2  -6   15.72    1.91
  15   2  -6   21.87    2.50
  15  -2  -6   17.85    2.18
 -13  -2  -7    1.86    0.74
 -12  -2  -7    3.92    0.94
 -11  -2  -7   -0.30    0.72
 -10  -2  -7   31.67    2.78
  -9   2  -7    1.00    0.68
  -9  -2  -7    1.54    0.79
  -8   2  -7   77.28    4.91
  -5   2   7    2.16    1.41
  -5  -2   7    1.00    0.52
  -4  -2   7    0.45    0.49
  -4   2   7    1.88    1.28
  -3  -2   7    4.77    0.68
  -2  -2   7  145.25    9.14
  -1  -2   7    0.59    0.50
  -1  -2  -7    0.69    0.20
  -1   2  -7    0.55    0.41
   0  -2   7  315.62   17.93
   0   2  -7  269.74   17.87
   1   2   7    0.47    0.29
   1  -2   7    0.13    0.51
   1  -2   7    0.90    0.43
   1   2  -7    1.52    0.50
   2   2  -7  139.00    9.13
   2  -2   7  152.73    9.14
   2   2   7  146.76    8.93
   2  -2   7  141.81    9.06
   3  -2  -7    4.10    0.53
   3  -2   7    5.54    0.72
   3   2   7    5.83    0.51
   3  -2   7    5.77    0.68
   3   2  -7    5.78    0.77
   4   2   7    0.25    0.26
   4  -2   7    0.54    0.42
   4   2  -7    0.06    0.48
   4  -2  -7    0.29    0.35
   5  -2  -7    1.15    0.43
   5   2  -7    1.79    0.60
   5  -2   7    1.99    0.53
   6   2  -7   60.41    3.86
   6  -2   7   62.28    3.70
   7  -2  -7    0.18    0.48
   7   2  -7    0.80    0.62
   7  -2   7    0.81    0.49
   7   2  -7    1.67    1.24
   8  -2   7   99.40    5.45
   8   2  -7   89.96    5.63
   8   2  -7   71.06    5.95
   8  -2  -7   69.68    5.42
   9  -2  -7    0.44    0.55
   9   2  -7    0.92    1.28
   9  -2   7    0.08    0.53
  10   2  -7   35.12    3.50
  10  -2  -7   32.02    2.87
  11  -2  -7   -0.29    0.64
  11  -2   7    0.56    0.62
  11  -2   7   -0.24    0.58
  12  -2   7    5.90    0.90
  12  -2   7    4.26    0.81
  13  -2  -7    0.31    0.77
  13   2  -7    1.36    1.00
  13  -2   7    1.62    0.79
  14  -2  -7    3.66    1.04
  14   2  -7    6.66    1.32
  14   2  -7    8.23    1.68
  14  -2  -7    7.42    1.40
  15  -2  -7    0.51    0.77
 -12  -2  -8    1.82    0.85
 -11  -2  -8   27.16    2.49
 -10  -2  -8    2.46    1.15
  -9   2  -8    3.26    0.49
  -9   2   8    4.88    2.11
  -8   2   8   17.80    2.78
  -7   2   8   39.91    4.00
  -6   2   8    8.36    2.07
  -5   2   8  100.90    7.34
  -5  -2   8   96.03    6.30
  -4  -2   8    2.51    0.66
  -4   2   8    3.82    1.43
  -3  -2   8   96.40    6.22
  -2  -2   8   12.76    1.20
  -1  -2   8   11.32    1.03
  -1  -2  -8    8.39    0.65
   0  -2   8   16.09    1.26
   0   2  -8   13.69    1.21
   0  -2  -8   12.63    0.98
   1   2  -8   10.33    1.02
   1  -2   8   11.04    1.03
   1   2   8   10.63    0.83
   1  -2  -8    8.74    0.81
   2   2  -8   11.90    1.19
   2  -2   8   14.92    1.25
   2   2   8   13.49    1.01
   3   2  -8   85.53    6.23
   3  -2   8  104.88    6.29
   3   2   8   99.55    6.04
   3  -2   8   96.68    6.17
   4   2   8    2.68    0.40
   4  -2   8    2.99    0.67
   4  -2  -8    1.98    0.45
   4  -2   8    2.86    0.58
   4   2  -8    2.34    0.65
   5   2   8  104.36    5.99
   5  -2   8  105.73    6.15
   5   2  -8   98.79    6.28
   6  -2  -8    5.06    0.71
   6   2   8    5.70    0.57
   6   2  -8    5.67    0.85
   6   2  -8    5.74    0.93
   6  -2   8    6.06    0.77
   7   2  -8   30.18    2.29
   7   2  -8   34.29    2.38
   7  -2   8   31.97    2.11
   8  -2   8   14.41    1.14
   8  -2   8   10.98    1.09
   8   2  -8   13.31    1.36
   9  -2  -8    1.60    0.66
   9   2  -8    3.29    0.86
   9  -2   8    4.37    0.72
  10   2  -8    5.22    1.03
  10  -2   8    5.08    0.79
  11  -2   8   39.29    2.41
  11  -2   8   30.20    2.27
  11   2  -8   42.37    2.83
  11  -2  -8   22.77    2.38
  12  -2  -8    1.42    0.73
  12   2  -8    2.47    1.03
  13  -2  -8   18.62    1.77
  14  -2  -8   -0.16    0.69
 -10  -2  -9   14.19    2.05
  -9   2  -9    0.96    0.43
  -9   2   9    0.15    1.96
  -8   2   9   56.93    5.23
  -7   2   9   16.66    2.75
  -6   2   9   26.36    3.11
  -5   2   9   27.84    3.18
  -4   2   9    2.63    1.53
  -3   2   9   16.40    2.30
  -1  -2  -9    1.26    0.26
   0   2  -9   56.84    3.66
   0  -2  -9   52.52    3.42
   1  -2  -9    1.34    0.37
   1   2  -9    2.56    0.64
   2   2  -9   29.37    2.26
   2  -2  -9   28.13    2.10
   2   2   9   33.04    2.07
   3   2  -9   20.64    1.80
   3   2   9   22.91    1.57
   4   2   9    0.05    0.37
   4  -2   9    0.71    0.49
   4   2  -9    0.47    0.62
   5   2   9   27.80    1.93
   5  -2   9   29.11    2.08
   5   2  -9   29.25    2.26
   6   2   9   27.05    1.70
   6   2  -9   23.58    2.00
   6  -2   9   26.28    1.82
   7   2   9   15.25    1.11
   7   2  -9   15.53    1.44
   7  -2   9   14.95    1.25
   7   2  -9   15.50    1.49
   8   2  -9   43.22    3.19
   8   2  -9   50.15    3.33
   8  -2   9   50.06    3.03
   9  -2  -9    0.75    0.62
   9   2  -9    1.64    0.86
   9   2  -9    1.78    0.89
   9  -2   9    0.65    0.59
  10   2  -9   21.98    1.87
  10   2  -9   23.97    1.98
  11   2  -9    8.27    1.26
  11   2  -9    9.78    1.35
  12  -2  -9    0.90    0.74
  13  -2  -9    4.03    0.95
  -9   2  10   -1.96    2.30
  -8   2  10   21.06    3.26
  -7   2  10    3.86    2.02
  -6   2  10   12.18    2.39
  -5   2  10   23.61    3.10
  -4   2  10    2.62    1.71
  -3   2  10   27.53    3.14
  -2   2  10   23.33    2.75
   0  -2 -10   35.30    2.32
   1   2 -10    5.95    0.88
   1  -2 -10    5.38    0.62
   2   2 -10   24.97    2.03
   2  -2 -10   23.24    1.82
   2   2  10   28.61    1.83
   3   2 -10   31.83    2.35
   3   2  10   32.59    2.10
   3  -2 -10   27.18    2.15
   4  -2 -10    0.71    0.53
   4   2 -10   -0.08    0.70
   5   2 -10   21.13    1.85
   6  -2  10    8.50    0.95
   6   2 -10    8.95    1.18
   7  -2 -10    2.94    0.66
   7   2 -10    4.06    0.99
   8  -2 -10   13.56    1.40
   8   2 -10   19.30    1.75
   9  -2 -10    1.08    0.66
   9   2 -10    1.77    0.85
   9   2 -10    0.59    0.91
  10  -2 -10    4.91    0.89
  11  -2 -10    3.13    0.82
  12  -2 -10   -0.05    0.72
  -6   2  11    0.15    1.89
  -5   2  11   23.41    3.16
  -4   2  11    2.78    1.90
  -3   2  11   28.99    3.38
  -2   2  11   10.24    2.13
  -1   2  11    5.84    1.85
   0  -2 -11    6.80    0.64
   1  -2 -11    4.14    0.56
   1   2 -11    3.92    0.85
   2  -2 -11    5.01    0.66
   2   2 -11    6.07    0.98
   3   2 -11   29.69    2.24
   3  -2 -11   26.43    2.02
   4  -2 -11    0.68    0.56
   4   2 -11    0.62    0.74
   5   2 -11   22.24    1.89
   5  -2 -11   18.66    1.65
   6  -2 -11    1.60    0.71
   6   2 -11    1.37    0.84
   7   2 -11    4.11    1.04
   9  -2 -11    0.72    0.60
  10  -2 -11    2.81    0.82
  11  -2 -11    4.12    0.92
  -2   2  12   12.16    2.52
  -1   2  12    1.13    1.70
   0   2  12   16.74    2.65
   2   2 -12   11.48    1.28
   3   2 -12    2.06    0.88
   4   2 -12    0.22    0.80
   5   2 -12    2.20    0.90
   8  -2 -12   13.87    1.48
  -7   3   0    0.30    0.94
  -6   3   0  124.34    8.17
  -5   3   0    0.41    0.72
  -4  -3   0    0.45    0.26
  -3  -3   0   -0.04    0.22
  -3  -3   0   -0.06    0.57
  -2  -3   0  242.53   14.19
  -2  -3   0  226.95   13.62
  -2  -3   0  214.53   13.57
  -1  -3   0    0.04    0.20
  -1  -3   0   -0.03    0.26
  -1  -3   0   -0.05    0.53
   0  -3   0  421.07   26.81
   0  -3   0  461.52   26.91
   0  -3   0  492.70   27.45
   1  -3   0   -0.24    0.58
   2  -3   0  318.70   20.06
   3   3   0    0.43    0.21
   3   3   0    0.62    0.26
   3  -3   0    0.60    0.77
   4  -3   0    0.66    0.30
   4   3   0    0.56    0.24
   4   3   0    0.54    0.22
   4   3   0    0.68    0.26
   4   3   0    0.81    0.68
   5  -3   0    0.25    0.34
   5   3   0    0.12    0.33
   5   3   0    0.08    0.26
   5   3   0    0.01    0.25
   6  -3   0   90.49    5.90
   6   3   0   99.79    5.88
   6   3   0   87.77    5.78
   6   3   0   99.05    5.82
   7   3   0    0.59    0.37
   7   3   0   -0.02    0.32
   7  -3   0    0.67    0.54
   7   3   0    0.03    0.45
   7   3   0   -0.42    0.79
   8  -3   0  133.22    8.34
   8   3   0  132.06    8.14
   8   3   0  122.18    8.24
   8   3   0  147.40    8.25
   9   3   0    0.48    0.51
   9   3   0    0.22    0.38
   9  -3   0   -0.08    0.69
   9   3   0    0.18    0.59
   9   3   0   -0.09    0.78
  10  -3   0   93.39    5.82
  10   3   0   88.91    5.52
  10   3   0   84.31    5.72
  11   3   0    0.83    1.05
  11   3   0    0.14    0.53
  11  -3   0   -0.53    0.82
  11   3   0   -0.05    0.74
  12  -3   0   10.45    1.35
  12   3   0    6.70    1.60
  12   3   0    8.15    0.96
  12   3   0    7.03    1.17
  13  -3   0   -0.27    0.87
  13   3   0   -0.14    0.64
  13   3   0   -0.30    0.81
  13   3   0   -0.62    1.23
  14   3   0    5.52    0.91
  14  -3   0    6.19    1.23
  14   3   0    6.15    1.14
  14   3   0    5.00    1.72
  15  -3   0    0.49    1.08
  15   3   0    1.15    1.00
  15   3   0   -0.29    0.77
  15   3   0   -0.71    1.54
  16   3   0   33.88    4.04
  16   3   0   43.48    3.14
  16  -3   0   46.15    3.48
  16   3   0   38.06    3.34
  17   3   0    0.07    1.15
  17   3   0   -0.49    0.94
  17  -3   0    0.89    1.17
  18   3   0   20.32    1.98
  19   3   0   -0.22    1.04
  -9   3  -1    1.70    0.60
  -8   3   1    7.15    1.42
  -8  -3  -1    5.23    0.80
  -8   3  -1    5.88    0.81
  -7  -3  -1   56.46    4.09
  -7   3   1   78.49    4.53
  -7  -3  -1   43.70    3.73
  -7   3  -1   65.34    3.80
  -6   3   1   18.81    1.80
  -6  -3  -1   14.25    1.50
  -6   3  -1   17.77    1.57
  -6   3  -1   15.95    1.23
  -5   3   1  319.82   19.06
  -5  -3  -1  279.31   19.08
  -5   3  -1  318.92   18.62
  -5  -3  -1  255.74   18.62
  -4   3  -1    8.20    0.69
  -4  -3  -1    6.08    0.68
  -4  -3  -1    6.48    0.59
  -4   3  -1    9.43    0.97
  -3  -3  -1  136.21    9.09
  -3  -3   1  143.96    9.11
  -3  -3  -1  141.79    9.06
  -3  -3   1  138.12    9.11
  -2   3  -1    6.33    0.50
  -2  -3   1    4.60    0.82
  -2  -3  -1    4.74    0.47
  -2  -3  -1    5.63    1.01
  -2  -3   1    5.13    0.55
  -2  -3   1    4.80    0.52
  -2  -3  -1    5.26    0.50
  -1  -3  -1   53.93    3.55
  -1   3  -1   61.17    3.44
  -1  -3   1   57.88    3.98
  -1  -3   1   52.74    3.55
  -1  -3  -1   49.98    3.46
  -1  -3   1   56.03    3.60
   0  -3  -1   23.63    1.69
   0  -3   1   29.67    1.80
   0  -3  -1   26.56    1.81
   0  -3   1   30.15    2.24
   0  -3   1   27.04    1.83
   1  -3   1   64.95    4.28
   1  -3  -1   59.31    3.70
   2   3  -1    4.71    0.53
   2  -3   1    5.80    0.89
   2  -3  -1    5.46    0.50
   2   3  -1    5.36    0.47
   3   3  -1  148.07    9.55
   3   3  -1  142.18    9.59
   3   3   1  152.54    9.49
   3  -3  -1  168.28    9.65
   3  -3   1  180.74   10.07
   3   3  -1  170.47    9.63
   4   3   1    7.50    0.59
   4   3  -1    7.73    0.70
   4   3  -1    7.46    0.66
   4   3   1    7.16    0.63
   4  -3  -1    8.48    0.78
   4   3  -1    7.68    0.76
   4  -3   1    9.64    1.08
   4   3  -1    5.87    1.02
   5   3  -1  296.54   18.15
   5  -3  -1  305.06   18.28
   5   3  -1  291.03   18.24
   5   3  -1  248.18   18.64
   5   3   1  316.22   18.10
   5   3   1  273.92   18.09
   5   3  -1  294.08   18.17
   6  -3  -1   13.40    1.23
   6   3  -1   14.16    1.25
   6   3  -1   11.66    1.57
   6  -3   1   17.83    1.49
   6   3  -1   13.96    1.11
   6   3   1   14.19    1.06
   6   3  -1   14.58    1.14
   6   3   1   12.89    1.02
   7  -3  -1   57.00    4.07
   7   3   1   55.98    3.83
   7   3  -1   56.25    4.05
   7   3   1   65.24    3.92
   7   3  -1   51.32    4.47
   7   3  -1   64.92    3.97
   7   3  -1   57.29    3.92
   8  -3  -1    6.12    0.90
   8  -3   1    8.09    1.00
   8   3  -1    4.47    1.12
   8   3  -1    5.16    0.85
   8   3   1    6.39    0.66
   8   3  -1    6.45    0.75
   8   3  -1    6.11    0.72
   9   3  -1    1.91    0.75
   9   3  -1    2.01    0.56
   9   3  -1    1.75    0.50
   9   3   1    1.76    0.44
   9  -3  -1    2.23    0.82
   9   3  -1    0.63    0.86
   9  -3   1    2.22    0.70
  10   3  -1    4.58    0.84
  10   3  -1    4.58    0.73
  10   3  -1    3.70    1.16
  10  -3   1    5.55    0.86
  10   3   1    4.93    0.64
  10  -3  -1    4.48    0.95
  10   3  -1    4.84    0.96
  11  -3  -1   94.30    6.56
  11   3  -1   87.92    6.51
  11   3  -1   73.70    6.91
  11   3  -1   93.06    6.32
  11   3   1   94.23    6.22
  11   3  -1  102.53    6.47
  12   3  -1    2.02    0.71
  12   3   1    2.02    0.61
  12   3  -1    1.75    0.80
  12   3  -1    1.38    0.86
  12   3  -1    2.38    1.23
  12  -3   1    2.60    0.64
  12  -3  -1    1.86    0.90
  13  -3   1   89.29    4.88
  13   3  -1   55.55    5.64
  13   3  -1   74.54    5.09
  13   3   1   68.46    4.94
  13   3  -1   80.76    5.28
  13  -3  -1   72.14    5.29
  13   3  -1   69.13    5.28
  14   3  -1   -0.50    1.03
  14   3  -1   -0.34    0.74
  14   3   1   -0.25    0.67
  14  -3  -1    0.24    1.01
  14   3  -1   -0.12    0.94
  14   3  -1    0.37    1.21
  15   3  -1   16.32    2.59
  15   3  -1   20.03    1.91
  15   3   1   19.80    1.79
  15  -3  -1   25.15    2.31
  15   3  -1   22.18    2.25
  15   3  -1   23.02    2.17
  16   3  -1    2.19    1.12
  16   3  -1    1.96    0.88
  16   3   1    3.09    0.83
  16  -3  -1    3.74    1.34
  16   3  -1    2.52    1.29
  16   3  -1    1.84    1.51
  17  -3  -1    1.17    1.25
  17   3  -1   -0.85    1.32
  17   3  -1   -0.32    0.99
  17   3   1    0.18    0.86
  17   3  -1   -0.07    1.18
  17   3  -1   -0.30    1.58
  18   3  -1    1.84    1.00
  18   3   1    0.90    0.86
  18   3  -1    0.82    1.92
 -13   3  -2   19.34    1.76
 -12  -3  -2    2.18    0.82
 -12   3  -2    3.66    0.85
 -11   3  -2   23.84    1.72
 -11  -3  -2   11.79    1.56
 -10   3  -2  122.05    6.53
 -10  -3  -2   78.10    6.47
  -9   3  -2    2.33    0.70
  -9  -3  -2    1.45    0.70
  -9   3   2    0.70    1.31
  -8  -3  -2  136.92    9.97
  -8  -3  -2  122.40    9.79
  -7  -3  -2   29.58    2.65
  -7   3  -2   35.02    2.35
  -7  -3  -2   26.13    2.38
  -6   3  -2   93.04    5.31
  -6  -3  -2   70.76    5.33
  -6  -3  -2   71.13    5.66
  -6   3   2   97.89    5.94
  -5  -3  -2   43.49    3.36
  -5  -3  -2   46.85    3.82
  -4  -3  -2    6.38    0.72
  -4  -3  -2    7.66    1.26
  -4   3  -2    8.29    0.70
  -4  -3   2    6.46    0.72
  -3  -3   2   27.26    1.99
  -3  -3  -2   29.23    1.91
  -3  -3  -2   25.81    1.96
  -3  -3   2   28.16    1.99
  -2   3  -2   69.02    5.00
  -2  -3  -2   71.87    4.59
  -2  -3   2   77.02    4.68
  -2  -3  -2   73.72    4.58
  -1  -3   2    0.87    0.30
  -1  -3  -2    1.18    0.27
  -1   3  -2    0.19    0.47
   0  -3   2  201.12   10.92
   0   3  -2  173.67   11.28
   0  -3  -2  172.15   10.72
   1   3  -2    1.47    0.59
   2   3  -2   80.52    5.17
   2  -3   2   83.16    5.23
   3   3  -2   30.13    2.07
   3   3   2   30.12    1.88
   3   3  -2   30.36    2.02
   4   3  -2    7.42    0.73
   4   3  -2    7.62    0.71
   4   3  -2    6.83    1.13
   4   3   2    8.03    0.58
   5   3  -2   54.45    3.44
   5   3   2   50.01    3.31
   5   3  -2   48.62    3.52
   5   3  -2   50.67    4.06
   5   3  -2   49.73    3.44
   5   3   2   57.04    3.33
   5  -3  -2   55.28    3.53
   6   3  -2   87.43    5.45
   6   3  -2   81.80    5.44
   6   3   2   77.38    5.29
   6   3  -2   82.05    6.10
   6  -3  -2   97.78    5.63
   6   3  -2   86.84    5.61
   6   3   2   93.66    5.37
   7   3  -2   28.15    2.84
   7  -3  -2   37.38    2.52
   7   3  -2   34.65    2.53
   7   3  -2   32.39    2.29
   7   3  -2   33.66    2.31
   7   3   2   30.45    2.11
   8   3  -2  138.62   10.58
   8  -3  -2  192.84   10.31
   8   3  -2  181.34   10.30
   8   3  -2  155.25    9.91
   8   3   2  147.41    9.73
   8   3  -2  164.21    9.95
   9   3  -2    2.48    0.60
   9   3  -2    2.19    0.62
   9   3   2    2.02    0.42
   9   3  -2    2.59    1.13
   9  -3  -2    2.76    0.96
   9   3  -2    2.10    0.97
  10  -3  -2  131.76    7.69
  10   3  -2  127.13    7.73
  10   3  -2  100.24    8.05
  10   3  -2  110.35    7.31
  10   3   2  110.24    7.13
  10   3  -2  114.20    7.37
  11  -3  -2   22.92    2.04
  11   3  -2   18.57    2.40
  11   3  -2   18.29    1.69
  11   3   2   18.55    1.48
  11   3  -2   20.57    1.78
  12   3  -2    4.81    0.94
  12  -3  -2    4.92    1.14
  12   3  -2    4.42    1.18
  12   3  -2    3.23    0.82
  12   3   2    4.15    0.62
  12   3  -2    2.62    1.36
  13  -3  -2   20.76    2.05
  13   3  -2   20.45    2.07
  13   3  -2   15.34    2.35
  13   3  -2   16.95    1.68
  13   3   2   16.87    1.46
  13   3  -2   20.46    1.87
  14   3  -2    8.98    1.37
  14  -3  -2    9.05    1.47
  14   3  -2    7.48    1.15
  14   3  -2    5.93    1.70
  14   3   2    8.03    0.95
  14   3  -2    9.75    1.57
  15   3  -2    1.62    1.09
  15   3  -2    1.98    0.98
  15   3   2    1.86    0.68
  15   3  -2    1.50    1.39
  15  -3  -2    2.14    1.20
  15   3  -2    1.49    1.24
  16   3  -2   23.17    3.07
  16   3  -2   24.68    2.33
  16   3   2   24.74    2.11
  16   3  -2   27.73    2.56
  16  -3  -2   30.70    2.70
  16   3  -2   34.00    2.86
  17   3  -2   -0.07    1.21
  17   3  -2   -0.59    1.00
  17   3   2   -0.16    0.78
  17  -3  -2    0.71    1.22
  17   3  -2    0.30    1.57
  17   3  -2    0.63    1.25
  18   3  -2   12.46    1.63
  18   3  -2    7.44    2.19
  19   3  -2    0.66    1.82
 -13   3  -3   36.09    2.52
 -13  -3  -3   23.57    2.54
 -12  -3  -3    1.09    0.95
 -12   3  -3    2.76    0.86
 -11   3  -3   32.02    2.32
 -11  -3  -3   20.09    2.22
 -10   3   3   43.55    3.53
 -10  -3  -3   30.72    2.75
 -10   3  -3   42.71    2.77
 -10  -3  -3   28.13    2.77
  -9   3  -3    0.68    0.62
  -9  -3  -3    0.48    0.75
  -9  -3  -3    1.07    0.72
  -9   3   3    0.96    1.37
  -8  -3  -3   42.21    3.56
  -8  -3  -3   45.76    3.84
  -7   3  -3   15.45    1.24
  -7  -3  -3   11.31    1.29
  -7  -3  -3   11.46    1.54
  -6  -3  -3   22.28    2.27
  -6   3   3   28.34    2.48
  -6   3  -3   27.25    1.79
  -6  -3  -3   20.20    1.81
  -5  -3  -3  109.47    7.96
  -5  -3  -3  102.01    7.30
  -4   3  -3    6.63    0.63
  -4  -3  -3    6.92    1.40
  -4  -3  -3    5.48    0.66
  -4  -3   3    5.93    0.70
  -3   3  -3  119.18    8.38
  -3  -3  -3  131.17    8.01
  -3  -3   3  136.00    8.19
  -2  -3  -3   67.75    4.22
  -2   3  -3   60.59    4.54
  -2  -3   3   71.44    4.37
  -1  -3   3   42.26    2.67
  -1  -3   3   41.25    2.68
  -1  -3  -3   38.25    2.55
  -1   3  -3   36.69    2.90
   0  -3   3  146.64    8.92
   0   3  -3  134.82    9.25
   0  -3   3  143.47    8.92
   1  -3   3   42.19    2.82
   1   3  -3   40.00    2.82
   1   3  -3   46.03    3.29
   1  -3   3   44.86    2.87
   2  -3   3   75.98    4.73
   2   3  -3   72.10    4.70
   2   3  -3   71.00    5.14
   3   3  -3  135.68    9.05
   3  -3   3  159.07    9.14
   4   3  -3    6.49    0.68
   4  -3   3    6.13    0.75
   4   3   3    6.56    0.46
   4   3  -3    6.21    0.70
   5   3  -3  117.84    7.17
   5   3  -3  111.48    7.78
   5   3  -3  110.21    7.17
   6   3  -3   26.96    1.93
   6   3  -3   26.95    2.50
   6   3  -3   25.58    1.93
   7   3  -3   15.45    1.34
   7   3  -3   15.81    1.34
   7   3   3   16.27    1.10
   7   3  -3   14.35    1.84
   8   3  -3   50.99    4.33
   8   3  -3   56.67    3.70
   8   3  -3   55.36    3.69
   8  -3  -3   59.44    3.85
   8   3  -3   54.01    3.87
   8   3   3   52.01    3.40
   9  -3  -3    0.84    0.79
   9   3  -3    0.82    0.65
   9   3  -3    1.03    0.53
   9   3   3    1.21    0.30
   9   3  -3    0.79    0.98
   9   3  -3    0.55    0.82
  10   3  -3   33.98    3.44
  10  -3  -3   46.87    3.13
  10   3  -3   44.59    3.20
  10   3  -3   37.31    2.74
  10   3   3   34.94    2.43
  10   3  -3   36.78    2.77
  11   3  -3   26.99    2.98
  11  -3  -3   39.06    2.83
  11   3  -3   39.94    3.06
  11   3  -3   28.53    2.28
  11   3   3   26.93    1.98
  11   3  -3   28.34    2.32
  12   3  -3    2.30    0.83
  12   3  -3    1.05    0.72
  12   3   3    2.37    0.48
  12   3  -3    4.20    1.47
  12  -3  -3    3.30    1.21
  12   3  -3    3.90    1.34
  13  -3  -3   46.26    3.22
  13   3  -3   44.25    3.36
  13   3  -3   31.92    3.56
  13   3  -3   33.36    2.73
  13   3   3   32.55    2.39
  13   3  -3   33.49    2.78
  14   3  -3    4.35    1.07
  14   3  -3    3.72    1.03
  14  -3  -3    7.73    1.43
  14   3   3    4.46    0.69
  14   3  -3    6.81    1.57
  14   3  -3    3.92    1.66
  15   3  -3   17.67    2.76
  15   3  -3   20.73    2.30
  15   3  -3   18.44    1.89
  15   3   3   17.14    1.51
  15   3  -3   17.57    1.95
  16   3  -3   19.25    2.40
  16  -3  -3   19.24    2.20
  16   3  -3   13.70    2.57
  16   3  -3   13.75    1.74
  16   3  -3   13.06    1.80
  17   3  -3   -0.71    1.12
  17   3  -3    0.16    1.56
  17  -3  -3    1.05    1.28
  17   3  -3   -0.09    1.40
  18   3  -3    6.89    2.27
 -12   3  -4    0.10    0.87
 -12  -3  -4    0.48    0.96
 -11  -3  -4   18.50    2.11
 -11  -3  -4   21.95    2.14
 -10   3  -4   37.59    2.61
 -10  -3  -4   28.85    2.66
 -10  -3  -4   31.26    2.80
  -9  -3  -4    2.04    0.79
  -9  -3  -4    1.56    0.85
  -9   3   4    2.57    1.51
  -9   3  -4    2.34    0.72
  -8  -3  -4   28.41    2.84
  -8   3   4   42.85    3.40
  -8   3  -4   40.53    2.51
  -8  -3  -4   28.14    2.53
  -7  -3  -4   15.29    1.92
  -7   3   4   23.27    2.31
  -7   3  -4   20.75    1.50
  -7  -3  -4   14.74    1.50
  -6  -3  -4   20.57    2.30
  -6   3   4   22.48    2.24
  -6   3  -4   22.06    1.55
  -6  -3  -4   17.30    1.59
  -5   3  -4  106.49    5.99
  -5   3  -4   87.39    6.15
  -5  -3  -4   87.39    6.03
  -5  -3   4   91.56    6.04
  -4   3  -4   10.88    1.16
  -4  -3   4   13.09    1.09
  -3   3  -4  120.65    7.89
  -3  -3  -4  119.30    7.46
  -3  -3   4  138.38    7.75
  -2  -3  -4   32.56    2.23
  -2   3  -4   38.55    2.74
  -2  -3   4   39.58    2.44
  -2  -3   4   38.68    2.47
  -1   3  -4   28.20    2.51
  -1  -3   4   30.97    2.28
  -1   3  -4   36.30    2.15
  -1  -3   4   31.29    2.27
   0  -3   4  111.75    6.92
   0   3  -4  106.46    7.24
   0  -3   4  108.64    6.90
   1  -3   4   32.55    2.27
   1   3  -4   31.33    2.63
   1  -3   4   33.31    2.27
   2  -3   4   40.10    2.36
   2   3  -4   36.59    2.32
   2   3  -4   39.88    2.85
   3  -3   4  147.91    8.83
   3   3  -4  134.26    8.79
   4   3  -4   14.31    1.16
   4  -3   4   15.42    1.24
   4   3  -4   12.70    1.15
   5   3  -4  106.54    6.69
   5  -3   4  115.97    6.76
   5   3  -4   95.42    6.68
   6   3  -4   22.51    1.75
   6   3  -4   23.28    1.78
   7   3  -4   16.98    1.45
   7   3  -4   17.69    1.49
   8   3  -4   39.01    2.78
   8   3  -4   38.26    2.80
   9   3   4    1.80    0.27
   9   3  -4    2.25    0.69
   9   3  -4    1.34    0.65
  10   3   4   34.76    2.33
  10   3  -4   37.14    2.76
  10   3  -4   37.38    3.55
  10   3  -4   34.00    2.70
  10   3  -4   38.87    3.05
  11   3  -4   23.89    2.86
  11  -3  -4   33.33    2.49
  11   3  -4   33.53    2.73
  11   3  -4   25.78    2.17
  11   3   4   24.66    1.74
  11   3  -4   28.07    2.26
  12   3  -4    0.10    0.77
  12  -3  -4    0.19    1.04
  12   3  -4    0.38    0.77
  12   3   4    0.35    0.33
  12   3  -4    0.24    1.20
  12   3  -4    0.53    1.27
  13   3  -4   37.79    4.02
  13  -3  -4   60.91    3.85
  13   3  -4   67.89    4.28
  13   3  -4   39.25    3.17
  13   3   4   37.46    2.72
  13   3  -4   44.11    3.28
  14   3  -4    4.64    1.14
  14   3  -4    5.34    1.14
  14   3  -4    4.75    1.78
  14  -3  -4    7.37    1.61
  14   3  -4    5.84    1.68
  14   3   4    4.53    0.63
  15  -3  -4   24.75    2.38
  15   3  -4   23.43    2.57
  15   3  -4   13.99    2.66
  15   3  -4   15.93    1.88
  15   3  -4   15.73    1.90
  16   3  -4   16.72    2.32
  16   3  -4   11.04    1.62
  16   3  -4    9.99    2.38
  16  -3  -4   17.18    2.06
  16   3  -4   12.55    1.71
  17   3  -4   -0.18    1.92
 -12  -3  -5    2.94    0.93
 -11   3  -5   13.33    1.32
 -11  -3  -5    9.46    1.36
 -11  -3  -5   10.26    1.46
 -10  -3  -5   52.96    4.36
 -10  -3  -5   50.99    4.52
  -9  -3  -5    0.54    0.95
  -9   3  -5    0.76    0.60
  -9  -3  -5    0.09    0.70
  -9   3   5    1.05    1.44
  -8  -3  -5   96.63    8.45
  -8   3   5  154.85    9.05
  -8   3  -5  145.69    8.08
  -8  -3  -5  111.53    8.11
  -7  -3  -5    4.95    1.39
  -7   3  -5    7.61    0.88
  -7  -3  -5    6.22    0.93
  -6   3  -5   29.63    2.46
  -6  -3  -5   31.55    2.52
  -6   3   5   36.11    3.18
  -5   3  -5   24.90    1.93
  -5  -3   5   24.31    1.87
  -4   3  -5    2.18    0.61
  -3   3  -5   12.87    1.31
  -2  -3  -5   63.59    4.07
  -2   3  -5   72.10    4.63
  -2  -3   5   76.40    4.35
  -1  -3   5    2.04    0.47
   0  -3   5  111.70    7.06
   1  -3   5    2.06    0.50
   1   3  -5    3.03    0.68
   2   3  -5   70.05    4.12
   2  -3   5   77.78    3.96
   3   3  -5   11.53    1.33
   3  -3  -5   11.37    0.89
   4  -3  -5    1.86    0.33
   4   3  -5    1.86    0.80
   4  -3   5    2.56    0.55
   5   3  -5   27.94    1.88
   5  -3   5   29.40    1.90
   5   3  -5   21.68    2.06
   5  -3  -5   20.33    1.69
   5   3  -5   26.11    1.90
   6   3  -5   42.81    2.86
   6  -3   5   41.62    2.85
   6   3  -5   36.37    2.80
   7   3  -5    8.53    0.95
   7  -3   5    7.42    0.93
   7   3  -5    6.62    0.93
   8   3  -5  129.63    8.66
   8  -3   5  147.02    8.69
   8   3  -5  131.39    8.70
   9   3  -5    1.34    0.72
   9   3  -5    0.29    0.64
  10   3  -5   69.65    4.24
  10   3  -5   63.87    4.20
  11   3  -5   12.93    1.69
  11   3  -5   10.84    1.30
  11  -3  -5   14.23    1.56
  11   3  -5   10.98    1.36
  12   3   5    4.22    0.39
  12   3  -5    4.81    1.06
  12   3  -5    3.85    1.01
  12  -3  -5    6.14    1.21
  12   3  -5    6.10    1.47
  13   3  -5    6.06    1.26
  13   3  -5    6.87    1.99
  13   3  -5    8.59    1.71
  13   3  -5    9.18    1.32
  13  -3  -5    8.89    1.51
  14   3  -5   10.31    1.97
  14   3  -5    8.00    1.42
  14   3  -5    9.06    1.40
  14   3  -5   12.03    2.38
  14  -3  -5   13.65    1.94
  15   3  -5    0.77    1.08
  15   3  -5    1.93    1.02
  15   3  -5    2.66    1.86
  15  -3  -5    2.76    1.53
  15   3  -5    2.61    1.87
  16  -3  -5   23.88    2.62
  16   3  -5   27.68    3.03
 -13  -3  -6   30.77    2.63
 -12  -3  -6    0.54    0.78
 -11   3   6   43.98    3.86
 -11  -3  -6   32.61    3.03
 -10  -3  -6    0.32    0.82
 -10   3  -6    1.03    0.71
 -10  -3  -6    1.44    0.78
 -10   3   6    1.83    1.62
  -9   3  -6    2.23    0.82
  -9  -3  -6    1.39    0.89
  -9  -3  -6    1.37    1.06
  -9   3   6    2.13    1.61
  -8   3  -6    1.02    0.65
  -8  -3  -6    0.61    0.70
  -8  -3  -6    0.11    1.10
  -8   3   6    1.01    1.35
  -7   3  -6   24.27    2.02
  -7   3  -6   31.59    2.10
  -7  -3  -6   24.76    2.15
  -7   3   6   32.74    3.02
  -6   3  -6    5.06    0.74
  -6   3   6    6.37    1.56
  -5   3  -6  110.70    7.20
  -4   3  -6    1.62    0.60
  -3   3  -6  105.02    6.94
  -1  -3   6   18.50    1.48
   0  -3   6   10.45    0.98
   1   3  -6   18.89    1.52
   1  -3   6   19.13    1.50
   2  -3   6    0.34    0.45
   2   3  -6    0.50    0.48
   2   3  -6    1.49    0.85
   3   3  -6  107.26    5.93
   3  -3   6  112.81    5.60
   4  -3  -6    1.06    0.30
   4  -3   6    1.54    0.56
   4   3  -6    0.84    0.87
   4   3   6    1.84    0.19
   5  -3   6  134.83    7.44
   5   3   6  123.39    7.07
   5   3  -6  119.72    7.39
   5   3  -6  103.48    7.66
   5  -3  -6   89.16    7.19
   6  -3   6    6.72    0.81
   6   3  -6    6.35    0.84
   6  -3  -6    3.26    0.56
   6   3  -6    5.64    1.26
   7   3  -6   31.72    2.13
   7  -3   6   34.51    2.10
   7   3  -6   21.32    2.32
   7   3  -6   28.40    2.11
   7  -3  -6   19.19    1.83
   8   3  -6    0.40    1.00
   8  -3  -6    0.24    0.45
   8   3  -6    1.22    0.68
   8   3  -6    0.79    0.69
   8  -3   6    0.48    0.60
   9  -3  -6    0.90    0.54
   9   3  -6    1.48    0.76
   9   3  -6    1.92    0.84
   9   3  -6    1.42    1.02
   9  -3   6    2.49    0.75
  10   3  -6    1.28    0.78
  10   3  -6    0.38    0.76
  10  -3   6    2.06    0.77
  10   3  -6    0.59    1.07
  11   3  -6   37.76    3.01
  11   3  -6   39.95    3.02
  12  -3  -6    0.11    0.92
  12   3  -6    0.62    0.86
  12   3  -6    0.60    0.81
  13   3  -6   37.32    3.18
  13   3  -6   39.06    3.22
  13  -3  -6   45.32    3.43
  13   3  -6   45.49    3.75
  14   3  -6   -0.48    0.98
  14   3  -6    0.61    0.98
  14  -3  -6    0.71    1.16
  14   3  -6   -0.29    1.44
  15  -3  -6   12.82    1.98
  15   3  -6   16.69    2.47
 -13  -3  -7    0.98    0.92
 -12  -3  -7    4.45    1.16
 -11  -3  -7    0.08    0.91
 -11   3   7    0.37    1.62
 -10  -3  -7   22.60    2.60
 -10   3   7   40.53    3.69
  -9  -3  -7    0.20    0.75
  -9  -3  -7    0.11    1.20
  -9   3   7    0.83    1.51
  -8   3   7   67.49    4.88
  -8   3  -7   58.23    3.75
  -7   3  -7    0.38    0.49
  -7   3   7    0.21    1.27
  -6   3  -7   25.73    2.12
  -6   3   7   31.39    3.01
  -5   3  -7    0.38    0.56
  -4  -3   7    0.26    0.53
  -3  -3   7    4.12    0.74
  -2  -3   7   85.37    5.59
  -1  -3   7   -0.06    0.56
   0  -3   7  156.13    9.71
   0  -3   7  151.82    9.65
   1  -3   7    0.03    0.54
   1  -3   7   -0.16    0.46
   1   3  -7    0.42    0.52
   2  -3   7   85.54    5.27
   2   3  -7   75.04    5.22
   2  -3   7   79.67    5.18
   3  -3   7    4.28    0.73
   3  -3   7    2.73    0.61
   3   3  -7    3.25    0.67
   4   3   7    0.33    0.19
   4  -3  -7    0.36    0.31
   4  -3   7    0.11    0.49
   4   3  -7    0.74    0.62
   5   3   7    0.03    0.20
   5  -3  -7    0.06    0.30
   5  -3   7    0.77    0.54
   5   3  -7    0.43    0.59
   5   3  -7    0.93    1.05
   6   3   7   30.87    1.82
   6   3  -7   31.73    2.21
   6   3  -7   25.46    2.56
   6  -3   7   32.55    2.16
   7   3  -7   -0.07    0.97
   7  -3  -7    0.30    0.43
   7   3  -7    1.26    0.68
   7  -3   7    0.63    0.59
   8  -3   7   55.77    3.27
   8   3  -7   57.86    3.44
   8   3  -7   43.52    3.71
   8  -3  -7   34.98    3.08
   9  -3  -7    0.26    0.46
   9   3  -7   -0.04    0.72
   9  -3   7    0.41    0.66
   9   3  -7    0.85    1.25
  10   3  -7   33.34    2.22
  10   3  -7   31.54    2.26
  11  -3  -7   -0.08    0.57
  11   3  -7    0.96    0.87
  11   3  -7    1.22    0.92
  12  -3  -7    1.90    0.72
  12   3  -7    4.76    1.09
  12   3  -7    4.13    1.06
  13  -3  -7    0.38    0.70
  13   3  -7   -0.45    0.93
  13  -3  -7    0.31    1.02
  13   3  -7    1.15    1.02
  14  -3  -7    1.38    0.74
  14   3  -7    2.78    1.54
  14  -3  -7    4.01    1.26
  15  -3  -7    0.31    0.69
 -11  -3  -8   14.74    2.08
 -11   3   8   28.61    3.12
 -10  -3  -8    1.34    1.21
 -10   3   8    2.95    1.91
  -9  -3  -8   -0.25    1.45
  -8   3  -8    3.45    0.66
  -7   3  -8   18.86    1.62
  -6   3  -8    3.19    0.76
  -1  -3  -8    5.95    0.43
   1   3  -8    7.78    0.94
   1  -3   8    7.31    0.87
   2  -3   8    3.53    0.66
   2   3  -8    3.37    0.73
   3   3  -8   45.64    3.29
   3  -3   8   48.20    3.25
   4   3   8    0.36    0.24
   4  -3   8    0.27    0.56
   4   3  -8    0.63    0.62
   5   3  -8   58.35    3.92
   5  -3   8   65.69    3.85
   5   3   8   64.86    3.51
   6   3   8    3.83    0.41
   6  -3   8    3.72    0.74
   6   3  -8    4.73    0.88
   7   3   8   20.71    1.31
   7  -3   8   21.85    1.64
   7   3  -8   20.34    1.78
   8  -3  -8    3.18    0.67
   8   3  -8    5.29    0.95
   8   3  -8    4.26    0.96
   8   3  -8    4.08    1.49
   8  -3   8    6.68    0.91
   9  -3  -8    0.58    0.55
   9   3  -8    3.00    0.92
   9   3  -8    1.56    0.86
   9   3  -8    2.71    1.39
  10  -3  -8    1.21    0.62
  10   3  -8    4.96    1.02
  11   3  -8   22.45    1.81
  11  -3  -8   11.07    1.34
  12  -3  -8    0.60    0.60
  13  -3  -8   10.94    1.27
  14  -3  -8    0.43    0.65
  -8   3  -9   24.44    1.90
  -7   3  -9    6.81    1.00
  -7   3   9    9.64    2.03
  -6   3  -9   13.61    1.45
  -6   3   9   16.06    2.39
  -5   3   9   13.15    2.12
  -4   3   9    1.34    1.50
   0  -3  -9   30.48    1.98
   1  -3  -9    0.41    0.33
   1   3  -9    0.07    0.62
   2   3  -9   21.79    1.85
   3   3  -9   12.53    1.31
   4   3  -9   -0.51    0.68
   5   3  -9   14.28    1.48
   6   3  -9   16.39    1.40
   6  -3  -9    7.97    0.89
   7  -3  -9    4.84    0.73
   7   3  -9    8.86    1.17
   8  -3  -9   16.77    1.58
   8   3  -9   30.94    2.12
   9  -3  -9    0.03    0.50
   9   3  -9    1.53    0.97
  10  -3  -9    9.18    1.08
  11  -3  -9    2.42    0.75
  12  -3  -9    0.39    0.68
  13  -3  -9    1.64    0.75
  -7   3 -10    3.99    0.89
  -6   3  10    6.64    1.93
  -5   3  10   17.70    2.60
  -4   3  10    1.41    1.47
  -3   3  10   17.54    2.39
   0  -3 -10   16.65    1.12
   1  -3 -10    2.61    0.43
   2   3 -10   15.73    1.45
   2  -3 -10   12.57    1.08
   3   3 -10   19.51    1.79
   4   3 -10    0.04    0.77
   5   3 -10   15.57    1.57
   6   3 -10    3.68    1.01
   7   3 -10    2.82    0.95
   8  -3 -10    6.11    0.80
   9  -3 -10    0.31    0.59
  10  -3 -10    3.04    0.71
  -2   3  11    3.13    1.69
   2   3 -11    4.86    0.94
   3   3 -11   16.66    1.64
   4   3 -11    0.61    0.88
  -8   4   0  177.48   11.55
  -7   4   0    0.11    0.90
  -6   4   0  133.42    8.75
  -4  -4   0    2.10    0.43
  -4  -4   0    1.94    0.81
  -3  -4   0    0.75    0.40
  -3  -4   0    0.29    0.80
  -2  -4   0  160.57    9.36
  -2  -4   0  135.39    9.26
  -1  -4   0    0.02    0.29
  -1  -4   0    0.24    0.35
  -1  -4   0    0.08    0.81
   0  -4   0  408.10   27.74
   0  -4   0  494.39   27.87
   1  -4   0   -0.05    0.28
   1  -4   0   -0.15    0.82
   1  -4   0    0.03    0.39
   2  -4   0  239.86   15.46
   3  -4   0    0.08    0.93
   4  -4   0    2.41    0.99
   5   4   0    0.22    0.32
   5   4   0    1.03    0.42
   5  -4   0    0.25    0.98
   6   4   0  116.91    7.41
   6   4   0  111.07    7.45
   7   4   0    0.02    0.40
   7   4   0    0.34    0.40
   7  -4   0    0.26    1.12
   8   4   0  128.08    8.62
   8   4   0  136.71    8.65
   8  -4   0  133.45    8.74
   8   4   0  137.99    8.64
   9  -4   0    0.47    0.67
   9   4   0    0.35    0.54
   9  -4   0   -0.50    1.15
   9   4   0   -0.08    0.53
   9   4   0    0.07    0.46
  10  -4   0   87.07    5.80
  10   4   0   83.55    5.69
  10   4   0   76.95    5.58
  10   4   0   90.95    5.69
  11  -4   0    0.22    0.80
  11   4   0   -0.11    0.64
  11   4   0    0.27    0.61
  11   4   0   -0.17    0.55
  11  -4   0    0.08    1.13
  12  -4   0    5.35    1.06
  12   4   0    6.60    0.95
  12   4   0    4.27    0.82
  12   4   0    6.52    1.08
  12  -4   0    8.58    1.52
  13  -4   0    0.05    0.82
  13   4   0    1.19    0.84
  13   4   0   -0.26    0.78
  13   4   0    0.38    0.66
  14   4   0    7.95    1.30
  14   4   0    8.02    1.07
  14   4   0    9.04    1.28
  15   4   0   -0.47    0.98
  15   4   0    0.33    0.72
  16   4   0   30.17    2.52
  16   4   0   33.69    2.78
  17   4   0   -0.43    1.15
  17   4   0   -0.05    0.86
  -9   4   1    5.68    1.37
  -8   4   1   12.77    1.78
  -7   4  -1   79.33    4.66
  -7   4   1   64.87    4.68
  -6  -4  -1    9.10    1.43
  -6   4  -1   13.61    1.41
  -6   4   1   11.65    1.50
  -5   4  -1  281.79   17.54
  -4  -4   1    2.55    0.49
  -4  -4  -1    2.46    0.43
  -3  -4   1  189.86   12.39
  -3  -4  -1  235.24   13.30
  -3  -4   1  200.62   12.41
  -3  -4  -1  204.13   12.38
  -2  -4   1    8.00    1.22
  -2  -4   1    7.79    0.80
  -2  -4  -1    7.60    0.75
  -2  -4   1    8.03    0.75
  -1  -4   1   31.85    2.27
  -1  -4  -1   30.40    2.17
  -1  -4  -1   34.98    2.31
  -1  -4   1   42.96    2.98
  -1  -4  -1   48.71    3.41
  -1  -4   1   36.71    2.37
   0  -4  -1   19.38    1.53
   0  -4   1   26.35    1.76
   0  -4   1   23.05    1.64
   0  -4  -1   24.99    1.72
   0  -4   1   32.92    2.39
   0  -4  -1   31.87    2.71
   1  -4  -1   29.65    2.24
   1  -4   1   34.40    2.35
   1  -4   1   40.30    2.50
   1  -4  -1   36.42    2.45
   1  -4   1   50.27    3.19
   1  -4  -1   60.22    3.88
   2  -4   1    8.61    0.98
   2  -4   1   11.69    1.47
   2  -4  -1   14.44    2.03
   3  -4  -1  216.60   13.94
   3   4  -1  232.37   13.91
   4   4  -1    2.96    0.52
   4  -4  -1    2.43    0.45
   4  -4   1    4.29    0.99
   4   4  -1    3.37    0.40
   5   4   1  242.02   15.07
   5   4  -1  245.72   15.14
   5   4  -1  231.09   15.20
   5   4  -1  205.83   15.97
   5  -4  -1  252.72   15.19
   5   4  -1  252.32   15.13
   6   4   1    9.99    0.80
   6   4  -1   10.44    0.90
   6   4  -1    9.77    0.94
   6   4   1    8.58    0.84
   6   4  -1    7.64    1.56
   6  -4  -1    9.60    0.96
   6   4  -1    9.90    0.91
   7   4   1   57.52    3.58
   7   4  -1   52.08    3.67
   7   4  -1   55.34    3.64
   7   4   1   52.35    3.59
   7   4  -1   42.12    4.32
   7  -4  -1   56.22    3.74
   7   4  -1   56.20    3.69
   8   4  -1    9.05    0.91
   8   4   1    7.81    0.81
   8   4  -1    9.10    1.68
   8  -4  -1    9.03    1.05
   8   4  -1    8.78    0.99
   8   4   1    9.35    0.87
   8   4  -1    7.62    0.88
   9   4   1    6.42    0.73
   9  -4   1    7.82    1.18
   9   4  -1    3.06    1.24
   9  -4  -1    6.33    0.95
   9   4  -1    6.53    0.89
   9   4   1    5.83    0.74
   9   4  -1    5.24    0.77
   9   4  -1    6.22    0.82
  10   4   1    4.37    0.69
  10   4  -1    3.85    0.80
  10   4  -1    4.14    0.73
  10   4   1    3.74    0.62
  10  -4  -1    4.59    0.98
  10   4  -1    3.83    0.88
  10  -4   1    5.31    1.03
  10   4  -1    3.12    1.40
  11  -4   1  111.89    5.65
  11   4  -1   53.90    6.00
  11  -4  -1   89.29    5.60
  11   4  -1   77.87    5.45
  11   4  -1   73.71    5.28
  11   4   1   85.60    5.32
  11   4   1   71.86    5.17
  11   4  -1   85.65    5.39
  12   4   1    1.40    0.71
  12   4  -1    0.69    1.25
  12   4  -1    2.19    0.81
  12   4  -1    1.64    0.68
  12  -4  -1    0.69    0.96
  12   4   1    1.55    0.58
  12   4  -1    2.87    0.97
  12  -4   1    1.81    0.84
  13  -4  -1   62.98    4.47
  13   4  -1   64.24    4.48
  13   4  -1   59.17    4.22
  13   4   1   56.26    4.08
  13   4   1   70.12    4.38
  13   4  -1   67.48    4.37
  14   4   1    0.10    0.91
  14   4  -1    0.40    0.89
  14  -4  -1   -0.23    1.05
  14   4  -1    0.50    0.95
  14   4  -1    0.39    0.76
  14   4   1    0.39    0.64
  14   4  -1    0.67    1.63
  15   4  -1   12.01    2.72
  15  -4  -1   15.39    1.90
  15   4  -1   16.66    1.86
  15   4  -1   16.48    1.64
  15   4   1   15.65    1.50
  15   4   1   20.08    1.89
  15   4  -1   15.69    1.76
  16   4   1    1.21    1.08
  16   4  -1    1.99    1.14
  16  -4  -1    2.36    1.30
  16   4  -1    2.80    1.26
  16   4  -1    2.05    0.93
  16   4   1    2.14    0.84
  16   4  -1    1.29    1.81
  17   4   1   -0.19    1.23
  17  -4  -1    0.74    1.34
  17   4  -1    0.84    1.35
  17   4  -1   -0.82    1.08
  17   4  -1    0.37    0.97
  18   4  -1    0.28    1.03
 -10   4  -2   85.87    5.87
 -10   4   2  105.52    6.73
  -9  -4  -2    0.71    0.66
  -9  -4  -2    1.69    0.88
  -9   4   2    0.08    1.27
  -9   4  -2    1.17    0.63
  -8  -4  -2  122.86    9.25
  -8   4   2  166.16    9.48
  -8   4  -2  163.05    8.83
  -8  -4  -2  114.05    8.80
  -7  -4  -2   18.36    2.05
  -7   4  -2   19.70    1.50
  -7   4   2   22.01    2.15
  -7  -4  -2   15.02    1.52
  -6  -4  -2   71.97    6.01
  -6   4  -2   90.69    5.43
  -6  -4  -2   70.95    5.43
  -6   4   2   79.26    5.86
  -5  -4  -2   61.99    5.17
  -5   4  -2   78.27    4.58
  -5  -4  -2   57.96    4.55
  -5   4  -2   83.24    4.74
  -4  -4   2    2.05    0.50
  -4  -4   2    3.12    0.53
  -4  -4  -2    2.35    0.40
  -4   4  -2    3.17    0.53
  -4  -4  -2    2.77    0.55
  -3   4  -2   44.48    2.47
  -3  -4  -2   40.48    2.52
  -3  -4   2   33.56    2.53
  -3  -4  -2   35.13    2.45
  -3  -4   2   31.10    2.51
  -2   4  -2  120.81    6.56
  -2  -4  -2  106.80    6.58
  -2  -4  -2  131.54    7.92
  -2  -4   2  102.33    6.73
  -2  -4   2   94.17    6.69
  -2  -4  -2   93.09    6.62
  -1  -4   2    5.71    0.66
  -1  -4  -2    5.13    0.60
  -1   4  -2    6.51    0.49
  -1  -4   2    6.75    0.73
  -1  -4  -2    5.56    0.49
   0  -4   2  205.53   11.49
   0  -4  -2  206.60   11.49
   0   4  -2  179.81   12.09
   0  -4  -2  167.18   11.26
   0  -4   2  216.38   11.56
   1  -4  -2    4.44    0.41
   1  -4   2    5.37    0.64
   1   4  -2    4.76    1.13
   2   4  -2   88.23    7.46
   2  -4  -2  115.16    6.85
   3   4  -2   36.43    2.83
   3  -4  -2   41.72    2.80
   4   4  -2    3.03    0.56
   4   4  -2    3.40    0.57
   4  -4  -2    3.37    0.63
   5   4   2   62.32    3.98
   5   4  -2   56.75    4.16
   5   4  -2   60.97    4.12
   5  -4   2   82.47    4.69
   5  -4  -2   75.64    4.35
   5   4  -2   46.45    4.72
   5   4  -2   78.38    4.34
   6   4   2   81.16    5.20
   6   4  -2   74.38    5.36
   6   4  -2   82.64    5.35
   6  -4   2  106.45    5.83
   6  -4  -2   95.91    5.56
   6   4  -2   98.88    5.59
   6   4  -2   60.59    5.95
   7   4  -2   16.90    1.41
   7   4  -2   17.69    1.40
   7   4   2   14.59    1.24
   7  -4  -2   20.78    1.63
   7   4  -2   19.57    1.61
   7  -4   2   22.35    1.75
   7   4  -2   12.88    1.97
   7   4   2   17.62    1.25
   8   4  -2  141.51    8.84
   8   4   2  127.49    8.68
   8  -4  -2  159.24    9.07
   8   4  -2  161.02    9.07
   8   4  -2  107.47    9.52
   8   4   2  149.77    8.73
   8   4  -2  135.00    8.86
   9  -4  -2    0.65    0.79
   9   4   2    1.89    0.50
   9   4  -2    1.35    0.77
   9   4  -2    1.05    0.59
   9   4  -2    1.01    0.60
   9   4   2    1.01    0.41
   9   4  -2    0.90    1.06
  10   4   2   71.52    5.01
  10  -4  -2   92.94    5.56
  10   4  -2   88.54    5.47
  10   4  -2   74.39    5.21
  10   4   2   87.04    5.15
  10   4  -2   84.75    5.29
  11   4   2   20.43    1.55
  11  -4  -2   23.56    2.02
  11   4  -2   23.13    2.05
  11   4  -2   19.81    1.76
  11   4   2   23.13    1.75
  11   4  -2   20.30    1.82
  12   4   2    2.62    0.78
  12   4  -2    2.74    0.91
  12   4  -2    3.22    0.82
  12   4   2    2.69    0.58
  12   4  -2    0.55    1.32
  12  -4  -2    2.43    1.04
  12   4  -2    4.25    1.16
  13   4  -2    8.71    2.12
  13   4  -2   13.01    1.43
  13   4   2   13.49    1.44
  13   4   2   12.49    1.17
  13  -4  -2   15.78    1.72
  13   4  -2   15.89    1.60
  13   4  -2   13.64    1.65
  14   4  -2    6.45    1.14
  14   4  -2    6.20    2.01
  14   4  -2    8.96    1.45
  14   4   2    9.88    1.29
  14  -4  -2   10.12    1.55
  14   4   2    8.48    0.95
  14   4  -2    9.53    1.33
  15   4   2    2.11    1.04
  15   4  -2    3.33    1.12
  15   4  -2    2.46    0.99
  15   4   2    2.78    0.73
  15  -4  -2    2.89    1.20
  15   4  -2    2.97    1.34
  15   4  -2    2.52    1.78
  16   4  -2   14.09    2.89
  16   4  -2   18.63    2.08
  16  -4  -2   28.21    2.55
  16   4  -2   25.56    2.50
  16   4   2   21.96    2.18
  16   4  -2   23.68    2.27
  17   4   2   -1.16    1.26
  17   4  -2    0.29    0.96
  17  -4  -2    0.89    1.37
  17   4  -2    0.47    1.39
  17   4  -2    0.72    1.83
 -13  -4  -3   19.78    2.01
 -12  -4  -3    1.15    0.85
 -12   4  -3    1.53    0.83
 -11   4   3   34.27    3.01
 -11   4  -3   28.96    2.23
 -10   4   3   38.35    3.21
 -10  -4  -3   25.94    2.57
 -10   4  -3   33.77    2.33
 -10  -4  -3   22.34    2.33
  -9   4  -3    1.42    0.75
  -9  -4  -3    0.92    0.79
  -9  -4  -3    2.32    1.05
  -9   4   3    0.68    1.23
  -8  -4  -3   55.91    4.97
  -8   4  -3   75.94    4.53
  -8  -4  -3   57.00    4.60
  -8   4   3   78.23    5.20
  -7   4  -3   13.36    1.17
  -7  -4  -3    8.64    1.20
  -7  -4  -3    9.59    1.61
  -7   4   3   14.71    1.77
  -6  -4  -3   22.74    2.02
  -6  -4  -3   23.76    2.59
  -5   4  -3  129.98    7.41
  -5  -4  -3  127.84    8.44
  -4  -4   3    1.03    0.49
  -4  -4  -3    1.58    0.32
  -4   4  -3    1.40    0.40
  -4  -4  -3    1.70    1.18
  -4  -4  -3    1.10    0.44
  -4   4  -3    2.07    0.50
  -3  -4   3  116.32    7.44
  -3   4  -3  137.25    7.32
  -3  -4  -3  113.24    7.38
  -3  -4  -3  109.42    7.28
  -3  -4   3  109.47    7.43
  -2   4  -3   73.99    5.05
  -2  -4  -3   67.75    4.40
  -2  -4   3   74.99    4.56
  -2  -4  -3   66.60    4.37
  -1  -4   3   38.05    2.55
  -1  -4  -3   34.78    2.43
  -1   4  -3   38.91    3.07
   0  -4   3  128.70    7.98
   0   4  -3  120.97    8.48
   1  -4   3   38.73    2.57
   1   4  -3   31.39    2.97
   2  -4   3   78.55    4.91
   2   4  -3   66.36    5.33
   3   4  -3  113.67    7.53
   3   4  -3  101.22    8.08
   4   4  -3    1.52    0.51
   4  -4   3    2.03    0.64
   5  -4  -3  127.18    7.70
   5   4  -3  113.08    7.68
   5   4  -3  115.36    7.61
   5  -4   3  138.19    7.87
   6   4   3   26.77    1.75
   6   4  -3   24.26    2.02
   6   4  -3   27.83    2.01
   6   4  -3   21.19    2.58
   6  -4  -3   31.17    2.17
   6   4  -3   32.54    2.21
   7   4  -3   11.83    1.11
   7   4  -3    9.18    1.67
   7  -4  -3   14.22    1.35
   7   4  -3   13.41    1.37
   7   4   3   11.60    0.88
   7   4  -3    9.53    1.08
   8   4  -3   66.55    4.55
   8   4  -3   55.03    5.29
   8  -4  -3   87.16    4.95
   8   4  -3   81.02    4.91
   8   4   3   67.59    4.36
   8   4  -3   62.70    4.57
   9   4   3    1.10    0.45
   9   4  -3    1.16    0.67
   9   4  -3    1.39    0.61
   9   4  -3    1.22    1.19
   9   4   3    1.82    0.38
   9  -4  -3    1.54    0.97
   9   4  -3    1.70    1.03
  10   4  -3   29.90    2.34
  10   4   3   27.59    2.03
  10  -4  -3   36.47    2.70
  10   4  -3   26.92    3.13
  10   4   3   32.57    2.20
  10   4  -3   27.97    2.33
  11   4  -3   28.93    2.28
  11   4   3   25.51    1.90
  11  -4  -3   30.50    2.52
  11   4  -3   22.56    2.99
  11   4   3   30.79    2.13
  11   4  -3   25.62    2.22
  12   4  -3    1.96    0.89
  12  -4  -3    2.43    1.11
  12   4  -3    3.85    1.27
  12   4  -3    1.35    0.79
  12   4   3    2.03    0.47
  12   4  -3    1.58    1.53
  13   4   3   25.58    1.95
  13  -4  -3   33.73    2.67
  13   4  -3   34.35    2.75
  13   4  -3   20.32    3.14
  13   4  -3   27.10    2.32
  13   4  -3   28.84    2.40
  14   4  -3    6.33    1.48
  14   4  -3    4.32    1.14
  14   4  -3    5.02    1.15
  14   4  -3    6.46    2.05
  14  -4  -3    8.82    1.49
  15  -4  -3   17.17    2.02
  15   4  -3   16.16    2.04
  15   4  -3   10.89    2.54
  15   4  -3   12.01    1.58
  15   4  -3   13.59    1.80
  16   4  -3    8.76    2.37
  16  -4  -3   13.01    1.88
  16   4  -3   12.36    1.95
  16   4  -3   11.33    1.52
 -12   4  -4    0.65    0.86
 -12  -4  -4   -0.88    1.06
 -11  -4  -4   20.14    2.47
 -11   4  -4   34.86    2.45
 -11  -4  -4   25.06    2.57
 -11   4   4   36.09    3.24
 -10  -4  -4   16.76    2.15
 -10   4  -4   25.81    1.96
 -10  -4  -4   17.32    2.04
 -10   4   4   27.50    2.76
  -9   4  -4    4.33    0.86
  -9  -4  -4    3.14    0.93
  -9  -4  -4    2.73    1.16
  -9   4   4    5.40    1.51
  -8   4  -4   42.60    2.75
  -8  -4  -4   32.40    2.85
  -8  -4  -4   33.21    3.30
  -8   4   4   44.67    3.49
  -7   4  -4   19.65    1.49
  -7  -4  -4   14.97    1.58
  -7  -4  -4   15.08    2.06
  -7   4   4   18.97    2.14
  -6  -4  -4   14.14    2.06
  -6   4  -4   17.22    1.30
  -6  -4  -4   13.14    1.36
  -5  -4  -4  115.26    7.58
  -5   4  -4  117.67    6.20
  -5  -4  -4   79.80    6.21
  -5  -4   4   87.91    6.25
  -4  -4   4    2.08    0.58
  -4   4  -4    2.80    0.51
  -4  -4  -4    1.83    0.53
  -4  -4  -4    1.58    1.37
  -3   4  -4  122.30    8.08
  -3  -4  -4  115.96    7.44
  -3  -4   4  132.77    7.70
  -2   4  -4   36.92    3.00
  -2  -4  -4   35.15    2.43
  -1  -4   4   26.13    1.82
  -1  -4  -4   21.44    1.62
  -1   4  -4   24.54    2.18
   0  -4   4   75.38    4.96
   0   4  -4   73.14    5.42
   0  -4   4   78.02    4.98
   1  -4   4   27.19    2.04
   1   4  -4   24.90    2.44
   1  -4   4   28.74    2.06
   2  -4   4   42.50    2.96
   2   4  -4   41.46    2.94
   2   4  -4   44.16    3.57
   2  -4   4   44.30    2.99
   3  -4   4  147.56    8.91
   3   4  -4  134.96    8.84
   3   4  -4  138.57    9.54
   4   4  -4    3.13    1.14
   4  -4   4    3.08    0.70
   4   4  -4    2.75    0.64
   5   4  -4   94.01    6.60
   5  -4   4  117.14    6.77
   6   4  -4   14.56    1.41
   6   4   4   16.41    1.05
   6   4  -4   14.93    1.35
   7   4  -4   19.35    1.64
   7  -4   4   24.03    1.82
   7   4  -4   19.06    2.46
   7   4   4   19.98    1.34
   7   4  -4   18.78    1.66
   8   4  -4   41.55    2.94
   8   4  -4   35.71    3.78
   8  -4  -4   43.57    3.07
   8   4   4   40.77    2.65
   8   4  -4   38.49    2.95
   8   4  -4   45.42    3.22
   9   4   4    3.01    0.52
   9   4  -4    4.72    1.20
   9   4  -4    3.24    0.78
   9   4  -4    3.44    0.82
   9   4  -4    3.48    1.57
   9  -4  -4    3.11    0.90
  10   4  -4   23.32    1.98
  10   4  -4   20.88    2.90
  10  -4  -4   25.10    2.25
  10   4  -4   28.90    2.49
  10   4  -4   21.68    1.97
  11   4  -4   26.18    2.39
  11   4  -4   25.51    3.38
  11  -4  -4   42.32    3.00
  11   4  -4   41.23    3.17
  11   4  -4   26.01    2.36
  12   4  -4    0.33    0.82
  12   4  -4    0.78    0.80
  12   4  -4   -0.16    1.40
  12  -4  -4    0.28    1.19
  12   4  -4    1.02    1.32
  13   4  -4   33.96    2.94
  13  -4  -4   44.04    3.37
  13   4  -4   34.66    4.05
  13   4  -4   32.64    2.90
  14   4  -4    3.50    1.19
  14  -4  -4    5.36    1.45
  14   4  -4    4.78    1.56
  14   4  -4    4.80    1.11
  14   4  -4    2.81    2.05
  15  -4  -4   13.97    1.84
  15   4  -4   11.32    1.62
  15   4  -4    8.52    2.30
  15   4  -4   10.26    1.53
  16  -4  -4    8.16    1.77
  16   4  -4   11.75    2.07
 -12   4   5    2.91    1.64
 -11   4  -5    8.66    1.13
 -11   4   5   11.73    2.08
 -10   4  -5   62.79    3.64
 -10  -4  -5   36.69    3.65
 -10  -4  -5   43.79    4.04
 -10   4   5   63.39    4.60
  -9   4  -5    1.04    0.68
  -9  -4  -5   -0.05    0.79
  -9  -4  -5    0.49    1.00
  -9   4   5   -0.28    1.30
  -8  -4  -5   69.04    5.84
  -8  -4  -5   75.33    6.45
  -8   4   5  104.28    6.66
  -8   4  -5  106.78    5.82
  -7   4  -5    3.68    0.69
  -7  -4  -5    1.92    0.71
  -7  -4  -5    3.24    1.39
  -7   4   5    3.43    1.34
  -6  -4  -5   47.98    4.30
  -6   4   5   44.10    3.64
  -6   4  -5   48.81    2.96
  -5  -4  -5   17.86    1.70
  -5  -4   5   18.72    1.70
  -4  -4   5    1.97    0.59
  -4   4  -5    1.27    0.72
  -3   4  -5    8.06    1.16
  -3  -4  -5    7.71    0.60
  -3  -4   5    8.98    0.97
  -2   4  -5   64.60    4.62
  -2  -4   5   73.21    4.28
  -2  -4  -5   58.35    3.98
  -2  -4   5   73.19    4.33
  -1  -4  -5    2.84    0.43
  -1  -4   5    3.72    0.69
  -1  -4   5    3.55    0.65
  -1   4  -5    4.49    0.97
   0  -4   5  134.79    9.26
   0   4  -5  132.84    9.73
   0   4  -5  161.88    9.17
   0  -4   5  146.04    9.28
   1  -4   5    4.93    0.77
   1   4  -5    3.47    1.05
   1   4  -5    4.11    0.77
   1  -4   5    5.22    0.76
   2  -4   5   79.20    4.90
   2   4  -5   66.62    4.81
   2   4  -5   76.30    5.49
   2  -4   5   74.63    4.85
   3  -4   5   12.18    0.99
   3   4  -5    9.19    0.94
   3   4  -5    9.14    1.46
   3  -4   5    9.95    0.96
   4  -4  -5    1.31    0.27
   4  -4   5    2.02    0.67
   4   4  -5    1.35    1.00
   4   4  -5    3.06    0.64
   5  -4   5   21.52    1.60
   5   4  -5   20.23    1.55
   5   4  -5   21.92    2.34
   6   4  -5   46.94    3.37
   6  -4   5   51.32    3.44
   6   4  -5   46.59    3.30
   7   4  -5    3.68    0.74
   7   4  -5    2.65    0.73
   7  -4   5    4.04    0.89
   7   4   5    3.58    0.34
   8   4  -5  100.37    6.77
   8   4  -5  100.29    7.78
   8   4   5  106.60    6.45
   8   4  -5  101.67    6.83
   9   4   5    0.47    0.39
   9  -4  -5    0.49    0.80
   9   4  -5    0.94    0.71
   9   4  -5    0.13    0.67
   9   4  -5    0.54    1.40
  10   4  -5   54.67    3.96
  10   4  -5   46.86    4.85
  10  -4  -5   62.42    4.11
  10   4  -5   49.96    3.94
  10   4  -5   67.88    4.43
  11   4  -5   11.80    1.75
  11   4  -5   10.16    1.30
  11   4  -5    8.25    1.29
  11   4  -5    9.29    2.22
  11  -4  -5    9.38    1.45
  12  -4  -5    4.10    1.27
  12   4  -5    2.09    0.92
  12   4  -5    2.65    1.46
  12   4  -5    2.58    0.94
  12   4  -5    4.19    1.93
  13   4  -5    3.09    1.04
  13   4  -5    4.52    1.14
  13   4  -5    2.71    1.99
  13  -4  -5    6.42    1.58
  13   4  -5    6.09    2.01
  14   4  -5    6.74    1.37
  14   4  -5    6.69    1.30
  14   4  -5    8.85    2.59
  14  -4  -5   10.14    1.87
  14   4  -5   10.65    2.17
  15  -4  -5    1.40    1.47
  15   4  -5    1.63    1.61
 -12   4   6    0.22    1.63
 -11   4   6   41.36    3.99
 -10   4   6    0.32    1.38
 -10   4  -6    0.71    0.75
 -10  -4  -6   -0.19    0.95
  -9   4  -6    3.57    0.81
  -9  -4  -6    2.70    0.94
  -9   4   6    5.70    1.60
  -8   4  -6    0.45    0.69
  -8  -4  -6    0.05    0.70
  -8  -4  -6    0.36    1.23
  -8   4   6    0.28    1.23
  -7  -4  -6   23.14    3.02
  -7   4   6   28.96    2.79
  -7   4  -6   28.59    1.95
  -6   4  -6    3.44    0.68
  -6  -4  -6    2.86    0.81
  -6   4   6    2.97    1.32
  -5   4  -6   77.59    5.70
  -5  -4   6   89.17    5.59
  -4  -4   6    0.66    0.61
  -4   4  -6    0.93    0.70
  -3   4  -6   92.26    6.83
  -3  -4   6  108.72    6.64
  -2  -4   6    0.64    0.64
  -2  -4   6    0.55    0.51
  -2  -4  -6    0.17    0.18
  -2   4  -6    0.07    0.75
  -1  -4   6   16.92    1.39
  -1  -4  -6   12.12    1.01
  -1   4  -6   15.34    1.75
  -1  -4   6   17.53    1.34
   0  -4   6    4.82    0.81
   0   4  -6    4.73    1.20
   0  -4   6    6.12    0.79
   1  -4   6   17.88    1.53
   1   4  -6   16.48    1.99
   1  -4   6   17.01    1.49
   2  -4   6    0.98    0.65
   2  -4   6    0.03    0.55
   2   4  -6    1.05    1.02
   2   4  -6    1.31    0.77
   3  -4   6  120.92    7.45
   3   4  -6  116.20    8.15
   3   4  -6  108.84    7.52
   3  -4   6  115.70    7.41
   4  -4  -6    0.56    0.23
   4  -4   6    0.55    0.63
   4   4  -6    0.82    1.10
   4   4  -6    1.14    0.86
   5  -4   6  104.73    5.32
   5   4  -6   95.80    5.28
   5   4  -6  106.47    6.42
   5   4  -6   91.61    5.55
   6  -4  -6    1.65    0.42
   6   4  -6    3.68    1.43
   6  -4   6    4.01    0.81
   6   4  -6    2.91    0.80
   6   4  -6    2.50    0.96
   7   4  -6   25.78    1.86
   7   4  -6   27.58    1.79
   7   4  -6   22.01    2.09
   8  -4  -6    0.39    0.41
   8   4   6    0.30    0.27
   8   4  -6    1.43    0.73
   8   4  -6    0.69    0.75
   8   4  -6    0.60    0.96
   9   4  -6    3.57    0.88
   9   4  -6    2.65    0.90
   9   4  -6    4.53    1.71
   9   4  -6    0.99    1.09
  10   4  -6    0.31    0.75
  10   4  -6    0.19    0.79
  10   4  -6    1.84    1.66
  11   4  -6   38.24    3.09
  11   4  -6   32.05    2.64
  11   4  -6   30.24    2.59
  11  -4  -6   34.99    2.73
  12  -4  -6   -0.68    1.20
  12   4  -6    0.21    0.94
  12   4  -6   -0.97    1.52
  12   4  -6    0.06    0.91
  12   4  -6   -0.17    1.61
  13  -4  -6   38.73    3.41
  13   4  -6   44.41    3.94
  14   4  -6    0.11    1.65
  14  -4  -6   -0.39    1.33
 -11   4   7   -0.48    1.69
 -10   4   7   29.53    3.26
  -9   4   7    0.84    1.46
  -8   4   7   47.12    3.99
  -8   4  -7   51.00    3.15
  -7   4  -7    0.44    0.68
  -7  -4  -7    0.69    0.77
  -7   4   7    0.78    1.38
  -6   4  -7   21.56    1.96
  -6   4   7   23.86    2.52
  -5   4  -7    0.79    0.72
  -4   4  -7   -0.06    0.69
  -3   4  -7    2.06    0.89
  -2   4  -7   57.22    4.35
  -1   4  -7    0.76    0.85
  -1  -4  -7    0.43    0.22
   0   4  -7  132.58    9.03
   1   4  -7   -0.09    0.98
   2   4  -7   57.78    4.08
   2   4  -7   66.60    4.89
   3   4  -7    2.17    1.23
   3   4  -7    1.80    0.69
   4   4  -7    1.78    1.01
   5  -4  -7    0.67    0.29
   5   4  -7    1.56    1.05
   6  -4  -7   15.76    1.26
   6   4  -7   23.10    2.06
   7  -4  -7   -0.09    0.39
   7   4  -7   -0.20    1.00
   8   4  -7   38.59    3.02
   8   4  -7   45.72    2.75
   9  -4  -7    0.03    0.44
   9   4  -7    1.07    0.76
   9   4  -7    0.05    0.82
   9   4  -7   -0.07    1.08
  10   4  -7   27.22    1.95
  10   4  -7   26.77    3.17
  10   4  -7   28.04    2.01
  11  -4  -7    0.04    0.53
  11   4  -7    0.66    0.93
  11   4  -7    0.33    0.92
  11   4  -7    0.53    1.65
  12  -4  -7    1.07    0.64
  12  -4  -7    1.64    1.05
  12   4  -7    3.31    1.56
  13  -4  -7   -0.39    0.67
  13  -4  -7    0.33    1.30
  13   4  -7   -0.58    1.59
  14  -4  -7    1.41    0.70
  15  -4  -7    0.05    0.73
  -9   4   8    1.43    1.55
  -8   4   8    5.77    1.76
  -7   4  -8    9.93    1.30
  -7   4   8   13.02    2.10
  -6   4  -8    1.75    0.80
  -6   4   8    3.25    1.41
  -5   4  -8   40.43    3.24
  -5   4   8   46.39    3.83
  -4   4  -8    1.17    0.87
  -3   4  -8   43.49    3.50
  -2   4  -8    6.45    1.30
  -1   4  -8    6.27    1.36
   0   4  -8    7.30    1.47
   2   4  -8    6.03    0.96
   3   4  -8   45.20    3.27
   4   4  -8    0.85    0.77
   5   4  -8   47.05    3.41
   6  -4  -8    1.44    0.40
   6   4  -8    2.98    0.86
   7  -4  -8    6.09    0.69
   8  -4  -8    2.65    0.56
   9  -4  -8    0.51    0.48
  10  -4  -8    1.45    0.60
  11  -4  -8    8.12    0.96
  12  -4  -8    0.28    0.56
  -7   4  -9    3.33    0.91
  -6   4  -9    9.29    1.33
  -5   4  -9   11.92    1.55
  -4   4  -9    0.14    0.88
  -3   4  -9   12.58    1.70
  -2   4  -9   17.84    2.10
  -1   4  -9    1.85    1.11
   0  -4  -9   21.95    1.42
   3   4  -9   10.36    1.25
   4   4  -9    0.71    0.77
   5   4  -9   14.12    1.55
   6   4  -9   10.49    1.33
   7   4  -9    5.34    1.06
  -5   4 -10   11.17    1.57
  -4   4 -10    1.19    1.06
  -3   4 -10   14.96    1.91
  -2   4 -10   11.25    1.81
   3   4 -10   15.77    1.61
  -3   4 -11   16.89    2.15
  -2   4 -11    2.26    1.35
  -9   5   0   -0.33    1.12
  -8   5   0   66.59    4.83
  -7   5   0    0.28    0.97
  -6   5   0   35.04    2.80
  -4  -5   0    0.74    0.44
  -4  -5   0    1.06    1.02
  -3  -5   0    0.21    0.46
  -3  -5   0    1.07    1.07
  -2  -5   0   57.40    3.69
  -2  -5   0   48.63    3.55
  -1  -5   0    0.16    0.33
  -1  -5   0   -0.09    0.48
  -1  -5   0   -0.10    1.04
   0  -5   0   97.45    7.22
   0  -5   0  136.00    7.47
   1  -5   0    0.18    0.34
   1  -5   0    0.16    0.52
   1  -5   0    1.25    1.15
   2  -5   0   47.26    3.69
   2  -5   0   71.39    4.03
   3  -5   0   -0.38    1.08
   3  -5   0    0.31    0.63
   4  -5   0    1.98    1.33
   5  -5   0    0.28    1.16
   6  -5   0   52.64    4.34
   7   5   0    0.56    0.40
   7  -5   0    0.83    1.25
   7   5   0   -0.05    0.47
   8   5   0   55.14    3.64
   8   5   0   50.25    3.69
   9   5   0    0.38    0.49
   9   5   0    0.34    0.55
   9  -5   0   -0.53    1.20
  10   5   0   38.18    2.65
  10   5   0   33.20    2.65
  11   5   0    0.12    0.65
  11   5   0    0.46    0.63
  11  -5   0   -0.23    1.14
  12   5   0    2.65    0.77
  12   5   0    3.54    0.77
  13   5   0    0.08    0.78
  13   5   0    0.39    0.68
  14   5   0    3.27    1.02
  14   5   0    3.61    0.90
  15   5   0   -0.65    1.03
  15   5   0    0.43    0.79
  16   5   0   15.47    1.82
 -10   5   1    2.36    1.24
  -9   5   1    0.86    1.18
  -8   5  -1    3.52    1.10
  -8   5   1    3.59    1.20
  -7  -5  -1   21.07    2.51
  -7   5  -1   27.85    2.31
  -7   5   1   28.03    2.45
  -6   5  -1    4.02    0.99
  -6   5   1    5.17    1.15
  -5   5  -1   93.01    6.18
  -4  -5   1    0.72    0.48
  -4  -5  -1    1.16    0.44
  -4  -5  -1    1.32    1.23
  -3  -5   1   57.36    3.75
  -3  -5  -1   58.65    3.73
  -3  -5   1   48.08    3.67
  -2  -5   1    1.49    0.46
  -2  -5   1    2.04    0.60
  -2  -5  -1    2.35    0.51
  -2  -5  -1    3.50    1.34
  -1  -5   1   17.98    1.91
  -1  -5  -1   21.76    2.27
  -1  -5  -1    9.21    0.87
  -1  -5   1   13.35    1.14
  -1  -5   1   10.44    1.00
  -1  -5  -1   13.27    1.11
   0  -5   1    5.81    0.72
   0  -5  -1    8.17    0.87
   0  -5   1   10.53    1.57
   0  -5  -1   12.78    1.87
   0  -5  -1    5.58    0.61
   0  -5   1    7.82    0.88
   1  -5  -1    8.62    0.87
   1  -5   1   13.74    1.18
   1  -5   1   11.55    1.03
   1  -5  -1   13.20    1.18
   1  -5   1   18.39    1.93
   1  -5  -1   23.05    2.39
   2  -5  -1    1.35    0.36
   2  -5   1    2.25    0.52
   2  -5   1    4.84    1.29
   2  -5   1    2.77    0.70
   2  -5  -1    4.21    1.53
   2  -5  -1    2.30    0.67
   3  -5   1   98.55    6.41
   3  -5  -1  109.88    7.01
   4  -5   1    0.50    1.05
   4  -5   1    0.58    0.74
   4  -5  -1    1.15    1.38
   5  -5   1  153.04   10.48
   5  -5  -1  161.26   11.04
   6   5  -1    4.00    0.70
   6  -5   1    6.27    1.49
   6  -5  -1    5.65    1.87
   7   5   1   21.37    1.57
   7   5  -1   21.68    1.64
   7   5  -1   21.05    1.76
   7  -5   1   39.61    2.80
   7  -5  -1   42.21    3.66
   8   5  -1    3.10    0.59
   8   5   1    3.19    0.52
   8   5  -1    2.10    0.59
   8  -5   1    5.87    1.43
   8   5  -1    2.79    0.69
   8  -5  -1    5.13    1.94
   9  -5  -1    1.71    0.74
   9   5  -1    2.64    0.64
   9   5   1    1.87    0.52
   9   5  -1    1.71    0.63
   9  -5   1    2.31    1.21
   9   5  -1    1.14    0.59
   9   5   1    1.29    0.52
   9  -5  -1    1.55    1.82
  10  -5  -1    2.59    0.84
  10   5  -1    3.38    0.73
  10   5   1    1.95    0.58
  10   5  -1    2.39    0.69
  10   5  -1    1.88    0.69
  10  -5   1    2.35    1.21
  10   5   1    1.89    0.59
  10  -5  -1    2.44    1.75
  11   5   1   30.63    2.27
  11   5  -1   30.98    2.36
  11   5  -1   28.53    2.34
  11   5   1   29.15    2.26
  11  -5  -1   33.50    2.54
  11   5  -1   32.18    2.40
  12  -5  -1    0.66    0.92
  12   5  -1    2.19    0.86
  12   5   1    0.13    0.66
  12   5  -1    0.67    0.76
  12   5  -1    0.81    0.76
  12   5   1    0.93    0.60
  13   5  -1   26.99    2.33
  13   5  -1   29.95    2.39
  13   5   1   29.78    2.23
  13   5  -1   31.58    2.48
  13   5   1   31.79    2.34
  14   5   1   -0.52    0.83
  14   5  -1   -0.59    0.91
  14   5  -1   -0.25    0.81
  14   5   1   -0.13    0.66
  15   5  -1   10.34    1.44
  15   5  -1    8.51    1.27
  16   5  -1    0.54    1.10
  16   5  -1    1.39    1.00
 -11   5   2    7.28    1.62
 -10   5   2   45.31    3.86
  -9   5   2    0.91    1.15
  -8   5   2   59.62    4.53
  -7  -5  -2    7.94    1.55
  -7   5   2    8.90    1.53
  -6  -5  -2   26.84    3.05
  -6   5  -2   35.60    2.54
  -5   5  -2   23.56    1.93
  -4  -5   2    0.88    0.50
  -4  -5   2    1.89    0.58
  -4  -5  -2    1.46    0.44
  -3  -5  -2   12.53    1.95
  -3  -5   2   11.06    1.05
  -3  -5  -2   10.49    0.95
  -3  -5   2    8.60    0.95
  -2  -5   2   35.94    2.39
  -2  -5  -2   29.94    2.22
  -2  -5   2   28.80    2.27
  -1  -5   2    1.25    0.50
  -1  -5   2    1.07    0.55
  -1  -5  -2    1.23    0.48
  -1  -5  -2    1.61    1.51
   0  -5   2   58.92    3.79
   0  -5  -2   61.25    3.81
   0  -5  -2   49.06    3.54
   1  -5  -2    0.84    0.24
   1  -5   2    1.25    0.51
   1  -5   2    1.46    0.61
   1  -5  -2    2.31    0.59
   1  -5  -2    2.32    1.61
   2  -5   2   36.83    2.21
   2  -5   2   32.81    2.05
   3  -5   2   12.89    1.36
   3  -5  -2   20.59    2.88
   4  -5  -2    1.63    0.36
   4   5  -2    1.92    0.34
   4  -5   2    1.83    0.75
   5   5  -2   20.11    1.68
   5  -5  -2   22.24    1.59
   5   5  -2   21.41    1.50
   6   5  -2   25.06    2.06
   6   5  -2   22.82    3.01
   6  -5  -2   29.12    2.02
   6   5  -2   28.88    1.94
   7   5  -2    7.99    0.85
   7   5  -2    8.00    0.95
   7   5  -2    6.98    1.83
   7  -5  -2    8.05    0.96
   7   5  -2    8.07    0.87
   8   5   2   53.24    3.47
   8   5  -2   53.98    3.65
   8   5  -2   49.11    3.68
   8   5  -2   46.34    4.79
   8  -5  -2   60.14    3.78
   8   5  -2   59.55    3.69
   9   5   2    0.82    0.43
   9   5  -2    0.89    0.60
   9  -5  -2    0.04    0.71
   9   5  -2    0.83    0.64
   9   5  -2    1.07    0.70
   9   5  -2   -0.61    1.40
  10   5   2   35.99    2.47
  10   5  -2   32.43    2.66
  10   5  -2   36.24    2.64
  10   5  -2   27.20    3.71
  10  -5  -2   41.85    2.89
  10   5  -2   39.21    2.73
  11   5  -2    7.78    1.06
  11   5   2    7.42    0.83
  11   5  -2    6.50    1.07
  11   5  -2    6.11    2.06
  11  -5  -2    9.21    1.29
  11   5  -2    8.96    1.19
  11   5   2    6.54    0.83
  12   5   2    1.92    0.69
  12   5  -2    2.70    0.87
  12  -5  -2    3.09    1.07
  12   5  -2    2.32    1.05
  12   5  -2    1.83    0.83
  12   5   2    1.98    0.59
  12   5  -2    0.74    1.71
  13   5   2    5.65    0.98
  13   5  -2    6.78    1.19
  13  -5  -2    7.50    1.28
  13   5  -2    7.67    1.28
  13   5  -2    7.10    1.14
  13   5  -2    4.89    2.15
  14   5  -2    4.40    1.12
  14  -5  -2    4.40    1.21
  14   5  -2    5.02    1.24
  14   5  -2    3.26    1.02
  14   5  -2    1.66    2.06
  15  -5  -2    1.97    1.22
  15   5  -2    1.07    1.05
  15   5  -2    1.52    1.11
  15   5  -2   -0.05    0.96
  16  -5  -2   10.91    1.75
 -11   5   3   14.75    2.13
 -10   5   3   17.47    2.28
  -9   5  -3    0.41    0.62
  -9   5   3    1.17    1.30
  -8   5   3   25.28    2.58
  -8   5  -3   28.88    2.00
  -8  -5  -3   22.19    2.04
  -7   5  -3   10.43    1.02
  -7   5   3    7.33    1.47
  -7  -5  -3    8.45    1.06
  -6  -5  -3    8.38    1.76
  -6   5  -3   11.01    1.04
  -6  -5  -3   10.00    1.11
  -5  -5  -3   46.49    4.39
  -5   5  -3   52.37    3.35
  -5  -5  -3   44.12    3.38
  -5   5  -3   55.60    3.40
  -4  -5  -3    1.23    0.52
  -4  -5   3    0.92    0.54
  -4  -5   3    1.27    0.56
  -4  -5  -3    0.84    0.37
  -4   5  -3    1.17    0.48
  -4   5  -3    1.49    0.57
  -3   5  -3   62.30    3.18
  -3  -5  -3   59.37    3.26
  -3  -5   3   45.10    3.31
  -3  -5  -3   38.64    3.14
  -3  -5   3   36.72    3.26
  -2   5  -3   32.10    1.82
  -2  -5  -3   31.24    1.88
  -2  -5  -3   35.79    3.55
  -2  -5   3   25.67    2.05
  -2  -5  -3   21.24    1.88
  -2  -5   3   20.57    1.98
  -1  -5  -3    8.48    0.97
  -1  -5  -3   11.96    0.83
  -1  -5   3    9.83    1.12
  -1   5  -3   12.17    0.83
  -1  -5   3   10.22    1.11
   0  -5   3   37.96    2.96
   0  -5  -3   35.85    2.91
   0   5  -3   46.82    2.69
   0  -5  -3   41.71    2.69
   0  -5   3   42.68    3.05
   1  -5   3   10.26    1.11
   1  -5  -3   11.21    1.13
   1   5  -3   10.48    1.72
   1  -5  -3   11.75    0.84
   1  -5   3   11.68    1.22
   2  -5   3   25.94    1.72
   2   5  -3   21.83    2.48
   2  -5  -3   30.10    1.46
   2   5  -3   33.54    1.48
   3  -5   3   45.57    3.87
   3  -5  -3   66.90    3.84
   3   5  -3   37.67    4.43
   3   5  -3   66.02    3.79
   4   5  -3    1.55    0.56
   4  -5  -3    1.45    0.58
   4   5  -3    0.56    1.07
   5  -5   3   52.70    3.57
   5  -5  -3   50.59    3.36
   5   5  -3   58.61    3.42
   6  -5  -3   13.12    1.23
   6   5  -3   13.32    1.25
   7   5  -3    8.00    1.06
   7  -5  -3    9.62    1.13
   7   5  -3   11.24    1.18
   8   5  -3   23.16    1.90
   8   5   3   22.12    1.55
   8   5  -3   21.68    1.81
   8  -5  -3   26.31    2.02
   8   5  -3   21.37    2.87
   9  -5  -3    0.84    0.82
   9   5  -3    1.12    0.79
   9   5   3    0.56    0.35
   9   5  -3    0.80    0.64
   9   5  -3    0.49    0.71
   9   5  -3   -0.59    1.52
  10   5   3   13.66    1.12
  10   5  -3   12.12    1.41
  10  -5  -3   18.13    1.69
  10   5  -3   13.77    1.39
  10   5  -3   18.29    1.73
  10   5  -3    9.95    2.31
  11  -5  -3   14.65    1.61
  11   5  -3   12.46    1.44
  11   5  -3   15.32    1.64
  11   5  -3   14.58    1.40
  11   5   3   11.56    1.10
  12   5  -3    1.92    0.93
  12   5  -3    1.34    0.87
  12   5  -3    1.23    1.83
  12  -5  -3    0.93    1.00
  12   5  -3    1.52    1.04
  13   5  -3   16.33    1.71
  13   5  -3   13.01    2.77
  13  -5  -3   17.46    1.86
  13   5  -3   19.30    1.94
  13   5  -3   13.40    1.63
  14   5  -3    2.12    0.98
  14   5  -3    1.65    1.07
  14  -5  -3    2.18    1.21
  14   5  -3    1.92    1.25
  15  -5  -3    9.61    1.65
  16  -5  -3    6.80    1.58
 -12   5   4    0.56    1.45
 -12  -5  -4    0.80    1.00
 -11   5   4   12.84    2.11
 -11  -5  -4   10.24    1.47
 -10   5  -4   14.19    1.36
 -10  -5  -4    9.58    1.47
 -10   5   4   12.52    2.05
  -9   5  -4    1.39    0.73
  -9  -5  -4    0.94    0.89
  -9   5   4    1.73    1.37
  -8   5  -4   20.38    1.67
  -8  -5  -4   15.72    1.75
  -8   5   4   14.64    2.05
  -7   5  -4   12.36    1.15
  -7  -5  -4    9.27    1.33
  -7   5   4    8.39    1.56
  -6   5  -4    9.30    0.98
  -6  -5  -4    8.34    1.14
  -5   5  -4   45.01    2.87
  -5  -5  -4   38.57    2.99
  -4  -5   4    2.29    0.68
  -4  -5  -4    1.53    0.37
  -4   5  -4    2.43    0.54
  -4  -5  -4    2.06    0.63
  -3  -5   4   43.36    2.98
  -3  -5  -4   34.78    2.72
  -3  -5  -4   43.01    2.85
  -3  -5   4   37.02    2.95
  -2   5  -4   16.18    1.08
  -2  -5  -4   14.40    1.16
  -2  -5   4   14.63    1.31
  -2  -5  -4   11.31    1.07
  -2  -5   4   14.23    1.34
  -1  -5  -4    7.25    0.75
  -1   5  -4    7.74    1.52
  -1  -5   4    7.08    0.97
   0  -5   4   28.91    2.22
   0  -5  -4   29.02    2.09
   0   5  -4   27.58    2.88
   1  -5   4    7.71    0.97
   1   5  -4    7.63    1.50
   2  -5   4   15.33    1.43
   2   5  -4   15.32    2.05
   3  -5   4   48.81    2.30
   3  -5  -4   19.90    1.47
   3  -5   4   47.43    2.21
   3   5  -4   40.30    3.12
   3  -5  -4   25.08    1.49
   4   5  -4    1.64    1.13
   4   5  -4    2.17    0.66
   5   5  -4   39.47    3.08
   5  -5  -4   43.37    3.05
   6   5  -4    7.69    1.07
   6  -5  -4   10.05    1.14
   7  -5  -4   12.82    1.37
   7   5  -4   14.53    1.52
   8   5  -4   14.69    1.56
   8   5  -4   16.28    1.52
   8  -5  -4   20.90    1.89
   8   5  -4   25.37    2.06
   8   5  -4   11.34    2.33
   9   5  -4    0.97    0.70
   9   5  -4    0.90    0.76
   9  -5  -4   -0.21    1.03
   9   5  -4    0.45    1.40
   9   5  -4    0.25    1.06
  10   5  -4   10.97    1.42
  10   5  -4   13.54    1.43
  10  -5  -4   15.05    1.69
  10   5  -4    9.93    2.33
  11   5  -4    9.49    1.38
  11   5  -4   13.52    1.41
  11  -5  -4   12.76    1.62
  11   5  -4    9.24    2.33
  12  -5  -4    0.61    1.03
  12   5  -4    1.34    1.19
  12   5  -4    0.92    0.94
  12   5  -4    0.19    0.86
  12   5  -4    0.17    1.66
  13   5  -4   15.73    1.80
  13  -5  -4   20.34    2.13
  13   5  -4   16.59    1.86
  14  -5  -4    2.51    1.31
  14   5  -4    3.20    1.48
  15  -5  -4    7.06    1.52
 -12   5   5    0.73    1.53
 -11  -5  -5    2.83    1.22
 -11   5   5    5.23    1.76
 -10  -5  -5   22.83    2.44
 -10   5   5   28.30    2.84
  -9   5  -5    0.40    0.77
  -9  -5  -5   -0.20    1.09
  -9   5   5    0.62    1.35
  -8   5  -5   48.01    3.12
  -8  -5  -5   38.69    3.31
  -8   5   5   41.44    3.72
  -7   5  -5    3.22    0.72
  -7  -5  -5    2.50    0.87
  -7   5   5    2.91    1.26
  -6   5  -5   17.38    1.41
  -6  -5  -5   14.46    1.55
  -5   5  -5   11.32    1.01
  -5  -5  -5    8.92    1.13
  -4  -5   5    1.29    0.69
  -4   5  -5    0.94    0.48
  -4  -5  -5    1.16    0.66
  -3  -5   5    5.12    0.89
  -3   5  -5    6.62    0.69
  -3  -5  -5    5.68    0.79
  -3  -5  -5    4.37    0.51
  -2   5  -5   25.04    2.50
  -2  -5  -5   21.23    1.58
  -2  -5   5   27.26    1.97
  -1  -5   5    1.21    0.71
  -1  -5  -5    0.85    0.37
  -1   5  -5    0.78    1.01
   0  -5   5   46.87    3.05
   0  -5  -5   37.61    2.78
   0   5  -5   45.09    3.66
   1  -5   5    0.93    0.66
   1   5  -5    1.22    1.09
   2  -5   5   27.14    2.14
   2   5  -5   24.60    2.68
   3  -5   5    7.21    1.00
   3   5  -5    4.62    1.39
   4  -5  -5    0.31    0.11
   4   5  -5    0.11    1.14
   4   5  -5    1.28    0.66
   5   5  -5    6.84    1.68
   5  -5  -5    5.01    0.53
   6   5  -5   16.25    1.55
   6   5  -5   15.04    2.30
   7  -5  -5    2.40    0.80
   7   5  -5    1.90    0.81
   8   5  -5   38.77    3.44
   8  -5  -5   52.46    3.62
   9   5  -5    0.37    0.69
   9  -5  -5    0.71    0.93
   9   5  -5    0.53    0.80
   9   5  -5    1.09    1.53
   9   5  -5    0.58    1.11
  10   5  -5   24.94    2.31
  10   5  -5   23.59    2.22
  10   5  -5   19.42    3.15
  10  -5  -5   37.28    2.78
  10   5  -5   42.98    3.01
  11   5  -5    5.46    1.11
  11   5  -5    3.97    1.11
  11   5  -5    2.43    1.87
  11  -5  -5    7.07    1.51
  11   5  -5    5.05    1.59
  12   5  -5    2.59    1.06
  12  -5  -5    3.09    1.24
  12   5  -5    2.09    1.62
  13  -5  -5    3.14    1.35
  13   5  -5    4.94    1.75
  14  -5  -5    4.52    1.46
  15  -5  -5    2.31    1.56
 -10  -5  -6    0.50    1.09
 -10   5   6   -0.89    1.37
  -9  -5  -6    1.09    0.96
  -9   5   6    2.05    1.47
  -8  -5  -6    1.03    1.00
  -8   5   6    0.90    1.34
  -7   5   6   11.76    1.82
  -7   5  -6   12.66    1.19
  -7  -5  -6    9.87    1.38
  -6   5  -6    1.19    0.65
  -6  -5  -6    0.87    0.72
  -5   5  -6   48.09    2.94
  -5  -5  -6   35.07    3.04
  -4   5  -6    0.33    0.55
  -4  -5  -6    0.62    0.68
  -3   5  -6   32.14    2.95
  -2  -5  -6    0.34    0.28
  -2   5  -6    0.17    0.90
  -1  -5  -6    4.83    0.55
  -1   5  -6    6.66    1.37
   0  -5  -6    1.77    0.46
   0   5  -6    2.80    1.25
   1   5  -6    6.04    1.47
   1   5  -6    8.95    0.95
   2   5  -6    1.66    1.26
   2   5  -6    0.80    0.75
   3   5  -6   42.93    4.03
   3   5  -6   46.27    3.35
   4   5  -6   -0.49    1.25
   4   5  -6    0.32    0.66
   4   5  -6   -0.20    0.89
   5   5  -6   43.80    2.18
   5   5  -6   44.97    3.49
   5   5  -6   39.33    2.34
   6  -5  -6    0.56    0.28
   6   5  -6    2.11    1.51
   6   5  -6    1.61    0.77
   6   5  -6    0.77    0.91
   7   5  -6   12.97    1.28
   7   5  -6   10.37    2.20
   7   5  -6    6.31    1.25
   7  -5  -6    5.53    0.64
   8  -5  -6    0.07    0.36
   8   5  -6    0.41    0.82
   8   5  -6    0.26    1.00
   9  -5  -6    0.14    0.45
   9   5  -6    0.77    0.85
   9   5  -6    0.75    1.16
   9  -5  -6    0.98    0.86
  10   5  -6    1.33    1.33
  10   5  -6    1.55    0.90
  10   5  -6    1.12    0.90
  10  -5  -6    0.48    0.98
  11  -5  -6   19.22    2.14
  11   5  -6   24.27    2.64
  12   5  -6    0.29    1.67
  12  -5  -6    0.28    1.36
  13  -5  -6   22.81    2.55
  14  -5  -6   -0.07    1.30
  -8   5   7   22.67    2.53
  -8  -5  -7   17.97    1.96
  -7  -5  -7    0.33    0.88
  -7   5   7    0.09    1.31
  -6  -5  -7    7.28    1.18
  -6   5   7    9.94    1.77
  -5  -5  -7    0.05    0.73
  -4   5  -7    1.25    1.04
  -3   5  -7    0.08    0.97
  -2   5  -7   23.61    2.25
  -2  -5  -7   16.55    1.11
  -1  -5  -7    0.18    0.26
  -1   5  -7   -0.18    1.06
   0  -5  -7   31.25    2.21
   0   5  -7   44.48    3.39
   1   5  -7    1.77    1.37
   2   5  -7   28.36    3.03
   3   5  -7    1.72    1.41
   4   5  -7    0.13    1.33
   5   5  -7    0.43    1.40
   5   5  -7    0.90    0.81
   6   5  -7   10.53    1.20
   6   5  -7   10.79    2.25
   7  -5  -7    0.06    0.28
   7   5  -7    1.30    1.52
   7   5  -7    1.03    0.84
   8   5  -7   20.37    1.94
   8   5  -7   21.25    3.14
  10   5  -7   19.76    2.33
  10  -5  -7   15.70    1.74
  11  -5  -7    0.29    1.14
  11   5  -7   -0.89    1.67
  12  -5  -7    2.95    1.34
  13  -5  -7    1.46    1.52
  -5   5  -8   20.15    2.16
  -5  -5  -8   16.26    1.78
  -4   5  -8    0.08    0.99
  -3   5  -8   18.78    2.12
  -2   5  -8    2.53    1.24
  -1   5  -8    3.28    1.30
   0   5  -8    3.14    1.34
   1   5  -8    3.38    1.48
   2   5  -8    1.24    1.49
   3   5  -8   21.74    2.83
   4   5  -8   -0.28    1.55
   5   5  -8   28.73    3.47
   6   5  -8   -0.16    1.61
  11  -5  -8    8.06    1.39
  -5   5  -9    6.40    1.38
  -4   5  -9   -0.08    1.07
  -3   5  -9    4.49    1.36
  -2   5  -9    7.56    1.57
  -1   5  -9    0.41    1.21
   0   5  -9   19.14    2.51
   1   5  -9    0.85    1.41
   2   5  -9    9.14    2.04
   3   5  -9    3.51    1.63
  -3   5 -10    4.97    1.49
  -2   5 -10    4.50    1.50
  -1   5 -10    1.73    1.42
   0   5 -10    9.14    2.07
   1   5 -10    1.65    1.53
  -9   6   0    0.32    1.15
  -8   6   0   55.56    4.19
  -7   6   0    0.17    0.97
  -6   6   0   28.87    2.46
  -4  -6   0    0.03    0.52
  -3  -6   0    0.38    0.55
  -2  -6   0   44.19    3.13
  -1  -6   0    0.12    0.40
  -1  -6   0    0.28    0.62
   0  -6   0   61.87    4.62
   0  -6   0   95.05    4.97
   1  -6   0   -0.10    0.43
   1  -6   0    0.36    0.67
   1  -6   0    0.81    1.49
   2  -6   0   30.70    2.69
   2  -6   0   56.38    3.16
   3  -6   0    0.45    0.47
   3  -6   0    0.46    1.51
   4  -6   0    0.57    1.51
   5  -6   0    0.11    1.60
   6  -6   0   49.55    4.42
   7  -6   0    0.84    1.45
   8  -6   0   75.03    5.87
   9  -6   0    1.18    1.55
  12   6   0    2.46    0.84
 -10   6   1    1.78    1.32
  -9   6   1    2.41    1.23
  -8   6  -1    3.54    1.17
  -8   6   1    3.80    1.25
  -7   6  -1   19.28    1.84
  -7   6   1   15.26    1.88
  -6   6  -1    3.99    1.07
  -6   6   1    2.98    1.12
  -5   6  -1   64.36    4.49
  -4  -6   1    0.07    0.60
  -4  -6  -1    0.42    0.56
  -3  -6   1   53.03    3.55
  -3  -6  -1   49.05    3.46
  -2  -6   1    2.06    0.58
  -2  -6   1    2.50    0.71
  -2  -6  -1    3.01    0.73
  -1  -6   1    8.73    1.09
  -1  -6   1    8.04    0.92
  -1  -6  -1   10.27    1.07
   0  -6  -1    3.13    0.50
   0  -6   1    3.64    0.65
   0  -6   1    6.85    0.92
   0  -6  -1    5.50    0.88
   1  -6   1    6.91    0.86
   1  -6  -1   10.60    1.09
   1  -6  -1    5.47    0.70
   1  -6   1   12.30    1.19
   2  -6  -1    1.03    0.39
   2  -6   1    1.84    0.58
   3  -6  -1   38.07    3.33
   3  -6   1   50.40    3.52
   3  -6  -1   71.82    3.90
   3  -6   1   97.94    5.09
   3  -6  -1  106.51    5.71
   4  -6   1    0.71    0.58
   4  -6   1    1.44    1.37
   4  -6  -1    0.50    1.59
   5  -6   1  107.00    7.89
   5  -6  -1  118.82    8.41
   6  -6   1    3.85    1.56
   6  -6  -1    2.23    1.76
   7  -6   1   23.49    2.65
   7  -6  -1   26.74    3.23
   8  -6   1    3.58    1.45
   8  -6  -1    4.15    1.93
   9  -6  -1    4.03    1.97
  10   6  -1    1.46    0.75
  11   6  -1   21.39    1.70
  11   6  -1   19.56    1.82
  12   6  -1    0.70    0.77
  12   6  -1    0.99    0.81
  13   6  -1   18.48    1.78
 -11   6   2    6.34    1.64
 -10   6   2   26.82    2.73
  -9   6   2   -0.07    1.14
  -8   6   2   37.36    3.20
  -7   6  -2    4.16    0.98
  -7   6   2    3.96    1.26
  -6   6  -2   27.06    2.22
  -5   6  -2   17.75    1.68
  -4  -6  -2    0.41    0.47
  -3  -6  -2   10.62    1.00
  -3  -6   2    7.60    1.00
  -2  -6  -2   25.24    1.84
  -2  -6   2   21.18    1.83
  -1  -6   2    1.82    0.64
  -1  -6  -2    2.25    0.68
   0  -6  -2   55.27    3.48
   0  -6   2   43.78    3.37
   1  -6  -2    1.01    0.28
   1  -6   2    0.75    0.59
   1  -6  -2    2.09    0.68
   2  -6   2   24.67    1.67
   2  -6  -2   33.03    1.96
   3  -6   2   11.49    1.12
   3  -6  -2   15.28    1.37
   4  -6  -2    0.81    0.38
   4  -6   2    0.68    0.64
   9   6  -2    1.24    0.80
  10   6  -2   19.23    1.78
  11   6  -2    6.34    0.99
  11   6  -2    5.30    1.10
  12   6  -2    1.81    0.79
  12   6  -2    1.34    0.91
  13   6  -2    4.35    1.01
  13   6  -2    2.75    0.94
 -11   6   3    8.49    1.77
 -10   6   3    9.58    1.76
  -9   6   3    0.91    1.24
  -8   6   3   17.23    2.07
  -7   6   3    5.22    1.30
  -4  -6   3    0.40    0.60
  -4  -6  -3    0.02    0.42
  -4   6  -3    0.80    0.67
  -3  -6  -3   23.66    1.79
  -3  -6   3   24.59    2.03
  -2  -6  -3   14.91    1.24
  -2  -6   3   12.12    1.32
  -1  -6   3    5.58    0.93
  -1  -6  -3    6.00    0.80
   0  -6  -3   29.84    2.23
   0  -6   3   28.90    2.28
   1  -6  -3    7.10    0.96
   1  -6   3    6.10    0.96
   2  -6   3   15.69    1.57
   2  -6  -3   20.30    1.70
   3  -6   3   34.02    1.88
   3  -6  -3   38.30    2.06
   4  -6  -3    0.15    0.29
   4  -6   3    1.10    0.79
   6  -6  -3   10.60    0.95
   7  -6  -3    5.31    0.79
   8   6  -3   17.64    1.72
   8  -6  -3   22.10    1.65
   9  -6  -3    0.62    0.75
   9   6  -3    0.50    0.79
   9   6  -3    2.08    1.96
  10   6  -3    9.89    1.29
  10  -6  -3   11.50    1.29
  11   6  -3    8.92    1.17
  11   6  -3   10.35    1.36
  12   6  -3    1.39    0.83
  13   6  -3   11.26    1.41
 -11   6   4    7.78    1.86
 -10   6   4    8.07    1.81
  -9   6   4    2.18    1.39
  -8   6   4   10.04    1.81
  -7   6   4    4.37    1.28
  -3  -6  -4   25.11    1.82
  -2  -6  -4    8.73    0.91
  -2  -6   4    9.95    1.16
  -1  -6   4    4.52    0.96
  -1  -6  -4    5.09    0.72
   0  -6  -4   13.69    1.32
   0  -6   4   17.00    1.56
   1  -6  -4    5.90    0.89
   2  -6  -4   13.53    1.37
   3  -6  -4   39.64    2.51
   3   6  -4   32.31    3.77
   4  -6  -4    0.11    0.11
   4   6  -4    0.45    1.57
   4  -6  -4    0.78    0.54
   5  -6  -4   43.27    2.81
   5   6  -4   27.96    3.88
   6  -6  -4    6.73    0.92
   6   6  -4    5.07    1.92
   7  -6  -4    8.26    1.06
   7   6  -4    7.05    1.07
   8  -6  -4   15.77    1.51
   8   6  -4   13.32    1.51
   9   6  -4    1.78    0.91
   9  -6  -4    0.99    0.84
  10   6  -4    5.43    1.13
  -9   6   5   -0.09    1.40
  -8   6   5   27.28    2.80
  -7   6   5    0.93    1.27
  -3  -6  -5    6.23    0.85
  -3  -6  -5    3.29    0.53
  -2  -6  -5   27.76    1.64
  -2  -6  -5   15.79    1.47
  -1  -6  -5    0.99    0.47
  -1  -6  -5    1.27    0.53
   0  -6  -5   27.78    2.50
   0  -6  -5   44.86    2.49
   1  -6  -5    1.29    0.63
   1   6  -5    0.76    1.40
   2  -6  -5   21.48    1.83
   2   6  -5   20.23    2.76
   3  -6  -5    4.44    0.71
   3   6  -5    3.08    1.64
   4  -6  -5    0.28    0.65
   4   6  -5    1.81    1.59
   5  -6  -5    7.12    1.05
   5   6  -5    5.76    1.89
   6  -6  -5   17.78    1.62
   6   6  -5    9.69    2.35
   7  -6  -5    1.31    0.95
   7   6  -5    1.32    1.62
   7   6  -5    1.95    0.86
   8   6  -5   25.55    2.42
   8  -6  -5   36.48    2.58
  -1   6  -6    4.66    1.61
   0  -6  -6    0.62    0.45
   0   6  -6    1.25    1.62
   1  -6  -6    3.43    0.66
   1   6  -6    3.43    1.49
   2  -6  -6    0.28    0.60
   2   6  -6   -0.64    1.48
   3   6  -6   30.10    3.37
   4   6  -6    0.29    1.47
   5   6  -6   28.64    3.53
   5  -6  -6   33.96    2.47
   6  -6  -6    1.36    0.89
  -2   6  -7   14.76    2.24
  -1   6  -7   -0.35    1.40
   0   6  -7   30.23    3.19
   1   6  -7    0.25    1.42
   2   6  -7   16.34    2.50
   3   6  -7    1.91    1.63
   4   6  -7   -0.57    1.65
  -2   6  -8    1.26    1.47
  -1   6  -8    1.80    1.40
   0   6  -8    3.84    1.64
   1   6  -8    2.27    1.64
   2   6  -8    0.26    1.48
  -2   6  -9    4.80    1.62
  -1   6  -9    0.70    1.50
  -6   7   0    6.60    1.31
   0  -7   0   12.24    1.11
   1  -7   0   -0.45    0.46
   2  -7   0    6.53    0.84
   3  -7   0   -0.13    0.55
   4  -7   0   -0.07    0.60
  -7   7   1    5.44    1.37
  -6   7   1    2.39    1.12
  -1  -7   1    1.00    0.56
   0  -7   1    0.58    0.50
   1  -7   1    0.58    0.65
   2  -7   1    0.14    0.62
   3  -7   1   12.34    1.29
   4  -7   1    0.34    0.71
   5  -7   1   19.81    1.79
  -9   7   2    0.07    1.31
  -8   7   2   13.12    1.85
  -7   7   2    1.21    1.17
  -6   7   2    5.11    1.38
  -4  -7  -2   -0.14    0.58
  -3  -7  -2    2.70    0.70
  -2  -7   2    4.78    0.85
  -1  -7   2   -0.27    0.60
   0  -7   2   10.60    1.19
   1  -7   2   -0.41    0.75
   2  -7   2    7.23    1.03
   3  -7   2    3.43    0.87
  -9   7   3   -0.30    1.20
  -8   7   3    6.96    1.56
  -7   7   3    4.18    1.44
  -6   7   3    2.63    1.26
  -3  -7  -3    7.58    0.92
  -2  -7  -3    4.24    0.80
  -1  -7  -3    1.28    0.66
  -6   7   4    2.86    1.29
   0   0   0    0.00    0.00
;
_shelx_hkl_checksum              60598
loop_
_space_group_symop_operation_xyz
'x, y, z'
'-x+1/2, -y, z'
'-x, y, -z'
'x+1/2, -y, -z'
'-x, -y, -z'
'x-1/2, y, -z'
'x, -y, z'
'-x-1/2, y, z'
loop_
_atom_site_label
_atom_site_type_symbol
_atom_site_fract_x
_atom_site_fract_y
_atom_site_fract_z
_atom_site_U_iso_or_equiv
_atom_site_adp_type
_atom_site_occupancy
_atom_site_site_symmetry_order
_atom_site_calc_flag
_atom_site_refinement_flags_posn
_atom_site_refinement_flags_adp
_atom_site_refinement_flags_occupancy
_atom_site_disorder_assembly
_atom_site_disorder_group
Pb1 Pb 0.44110(3) 0.5000 0.78812(5) 0.0369(3) Uani 1 2 d S T P . .
Cl1 Cl 0.4359(4) 1.0000 0.7950(6) 0.076(2) Uani 1 2 d S T P . .
Cl2 Cl 0.5000 0.5000 0.5000 0.085(2) Uani 1 4 d S T P . .
Cl3 Cl 0.2500 0.5000 0.7479(9) 0.080(2) Uani 1 4 d S T P . .
Cl4 Cl 0.6126(2) 0.5000 0.9189(4) 0.0642(10) Uani 1 2 d S T P . .
N1 N 0.7500 1.060(4) 1.019(2) 0.057(8) Uani 0.5 2 d DS TU P . .
H1A H 0.7030 1.0000 1.0592 0.085 Uiso 1 2 d R U P . .
H1C H 0.7500 1.2125 1.0270 0.085 Uiso 0.5 2 d R U P . .
N2 N 0.7500 1.0000 0.616(2) 0.079(5) Uani 1 4 d DS TU P . .
C1 C 0.719(2) 1.0000 0.875(2) 0.061(8) Uani 0.5 2 d DS TU P . .
H1D H 0.6607 1.0669 0.8603 0.074 Uiso 0.25 1 d R U P . .
H1E H 0.7116 0.8375 0.8699 0.074 Uiso 0.25 1 d R U P . .
C2 C 0.778(2) 1.074(6) 0.758(3) 0.078(9) Uani 0.25 1 d D U P . .
H2A H 0.7825 1.2376 0.7587 0.094 Uiso 0.25 1 d R U P . .
H2B H 0.8370 1.0000 0.7744 0.094 Uiso 0.5 2 d R U P . .
C3 C 0.660(2) 1.083(6) 0.574(5) 0.089(9) Uani 0.25 1 d D U P . .
H3A H 0.6585 1.2462 0.5780 0.134 Uiso 0.25 1 d R U P . .
H3B H 0.6456 1.0333 0.4801 0.134 Uiso 0.25 1 d R U P . .
H3C H 0.6179 1.0205 0.6394 0.134 Uiso 0.25 1 d R U P . .
C4 C 0.7500 0.739(3) 0.612(4) 0.131(7) Uani 1 2 d DS TU P . .
H4A H 0.8152 0.6903 0.6098 0.197 Uiso 0.5 1 d R U P . .
H4B H 0.7243 0.6737 0.6920 0.197 Uiso 0.5 1 d R U P . .
H4C H 0.7242 0.6897 0.5270 0.197 Uiso 0.5 1 d R U P . .
loop_
_atom_site_aniso_label
_atom_site_aniso_U_11
_atom_site_aniso_U_22
_atom_site_aniso_U_33
_atom_site_aniso_U_23
_atom_site_aniso_U_13
_atom_site_aniso_U_12
Pb1 0.0327(5) 0.0415(5) 0.0366(4) 0.000 0.00052(16) 0.000
Cl1 0.105(6) 0.039(3) 0.086(5) 0.000 0.011(2) 0.000
Cl2 0.100(6) 0.102(5) 0.052(3) 0.000 0.021(4) 0.000
Cl3 0.039(3) 0.133(7) 0.069(3) 0.000 0.000 0.000
Cl4 0.041(2) 0.097(3) 0.0547(19) 0.000 0.0065(16) 0.000
N1 0.056(12) 0.065(17) 0.048(9) -0.002(9) 0.000 0.000
N2 0.075(10) 0.089(9) 0.072(9) 0.000 0.000 0.000
C1 0.045(14) 0.086(16) 0.053(13) 0.000 0.007(10) 0.000
C2 0.074(16) 0.092(15) 0.069(12) 0.013(11) 0.001(11) -0.009(12)
C3 0.078(14) 0.101(15) 0.089(15) 0.009(13) -0.013(12) -0.008(11)
C4 0.139(14) 0.125(11) 0.129(13) -0.015(11) 0.000 0.000
loop_
_atom_type_symbol
_atom_type_description
_atom_type_scat_dispersion_real
_atom_type_scat_dispersion_imag
_atom_type_scat_source
C C 0.0033 0.0016 'International Tables Vol C Tables 4.2.6.8 and 6.1.1.4'
H H 0.0000 0.0000 'International Tables Vol C Tables 4.2.6.8 and 6.1.1.4'
N N 0.0061 0.0033 'International Tables Vol C Tables 4.2.6.8 and 6.1.1.4'
Cl Cl 0.1484 0.1585 'International Tables Vol C Tables 4.2.6.8 and 6.1.1.4'
Pb Pb -3.3944 10.1111 'International Tables Vol C Tables 4.2.6.8 and 6.1.1.4'
loop_
_geom_angle_atom_site_label_1
_geom_angle_atom_site_label_2
_geom_angle_atom_site_label_3
_geom_angle
_geom_angle_site_symmetry_1
_geom_angle_site_symmetry_3
_geom_angle_publ_flag
Cl4 Pb1 Cl2 98.03(8) . . ?
Cl4 Pb1 Cl3 161.76(19) . . ?
Cl2 Pb1 Cl3 100.21(17) . . ?
Cl4 Pb1 Cl4 80.21(11) . 5_667 ?
Cl2 Pb1 Cl4 178.24(8) . 5_667 ?
Cl3 Pb1 Cl4 81.54(18) . 5_667 ?
Cl4 Pb1 Cl1 90.81(11) . 1_545 ?
Cl2 Pb1 Cl1 91.67(11) . 1_545 ?
Cl3 Pb1 Cl1 88.67(11) . 1_545 ?
Cl4 Pb1 Cl1 88.37(11) 5_667 1_545 ?
Cl4 Pb1 Cl1 90.81(11) . . ?
Cl2 Pb1 Cl1 91.67(11) . . ?
Cl3 Pb1 Cl1 88.67(11) . . ?
Cl4 Pb1 Cl1 88.37(11) 5_667 . ?
Cl1 Pb1 Cl1 176.1(2) 1_545 . ?
Pb1 Cl1 Pb1 176.1(2) 1_565 . ?
Pb1 Cl2 Pb1 180.0 . 5_666 ?
Pb1 Cl3 Pb1 164.8(3) . 2_565 ?
Pb1 Cl4 Pb1 99.78(11) . 5_667 ?
N1 N1 C1 76.3(9) 2_675 . ?
N1 N1 C1 76.3(9) 2_675 2_675 ?
C1 N1 C1 37(2) . 2_675 ?
C2 N2 C2 33(3) . 8_755 ?
C2 N2 C2 34(3) . 7_575 ?
C2 N2 C2 49(2) 8_755 7_575 ?
C2 N2 C2 49(2) . 2_675 ?
C2 N2 C2 34(3) 8_755 2_675 ?
C2 N2 C2 33(3) 7_575 2_675 ?
C2 N2 C3 114.2(17) . . ?
C2 N2 C3 84(3) 8_755 . ?
C2 N2 C3 127(2) 7_575 . ?
C2 N2 C3 95(3) 2_675 . ?
C2 N2 C3 127(2) . 7_575 ?
C2 N2 C3 95(3) 8_755 7_575 ?
C2 N2 C3 114.2(17) 7_575 7_575 ?
C2 N2 C3 84(3) 2_675 7_575 ?
C3 N2 C3 38(3) . 7_575 ?
C2 N2 C3 84(3) . 8_755 ?
C2 N2 C3 114.2(17) 8_755 8_755 ?
C2 N2 C3 95(3) 7_575 8_755 ?
C2 N2 C3 127(2) 2_675 8_755 ?
C3 N2 C3 129(4) . 8_755 ?
C3 N2 C3 148(4) 7_575 8_755 ?
C2 N2 C3 95(3) . 2_675 ?
C2 N2 C3 127(2) 8_755 2_675 ?
C2 N2 C3 84(3) 7_575 2_675 ?
C2 N2 C3 114.2(17) 2_675 2_675 ?
C3 N2 C3 148(4) . 2_675 ?
C3 N2 C3 129(4) 7_575 2_675 ?
C3 N2 C3 38(3) 8_755 2_675 ?
C2 N2 C4 108.8(15) . . ?
C2 N2 C4 108.8(15) 8_755 . ?
C2 N2 C4 74(2) 7_575 . ?
C2 N2 C4 74(2) 2_675 . ?
C3 N2 C4 108.7(14) . . ?
C3 N2 C4 70.4(16) 7_575 . ?
C3 N2 C4 108.7(14) 8_755 . ?
C3 N2 C4 70.4(16) 2_675 . ?
C2 N2 C4 74(2) . 2_675 ?
C2 N2 C4 74(2) 8_755 2_675 ?
C2 N2 C4 108.8(15) 7_575 2_675 ?
C2 N2 C4 108.8(15) 2_675 2_675 ?
C3 N2 C4 70.4(16) . 2_675 ?
C3 N2 C4 108.7(14) 7_575 2_675 ?
C3 N2 C4 70.4(16) 8_755 2_675 ?
C3 N2 C4 108.7(14) 2_675 2_675 ?
C4 N2 C4 177(3) . 2_675 ?
C1 C1 C2 88(3) 2_675 2_675 ?
C1 C1 C2 88(3) 2_675 8_755 ?
C2 C1 C2 43(3) 2_675 8_755 ?
C1 C1 N1 71.6(12) 2_675 2_675 ?
C2 C1 N1 139(2) 2_675 2_675 ?
C2 C1 N1 158(4) 8_755 2_675 ?
C1 C1 N1 71.6(12) 2_675 . ?
C2 C1 N1 158(4) 2_675 . ?
C2 C1 N1 139(2) 8_755 . ?
N1 C1 N1 27.5(18) 2_675 . ?
C1 C1 C2 53.4(16) 2_675 . ?
C2 C1 C2 52(2) 2_675 . ?
C2 C1 C2 34(3) 8_755 . ?
N1 C1 C2 125(2) 2_675 . ?
N1 C1 C2 115.5(18) . . ?
C1 C1 C2 53.4(16) 2_675 7_575 ?
C2 C1 C2 34(3) 2_675 7_575 ?
C2 C1 C2 52(2) 8_755 7_575 ?
N1 C1 C2 115.5(18) 2_675 7_575 ?
N1 C1 C2 125(2) . 7_575 ?
C2 C1 C2 34(3) . 7_575 ?
C2 C2 C2 90.00(2) 8_755 7_575 ?
C2 C2 C1 92(3) 8_755 2_675 ?
C2 C2 C1 68.7(14) 7_575 2_675 ?
C2 C2 C2 46(4) 8_755 2_675 ?
C2 C2 C2 44(4) 7_575 2_675 ?
C1 C2 C2 76(2) 2_675 2_675 ?
C2 C2 N2 73.4(14) 8_755 . ?
C2 C2 N2 72.8(14) 7_575 . ?
C1 C2 N2 139(3) 2_675 . ?
C2 C2 N2 65.7(12) 2_675 . ?
C2 C2 C1 53.4(16) 8_755 . ?
C2 C2 C1 73.0(13) 7_575 . ?
C1 C2 C1 39(3) 2_675 . ?
C2 C2 C1 51.4(14) 2_675 . ?
N2 C2 C1 115.2(19) . . ?
C2 C2 C4 76.6(11) 8_755 2_675 ?
C2 C2 C4 127.1(9) 7_575 2_675 ?
C1 C2 C4 160(3) 2_675 2_675 ?
C2 C2 C4 106(3) 2_675 2_675 ?
N2 C2 C4 54.3(13) . 2_675 ?
C1 C2 C4 128(2) . 2_675 ?
C2 C2 C3 117.7(14) 8_755 8_755 ?
C2 C2 C3 91.4(15) 7_575 8_755 ?
C1 C2 C3 144(3) 2_675 8_755 ?
C2 C2 C3 110(2) 2_675 8_755 ?
N2 C2 C3 48.2(14) . 8_755 ?
C1 C2 C3 161.2(18) . 8_755 ?
C4 C2 C3 54.3(18) 2_675 8_755 ?
C3 C3 N2 70.8(14) 7_575 . ?
C3 C3 C4 127.1(9) 7_575 2_675 ?
N2 C3 C4 56.2(11) . 2_675 ?
C3 C3 C2 88.6(15) 7_575 8_755 ?
N2 C3 C2 47.9(15) . 8_755 ?
C4 C3 C2 58(3) 2_675 8_755 ?
N2 C4 C3 53.4(10) . 2_675 ?
N2 C4 C3 53.4(10) . 7_575 ?
C3 C4 C3 101(3) 2_675 7_575 ?
N2 C4 C2 51.3(14) . 7_575 ?
C3 C4 C2 67(2) 2_675 7_575 ?
C3 C4 C2 88.4(17) 7_575 7_575 ?
N2 C4 C2 51.3(14) . 2_675 ?
C3 C4 C2 88.4(17) 2_675 2_675 ?
C3 C4 C2 67(2) 7_575 2_675 ?
C2 C4 C2 27(2) 7_575 2_675 ?
loop_
_geom_bond_atom_site_label_1
_geom_bond_atom_site_label_2
_geom_bond_distance
_geom_bond_site_symmetry_2
_geom_bond_publ_flag
Pb1 Cl4 2.843(4) . ?
Pb1 Cl2 2.8700(5) . ?
Pb1 Cl3 2.8763(13) . ?
Pb1 Cl4 2.892(4) 5_667 ?
Pb1 Cl1 2.9341(3) 1_545 ?
Pb1 Cl1 2.9341(3) . ?
Cl1 Pb1 2.9341(2) 1_565 ?
Cl2 Pb1 2.8701(5) 5_666 ?
Cl3 Pb1 2.8763(13) 2_565 ?
Cl4 Pb1 2.892(4) 5_667 ?
N1 N1 0.71(4) 2_675 ?
N1 C1 1.485(19) . ?
N1 C1 1.485(19) 2_675 ?
N2 C2 1.471(18) . ?
N2 C2 1.472(18) 8_755 ?
N2 C2 1.472(18) 7_575 ?
N2 C2 1.472(18) 2_675 ?
N2 C3 1.479(17) . ?
N2 C3 1.479(17) 7_575 ?
N2 C3 1.479(17) 8_755 ?
N2 C3 1.479(17) 2_675 ?
N2 C4 1.531(15) . ?
N2 C4 1.531(15) 2_675 ?
C1 C1 0.94(6) 2_675 ?
C1 C2 1.20(3) 2_675 ?
C1 C2 1.20(3) 8_755 ?
C1 N1 1.485(19) 2_675 ?
C1 C2 1.489(19) . ?
C1 C2 1.489(19) 7_575 ?
C2 C2 0.84(7) 8_755 ?
C2 C2 0.87(7) 7_575 ?
C2 C1 1.20(3) 2_675 ?
C2 C2 1.21(6) 2_675 ?
C2 C4 1.82(5) 2_675 ?
C2 C3 1.97(5) 8_755 ?
C3 C3 0.97(7) 7_575 ?
C3 C4 1.73(4) 2_675 ?
C3 C2 1.97(5) 8_755 ?
C4 C3 1.73(4) 2_675 ?
C4 C3 1.73(4) 7_575 ?
C4 C2 1.82(5) 7_575 ?
C4 C2 1.82(5) 2_675 ?
