#------------------------------------------------------------------------------
#$Date: 2020-03-04 03:38:54 +0200 (Wed, 04 Mar 2020) $
#$Revision: 248706 $
#$URL: file:///home/coder/svn-repositories/cod/cif/4/13/41/4134176.cif $
#------------------------------------------------------------------------------
#
# This file is available in the Crystallography Open Database (COD),
# http://www.crystallography.net/
#
# All data on this site have been placed in the public domain by the
# contributors.
#
data_4134176
loop_
_publ_author_name
'Patel, Harshal D.'
'Tran, Thanh-Huyen'
'Sumby, Christopher J.'
'Pa\<steka, Luk\'a\<s F'
'Fallon, Thomas'
_publ_section_title
;
 Boronate Ester Bullvalenes.
;
_journal_issue                   8
_journal_name_full               'Journal of the American Chemical Society'
_journal_page_first              3680
_journal_page_last               3685
_journal_paper_doi               10.1021/jacs.9b12930
_journal_volume                  142
_journal_year                    2020
_chemical_formula_moiety         'C18 H14 N4'
_chemical_formula_sum            'C18 H14 N4'
_chemical_formula_weight         286.33
_space_group_crystal_system      triclinic
_space_group_IT_number           2
_space_group_name_Hall           '-P 1'
_space_group_name_H-M_alt        'P -1'
_atom_sites_solution_hydrogens   geom
_atom_sites_solution_primary     direct
_audit_creation_date             2019-10-09
_audit_creation_method
;
Olex2 1.2
(compiled 2018.05.29 svn.r3508 for OlexSys, GUI svn.r5506)
;
_cell_angle_alpha                109.120(5)
_cell_angle_beta                 92.769(4)
_cell_angle_gamma                96.001(4)
_cell_formula_units_Z            2
_cell_length_a                   5.9688(3)
_cell_length_b                   9.4191(5)
_cell_length_c                   12.8890(6)
_cell_measurement_reflns_used    3134
_cell_measurement_temperature    150(2)
_cell_measurement_theta_max      28.8420
_cell_measurement_theta_min      3.9420
_cell_volume                     678.27(6)
_computing_cell_refinement       'CrysAlisPro 1.171.38.46 (Rigaku OD, 2015)'
_computing_data_collection       'CrysAlisPro 1.171.38.46 (Rigaku OD, 2015)'
_computing_data_reduction        'CrysAlisPro 1.171.38.46 (Rigaku OD, 2015)'
_computing_molecular_graphics    'Olex2 (Dolomanov et al., 2009)'
_computing_publication_material  'Olex2 (Dolomanov et al., 2009)'
_computing_structure_refinement  'ShelXL (Sheldrick, 2015)'
_computing_structure_solution    'ShelXS (Sheldrick, 2008)'
_diffrn_ambient_environment      N~2~
_diffrn_ambient_temperature      150(2)
_diffrn_detector                 'CCD plate'
_diffrn_detector_area_resol_mean 16.1695
_diffrn_detector_type            Eos
_diffrn_measured_fraction_theta_full 0.998
_diffrn_measured_fraction_theta_max 0.896
_diffrn_measurement_details
;
List of Runs (angles in degrees, time in seconds):

  # Type    Start    End  Width  t~exp~   \w     \q     \k     \f   Frames
--------------------------------------------------------------------------
  1  \w    -88.00   2.00   1.00   30.00    --  -19.50 -57.00 -90.00   90
  2  \w    -95.00 -35.00   1.00   30.00    --  -19.50-178.00  30.00   60
  3  \w    -88.00   2.00   1.00   30.00    --  -19.50 -57.00-180.00   90
  4  \w    -50.00  51.00   1.00   30.00    --  -19.50  77.00 150.00  101
  5  \w    -25.00  22.00   1.00   30.00    --  -19.50 -99.00  30.00   47
  6  \w    -50.00  51.00   1.00   30.00    --  -19.50  77.00  30.00  101
  7  \w    -54.00  45.00   1.00   30.00    --   18.95 -37.00-120.00   99
  8  \w     -7.00  91.00   1.00   30.00    --   18.95  37.00-180.00   98
  9  \w    -25.00  22.00   1.00   30.00    --  -19.50 -99.00  90.00   47
 10  \w    -67.00  16.00   1.00   30.00    --  -19.50 109.00-121.00   83
 11  \w    -88.00   2.00   1.00   30.00    --  -19.50 -57.00   0.00   90
 12  \w    -16.00  58.00   1.00   30.00    --   18.95-109.00 143.00   74
 13  \w    -25.00  22.00   1.00   30.00    --  -19.50 -99.00-180.00   47
 14  \w    -95.00 -35.00   1.00   30.00    --  -19.50-178.00-120.00   60
;
_diffrn_measurement_device       'four-circle diffractometer'
_diffrn_measurement_device_type  'Xcalibur, Eos'
_diffrn_measurement_method       '\w scans'
_diffrn_orient_matrix_type
'CrysAlisPro convention (1999,Acta A55,543-557)'
_diffrn_orient_matrix_UB_11      0.0359058000
_diffrn_orient_matrix_UB_12      0.0412432000
_diffrn_orient_matrix_UB_13      0.0560879000
_diffrn_orient_matrix_UB_21      -0.1137151000
_diffrn_orient_matrix_UB_22      0.0099978000
_diffrn_orient_matrix_UB_23      0.0108726000
_diffrn_orient_matrix_UB_31      -0.0129744000
_diffrn_orient_matrix_UB_32      -0.0682373000
_diffrn_orient_matrix_UB_33      0.0124391000
_diffrn_radiation_monochromator  graphite
_diffrn_radiation_probe          x-ray
_diffrn_radiation_type           'Mo K\a'
_diffrn_radiation_wavelength     0.71073
_diffrn_reflns_av_R_equivalents  0.0446
_diffrn_reflns_av_unetI/netI     0.0440
_diffrn_reflns_Laue_measured_fraction_full 0.998
_diffrn_reflns_Laue_measured_fraction_max 0.896
_diffrn_reflns_limit_h_max       8
_diffrn_reflns_limit_h_min       -8
_diffrn_reflns_limit_k_max       12
_diffrn_reflns_limit_k_min       -12
_diffrn_reflns_limit_l_max       17
_diffrn_reflns_limit_l_min       -16
_diffrn_reflns_number            15131
_diffrn_reflns_point_group_measured_fraction_full 0.998
_diffrn_reflns_point_group_measured_fraction_max 0.896
_diffrn_reflns_theta_full        27.000
_diffrn_reflns_theta_max         29.410
_diffrn_reflns_theta_min         3.359
_diffrn_source                   'fine-focus sealed X-ray tube'
_diffrn_source_type              'Enhance (Mo) X-ray Source'
_exptl_absorpt_coefficient_mu    0.087
_exptl_absorpt_correction_T_max  1.00000
_exptl_absorpt_correction_T_min  0.97366
_exptl_absorpt_correction_type   multi-scan
_exptl_absorpt_process_details
;
CrysAlisPro 1.171.38.46 (Rigaku Oxford Diffraction, 2015)
Empirical absorption correction using spherical harmonics,
 implemented in SCALE3 ABSPACK scaling algorithm.
;
_exptl_crystal_colour            colourless
_exptl_crystal_colour_primary    colourless
_exptl_crystal_density_diffrn    1.402
_exptl_crystal_description       rod
_exptl_crystal_F_000             300
_exptl_crystal_size_max          0.5
_exptl_crystal_size_mid          0.18
_exptl_crystal_size_min          0.07
_refine_diff_density_max         0.298
_refine_diff_density_min         -0.211
_refine_diff_density_rms         0.046
_refine_ls_extinction_method     none
_refine_ls_goodness_of_fit_ref   1.039
_refine_ls_hydrogen_treatment    constr
_refine_ls_matrix_type           full
_refine_ls_number_parameters     199
_refine_ls_number_reflns         3346
_refine_ls_number_restraints     0
_refine_ls_restrained_S_all      1.039
_refine_ls_R_factor_all          0.0741
_refine_ls_R_factor_gt           0.0473
_refine_ls_shift/su_max          0.000
_refine_ls_shift/su_mean         0.000
_refine_ls_structure_factor_coef Fsqd
_refine_ls_weighting_details
'w=1/[\s^2^(Fo^2^)+(0.0321P)^2^+0.2880P] where P=(Fo^2^+2Fc^2^)/3'
_refine_ls_weighting_scheme      calc
_refine_ls_wR_factor_gt          0.0912
_refine_ls_wR_factor_ref         0.1007
_reflns_Friedel_coverage         0.000
_reflns_number_gt                2495
_reflns_number_total             3346
_reflns_threshold_expression     'I > 2\s(I)'
_iucr_refine_instructions_details
;
REM reset to P-1 #2
REM <HKL>D:/XcaliburData/Fallon/HPbpyrimB/struct/olex2_HPbpyrimB/HPbpyrimB.hkl
REM </HKL>
REM  HPbpyrimB in P-1 #2
REM R1 =  0.2528 for    2495 Fo > 4sig(Fo)  and  0.2834 for all    3346 data
REM     85 parameters refined using      0 restraints
REM Highest difference peak  6.235,  deepest hole -0.906,  1-sigma level  0.217
REM  HPbpyrimB in P-1 #2
REM R1 =  0.0471 for    2495 Fo > 4sig(Fo)  and  0.0739 for all    3346 data
REM    199 parameters refined using      0 restraints
REM Highest difference peak  0.309,  deepest hole -0.209,  1-sigma level  0.046
TITL HPbpyrimB in P-1 #2
CELL 0.71073 5.9688 9.4191 12.8890 109.120 92.769 96.001
ZERR 2.0000 0.0003 0.0005 0.0006 0.005 0.004 0.004
LATT 1
SFAC C H N
UNIT 36 28 8
MERG 2
FMAP 2
GRID
PLAN 5
TEMP -123
SIZE 0.5 0.18 0.07
BOND $H
CONF
L.S. 20
ACTA 54
WGHT    0.032100    0.288000
FVAR       8.52219
C1    1   -0.053627    0.135606    0.791391    11.00000    0.01872    0.01868 =
         0.01818    0.00699    0.00182    0.00525
AFIX  13
H1    2   -0.059739    0.247370    0.818808    11.00000   -1.20000
AFIX   0
C2    1    0.063676    0.096477    0.685068    11.00000    0.01465    0.01868 =
         0.01568    0.00656   -0.00092    0.00149
C3    1    0.092810   -0.046619    0.627540    11.00000    0.01721    0.02112 =
         0.01579    0.00588    0.00099    0.00205
AFIX  43
H3    2    0.165655   -0.060709    0.561617    11.00000   -1.20000
AFIX   0
C4    1    0.025509   -0.183201    0.654530    11.00000    0.02102    0.01673 =
         0.01944    0.00389    0.00074    0.00231
AFIX  13
H4    2    0.066488   -0.277960    0.600161    11.00000   -1.20000
AFIX   0
C5    1    0.034896   -0.183833    0.773642    11.00000    0.02151    0.01801 =
         0.02330    0.00960    0.00106    0.00262
AFIX  13
H5    2    0.081357   -0.278705    0.782096    11.00000   -1.20000
AFIX   0
C6    1    0.117251   -0.047088    0.866232    11.00000    0.01988    0.02196 =
         0.01780    0.00879    0.00003    0.00263
AFIX  43
H6    2    0.201237   -0.061377    0.925751    11.00000   -1.20000
AFIX   0
C7    1    0.088656    0.096197    0.877394    11.00000    0.01559    0.02205 =
         0.01546    0.00689    0.00311    0.00424
C8    1   -0.293038    0.056338    0.770716    11.00000    0.01663    0.03490 =
         0.02280    0.01235    0.00428    0.00890
AFIX  43
H8    2   -0.412210    0.117674    0.784947    11.00000   -1.20000
AFIX   0
C9    1   -0.349031   -0.093182    0.734015    11.00000    0.01443    0.03804 =
         0.02898    0.01446    0.00150    0.00039
AFIX  43
H9    2   -0.505871   -0.129527    0.723871    11.00000   -1.20000
AFIX   0
C10   1   -0.192835   -0.206987    0.707777    11.00000    0.02145    0.02199 =
         0.02565    0.00880   -0.00126   -0.00468
AFIX  13
H10   2   -0.268487   -0.313940    0.681329    11.00000   -1.20000
AFIX   0
N11   3    0.419480    0.340467    0.559922    11.00000    0.02599    0.02647 =
         0.02797    0.01249    0.00311   -0.00108
C12   1    0.287721    0.450614    0.574877    11.00000    0.03310    0.02107 =
         0.02493    0.01038    0.00232   -0.00151
AFIX  43
H12   2    0.338124    0.531352    0.549365    11.00000   -1.20000
AFIX   0
N13   3    0.093401    0.459218    0.621712    11.00000    0.03363    0.01973 =
         0.02528    0.00945    0.00329    0.00412
C14   1    0.025596    0.345518    0.657402    11.00000    0.02439    0.02070 =
         0.02008    0.00630    0.00263    0.00256
AFIX  43
H14   2   -0.111155    0.348446    0.692391    11.00000   -1.20000
AFIX   0
C15   1    0.144661    0.222414    0.646140    11.00000    0.01974    0.01595 =
         0.01269    0.00269   -0.00254   -0.00104
C16   1    0.344862    0.227938    0.595866    11.00000    0.02193    0.02004 =
         0.02194    0.00696    0.00074    0.00202
AFIX  43
H16   2    0.433300    0.147153    0.586620    11.00000   -1.20000
AFIX   0
N21   3    0.232219    0.470185    1.106796    11.00000    0.03404    0.02422 =
         0.02431    0.00218   -0.00058    0.00465
C22   1    0.441385    0.451691    1.135513    11.00000    0.03328    0.03071 =
         0.02464    0.00251   -0.00522   -0.00004
AFIX  43
H22   2    0.524075    0.533571    1.193363    11.00000   -1.20000
AFIX   0
N23   3    0.547936    0.331035    1.092153    11.00000    0.02641    0.03623 =
         0.02685    0.00385   -0.00644    0.00333
C24   1    0.429198    0.219221    1.010151    11.00000    0.02384    0.02666 =
         0.02239    0.00572   -0.00017    0.00745
AFIX  43
H24   2    0.499156    0.131463    0.976093    11.00000   -1.20000
AFIX   0
C25   1    0.208693    0.222697    0.971061    11.00000    0.02165    0.01997 =
         0.01585    0.00826    0.00263    0.00254
C26   1    0.117760    0.354595    1.024924    11.00000    0.02214    0.02309 =
         0.02438    0.00714    0.00001    0.00328
AFIX  43
H26   2   -0.032831    0.363006    1.002505    11.00000   -1.20000
AFIX   0
HKLF 4
 
REM  HPbpyrimB in P-1 #2
REM R1 =  0.0473 for    2495 Fo > 4sig(Fo)  and  0.0741 for all    3346 data
REM    199 parameters refined using      0 restraints
 
END  
     
WGHT      0.0293      0.3062 

REM Highest difference peak  0.298,  deepest hole -0.211,  1-sigma level  0.046
Q1    1   0.0093  0.1158  0.8410  11.00000  0.05    0.30
Q2    1   0.1039  0.1562  0.6650  11.00000  0.05    0.27
Q3    1   0.1622  0.0224  0.8444  11.00000  0.05    0.26
Q4    1   0.0607 -0.1190  0.6378  11.00000  0.05    0.25
Q5    1   0.0119  0.1216  0.7352  11.00000  0.05    0.24
;
_cod_data_source_file            ja9b12930_si_002.cif
_cod_data_source_block           HPbpyrimB
_cod_depositor_comments
'Adding full bibliography for 4134168--4134181.cif.'
_cod_database_code               4134176
_shelxl_version_number           2014/6
_chemical_oxdiff_formula         C18H14N4
_chemical_oxdiff_usercomment     'colourless rod, 0.50 x 0.18 x 0.07'
_shelx_space_group_comment
;
The symmetry employed for this shelxl refinement is uniquely defined
by the following loop, which should always be used as a source of
symmetry information in preference to the above space-group names.
They are only intended as comments.
;
_shelx_estimated_absorpt_t_max   0.994
_shelx_estimated_absorpt_t_min   0.958
_reflns_odcompleteness_completeness 99.86
_reflns_odcompleteness_iscentric 1
_reflns_odcompleteness_theta     26.32
_olex2_refinement_description
;
1. Fixed Uiso
 At 1.2 times of:
  All C(H) groups
2.a Ternary CH refined with riding coordinates:
 C1(H1), C4(H4), C5(H5), C10(H10)
2.b Aromatic/amide H refined with riding coordinates:
 C3(H3), C6(H6), C8(H8), C9(H9), C12(H12), C14(H14), C16(H16), C22(H22),
 C24(H24), C26(H26)
;
_olex2_submission_special_instructions 'No special instructions were received'
_oxdiff_exptl_absorpt_empirical_details
;
Empirical correction (ABSPACK) includes:
- Absorption correction using spherical harmonics
- Frame scaling
;
_oxdiff_exptl_absorpt_empirical_full_max 1.068
_oxdiff_exptl_absorpt_empirical_full_min 0.952
loop_
_space_group_symop_operation_xyz
'x, y, z'
'-x, -y, -z'
loop_
_atom_site_label
_atom_site_type_symbol
_atom_site_fract_x
_atom_site_fract_y
_atom_site_fract_z
_atom_site_U_iso_or_equiv
_atom_site_adp_type
_atom_site_occupancy
_atom_site_site_symmetry_order
_atom_site_calc_flag
_atom_site_refinement_flags_posn
_atom_site_refinement_flags_adp
_atom_site_refinement_flags_occupancy
_atom_site_disorder_assembly
_atom_site_disorder_group
C1 C -0.0536(2) 0.13561(16) 0.79139(12) 0.0181(3) Uani 1 1 d . . . . .
H1 H -0.0597 0.2474 0.8188 0.022 Uiso 1 1 calc R . . . .
C2 C 0.0637(2) 0.09648(16) 0.68507(11) 0.0163(3) Uani 1 1 d . . . . .
C3 C 0.0928(2) -0.04662(16) 0.62754(12) 0.0182(3) Uani 1 1 d . . . . .
H3 H 0.1657 -0.0607 0.5616 0.022 Uiso 1 1 calc R . . . .
C4 C 0.0255(2) -0.18320(16) 0.65453(12) 0.0196(3) Uani 1 1 d . . . . .
H4 H 0.0665 -0.2780 0.6002 0.024 Uiso 1 1 calc R . . . .
C5 C 0.0349(2) -0.18383(16) 0.77364(12) 0.0203(3) Uani 1 1 d . . . . .
H5 H 0.0814 -0.2787 0.7821 0.024 Uiso 1 1 calc R . . . .
C6 C 0.1173(2) -0.04709(16) 0.86623(12) 0.0194(3) Uani 1 1 d . . . . .
H6 H 0.2012 -0.0614 0.9258 0.023 Uiso 1 1 calc R . . . .
C7 C 0.0887(2) 0.09620(16) 0.87739(11) 0.0174(3) Uani 1 1 d . . . . .
C8 C -0.2930(3) 0.05634(18) 0.77072(13) 0.0236(3) Uani 1 1 d . . . . .
H8 H -0.4122 0.1177 0.7849 0.028 Uiso 1 1 calc R . . . .
C9 C -0.3490(3) -0.09318(19) 0.73402(13) 0.0266(4) Uani 1 1 d . . . . .
H9 H -0.5059 -0.1295 0.7239 0.032 Uiso 1 1 calc R . . . .
C10 C -0.1928(3) -0.20699(17) 0.70778(13) 0.0235(3) Uani 1 1 d . . . . .
H10 H -0.2685 -0.3139 0.6813 0.028 Uiso 1 1 calc R . . . .
N11 N 0.4195(2) 0.34047(15) 0.55992(11) 0.0263(3) Uani 1 1 d . . . . .
C12 C 0.2877(3) 0.45061(17) 0.57488(13) 0.0261(4) Uani 1 1 d . . . . .
H12 H 0.3381 0.5314 0.5494 0.031 Uiso 1 1 calc R . . . .
N13 N 0.0934(2) 0.45922(14) 0.62171(11) 0.0257(3) Uani 1 1 d . . . . .
C14 C 0.0256(3) 0.34552(16) 0.65740(12) 0.0219(3) Uani 1 1 d . . . . .
H14 H -0.1112 0.3484 0.6924 0.026 Uiso 1 1 calc R . . . .
C15 C 0.1447(2) 0.22241(15) 0.64614(11) 0.0170(3) Uani 1 1 d . . . . .
C16 C 0.3449(3) 0.22794(17) 0.59587(12) 0.0214(3) Uani 1 1 d . . . . .
H16 H 0.4333 0.1472 0.5866 0.026 Uiso 1 1 calc R . . . .
N21 N 0.2322(2) 0.47019(15) 1.10680(11) 0.0290(3) Uani 1 1 d . . . . .
C22 C 0.4414(3) 0.45169(19) 1.13551(14) 0.0318(4) Uani 1 1 d . . . . .
H22 H 0.5241 0.5336 1.1934 0.038 Uiso 1 1 calc R . . . .
N23 N 0.5479(2) 0.33104(16) 1.09215(11) 0.0318(3) Uani 1 1 d . . . . .
C24 C 0.4292(3) 0.21922(18) 1.01015(13) 0.0247(3) Uani 1 1 d . . . . .
H24 H 0.4992 0.1315 0.9761 0.030 Uiso 1 1 calc R . . . .
C25 C 0.2087(2) 0.22270(16) 0.97106(12) 0.0186(3) Uani 1 1 d . . . . .
C26 C 0.1178(3) 0.35459(17) 1.02492(13) 0.0234(3) Uani 1 1 d . . . . .
H26 H -0.0328 0.3630 1.0025 0.028 Uiso 1 1 calc R . . . .
loop_
_atom_site_aniso_label
_atom_site_aniso_U_11
_atom_site_aniso_U_22
_atom_site_aniso_U_33
_atom_site_aniso_U_23
_atom_site_aniso_U_13
_atom_site_aniso_U_12
C1 0.0187(7) 0.0187(7) 0.0182(7) 0.0070(6) 0.0018(6) 0.0053(6)
C2 0.0146(7) 0.0187(7) 0.0157(7) 0.0066(6) -0.0009(5) 0.0015(5)
C3 0.0172(7) 0.0211(7) 0.0158(7) 0.0059(6) 0.0010(5) 0.0020(6)
C4 0.0210(8) 0.0167(7) 0.0194(8) 0.0039(6) 0.0007(6) 0.0023(6)
C5 0.0215(8) 0.0180(7) 0.0233(8) 0.0096(6) 0.0011(6) 0.0026(6)
C6 0.0199(7) 0.0220(7) 0.0178(7) 0.0088(6) 0.0000(6) 0.0026(6)
C7 0.0156(7) 0.0221(7) 0.0155(7) 0.0069(6) 0.0031(5) 0.0042(6)
C8 0.0166(7) 0.0349(9) 0.0228(8) 0.0123(7) 0.0043(6) 0.0089(6)
C9 0.0144(7) 0.0380(9) 0.0290(9) 0.0145(7) 0.0015(6) 0.0004(6)
C10 0.0214(8) 0.0220(8) 0.0256(8) 0.0088(6) -0.0013(6) -0.0047(6)
N11 0.0260(7) 0.0265(7) 0.0280(7) 0.0125(6) 0.0031(6) -0.0011(6)
C12 0.0331(9) 0.0211(8) 0.0249(8) 0.0104(7) 0.0023(7) -0.0015(7)
N13 0.0336(8) 0.0197(6) 0.0253(7) 0.0094(5) 0.0033(6) 0.0041(6)
C14 0.0244(8) 0.0207(7) 0.0201(8) 0.0063(6) 0.0026(6) 0.0026(6)
C15 0.0197(7) 0.0160(7) 0.0127(7) 0.0027(5) -0.0025(5) -0.0010(5)
C16 0.0219(8) 0.0200(7) 0.0219(8) 0.0070(6) 0.0007(6) 0.0020(6)
N21 0.0340(8) 0.0242(7) 0.0243(7) 0.0022(6) -0.0006(6) 0.0047(6)
C22 0.0333(10) 0.0307(9) 0.0246(9) 0.0025(7) -0.0052(7) 0.0000(7)
N23 0.0264(7) 0.0362(8) 0.0268(8) 0.0038(6) -0.0064(6) 0.0033(6)
C24 0.0238(8) 0.0267(8) 0.0224(8) 0.0057(7) -0.0002(6) 0.0074(6)
C25 0.0217(8) 0.0200(7) 0.0159(7) 0.0083(6) 0.0026(6) 0.0025(6)
C26 0.0221(8) 0.0231(8) 0.0244(8) 0.0071(6) 0.0000(6) 0.0033(6)
loop_
_atom_type_symbol
_atom_type_description
_atom_type_scat_dispersion_real
_atom_type_scat_dispersion_imag
_atom_type_scat_source
C C 0.0033 0.0016 'International Tables Vol C Tables 4.2.6.8 and 6.1.1.4'
H H 0.0000 0.0000 'International Tables Vol C Tables 4.2.6.8 and 6.1.1.4'
N N 0.0061 0.0033 'International Tables Vol C Tables 4.2.6.8 and 6.1.1.4'
loop_
_geom_angle_atom_site_label_1
_geom_angle_atom_site_label_2
_geom_angle_atom_site_label_3
_geom_angle
_geom_angle_site_symmetry_1
_geom_angle_site_symmetry_3
_geom_angle_publ_flag
C2 C1 H1 108.2 . . ?
C2 C1 C7 108.60(11) . . ?
C7 C1 H1 108.2 . . ?
C8 C1 H1 108.2 . . ?
C8 C1 C2 110.71(12) . . ?
C8 C1 C7 112.83(12) . . ?
C3 C2 C1 121.94(13) . . ?
C3 C2 C15 120.51(13) . . ?
C15 C2 C1 117.55(12) . . ?
C2 C3 H3 116.2 . . ?
C2 C3 C4 127.57(13) . . ?
C4 C3 H3 116.2 . . ?
C3 C4 H4 113.8 . . ?
C3 C4 C5 122.41(12) . . ?
C3 C4 C10 122.90(13) . . ?
C5 C4 H4 113.8 . . ?
C10 C4 H4 113.8 . . ?
C10 C4 C5 59.57(10) . . ?
C4 C5 H5 113.9 . . ?
C6 C5 C4 121.17(12) . . ?
C6 C5 H5 113.9 . . ?
C6 C5 C10 123.47(13) . . ?
C10 C5 C4 60.09(10) . . ?
C10 C5 H5 113.9 . . ?
C5 C6 H6 116.1 . . ?
C7 C6 C5 127.80(14) . . ?
C7 C6 H6 116.1 . . ?
C6 C7 C1 121.94(13) . . ?
C6 C7 C25 120.15(13) . . ?
C25 C7 C1 117.79(12) . . ?
C1 C8 H8 117.7 . . ?
C9 C8 C1 124.69(14) . . ?
C9 C8 H8 117.7 . . ?
C8 C9 H9 116.8 . . ?
C8 C9 C10 126.35(14) . . ?
C10 C9 H9 116.8 . . ?
C4 C10 H10 114.2 . . ?
C5 C10 C4 60.34(10) . . ?
C5 C10 H10 114.2 . . ?
C9 C10 C4 121.44(13) . . ?
C9 C10 C5 122.13(13) . . ?
C9 C10 H10 114.2 . . ?
C16 N11 C12 115.51(14) . . ?
N11 C12 H12 116.5 . . ?
N13 C12 N11 126.92(14) . . ?
N13 C12 H12 116.5 . . ?
C12 N13 C14 115.79(13) . . ?
N13 C14 H14 118.3 . . ?
N13 C14 C15 123.46(14) . . ?
C15 C14 H14 118.3 . . ?
C14 C15 C2 122.33(13) . . ?
C16 C15 C2 122.94(13) . . ?
C16 C15 C14 114.73(13) . . ?
N11 C16 C15 123.58(14) . . ?
N11 C16 H16 118.2 . . ?
C15 C16 H16 118.2 . . ?
C22 N21 C26 115.89(14) . . ?
N21 C22 H22 116.4 . . ?
N21 C22 N23 127.24(15) . . ?
N23 C22 H22 116.4 . . ?
C24 N23 C22 115.00(14) . . ?
N23 C24 H24 117.9 . . ?
N23 C24 C25 124.15(15) . . ?
C25 C24 H24 117.9 . . ?
C24 C25 C7 121.37(13) . . ?
C26 C25 C7 124.01(13) . . ?
C26 C25 C24 114.60(14) . . ?
N21 C26 C25 123.11(15) . . ?
N21 C26 H26 118.4 . . ?
C25 C26 H26 118.4 . . ?
loop_
_geom_bond_atom_site_label_1
_geom_bond_atom_site_label_2
_geom_bond_distance
_geom_bond_site_symmetry_2
_geom_bond_publ_flag
C1 H1 1.0000 . ?
C1 C2 1.523(2) . ?
C1 C7 1.5272(19) . ?
C1 C8 1.510(2) . ?
C2 C3 1.343(2) . ?
C2 C15 1.4785(19) . ?
C3 H3 0.9500 . ?
C3 C4 1.4615(19) . ?
C4 H4 1.0000 . ?
C4 C5 1.536(2) . ?
C4 C10 1.532(2) . ?
C5 H5 1.0000 . ?
C5 C6 1.459(2) . ?
C5 C10 1.524(2) . ?
C6 H6 0.9500 . ?
C6 C7 1.340(2) . ?
C7 C25 1.479(2) . ?
C8 H8 0.9500 . ?
C8 C9 1.330(2) . ?
C9 H9 0.9500 . ?
C9 C10 1.461(2) . ?
C10 H10 1.0000 . ?
N11 C12 1.337(2) . ?
N11 C16 1.3339(19) . ?
C12 H12 0.9500 . ?
C12 N13 1.331(2) . ?
N13 C14 1.3313(19) . ?
C14 H14 0.9500 . ?
C14 C15 1.394(2) . ?
C15 C16 1.391(2) . ?
C16 H16 0.9500 . ?
N21 C22 1.330(2) . ?
N21 C26 1.337(2) . ?
C22 H22 0.9500 . ?
C22 N23 1.333(2) . ?
N23 C24 1.331(2) . ?
C24 H24 0.9500 . ?
C24 C25 1.394(2) . ?
C25 C26 1.390(2) . ?
C26 H26 0.9500 . ?
loop_
_geom_torsion_atom_site_label_1
_geom_torsion_atom_site_label_2
_geom_torsion_atom_site_label_3
_geom_torsion_atom_site_label_4
_geom_torsion
_geom_torsion_site_symmetry_1
_geom_torsion_site_symmetry_2
_geom_torsion_site_symmetry_3
_geom_torsion_site_symmetry_4
_geom_torsion_publ_flag
C1 C2 C3 C4 -0.9(2) . . . . ?
C1 C2 C15 C14 -36.69(19) . . . . ?
C1 C2 C15 C16 143.14(14) . . . . ?
C1 C7 C25 C24 -138.69(14) . . . . ?
C1 C7 C25 C26 39.4(2) . . . . ?
C1 C8 C9 C10 0.3(3) . . . . ?
C2 C1 C7 C6 -66.41(17) . . . . ?
C2 C1 C7 C25 109.47(14) . . . . ?
C2 C1 C8 C9 61.81(19) . . . . ?
C2 C3 C4 C5 -35.7(2) . . . . ?
C2 C3 C4 C10 36.7(2) . . . . ?
C2 C15 C16 N11 179.70(14) . . . . ?
C3 C2 C15 C14 142.99(15) . . . . ?
C3 C2 C15 C16 -37.2(2) . . . . ?
C3 C4 C5 C6 -1.4(2) . . . . ?
C3 C4 C5 C10 111.91(16) . . . . ?
C3 C4 C10 C5 -111.13(15) . . . . ?
C3 C4 C10 C9 0.5(2) . . . . ?
C4 C5 C6 C7 36.1(2) . . . . ?
C4 C5 C10 C9 -110.56(16) . . . . ?
C5 C4 C10 C9 111.66(16) . . . . ?
C5 C6 C7 C1 3.5(2) . . . . ?
C5 C6 C7 C25 -172.32(14) . . . . ?
C6 C5 C10 C4 109.61(15) . . . . ?
C6 C5 C10 C9 -1.0(2) . . . . ?
C6 C7 C25 C24 37.3(2) . . . . ?
C6 C7 C25 C26 -144.66(15) . . . . ?
C7 C1 C2 C3 64.16(17) . . . . ?
C7 C1 C2 C15 -116.16(13) . . . . ?
C7 C1 C8 C9 -60.1(2) . . . . ?
C7 C25 C26 N21 -177.39(14) . . . . ?
C8 C1 C2 C3 -60.23(18) . . . . ?
C8 C1 C2 C15 119.44(14) . . . . ?
C8 C1 C7 C6 56.72(19) . . . . ?
C8 C1 C7 C25 -127.39(14) . . . . ?
C8 C9 C10 C4 -36.9(2) . . . . ?
C8 C9 C10 C5 35.6(2) . . . . ?
C10 C4 C5 C6 -113.31(16) . . . . ?
C10 C5 C6 C7 -36.5(2) . . . . ?
N11 C12 N13 C14 0.3(2) . . . . ?
C12 N11 C16 C15 -0.2(2) . . . . ?
C12 N13 C14 C15 -1.0(2) . . . . ?
N13 C14 C15 C2 -179.06(14) . . . . ?
N13 C14 C15 C16 1.1(2) . . . . ?
C14 C15 C16 N11 -0.5(2) . . . . ?
C15 C2 C3 C4 179.40(13) . . . . ?
C16 N11 C12 N13 0.3(2) . . . . ?
N21 C22 N23 C24 1.0(3) . . . . ?
C22 N21 C26 C25 -0.6(2) . . . . ?
C22 N23 C24 C25 -0.8(2) . . . . ?
N23 C24 C25 C7 178.22(14) . . . . ?
N23 C24 C25 C26 0.0(2) . . . . ?
C24 C25 C26 N21 0.8(2) . . . . ?
C26 N21 C22 N23 -0.3(3) . . . . ?
loop_
_refln_index_h
_refln_index_k
_refln_index_l
_refln_F_squared_meas
_refln_F_squared_sigma
_refln_scale_group_code
0 0 2 11612 396.937 3
0 0 2 11540.8 400.248 6
0 0 -3 111161 2451.89 6
0 0 3 103847 2429.15 6
0 0 -3 109235 2442.22 3
0 0 3 107070 2434.89 3
0 0 3 107813 2485 11
0 0 3 105358 2464.38 8
0 0 -3 107190 2473.46 11
0 0 -3 114165 2485.47 8
0 0 4 70768.2 1833.82 8
0 0 -4 65848.8 1827.15 11
0 0 -4 76374.5 1864.81 8
0 0 -4 76438.8 1825.47 6
0 0 4 67249.8 1792.43 6
0 0 4 69074.6 1793.58 3
0 0 4 77335.5 1873.24 11
0 0 -4 73889.8 1813.23 3
0 0 5 14091.2 636.066 3
0 0 5 13352.9 628.542 6
0 0 -5 13783.9 663.46 11
0 0 -5 14384.8 628.549 3
0 0 6 781.078 244.514 6
0 0 6 1230.67 270.019 3
0 0 6 1880.44 333.555 14
0 0 -6 1124.35 310.452 11
0 0 7 1432.93 312.64 14
0 0 7 1521.87 294.86 6
0 0 -7 1455.74 329.438 11
0 0 7 1476.72 295.848 3
0 0 8 23787 1002.33 14
0 0 8 21391.3 993.073 6
0 0 -8 21777.7 1057.82 11
0 0 8 22465.9 1024.04 3
0 0 -9 42920.4 1647.66 11
0 0 -9 41775.1 1077.9 2
0 0 9 42283 1551.62 6
0 0 9 42206.7 1509.9 14
0 0 9 42819.8 1573.62 3
0 0 -10 171.057 81.1886 2
0 0 10 792.033 315.942 14
0 0 -10 -37.0705 288.74 11
0 0 10 290.06 293.233 3
0 0 10 286.291 258.78 6
0 0 11 1031.99 358.97 14
0 0 11 171.611 283.412 3
0 0 11 595.729 311.416 6
0 0 -11 1075.83 367.262 11
0 0 -12 3782.2 582.238 11
0 0 12 4378.6 575.444 14
0 0 12 4214.36 561.637 6
0 0 12 4131.85 584.861 3
0 0 13 1140.77 388.517 3
0 0 -13 1436.82 425.972 11
0 0 13 1791.34 443.254 6
0 0 13 1288.42 381.094 14
0 0 -14 3066.09 572.04 11
0 0 14 3199.72 536.44 14
0 0 14 1807.78 493.019 6
0 0 14 3426.59 604.159 3
0 0 15 1722.62 487.511 14
0 0 15 968.526 448.272 6
0 0 -15 462.431 417.149 11
0 0 16 656.566 382.218 6
0 -1 16 847.547 461.012 6
0 -1 16 796.537 453.864 14
0 -1 15 3014.78 566.548 14
0 -1 15 3877.49 639.44 6
0 1 -15 4175.76 685.995 11
0 1 -14 4366.19 668.185 11
0 -1 14 4583.27 625.933 14
0 -1 14 4142.75 644.641 6
0 -1 13 2072.95 455.992 6
0 -1 13 1969.76 419.246 14
0 1 -13 2964.97 573.188 11
0 -1 12 2125.85 423.524 14
0 1 -12 2240.97 505.945 11
0 -1 12 1671.52 435.258 6
0 -1 12 2335.74 448.578 3
0 -1 11 971.142 344.227 14
0 -1 11 1034.99 364.939 6
0 1 -11 432.155 339.564 11
0 -1 11 1108.45 326.469 3
0 -1 10 5092.87 521.893 14
0 -1 10 6051.08 582.067 3
0 1 -10 5579.53 613.696 11
0 -1 10 6865.44 619.051 6
0 1 -9 438.396 241.521 11
0 -1 9 107.79 225 3
0 -1 9 472.63 245.548 14
0 -1 9 152.623 259.019 6
0 -1 8 2935.74 390.712 6
0 -1 8 3345.26 389.546 3
0 -1 8 3307.21 382.674 14
0 1 -8 3104.46 434.08 11
0 -1 7 18507.7 836.649 14
0 1 -7 17935.6 889.583 11
0 -1 7 17879.2 816.788 3
0 -1 7 16710.6 834.412 6
0 -1 6 1636.75 254.52 9
0 -1 6 1400.35 284.544 6
0 1 -6 1448.95 304.395 11
0 -1 6 1193.48 271.015 14
0 -1 6 1220.99 249.734 3
0 1 -5 4328.23 347.371 8
0 -1 5 3049.68 300.63 3
0 1 -5 3266.77 165.959 12
0 -1 5 4037.33 294.312 9
0 -1 5 3359.95 352.981 6
0 1 -5 3087.2 159.891 10
0 1 -5 3869.71 311.551 3
0 1 -5 3503.94 357.736 11
0 -1 5 3162.21 328.037 14
0 1 -4 174305 4088.94 11
0 1 -4 190655 4063.02 8
0 -1 4 199851 4133.78 11
0 1 -4 185325 4005.82 3
0 -1 4 182412 4058.94 14
0 1 -4 198617 4124.72 6
0 -1 4 187927 3817.11 10
0 -1 4 184681 4006.38 3
0 1 -4 181929 3824.4 10
0 -1 4 187283 3989.64 9
0 1 -4 182904 3819.28 12
0 -1 4 177466 4081.15 6
0 -1 4 186795 4132.42 5
0 1 -4 178410 4111.26 5
0 1 -4 190495 4073.94 14
0 -1 3 19782.3 649.673 14
0 1 -3 19168.5 668.042 5
0 -1 3 19526.4 664.778 6
0 -1 3 20133.1 602.842 9
0 1 -3 20390.3 662.315 11
0 1 -3 19487.6 527.24 12
0 -1 3 20770.3 529.617 12
0 1 -3 19439.2 597.867 3
0 1 -3 17175.6 589.417 9
0 1 -3 20277.8 668.146 6
0 -1 3 19909.1 673.173 5
0 -1 3 20797.1 670.383 11
0 1 -3 20160.4 653.569 14
0 -1 3 20581 529.06 10
0 1 -3 19483.4 528.815 10
0 -1 2 23311.4 668.812 14
0 1 -2 23426.5 667.395 11
0 -1 2 24491.7 678.319 11
0 1 -2 24288.1 651.657 7
0 1 2 425404 9053.96 6
0 1 2 453657 9112.52 11
0 1 2 461336 8990.18 10
0 -1 -2 458436 9101.48 13
0 -1 -2 452322 9164.06 8
0 -1 -2 451513 8990.9 10
0 1 2 450210 9153.59 3
0 1 2 458556 8987.04 12
0 1 2 446409 9143.2 8
0 1 2 448342 9104.75 13
0 1 2 428188 9001.46 2
0 -1 -2 454690 8986.37 12
0 -1 -2 460589 9158.29 3
0 -1 -2 457727 9009.95 2
0 -1 -2 445856 9107.3 11
0 -1 -3 36457 1051.2 6
0 -1 -3 39202.1 1116.1 3
0 1 3 34811.5 1019.07 6
0 1 3 37555.4 1109.38 3
0 -1 -3 36631.7 1077.52 11
0 1 3 39662 896.527 10
0 1 3 39378.5 897.04 12
0 -1 -3 36957.4 930.167 2
0 -1 -3 37792.8 1044.26 13
0 -1 -3 38586.3 1121.89 8
0 1 3 38835.7 1088.38 11
0 -1 -3 35822.2 888.769 10
0 1 3 36678.9 1106.05 8
0 1 4 -32.9428 233.59 8
0 1 4 7.34943 153.194 11
0 1 4 141.681 74.5595 12
0 -1 -4 111.082 169.458 13
0 1 4 172.782 68.1852 10
0 1 4 44.1181 186.619 6
0 -1 -4 82.9378 101.955 2
0 1 4 289.823 247.954 3
0 -1 -4 264.665 173.607 6
0 -1 -4 9.55537 189.007 11
0 -1 -5 2874.23 301.816 13
0 1 5 2248.84 324.463 3
0 -1 -5 2304.8 178.703 2
0 -1 -5 2229.82 317.567 11
0 1 5 1674.85 116.708 10
0 1 5 1546.56 109.366 12
0 1 5 2354.71 346.031 8
0 1 5 2108.92 286.943 6
0 -1 -6 18080.2 562.59 2
0 1 6 17069.3 834.025 8
0 1 6 16551.3 760.002 6
0 1 6 16784 818.163 3
0 -1 -6 16036 816.628 11
0 1 7 121.942 261.191 8
0 1 7 511.815 271.684 3
0 -1 -7 165.853 85.9976 2
0 1 7 66.9967 195.476 6
0 -1 -7 301.054 227.41 11
0 1 8 932.14 276.132 6
0 1 8 876.832 269.397 3
0 -1 -8 1103.6 139.032 2
0 -1 -8 1297.44 338.118 11
0 -1 -9 677.027 109.762 2
0 1 9 833.469 309.471 3
0 1 9 541.577 271.391 6
0 1 9 1364.78 344.542 14
0 -1 -9 667.086 325.123 11
0 1 10 955.882 360.586 3
0 1 10 2659.76 413.839 14
0 1 10 1561.57 355.06 6
0 -1 -10 2229.48 465.05 11
0 1 11 6318.04 627.939 6
0 1 11 6138.68 683.705 3
0 -1 -11 6017.82 664.027 11
0 1 11 6379.97 616.26 14
0 1 12 1971.56 431.937 14
0 1 12 2147.92 477.615 6
0 -1 -12 1847.36 465.658 11
0 -1 -13 667.796 427.289 11
0 1 13 318.41 328.52 14
0 1 13 -116.239 306.757 6
0 1 13 433.885 346.159 3
0 -1 -14 77.2867 367.349 11
0 1 14 373.127 393.357 3
0 1 14 684.178 403.579 14
0 1 14 459.224 376.324 6
0 1 15 -11.5482 335.965 6
0 1 15 469.229 396.802 3
0 -1 -15 320.98 390.256 11
0 -2 17 1208.64 482.681 14
0 -2 16 7777.93 894.792 6
0 -2 16 7831.07 831.017 14
0 -2 15 28.9867 334.017 14
0 2 -15 570.87 432.636 11
0 -2 15 172.436 396.122 6
0 2 -14 282.219 345.525 11
0 -2 14 1571.99 419.099 14
0 -2 14 642.164 381.094 6
0 -2 13 1028.23 355.265 14
0 2 -13 806.692 417.073 11
0 -2 13 963.276 383.407 6
0 -2 12 531.233 346.537 14
0 -2 12 323.784 327.977 6
0 2 -12 207.363 308.623 11
0 -2 11 26605.2 1305.9 6
0 -2 11 25317.7 1227.69 14
0 2 -11 26965.3 1353.86 11
0 -2 10 12560.9 830.124 6
0 2 -10 12479.1 866.579 11
0 -2 10 12747.1 808.144 14
0 2 -9 689.145 100.141 12
0 -2 9 697.162 283.081 6
0 -2 9 653.955 255.855 14
0 2 -9 1007.73 325.453 11
0 -2 8 19799.9 915.263 14
0 2 -8 19641.7 592.904 12
0 -2 8 18261.2 928.424 6
0 2 -8 18848.3 951.125 11
0 2 -8 19197.4 594.19 10
0 2 -7 1609.05 170.307 12
0 2 -7 1103.78 297.608 11
0 2 -7 1593.01 156.652 10
0 -2 7 1806.47 313.26 6
0 -2 7 987.651 291.931 14
0 -2 6 27618.7 910.412 9
0 -2 6 23836.2 959.295 14
0 -2 6 24636.7 994.164 6
0 2 -6 27300.2 780.422 10
0 2 -6 26542.3 895.235 3
0 2 -6 26573.3 1024.59 11
0 2 -6 25135.8 1037.29 5
0 -2 6 26936.3 766.974 10
0 2 -6 26093.1 769.322 12
0 2 -5 15215.8 639.553 9
0 -2 5 17217.1 571.881 10
0 2 -5 16250 564.74 10
0 -2 5 16619.5 734.485 6
0 -2 5 15842.7 705.55 14
0 -2 5 17895.1 655.671 9
0 2 -5 15971 709.633 11
0 2 -5 15666.6 621.245 3
0 2 -5 18049 665.466 8
0 2 -5 16566.9 562.873 12
0 2 -5 16408.6 743.451 5
0 2 -4 141982 3121.02 14
0 -2 4 129704 3100.91 14
0 -2 4 127906 3096.45 6
0 -2 4 134289 2959.85 12
0 -2 4 141822 3120.98 11
0 2 -4 140617 3059 7
0 2 -4 134409 2968.06 10
0 -2 4 135368 2964.57 10
0 2 -4 134855 2960.6 12
0 2 -4 127190 3009.56 9
0 -2 4 137529 3025.43 9
0 -2 4 138727 3139.08 5
0 2 -4 140361 3142.29 6
0 2 -4 128665 3112.41 5
0 2 -4 128248 3075.88 11
0 2 -3 173785 3677.64 7
0 2 -3 170204 3693.24 12
0 -2 3 172190 3701.86 10
0 -2 3 174955 3752.46 11
0 2 -3 171013 3695.83 10
0 2 -3 169412 3776.66 6
0 -2 3 176496 3705.74 9
0 -2 3 177211 3789.1 5
0 2 -3 165556 3770.14 5
0 -2 3 170296 3689.55 12
0 -2 3 168560 3766.25 6
0 -2 3 170998 3764.67 14
0 2 -3 163465 3701.5 9
0 2 -3 167687 3731.73 11
0 2 -3 180824 3787.3 14
0 2 -2 329948 7036.6 5
0 2 -2 355051 7064.62 14
0 2 -2 344795 7040.06 2
0 2 -2 342152 7032.01 6
0 2 -2 337331 6917.48 7
0 -2 2 333402 7032.81 10
0 -2 2 338960 7023.34 12
0 2 -2 341435 7009.14 4
0 2 -2 336565 7032.87 12
0 2 -2 343296 7034.5 10
0 2 -2 344819 6977.18 11
0 -2 2 343844 7026.08 6
0 -2 2 341435 7001.89 4
0 -2 2 333336 7043.73 14
0 -2 2 330944 6908.7 7
0 -2 1 1143.2 114.116 7
0 2 -1 1037.71 113.036 8
0 2 -1 1525.16 185.51 10
0 -2 1 1169.39 169.086 4
0 2 -1 1174.77 127.124 1
0 -2 1 1396.96 199.67 10
0 -2 1 1327.8 206.861 12
0 2 -1 1601.65 182.489 2
0 2 -1 1212.91 176.191 12
0 2 -1 1082.21 147.257 4
0 -2 1 1118.38 167.166 6
0 2 -1 1081.19 106.88 7
0 -2 1 981.927 124.32 8
0 2 -1 1134.7 145.793 6
0 2 0 2864.7 247.048 13
0 -2 0 3053.1 213.228 8
0 2 0 3523.2 261.22 3
0 -2 0 3471.35 251.442 3
0 -2 0 3663.36 266.05 13
0 2 0 3507.74 254.673 12
0 2 0 3348.63 213.316 8
0 2 0 2593.29 142.826 1
0 -2 0 3038.7 246.907 2
0 -2 0 3129.45 254.032 12
0 -2 0 3199.77 155.887 1
0 -2 0 3685.57 268.178 10
0 -2 0 3165.27 172.073 7
0 2 0 3416.32 250.983 2
0 -2 0 3358.84 242.953 4
0 2 0 3202.28 226.495 4
0 2 0 3607.43 261.553 10
0 2 1 1040.57 191.676 8
0 2 1 788.558 145.569 11
0 -2 -1 943.623 184.626 12
0 2 1 849.831 182.071 4
0 -2 -1 1069.49 186.808 13
0 -2 -1 1047.46 206.017 4
0 2 1 1017.55 224.812 3
0 -2 -1 1606.57 211.519 10
0 2 1 1265.51 179.005 2
0 -2 -1 645.308 184.673 3
0 -2 -1 1041.35 175.967 8
0 2 1 975.285 210.197 13
0 2 1 1077.21 174.941 12
0 -2 -1 1075.09 121.997 1
0 2 1 1082.72 169.456 10
0 -2 -1 899.474 198.956 2
0 2 2 106567 2686.22 3
0 -2 -2 117447 2500.11 1
0 -2 -2 113315 2571.55 2
0 -2 -2 113929 2662.91 4
0 -2 -2 121322 2684.63 8
0 -2 -2 119151 2714.32 3
0 2 2 113758 2664.18 13
0 -2 -2 110301 2566.14 10
0 -2 -2 112917 2563.98 12
0 -2 -2 111832 2619.87 11
0 2 2 107555 2657.97 8
0 -2 -2 119459 2671.26 13
0 2 2 118504 2584.16 2
0 2 2 117320 2576.29 10
0 2 2 116843 2568.42 12
0 2 2 113906 2602.19 11
0 2 3 59247.5 1691.19 3
0 2 3 59653.4 1659.47 8
0 2 3 62698.3 1496.11 12
0 2 3 63145.5 1507.67 10
0 2 3 58659 1539.43 6
0 -2 -3 64986.4 1641.93 13
0 2 3 62031.9 1611.94 11
0 -2 -3 59002.8 1601.23 11
0 -2 -3 60460.6 1672.73 4
0 2 3 60925.7 1511.54 2
0 -2 -3 59466.5 1489.21 10
0 2 3 60940.7 1641.86 13
0 -2 -3 60892.3 1491.54 12
0 -2 -3 61350.7 1508.85 2
0 -2 -4 22337.7 899.686 11
0 2 4 24157.8 943.963 8
0 2 4 26390.6 747.117 12
0 -2 -4 25816.4 769.65 2
0 -2 -4 24235.2 954.565 4
0 2 4 23827.7 960.39 3
0 -2 -4 23860.4 730.479 10
0 2 4 22061.2 816.119 6
0 2 4 24771.4 741.807 10
0 2 4 22968.9 758.265 2
0 -2 -5 11430.1 665.745 4
0 2 5 11633.7 438.262 12
0 2 5 11130.4 678.989 3
0 2 5 10519.3 423.328 10
0 -2 -5 10227.2 610.199 11
0 2 5 9680.32 630.17 8
0 -2 -5 11227.1 467.589 2
0 2 5 9902.51 562.861 6
0 2 6 5633.65 284.207 12
0 2 6 5137 440.905 6
0 -2 -6 5804.86 326.805 2
0 -2 -6 6164.38 509.81 11
0 2 6 6432.43 554.765 3
0 2 6 5320.4 505.718 8
0 2 6 5898.97 292.294 10
0 -2 -6 6619.2 561.901 4
0 2 7 920.795 116.876 12
0 -2 -7 1025.59 298.486 11
0 2 7 1894.46 375.546 3
0 2 7 1010.73 310.167 8
0 2 7 1002.48 254.643 6
0 2 7 1204.39 127.407 10
0 -2 -7 1198.47 159.629 2
0 -2 -8 4039.06 271.28 2
0 2 8 3770.5 431.335 6
0 2 8 3634.93 508.262 3
0 -2 -8 3142.21 437.685 11
0 -2 -9 4311.69 562.816 4
0 -2 -9 3607.25 522.015 11
0 2 9 3616.72 466.258 6
0 2 9 3715.5 524.26 3
0 -2 -9 4361.13 281.548 2
0 2 10 4233.28 580.894 3
0 -2 -10 3337.71 523.465 11
0 -2 -10 4819.64 624.079 4
0 2 10 3533.33 492.044 6
0 2 11 3626.46 525.692 6
0 2 11 4135.08 615.531 3
0 -2 -11 2603.88 498.568 11
0 2 11 4758.26 562.975 14
0 -2 -11 4195.13 645.468 4
0 2 12 8611.04 775.758 14
0 -2 -12 8761.79 905.577 4
0 2 12 6701.55 705.172 6
0 -2 -12 8726.35 857.748 11
0 2 12 7788.01 852.002 3
0 -2 -13 4136.54 731.626 4
0 2 13 4119.42 684.632 3
0 2 13 4541.17 618.969 6
0 -2 -13 4032.47 645.112 11
0 2 13 3903.07 577.579 14
0 2 14 -233.989 391.771 3
0 -2 -14 -86.4186 383.399 11
0 2 15 -609.72 468.221 3
0 -3 17 1498.55 504.781 14
0 3 -16 1804.46 530.694 11
0 -3 16 2083.18 531.28 14
0 -3 16 1631.99 543.547 6
0 -3 15 192.746 331.212 14
0 -3 15 188.843 395.642 6
0 3 -15 -3.79489 404.254 11
0 3 -14 4416.62 663.568 11
0 -3 14 4843.14 654.679 14
0 -3 14 3610.01 616.47 6
0 3 -13 1767.33 438.484 11
0 -3 13 1714.59 485.911 6
0 -3 13 1055.34 367.493 14
0 -3 12 9496.45 786.657 14
0 -3 12 8862.49 778.226 6
0 3 -12 8865.06 808.359 11
0 -3 11 309.489 285.187 14
0 -3 11 655.352 341.857 6
0 3 -11 711.272 357.816 11
0 3 -10 21656.5 1140.87 11
0 -3 10 22478.2 1144.11 6
0 -3 10 20667.4 1064.86 14
0 3 -9 18480.9 676.542 12
0 -3 9 16983.2 936.02 14
0 -3 9 18671.4 988.987 6
0 3 -9 19103.3 684.27 10
0 3 -9 18751.7 996.848 11
0 3 -8 1964.85 339.854 11
0 -3 8 2115.4 354.587 14
0 3 -8 1978.27 216.029 10
0 -3 8 1555.9 348.545 6
0 3 -8 2135.79 415.179 5
0 3 -8 2357.1 241.184 12
0 3 -7 1951.8 223.088 10
0 3 -7 1391.57 286.485 11
0 3 -7 1045.66 318.116 5
0 3 -7 887.339 203.279 9
0 3 -7 1497.6 209.796 12
0 -3 7 1540.74 300.111 14
0 -3 7 1768.92 218.792 10
0 -3 7 925.076 279.461 6
0 -3 6 -7.89149 258.858 14
0 3 -6 208.743 144.191 12
0 3 -6 306.771 202.334 9
0 -3 6 218.172 262.731 6
0 3 -6 350.712 234.068 11
0 -3 6 87.7539 153.665 10
0 3 -6 347.981 161.131 10
0 3 -6 -38.7225 259.755 5
0 3 -6 317.128 158.236 3
0 3 -5 17564.9 714.753 9
0 -3 5 16868.5 772.645 14
0 3 -5 18602 709.479 7
0 3 -5 16495 781.825 5
0 -3 5 18059.2 694.704 10
0 3 -5 17368.8 741.169 11
0 -3 5 16673.1 782.27 6
0 -3 5 18401.3 699.02 12
0 -3 5 17821.4 700.925 9
0 3 -5 18640.4 693.496 12
0 3 -5 17725.4 690.568 10
0 3 -4 2616.08 295.013 9
0 -3 4 3136.61 310.474 10
0 -3 4 2985.51 346.831 6
0 -3 4 3285.65 352.395 14
0 3 -4 3522.34 301.079 2
0 3 -4 2961.02 251.683 7
0 3 -4 2464.27 319.09 5
0 -3 4 2901.45 292.013 12
0 3 -4 3513.88 294.462 10
0 3 -4 2988.76 280.532 12
0 3 -4 2919.27 300.545 11
0 3 -4 3226.32 297.706 4
0 -3 3 23718.2 848.52 10
0 -3 3 23940.5 722.049 7
0 3 -3 25137.2 732.565 7
0 3 -3 22258.1 817.466 9
0 3 -3 26124.4 856.604 12
0 -3 3 24384.5 856.445 6
0 3 -3 25187.4 821.867 4
0 3 -3 25096.8 867.571 14
0 3 -3 26357.8 863.145 2
0 3 -3 22700.3 840.604 5
0 3 -3 25132.9 855.185 10
0 3 -3 26132.1 847.149 6
0 3 -3 23251.3 789.169 11
0 -3 3 24388.8 846.391 12
0 -3 3 23297.2 817.631 4
0 -3 3 22173 855.719 14
0 3 -2 81873.8 2036.58 10
0 3 -2 79459.6 1801.49 8
0 -3 2 79832.4 2025.34 12
0 3 -2 82795 1971.02 6
0 3 -2 78864.4 1804.37 7
0 3 -2 85423.6 2034.43 14
0 -3 2 80018.5 1966.84 6
0 -3 2 78942.6 1947.01 4
0 -3 2 77414 1791.55 7
0 3 -2 86420.9 2037.46 2
0 3 -2 82809.6 1965.74 4
0 -3 2 80256.2 2033.8 10
0 3 -2 84888.5 2030.55 12
0 -3 1 3976.53 217.476 7
0 -3 1 4208.77 358.445 12
0 3 -1 3795.17 325.425 13
0 3 -1 4810.67 334.189 3
0 3 -1 4344.23 338.029 10
0 3 -1 4397.73 220.901 7
0 -3 1 4178.41 258.075 8
0 3 -1 4629.65 335.494 2
0 3 -1 5022.79 362.12 12
0 -3 1 5091.27 368.943 2
0 -3 1 4342.88 316.462 4
0 3 -1 3943.85 280.329 4
0 3 -1 4880.08 256.326 8
0 -3 1 4281.8 360.161 10
0 3 -1 3910.46 285.826 6
0 3 -1 4623.2 244.113 1
0 3 0 46074.7 1215.87 4
0 -3 0 42969.8 1246.89 12
0 -3 0 41274.6 1218.36 2
0 3 0 41929.3 1249.25 13
0 3 0 45145.1 1253.37 2
0 3 0 41590.9 1226.26 3
0 3 0 43172.6 1130.04 8
0 -3 0 42623.1 1140.75 8
0 -3 0 45669.6 1254.38 3
0 3 0 46707.6 1265.53 12
0 -3 0 41540.1 1251.08 10
0 3 0 41017 1014.15 1
0 -3 0 43643.9 1019.5 1
0 -3 0 41211 1051.09 7
0 -3 0 41875.1 1192.2 4
0 3 0 45921.2 1264.37 10
0 -3 -1 7360.02 433.846 2
0 3 1 7739.68 299.948 1
0 3 1 7441.86 443.98 4
0 3 1 7439.98 463.465 3
0 -3 -1 7393.01 297.835 1
0 3 1 7446.56 472.546 13
0 3 1 7576.32 388.459 11
0 3 1 7957.88 443.127 12
0 -3 -1 7891.55 416.224 8
0 3 1 8496.1 442.864 10
0 -3 -1 8067.69 466.83 3
0 3 1 7896.47 425.235 8
0 -3 -1 7607.24 439.913 10
0 -3 -1 7531.79 441.012 4
0 -3 -1 7282.19 441.419 12
0 3 1 7823.68 429.906 2
0 3 2 4731.39 336.969 2
0 -3 -2 4437.71 375.041 4
0 3 2 5681.83 363.169 12
0 -3 -2 4308.81 342.141 12
0 -3 -2 4680.14 370.219 8
0 3 2 4281.96 382.957 13
0 -3 -2 4876.8 353.748 2
0 3 2 3959.23 390.987 3
0 3 2 5057.75 382.125 8
0 3 2 4606.06 328.351 11
0 -3 -2 4628.03 263.133 1
0 -3 -2 4562.62 359.606 10
0 3 2 5070.95 347.933 10
0 3 3 26431.6 1015.19 13
0 -3 -3 26073.8 951.314 11
0 3 3 25170.9 985.357 8
0 3 3 27936.9 920.087 2
0 -3 -3 25902.4 998.919 4
0 -3 -3 26030 898.839 10
0 3 3 28555.5 913.007 12
0 3 3 27081.8 1053.93 3
0 3 3 28404 918.605 10
0 -3 -3 29953.1 844.389 1
0 -3 -3 26503.9 904.808 2
0 -3 -4 1370.12 218.425 2
0 3 4 1840.17 234.086 12
0 -3 -4 1243.38 256.66 11
0 -3 -4 1267.06 206.474 10
0 3 4 988.532 273.462 3
0 -3 -4 1249.77 296.605 4
0 3 4 910.189 182.431 2
0 -3 -4 1608.02 206.505 1
0 3 4 1694 345.847 13
0 3 4 1381.61 239.669 6
0 3 4 1653.05 207.318 10
0 3 4 1207.01 305.927 8
0 3 5 169.021 124.436 12
0 3 5 469.482 136.056 10
0 -3 -5 66.723 139.669 10
0 3 5 298.078 157.83 2
0 -3 -5 230.814 154.549 2
0 -3 -5 726.441 278.139 4
0 3 5 281.658 183.842 6
0 -3 -5 330.996 213.742 11
0 3 5 529.527 270.351 8
0 3 5 105.824 255.367 3
0 3 6 -164.553 242.092 8
0 3 6 -148.637 264.704 3
0 -3 -6 491.593 258.757 11
0 3 6 137.326 188.798 6
0 3 6 241.045 113.763 10
0 -3 -6 5.65756 123.092 2
0 3 6 77.2316 108.807 12
0 -3 -6 367.732 284.967 4
0 3 7 1866.43 206.458 10
0 3 7 1545.39 194.899 12
0 3 7 2106.69 341.446 6
0 3 7 1819.96 406.096 8
0 -3 -7 1985.3 357.51 11
0 -3 -7 2442.63 454.391 4
0 -3 -7 2197.29 245.761 2
0 3 7 1924.9 419.579 3
0 -3 -8 11245.7 845.571 4
0 -3 -8 10796.9 787.516 11
0 3 8 10443.7 820.863 3
0 -3 -8 11931.6 543.299 2
0 3 8 9891.58 811.673 8
0 3 8 10476.9 706.567 6
0 3 9 8259.41 776.911 3
0 3 9 10412.4 728.173 6
0 -3 -9 9260.59 781.713 11
0 -3 -9 9524.85 824.852 4
0 -3 -10 129.514 334.615 4
0 3 10 -75.6906 266.444 6
0 3 10 560.914 390.762 3
0 -3 -10 190.353 281.335 11
0 3 11 1538.21 494.848 3
0 -3 -11 2007.3 490.079 11
0 -3 -11 790.112 470.194 4
0 3 11 1316.95 338.011 6
0 -3 -12 -109.721 377.329 11
0 3 12 791.546 379.855 14
0 3 12 -295.154 392.246 3
0 3 12 45.1024 278.134 6
0 -3 -12 584.193 439.343 4
0 -3 -13 -35.5694 363.088 11
0 -3 -13 -64.9229 419.718 4
0 3 13 -169.874 444.206 3
0 3 14 -91.4108 388.559 3
0 -3 -14 510.944 410.923 11
0 -4 17 7379.29 867.742 14
0 -4 16 567.362 405.753 14
0 4 -16 102.806 350.758 11
0 -4 16 1341.45 536.956 6
0 4 -15 241.493 369.934 11
0 -4 15 1308.81 495.2 6
0 -4 15 778.096 411.713 14
0 4 -14 -188.686 357.196 11
0 -4 14 -30.6411 362.477 14
0 -4 14 254.358 421.521 6
0 -4 13 1185.46 411.709 14
0 4 -13 2086.87 490.324 11
0 -4 13 1844.81 492.058 6
0 -4 12 1263.7 408.881 14
0 4 -12 1332.43 403.467 11
0 -4 12 1675.77 430.757 6
0 -4 11 1544.29 389.527 6
0 -4 11 1646.06 375.84 14
0 4 -11 1419.92 361.315 11
0 -4 10 11016.2 822.915 6
0 4 -10 11744.6 892.848 5
0 4 -10 12416.4 837.418 11
0 -4 10 11637.2 802.206 14
0 4 -9 4327.17 502.902 11
0 4 -9 4796.58 569.294 5
0 -4 9 4864.08 541.571 6
0 -4 9 5392.04 555.066 14
0 4 -8 58779.2 1807.69 9
0 4 -8 61628.6 1951.98 11
0 -4 8 60770.3 1961.97 14
0 4 -8 60784.4 2003.49 5
0 -4 8 63608.8 1740.22 10
0 -4 8 60256.2 1978.6 6
0 -4 7 5749.79 413.393 10
0 4 -7 5206.9 510.398 5
0 -4 7 4786.76 488.24 6
0 4 -7 4977.06 464.788 11
0 -4 7 4522.44 472.103 14
0 4 -7 4483.16 425.6 9
0 -4 6 27281.2 994.084 12
0 -4 6 26921.2 986.362 10
0 -4 6 25757.1 1084.91 6
0 -4 6 25176.9 1068.11 14
0 4 -6 26900.6 1015.37 9
0 4 -6 26270.7 1019 11
0 4 -6 26031.8 1089.12 5
0 4 -5 11453.8 525.984 7
0 4 -5 10579.7 641.591 5
0 -4 5 10893.7 645.845 6
0 4 -5 10567.2 589.155 11
0 4 -5 10831.3 599.519 9
0 -4 5 11995.3 618.041 12
0 -4 5 10708.8 648.693 14
0 -4 5 11406.3 599.998 10
0 -4 4 34661.9 1162.67 12
0 4 -4 32625.3 1113.34 9
0 4 -4 31496.4 1146.19 5
0 4 -4 34672.1 994.84 7
0 4 -4 31699.7 1074.76 11
0 -4 4 34316.3 1155.12 10
0 -4 4 33817.3 1166.68 6
0 -4 4 33839.3 1181.51 14
0 -4 4 33369.8 982.346 7
0 -4 3 71274.1 1978.53 10
0 -4 3 70385.1 1892.13 4
0 -4 3 72889.8 1706.64 7
0 4 -3 71295.2 1694.93 8
0 -4 3 73440.8 1930.35 6
0 -4 3 71610.4 1970.12 12
0 4 -3 74707.9 1725.93 7
0 4 -2 714.126 125.483 8
0 -4 2 882.396 277.865 10
0 -4 2 1004.18 144.788 7
0 4 -2 737.424 145.215 1
0 4 -2 528.621 149.601 4
0 4 -2 295.842 154.61 3
0 4 -2 729.545 219.3 13
0 -4 2 562.082 214.966 4
0 4 -2 392.892 92.0359 7
0 4 -2 947.704 191.51 6
0 -4 2 589.203 232.933 12
0 4 -1 9659.14 474.562 6
0 -4 1 9014.29 543.745 12
0 4 -1 8744.49 474.781 4
0 -4 1 9044.33 361.555 7
0 4 -1 8458.07 357.073 1
0 4 -1 8984.49 510.64 3
0 -4 1 9541 566.185 10
0 4 -1 8224.33 527.129 13
0 -4 1 9199.35 498.883 4
0 -4 1 8715.36 421.145 8
0 4 -1 9475.53 421.311 8
0 4 0 404.435 258.958 13
0 4 0 240.107 212.004 3
0 4 0 451.199 118.177 1
0 -4 0 524.356 235.848 10
0 -4 0 110.484 116.824 7
0 -4 0 -89.0277 206.649 2
0 -4 0 107.795 151.301 8
0 -4 0 114.537 103.101 1
0 4 0 149.69 149.321 8
0 -4 0 222.908 204.65 4
0 -4 -1 2347.83 306.239 2
0 4 1 2235.38 176.518 1
0 4 1 2433.7 290.015 8
0 -4 -1 2698.75 302.355 8
0 -4 -1 2305.36 312.346 10
0 -4 -1 2631.36 317.944 12
0 4 1 3003.26 382.321 13
0 4 1 2015.39 310.432 3
0 4 1 2193.6 247.372 11
0 -4 -1 2640.5 183.594 1
0 -4 -1 2486.78 323.846 4
0 -4 -2 23352.4 681.644 1
0 -4 -2 22204.9 881.5 12
0 4 2 21085.4 925.054 13
0 4 2 21591.4 811.917 11
0 -4 -2 21891.5 882.22 10
0 -4 -2 22258.7 904.074 4
0 4 2 20969 870.257 8
0 -4 -2 21116.3 863.727 2
0 4 2 21094.2 934.374 3
0 4 3 17615.5 891.784 3
0 -4 -3 19478.7 641.345 1
0 -4 -3 17861.6 771.248 2
0 -4 -3 16431.9 755.147 10
0 4 3 17253.2 860.147 13
0 4 3 16953.9 815.817 8
0 -4 -3 17450.2 837.324 4
0 4 4 4469.52 389.508 6
0 4 4 3868.07 428.605 8
0 -4 -4 5470.77 342.105 1
0 -4 -4 4768.05 389.686 2
0 -4 -4 5343.79 494.463 4
0 4 4 4380.09 494.526 3
0 4 4 5411.16 515.596 13
0 -4 -4 4532 381.63 10
0 -4 -5 2317.17 363.977 11
0 4 5 2471.83 390.032 8
0 4 5 1999.55 401.537 3
0 -4 -5 2417.13 294.298 2
0 -4 -5 1986.63 380.268 4
0 4 5 2239.37 307.276 6
0 -4 -5 2382.47 300.739 10
0 4 6 12921.5 709.631 6
0 -4 -6 13181.7 811.223 11
0 -4 -6 13977.8 863.458 4
0 -4 -6 13804 666.32 2
0 4 6 11852.9 816.219 8
0 4 6 14152.1 908.944 3
0 4 7 4785.77 611.307 3
0 4 7 4122.84 541.899 8
0 -4 -7 4821.75 571.995 4
0 -4 -7 4529.48 372.944 2
0 4 7 4011.62 430.688 6
0 -4 -7 4443.81 525.438 11
0 4 8 377.132 310.432 3
0 4 8 -154.716 221.631 6
0 -4 -8 -395.234 306.623 11
0 4 8 -199.622 315.493 8
0 -4 -8 -179.517 345.593 4
0 -4 -8 342.952 172.884 2
0 -4 -9 3500.28 557.879 11
0 4 9 3316.37 452.855 6
0 -4 -9 2632.3 507.932 4
0 4 9 3320.51 556.121 3
0 4 10 9806.87 931.38 3
0 -4 -10 9536 855.389 11
0 4 10 9051.84 718.069 6
0 -4 -10 9780.99 906.935 4
0 4 11 231.755 359.73 3
0 -4 -11 -353.303 375.661 11
0 -4 -11 14.8271 371.407 4
0 -4 -12 1412.73 455.289 11
0 4 12 1799.8 520.23 3
0 -4 -12 1966.51 583.328 4
0 -4 -13 8.16658 361.432 11
0 -5 17 6086.24 821.709 14
0 5 -16 442.957 407.617 11
0 -5 16 -49.9446 403.776 6
0 -5 16 -106.576 363.322 14
0 -5 15 3410.64 626.34 6
0 5 -15 2664.02 576.51 11
0 -5 15 2978.98 573.283 14
0 -5 14 67.8694 333.689 14
0 5 -14 287.857 334.404 11
0 -5 14 473.986 407.769 6
0 -5 13 7066.06 799.075 6
0 5 -13 8456.32 831.986 11
0 -5 13 7050.05 757.297 14
0 5 -12 455.539 326.238 11
0 -5 12 563.359 359.067 14
0 -5 12 502.086 368.148 6
0 -5 11 -448.822 371.341 6
0 5 -11 495.904 455.414 5
0 5 -11 -491.09 341.514 11
0 -5 11 34.7173 291.216 14
0 -5 10 946.043 366.904 6
0 5 -10 462.966 238.837 9
0 5 -10 1226.65 389.875 5
0 -5 10 286.818 279.061 14
0 5 -10 1153.57 352.266 11
0 5 -9 524.414 331.364 5
0 5 -9 246.44 240.227 9
0 -5 9 338.553 306.389 6
0 5 -9 673.898 305.066 11
0 -5 9 -24.4119 281.73 14
0 -5 9 396.242 207.538 10
0 5 -8 559.41 260.182 9
0 -5 8 228.632 299.688 14
0 5 -8 -311.197 339.645 5
0 5 -8 176.46 236.089 11
0 -5 8 435.812 299.728 6
0 -5 8 390.605 221.509 10
0 -5 7 -139.721 257.117 14
0 -5 7 39.1877 188.536 10
0 -5 7 148.462 257.629 6
0 5 -7 3.89722 198.036 11
0 5 -7 329.953 264.668 9
0 5 -7 -390.36 321.519 5
0 -5 6 5859.93 531.034 6
0 5 -6 6255.4 480.449 11
0 5 -6 6541.99 559.726 5
0 -5 6 7029.11 519.102 12
0 5 -6 6082.67 499.739 9
0 -5 6 6586.22 514.269 10
0 -5 6 5806.43 542.751 14
0 -5 5 2742.29 363.3 6
0 -5 5 2861.35 355.152 10
0 5 -5 2962.86 275.719 7
0 5 -5 2640.98 360.484 5
0 5 -5 3016.41 377.586 9
0 5 -5 3074.92 335.097 11
0 -5 5 2752.52 370.47 12
0 -5 4 810.174 265.595 12
0 5 -4 790.574 148.681 7
0 5 -4 1040.93 192.533 11
0 -5 4 958.974 256.838 4
0 -5 4 1000.07 251.41 6
0 5 -4 790.061 228.183 5
0 -5 4 1092.89 174.468 7
0 5 -4 840.491 146.607 8
0 -5 4 1071.56 295.203 10
0 -5 3 26396.5 1002.85 4
0 -5 3 27322.3 1014.55 6
0 5 -3 26940.4 897.592 1
0 5 -3 26592.7 963.125 3
0 -5 3 26291 1084.6 10
0 5 -3 26843.8 814.509 8
0 -5 3 26937.5 794.815 7
0 -5 3 25781.9 1075.74 12
0 5 -3 28463.2 818.071 7
0 5 -2 21354.5 724.136 1
0 -5 2 20941.3 747.826 8
0 5 -2 20991.4 876.641 3
0 -5 2 22314.4 667.247 7
0 5 -2 21879.6 719.324 8
0 5 -2 21925.9 960.206 13
0 -5 2 22230.7 969.497 10
0 -5 2 22218.7 891.972 4
0 -5 2 21313.6 955.764 12
0 5 -2 22142.5 670.455 7
0 5 -1 82.562 142.259 8
0 -5 1 -142.557 236.967 12
0 -5 1 33.876 98.6768 7
0 -5 1 -90.281 207.324 4
0 5 -1 65.098 197.356 3
0 5 -1 -286.367 150.676 1
0 5 -1 10.0133 236.782 13
0 -5 1 113.021 230.622 10
0 -5 1 30.9694 127.176 8
0 5 0 885.246 147.366 1
0 5 0 308.678 170.165 8
0 -5 0 725.858 279.497 12
0 5 0 602.8 251.733 3
0 -5 0 401.173 247.151 4
0 -5 0 320.764 137.04 7
0 5 0 74.4405 237.447 13
0 -5 0 347.687 236.351 10
0 5 1 1690.69 271.749 8
0 -5 -1 1722.26 320.667 12
0 5 1 1130.02 307.685 13
0 -5 -1 1628.72 322.156 10
0 5 1 1798.11 326.706 3
0 5 1 1516.55 163.269 1
0 5 1 1791.79 242.414 11
0 -5 -1 1997.32 315.913 4
0 -5 -1 1824.96 221.053 7
0 -5 -1 1875.17 321.222 2
0 -5 -1 1724.22 161.258 1
0 5 2 618.658 269.556 13
0 -5 -2 1326.59 285.25 4
0 5 2 748.439 272.256 3
0 5 2 1498.49 292.757 8
0 -5 -2 1514.7 284.824 2
0 -5 -2 1361.19 152.163 1
0 -5 -2 1207.47 279.583 10
0 5 3 12706.5 743.045 8
0 5 3 13984.5 837.657 13
0 -5 -3 15065.5 550.191 1
0 -5 -3 13204.4 732.994 10
0 -5 -3 13870.9 790.169 4
0 5 3 13153.9 827.517 3
0 -5 -3 13246.8 722.853 2
0 -5 -4 6574.16 514.358 10
0 5 4 6910.52 618.398 13
0 -5 -4 7107.92 526.937 2
0 5 4 6427.25 584.839 8
0 5 4 6168.96 609.591 3
0 -5 -4 7256.8 613.418 4
0 -5 -4 7774.1 408.483 1
0 5 5 26861.7 1336.96 3
0 5 5 29613 1320.74 13
0 -5 -5 30783.8 1335.44 4
0 5 5 28797.7 1117.7 6
0 5 5 27184.5 1255.93 8
0 -5 -5 28177.3 1121.91 2
0 -5 -6 29956.7 1165.46 2
0 5 6 28441 1351.17 8
0 5 6 30748.1 1188.6 6
0 -5 -6 30406.8 1389.54 4
0 5 6 30847.3 1469.28 3
0 5 7 535.468 343.041 3
0 5 7 842.375 286.272 6
0 5 7 428.237 346.115 8
0 -5 -7 224.638 308.201 4
0 5 8 1249.13 392.706 3
0 5 8 1809.54 356.046 6
0 5 8 803.152 378.951 8
0 -5 -8 1127.07 453.939 4
0 -5 -9 1241.71 440.419 4
0 5 9 1087.15 432.449 3
0 5 10 1265.91 460.025 3
0 -5 -10 778.194 451.151 4
0 -5 -11 -208.12 414.751 4
0 5 11 -197.52 431.146 3
0 -5 -12 1242.94 556.175 4
0 6 -16 1400.65 505.547 11
0 -6 16 580.633 412.503 14
0 -6 15 1848.01 549.685 6
0 -6 15 777.24 437.44 14
0 6 -15 873.672 408.405 11
0 -6 14 4647.94 702.942 6
0 -6 14 5231.36 699.931 14
0 6 -14 5045.86 690.043 11
0 6 -13 6029.29 720.278 11
0 -6 13 5949.62 732.045 6
0 -6 13 6538.92 748.337 14
0 -6 12 -86.9781 376.195 6
0 -6 12 -264.643 353.481 14
0 6 -12 295.615 406.396 5
0 6 -12 178.342 323.936 11
0 -6 11 17267 1118.9 6
0 6 -11 17078.7 968.862 9
0 6 -11 15735.2 1092.04 5
0 -6 11 16917.4 1085.91 14
0 6 -11 16912.2 1052.66 11
0 6 -10 489.983 328.051 5
0 -6 10 588.625 353.293 14
0 -6 10 650.347 381.661 6
0 6 -10 920.77 324.019 11
0 6 -10 824.844 307.731 9
0 6 -9 4271.33 488.545 9
0 -6 9 4035.98 529.078 6
0 -6 9 5424.18 591.817 14
0 -6 9 5456.68 512.006 10
0 6 -9 4712.09 591.733 5
0 6 -9 4649.71 511.989 11
0 -6 8 1025.03 357.515 14
0 -6 8 903.939 339.028 6
0 6 -8 1472.55 346.467 9
0 6 -8 599.576 287.113 5
0 -6 8 1086.51 290.299 10
0 6 -8 644.17 268.828 11
0 -6 7 6695.79 602.821 6
0 6 -7 5363.3 562.105 5
0 6 -7 5060.34 470.786 11
0 -6 7 4916.46 500.542 10
0 6 -7 5376.19 531.36 9
0 -6 7 5905.69 585.881 14
0 6 -6 2500.67 399.129 9
0 6 -6 1972.96 302.416 11
0 -6 6 1828.98 374.974 6
0 -6 6 2612.61 390.737 10
0 6 -6 1511.72 351.426 5
0 6 -6 2101.44 239.242 8
0 6 -5 1060.25 236.56 1
0 -6 5 1349.26 317.968 10
0 -6 5 1484.13 213.479 7
0 6 -5 1038.65 184.555 7
0 -6 5 752.183 307.742 6
0 6 -5 1039.92 178.021 8
0 6 -5 1923.74 363.883 9
0 6 -5 1026.51 233.228 11
0 -6 5 1745.15 359.022 12
0 6 -5 1197.67 276.782 5
0 6 -4 595.861 151.335 1
0 6 -4 581.234 138.05 11
0 -6 4 728.766 245.159 4
0 6 -4 495.779 219.015 13
0 6 -4 890.545 152.885 7
0 -6 4 244.069 252.807 12
0 6 -4 251.953 153.951 3
0 -6 4 958.18 155.567 7
0 -6 4 909.077 283.244 10
0 6 -4 780.893 145.603 8
0 -6 4 515.293 229.573 6
0 6 -3 186.359 189.677 3
0 6 -3 52.2922 220.924 13
0 -6 3 350.645 240.891 10
0 6 -3 351.988 120.588 7
0 -6 3 531.412 290.937 12
0 6 -3 247.637 131.305 8
0 -6 3 280.951 123.71 7
0 -6 3 350.445 221.682 4
0 6 -3 212.542 136.198 1
0 6 -2 1223.66 292.845 3
0 -6 2 1231.67 334.819 12
0 -6 2 1344.09 283.809 4
0 -6 2 833.756 140.714 7
0 -6 2 830.3 279.136 10
0 6 -2 915.422 181.221 8
0 6 -2 802.472 162.012 1
0 -6 2 806.287 175.723 8
0 6 -2 592.115 279.829 13
0 6 -1 4527.08 281.804 1
0 6 -1 4564.5 362.703 8
0 6 -1 4518.08 460.429 3
0 6 -1 3954.35 473.679 13
0 -6 1 4436.2 445.503 4
0 -6 1 4840.78 294.791 7
0 -6 1 4272.53 483.275 12
0 -6 1 4492.83 481.86 10
0 6 0 400.054 197.179 8
0 -6 0 459.913 251.529 4
0 6 0 206.004 252.468 13
0 -6 0 151.783 122.446 7
0 -6 0 48.5516 249.072 10
0 6 0 72.6496 101.77 1
0 6 0 287.664 259.01 3
0 6 1 5134.73 439.656 8
0 6 1 4504.38 502.794 3
0 -6 -1 5222.74 361.847 7
0 -6 -1 5164.6 497.976 4
0 -6 -1 5279.95 511.987 10
0 -6 -1 5323.14 277.902 1
0 6 1 3530.57 456.38 13
0 -6 -2 5602.04 409.469 7
0 -6 -2 6081.65 551.33 10
0 6 2 5256.04 559.922 13
0 6 2 6307.46 510.137 8
0 -6 -2 5366.94 530.651 4
0 -6 -2 6168.86 307.997 1
0 6 2 5825.66 585.984 3
0 6 3 156.206 300.047 3
0 -6 -3 23.2221 232.89 10
0 -6 -3 83.1201 247.422 4
0 6 3 -197.997 273.765 8
0 6 3 399.816 327.036 13
0 6 4 391.054 334.34 13
0 -6 -4 -56.5211 255.593 4
0 6 4 91.0031 267.367 8
0 -6 -4 203.873 219.068 10
0 6 4 789.516 350.602 3
0 6 5 120.632 259.892 8
0 6 5 171.014 243.458 6
0 6 5 -183.433 323.006 3
0 -6 -5 121.646 305.178 4
0 6 6 1334.01 446.402 3
0 6 6 1216.64 409.108 8
0 6 6 1722.47 310.722 6
0 -6 -6 985.009 390.245 4
0 6 7 7452.26 759.005 8
0 6 7 7644.43 806.856 3
0 -6 -7 7441.51 754.379 4
0 6 8 3770.27 611.562 8
0 -6 -8 3178.16 567.061 4
0 6 8 2590.87 571.368 3
0 -6 -9 4009.93 667.268 4
0 6 9 2759.07 580.978 3
0 -6 -10 235.33 430.153 4
0 6 10 125.708 412.226 3
0 -6 -11 100.516 418.872 4
0 -7 16 409.554 405.373 14
0 7 -16 140.999 408.129 11
0 -7 15 1849.51 528.199 6
0 -7 15 2057.49 548.315 14
0 7 -15 2292.61 567.939 11
0 -7 14 -26.0391 350.118 14
0 -7 14 362.387 433.671 6
0 7 -14 304.387 395.393 11
0 7 -13 225.404 320.737 11
0 7 -13 632.084 466.545 5
0 -7 13 8.10994 330.857 14
0 -7 13 30.8745 352.268 6
0 -7 12 1364.67 474.017 6
0 7 -12 1038.67 324.289 9
0 7 -12 880.619 373.689 11
0 -7 12 847.885 362.638 14
0 7 -12 1242.42 448.314 5
0 7 -11 4125.57 548.205 11
0 -7 11 2650.83 532.697 6
0 7 -11 2948.8 469.982 9
0 -7 11 3715.35 562.406 14
0 7 -11 3677.16 572.263 5
0 7 -10 9768.72 855.573 5
0 -7 10 10549.3 883.37 14
0 7 -10 9491.58 761.577 11
0 7 -10 10446.1 790.753 9
0 -7 10 10421.8 754.534 10
0 -7 10 9820.33 849.961 6
0 7 -9 337.574 319.157 5
0 7 -9 782.017 286.388 11
0 -7 9 735.874 345.463 6
0 -7 9 1223.97 335.567 10
0 7 -9 782.478 353.704 9
0 -7 8 14099.5 879.635 10
0 7 -8 13935.2 957.731 5
0 -7 8 16800.2 1006.44 6
0 7 -8 14501.3 916.086 9
0 7 -8 15229.1 878.729 11
0 7 -7 4917.28 482.225 11
0 7 -7 5078.13 548.839 9
0 7 -7 4077.94 526.322 5
0 -7 7 4451.3 530.505 10
0 -7 7 4297.13 541.697 6
0 7 -7 4793.83 359.202 8
0 7 -6 8185.51 584.065 1
0 7 -6 8958.87 572.585 3
0 7 -6 8594.51 453.79 8
0 -7 6 7574.51 653.279 10
0 7 -6 6966.45 641.704 5
0 -7 6 7551.54 650.345 6
0 7 -6 7588.61 653.953 9
0 7 -6 9062.36 606.173 11
0 -7 5 11401.2 735.103 6
0 -7 5 9676.24 721.492 10
0 7 -5 10034.4 487.854 8
0 7 -5 9969.18 605.73 1
0 -7 5 9926.46 676.273 4
0 7 -5 10650.3 509.097 7
0 7 -5 10314.3 625.525 11
0 7 -5 10352.7 635.385 3
0 7 -5 8855.3 689.049 5
0 7 -5 9981.86 725.126 13
0 -7 5 11266.2 514.135 7
0 7 -4 5501.29 403.2 1
0 7 -4 5899.01 344.586 7
0 7 -4 6185.46 372.767 8
0 -7 4 5081.51 516.852 4
0 7 -4 5871.14 565.339 13
0 -7 4 6204.01 608.074 10
0 -7 4 5792.09 332.915 7
0 7 -4 5575.1 487.437 3
0 7 -3 8848.86 704.132 13
0 7 -3 9025.77 500.444 1
0 7 -3 9062.27 635.386 3
0 -7 3 9982.56 670.155 4
0 -7 3 9277.38 727.852 10
0 -7 3 9789.16 424.86 7
0 7 -3 9979.36 498.355 8
0 -7 2 6533.68 558.908 4
0 -7 2 6313.8 608.323 10
0 7 -2 6198.36 547.755 3
0 7 -2 5821.21 362.677 1
0 7 -2 6361.28 625.128 13
0 7 -2 6161.78 419.804 8
0 -7 2 6882.29 349.909 7
0 -7 1 10204.3 756.628 10
0 7 -1 10203.6 714.607 3
0 7 -1 10064.9 780.969 13
0 7 -1 10774.6 479.156 1
0 -7 1 11029.8 484.725 7
0 -7 1 11067.7 712.552 4
0 7 -1 10154.4 579.107 8
0 7 0 54743.8 1917.11 3
0 7 0 55939.2 1406.04 1
0 7 0 52130.9 1967.2 13
0 -7 0 57331.4 1518.38 7
0 -7 0 51050.4 1919.31 10
0 -7 0 53566.7 1845.09 4
0 7 0 57464.6 1725.7 8
0 -7 -1 18468.1 993.058 4
0 -7 -1 20951.4 795.784 7
0 7 1 18505.7 1094.86 13
0 7 1 18139.1 1037.79 3
0 7 1 19727.9 938.034 8
0 -7 -1 18919.6 1051.11 10
0 -7 -2 16415.6 965.398 10
0 7 2 16737 1034.56 3
0 -7 -2 17426.2 991.672 4
0 7 2 17169.2 1050.36 13
0 7 2 17659.6 930.099 8
0 -7 -2 17580.8 771.812 7
0 7 3 27869.8 1409.14 13
0 -7 -3 28585.8 1322.09 10
0 7 3 27343.1 1266.15 8
0 -7 -3 28986.3 1336.74 4
0 7 3 26601.3 1385.22 3
0 -7 -3 30630.1 1137.88 7
0 -7 -4 3958.62 550.793 4
0 7 4 5915.33 695.465 13
0 7 4 3894.01 590.08 3
0 7 4 5329.98 574.675 8
0 7 5 7124 785.079 3
0 7 5 6519.19 689.508 8
0 -7 -5 7168.05 743.301 4
0 7 5 6491 755.882 13
0 7 6 -65.5575 291.997 8
0 7 6 3.30365 344.303 3
0 -7 -6 965.164 391.679 4
0 7 7 223.778 342.251 8
0 -7 -7 -197.446 389.758 4
0 7 7 291.847 369.637 3
0 7 8 506.168 397.428 3
0 -7 -8 347.332 365.738 4
0 7 9 3149.48 650.526 3
0 -7 -9 2425.61 569.547 4
0 -7 -10 2584.39 595.289 4
0 8 -15 -621.149 432.605 11
0 -8 15 -527.044 439.206 14
0 8 -14 5713.74 816.026 5
0 -8 14 4238.69 713.001 6
0 -8 14 4949.7 731.797 14
0 8 -14 4683.56 696.2 11
0 -8 13 5507.55 767.735 14
0 8 -13 6677.61 700.706 9
0 8 -13 6775.12 846.6 5
0 -8 13 5946.8 776.33 6
0 8 -13 6086.52 716.306 11
0 8 -12 -379.137 444.426 5
0 -8 12 490.559 424.323 6
0 8 -12 240.826 315.493 11
0 8 -12 199.481 270.649 9
0 -8 11 336.111 351.879 6
0 8 -11 457.534 309.588 11
0 8 -11 217.736 342.873 5
0 8 -11 833.691 345.953 9
0 8 -10 9921.79 820.384 9
0 8 -10 8712.8 831.635 5
0 8 -10 9941.97 776.352 11
0 -8 10 8262.06 806.468 6
0 -8 10 10108 800.224 10
0 -8 9 665.831 312.741 6
0 8 -9 434.617 319.624 9
0 8 -9 38.9468 240.974 11
0 8 -9 429.746 334.492 5
0 -8 9 -44.6409 278.958 10
0 8 -8 3060.18 428.393 11
0 -8 8 2712.19 460.756 10
0 8 -8 3076.03 489.705 9
0 8 -8 3595.73 470.71 1
0 8 -8 3729.5 551.136 5
0 -8 8 4497.1 571.216 6
0 8 -7 1165.58 314.116 1
0 -8 7 1171.38 382.66 10
0 8 -7 716.401 310.441 5
0 8 -7 728.197 339.828 9
0 -8 7 1335.85 396.172 6
0 8 -7 628.508 317.293 13
0 8 -7 880.912 256.546 3
0 8 -7 923.91 276.055 11
0 8 -6 9370.35 624.658 11
0 8 -6 7748.29 704.016 5
0 8 -6 8462.17 725.521 13
0 -8 6 7417.26 714.806 10
0 8 -6 8797.44 621.246 3
0 8 -6 8306.42 716.302 9
0 8 -6 8110.15 595.954 1
0 8 -5 5130.21 565.951 13
0 8 -5 5540.86 512.432 3
0 8 -5 5123.63 435.329 1
0 -8 5 5114.86 556.119 4
0 -8 5 6093.6 627.272 10
0 8 -5 5601.38 464.454 11
0 8 -4 484.023 330.316 13
0 -8 4 652.865 138.559 7
0 -8 4 992.122 389.773 10
0 8 -4 601.968 256.463 3
0 -8 4 360.588 264.437 4
0 8 -4 520.473 135.165 8
0 8 -4 403.654 170.761 1
0 8 -3 12569.9 808.167 3
0 8 -3 12365.8 605.513 1
0 -8 3 12825.6 916.685 10
0 8 -3 12655.5 904.663 13
0 8 -3 13642.8 637.425 8
0 -8 3 13569.6 519.272 7
0 -8 3 12294.6 801.261 4
0 8 -2 15297.4 732.036 8
0 8 -2 14543.9 899.391 3
0 -8 2 16266.6 943.141 4
0 -8 2 15825.8 1011.43 10
0 8 -2 15619.4 1015 13
0 -8 2 16157.9 590.866 7
0 -8 1 11434.9 788.682 4
0 8 -1 10059.8 841.172 13
0 -8 1 11105.3 846.465 10
0 -8 1 11376.1 506.394 7
0 8 -1 9927.07 765.395 3
0 8 -1 11218.9 652.314 8
0 8 0 10143.7 799.067 3
0 8 0 9912.41 841.831 13
0 -8 0 9750.59 806.542 10
0 -8 0 11509.5 809.323 4
0 8 0 10703.6 681.896 8
0 8 1 1057.95 370.403 3
0 -8 -1 1529.94 400.968 4
0 8 1 803.106 360.842 13
0 8 1 1202.78 316.574 8
0 -8 -1 788.59 344.592 10
0 8 2 29441.1 1308.6 8
0 8 2 29761.7 1492.67 3
0 8 2 30359.2 1538.28 13
0 -8 -2 33123.4 1466.33 4
0 -8 -2 28956.6 1423.37 10
0 8 3 5389.3 698.036 13
0 8 3 5424.33 676.325 3
0 -8 -3 6855.85 684.16 4
0 8 3 6684.99 634.579 8
0 -8 -4 5247.41 658.497 4
0 8 4 3427.6 607.755 13
0 8 4 4011.22 629.632 3
0 8 4 5449.49 623.464 8
0 8 5 7408.1 838.693 3
0 8 5 8747.58 906.829 13
0 8 5 7226.34 730.277 8
0 -8 -5 6567.15 726.327 4
0 8 6 224.472 361.479 3
0 8 6 439.428 329.499 8
0 -8 -6 -39.2384 367.689 4
0 8 7 755.76 468.249 3
0 -8 -7 -91.6774 356.39 4
0 -8 -8 665.264 459.879 4
0 -8 -9 2921.69 615.699 4
0 9 -15 3734.83 663.336 11
0 -9 14 -18.6041 443.863 6
0 9 -14 460.167 494.169 5
0 9 -14 293.156 362.412 11
0 9 -13 1141.69 469.345 5
0 9 -13 1294.75 436.244 11
0 -9 13 1025.72 501.152 6
0 9 -13 505.791 326.415 9
0 9 -12 -217.935 316.121 11
0 9 -12 1077.58 406.505 5
0 -9 12 210.188 416.155 6
0 9 -12 -35.8849 303.296 9
0 9 -11 5698.57 683.654 9
0 -9 11 4814.94 692.988 6
0 9 -11 5004.6 702.252 5
0 9 -11 4639.33 622.294 1
0 9 -11 5169.34 624.044 11
0 9 -10 2941.52 567.248 5
0 -9 10 3680.68 597.148 6
0 9 -10 3568.02 548.433 9
0 9 -10 3808.33 541.483 11
0 9 -10 3531.68 538.404 1
0 -9 9 2141.64 482.787 6
0 9 -9 3044.98 514.177 13
0 -9 9 2324.2 478.273 10
0 9 -9 2158.28 463.058 9
0 9 -9 2383.53 421.156 11
0 9 -9 2255.63 427.271 1
0 9 -9 2755.24 546.989 5
0 9 -8 396.253 314.492 9
0 9 -8 55.1355 286.245 13
0 -9 8 -104.456 283.864 10
0 9 -8 163.599 331.958 5
0 9 -8 319.079 248.518 11
0 9 -8 174.683 248.995 1
0 -9 8 -66.9779 310.911 6
0 -9 7 6465.94 698.846 10
0 9 -7 6617.41 577.511 3
0 9 -7 6669.16 692.459 5
0 9 -7 5336.69 636.356 9
0 9 -7 6826.02 579.18 11
0 9 -7 6622.61 697.33 13
0 9 -7 7010.13 582.688 1
0 9 -6 3878.16 421.779 11
0 9 -6 2287.61 435.341 13
0 9 -6 2753.31 362.888 1
0 9 -6 3481.81 430.042 3
0 9 -6 3307.46 505.325 5
0 9 -6 3631.67 509.136 9
0 -9 6 3091.41 526.002 10
0 9 -5 1302.33 293.191 11
0 -9 5 1173.36 385.935 10
0 9 -5 619.999 258.513 3
0 -9 5 1229.2 367.7 4
0 9 -5 1374.28 385.901 13
0 9 -4 -165.919 312.978 13
0 -9 4 308.779 364.16 10
0 9 -4 -144.261 256.633 3
0 -9 4 -57.2058 262.365 4
0 9 -3 17489.7 1033.3 3
0 -9 3 16700.2 1122.21 10
0 -9 3 18986.7 1060.72 4
0 9 -3 15595.7 1099.32 13
0 -9 2 24957.7 1251.84 4
0 -9 2 24507.9 1359.28 10
0 9 -2 24618.3 1261.36 3
0 9 -2 23695.3 1360.78 13
0 -9 1 3445.94 528.948 10
0 9 -1 3717.56 588.112 13
0 9 -1 4772.11 607.033 3
0 -9 1 3939.67 544.818 4
0 -9 0 23353.3 1322.81 10
0 9 0 21791.5 1267.32 3
0 -9 0 24033.8 1264.27 4
0 9 0 22970.2 1367.28 13
0 9 1 2011.17 466.811 3
0 9 1 2031.13 528.365 13
0 -9 -1 1831.48 439.148 10
0 -9 -1 1553.95 403.856 4
0 9 2 125.614 382.819 13
0 -9 -2 479.882 334.375 4
0 9 2 29.6047 347.169 3
0 9 3 1119.17 447.929 3
0 9 3 144.935 261.6 8
0 9 3 625.405 448.427 13
0 -9 -3 81.1792 342.057 4
0 9 4 2716.08 493.901 8
0 9 4 3216.4 627.457 13
0 9 4 2486.1 572.618 3
0 -9 -4 2558.9 529.878 4
0 9 5 728.934 358.815 8
0 9 5 679.098 498.727 13
0 9 5 362.358 427.516 3
0 -9 -5 815.446 399.04 4
0 -9 -6 4041.65 664.446 4
0 -9 -7 3405.31 689.487 4
0 10 -14 249.921 448.637 1
0 10 -13 294.571 400.104 1
0 10 -13 245.836 364.532 9
0 -10 13 425.052 412.25 6
0 -10 12 141.212 367.525 6
0 10 -12 812.728 408.346 13
0 10 -12 -106.557 334.532 9
0 10 -12 842.288 470.079 1
0 10 -12 205.432 348.021 5
0 10 -11 523.508 345.804 13
0 10 -11 672.534 350.86 9
0 -10 11 825.648 378.448 6
0 10 -11 35.4281 339.524 1
0 10 -11 -145.539 368.458 5
0 10 -10 769.997 386.948 9
0 10 -10 707.747 404.79 5
0 10 -10 214.547 303.596 1
0 10 -10 59.147 300.072 13
0 -10 10 476.932 374.218 6
0 10 -9 2374.04 495.68 9
0 10 -9 2453 432.542 1
0 10 -9 1798.45 453.583 13
0 10 -9 1941.15 499.762 5
0 10 -8 339.797 277.824 13
0 -10 8 -99.4529 338.097 10
0 10 -8 86.5936 312.852 9
0 10 -8 261.01 295.634 5
0 10 -7 26.8972 275.211 5
0 10 -7 -182.904 271.227 9
0 10 -7 115.53 261.826 13
0 -10 7 -225.491 317.075 10
0 10 -6 361.067 245.472 3
0 10 -6 443.588 263.321 5
0 10 -6 -29.5754 294.001 13
0 10 -6 232.766 285.333 9
0 -10 6 -256.237 374.652 10
0 -10 5 9881.98 830.957 4
0 10 -5 9118.2 871.776 13
0 10 -5 9030.3 743.791 3
0 -10 5 9776.19 928.075 10
0 -10 4 6243.02 735.019 10
0 10 -4 6787.15 769.947 13
0 -10 4 7150.46 696.587 4
0 10 -4 6352.95 659.313 3
0 -10 3 765.237 356.007 4
0 -10 3 65.8497 342.397 10
0 10 -3 492.258 389.104 13
0 10 -3 499.879 368.48 3
0 10 -2 430.82 380.838 13
0 -10 2 1357.69 402.174 4
0 10 -2 1000.45 390.229 3
0 -10 2 1026.25 429.859 10
0 -10 1 1408.61 418.347 4
0 10 -1 1153.48 424.04 3
0 10 -1 2102.1 521.92 13
0 -10 1 1587.74 435.316 10
0 10 0 4747.29 665.634 3
0 -10 0 5272.17 640.167 4
0 10 0 4922.44 727.346 13
0 -10 -1 4973.19 635.46 4
0 10 1 4521.17 649.068 3
0 10 1 4444.18 702.899 13
0 10 2 4225.76 692.228 3
0 10 2 3991.55 703.127 13
0 -10 -2 4223.2 629.175 4
0 10 3 1998.42 600.584 13
0 -10 -3 2190.68 515.741 4
0 10 3 1917.97 568.684 3
0 10 4 1552.21 614.405 13
0 -10 -4 1759.92 516.453 4
0 -10 -5 3364.73 645.617 4
0 11 -13 1320.46 477.228 13
0 11 -13 1213.68 455.07 9
0 11 -12 1157.67 432.504 13
0 -11 12 1451.44 517.185 6
0 11 -12 2196.63 578.023 9
0 11 -11 2615.03 574.826 9
0 11 -11 3054.93 576.08 13
0 11 -11 2026.69 530.141 5
0 11 -10 203.2 364.765 13
0 11 -10 -462.611 365.44 9
0 11 -9 133.217 305.81 5
0 11 -9 -48.9848 338.998 9
0 11 -9 -14.8658 303.12 13
0 11 -8 935.378 376.534 13
0 11 -8 1168.59 420.693 5
0 11 -8 991.042 412.684 9
0 11 -7 697.415 360.35 5
0 11 -7 831.07 373.642 13
0 11 -7 229.495 281.614 9
0 -11 6 617.663 363.644 10
0 11 -6 1248.67 416.842 5
0 11 -6 1768.23 472.118 9
0 11 -6 1419.48 485.656 13
0 11 -5 41.3201 304.992 9
0 -11 5 272.435 325.249 4
0 11 -5 802.072 427.533 13
0 -11 4 96.0957 363.146 10
0 11 -4 94.6628 431.656 13
0 11 -4 1246.57 439.489 3
0 -11 4 -37.7772 313.287 4
0 -11 3 86.069 323.899 4
0 11 -3 -850.52 483.524 13
0 11 -3 -448.134 335.969 3
0 11 -2 2907.31 631.861 13
0 11 -2 2842.64 535.162 3
0 -11 2 3026.55 537.87 4
0 11 -1 -157.425 354.825 3
0 11 -1 -545.422 465.014 13
0 -11 1 416.888 364.093 4
0 11 0 -341.435 427.281 13
0 11 0 221.812 384.41 3
0 -11 0 463.957 389.262 4
0 11 1 1128.08 486.712 3
0 -11 -1 1190.46 463.873 4
0 12 -8 2767.96 590.718 5
0 12 -7 71.7553 298.6 5
0 12 -6 8898.71 923.764 5
0 12 -5 -38.5652 326.107 5
0 12 -2 158.749 393.15 3
0 12 -1 91.164 385.073 3
-1 12 -2 -410.485 420.368 3
-1 12 -3 3144.86 593.108 3
-1 12 -4 1404.53 478.713 5
-1 12 -4 1861.27 525.921 3
-1 12 -5 654.546 439.122 5
-1 12 -5 983.975 433.021 3
-1 12 -6 1492.44 486.754 5
-1 12 -7 5776.09 754.55 9
-1 12 -7 5399.73 714.485 5
-1 12 -8 6182.15 779.089 9
-1 12 -8 4492.86 680.162 5
-1 12 -9 457.332 379.976 9
-1 12 -9 244.05 363.969 5
-1 12 -10 -266.33 392.056 5
-1 12 -10 -155.856 379.392 9
1 -11 -3 7947.61 870.373 10
1 -11 -2 645.243 436.49 10
1 -11 -1 1412.81 509.996 10
-1 11 1 31.7471 415.624 13
-1 11 1 1010.31 439.324 3
-1 11 0 6855.8 850.391 13
-1 11 0 6233.75 770.723 3
1 -11 0 6244.2 822.398 10
-1 11 -1 216.051 405.563 13
1 -11 1 342.303 349.175 10
-1 11 -1 -642.77 411.665 3
-1 11 -2 -122.895 418.453 13
1 -11 2 645.827 416.4 10
-1 11 -2 -41.8826 355.508 3
1 -11 3 115.289 371.14 10
-1 11 -3 313.718 330.431 3
-1 11 -3 771.449 413.851 13
1 -11 4 63.5848 345.899 10
-1 11 -4 -149.433 410.785 13
-1 11 -4 644.418 385.738 5
-1 11 -4 126.443 346.129 3
1 -11 5 1054.1 425.297 10
-1 11 -5 1312.4 421.033 3
-1 11 -5 1768.84 466.86 5
-1 11 -5 1815.06 516.328 13
-1 11 -6 -113.285 339.652 3
-1 11 -6 402.124 326.874 5
-1 11 -6 386.478 391.739 13
1 -11 6 -103.005 386.964 10
-1 11 -7 -159.523 317.698 5
1 -11 7 -612.494 448.132 10
-1 11 -7 -22.0164 335.786 13
-1 11 -7 458.741 325.13 9
-1 11 -7 841.088 358.767 3
-1 11 -8 1667.01 460.29 5
-1 11 -8 407.903 293.254 13
1 -11 8 1155.37 490.909 10
-1 11 -8 953.726 346.817 9
-1 11 -9 588.041 283.083 13
1 -11 9 1330.99 493.799 10
-1 11 -9 670.883 346.399 9
-1 11 -9 457.834 299.823 5
-1 11 -10 1597.2 499.845 9
-1 11 -10 890.49 344.6 5
1 -11 10 2426.56 563.545 10
-1 11 -10 2503.41 552.687 13
1 -11 11 2584.01 570.971 10
-1 11 -11 1459.02 489.736 9
-1 11 -11 1722.6 480.628 5
-1 11 -11 3029.95 600.355 1
-1 11 -12 624.983 422.45 5
-1 11 -12 125.775 432.688 1
1 -11 12 57.5316 378.578 10
-1 11 -13 1578.34 570.656 1
-1 10 5 877.492 488.548 13
-1 10 4 2177.46 583.692 13
1 -10 -4 831.131 450.613 10
1 -10 -3 375.751 360.167 10
-1 10 3 -759.827 406.953 3
-1 10 3 410.539 419.384 13
1 -10 -2 1521.15 446.014 10
-1 10 2 1373.63 472.337 3
-1 10 2 1746.14 526.638 13
1 -10 -1 552.134 362.302 10
-1 10 1 758.014 398.413 3
-1 10 1 674.624 447.213 13
-1 10 0 1387.81 453.531 3
-1 10 0 488.203 362.637 13
1 -10 0 917.227 428.021 10
-1 10 -1 5171.85 734.939 13
-1 10 -1 6705.44 762.751 3
1 -10 1 6142.76 755.751 10
1 -10 1 8101.19 703.493 4
1 -10 2 1340.81 341.961 4
1 -10 2 2236.85 539.695 10
-1 10 -2 714.92 385.596 3
-1 10 -2 1047.35 465.43 13
1 -10 3 -311.228 363.948 10
-1 10 -3 420.534 373.899 13
1 -10 3 188.484 245.794 4
-1 10 -3 -793.495 380.737 3
-1 10 -4 470.578 305.399 5
1 -10 4 912.937 287.785 4
1 -10 4 89.9804 313.352 10
-1 10 -4 696.788 389.632 3
-1 10 -4 -165.423 328.022 13
-1 10 -5 658.772 370.673 5
-1 10 -5 -260.533 302.537 3
-1 10 -5 475.134 397.758 13
1 -10 5 417.555 386.638 10
-1 10 -6 1023.54 397.187 13
-1 10 -6 1562.83 425.014 3
-1 10 -6 1590.5 446.551 5
1 -10 6 912.601 440.22 10
-1 10 -7 1933.27 447.526 5
1 -10 7 1474.35 460.721 10
-1 10 -7 2599.43 507.616 9
-1 10 -7 2531.51 456.618 1
-1 10 -7 1680.88 387.231 3
-1 10 -7 1039.41 391.296 13
-1 10 -8 850.646 275.45 3
-1 10 -8 1127.13 341.201 1
-1 10 -8 1464.06 421.824 9
1 -10 8 733.974 411.885 10
-1 10 -8 850.433 322.396 5
-1 10 -9 1379.01 371.156 5
-1 10 -9 1487.55 386.142 1
-1 10 -9 2575.37 491.753 9
1 -10 9 1203.19 449.523 10
-1 10 -10 345.495 348.324 9
-1 10 -10 586.521 349.651 1
1 -10 10 -77.323 328.739 10
-1 10 -10 -428.626 390.005 5
-1 10 -11 1649.75 471.79 1
-1 10 -11 2550.12 515.787 9
1 -10 11 1343.82 451.143 10
-1 10 -11 916.842 400.182 5
1 -10 12 578.918 463.478 6
-1 10 -12 682.47 454.489 1
1 -10 12 318.095 357.286 10
-1 10 -12 1200.24 495.228 5
-1 10 -13 1145.76 512.144 5
1 -10 13 573.967 376.285 10
-1 10 -13 374.621 383.581 1
-1 9 6 2746.77 638.235 13
-1 9 5 732.265 419.924 3
-1 9 5 1286.64 474.336 13
1 -9 -5 1883.26 468.016 4
1 -9 -4 561.436 341.851 10
-1 9 4 -45.4615 381.185 13
1 -9 -4 814.487 340.688 4
-1 9 4 -420.021 475.156 3
-1 9 3 1485.19 458.694 13
-1 9 3 2425.46 561.12 3
1 -9 -3 2157.14 481.454 10
1 -9 -3 1952.23 422.145 4
1 -9 -2 945.808 393.989 10
1 -9 -2 1423.75 396.955 4
-1 9 2 550.708 381.304 13
-1 9 2 837.951 421.066 3
-1 9 1 -530.806 409.524 3
-1 9 1 -473.806 439.589 13
1 -9 -1 454.565 273.947 4
1 -9 -1 -332.985 357.584 10
1 -9 0 896.542 319.949 4
-1 9 0 588.738 352.997 3
1 -9 0 693.221 378.352 10
-1 9 0 974.811 431.173 13
-1 9 -1 55.6022 329.15 3
-1 9 -1 388.145 388.117 13
1 -9 1 180.571 246.507 4
1 -9 1 180.553 290.957 10
1 -9 2 324.981 272.131 4
1 -9 2 329.324 303.756 10
-1 9 -2 -41.1549 331.908 13
-1 9 -2 219.847 318.957 3
-1 9 -3 18710.8 917.657 1
-1 9 -3 16841.8 1125.58 13
1 -9 3 17999.2 1151.78 10
-1 9 -3 18029.3 1097.69 3
1 -9 3 19233.8 973.824 4
1 -9 3 20739.9 872.026 7
-1 9 -4 758.162 309.66 5
-1 9 -4 249.117 331.954 13
-1 9 -4 1177.58 293.176 1
1 -9 4 1200.21 316.022 4
1 -9 4 535.673 189.188 7
1 -9 4 1044.01 367.892 10
-1 9 -4 1295.41 371.569 3
-1 9 -5 2922.2 519.803 13
1 -9 5 4024.02 373.54 7
-1 9 -5 3065.95 436.946 1
1 -9 5 3419.74 553.847 10
-1 9 -5 2848.23 477.712 5
-1 9 -5 3304.25 478.526 3
-1 9 -6 -293.115 288.438 3
-1 9 -6 405.715 272.215 1
-1 9 -6 359.527 287.507 5
1 -9 6 -159.44 311.927 10
1 -9 6 168.776 194.462 7
1 -9 7 3870.07 418.888 7
-1 9 -7 3449.17 502.899 5
1 -9 7 4351.85 613.294 10
-1 9 -7 4042.89 548.776 9
-1 9 -7 3816.05 496.49 1
1 -9 8 2034.93 349.033 7
-1 9 -8 1971.39 400.162 1
-1 9 -8 1945.55 428.361 9
1 -9 8 1787.55 455.969 10
-1 9 -8 1989.17 425.27 5
-1 9 -9 161.368 293.607 9
-1 9 -9 -35.9457 318.987 1
1 -9 9 459.873 377.395 10
-1 9 -9 -319.317 388.018 5
-1 9 -10 3140.8 552.513 5
-1 9 -10 4344.63 575.534 9
-1 9 -10 3636.32 585.336 1
1 -9 10 3773.62 609.524 6
1 -9 10 3510.75 563.028 10
1 -9 11 673.773 354.036 10
1 -9 11 38.0327 347.868 6
-1 9 -11 525.477 356.587 9
-1 9 -11 102.214 306.577 5
-1 9 -11 519.965 410.075 1
-1 9 -12 1838.52 513.913 5
1 -9 12 286.922 427.121 14
1 -9 12 1272.55 502.859 6
-1 9 -12 1595.11 478.088 1
1 -9 12 1030.62 394.982 10
1 -9 13 793.453 419.442 6
1 -9 13 847.648 343.346 10
-1 9 -13 748.997 419.531 1
-1 9 -13 1235.95 415.648 11
1 -9 13 1065.52 477.688 14
-1 9 -14 1015.76 547.93 5
-1 9 -14 867.401 392.581 11
-1 9 -14 1615.62 556.662 1
-1 9 -15 6159.24 781.569 11
1 -8 -9 3274.38 605.918 4
1 -8 -8 1461.54 479.35 4
1 -8 -7 350.802 348.088 4
-1 8 7 256.638 440.115 3
-1 8 6 905.464 478.127 13
-1 8 6 667.046 387.508 3
1 -8 -6 192.463 271.375 7
1 -8 -6 -177.55 325.877 4
1 -8 -5 2742.65 455.697 7
-1 8 5 3125.51 596.109 3
-1 8 5 2691.05 555.896 13
1 -8 -5 3826.03 544.099 4
1 -8 -5 4183.39 547.781 10
-1 8 4 759.285 348.888 3
1 -8 -4 248.744 284.867 4
1 -8 -4 530.104 275.734 7
-1 8 4 618.882 384.106 13
1 -8 -4 1047.91 376.279 10
1 -8 -3 6902.92 577.504 7
1 -8 -3 6166.68 654.372 10
1 -8 -3 5952.07 609.816 4
-1 8 3 5783.56 688.113 3
-1 8 3 6217.92 698.862 13
-1 8 2 397.02 354.052 3
1 -8 -2 549.427 281.842 4
1 -8 -2 219.922 286.528 10
1 -8 -2 234.618 228.082 7
1 -8 -1 2411.92 341.803 7
-1 8 1 1765.5 453.824 13
1 -8 -1 1847.64 342.368 4
1 -8 -1 1747.97 424.165 10
-1 8 1 3154.14 518.112 3
1 -8 0 56247.5 1703.9 7
-1 8 0 51693.1 2010.68 13
-1 8 0 50966.9 1993.82 3
1 -8 0 54179.4 1788.41 4
1 -8 0 48747 1981.16 10
-1 8 0 52221.4 1604.84 8
-1 8 0 54293.5 1624.73 1
1 -8 1 21274.9 905.375 7
-1 8 -1 20678.3 1180.74 13
1 -8 1 21221.3 993.904 4
-1 8 -1 19366.8 1132.16 3
-1 8 -1 21674.8 911.808 1
1 -8 1 20105.9 1165.39 10
-1 8 -2 -151.588 288.708 3
-1 8 -2 -180.818 200.532 1
1 -8 2 22.9573 210.274 4
1 -8 2 -531.495 349.888 10
-1 8 -2 144.679 302.987 13
1 -8 2 -152.137 194.486 7
-1 8 -3 14446.6 777.952 1
-1 8 -3 14709.5 932.773 3
-1 8 -3 14990.2 988.195 13
1 -8 3 15205.9 727.058 7
1 -8 3 16008.5 1021.13 10
1 -8 3 16197 819.216 4
-1 8 -4 32331.3 1253.36 1
-1 8 -4 31281.5 1387.15 3
-1 8 -4 33451.7 1430.77 5
1 -8 4 32950.8 1167.77 7
1 -8 4 31542.7 1499.21 10
1 -8 4 32906 1258.52 4
1 -8 5 20792.6 1177.71 10
-1 8 -5 20256.7 990.854 1
-1 8 -5 22253.7 836.913 11
1 -8 5 20388.3 887.53 7
-1 8 -5 19600.9 1073.61 5
-1 8 -5 18112.5 1026.8 3
1 -8 6 103.939 164.599 7
-1 8 -6 -32.7872 150.643 11
-1 8 -6 70.922 252.676 1
1 -8 6 -50.022 291.705 10
-1 8 -6 48.1916 247.925 5
-1 8 -7 3085.01 453.187 1
1 -8 7 3763.67 407.275 7
-1 8 -7 2524.73 401.578 5
1 -8 7 4409.32 562.352 10
-1 8 -7 3063.29 486.741 9
-1 8 -7 4485.1 422.58 11
1 -8 8 19492.2 1128.27 10
-1 8 -8 17983.7 1042.36 1
-1 8 -8 17815 1083.26 5
1 -8 8 20376.9 983.328 7
-1 8 -8 20081.9 960.739 11
-1 8 -8 17659.5 1034.42 9
1 -8 8 18063.7 1135.14 6
1 -8 9 4753.04 647.718 6
1 -8 9 4895.15 601.66 10
1 -8 9 4397.3 612.698 14
-1 8 -9 4188.22 591.76 1
-1 8 -9 4362.96 570.46 5
-1 8 -9 4607 497.092 11
-1 8 -9 5104.61 563.573 9
-1 8 -10 350.97 341.849 1
-1 8 -10 482.863 269.156 11
1 -8 10 -79.2403 344.76 6
1 -8 10 299.355 351.799 14
-1 8 -10 409.954 351.438 5
1 -8 10 539.829 327.834 10
-1 8 -10 884.872 365.165 9
-1 8 -11 614.668 345.571 1
1 -8 11 1183.22 453.437 6
-1 8 -11 1117.01 423.92 5
-1 8 -11 253.958 262.578 11
1 -8 11 456.959 291.713 10
-1 8 -11 1123.21 320.447 9
1 -8 11 619.916 431.086 14
-1 8 -12 555.097 430.668 5
1 -8 12 263.957 267.324 10
-1 8 -12 454.375 333.644 11
1 -8 12 354.709 374.364 6
-1 8 -12 559.964 401.725 1
1 -8 12 461.984 415.255 14
-1 8 -13 1279.32 405.635 11
-1 8 -13 830.283 443.651 1
1 -8 13 1504.46 522.525 6
1 -8 13 2424.29 614.372 14
1 -8 14 35.5586 370.881 14
1 -8 14 374.893 406.095 6
-1 8 -14 291.11 445.742 1
-1 8 -14 316.86 376.645 11
-1 8 -15 624.601 394.522 11
1 -7 -10 70.5015 349.451 4
-1 7 9 -53.7443 382.797 3
1 -7 -9 709.768 473.016 4
1 -7 -8 994.016 396.133 4
-1 7 8 831.991 455.972 3
-1 7 7 -131.432 376.761 3
1 -7 -7 416.848 343.833 4
-1 7 6 1689.85 385.687 6
1 -7 -6 1987.45 413.418 4
-1 7 6 1579.9 474.612 3
1 -7 -6 1786.16 370.81 10
-1 7 6 2506.75 536.858 13
-1 7 5 85.1435 347.378 13
1 -7 -5 432.648 271.875 7
-1 7 5 -171.323 319.78 3
1 -7 -5 -391.214 299.13 10
1 -7 -5 310.738 277.537 4
1 -7 -4 789.841 331.745 4
-1 7 4 698.799 329.345 3
-1 7 4 631.599 363.783 13
1 -7 -4 898.559 354.075 10
1 -7 -4 951.586 330.457 7
1 -7 -3 163.744 243.734 4
-1 7 3 -23.0381 328.534 13
-1 7 3 381.892 292.434 3
1 -7 -3 479.392 250.621 7
1 -7 -3 424.68 246.888 10
1 -7 -2 3396.06 475.119 10
-1 7 2 3433.9 530.698 3
1 -7 -2 3865.42 439.698 4
-1 7 2 3207.02 479.558 13
1 -7 -2 3158.87 375.374 7
-1 7 1 9084.99 735.997 13
-1 7 1 8831.04 540.569 1
1 -7 -1 10143.1 614.199 7
1 -7 -1 9698.96 745.084 10
-1 7 1 9659.53 770.174 3
1 -7 -1 10045.8 658.257 4
-1 7 1 9246.48 572.725 8
-1 7 0 4035.21 524.969 3
1 -7 0 4404.75 400.364 7
1 -7 0 3927.23 402.852 4
-1 7 0 4099.3 368.461 1
-1 7 0 3642.33 498.975 13
1 -7 0 3306.71 471.503 10
-1 7 0 4235.31 344.646 8
-1 7 -1 3150.96 435.906 3
-1 7 -1 3935.41 510.485 13
-1 7 -1 4187.76 382.72 1
-1 7 -1 4181.24 309.528 8
1 -7 1 3922.67 402.366 4
1 -7 1 3710.72 491.479 10
1 -7 1 3872 363.108 7
1 -7 1 4204.4 321.694 8
-1 7 -2 2836.98 446.459 13
-1 7 -2 2608.72 330.612 1
1 -7 2 2430.88 214.946 8
1 -7 2 2983.46 351.983 4
-1 7 -2 2810.89 224.374 8
-1 7 -2 2513.39 214.444 11
1 -7 2 2325.97 292.033 7
1 -7 2 1906.44 396.686 10
-1 7 -2 2453.02 406.895 3
1 -7 3 47484.7 1774.24 10
-1 7 -3 46043.4 1504.22 1
-1 7 -3 47489.1 1691.55 3
-1 7 -3 48348.3 1281.43 11
-1 7 -3 46086 1109.41 8
1 -7 3 46977.8 1492.7 4
1 -7 3 47376.4 1453.57 7
1 -7 4 1669.87 267.715 7
-1 7 -4 1932.07 230.251 11
1 -7 4 2042.53 307.272 4
-1 7 -4 1848.04 333.879 1
1 -7 4 2083.67 415.924 10
-1 7 -4 1340.94 348.597 5
1 -7 5 18163.2 1026.55 10
-1 7 -5 19489.2 993.932 5
1 -7 5 20435.7 855.705 7
-1 7 -5 19280.9 771.781 11
-1 7 -5 18928.3 938.395 1
-1 7 -6 23763 1148.02 5
1 -7 6 24266.6 1000.7 7
-1 7 -6 24490.8 955.018 11
-1 7 -6 25382 1125.04 1
1 -7 6 23453.1 1193.23 10
1 -7 7 1865.49 393.961 6
-1 7 -7 1577.41 373.498 1
1 -7 7 1042.56 354.683 14
-1 7 -7 982.631 304.703 5
1 -7 7 1041.1 268.899 7
1 -7 7 1241.61 328.563 10
-1 7 -7 1283.36 304.965 9
-1 7 -7 2021.91 311.993 11
1 -7 8 5704 629.483 14
1 -7 8 6621.96 676.738 6
1 -7 8 6348.56 592.724 10
-1 7 -8 6305.02 524.212 11
-1 7 -8 5881.86 587.998 5
-1 7 -8 6304.48 607.81 1
-1 7 -8 6798.52 590.328 9
1 -7 8 6505.51 553.134 7
1 -7 9 640.793 393.144 6
-1 7 -9 -59.9628 253 11
-1 7 -9 -86.6986 262.409 5
1 -7 9 42.6143 261.292 10
-1 7 -9 158.33 261.641 9
1 -7 9 41.5993 285.837 14
-1 7 -9 166.67 283.725 1
1 -7 10 23527.5 1331.81 6
1 -7 10 21534.5 1274.52 14
-1 7 -10 22791 1285.18 5
-1 7 -10 22909.4 1275.81 1
-1 7 -10 23512.6 1129.51 9
-1 7 -10 22900.4 1165.55 11
1 -7 10 23708.5 1173.36 10
-1 7 -11 4566.2 511.107 9
1 -7 11 2975.96 544.071 6
1 -7 11 3590.06 490.28 10
-1 7 -11 5329.91 674.653 5
-1 7 -11 3311.07 484.698 11
1 -7 11 2783.56 539.113 14
1 -7 12 631.104 357.75 6
-1 7 -12 681.513 339.062 11
1 -7 12 672.35 284.695 10
1 -7 12 662.12 411.702 14
1 -7 13 -8.74463 365.645 14
1 -7 13 -8.77299 383.951 6
-1 7 -13 155.742 294.628 11
1 -7 14 1507.02 512.935 6
-1 7 -14 1519.13 415.222 11
1 -7 14 879.652 426.374 14
1 -7 15 -179.929 384.968 6
-1 7 -15 81.8385 364.587 11
1 -7 15 385.314 398.11 14
-1 7 -16 1027.25 494.353 11
1 -6 -11 -564.048 497.589 4
1 -6 -10 128.241 401.383 4
-1 6 10 78.9956 412.503 3
-1 6 9 1175.81 493.062 3
1 -6 -9 1517.43 457.964 4
1 -6 -8 270.223 308.114 4
-1 6 8 -296.838 323.558 6
-1 6 8 -303.43 332.257 3
-1 6 7 141.437 286.175 6
1 -6 -7 208.583 282.429 4
-1 6 7 761.703 395.853 3
-1 6 6 8929.94 773.079 13
-1 6 6 8209.47 797.199 3
1 -6 -6 9232.7 733.758 4
-1 6 6 8346.62 702.311 6
1 -6 -6 7455.31 609.745 10
-1 6 5 11077.2 804.472 13
1 -6 -5 9226.36 686.494 10
-1 6 5 10054.2 838.793 3
1 -6 -5 9772.89 724.457 4
-1 6 4 36353 1504.58 13
-1 6 4 35711.8 1582.3 3
1 -6 -4 36717.6 1436.64 10
1 -6 -4 35779.1 1399.07 4
-1 6 3 29297.4 1316.27 13
1 -6 -3 31015.5 1308.89 10
-1 6 3 30425 1383.48 3
1 -6 -3 33205.6 1260.24 4
1 -6 -3 32061.6 1231.64 7
-1 6 2 724.905 323.763 13
-1 6 2 817.165 248 8
-1 6 2 781.46 335.735 3
-1 6 2 264.123 117.919 11
-1 6 2 411.428 189.859 1
1 -6 -2 368.788 234.18 10
1 -6 -2 363.06 206.435 7
1 -6 -2 590.102 235.338 4
1 -6 -1 15166.6 858.425 10
-1 6 1 15342.1 895.932 3
1 -6 -1 15842.5 754.997 4
-1 6 1 15176.4 866.225 13
-1 6 1 15179.8 697.286 1
-1 6 1 15489.4 711.777 8
1 -6 -1 14236.3 722.955 7
-1 6 1 15848 570.842 11
1 -6 0 1122.75 228.195 4
-1 6 0 1639.32 164.626 11
-1 6 0 1545.39 321.374 13
1 -6 0 1183.96 231.96 7
-1 6 0 1455.13 347.851 3
-1 6 0 1504.71 212.434 8
1 -6 0 1753.48 347.141 10
-1 6 0 1028.94 220.502 1
1 -6 0 1283.07 190.304 8
-1 6 -1 23411.4 1084.89 3
-1 6 -1 23883.2 714.609 11
-1 6 -1 23642.2 1099.59 13
1 -6 1 25245.8 1136.03 10
-1 6 -1 24396.8 923.309 1
1 -6 1 25050.2 800.394 8
-1 6 -1 24865.3 777.674 8
1 -6 1 24641.5 929.822 4
1 -6 1 24967.1 925.486 7
1 -6 2 336.776 173.192 4
-1 6 -2 844.989 282.417 3
-1 6 -2 653.841 224.228 1
1 -6 2 449.113 282.152 10
-1 6 -2 851.501 135.511 11
-1 6 -2 922.752 120.337 8
1 -6 2 252.148 174.789 7
1 -6 2 781.857 120.136 8
1 -6 3 13953.3 834.976 10
-1 6 -3 16091.9 567.606 11
1 -6 3 15281.8 689.179 7
-1 6 -3 14538.1 721.002 1
1 -6 3 15357.6 687.735 4
1 -6 4 17103.7 916.388 10
-1 6 -4 16718.2 646.363 11
1 -6 4 17047.6 743.425 7
-1 6 -4 16595.8 796.945 1
-1 6 -4 15518.1 820.071 5
-1 6 -5 20218.7 931.895 1
1 -6 5 19977.1 850.134 7
1 -6 5 19955.2 985.668 14
1 -6 5 20315.6 998.754 10
-1 6 -5 20326.4 786.149 11
-1 6 -5 19574.9 939.017 5
-1 6 -6 14421.7 673.467 11
-1 6 -6 13563.5 388.493 8
-1 6 -6 13436 786.102 5
1 -6 6 13562 708.198 7
1 -6 6 14407.8 807.959 10
-1 6 -6 14933.5 803.973 1
-1 6 -6 14015.8 742.676 9
1 -6 6 13873.7 841.382 14
1 -6 6 12093.9 795.853 6
-1 6 -7 17607.8 920.569 1
-1 6 -7 16499.2 920.902 5
-1 6 -7 16847.4 811.291 11
1 -6 7 16432.8 962.602 6
1 -6 7 15671.1 943.053 14
-1 6 -7 16844.2 844.046 9
1 -6 7 17432.9 863.881 7
1 -6 7 16534.8 906.134 10
-1 6 -7 16894.6 564.352 8
1 -6 8 2128.68 372.275 7
1 -6 8 2108.5 422.498 6
1 -6 8 1555.28 397.07 14
-1 6 -8 1917.32 345.257 11
1 -6 8 1582.01 313.733 10
-1 6 -8 1803.47 374.152 5
-1 6 -8 1783.32 357.908 1
-1 6 -8 2286.97 367.798 9
-1 6 -9 215.099 325.1 5
-1 6 -9 188.026 225.932 11
1 -6 9 292.01 293.438 6
1 -6 9 -125.027 216.909 10
-1 6 -9 69.2747 197.499 9
1 -6 9 -399.716 333.577 14
-1 6 -10 1412.53 446.338 5
-1 6 -10 1554.07 321.906 9
1 -6 10 692.77 365.166 14
-1 6 -10 843.273 306.649 11
1 -6 10 1194.25 397.258 6
1 -6 10 1485.01 321.273 10
-1 6 -11 -70.3991 284.166 11
-1 6 -11 13.2365 237.267 9
1 -6 11 205.926 322.237 6
1 -6 11 482.346 258.148 10
1 -6 11 -273.117 364.749 14
-1 6 -12 811.422 356.415 11
1 -6 12 1070.81 417.463 6
1 -6 12 1004.48 270.755 10
1 -6 12 609.368 378.161 14
1 -6 13 13869.3 1112.63 6
1 -6 13 13574.6 1061.49 14
-1 6 -13 15325.8 1086.2 11
1 -6 14 2673.82 578.841 6
1 -6 14 2226.96 535.065 14
-1 6 -14 2160.12 509.734 11
1 -6 15 1.67356 366.389 14
-1 6 -15 1002.64 461.913 11
1 -6 15 1300.65 470.03 6
1 -6 16 7561.92 934.394 14
-1 6 -16 9684.85 1011.44 11
1 -5 -12 604.439 409.762 11
-1 5 12 394.77 437.19 3
1 -5 -12 44.1331 424.416 4
1 -5 -11 2216.51 469.765 11
-1 5 11 2018.73 552.078 3
1 -5 -11 2279.36 562.068 4
-1 5 10 -248.243 368.416 3
1 -5 -10 123.894 332.909 11
-1 5 10 451.103 421.176 6
1 -5 -10 -421.727 377.745 4
1 -5 -9 182.551 292.069 11
-1 5 9 172.296 372.29 3
-1 5 9 -27.9149 293.766 6
1 -5 -9 9.27548 337.194 4
1 -5 -8 4963.85 575.1 11
-1 5 8 3457.69 493.605 6
1 -5 -8 3914.22 557.573 4
-1 5 8 4269.23 624.229 3
1 -5 -7 746.835 338.411 4
-1 5 7 1594 414.839 3
1 -5 -7 956.682 293.245 11
-1 5 7 500.686 290.72 6
1 -5 -7 828.704 238.869 10
-1 5 6 10032 753.826 6
-1 5 6 12561.7 806.205 13
1 -5 -6 11667.9 688.447 10
1 -5 -6 12086.5 756.588 11
-1 5 6 11369.5 866.595 3
1 -5 -6 12858.6 835.14 4
-1 5 5 256.15 305.719 3
1 -5 -5 368.361 217.506 10
1 -5 -5 95.471 185.837 11
-1 5 5 -302.807 265.314 13
1 -5 -5 28.1323 266.487 4
-1 5 4 930.033 291.665 13
1 -5 -4 670.673 225.665 4
1 -5 -4 1215.01 266.957 10
-1 5 4 1345.58 337.625 3
-1 5 3 2648.15 261.507 11
1 -5 -3 2244.35 337.123 10
-1 5 3 1805.86 380.139 3
1 -5 -3 2811.13 339.279 4
-1 5 3 2384.34 365.904 13
1 -5 -2 2224.9 315.663 4
-1 5 2 1625.13 246.42 1
1 -5 -2 2030.95 334.254 10
-1 5 2 2603.24 409.906 3
-1 5 2 2024.54 200.32 11
-1 5 2 2117.38 282.738 8
1 -5 -2 1908.64 291.391 7
-1 5 2 2201.27 351.579 13
1 -5 -1 7709.2 497.012 7
1 -5 -1 8690.82 480.027 8
-1 5 1 7341.7 462.826 1
1 -5 -1 8021.37 575.703 10
-1 5 1 8691.52 470.872 8
-1 5 1 8435.63 356.666 11
-1 5 1 7666.61 561.432 13
1 -5 -1 7457.27 466.601 4
-1 5 1 7678.82 605.943 3
-1 5 0 16409.1 851.279 3
1 -5 0 17087.8 691.99 4
-1 5 0 16436.6 617.642 8
1 -5 0 16150.3 830.193 10
-1 5 0 17385.3 515.902 11
-1 5 0 15532.8 820.267 13
1 -5 0 16980.7 731.493 7
-1 5 0 17018.3 676.675 4
1 -5 0 17513.8 640.381 8
-1 5 0 16536.9 688.129 1
-1 5 -1 1546.93 211.309 4
1 -5 1 1610.13 226.168 4
1 -5 1 1539.68 245.121 7
-1 5 -1 1179.45 305.423 3
1 -5 1 1501.41 157.015 8
1 -5 1 1342.21 325.481 10
-1 5 -1 1408.11 237.027 1
-1 5 -1 1904.75 173.281 8
-1 5 -2 842.543 119.233 11
-1 5 -2 837.2 167.867 4
-1 5 -2 903.463 221.719 1
1 -5 2 849.555 255.101 10
1 -5 2 462.583 77.3697 8
1 -5 2 812.023 198.107 7
1 -5 2 939.887 190.762 4
-1 5 -3 1526.91 215.437 4
-1 5 -3 1515.25 269.857 1
-1 5 -3 1610 169.474 11
1 -5 3 1611.76 314.731 10
1 -5 3 1636.45 222.384 4
1 -5 3 1917.68 271.265 7
-1 5 -3 1659.18 278.463 5
-1 5 -4 1441.8 190.702 11
1 -5 4 1520.45 312.432 10
-1 5 -4 1370.69 265.642 5
1 -5 4 1602.05 338.702 14
1 -5 4 1316.83 238.69 7
-1 5 -4 1812.88 297.973 1
1 -5 5 2035.38 281.303 7
1 -5 5 1598.39 316.03 14
1 -5 5 2176.84 348.345 10
1 -5 5 1508.09 326.186 6
-1 5 -5 2072.49 313.478 5
-1 5 -5 1912.75 120.678 8
-1 5 -5 2835.1 303.492 11
-1 5 -5 1838.04 311.573 1
-1 5 -6 -346.258 255.828 5
1 -5 6 17.3434 249.725 14
-1 5 -6 211.967 182.913 11
1 -5 6 -0.38613 284.372 6
-1 5 -6 74.3801 177.316 9
1 -5 6 -27.1836 213.564 10
-1 5 -6 -134.548 232.792 1
-1 5 -6 -17.8871 84.429 8
1 -5 6 319.181 231.957 7
1 -5 7 19695 1019.73 14
1 -5 7 21905.8 967.05 10
1 -5 7 21223.1 968.353 7
-1 5 -7 21624.1 947.41 11
-1 5 -7 21469.6 898.494 9
1 -5 7 21310.8 1068.06 6
-1 5 -7 21781.5 1036.68 5
-1 5 -7 23578.8 755.585 8
-1 5 -8 5719.93 468.848 9
1 -5 8 7147.14 530.781 10
-1 5 -8 6006.51 573.974 5
1 -5 8 6137.7 589.084 14
-1 5 -8 6296.91 534.384 11
1 -5 8 6273.66 612.358 6
1 -5 9 2230.33 440.076 14
1 -5 9 1886.5 408.816 6
-1 5 -9 1953.27 314.808 9
-1 5 -9 1744.56 422.149 5
1 -5 9 2004.41 328.045 10
-1 5 -9 1728.1 346.014 11
1 -5 10 751.287 318.358 6
1 -5 10 1190.82 264.171 10
-1 5 -10 1576.2 369.061 11
1 -5 10 1323.87 381.069 14
1 -5 11 2312.04 313.793 10
1 -5 11 2517.68 514.013 6
1 -5 11 1590.81 431.661 14
-1 5 -11 1741.58 398.73 11
-1 5 -12 1140.55 381.837 11
1 -5 12 724.629 397.562 14
1 -5 12 1386.35 415.844 6
1 -5 13 1481.71 481.086 6
1 -5 13 980.046 418.347 14
-1 5 -13 2309.41 484.765 11
-1 5 -14 904.628 414.494 11
1 -5 14 1579.29 501.612 14
1 -5 14 1264.58 463.718 6
-1 5 -15 -451.261 401.857 11
1 -5 15 -750.026 425.833 14
1 -5 15 -174.638 407.574 6
-1 5 -16 6712.72 868.101 11
1 -5 16 6982.06 865.598 14
1 -5 16 6747.13 868.67 6
1 -4 -14 363.361 452.746 11
-1 4 13 2418.67 605.074 3
1 -4 -13 2539.03 567.512 11
1 -4 -13 860.051 472.14 4
-1 4 12 228.711 424.603 3
-1 4 12 950.542 381.082 6
1 -4 -12 -152.677 373.315 11
1 -4 -12 -98.4359 427.705 4
1 -4 -11 850.935 403.28 11
-1 4 11 61.8094 353.117 3
-1 4 11 548.727 414.96 6
1 -4 -11 -358.182 397.328 4
-1 4 10 1516.13 406.788 6
-1 4 10 1509.69 481.934 3
1 -4 -10 1499.79 418.481 11
1 -4 -10 1291.69 445.919 4
1 -4 -9 31447.3 1503.21 4
1 -4 -9 31496.8 1436.89 11
-1 4 9 29316.2 1388.63 6
-1 4 9 27691.1 1467.72 3
-1 4 8 24088.4 1306.85 3
1 -4 -8 25835.2 1221.8 11
-1 4 8 25832.5 1223.84 6
1 -4 -8 26097.4 1308.74 4
1 -4 -7 1485.96 254.515 10
-1 4 7 1553.41 369.585 6
-1 4 7 1561.99 409.233 3
1 -4 -7 1117.16 345.346 4
1 -4 -7 964.038 287.328 11
1 -4 -6 32001.3 1131.77 10
-1 4 6 32170.4 1279.89 13
1 -4 -6 33037 1333.94 4
-1 4 6 31282.1 1392.1 3
-1 4 6 33009.8 1312.81 6
1 -4 -6 32794.6 1250.3 11
-1 4 5 4913.58 517.912 3
1 -4 -5 4407.36 447.806 4
-1 4 5 4782.03 483.496 6
1 -4 -5 5218.11 429.795 11
1 -4 -5 5425.07 423.359 10
-1 4 5 4644.43 473.933 13
1 -4 -4 28853.9 1033.32 11
1 -4 -4 29351.7 1064.43 10
-1 4 4 29563 1224.44 3
1 -4 -4 29225.3 1105.69 4
-1 4 4 28925.7 1111.93 13
-1 4 3 22399.2 1035.7 3
1 -4 -3 24592.8 932.903 4
-1 4 3 25397.2 834.113 11
1 -4 -3 23649 937.236 10
1 -4 -3 24690 851.731 11
-1 4 3 23339.4 970.007 13
-1 4 2 7454.31 354.578 11
-1 4 2 6580.28 481.713 13
1 -4 -2 7274.37 497.091 10
1 -4 -2 7282.46 441.882 4
-1 4 2 7174.57 560.472 3
-1 4 2 6907.51 440.939 1
1 -4 -2 8473.02 468.483 1
-1 4 1 4210.88 331.731 1
1 -4 -1 4817.12 338.484 1
1 -4 -1 4542.74 333.336 4
-1 4 1 4745.77 415.232 13
-1 4 1 4884.39 237.362 11
-1 4 1 4230.01 433.606 3
-1 4 1 5239.53 345.901 4
1 -4 -1 4178.55 396.934 10
1 -4 -1 4873.86 331.5 8
1 -4 -1 4288.21 367.674 7
1 -4 0 116471 2596.07 1
1 -4 0 109317 2502.88 4
-1 4 0 111049 2772.93 3
1 -4 0 111085 2616.01 7
-1 4 0 102278 2278.54 11
-1 4 0 108460 2580.26 1
-1 4 0 113973 2606.48 14
-1 4 0 114274 2508.12 4
1 -4 0 106892 2739.83 10
1 -4 0 111150 2462.97 8
1 -4 1 20128 649.945 4
-1 4 -1 17348.3 480.614 11
1 -4 1 20291.7 843.438 10
-1 4 -1 20658.9 752.817 14
-1 4 -1 19205.3 722.723 1
1 -4 1 19784.4 732.184 7
-1 4 -1 20316.3 648.111 4
-1 4 -1 21360.9 746.773 7
1 -4 1 22240.8 759.54 1
1 -4 1 19037.7 544.191 8
1 -4 2 17204.6 758.174 10
-1 4 -2 15475.2 662.686 1
1 -4 2 15920.1 698.781 14
-1 4 -2 16081.5 485.523 11
1 -4 2 16566.1 672.127 7
-1 4 -2 16926 586.968 4
-1 4 -2 16644 672.722 7
1 -4 2 17743.6 701.683 1
1 -4 2 16037.2 583.159 4
-1 4 -3 5904.82 391.152 7
1 -4 3 5818.54 397.945 7
1 -4 3 4646 410.534 14
-1 4 -3 5342.07 399.424 1
-1 4 -3 5287.42 289.603 11
1 -4 3 5313.15 446.847 10
-1 4 -3 5686.08 338.983 4
-1 4 -3 4810.93 384.591 5
1 -4 4 12659.2 545.826 11
-1 4 -4 13319.9 538.028 11
-1 4 -4 10974 593.053 5
-1 4 -4 11445.7 328.896 8
1 -4 4 11715.1 583.676 7
1 -4 4 12083.2 634.322 10
1 -4 4 12191.2 651.692 14
-1 4 -4 12665.7 643.73 1
1 -4 4 11688.1 670.402 6
-1 4 -4 12944.2 551.623 4
1 -4 5 4610.38 397.398 7
1 -4 5 4233.31 452.127 6
-1 4 -5 3923.2 329.488 11
-1 4 -5 4112.03 403.922 1
-1 4 -5 4232.57 327.563 9
1 -4 5 4028 381.797 10
-1 4 -5 3437.2 346.341 5
1 -4 5 3780.86 407.074 14
-1 4 -5 4438.75 236.915 8
1 -4 6 25890.5 1091.88 14
1 -4 6 26471.9 1033.55 7
-1 4 -6 25497.3 914.74 9
-1 4 -6 26604.4 1000.19 11
-1 4 -6 26509 1073.13 5
-1 4 -6 27292.8 823.563 8
1 -4 6 26844.4 990.207 10
1 -4 6 26022.2 1113.61 6
-1 4 -7 15.1329 158.215 9
-1 4 -7 272.048 273.359 5
-1 4 -7 54.6903 190.392 11
1 -4 7 -92.7807 253.63 14
1 -4 7 187.224 182.142 10
-1 4 -7 141.193 138.368 8
1 -4 7 133.922 224.161 7
1 -4 7 -2.29635 244.014 6
-1 4 -8 17379.5 955.077 5
-1 4 -8 16589.1 711.725 9
1 -4 8 16645.7 744.148 10
-1 4 -8 15972.9 855.478 11
1 -4 8 15638.8 904.161 14
1 -4 8 16204.5 918.097 6
1 -4 9 7811.5 492.36 10
1 -4 9 7909.23 669.303 14
1 -4 9 7978.68 685.436 6
-1 4 -9 7788.03 624.685 11
-1 4 -10 11953.5 838.577 11
1 -4 10 13782.4 915.192 6
1 -4 10 13528.9 642.47 10
1 -4 10 13209.9 885.752 14
1 -4 11 23493.4 859.676 10
1 -4 11 21658.4 1214.18 6
1 -4 11 21042.1 1185.85 14
-1 4 -11 20877.8 1174.18 11
-1 4 -12 850.561 352.623 11
1 -4 12 1135.46 409.595 6
1 -4 12 796.418 357.854 14
1 -4 13 3672.2 581.841 14
1 -4 13 4105.89 642.37 6
-1 4 -13 4868.85 621.359 11
1 -4 14 817.339 429.555 6
1 -4 14 449.484 375.863 14
-1 4 -14 307.701 389.998 11
1 -4 15 -35.819 364.15 14
-1 4 -15 387.619 462.898 11
1 -4 15 225.434 398.484 6
-1 4 -16 6046.31 830.864 11
1 -4 16 6347.75 845.211 6
1 -4 16 5960.54 794.968 14
1 -3 -14 3567.26 637.31 11
1 -3 -14 4291.14 734.933 4
-1 3 14 3973.69 656.299 6
-1 3 14 3570.16 679.293 3
-1 3 13 299.198 359.994 3
1 -3 -13 367.592 380.496 11
-1 3 13 165.299 348.054 6
1 -3 -13 482.692 531.04 4
-1 3 12 715.176 378.921 6
-1 3 12 615.128 417.096 3
1 -3 -12 988.011 456.416 4
1 -3 -12 896.733 413.187 11
1 -3 -11 596.274 424.667 4
1 -3 -11 314.58 315.735 11
-1 3 11 495.861 372.988 3
-1 3 11 -93.9227 313.197 6
-1 3 10 1535.67 407.571 6
-1 3 10 486.603 355.125 3
-1 3 10 1819.02 372.692 14
1 -3 -10 1276.58 422.705 11
1 -3 -10 1592.15 487.396 4
1 -3 -9 2650.02 490.44 4
-1 3 9 1888.16 397.921 6
-1 3 9 2423.63 466.474 3
1 -3 -9 1997.12 386.002 11
1 -3 -8 4027.96 487.226 11
-1 3 8 3730.71 464.756 6
1 -3 -8 3988.38 525.765 4
1 -3 -8 4368.49 300.327 10
-1 3 8 4577.81 541.048 3
1 -3 -7 18855.9 949.419 11
1 -3 -7 19190.5 1012.6 4
-1 3 7 19394.6 706.461 12
1 -3 -7 19479.5 725.253 10
-1 3 7 19087 1043.44 3
-1 3 7 17086.1 932.381 6
1 -3 -6 10521.3 518.476 10
-1 3 6 9138.33 660.365 6
1 -3 -6 10174.7 632.64 11
1 -3 -6 11234.2 705.498 4
-1 3 6 11375.3 517.379 12
-1 3 6 10719.1 457.061 2
-1 3 6 10845.6 731.966 3
-1 3 5 4907.18 410.796 13
-1 3 5 4504.77 461.019 6
-1 3 5 4634.59 349.175 10
1 -3 -5 4485.2 391.404 11
1 -3 -5 5062.92 445.357 4
-1 3 5 5309.72 354.129 12
1 -3 -5 4358.44 330.732 10
-1 3 5 4648.83 300.053 2
-1 3 5 4498.57 476.803 3
-1 3 4 2456.87 296.649 13
-1 3 4 1931.27 350.623 3
1 -3 -4 2267.05 281.136 11
1 -3 -4 2431.92 277.92 10
-1 3 4 2461.39 282.293 10
-1 3 4 2596.78 267.573 12
-1 3 4 2440.47 229.377 2
1 -3 -4 2546.89 322.932 4
-1 3 3 7560.83 461.033 10
-1 3 3 6581.48 493.858 3
1 -3 -3 6909.67 395.022 11
-1 3 3 7629.34 441.795 12
-1 3 3 7199.25 385.116 11
1 -3 -3 6099.75 410.37 10
-1 3 3 6402.47 436.172 13
1 -3 -3 7104.64 443.39 4
-1 3 3 6682.72 377.201 2
1 -3 -3 7571.22 452.721 1
-1 3 2 6081.47 297.712 11
-1 3 2 5215.84 369.634 1
-1 3 2 6296.58 369.872 2
-1 3 2 5608.77 388.152 10
-1 3 2 5152.12 451.103 3
1 -3 -2 6119.54 380.209 8
1 -3 -2 5264.49 288.643 11
-1 3 2 4967.43 373.367 13
1 -3 -2 5653.16 396.173 10
1 -3 -2 5668.42 356.071 4
1 -3 -2 6482.95 388.087 1
1 -3 -1 42417.6 1150.17 1
-1 3 1 38427.1 921.314 11
-1 3 1 38049.8 1246.65 3
1 -3 -1 41359.6 1095.85 8
1 -3 -1 38562.9 936.13 11
1 -3 -1 39103.4 1037.35 4
-1 3 1 37635.2 1122.06 1
1 -3 -1 38375.8 1198.05 10
1 -3 -1 37730.1 1151.46 7
-1 3 1 41270.6 1221.02 10
-1 3 0 36944.5 1101.73 1
1 -3 0 38013.9 1120.18 7
1 -3 0 40462.6 1122.68 1
1 -3 0 39655.8 1209.92 10
-1 3 0 39010.4 1063.16 14
1 -3 0 40541.1 993.557 8
1 -3 0 38257.1 979.635 4
-1 3 0 40180 989.865 4
-1 3 0 37751.8 1130.6 7
-1 3 0 42293.7 1229.98 10
1 -3 1 4510.67 174.131 8
1 -3 1 4989.25 334.471 1
1 -3 1 3920.69 303.719 14
-1 3 -1 4418.38 225.94 4
1 -3 1 4720.62 233.96 4
-1 3 -1 4799.12 364.211 10
1 -3 1 4336.86 338.047 7
-1 3 -1 4089.7 321.46 7
-1 3 -1 3962.44 315.678 1
-1 3 -1 5035.63 323.295 14
1 -3 1 4523.12 380.071 10
1 -3 2 86275.5 2136.72 7
-1 3 -2 91006.3 2240.18 6
1 -3 2 94652.8 2188.53 1
-1 3 -2 82037 2141.58 1
-1 3 -2 88354.3 1994.24 4
-1 3 -2 92505.4 2255.35 10
-1 3 -2 85054.3 2078.98 5
-1 3 -2 87744.9 1930.55 11
1 -3 2 90158.7 1945.42 11
-1 3 -2 94584.4 2170.61 14
-1 3 -2 91192.1 2163.03 7
1 -3 2 87999.5 2224.95 10
1 -3 2 85160.9 2131.47 14
-1 3 -3 5560.71 303.571 11
-1 3 -3 5367.62 299.995 4
-1 3 -3 6597.09 430.828 1
1 -3 3 5510.67 394.141 10
-1 3 -3 5953.11 383.192 5
1 -3 3 5642.14 446.501 6
-1 3 -3 5921.36 388.809 14
1 -3 3 4919.65 396.034 14
-1 3 -3 5607.96 396.006 10
1 -3 3 5623.71 375.155 7
-1 3 -3 5969.99 385.971 7
1 -3 3 5462.4 302.663 11
1 -3 3 5308.11 357.099 5
-1 3 -4 3054.75 303.516 10
1 -3 4 2633.76 336.606 14
1 -3 4 2898.05 316.606 7
-1 3 -4 2689.98 261.392 11
-1 3 -4 3039.47 189.608 8
1 -3 4 3176.72 271.167 11
-1 3 -4 2950.22 242.748 9
1 -3 4 2890.81 332.385 10
-1 3 -4 2894.18 334.032 1
1 -3 4 3376.79 310.519 5
-1 3 -4 2636.13 273.924 5
1 -3 4 2433.48 345.294 6
1 -3 5 4148.12 393.54 7
-1 3 -5 5877.8 458.219 5
1 -3 5 3530.82 392.698 14
-1 3 -5 3683.53 343.877 11
1 -3 5 3917.99 407.88 6
-1 3 -5 4138.27 343.106 10
-1 3 -5 4750.09 279.988 8
1 -3 5 4215.27 340.522 10
-1 3 -5 4353.43 297.005 9
-1 3 -6 44.7228 149.874 12
1 -3 6 -119.823 261.149 6
-1 3 -6 62.5197 147.22 9
1 -3 6 261.648 293.835 14
-1 3 -6 715.18 235.035 10
1 -3 6 78.0317 151.355 10
1 -3 6 210.59 211.106 7
-1 3 -6 -79.3931 135.637 8
-1 3 -6 37.8372 207.631 11
-1 3 -7 40722.8 1417.19 11
1 -3 7 36532.9 1415.29 14
-1 3 -7 42602 1242.33 12
1 -3 7 39422.3 1450.86 6
-1 3 -7 42472.2 1257.34 10
1 -3 7 42697.5 1231.89 10
-1 3 -8 360.316 146.156 12
-1 3 -8 585.107 265.663 11
1 -3 8 421.302 142.896 10
1 -3 8 329.678 268.343 14
1 -3 8 -25.6184 260.818 6
1 -3 8 502.94 130.622 9
1 -3 9 1593.47 373.405 14
1 -3 9 1705.48 345.749 6
-1 3 -9 2057.77 228.032 12
1 -3 9 2481.94 242.719 10
-1 3 -9 2193.98 378.134 11
1 -3 10 4304.42 519.704 6
1 -3 10 4484.99 546.739 14
-1 3 -10 4829.99 568.431 11
1 -3 10 5509.23 327.836 10
1 -3 11 -128.792 306.264 14
1 -3 11 328.98 317.876 6
-1 3 -11 316.43 303.226 11
-1 3 -12 12667.5 978.966 11
1 -3 12 11949.6 921.257 14
1 -3 12 14493.4 995.016 6
1 -3 13 6803.48 756.918 14
1 -3 13 6097.9 691.204 6
-1 3 -13 5258.56 684.077 11
-1 3 -14 223.464 368.427 11
1 -3 14 45.7705 328.342 14
1 -3 14 540.378 382.833 6
1 -3 15 5691.99 757.597 14
1 -3 15 5494.15 734.3 6
-1 3 -15 5272.18 777.299 11
1 -3 16 2310.41 569.922 6
1 -3 16 2593.78 588.772 14
1 -2 -15 61.6475 395.134 11
-1 2 15 646.328 439.319 3
-1 2 15 659.447 418.756 6
-1 2 14 2733.66 532.188 6
1 -2 -14 3038.18 613.688 11
-1 2 14 2987.54 587.499 3
-1 2 13 6581.08 752.844 6
1 -2 -13 7787.18 834.021 11
-1 2 13 6691.83 779.914 3
1 -2 -12 2210.05 485.438 11
-1 2 12 2053.34 458.241 6
-1 2 12 2338.4 505.412 3
-1 2 11 6781.5 722.092 6
-1 2 11 8304.15 631.905 14
1 -2 -11 7111.39 733.389 11
-1 2 11 5287.59 665.121 3
-1 2 10 32025.3 1248.74 14
-1 2 10 29865.4 1423.21 3
1 -2 -10 28233.9 1399.99 11
-1 2 10 28795.4 1385.07 6
-1 2 9 7059.13 649.714 6
1 -2 -9 7178.19 648.174 11
-1 2 9 7152.05 529.065 14
-1 2 9 7469.45 671.828 3
-1 2 8 2072.39 389.757 6
1 -2 -8 2490.92 394.766 11
1 -2 -8 2671.84 190.408 10
-1 2 8 2607.69 415.331 3
-1 2 8 2986.62 355.402 14
-1 2 8 2573.62 180.314 12
1 -2 -7 18202.3 606.035 10
-1 2 7 17386.4 918.951 3
1 -2 -7 17213.4 876.456 11
-1 2 7 14804.2 862.895 6
-1 2 7 18504.4 601.14 12
1 -2 -6 944.015 189.787 13
-1 2 6 1024.98 312.677 6
-1 2 6 1237.23 160.561 12
1 -2 -6 1298.29 279.276 11
1 -2 -6 811.592 147.145 10
-1 2 6 1043.28 293.551 3
-1 2 5 6893.32 502.173 3
1 -2 -5 6693.61 356.606 10
1 -2 -5 6657.31 387.318 13
-1 2 5 6282.63 281.467 2
-1 2 5 6009.2 507.157 6
1 -2 -5 6534.59 446.306 11
-1 2 4 12629.4 440.736 2
-1 2 4 11746.1 531.091 13
1 -2 -4 13176.8 585.597 11
-1 2 4 13200.7 589.565 11
1 -2 -4 13073.3 529.067 10
-1 2 4 12083.3 637.774 3
1 -2 -4 14171.7 549.845 13
-1 2 4 12025.3 659.781 6
-1 2 3 3836.9 375.794 3
1 -2 -3 3519.25 278.465 10
-1 2 3 3925.58 302.113 10
-1 2 3 3586.57 270.276 11
-1 2 3 3963.6 229.902 2
1 -2 -3 3630.81 284.763 11
1 -2 -3 4210.66 347.67 8
-1 2 3 3656.23 286.144 13
1 -2 -3 4828.87 350.772 1
-1 2 2 87148.1 2080.5 13
1 -2 -2 95656 2174.9 1
-1 2 2 86944.2 2140.8 1
1 -2 -2 93763.8 2228.04 3
-1 2 2 93126.3 2167.42 10
1 -2 -2 91690.7 2151.13 8
1 -2 -2 87639.9 2014.12 11
-1 2 2 86085.6 2214.17 3
-1 2 2 91473.8 2025.17 11
1 -2 -2 86360.3 2127.27 10
1 -2 -1 507.438 197.833 7
-1 2 1 294.649 91.18 14
1 -2 -1 479.79 93.527 11
-1 2 1 543.754 193.487 10
1 -2 -1 437.76 189.506 10
-1 2 1 282.928 80.0208 11
1 -2 -1 432.375 130.417 4
-1 2 1 264.344 174.169 1
-1 2 1 258.907 192.732 3
1 -2 -1 235.289 171.76 1
-1 2 0 6530.21 355.504 7
1 -2 0 6627.79 384.45 10
1 -2 0 6445.17 367.849 7
-1 2 0 7549.02 419.136 10
1 -2 0 6751.07 288.809 14
-1 2 0 6456.63 360.774 1
1 -2 0 7369.04 364.609 1
-1 2 0 6664 281.067 14
-1 2 -1 1501.19 146.068 5
-1 2 -1 1531.55 217.254 1
-1 2 -1 1656.89 182.37 14
1 -2 1 1546.72 207.7 1
1 -2 1 1494.38 238.879 10
-1 2 -1 1889.29 241.744 10
1 -2 1 1480.32 188.803 14
-1 2 -1 1966.03 221.415 7
1 -2 1 1645.79 230.762 7
-1 2 -2 192.974 188.283 1
1 -2 2 -33.5828 183.656 7
1 -2 2 89.2868 130.816 5
-1 2 -2 -24.5514 115.16 11
1 -2 2 127.977 175.547 14
1 -2 2 27.0677 97.9784 11
-1 2 -2 154.761 162.418 10
1 -2 2 68.6139 180.08 10
1 -2 2 15.7458 67.2 8
-1 2 -2 59.2088 169.869 6
-1 2 -2 17.2652 144.602 5
1 -2 2 54.8806 172.701 1
-1 2 -2 76.3703 176.893 7
-1 2 -2 38.9373 70.1266 8
-1 2 -2 -79.6656 150.022 14
1 -2 3 43475.3 1194.83 5
1 -2 3 40421.6 1220.56 14
1 -2 3 44451.8 1047.68 8
1 -2 3 46173.4 1164.41 11
-1 2 -3 43137 1046.92 8
-1 2 -3 42622.3 1210.64 10
-1 2 -3 41142.1 1226.44 1
-1 2 -3 43988.2 1236.53 7
1 -2 3 42054.4 1192.79 10
-1 2 -3 41577.3 1169.44 5
1 -2 3 41594.4 1240.84 6
1 -2 3 41587.1 1214.33 7
-1 2 -3 45479.1 1253.09 14
-1 2 -3 41038.2 1141.57 11
-1 2 -3 45991.3 1267.07 6
1 -2 4 1236.86 258.066 7
1 -2 4 1398.01 203.194 8
1 -2 4 1163.51 201.611 10
1 -2 4 793.814 262.954 14
-1 2 -4 1422.89 188.533 8
-1 2 -4 1272.03 216.993 10
1 -2 4 941.108 262.67 6
-1 2 -4 1889.04 270.822 6
1 -2 4 1052.86 208.409 5
1 -2 4 1640.67 232.679 11
-1 2 -4 1098.24 135.01 9
-1 2 -4 1301.78 236.949 11
1 -2 5 112408 2932.8 14
1 -2 5 123182 2740.02 10
1 -2 5 118009 2933.88 7
-1 2 -5 117290 2891.67 11
-1 2 -5 125910 2796.05 8
1 -2 5 118134 2922.03 6
1 -2 5 119943 2776.95 8
1 -2 6 577.644 205.931 8
-1 2 -6 443.329 235.969 11
1 -2 6 923.871 315.365 14
1 -2 6 454.695 247.471 6
1 -2 6 924.908 165.577 10
1 -2 6 845.538 148.095 9
1 -2 7 4169.98 473.109 14
1 -2 7 4964.45 301.538 9
1 -2 7 3908.88 433.583 6
1 -2 7 4237.88 413.251 8
-1 2 -7 4510.76 289.912 12
-1 2 -7 4055.86 422.44 11
1 -2 7 4800.32 286.99 10
-1 2 -8 1086.92 296.459 11
1 -2 8 1073.42 304.566 6
1 -2 8 1102.98 143.91 10
-1 2 -8 1132.94 146.473 12
1 -2 8 845.62 296.805 14
1 -2 8 1021.18 168.411 9
-1 2 -9 9015.71 365.318 12
1 -2 9 8934.51 679.147 6
-1 2 -9 8926.57 694.614 11
1 -2 9 8539.42 696.868 14
1 -2 9 9165.89 367.663 10
1 -2 9 9295.02 493.407 9
1 -2 10 303.11 263.702 6
1 -2 10 376.228 300.481 14
-1 2 -10 641.734 359.943 11
1 -2 11 -88.8746 297.024 6
-1 2 -11 990.759 361.52 11
1 -2 11 929.538 358.796 14
-1 2 -12 3074.61 552.816 11
1 -2 12 3710.02 555.302 14
1 -2 12 3330.11 522.055 6
1 -2 13 463.322 360.142 6
1 -2 13 203.824 315.228 14
-1 2 -13 317.036 385.471 11
1 -2 14 869.983 403.508 14
-1 2 -14 2347.33 553.782 11
1 -2 14 1785.24 502.527 6
-1 2 -15 1919.94 551.275 11
1 -2 15 1975.28 504.921 6
1 -2 15 2388.61 528.772 14
1 -2 16 2040.93 550.352 14
1 -2 16 3062.34 618.113 6
-1 1 16 892.847 456.151 3
1 -1 -15 215.232 429.997 11
-1 1 15 -28.0455 373.118 6
-1 1 15 316.005 373.36 3
1 -1 -14 724.986 433.835 11
-1 1 14 864.421 417.429 3
-1 1 14 887.609 386.162 6
-1 1 13 887.241 377.904 6
-1 1 13 1013.6 309.218 14
-1 1 13 981.111 392.145 3
1 -1 -13 1591.64 484.991 11
-1 1 12 704.464 353.296 6
-1 1 12 1612.26 410.306 3
1 -1 -12 730.871 379.258 11
-1 1 12 1315.73 324.434 14
-1 1 11 6186.2 554.865 14
-1 1 11 5473.22 632.055 6
-1 1 11 4829.79 575.105 3
1 -1 -11 5355.69 631.512 11
-1 1 10 2661.37 369.51 14
1 -1 -10 2469.77 442.89 11
-1 1 10 2974.82 474.92 6
-1 1 10 2916.01 466.607 3
-1 1 9 -71.7809 245.459 3
-1 1 9 422.407 277.817 6
1 -1 -9 515.77 278.34 11
-1 1 9 703.394 258.628 14
-1 1 8 2585.04 370.235 3
-1 1 8 1802.37 105.748 12
-1 1 8 2615.04 416.459 6
1 -1 -8 1862.12 110.699 10
1 -1 -8 2067.06 229.879 13
1 -1 -8 1934.2 348.837 11
-1 1 8 2400.14 320.23 14
-1 1 7 24692.6 1039.91 3
1 -1 -7 24677.2 1075.85 11
-1 1 7 25387.6 681.001 12
-1 1 7 24819.3 907.552 14
-1 1 7 23343.7 1072.82 6
1 -1 -7 25166 678.091 10
1 -1 -7 25856.3 840.453 13
-1 1 6 7196.26 507.289 3
1 -1 -6 7406.17 525.752 11
1 -1 -6 7447.02 318.74 10
-1 1 6 6718.63 519.222 6
-1 1 6 7027.31 416.397 14
1 -1 -6 7905.69 382.768 13
-1 1 5 351.557 214.759 3
-1 1 5 192.942 235.143 6
1 -1 -5 195.138 204.157 11
1 -1 -5 255.202 115.045 10
1 -1 -5 386.327 119.481 13
-1 1 5 548.484 183.635 14
1 -1 -4 17887.9 554.848 13
1 -1 -4 17797.5 708.195 11
-1 1 4 18535.1 716.45 3
1 -1 -4 19898.6 731.894 3
-1 1 4 16588.5 749.951 6
-1 1 4 19306.2 727.036 11
-1 1 4 17803.3 564.188 14
1 -1 -4 17189.7 585.147 10
1 -1 -3 21947.7 743.929 1
-1 1 3 19482.5 528.504 14
-1 1 3 21319.5 697.304 11
1 -1 -3 18508.5 665.557 11
1 -1 -3 18256 631.451 10
1 -1 -3 21835.1 731.155 3
-1 1 3 19200.8 699.905 3
-1 1 3 19832.5 564.099 13
1 -1 -2 369.11 194.978 10
-1 1 2 27.6396 181.872 1
1 -1 -2 -25.5124 163.117 1
-1 1 2 108.71 170.127 3
-1 1 2 0.77439 114.857 11
1 -1 -2 16.3413 120.679 11
-1 1 2 79.6692 100.38 13
1 -1 -1 8628.69 301.344 11
1 -1 -1 8539.05 380.584 1
1 -1 -1 7923.88 376.373 7
-1 1 1 7933.03 383.422 1
1 -1 0 517824 10395.3 1
1 -1 0 506319 10395 7
-1 1 0 515503 10403.5 7
1 -1 0 503014 10250.1 14
-1 1 0 504846 10394.7 1
1 -1 1 5603.08 308.009 7
1 -1 1 5418.98 280.334 14
1 -1 1 5935.68 233.183 5
1 -1 1 5085.61 239.134 11
-1 1 -1 4865.8 235.81 8
1 -1 1 5281.36 235.815 8
-1 1 -1 6036.44 208.985 4
1 -1 1 5432.65 293.307 1
-1 1 -1 5111.97 298.943 1
-1 1 -1 5359.34 301.135 7
-1 1 -2 26056.9 714.151 8
-1 1 -2 25333.6 747.743 11
-1 1 -2 26718.3 801.915 7
1 -1 2 25045.5 768.972 6
1 -1 2 25954.2 796.568 7
-1 1 -2 26701.5 784.784 6
1 -1 2 26136.6 752.72 11
-1 1 -2 24961.4 783.771 1
1 -1 2 25468.8 773.099 10
1 -1 2 27631.9 716.253 8
-1 1 -3 62415.1 1520.52 6
-1 1 -3 57544.6 1512.97 11
1 -1 3 60345.3 1520.04 11
-1 1 -3 61152.5 1469.25 8
1 -1 3 57216 1442.06 10
-1 1 -3 61412.2 1547.12 7
1 -1 3 59563.7 1456.2 8
1 -1 3 56346.5 1533.21 7
1 -1 3 56567.8 1498.4 6
1 -1 4 45324.1 1326.68 7
-1 1 -4 47575.6 1266.81 8
-1 1 -4 48193 1290.25 6
1 -1 4 48817.5 1339.02 11
1 -1 4 42472.9 1270.43 6
1 -1 4 45250.3 1154.24 10
-1 1 -4 44359.1 1305.27 11
-1 1 -4 48096.1 1346.76 3
-1 1 -4 46427.2 1324.29 7
1 -1 4 41468.7 1015.04 9
1 -1 4 45826.3 1257.61 8
1 -1 5 19147.2 782.484 6
1 -1 5 20010.8 793.205 8
1 -1 5 19348.5 578.142 9
1 -1 5 19073.5 840.347 14
1 -1 5 20766 632.202 10
-1 1 -5 19214.4 820.879 11
1 -1 6 -62.9375 194.874 6
-1 1 -6 187.928 248.749 11
1 -1 6 535.071 316.52 14
1 -1 6 55.7943 113.208 9
1 -1 6 -152.485 101.632 10
1 -1 6 -94.3874 214.308 8
1 -1 7 23664.8 1076.61 14
-1 1 -7 24989.7 1087.19 11
1 -1 7 26655.6 707.409 10
1 -1 7 26524.4 823.79 9
1 -1 7 25270.4 1019.37 6
1 -1 7 23560.8 1036.61 8
1 -1 8 1069.87 183.414 9
1 -1 8 1180.09 341.028 14
-1 1 -8 862.58 90.1696 12
1 -1 8 1138.26 312.068 6
1 -1 8 1075.7 296.5 8
1 -1 8 839.583 83.849 10
-1 1 -8 676.004 305.736 11
1 -1 9 16205.7 925.525 14
1 -1 9 16959.1 883.262 6
-1 1 -9 15944.2 941.254 11
1 -1 9 13599 862.075 8
-1 1 -10 2934.23 489.076 11
1 -1 10 3147.04 448.375 6
1 -1 10 3111.65 486.359 14
1 -1 11 129.001 310.263 14
-1 1 -11 628.768 360.727 11
1 -1 11 248.171 266.616 6
1 -1 12 8473.86 745.16 6
1 -1 12 7300.86 744.667 14
-1 1 -12 7045.05 759.153 11
1 -1 13 2250.51 478.742 6
1 -1 13 3153.74 539.107 14
-1 1 -13 2530.61 533.325 11
1 -1 14 967.799 430.887 14
-1 1 -14 989.384 449.086 11
1 -1 14 614.1 378.094 6
-1 1 -15 1123.58 517.443 11
1 -1 15 2361.92 543.27 6
1 -1 15 1589.78 489.65 14
1 -1 16 -502.656 438.484 14
1 -1 16 311.571 378.257 6
-1 0 16 495.852 461.485 6
-1 0 15 -182.657 355.576 6
1 0 -15 -13.2386 356.021 11
-1 0 15 -414.924 351.267 3
-1 0 14 52.292 359.677 6
1 0 -14 1060.09 467.623 11
-1 0 14 167.663 301.615 14
-1 0 14 441.046 337.115 3
-1 0 13 -65.1374 316.917 6
-1 0 13 43.5363 302.568 14
1 0 -13 271.528 350.6 11
-1 0 13 -116.414 343.206 3
-1 0 12 9384.19 785.441 3
-1 0 12 9615.63 840.692 6
1 0 -12 9678.44 855.311 11
-1 0 12 10854.3 754.225 14
-1 0 11 136.715 222.401 14
1 0 -11 -160.929 335.396 11
-1 0 11 -136.712 320.224 6
-1 0 11 -272.653 277.559 3
-1 0 10 3605.37 506.354 6
-1 0 10 3107.9 416.345 3
1 0 -10 3460.31 497.224 11
-1 0 10 2880.9 369.196 14
1 0 -9 546.432 279.555 11
-1 0 9 528.946 293.173 6
1 0 -9 632.757 162.84 13
-1 0 9 506.555 197.772 14
-1 0 9 688.893 264.354 3
1 0 -8 3000.87 251.561 13
-1 0 8 2011.72 372.872 6
-1 0 8 2223.12 324.174 3
1 0 -8 2263.19 379.808 11
-1 0 8 2700.71 322.811 14
1 0 -7 48198 1177.95 10
1 0 -7 52214.6 1669.42 11
-1 0 7 52843.5 1477.76 14
1 0 -7 55485.2 1320.04 13
-1 0 7 49219.9 1168.32 12
-1 0 7 49804.3 1665.76 6
-1 0 7 52748.8 1559.43 3
-1 0 6 20866.5 807.346 3
-1 0 6 20458.9 913.671 6
-1 0 6 20661 604.284 12
1 0 -6 21059.3 900.947 11
1 0 -6 21425.5 632.744 13
-1 0 6 21001.7 752.637 14
1 0 -5 22268.9 875.88 11
-1 0 5 20830.6 884.391 6
1 0 -5 24161.7 793.469 3
-1 0 5 22310.2 731.491 14
1 0 -5 22179.3 605.135 13
-1 0 5 23296.9 789.477 3
1 0 -4 5205.76 381.503 11
-1 0 4 5521.42 289.931 14
-1 0 4 5628.72 358.361 5
-1 0 4 5186 324.263 3
1 0 -4 5053.66 281.633 14
1 0 -4 5938.67 414.709 6
-1 0 4 4784.17 394.651 6
1 0 -4 5728.53 319.663 3
-1 0 4 5539.84 376.982 11
-1 0 3 28691.1 827.74 5
-1 0 3 28760.9 729.299 14
1 0 -3 28950.3 790.594 3
-1 0 3 26811.5 895.717 6
-1 0 3 29734.2 783.753 3
-1 0 3 31432.9 904.475 11
1 0 -3 29084.1 830.567 5
1 0 -3 28897.9 889.344 11
1 0 -3 28434.7 733.761 14
-1 0 3 26197.6 661.214 2
1 0 -2 22.1307 78.4127 14
-1 0 2 25.6847 110.381 5
-1 0 2 293.966 177.472 6
1 0 -2 -88.0955 164.763 1
-1 0 2 -16.9788 114.185 3
1 0 -2 -77.0706 125.237 5
1 0 -1 26791.3 733.923 7
1 0 -1 25881.3 701.56 4
-1 0 1 26859.2 752.641 1
-1 0 1 27566.6 699.201 4
1 0 -1 28065.7 759.307 1
-1 0 0 174634 3722.43 1
1 0 0 177226 3748.18 8
1 0 0 177761 3723.08 7
-1 0 0 178660 3729.91 7
1 0 0 179991 3726.22 1
1 0 1 5480.11 281.682 4
1 0 1 6717.62 306.65 7
-1 0 -1 5915.42 250.13 6
1 0 1 5918.44 205.342 9
-1 0 -1 6495.48 306.095 7
1 0 1 6025.13 302.857 8
-1 0 -1 6357.43 282.953 1
1 0 1 5922.9 278.743 1
-1 0 -1 5619.62 199.738 9
-1 0 -1 5902.9 284.128 4
-1 0 -1 5691.26 307.257 8
-1 0 -2 445745 8860.96 7
-1 0 -2 439167 8912.07 3
-1 0 -2 427957 8814.23 1
1 0 2 424673 8756.47 6
1 0 2 421593 8859.11 8
1 0 2 451624 8909.89 11
-1 0 -2 433028 8759.07 6
1 0 2 419876 8845.68 7
-1 0 -2 423902 8864.06 4
-1 0 -2 433586 8872.13 8
-1 0 -2 427279 8908.3 11
1 0 3 508872 10598.2 3
1 0 3 503933 10428.3 6
1 0 3 523626 10597.7 11
-1 0 -3 495828 10587.6 11
-1 0 -3 528211 10549.9 7
1 0 3 504229 10548.7 8
-1 0 -3 519603 10603.4 3
-1 0 -3 521701 10568.1 8
-1 0 -3 518725 10437.9 6
1 0 3 493126 10542.9 7
1 0 4 89175.3 2151.86 6
-1 0 -4 94748.1 2177.57 6
-1 0 -4 89236.7 2309.26 11
1 0 4 92582.6 2325 3
1 0 4 89093.5 2285.82 8
-1 0 -5 3512.34 306.777 6
1 0 5 3080.45 309.527 6
-1 0 -5 3995.6 415.087 11
-1 0 -5 3974.4 243.237 12
1 0 5 4502.05 412.066 8
1 0 5 3664.42 411.021 3
1 0 6 93555.9 2481.68 3
-1 0 -6 88975.3 1987.04 12
1 0 6 91358.3 2451.47 8
-1 0 -6 88792 2481.4 11
1 0 6 89962 2306.13 6
1 0 7 35571.4 1221.39 6
1 0 7 37315.8 1368.8 3
1 0 7 35887.2 1318.98 8
-1 0 -7 37040.1 1372.63 11
-1 0 -7 33249.4 814.36 12
1 0 7 31972.2 812.768 10
1 0 8 5494.61 475.06 6
1 0 8 5844.62 549.783 8
-1 0 -8 5953.14 571.447 11
1 0 8 6929.38 609.649 3
-1 0 -9 3998.93 521.931 11
1 0 9 3956.4 510.014 3
1 0 9 4386.71 457.83 6
1 0 9 3439.12 474.245 8
1 0 9 4448.23 535.626 14
1 0 10 155.85 277.523 8
-1 0 -10 317.727 309.75 11
1 0 10 561.928 271.09 6
1 0 10 308.188 340.929 14
1 0 10 287.065 299.975 3
1 0 11 8201.79 689.639 6
-1 0 -11 8547.76 783.453 11
1 0 11 8026.15 754.357 14
1 0 11 7986.11 770.23 3
1 0 12 8073.15 730.314 6
1 0 12 8290.51 790.174 14
-1 0 -12 7981.08 832.655 11
1 0 12 7180.05 769.507 3
1 0 13 1639.74 497.569 14
1 0 13 1659.63 417.923 6
-1 0 -13 2001.2 524.834 11
-1 0 -14 -311.003 425.849 11
1 0 14 -8.73782 365.858 14
1 0 14 170.83 380.801 6
-1 0 -14 240.396 438.7 4
1 0 15 622.946 433.746 14
-1 0 -15 443.016 392.582 11
1 0 15 337.377 377.57 6
1 0 16 429.429 429.276 14
-1 -1 16 301.523 425.389 6
-1 -1 15 2440.22 565.411 6
-1 -1 15 2717.86 489.392 14
1 1 -15 2350.3 566.699 11
1 1 -14 5089.7 684.783 11
-1 -1 14 6018.89 751.487 6
-1 -1 14 6387.59 696.306 3
-1 -1 14 6237.93 670.433 14
-1 -1 13 959.914 311.509 14
1 1 -13 325.974 356.908 11
-1 -1 13 343.965 375.753 6
-1 -1 13 52.1646 267.98 3
-1 -1 12 5376.2 569.042 3
-1 -1 12 6977.54 620.716 14
1 1 -12 6576.53 720.508 11
-1 -1 12 5998.34 670.91 6
-1 -1 11 19777.3 1012.72 14
-1 -1 11 19714.6 1135.96 6
-1 -1 11 20958.9 1039.01 3
1 1 -11 19458.5 1149.2 11
-1 -1 10 222.214 273.012 6
-1 -1 10 427.611 233.592 14
1 1 -10 371.5 298.77 11
-1 -1 10 605.736 259.743 3
-1 -1 9 2388.53 132.218 12
1 1 -9 2226.04 136.444 10
-1 -1 9 2569.23 338.919 14
-1 -1 9 2670.75 428.538 6
-1 -1 9 2907.74 367.894 3
1 1 -9 3248.89 430.037 11
-1 -1 8 757.499 102.07 12
1 1 -8 731.246 292.476 11
-1 -1 8 1007.18 325.039 6
1 1 -8 765.24 107.201 10
-1 -1 8 406.543 187.215 3
-1 -1 8 607.2 217.394 14
-1 -1 7 13232.1 447.716 12
-1 -1 7 12535.9 624.979 14
1 1 -7 13138.3 584.261 3
-1 -1 7 13192.9 745.552 6
1 1 -7 12318 724.792 11
-1 -1 7 12045.9 590.388 3
1 1 -7 12860.6 451.145 10
1 1 -7 11375.1 359.366 2
1 1 -6 7475.76 391.157 3
-1 -1 6 7870.46 339.891 12
-1 -1 6 6701.95 422.591 14
-1 -1 6 7825.4 558.966 6
-1 -1 6 6499.59 382.395 3
1 1 -6 7067.44 519.145 11
1 1 -6 6876.79 267.738 2
1 1 -6 6969.52 427.955 14
1 1 -6 8178.38 549.766 5
1 1 -5 36227.3 1222.63 11
-1 -1 5 38618.9 1015.58 12
-1 -1 5 36947.5 1096.21 14
1 1 -5 37532.9 1011.3 3
-1 -1 5 37589 1019.13 3
1 1 -5 39210.1 930.943 2
-1 -1 5 35671.3 1223.3 6
1 1 -5 38078.5 1105.94 14
1 1 -5 36553.3 1189.07 5
1 1 -4 312061 6361.8 2
1 1 -4 309429 6346.82 3
1 1 -4 299719 6641.51 11
-1 -1 4 307038 6351.79 2
1 1 -4 308121 6587.25 5
-1 -1 4 319115 6594.46 5
1 1 -4 323868 6644.82 6
-1 -1 4 307320 6348.47 3
1 1 -4 310322 6493.83 14
-1 -1 4 322693 6644.21 9
-1 -1 4 311880 6452.38 12
-1 -1 4 300079 6626.53 6
-1 -1 4 308946 6489.19 14
-1 -1 3 463883 9564.38 2
-1 -1 3 481637 9699.48 5
1 1 -3 448307 9448.89 13
1 1 -3 481666 9731.52 6
1 1 -3 461161 9752.6 11
-1 -1 3 469377 9647.29 12
-1 -1 3 450803 9724.96 6
1 1 -3 469554 9629.37 14
1 1 -3 464477 9695.48 5
-1 -1 3 486086 9752.8 9
1 1 -3 484240 9734.25 4
1 1 -3 477522 9569.28 2
-1 -1 2 353917 7508.02 2
-1 -1 2 366849 7542.59 6
-1 -1 2 362778 7572.95 12
1 1 -2 363034 7412.28 13
1 1 -2 359967 7589.48 9
1 1 -2 372604 7512.85 2
-1 -1 2 371769 7607.05 9
1 1 -2 369719 7546.04 6
1 1 -2 381769 7589.5 4
-1 -1 2 357996 7571.83 4
-1 -1 2 369567 7412.56 13
1 1 -1 2638.76 251.786 12
-1 -1 1 1896.22 229.038 4
-1 -1 1 2045.89 164.815 6
1 1 -1 2049.64 176.425 1
1 1 -1 2323.6 180.095 6
-1 -1 1 1975.08 223.596 12
1 1 -1 2057.73 202.923 13
1 1 -1 2064.85 208.25 4
1 1 -1 2047.75 218.646 9
1 1 -1 1922.65 152.463 7
-1 -1 1 2313.23 213.954 9
-1 -1 1 2174.38 126.731 3
-1 -1 1 2091.91 224.353 2
-1 -1 1 2012.86 175.112 13
1 1 0 12698.7 396.533 7
-1 -1 0 13079.4 397.659 1
-1 -1 0 14073.6 501.25 13
1 1 0 14525.5 509.556 4
-1 -1 0 13181.2 507.908 12
1 1 0 13300 513.625 8
1 1 0 12755 454.332 9
-1 -1 0 12777.9 399.15 7
-1 -1 0 12590.9 505.321 8
-1 -1 0 13521.9 443.892 3
1 1 0 13381 447.365 3
-1 -1 0 12756.6 497.723 4
1 1 0 14170.5 526.857 12
-1 -1 0 13027.3 503.172 2
1 1 0 13086.4 396.388 1
1 1 1 17221.2 527.574 7
1 1 1 16758 626.01 8
-1 -1 -1 17227.6 608.167 12
-1 -1 -1 18210.3 633.095 4
1 1 1 17780.8 607.931 3
1 1 1 16479.6 629.572 4
-1 -1 -1 17314.5 534.148 7
-1 -1 -1 19607.4 625.136 3
1 1 1 18473.7 492.928 1
-1 -1 -1 16767.7 642.612 8
-1 -1 -1 16755.4 482.778 1
-1 -1 -2 34240.2 984.759 12
1 1 2 38587.1 1110.53 11
1 1 2 33952.1 1064.83 3
1 1 2 32959.5 1068.09 8
-1 -1 -2 36065.1 1077.5 4
-1 -1 -2 39204.1 1094.21 3
1 1 2 35931.8 842.383 6
-1 -1 -2 35628 846.975 6
-1 -1 -2 36904.5 989.966 7
-1 -1 -2 37546.1 1087.08 8
-1 -1 -2 35977 918.169 1
1 1 2 36556.4 1104.5 4
1 1 2 35420.7 982.388 7
1 1 3 64120.6 1514.06 6
-1 -1 -3 62452.1 1581.2 12
-1 -1 -3 67845.3 1688.39 7
1 1 3 63077.8 1747.58 3
1 1 3 66565.6 1773.88 11
1 1 3 64977.6 1765.29 8
-1 -1 -3 63809.7 1780.65 11
-1 -1 -3 63737.7 1759.69 4
-1 -1 -3 69207.6 1540.68 6
1 1 4 13567.7 694.984 8
-1 -1 -4 14502.7 541.46 6
1 1 4 13550.3 527.025 6
1 1 4 13720 692.506 3
-1 -1 -4 14790.2 717.945 4
-1 -1 -4 14032.3 507.63 12
-1 -1 -4 13098.5 694.762 11
1 1 5 146547 3657.5 8
1 1 5 149932 3671.7 3
1 1 5 147657 3399.44 6
-1 -1 -5 153007 3427.28 6
-1 -1 -5 148249 3693 4
-1 -1 -5 152104 3261.67 12
-1 -1 -5 153135 3691.48 11
1 1 6 13836.6 798.605 8
1 1 6 14458.4 662.484 6
1 1 6 15380.9 507.562 10
-1 -1 -6 14807.3 497.191 12
-1 -1 -6 15436 841.026 4
-1 -1 -6 14731.9 819.386 11
1 1 6 14956 822.446 3
-1 -1 -6 14003.5 655.064 2
1 1 7 6662.01 595.36 3
1 1 7 6602.43 470.619 6
-1 -1 -7 5849.02 544.318 11
-1 -1 -7 7470.99 628.983 4
-1 -1 -7 6307 278.439 12
1 1 7 6423.85 581.459 8
1 1 7 6694.19 287.899 10
-1 -1 -7 6673.7 433.347 2
1 1 8 7024.21 514.651 6
1 1 8 7451.55 643.287 3
1 1 8 5540.03 214.292 10
-1 -1 -8 6973.62 640.564 4
1 1 8 7022.7 620.758 8
-1 -1 -8 6832.81 627.461 11
-1 -1 -8 6634.62 446.452 2
1 1 9 14703.9 819.059 6
1 1 9 14226.3 956.967 3
-1 -1 -9 16970 1026.55 11
-1 -1 -9 17931.6 1070.54 4
1 1 9 14664.7 979.103 8
-1 -1 -9 16152.4 718.236 2
1 1 10 457.559 254.381 6
1 1 10 -107.977 309.915 3
-1 -1 -10 304.028 298.529 11
-1 -1 -10 85.3863 156.842 2
-1 -1 -10 -248.214 330.399 4
1 1 10 309.261 344.486 8
1 1 11 847.477 391.736 14
1 1 11 784.584 327.637 6
-1 -1 -11 747.031 428.76 4
1 1 11 676.811 373.131 3
-1 -1 -11 429.87 374.496 11
-1 -1 -12 796.939 461.379 4
1 1 12 55.6111 278.044 6
-1 -1 -12 190.921 338.892 11
1 1 12 43.1477 366.473 14
1 1 12 520.714 398.143 3
1 1 13 3967.65 658.921 3
1 1 13 4968.6 617.362 6
-1 -1 -13 4935.29 731.473 11
1 1 13 4925.92 676.726 14
-1 -1 -13 4563.27 727.926 4
1 1 14 -467.925 432.515 3
1 1 14 994.801 478.427 14
-1 -1 -14 397.775 424.144 11
-1 -1 -14 412.29 437.161 4
1 1 15 604.76 445.225 14
1 2 -16 796.93 493.427 11
-1 -2 16 49.7539 395.473 6
1 2 -15 2090.14 538.485 11
-1 -2 15 938.539 440.039 6
-1 -2 15 1033.01 365.996 14
-1 -2 14 -73.9159 279.146 14
-1 -2 14 507.906 381.941 6
1 2 -14 525.209 354.119 11
-1 -2 13 12109.8 979.39 6
1 2 -13 14578.7 1109.31 11
-1 -2 13 14898.7 965.888 14
-1 -2 12 1854.84 468.557 6
-1 -2 12 2019.81 406.975 14
1 2 -12 1407.93 408.075 11
1 2 -11 2261.1 431.208 11
-1 -2 11 2220.32 387.052 14
-1 -2 11 2461.22 485.613 6
-1 -2 10 1561.9 328.542 14
-1 -2 10 1302.09 364.134 6
1 2 -10 1535.73 144.406 2
1 2 -10 1672.81 387.563 11
1 2 -9 12817.4 474.376 2
-1 -2 9 11796.4 697.104 14
1 2 -9 12015.3 483.301 10
1 2 -9 12180.5 813.337 11
-1 -2 9 12685.2 485.234 12
-1 -2 9 10517.9 756.909 6
-1 -2 8 12406.4 772.65 6
1 2 -8 13521.7 599.166 3
1 2 -8 12563.7 791.854 11
1 2 -8 12894.6 792.536 5
1 2 -8 13000.1 527.188 10
1 2 -8 13743 509.536 2
-1 -2 8 13708 526.021 12
-1 -2 8 12899.9 717.288 14
1 2 -7 17897.4 644.206 10
1 2 -7 18472.7 617.396 2
-1 -2 7 16031.1 753.089 14
-1 -2 7 16301 846.339 6
1 2 -7 17357.5 872.094 5
-1 -2 7 17248 629.94 12
1 2 -7 17607 640.164 3
1 2 -7 15296.4 834.928 11
-1 -2 6 4714.06 315.593 12
1 2 -6 4674.98 283.558 2
-1 -2 6 4905.91 390.299 14
1 2 -6 4432.42 445.126 11
-1 -2 6 4226.78 440.623 6
1 2 -6 4661.49 311.618 10
1 2 -6 4474.54 422.203 5
1 2 -6 4882.41 271.648 3
1 2 -6 4981.38 354.081 12
1 2 -5 2356.3 347.164 9
1 2 -5 1917.52 231.77 12
-1 -2 5 1707.68 265.34 14
1 2 -5 1426.68 134.552 3
-1 -2 5 1293.34 203.26 12
1 2 -5 1762.95 195.841 2
1 2 -5 1719.17 290.707 11
1 2 -5 1561.49 215.721 10
-1 -2 5 1392.26 268.473 6
1 2 -5 1167.8 262.922 5
1 2 -4 4366.18 387.19 5
1 2 -4 5585.02 372.236 14
-1 -2 4 5465 352.884 12
1 2 -4 5156.19 412.774 9
-1 -2 4 5011.63 385.463 6
1 2 -4 4836 396.164 11
1 2 -4 5836.77 392.48 6
-1 -2 4 5189.57 334.977 2
1 2 -4 5377.15 319.318 2
-1 -2 4 6036.85 417.266 9
1 2 -4 5616.15 359.694 12
-1 -2 4 5483.91 388.648 14
-1 -2 3 1211.36 268.258 4
1 2 -3 1307.36 179.347 13
1 2 -3 1524.02 226.588 14
-1 -2 3 1402.57 225.53 6
1 2 -3 2257.98 250.081 6
-1 -2 3 1439.68 224.91 2
-1 -2 3 1713.98 257.295 9
-1 -2 3 1867.97 256.571 12
1 2 -3 1976.13 223.799 2
1 2 -3 1566.94 260.228 9
1 2 -3 1891.69 250.468 12
1 2 -3 1643.23 248.083 4
1 2 -3 1259.73 251.834 5
1 2 -2 148673 3129.15 2
-1 -2 2 134667 2844.04 3
-1 -2 2 140216 3030 13
1 2 -2 130796 3023.89 13
1 2 -2 143781 3154.67 4
-1 -2 2 136095 3001.24 6
1 2 -2 136000 2837.73 3
-1 -2 2 137004 3120.29 12
1 2 -2 144876 3023.41 6
-1 -2 2 142340 3130.9 9
1 2 -2 136886 3134.98 9
1 2 -2 144293 3151.74 12
-1 -2 2 133052 3092.63 2
-1 -2 2 129646 3123.17 4
1 2 -1 10735.7 487.593 2
1 2 -1 9342.32 468.97 13
-1 -2 1 11287.6 385.654 3
-1 -2 1 11004.2 473.578 13
1 2 -1 10675.1 367.312 6
-1 -2 1 11252.6 363.26 6
1 2 -1 11504.3 515.263 12
1 2 -1 10972.6 394.858 3
-1 -2 1 9789.58 490.648 12
1 2 -1 9283.52 479.364 8
1 2 -1 9970.31 476.577 9
-1 -2 1 10437.1 499.571 2
-1 -2 1 10935.3 516.451 4
1 2 -1 10725.7 503.255 4
1 2 0 17397.4 690.889 13
1 2 0 18374.7 607.113 3
-1 -2 0 19151.6 612.219 3
-1 -2 0 16925.7 678.28 2
-1 -2 0 16442.1 678.17 4
-1 -2 0 17936.9 667.727 13
-1 -2 0 16448.4 458.984 7
1 2 0 18329.4 682.537 12
1 2 0 16951.6 672.431 8
1 2 0 18564.1 681.028 4
-1 -2 0 18130.5 684.782 8
-1 -2 0 18869.4 685.703 12
1 2 0 18912 682.404 2
1 2 0 17478.1 452.73 7
-1 -2 -1 20558.5 578.075 7
-1 -2 -1 18156.4 726.823 2
1 2 1 20042.4 781.063 13
1 2 1 20582.3 736.58 12
-1 -2 -1 20673.3 758.48 8
-1 -2 -1 19500.1 710.212 12
-1 -2 -1 20892.9 717.814 3
-1 -2 -1 19716.2 755.213 13
1 2 1 18753 705.502 3
1 2 1 19902 764.687 4
-1 -2 -1 18149.4 748.986 4
1 2 1 18062 734.958 8
1 2 1 20219.6 737.843 2
-1 -2 -2 34732.1 1085.83 2
1 2 2 36371.6 1062.98 12
1 2 2 32564.4 788.246 6
1 2 2 35905.3 1139.89 11
-1 -2 -2 33107.6 1021.73 12
1 2 2 33762.2 1114.14 8
-1 -2 -2 35139.4 837.207 1
-1 -2 -2 36382.3 973.337 7
1 2 2 34311 1103.27 3
-1 -2 -2 33541 1120.57 4
-1 -2 -3 22974.7 865.33 2
1 2 3 25561.4 819.937 10
-1 -2 -3 23402.2 796.16 12
1 2 3 24853.5 831.222 12
1 2 3 23888.2 947.488 3
-1 -2 -3 27253.1 853.939 7
1 2 3 23971.8 670.898 6
1 2 3 21936.4 927.811 8
-1 -2 -3 22921 937.456 4
-1 -2 -4 42625.8 1339.68 2
1 2 4 45747.9 1277.87 12
-1 -2 -4 47395.1 1508.59 11
1 2 4 44418.6 1180.09 6
-1 -2 -4 44344.3 1236.14 12
1 2 4 44957.1 1491.97 3
1 2 4 47873.9 1268.67 10
1 2 4 43911 1464.2 8
-1 -2 -4 43285.1 1479.68 4
-1 -2 -5 44993.3 1353 2
-1 -2 -5 43398.1 1536.21 11
1 2 5 43856.4 1240.61 6
1 2 5 46481.9 1239.55 10
1 2 5 42830.2 1525.24 3
1 2 5 42007.3 1508.03 8
-1 -2 -5 40989.1 1509.89 4
-1 -2 -5 44186.8 1214.48 12
-1 -2 -6 29985.9 1051.85 2
1 2 6 28094.1 986.932 6
1 2 6 31343.7 915.078 10
-1 -2 -6 28689.4 886.667 12
-1 -2 -6 29307.1 1250.76 11
1 2 6 27641.4 1221.77 3
1 2 6 27785 1220.79 8
-1 -2 -6 29316.8 1271.11 4
-1 -2 -7 20328.4 824.086 2
1 2 7 18228.8 803.712 6
1 2 7 17303.5 987.654 3
-1 -2 -7 16895.8 971.855 11
1 2 7 18430 632.63 10
1 2 7 16281.2 968.747 8
-1 -2 -7 18984 1028.38 4
-1 -2 -7 18919.9 640.21 12
1 2 8 22409.5 1209.88 8
-1 -2 -8 24694.4 1267.33 11
-1 -2 -8 27599.1 1018.36 2
-1 -2 -8 26203.3 1325.26 4
1 2 8 26473.7 1046.14 6
1 2 8 24665.4 1255.3 3
-1 -2 -9 1589.78 254.172 2
1 2 9 2087.94 341.156 6
1 2 9 941.255 351.087 8
-1 -2 -9 1694.06 388.913 11
1 2 9 1796.02 432.789 3
-1 -2 -9 2097.31 480.443 4
1 2 10 2878.3 418.383 6
-1 -2 -10 2959.35 560.513 11
1 2 10 2113.88 462.284 8
1 2 10 3322.54 566.147 3
-1 -2 -10 3139.2 566.873 4
1 2 11 2903.4 550.24 8
1 2 11 3502.06 465.864 6
-1 -2 -11 3888.85 610.188 11
1 2 11 3370.99 586.43 3
-1 -2 -11 3783.7 640.477 4
1 2 12 728.528 389.084 14
-1 -2 -12 80.8215 332.19 11
1 2 12 405.985 395.574 3
-1 -2 -12 513.878 442.415 4
-1 -2 -13 -10.5618 354.454 11
1 2 13 -565.767 407.017 3
1 2 13 553.081 420.639 14
-1 -2 -13 -174.2 427.931 4
-1 -2 -14 -417.48 411.541 11
1 2 14 157.623 449.402 3
1 2 14 329.871 393.68 14
1 2 15 3860.16 683.946 14
-1 -3 16 3536.19 703.479 6
1 3 -16 3755.28 730.765 11
-1 -3 16 2845.5 546.879 14
-1 -3 15 5289.74 745.084 6
-1 -3 15 5509.5 661.931 14
1 3 -15 6318.47 806.508 11
-1 -3 14 3313.83 519.408 14
-1 -3 14 3263.73 589.611 6
1 3 -14 3724.32 631.785 11
1 3 -13 3534.99 589.123 11
-1 -3 13 2933.32 486.447 14
-1 -3 13 2593.77 534.018 6
1 3 -12 930.4 355.376 11
-1 -3 12 732.128 313.936 14
-1 -3 11 6836.12 622.428 14
-1 -3 11 7038.93 707.622 6
1 3 -11 7533.17 721.226 11
-1 -3 10 310.352 143.812 12
1 3 -10 -70.8474 262.359 11
-1 -3 10 341.667 263.381 14
1 3 -10 58.457 116.198 2
-1 -3 10 -275.025 275.586 6
1 3 -9 653.217 360.363 5
1 3 -9 7.65802 263.489 11
-1 -3 9 129.982 122.42 12
-1 -3 9 228.687 221.35 14
1 3 -9 91.1429 106.607 2
-1 -3 9 572.74 308.933 6
1 3 -9 316.3 144.072 10
1 3 -9 316.252 138.344 3
1 3 -8 18542.7 717.002 2
1 3 -8 17753.1 949.818 11
-1 -3 8 18051.1 724.441 12
1 3 -8 17311.4 941.688 5
-1 -3 8 17864.7 949.892 6
1 3 -8 19066.7 678.281 3
-1 -3 8 16832.4 870.44 14
1 3 -7 34477.7 1070.09 2
-1 -3 7 31356.6 1250.72 6
-1 -3 7 33182.7 1074.06 12
1 3 -7 32418.6 1281.5 11
1 3 -7 32121.4 1280.18 5
1 3 -7 34551.1 936.62 3
1 3 -7 32623.1 1227.22 9
-1 -3 7 30076 1185.81 14
1 3 -6 177624 4407.45 11
1 3 -6 183609 4421.52 5
-1 -3 6 181544 4368.23 6
-1 -3 6 188839 4210.33 12
1 3 -6 186398 3936.47 3
1 3 -6 181134 4370.51 9
-1 -3 6 188587 4341.33 14
1 3 -6 199518 4216.82 2
1 3 -5 45685.3 1124.37 3
-1 -3 5 50957.1 1428.87 12
-1 -3 5 50104.2 1485.28 6
-1 -3 5 48060 1386.3 2
1 3 -5 49645.7 1534.42 11
1 3 -5 50652 1543.42 5
1 3 -5 48793.1 1503.13 9
1 3 -5 54420.9 1437.46 2
1 3 -4 921.739 194.138 13
-1 -3 4 972.731 236.058 12
-1 -3 4 881.644 275.844 4
1 3 -4 45.8644 261.719 9
-1 -3 4 1024.58 244.241 6
1 3 -4 804.765 93.2594 3
1 3 -4 986.884 217.073 2
-1 -3 4 972.175 223.368 2
1 3 -4 850.198 268.647 5
-1 -3 3 55394 1466.05 6
1 3 -3 58570.2 1477.55 6
-1 -3 3 54141.1 1535.71 2
-1 -3 3 53900.7 1569.06 4
1 3 -3 53569.7 1251.97 3
-1 -3 3 54906.1 1553.69 12
1 3 -3 50819.1 1549.69 9
1 3 -3 53574.9 1454.28 13
-1 -3 2 257.266 248.908 4
1 3 -2 -3.41904 182.133 13
-1 -3 2 -121.409 110.431 3
-1 -3 2 448.086 246.602 12
-1 -3 2 104.809 162.075 13
-1 -3 2 -2.23913 202.481 2
1 3 -2 -359.282 154.426 3
1 3 -2 31.5376 209.811 9
1 3 -2 136.069 133.351 6
-1 -3 2 -37.2397 145.121 6
1 3 -2 -44.0113 179.375 8
-1 -3 1 12252.8 611.82 12
-1 -3 1 11950.4 614.946 2
-1 -3 1 13420.5 518.777 3
1 3 -1 12937.9 433.38 6
-1 -3 1 12237 438.287 6
1 3 -1 12359.8 493.125 3
1 3 -1 11375.4 570.659 8
-1 -3 1 13868.4 606.133 13
-1 -3 1 12279.9 579.326 8
-1 -3 1 12504.5 628.401 4
1 3 -1 11482.3 561.106 13
-1 -3 0 1327.52 96.9838 7
-1 -3 0 1450.89 277.17 12
-1 -3 0 1509.29 291.368 4
-1 -3 0 1689.8 230.14 3
1 3 0 1768.65 129.23 6
1 3 0 1684.17 250.016 3
1 3 0 1252.11 258.8 13
-1 -3 0 1954.16 294.457 2
1 3 0 1612.76 273.376 8
-1 -3 0 1633.85 271.482 8
1 3 1 70846 1938.76 13
-1 -3 -1 67443.9 1839.5 12
1 3 1 72256.1 1859.48 3
1 3 1 70812.4 1868.75 8
-1 -3 -1 71457.1 1900.59 2
1 3 1 63319.4 1487.25 6
-1 -3 -1 73998.3 1932.81 4
-1 -3 -1 74792.9 1600.07 7
-1 -3 -2 32091.2 1102.35 2
1 3 2 29546.5 765.418 6
-1 -3 -2 32887.2 1051.78 12
1 3 2 31010.8 1115.15 8
1 3 2 34037.6 1202.28 13
-1 -3 -2 29559.7 713.247 1
1 3 2 32770 1130.78 3
-1 -3 -2 32769.6 1149.15 4
-1 -3 -2 34137.1 942.156 7
-1 -3 -3 9876.31 582.508 2
-1 -3 -3 10195 640.479 4
1 3 3 10909.9 403.021 6
-1 -3 -3 10126.6 534.046 12
1 3 3 11201 667.812 3
1 3 3 9517.32 619.779 8
-1 -3 -3 10899.4 518.073 7
-1 -3 -4 8661.34 548.564 2
-1 -3 -4 8564.59 483.694 12
1 3 4 8756.92 613.04 8
1 3 4 8151.4 610.593 3
1 3 4 8831.5 401.513 6
-1 -3 -4 8487.54 619.966 4
-1 -3 -5 2227.46 285.642 2
-1 -3 -5 1696.45 240.661 12
1 3 5 2106.28 367.32 8
1 3 5 2199.34 235.049 6
1 3 5 2079.35 397.088 3
-1 -3 -5 1650.33 376.69 4
-1 -3 -6 1722.05 273.867 2
-1 -3 -6 2359.28 412.381 11
1 3 6 1675.07 239.816 12
-1 -3 -6 1074.15 335.996 4
-1 -3 -6 1495.16 227.854 12
1 3 6 1623.43 379.711 8
1 3 6 1861.92 396.477 3
1 3 6 1518.91 231.528 6
1 3 7 261.499 317.838 8
-1 -3 -7 -218.108 323.622 4
-1 -3 -7 268.603 202.974 2
1 3 7 424.175 186.743 6
-1 -3 -7 571.106 176.383 12
1 3 7 570.088 345.946 3
-1 -3 -7 381.99 301.286 11
-1 -3 -8 916.726 216.793 2
1 3 8 869.206 331.661 8
-1 -3 -8 171.008 268.545 11
1 3 8 1152.13 279.3 6
1 3 8 756.277 376.599 3
-1 -3 -8 1019.17 419.797 4
-1 -3 -9 15847.2 1072.68 11
1 3 9 13461.5 1006.88 8
-1 -3 -9 15420.6 773.681 2
1 3 9 13885.4 1041.15 3
-1 -3 -9 13167.7 993.015 4
1 3 9 15938.1 823.425 6
1 3 10 1227.78 459.995 8
-1 -3 -10 -179.607 354.309 11
1 3 10 880.225 376.277 3
-1 -3 -10 627.602 407.264 4
1 3 11 171.035 389.769 8
1 3 11 22.1625 379.688 3
-1 -3 -11 -628.714 428.875 11
-1 -3 -11 149.598 400.205 4
-1 -3 -12 1962.4 548.821 11
1 3 12 2361.01 596.477 3
-1 -3 -12 1240.23 509.201 4
-1 -3 -13 156.011 411.419 11
1 3 13 -1.4863 407.634 14
1 3 13 528.629 433.176 3
-1 -3 -13 101.797 424.9 4
1 3 14 1449.63 527.424 14
-1 -4 17 2955.27 575.315 14
-1 -4 16 -145.046 328.616 14
1 4 -16 109.324 394.962 11
-1 -4 16 324.553 419.288 6
-1 -4 15 21642.1 1438.47 6
1 4 -15 21936.4 1475.35 11
-1 -4 15 22647.8 1341.92 14
1 4 -14 8296.84 882.116 11
-1 -4 14 8323.04 891.119 6
-1 -4 14 9344.22 829.182 14
-1 -4 13 2953.57 549.819 6
1 4 -13 3559.08 607.405 11
-1 -4 13 4156.67 566.953 14
1 4 -12 2241.63 483.025 11
-1 -4 12 2023.71 424.783 14
-1 -4 12 2555.7 495.038 6
-1 -4 11 9503.6 812.333 6
1 4 -11 10854.5 883.248 5
1 4 -11 9927.11 816.24 11
-1 -4 11 10098.3 781.317 14
-1 -4 10 1650.67 249.956 12
1 4 -10 1088.59 397.094 5
-1 -4 10 1381.67 383.404 6
1 4 -10 1000.65 369.412 11
-1 -4 10 1276.79 343.303 14
-1 -4 9 1132.65 217.063 12
-1 -4 9 899.579 289.657 14
1 4 -9 923.49 350.133 5
-1 -4 9 462.699 301.189 6
1 4 -9 1016.05 322.682 11
1 4 -9 1097.28 172.862 3
-1 -4 8 10401.8 705.88 14
-1 -4 8 10185.1 730.974 6
1 4 -8 10066.9 714.84 11
1 4 -8 11889 481.117 3
1 4 -8 10341.9 689.731 9
-1 -4 8 11570.3 628.637 12
1 4 -8 10300.9 748.084 5
-1 -4 7 357.925 203.963 12
-1 -4 7 407.589 268.576 6
1 4 -7 495.753 288.988 5
1 4 -7 -6.14515 197.909 9
-1 -4 7 533.767 269.015 14
1 4 -7 413.977 105.362 3
1 4 -7 386.634 258.592 11
-1 -4 6 75379.7 2113.41 6
-1 -4 6 72359.7 2041.6 12
1 4 -6 73972.1 2148.91 11
1 4 -6 70097.8 2149.58 5
1 4 -6 72223.5 2125.02 9
1 4 -5 557.617 159.358 7
-1 -4 5 342.091 205.971 12
1 4 -5 302.788 240.492 11
1 4 -5 488.559 108.638 3
-1 -4 5 549.879 230.614 2
1 4 -5 583.126 192.609 13
1 4 -5 734.31 275.833 5
1 4 -5 1095.38 284.079 9
-1 -4 5 740.271 243.259 6
1 4 -4 80794.8 1804.57 7
1 4 -4 77469.5 1803.02 3
1 4 -4 76798.8 2050.58 13
1 4 -4 77492.6 2176.98 9
-1 -4 4 77264.8 2132.94 12
-1 -4 4 75603.8 2107.46 2
-1 -4 4 76433.9 2161.61 4
-1 -4 4 77758.1 2058.19 6
1 4 -3 8202.41 282.757 7
1 4 -3 9180.56 534.929 13
-1 -4 3 8318.73 558.779 12
1 4 -3 10190.2 487.594 6
-1 -4 3 8783.77 560.339 2
1 4 -3 9026.29 404.578 3
1 4 -3 8813.83 581.225 9
-1 -4 3 8888.55 485.696 6
1 4 -3 8432.64 495.269 8
-1 -4 3 9044.17 579.389 4
-1 -4 2 25645.3 833.407 6
1 4 -2 24530.9 812.604 3
1 4 -2 25019.7 914.486 8
1 4 -2 23364.4 941.987 13
-1 -4 2 26728.8 844.077 3
1 4 -2 27315.2 828.996 6
-1 -4 2 24895.6 995.6 4
-1 -4 2 25640.3 994.42 2
-1 -4 2 24802.1 994.78 12
1 4 -1 30614.7 994.964 3
-1 -4 1 29568.4 1111.09 12
1 4 -1 28496.6 723.097 1
1 4 -1 32792.2 875.722 6
1 4 -1 30637.7 1039.62 8
-1 -4 1 32077 1021.35 3
-1 -4 1 32173.9 1132.57 4
-1 -4 1 29943.9 1119.14 2
1 4 -1 30856.5 1115.76 13
-1 -4 0 36312.3 863.085 7
-1 -4 0 38047.7 1297.62 2
1 4 0 40210.1 978.29 6
-1 -4 0 38375.4 1278.92 12
1 4 0 37584.5 1216.62 3
-1 -4 0 36309.8 1282.18 4
1 4 0 37020 1303.66 13
1 4 0 36409.4 1208.76 8
-1 -4 -1 709.672 278.496 4
-1 -4 -1 611.148 112.091 7
1 4 1 746.235 302.882 13
1 4 1 892.218 277.83 3
-1 -4 -1 641.83 258.259 2
1 4 1 514.014 106.304 6
1 4 1 670.236 247.516 8
-1 -4 -1 779.59 257.258 12
-1 -4 -2 2586.03 347.644 2
-1 -4 -2 2104.65 346.434 4
-1 -4 -2 2139.28 309.837 12
1 4 2 2470.75 397.878 13
1 4 2 2164.38 334.782 3
1 4 2 2339.36 331.725 8
-1 -4 -3 4203.29 463.086 4
-1 -4 -3 4704.62 444.884 2
-1 -4 -3 4300.67 206.16 1
1 4 3 4830.95 474.963 8
-1 -4 -3 5095.06 429.826 12
1 4 3 4852.13 270.555 6
1 4 3 4440.13 468.524 3
-1 -4 -4 2210.13 411.356 4
-1 -4 -4 2288.97 185.019 1
-1 -4 -4 1904.59 285.129 12
-1 -4 -4 2079.66 323.57 2
1 4 4 1944 411.646 3
1 4 4 2088.21 211.796 6
1 4 4 1867.49 366.715 8
-1 -4 -5 1303.51 279.035 2
1 4 5 1385.9 372.819 3
-1 -4 -5 1608.34 273.332 12
1 4 5 1649.93 218.8 6
-1 -4 -5 863.182 317.032 4
1 4 5 1278.88 347.201 8
1 4 6 864.12 351.788 3
-1 -4 -6 1349.17 279.537 12
1 4 6 1335.32 358.982 8
-1 -4 -6 1110.68 287.898 2
1 4 6 1364.97 224.025 6
-1 -4 -6 1225.65 372.216 4
1 4 7 318.572 349.394 3
-1 -4 -7 -124.703 212.427 2
1 4 7 286.769 184.72 6
1 4 7 524.807 323.453 8
-1 -4 -7 -248.714 369.73 4
-1 -4 -8 759.095 247.118 2
1 4 8 565.061 333.235 3
1 4 8 817.459 368.859 8
-1 -4 -8 671.965 364.959 4
1 4 9 4876.68 684.474 3
1 4 9 4314.58 635.78 8
-1 -4 -9 5129.21 680.188 4
1 4 10 -6.33705 368.863 8
1 4 10 -294.711 413.039 3
-1 -4 -10 67.129 388.024 4
1 4 11 554.607 463.036 8
1 4 11 -182.169 453.364 3
-1 -4 -11 396.071 388.926 4
1 4 12 -262.658 408.055 3
-1 -4 -12 434.223 414.284 4
-1 -5 17 -151.129 373.408 14
-1 -5 16 367.871 359.152 14
-1 -5 16 855.376 491.096 6
1 5 -16 1867.62 579.065 11
-1 -5 15 2319.93 526.477 14
-1 -5 15 1306.02 503.836 6
1 5 -15 2375.78 582.285 11
-1 -5 14 351.109 404.758 6
-1 -5 14 800.676 402.922 14
1 5 -14 36.926 369.229 11
-1 -5 13 34.9063 320.087 14
1 5 -13 -180.515 309.196 11
-1 -5 13 -93.089 322.835 6
-1 -5 12 3442.31 509.388 14
1 5 -12 4091.84 593.667 11
-1 -5 12 3634.24 578.209 6
1 5 -12 3148.42 593.014 5
1 5 -11 3534.52 541.253 11
-1 -5 11 2880.67 467.358 14
1 5 -11 3081.49 550.9 5
-1 -5 11 2926.4 361.523 12
-1 -5 11 2561.96 497.496 6
-1 -5 10 29463.4 1379.66 14
-1 -5 10 30477.9 1189.96 12
-1 -5 10 28293.6 1376.22 6
1 5 -10 29256.8 1386.11 11
1 5 -10 30073.2 1442.95 5
1 5 -10 27912.2 1309.03 9
-1 -5 9 12841.7 877.317 6
1 5 -9 13444.5 875.39 11
1 5 -9 12058.1 810.233 9
1 5 -9 13796.4 921.19 5
-1 -5 9 14487.6 782.908 12
-1 -5 9 13886.3 877.461 14
-1 -5 8 3304.52 396.383 12
1 5 -8 2035.71 350.34 9
1 5 -8 2773.1 415.914 11
1 5 -8 3040.04 241.064 3
-1 -5 8 2890.9 427.042 6
1 5 -8 2034.9 417.062 5
-1 -5 7 9723.15 690.383 6
1 5 -7 9758.39 688.783 11
1 5 -7 9503.87 718.041 5
1 5 -7 8677.62 632.328 9
-1 -5 7 11217.8 678.214 12
1 5 -6 8790.5 445.771 7
-1 -5 6 7717.17 574.652 12
1 5 -6 9161.59 659.727 9
-1 -5 6 8462.66 609.009 6
1 5 -6 7438.91 587.046 11
1 5 -6 7394.51 616.941 5
1 5 -6 7958.97 385.435 3
1 5 -6 7758.53 533.719 13
1 5 -5 6017.77 473.421 13
1 5 -5 5623.76 525.282 9
-1 -5 5 6222.04 493.083 6
1 5 -5 6279.06 326.241 7
-1 -5 5 6379.75 524.727 12
1 5 -5 5882.44 552.064 5
1 5 -5 6389.71 355.708 3
-1 -5 5 5306.66 502.662 4
1 5 -4 21458.7 622.339 7
-1 -5 4 21152.5 966.699 2
-1 -5 4 22483.6 894.239 6
-1 -5 4 23205.9 1011.59 12
1 5 -4 21714.8 939.679 13
1 5 -4 21165 989.641 9
1 5 -4 22919.6 882.712 8
1 5 -4 22651 765.897 3
-1 -5 4 22279.1 992.694 4
1 5 -3 5521.02 496.591 9
1 5 -3 5365.74 352.919 3
-1 -5 3 5842.19 520.776 2
-1 -5 3 5955.07 417.843 6
1 5 -3 5675.16 431.615 8
-1 -5 3 5270.7 491.215 12
1 5 -3 5484.84 471.613 13
-1 -5 3 6413.35 539.121 4
1 5 -2 1890.76 167.887 1
-1 -5 2 1864.92 338.701 4
-1 -5 2 1576.37 316.41 12
1 5 -2 2409.22 300.006 3
1 5 -2 2218.99 296.872 8
1 5 -2 1787.55 216.415 6
1 5 -2 2078.83 322.772 13
-1 -5 2 1325.72 305.136 2
1 5 -1 760.203 233.587 3
-1 -5 1 549.276 262.134 4
1 5 -1 250.55 242.228 13
-1 -5 1 525.979 251.049 12
1 5 -1 528.572 136.202 6
1 5 -1 291.932 54.8581 1
-1 -5 1 401.912 248.146 2
1 5 -1 332.089 205.635 8
-1 -5 0 2275.32 148.074 7
-1 -5 0 3062.79 383.047 2
1 5 0 3031.18 227.66 6
-1 -5 0 2767.04 382.334 4
-1 -5 0 3319.65 408.027 12
1 5 0 3021.27 361.525 3
1 5 0 2584.09 336.147 8
1 5 0 3097.96 421.802 13
-1 -5 0 3020.95 151.556 7
-1 -5 -1 335.671 93.5076 7
-1 -5 -1 68.2287 254.662 4
-1 -5 -1 155.369 210.713 12
1 5 1 255.96 106.921 6
1 5 1 203.422 226.046 3
1 5 1 137.209 267.431 13
-1 -5 -1 -200.312 246.984 2
1 5 1 270.502 221.639 8
-1 -5 -2 7433.83 582.783 2
1 5 2 8736.72 688.509 13
1 5 2 7430.31 359.23 6
-1 -5 -2 7723.41 574.175 12
1 5 2 8010.71 621.846 3
1 5 2 7383.14 579.979 8
-1 -5 -2 7436.34 605.53 4
-1 -5 -3 90.5923 258.133 4
1 5 3 695.079 370.806 13
1 5 3 250.908 120.003 6
-1 -5 -3 181.203 223.783 2
1 5 3 253.561 269.529 3
1 5 3 138.665 233.537 8
-1 -5 -3 -15.6216 209.469 12
-1 -5 -4 3535.44 489.167 4
-1 -5 -4 2927.21 181.302 1
-1 -5 -4 3158.32 385.069 12
-1 -5 -4 3355.36 420.96 2
1 5 4 3475.7 272.224 6
1 5 4 3921.51 516.938 3
1 5 4 3484.31 483.798 8
-1 -5 -5 903.166 356.794 4
-1 -5 -5 719.912 269.09 2
1 5 5 264.632 297.053 8
1 5 5 691.393 183.824 6
1 5 5 696.188 346.263 3
-1 -5 -5 927.825 263.997 12
-1 -5 -6 2390.45 473.228 4
-1 -5 -6 1859.29 304.418 12
1 5 6 2323.75 478.714 8
-1 -5 -6 2230.75 374.424 2
1 5 6 1676.96 442.424 3
-1 -5 -7 2712.27 527.682 4
-1 -5 -7 1960.83 357.964 2
1 5 7 2402.8 494.059 3
1 5 7 2371.38 485.002 8
-1 -5 -8 744.563 376.765 4
1 5 8 1265.87 428.439 3
-1 -5 -8 912.389 292.675 2
1 5 8 1329.09 413.243 8
1 5 9 8263.46 881.472 3
1 5 9 6352.61 774.781 8
-1 -5 -9 6358.24 750.584 4
1 5 10 3613.85 655.974 8
1 5 10 3740.02 642.115 3
-1 -5 -10 3587.34 682.722 4
-1 -5 -11 342.778 407.026 4
1 5 11 213.739 367.104 8
1 5 11 -890.019 522.762 3
-1 -6 17 3412.81 663.526 14
-1 -6 16 -806.479 429.487 14
1 6 -15 -283.032 342.917 11
-1 -6 15 -148.903 355.756 14
-1 -6 15 -332.985 375.957 6
-1 -6 14 927.184 402.517 14
-1 -6 14 243.64 430.661 6
1 6 -14 1144.82 418.812 11
1 6 -14 1445.14 550.336 5
-1 -6 13 2755.22 557.837 6
1 6 -13 3675.67 640.65 5
1 6 -13 3628.26 604.383 11
-1 -6 13 2799.77 542.019 14
-1 -6 12 231.091 351.841 6
-1 -6 12 353.554 330.841 14
1 6 -12 281.318 317.02 11
1 6 -12 679.659 398.027 5
-1 -6 11 5774.77 655.66 14
-1 -6 11 5237.16 635.307 6
-1 -6 11 5492.21 531.357 12
1 6 -11 4755.03 662.861 5
1 6 -11 4514.37 558.71 9
1 6 -11 3782.7 549.28 11
-1 -6 10 294.069 224.562 12
-1 -6 10 -70.6801 315.815 6
1 6 -10 430.037 298.033 11
1 6 -10 -392.774 385.63 5
1 6 -10 105.234 236.25 9
1 6 -9 4423.03 570.731 5
1 6 -9 4456.4 547.317 11
1 6 -9 4289.79 510.17 9
-1 -6 9 5416.39 522.963 12
-1 -6 9 4375.69 543.029 6
1 6 -8 19858.1 963.455 13
1 6 -8 19844.2 1060.3 11
-1 -6 8 21004.8 1031.59 12
-1 -6 8 21238.4 1077.16 6
1 6 -8 19773.2 1132.29 5
1 6 -8 19065.7 1049.43 9
1 6 -7 12882.8 756.744 13
1 6 -7 13751.8 575.74 3
1 6 -7 13840.5 842.771 11
1 6 -7 11762.1 829.417 5
-1 -6 7 13697.5 824.354 12
1 6 -7 13585.1 854.426 9
-1 -6 7 12750.3 812.151 6
1 6 -6 367.428 120.48 7
-1 -6 6 39.0954 223.727 6
-1 -6 6 452.142 287.401 4
1 6 -6 382.093 277.269 13
-1 -6 6 26.6223 239.83 12
1 6 -6 348.072 267.752 5
1 6 -6 196.615 257.48 9
1 6 -6 391.3 161.635 3
1 6 -6 180.109 211.874 11
1 6 -6 95.4063 162.256 8
1 6 -5 1615.47 263.365 8
1 6 -5 2036.24 336.058 13
-1 -6 5 2141.97 384.321 12
1 6 -5 1802.83 171.827 7
-1 -6 5 1352.81 330.832 4
-1 -6 5 2416.51 348.134 6
1 6 -5 2200.39 255.215 3
1 6 -5 1980.79 374.909 9
-1 -6 4 1629.21 328.258 12
-1 -6 4 2045.28 376.755 4
1 6 -4 1917.82 284.132 8
-1 -6 4 1273.84 250.913 6
-1 -6 4 2066.87 381.998 2
1 6 -4 2029.08 264.503 3
1 6 -4 1561.73 317.356 13
1 6 -4 1557.94 357.921 9
1 6 -4 1195.81 95.7909 7
1 6 -3 4272.8 450.651 13
-1 -6 3 4175.29 476.237 12
1 6 -3 4669.13 415.531 8
-1 -6 3 4675.23 501.013 4
-1 -6 3 4483.8 486.59 2
1 6 -3 4588.26 386.254 3
-1 -6 3 4026.47 372.895 6
1 6 -3 4507.56 302.602 1
-1 -6 2 9485.14 696.731 12
1 6 -2 9816.11 582.377 3
-1 -6 2 9895.06 696.48 2
-1 -6 2 8856.26 664.468 4
1 6 -2 8461.11 558.929 8
1 6 -2 8734.08 359.43 1
1 6 -2 8897.04 666.121 13
1 6 -1 22345.6 789.569 6
1 6 -1 20737.5 1057.61 13
-1 -6 1 22035.5 1064.38 2
-1 -6 1 20473 1039.61 12
1 6 -1 21220.5 948.949 3
1 6 -1 21070.2 922.114 8
-1 -6 1 19721.1 1005.59 4
-1 -6 0 2185.57 143.829 7
1 6 0 2070.62 344.052 3
-1 -6 0 2559.6 388.072 12
1 6 0 2730.08 243.894 6
-1 -6 0 2845.4 451.443 4
1 6 0 2420.82 422.37 13
-1 -6 0 2523.21 406.433 2
1 6 0 2131.45 316.749 8
-1 -6 0 2378.06 138.783 7
-1 -6 -1 26678.9 799.603 7
-1 -6 -1 25404 1187.79 12
1 6 1 25793.2 1181.32 3
-1 -6 -1 25640.3 1187.22 2
1 6 1 26429.3 1143.75 8
-1 -6 -1 26348 1222.34 4
1 6 1 26083.6 1256.86 13
-1 -6 -1 28624.1 808.17 7
-1 -6 -2 7329.73 399.858 7
1 6 2 6586.18 615.216 3
-1 -6 -2 6969.15 633.621 2
1 6 2 7085.89 680.429 13
-1 -6 -2 6529.63 589.196 12
1 6 2 6421.89 571.303 8
-1 -6 -2 7101.4 643.802 4
-1 -6 -3 11460.5 751.312 12
-1 -6 -3 12039 796.459 2
1 6 3 11324 834.927 3
1 6 3 11756.7 903.484 13
1 6 3 12055.4 808.046 8
-1 -6 -3 10900 821.952 4
-1 -6 -4 923.665 347.656 4
-1 -6 -4 916.789 317.853 12
1 6 4 695.052 315.702 8
-1 -6 -4 930.538 315.829 2
1 6 4 965.134 378.627 3
-1 -6 -5 7914.34 632.245 12
-1 -6 -5 8792.73 686.641 2
1 6 5 7041.58 737.42 3
1 6 5 6393.27 676.13 8
-1 -6 -5 8342.68 802.846 4
-1 -6 -6 1156.29 420.781 4
-1 -6 -6 1344.09 328.28 2
1 6 6 477.272 362.817 3
1 6 6 1265.94 429.877 8
-1 -6 -7 -270.471 329.837 4
-1 -6 -7 117.354 252.467 2
1 6 7 -39.4076 356.86 3
1 6 7 78.8375 317.425 8
-1 -6 -8 708.57 391.032 4
1 6 8 1295.29 448.131 8
1 6 8 1570.53 499.582 3
-1 -6 -9 -571.279 419.175 4
1 6 9 131.385 428.711 3
1 6 9 557.378 421.087 8
1 6 10 4494.51 746.224 8
-1 -6 -10 7028.6 885.322 4
1 7 -15 884.908 490.523 11
-1 -7 15 1347.4 524.604 6
-1 -7 14 1194.28 480.988 6
1 7 -14 478.196 338.91 11
1 7 -14 1780.66 562.164 5
1 7 -13 -680.105 403.985 11
-1 -7 13 -66.2584 395.123 6
1 7 -13 598.609 425.312 5
-1 -7 12 1283.77 444.527 6
1 7 -12 853.601 356.354 11
1 7 -12 -84.9793 349.877 5
1 7 -12 411.969 289.978 9
1 7 -11 9.02885 308.234 11
-1 -7 11 143.463 315.112 6
1 7 -11 -336.986 391.927 5
1 7 -11 -277.829 306.526 9
-1 -7 10 13749.3 967.5 6
1 7 -10 12437.5 819.184 13
1 7 -10 12906.3 921.818 11
1 7 -10 13435.4 1009.22 5
1 7 -10 12803.6 918.554 9
-1 -7 10 13335.7 887.65 12
1 7 -9 2134.17 443.467 5
-1 -7 9 2460.7 461.081 6
-1 -7 9 2256.31 434.382 12
1 7 -9 2318.31 434.011 11
1 7 -9 2330.17 412.212 9
1 7 -9 2367.5 412.59 13
1 7 -8 581.542 260.345 9
-1 -7 8 1046.21 315.875 12
1 7 -8 933.127 290.985 13
1 7 -8 1104.74 346.823 11
-1 -7 8 914.27 323.283 6
1 7 -8 1973.25 457.388 5
1 7 -7 913.707 273.679 13
-1 -7 7 708.893 288.03 12
-1 -7 7 506.421 282.593 6
1 7 -7 950.334 205.56 3
1 7 -7 532.335 314.214 5
1 7 -7 1202.09 384.2 9
1 7 -7 758.345 310.047 11
1 7 -7 463.488 208.439 8
1 7 -6 2137.09 371.051 13
-1 -7 6 2191.42 422.999 4
-1 -7 6 2008.68 363.327 6
1 7 -6 2541.73 304.136 3
1 7 -6 1790.23 406.419 9
1 7 -6 1555.33 390.735 5
1 7 -6 2006.52 372.961 11
-1 -7 6 1728.95 382.209 12
1 7 -6 2249.5 307.656 8
-1 -7 5 661.113 318.384 12
-1 -7 5 631.562 258.881 6
1 7 -5 406.858 279.179 13
-1 -7 5 737.146 322.143 4
1 7 -5 48.242 285.375 9
1 7 -5 612.347 200.621 3
1 7 -5 555.497 222.294 8
-1 -7 4 4534.81 544.08 12
1 7 -4 3953.91 471.247 13
-1 -7 4 3556.48 481.748 4
1 7 -4 3315.86 489.41 9
1 7 -4 4806.83 361.244 1
1 7 -4 4602.14 420.507 8
1 7 -4 4651.33 398.598 3
1 7 -3 638.332 303.072 13
-1 -7 3 769.062 311.854 4
1 7 -3 642.336 223.162 3
-1 -7 3 358.944 310.585 12
1 7 -3 417.363 146.557 1
-1 -7 3 337.564 307.119 2
1 7 -3 127.548 203.898 8
-1 -7 2 1790.38 373.806 4
-1 -7 2 1744.56 386.015 12
1 7 -2 2325.59 356.052 3
-1 -7 2 1831.09 391.487 2
1 7 -2 1365.07 367.707 13
1 7 -2 2407.52 355.103 8
-1 -7 1 11709.5 824.332 2
-1 -7 1 10511.3 806.643 12
1 7 -1 12052.1 756.576 3
1 7 -1 11153.8 820.917 13
1 7 -1 12140.9 726.446 8
-1 -7 1 11933.3 820.538 4
-1 -7 0 517.25 290.354 4
-1 -7 0 -55.1869 307.204 2
1 7 0 47.4002 314.301 13
1 7 0 319.989 260.627 3
-1 -7 0 180.009 303.351 12
1 7 0 537.975 255.328 8
-1 -7 -1 4757.1 558.027 2
1 7 1 5983.49 667.576 13
-1 -7 -1 5640.91 590.835 12
1 7 1 5133.51 524.455 8
1 7 1 5461.79 587.964 3
-1 -7 -1 5160.31 603.438 4
-1 -7 -2 763.664 345.186 4
1 7 2 975.465 358.83 3
-1 -7 -2 806.44 321.716 2
-1 -7 -2 578.055 292.477 12
1 7 2 434.725 377.22 13
1 7 2 249.445 257.111 8
-1 -7 -3 2783.24 455.988 12
-1 -7 -3 1969.4 432.746 4
1 7 3 2102.61 407.985 8
-1 -7 -3 2437.86 430.887 2
1 7 3 2065.42 441.23 3
1 7 3 2644.34 566.933 13
-1 -7 -4 6283.75 692.553 4
-1 -7 -4 4844.5 572.65 12
-1 -7 -4 5859.41 597.634 2
1 7 4 5342.45 664.265 3
1 7 4 5711.48 638.115 8
-1 -7 -5 6743.08 771.546 4
-1 -7 -5 7348.07 686.687 2
1 7 5 6111.08 735.863 3
1 7 5 6549.39 729.356 8
-1 -7 -6 2532.92 456.749 2
1 7 6 1998.53 479.545 8
1 7 6 2111.52 526.74 3
-1 -7 -7 1262.3 485.761 4
1 7 7 784.148 459.598 3
-1 -7 -7 1825.28 414.686 2
1 7 7 995.343 438.777 8
-1 -7 -8 701.607 507.661 4
1 7 8 1990.48 543.39 3
1 7 8 1063.5 453.333 8
-1 -7 -9 2791.64 645.195 4
1 7 9 2436.42 605.427 8
1 8 -15 823.909 416.655 11
-1 -8 14 801.048 466.115 6
1 8 -14 -68.225 344.228 11
1 8 -14 717.698 501.698 5
-1 -8 13 4316.81 702.985 6
1 8 -13 4024.64 639.543 11
1 8 -13 4613.62 727.463 5
1 8 -13 4718.27 641.635 9
1 8 -12 -103.229 441.711 5
1 8 -12 473.706 281.94 9
-1 -8 12 370.509 401.761 6
1 8 -12 408.634 330.637 11
-1 -8 11 -63.4918 315.039 6
1 8 -11 -248.505 298.233 9
1 8 -11 95.0244 295.129 13
1 8 -11 96.2537 316.047 11
1 8 -11 -57.3737 372.858 5
1 8 -10 2423.65 514.243 5
1 8 -10 1209.19 341.158 13
-1 -8 10 1516.67 451.526 6
1 8 -10 1731.15 374.233 9
1 8 -10 2600.57 499.736 11
-1 -8 10 1903.76 425.676 12
1 8 -9 12635.4 879.949 13
-1 -8 9 13305.3 955.183 6
1 8 -9 13976.7 1045.49 5
1 8 -9 12865.8 954.865 9
-1 -8 9 12431 924.184 12
1 8 -9 13170.2 936.785 11
1 8 -8 573.649 294.525 11
-1 -8 8 445.546 321.142 12
-1 -8 8 724.98 301.004 6
1 8 -8 924.59 336.502 13
1 8 -8 509.655 329.836 9
1 8 -8 274.909 321.322 5
1 8 -8 287.389 195.904 8
1 8 -7 2292.51 444.783 13
-1 -8 7 2356.66 451.123 12
1 8 -7 1949.87 448.011 9
1 8 -7 2143.44 404.203 11
-1 -8 7 2789.47 439.476 6
1 8 -7 1782.85 426.621 5
1 8 -7 2009.29 308.221 8
1 8 -6 75.9653 274.029 13
1 8 -6 243.501 219.045 1
-1 -8 6 -256.633 290.624 4
1 8 -6 428.945 248.52 11
-1 -8 6 235.308 249.105 6
-1 -8 6 -376.647 361.074 12
1 8 -6 45.1816 168.878 3
1 8 -6 71.2302 283.393 9
1 8 -6 -462.282 262.027 8
1 8 -6 -191.88 365.109 5
1 8 -5 10761 660.781 8
-1 -8 5 11526.4 880.012 12
1 8 -5 12044.1 678.9 3
1 8 -5 11613.5 628.267 1
1 8 -5 9266.94 807.988 9
-1 -8 5 10668 817.137 4
1 8 -5 10632.1 798.512 13
1 8 -4 3173.97 529.349 9
1 8 -4 2749.86 454.846 13
-1 -8 4 2606.3 473.845 12
-1 -8 4 2380.2 459.491 4
1 8 -4 2757.53 370.546 3
1 8 -4 2703.72 351.953 8
1 8 -3 10987.5 713.1 3
-1 -8 3 10889.7 857.959 12
1 8 -3 10146.2 668.641 8
1 8 -3 10033.8 804.178 13
-1 -8 3 10502.6 833.027 4
1 8 -2 252.783 300.003 13
-1 -8 2 850.823 357.946 4
-1 -8 2 80.431 286.982 12
1 8 -2 880.877 322.377 3
1 8 -2 627.931 254.939 8
1 8 -1 20676.9 1216.54 13
-1 -8 1 20981.9 1198.17 2
1 8 -1 21278.6 1106.25 3
-1 -8 1 20438.2 1198.4 12
1 8 -1 21364.3 1035.03 8
-1 -8 1 21124.8 1175.78 4
1 8 0 34926.1 1556.39 3
-1 -8 0 36066.2 1608.07 2
1 8 0 37542.4 1722.41 13
-1 -8 0 33432.1 1592.09 12
1 8 0 38499 1501.6 8
-1 -8 0 38159 1646.01 4
1 8 1 1677.62 374.428 8
-1 -8 -1 2097.7 467.592 12
1 8 1 2662.29 511.698 13
-1 -8 -1 2030.86 450.291 4
1 8 1 2711.85 479.342 3
-1 -8 -1 2407.84 433.525 2
-1 -8 -2 3030.08 526.506 4
1 8 2 1988.55 535.403 13
-1 -8 -2 2505.73 462.589 12
-1 -8 -2 2125.33 430.332 2
1 8 2 2383.49 494.857 3
1 8 2 2559.67 475.531 8
-1 -8 -3 2776.3 538.56 4
1 8 3 3004.44 507.087 8
-1 -8 -3 2429.98 480.457 2
1 8 3 1564.88 454.179 3
1 8 3 2353.48 568.253 13
-1 -8 -4 4513.19 665.587 4
-1 -8 -4 4300.65 569.244 2
1 8 4 4113.21 648.273 3
1 8 4 4152.48 614.637 8
-1 -8 -5 7630.62 828.101 4
-1 -8 -5 7586.41 755.101 2
1 8 5 8421.22 887.846 3
1 8 5 8856.75 842.704 8
-1 -8 -6 1512.29 514.671 4
1 8 6 -174.329 378.633 8
1 8 6 710.391 477.242 3
1 8 7 6240.19 795.222 8
-1 -8 -7 6452.62 877.671 4
1 8 7 5765.07 826.273 3
-1 -9 14 43.5076 397.403 6
1 9 -14 -353.568 386.609 9
1 9 -14 255.935 339.582 11
1 9 -13 680.22 407.616 11
-1 -9 13 -268.976 413.38 6
1 9 -13 77.8795 417.612 5
1 9 -13 421.238 312.634 9
1 9 -12 1551.01 481.089 11
-1 -9 12 2602.79 576.948 6
1 9 -12 1707.98 555.373 5
1 9 -12 1073.1 384.496 9
1 9 -11 646.365 372.763 11
-1 -9 11 1257.43 459.805 6
1 9 -11 37.3299 366.592 5
1 9 -11 -149.311 309.336 9
1 9 -11 744.451 363.273 13
1 9 -10 981.346 385.045 9
1 9 -10 1219.11 400.863 11
-1 -9 10 929.879 417.443 6
1 9 -10 993.888 375.091 13
1 9 -10 1000.21 443.34 5
-1 -9 9 271.132 349.484 12
1 9 -9 1179.53 368.268 11
-1 -9 9 200.302 297.393 6
1 9 -9 272.642 307.523 13
1 9 -9 871.902 432.025 5
1 9 -9 114.838 281.838 9
-1 -9 8 2972.28 486.295 6
1 9 -8 2064.56 412.313 11
1 9 -8 2806.92 552.211 5
1 9 -8 1757.91 309.245 1
1 9 -8 2544.67 536.597 9
1 9 -8 1954.11 441.662 13
-1 -9 8 2767.09 507.783 12
-1 -9 7 637.757 378.214 12
1 9 -7 257.761 307.591 9
1 9 -7 521.417 262.464 11
-1 -9 7 87.1981 274.17 6
1 9 -7 721.057 365.329 5
1 9 -7 954.778 383.675 13
1 9 -6 2208.15 460.11 13
-1 -9 6 1097.24 421.662 4
-1 -9 6 1889.78 478.177 12
1 9 -6 1145.65 372.164 5
1 9 -6 1535.44 333.374 11
1 9 -6 1517.94 430.867 9
1 9 -5 2392.41 472.217 9
-1 -9 5 3662.67 567.882 12
-1 -9 5 2420.23 481.411 4
1 9 -5 3954.13 561.163 13
1 9 -5 4528.54 464.862 3
1 9 -4 5745.55 652.808 13
-1 -9 4 5201.35 669.19 12
1 9 -4 7175.79 604.879 3
1 9 -4 6042.48 701.118 9
-1 -9 4 6845.2 705.537 4
1 9 -3 1807.49 452.205 13
1 9 -3 2394.65 427.224 3
-1 -9 3 1676.9 446.687 12
-1 -9 3 1397.82 421.793 4
-1 -9 2 156.579 305.212 4
1 9 -2 -573.794 389.909 13
1 9 -2 -118.428 296.891 3
1 9 -2 320.514 283.357 8
-1 -9 1 4809.37 648.9 12
1 9 -1 5112.18 530.35 8
1 9 -1 4225.94 562.086 3
-1 -9 1 5157.59 641.721 4
1 9 -1 5134.94 695.496 13
-1 -9 0 3248.28 551.835 4
1 9 0 2736.82 581.35 13
1 9 0 1884.79 452.792 3
1 9 0 3395.6 473.258 8
-1 -9 0 2119.66 454.837 12
-1 -9 -1 1271.74 441.259 4
1 9 1 723.725 329.782 8
1 9 1 711.478 364.392 3
1 9 1 538.352 445.344 13
1 9 2 17278.1 1183.96 3
1 9 2 16890.4 1074.4 8
-1 -9 -2 15015.7 1119.93 4
1 9 2 17233.5 1277.53 13
1 9 3 1400.66 502.088 3
-1 -9 -3 1828.91 519.241 4
1 9 3 2342.52 605.563 13
1 9 3 2171.66 487.528 8
-1 -9 -4 -169.641 344.998 4
1 9 4 -86.6835 312.984 8
1 9 4 -314.461 405.363 3
-1 -9 -5 1811.28 533.701 4
1 9 5 1258.36 481.078 3
1 9 5 1228.83 488.129 8
1 9 6 13869 1123.96 8
-1 -9 -6 13132.3 1163.11 4
1 10 -14 271.277 417.008 11
1 10 -14 72.2318 337.765 9
1 10 -13 1358.1 467.44 11
-1 -10 13 1249.98 504.869 6
1 10 -13 687.245 357.541 9
1 10 -12 466.514 377.141 11
-1 -10 12 -541.536 435.999 6
1 10 -12 -213.756 464.071 5
1 10 -12 -522.596 380.578 9
1 10 -11 1953.27 507.99 13
1 10 -11 1149.08 387.863 11
-1 -10 11 2143.87 505.911 6
1 10 -11 924.723 440.055 5
1 10 -11 868.155 402.81 9
1 10 -10 2937.53 527.553 13
1 10 -10 2810.1 515.343 11
-1 -10 10 3372.74 579.76 6
1 10 -10 2986.57 634.324 5
1 10 -10 2587.45 511.787 9
1 10 -9 -139.333 311.333 11
1 10 -9 -105.447 353.172 5
-1 -10 9 725.145 362.552 6
1 10 -9 477.977 347.825 9
1 10 -9 86.1411 303.08 13
1 10 -8 4573.1 585.132 11
1 10 -8 4300.19 610.395 13
1 10 -8 4881.77 715.353 5
1 10 -8 4504.06 674.985 9
1 10 -7 143.668 311.387 13
1 10 -7 -853.997 436.366 5
1 10 -7 86.6696 326.256 9
-1 -10 6 14084.5 1123.38 12
1 10 -6 14579.2 1077.13 13
1 10 -6 12793.6 1055.79 5
-1 -10 6 13905.9 1056.13 4
1 10 -6 13553.5 1090.69 9
1 10 -5 7612.32 807.845 13
-1 -10 5 7910.29 873.159 12
1 10 -5 6635.16 782.897 9
-1 -10 5 7165.8 780.358 4
-1 -10 4 4218.85 649.495 12
1 10 -4 3589.21 573.049 13
-1 -10 4 3100.06 521.443 4
1 10 -4 3246.37 569.093 9
-1 -10 3 571.609 399.718 4
1 10 -3 399.797 267.318 3
-1 -10 3 440.321 384.839 12
1 10 -3 359.758 336.834 13
1 10 -2 10086.3 840.744 3
1 10 -2 8922.46 915.072 13
-1 -10 2 11047.2 943.537 4
-1 -10 1 616.4 388.205 4
1 10 -1 586.293 419.671 13
1 10 -1 -245.314 337.876 3
-1 -10 0 633.209 371.319 4
1 10 0 1202.52 552.197 13
1 10 0 791.616 414.64 3
-1 -10 -1 812.771 417.962 4
1 10 1 1096.36 549.181 13
1 10 1 1439.25 480.723 3
1 10 2 1570.03 497.087 3
-1 -10 -2 1697.07 510.606 4
1 10 2 2755.73 656.393 13
1 10 3 10976.4 1042.69 3
-1 -10 -3 8977.09 947.772 4
-1 -10 -4 135.156 397.01 4
-1 -11 12 6453.49 845.917 6
1 11 -11 603.743 395.959 13
-1 -11 11 693.92 478.061 6
1 11 -11 565.608 364.051 9
1 11 -10 635.456 354.672 13
1 11 -10 209.08 363.435 9
1 11 -9 5738.11 745.89 13
1 11 -9 7327.02 876.347 5
1 11 -9 5851.26 810.346 9
1 11 -8 -229.799 359.383 13
1 11 -8 -335.057 371.195 5
1 11 -8 120.971 309.501 9
1 11 -7 670.396 309.622 13
1 11 -7 351.012 365.422 5
1 11 -7 350.114 344.328 9
1 11 -6 265.111 352.472 13
1 11 -6 241.688 317.441 5
-1 -11 6 816.614 425.04 4
1 11 -6 241.968 339.362 9
1 11 -5 -126.874 372.962 13
-1 -11 5 -339.177 392.257 4
1 11 -5 -515.131 416.184 9
1 11 -4 3581.48 615.928 13
-1 -11 4 3804.36 662.496 4
1 11 -4 4324.76 701.654 9
-1 -11 3 3169.2 601.001 4
1 11 -3 1626.93 510.391 13
1 11 -3 2499.8 570.333 9
-1 -11 2 1931.03 517.828 4
1 11 -2 1761.59 531.051 13
-1 -11 1 513.953 405.847 4
1 11 -1 -55.8069 371.706 3
1 11 -1 98.3577 460.752 13
-1 -11 0 -106.601 364.762 4
1 11 0 220.092 384.677 3
-1 -11 -1 758.502 428.58 4
1 11 1 369.014 413.16 3
-1 -11 -2 -758.894 484.427 4
-1 -12 6 17463.7 1278.15 4
-1 -12 5 401.801 397.639 4
-1 -12 4 1493.28 484.564 4
-1 -12 3 1274.43 498.145 4
-1 -12 2 -158.597 395.838 4
-1 -12 1 477.211 480.874 4
-2 12 -3 2023.8 534.151 3
-2 12 -4 1676.24 518.304 3
-2 12 -5 1569.79 526.756 3
-2 12 -6 804.864 434.556 3
-2 12 -7 2343.82 578.739 3
-2 12 -8 3501.02 626.339 3
-2 12 -8 3508.49 665.016 9
2 -11 -3 1340.44 518.357 10
-2 11 2 126.093 424.654 13
2 -11 -2 536.23 407.215 10
-2 11 1 1198.73 492.607 13
2 -11 -1 1908.8 551.434 10
-2 11 0 5074.43 755.97 13
-2 11 0 3909.37 699.962 3
2 -11 0 4476.71 706.652 10
-2 11 -1 114.169 384.646 13
-2 11 -1 156.149 397.833 3
2 -11 1 194.934 382.195 10
-2 11 -2 4833.49 724.916 3
-2 11 -2 5022.68 738.947 13
2 -11 2 3934.29 685.409 10
-2 11 -3 344.739 382.923 13
-2 11 -3 639.421 426.806 3
2 -11 3 -532.551 464.269 10
-2 11 -4 4644.99 688.71 3
-2 11 -4 3644.84 624.947 13
2 -11 4 4417.03 734.453 10
2 -11 5 1194.12 506.769 10
-2 11 -5 1264.7 462.941 3
-2 11 -5 1485.77 508.221 13
-2 11 -6 1196.96 417.712 3
-2 11 -6 879.872 416.458 13
2 -11 6 1451.09 487.551 10
-2 11 -7 65.7595 328.663 3
2 -11 7 483.072 430.724 10
-2 11 -7 -591.895 367.014 5
-2 11 -8 -675.31 409.762 3
2 -11 8 -164.474 384.506 10
-2 11 -8 1177.52 418.809 5
-2 11 -8 714.262 369.51 9
-2 11 -8 138.632 363.889 1
2 -11 9 482.749 400.337 10
-2 11 -9 36.2478 312.801 9
-2 11 -9 -75.802 305.572 5
-2 11 -9 377.242 374.952 1
2 -11 10 1701.61 539.992 10
-2 11 -10 2478.86 536.748 1
-2 11 -10 2692.49 500.076 5
2 -11 11 4630.72 723.107 10
-2 11 -11 3772.01 670.312 1
-2 11 -11 5113.79 702.318 5
-2 11 -12 3494.32 672.831 1
2 -11 12 4320.98 711.312 10
-2 11 -12 4289.48 715.019 5
2 -11 13 -225.619 352.214 10
-2 10 6 644.114 442.785 13
-2 10 5 6991.29 880.181 13
2 -10 -4 806.682 445.129 10
-2 10 4 383.859 458.334 13
-2 10 3 2269.63 561.266 13
-2 10 3 2988.89 623.266 3
2 -10 -3 2232.01 583.915 10
-2 10 2 2240.28 563.308 3
2 -10 -2 2302.48 534.079 10
-2 10 1 1273.09 445.358 13
-2 10 1 489.958 379.245 3
2 -10 -1 911.772 403.847 10
-2 10 0 343.701 355.137 13
-2 10 0 -567.995 390.92 3
2 -10 0 -192.598 332.999 10
-2 10 -1 -434.859 384.481 13
-2 10 -1 20.2386 348.825 3
2 -10 1 13.7055 319.097 10
2 -10 2 17.9442 369.931 10
-2 10 -2 554.427 390.811 3
-2 10 -2 442.34 406.811 13
-2 10 -3 4308.84 638.003 3
-2 10 -3 4120.43 649.426 13
2 -10 3 3492.26 621.34 10
-2 10 -3 4336.06 550.863 5
2 -10 4 3931.51 637.592 10
-2 10 -4 3480.69 577.122 3
-2 10 -4 2985.28 574.535 13
-2 10 -4 4090.58 524.263 5
2 -10 5 694.747 426.694 10
-2 10 -5 781.754 314.998 5
-2 10 -5 571.647 361.007 3
-2 10 -5 281.958 275.817 1
-2 10 -6 3062.52 506.414 1
-2 10 -6 1728.31 454.352 3
2 -10 6 1895.21 501.384 10
-2 10 -6 2075.49 459.251 5
2 -10 7 264.591 391.569 10
-2 10 -7 366.447 304.897 5
-2 10 -7 271.459 373.748 1
2 -10 8 1629.02 375.962 7
2 -10 8 961.689 424.453 10
-2 10 -8 916.42 344.521 9
-2 10 -8 718.196 332.612 5
-2 10 -8 1015.62 406.544 1
2 -10 9 366.602 335.272 7
2 -10 9 330.574 380.149 10
-2 10 -9 -7.35343 320.826 1
-2 10 -9 -213.161 313.986 9
-2 10 -9 372.992 284.775 5
2 -10 10 390.472 305.637 7
2 -10 10 520.678 419.585 10
-2 10 -10 -62.5024 373.283 1
-2 10 -10 197.898 311.247 5
-2 10 -11 -36.36 369.635 1
2 -10 11 361.171 370.505 10
-2 10 -11 -184.42 286.904 5
2 -10 12 12254.3 1144.24 14
2 -10 12 14545.5 1135.04 10
-2 10 -12 13532 1142.04 1
-2 10 -12 16701.3 1264.08 5
2 -10 13 5661.95 725.72 10
-2 10 -13 7192.25 862.299 5
-2 9 6 2880.34 595.918 13
2 -9 -5 185.807 305.407 10
-2 9 5 74.3914 442.744 3
-2 9 5 505.382 394.758 13
2 -9 -4 462.087 315.657 7
-2 9 4 191.929 390.082 3
2 -9 -4 603.625 351.139 10
-2 9 3 1488 448.063 13
2 -9 -3 1723.62 439.59 10
-2 9 3 1243.68 458.739 3
2 -9 -3 1629.77 399.005 7
2 -9 -2 557.335 315.737 7
-2 9 2 158.326 371.961 3
2 -9 -2 119.849 318.156 10
-2 9 2 944.053 426.601 13
2 -9 -1 6469.74 600.242 7
-2 9 1 5928.82 699.492 13
2 -9 -1 7131.17 760.951 10
-2 9 1 6207.81 757.256 3
2 -9 0 387.551 368.736 10
2 -9 0 275.417 248.362 7
-2 9 0 204.032 348.738 13
-2 9 0 257.57 345.142 3
-2 9 -1 216.076 280.525 1
2 -9 1 626.566 264.632 7
2 -9 1 106.862 329.227 10
-2 9 -1 -47.9503 323.439 3
-2 9 -1 121.844 342.207 13
-2 9 -2 155.984 309.168 13
2 -9 2 344.67 212.602 7
2 -9 2 -167.504 318.507 10
-2 9 -2 -166.715 309.387 3
-2 9 -2 -128.362 240.984 1
2 -9 3 717.795 417.9 10
2 -9 3 -16.6497 222.231 7
-2 9 -3 -151.369 323.13 13
-2 9 -3 471.216 287.873 1
-2 9 -3 121.256 307.488 3
-2 9 -3 152.617 260.65 5
-2 9 -4 9826.36 842.812 3
2 -9 4 11584 753.714 7
-2 9 -4 9641.24 758.137 5
2 -9 4 10650.3 909.973 10
-2 9 -4 9884.59 749.191 1
-2 9 -5 2444.71 426.129 1
2 -9 5 1638.43 314.505 7
2 -9 5 1780 457.959 10
-2 9 -5 1838.36 378.646 5
2 -9 6 210.157 299.308 10
-2 9 -6 705.056 300.035 5
2 -9 6 1327.54 332.497 7
-2 9 -6 1110.68 361.19 1
2 -9 7 222.931 248.486 7
-2 9 -7 354.962 287.883 5
-2 9 -7 -404.233 294.197 1
2 -9 7 407.793 331.352 10
2 -9 8 14070.6 909.323 7
-2 9 -8 15399.3 1016.27 5
-2 9 -8 14681.6 939.974 9
2 -9 8 13484.3 1031.82 10
-2 9 -8 14479.7 1023.64 1
2 -9 9 3930.92 543.745 7
2 -9 9 2666.65 553.378 14
-2 9 -9 3253.98 537.462 1
2 -9 9 4017.58 597.638 10
-2 9 -9 2774.71 463.901 9
-2 9 -9 2803.86 485.984 5
2 -9 10 3304.01 538.865 7
2 -9 10 3176.97 554.535 14
-2 9 -10 1993.8 497.034 1
2 -9 10 2584.94 518.891 10
-2 9 -10 2673.47 482.649 5
2 -9 11 3225.55 636.386 14
-2 9 -11 3957.45 660.484 1
2 -9 11 3379.66 567.719 10
-2 9 -11 4540.8 676.274 5
2 -9 12 1452.52 516.116 14
-2 9 -12 1379.37 479.719 1
2 -9 12 2023.98 454.159 10
2 -9 13 2217.29 583.935 14
2 -9 13 2267.82 595.241 6
-2 9 -13 2472.38 593.065 1
2 -8 -9 576.6 401.974 7
2 -8 -8 521.859 376.635 7
-2 8 7 3073.41 679.951 3
-2 8 7 4458.23 674.26 13
2 -8 -7 4169.03 617.826 7
-2 8 6 681.936 398.637 6
-2 8 6 168.789 329.549 13
-2 8 6 377.15 417.31 3
2 -8 -6 1091.05 397.22 7
-2 8 5 4689.53 618.503 13
2 -8 -5 4251.07 571.878 7
2 -8 -5 4448.71 582.273 10
-2 8 5 4215.04 653.782 3
2 -8 -4 2559.68 485.167 7
-2 8 4 2712.81 536.248 3
2 -8 -4 2695.69 491.424 10
-2 8 4 2614.44 502.513 13
2 -8 -3 1934.28 379.362 7
2 -8 -3 1238.98 378.185 10
-2 8 3 1263 383.135 13
-2 8 3 1680.93 483.527 3
2 -8 -2 3807.21 413.107 4
-2 8 2 2635.74 522.858 13
2 -8 -2 2985.71 433.256 7
-2 8 2 3198.28 423.182 1
2 -8 -2 2537.34 486.639 10
-2 8 2 2953.49 532.544 3
-2 8 1 716.319 354.542 3
2 -8 -1 700.474 285.308 7
-2 8 1 583.475 354.793 13
2 -8 -1 1191.46 342.392 10
2 -8 -1 1187.94 260.46 4
-2 8 1 997.348 286.369 1
2 -8 0 10807.1 732.133 7
-2 8 0 10207.8 871.666 3
-2 8 0 10465.3 708.898 1
2 -8 0 10563.9 846.026 10
2 -8 0 11678.6 630.844 4
-2 8 0 10149.7 816.89 13
2 -8 1 869.205 298.987 7
2 -8 1 624.007 189.878 4
-2 8 -1 622.39 370.047 13
-2 8 -1 814.001 369.021 3
2 -8 1 831.391 339.314 10
-2 8 -1 858.771 304.653 1
2 -8 2 1291.76 228.861 4
2 -8 2 641.229 311.537 10
2 -8 2 1356.72 315.795 7
-2 8 -2 1391.02 346.156 1
-2 8 -2 1143.2 391.706 3
2 -8 3 11109.3 738.309 7
-2 8 -3 9891.3 820.962 3
2 -8 3 10465.7 837.786 10
-2 8 -3 10620.7 702.078 5
-2 8 -3 9903.57 701.313 1
2 -8 4 41205.5 1521.19 7
2 -8 4 37837.9 1694.79 10
-2 8 -4 40379.6 1523.71 5
-2 8 -4 40793.9 1570.23 1
2 -8 5 1382.47 387.93 10
2 -8 5 840.679 262.951 7
-2 8 -5 397.187 256.158 5
-2 8 -5 966.322 343.262 1
2 -8 6 38188.3 1489.71 7
2 -8 6 36790 1663.94 10
-2 8 -6 41252 1571.65 5
-2 8 -6 36067.2 1534.7 1
2 -8 7 11718.5 889.226 10
-2 8 -7 10668.2 782.68 5
2 -8 7 11990.6 899.498 14
2 -8 7 12339.3 792.682 7
-2 8 -7 11905.5 862.951 1
2 -8 8 19642.6 1070.21 7
-2 8 -8 20678.7 1126.84 5
2 -8 8 20059.8 1194.91 14
-2 8 -8 18196 1114.55 1
2 -8 8 21973.7 1219.68 10
-2 8 -8 17837.8 980.025 9
2 -8 9 4877.54 574.249 7
2 -8 9 5284.74 679.519 14
2 -8 9 5742.58 639.883 10
-2 8 -9 5053.05 538.496 9
-2 8 -9 5659.68 613.537 5
-2 8 -9 4857.31 606.782 1
2 -8 10 -20.6894 292.308 7
-2 8 -10 -45.2843 321.741 1
2 -8 10 -2.39881 270.795 10
-2 8 -10 878.4 367.144 5
-2 8 -10 470.83 247.58 11
2 -8 10 119.507 384.223 14
2 -8 11 2232.57 522.137 14
-2 8 -11 1900.5 511.17 1
-2 8 -11 2817.75 450.502 11
2 -8 11 2433.66 579.117 6
2 -8 11 1865.07 438.939 10
2 -8 12 9705.27 969.363 14
2 -8 12 10449.1 1000.14 6
-2 8 -12 9191.37 797.054 11
2 -8 12 11453 890.761 10
-2 8 -12 9531.61 950.843 1
2 -8 13 19.8233 360.294 14
-2 8 -13 -262.775 411.177 1
-2 8 -13 -82.4828 317.94 11
2 -8 13 163.798 433.488 6
2 -8 14 424.278 414.542 6
2 -8 14 246.048 388.98 14
-2 8 -14 -144.89 337.005 11
-2 8 -14 319.929 429.841 1
-2 8 -15 291.528 355.123 11
-2 7 9 2444.3 607.826 3
2 -7 -8 1193.68 424.882 4
2 -7 -8 634.056 382.981 7
-2 7 8 -51.9968 353.307 6
-2 7 8 -478.576 452.125 3
2 -7 -7 1081.33 367.587 4
-2 7 7 546.811 365.135 6
-2 7 7 1321.58 468.79 3
-2 7 7 1616.02 458.917 13
2 -7 -7 1174.19 379.216 7
-2 7 6 1069.66 391.604 13
2 -7 -6 1284.69 349.519 4
2 -7 -6 1343.29 367.273 10
2 -7 -6 2142.49 460.162 7
-2 7 6 1724.05 457.182 3
2 -7 -5 -83.7031 225.316 4
2 -7 -5 -120.631 249.689 10
2 -7 -5 -158.777 298.031 7
-2 7 5 92.8181 309.639 3
-2 7 5 118.353 295.25 13
-2 7 4 8948.07 844.79 3
2 -7 -4 9271.47 739.157 7
-2 7 4 9294.4 766.878 13
2 -7 -4 9032.13 739.158 10
2 -7 -4 10534.5 684.7 4
2 -7 -3 172.165 219.684 4
2 -7 -3 55.0581 239.756 7
-2 7 3 168.274 283.706 13
-2 7 3 -497.236 337.763 3
2 -7 -3 -528.253 303.651 10
-2 7 2 2203.2 464.889 3
2 -7 -2 1758.34 285.875 4
2 -7 -2 1222.85 298.225 7
-2 7 2 1902.43 405.969 13
2 -7 -2 1820.17 399.996 10
-2 7 2 1471.24 319.158 1
2 -7 -1 121.727 147.227 4
2 -7 -1 234.951 252.33 7
-2 7 1 64.4775 261.849 13
-2 7 1 -164.689 322.715 3
-2 7 1 7.14557 213.387 1
2 -7 -1 -350.274 283.942 10
2 -7 0 498.141 154.111 4
-2 7 0 369.106 218.039 1
-2 7 0 388.163 278.649 13
-2 7 0 303.104 292.993 3
2 -7 0 834.939 276.365 7
2 -7 0 589.511 284.449 10
-2 7 -1 2470.92 439.98 3
-2 7 -1 3075.76 402.763 1
2 -7 1 3071.73 475.358 10
2 -7 1 3916.49 423.832 7
2 -7 1 3772.44 297.312 4
2 -7 2 2122.44 351.093 7
2 -7 2 1676.09 386.613 10
-2 7 -2 1650.62 367.042 3
2 -7 2 1871.08 220.974 4
-2 7 -2 1886.88 340.525 1
-2 7 -3 -69.931 215.892 1
2 -7 3 -116.615 217.141 7
2 -7 3 -129.62 257.926 10
-2 7 -3 -254.21 198.241 5
-2 7 -4 4630.83 248.485 11
-2 7 -4 4757.74 452.363 5
2 -7 4 4688.78 549.663 10
-2 7 -4 4949.54 510.597 1
2 -7 4 4690.97 469.247 7
2 -7 5 8961.28 651.109 7
2 -7 5 8694.14 698.861 14
-2 7 -5 10555.1 473.434 11
2 -7 5 9138.9 729.715 10
-2 7 -5 9425.34 657.646 5
-2 7 -5 8433.21 675.771 1
2 -7 6 11378.8 745.063 7
-2 7 -6 13100.6 616.734 11
2 -7 6 11460.4 821.978 10
-2 7 -6 13153.6 794.559 5
-2 7 -6 11549.2 818.942 1
2 -7 6 11865 820.264 14
2 -7 7 3910.36 466.867 7
-2 7 -7 3543.03 372.699 11
2 -7 7 3728.14 479.204 10
-2 7 -7 4504.73 562.715 1
-2 7 -7 3548.92 407.159 9
-2 7 -7 4747.99 498.227 5
2 -7 7 3206.21 479.369 14
2 -7 8 988.655 309.004 7
-2 7 -8 1029.73 280.873 11
2 -7 8 1063.78 348.414 14
2 -7 8 843.845 308.537 10
-2 7 -8 979.931 277.113 9
-2 7 -8 1072.91 321.555 5
-2 7 -8 1084.74 350.612 1
2 -7 9 24978 1386.95 6
-2 7 -9 26724.5 1329.23 5
-2 7 -9 25379.1 1151.49 11
2 -7 9 27204.7 1394.46 14
2 -7 9 26173.7 1283.83 10
-2 7 -9 26063.7 1356.65 1
-2 7 -9 27793.8 1147.08 9
2 -7 9 26456.4 1308 7
2 -7 10 11246.4 819.754 10
-2 7 -10 10680.5 762.469 11
2 -7 10 10146 887.85 14
-2 7 -10 12518.8 944.617 5
2 -7 10 9890.65 871.174 6
-2 7 -10 10285.6 871.365 1
2 -7 10 10706.8 829.581 7
-2 7 -11 28.5983 342.423 1
-2 7 -11 647.959 316.955 11
2 -7 11 -210.723 369.047 6
2 -7 11 121.402 253.436 10
2 -7 11 409.691 383.862 14
2 -7 12 5028.22 723.447 14
-2 7 -12 5612.61 727.347 1
-2 7 -12 5300.86 626.869 11
2 -7 12 4882.21 701.422 6
2 -7 12 5137.84 566.28 10
2 -7 13 1438.22 451.368 6
-2 7 -13 1014.53 419.051 11
-2 7 -13 480.626 368.24 1
2 -7 13 -116.319 349.165 14
2 -7 14 -206.989 420.797 6
2 -7 14 -49.0244 387.835 14
-2 7 -14 -18.5044 410.567 1
-2 7 -14 -72.2473 334.064 11
-2 7 -15 330.474 399.924 11
2 -6 -11 227.631 373.624 4
-2 6 10 3340.95 602.928 6
-2 6 10 3115.41 656.724 3
2 -6 -10 3071.42 553.321 4
-2 6 9 1794.59 464.739 6
-2 6 9 754.816 429.31 3
2 -6 -9 1252.18 415.612 4
-2 6 8 714.253 377.817 6
-2 6 8 -333.678 401.653 3
2 -6 -8 -75.02 307.216 4
-2 6 7 1953.28 455.637 6
2 -6 -7 1669.42 394.328 4
-2 6 7 1212.01 424.077 3
-2 6 7 1383.52 388.287 13
-2 6 6 14407.3 1073.21 3
2 -6 -6 16264.3 923.228 4
2 -6 -6 16393.6 826.59 11
-2 6 6 16038.2 948.357 13
2 -6 -6 15586.2 913.287 10
2 -6 -5 2102.1 367.014 4
2 -6 -5 1551.76 392.412 7
-2 6 5 1669.32 415.63 3
2 -6 -5 1667.97 332.639 10
-2 6 5 1591.21 349.447 13
2 -6 -4 13174.7 842.231 7
-2 6 4 11704.1 887.285 3
2 -6 -4 12957.4 725.18 4
2 -6 -4 13095.4 810.874 10
-2 6 4 13429.2 830.963 13
2 -6 -3 3402.08 360.063 4
2 -6 -3 3795.68 455.442 7
-2 6 3 3509.34 459.816 13
-2 6 3 3299.08 417.034 1
2 -6 -3 2647.61 411.573 10
-2 6 3 2615.82 483.58 3
2 -6 -2 2168.66 263.747 4
-2 6 2 2094.56 376.852 13
-2 6 2 2079.79 333.412 1
2 -6 -2 1734.18 346.157 7
-2 6 2 2379.12 423.021 3
2 -6 -2 2397.52 388.839 10
2 -6 -1 119.148 129.77 4
2 -6 -1 35.6508 255.004 10
2 -6 -1 -265.27 222.164 7
-2 6 1 -258.725 256.101 13
-2 6 1 -0.84417 197.388 1
-2 6 1 -113.337 278.863 3
2 -6 0 5528.13 504.363 7
-2 6 0 5753.64 487.688 1
2 -6 0 6139.84 358.808 8
-2 6 0 6362.4 592.674 3
2 -6 0 6267.23 359.065 4
2 -6 0 5901.65 564.026 10
2 -6 1 -247.864 227.585 7
2 -6 1 -44.9293 102.932 4
-2 6 -1 -65.7415 230.087 1
-2 6 -1 -194.681 288.711 3
2 -6 1 42.5745 74.6245 8
-2 6 -1 62.376 113.305 4
2 -6 1 490.521 294.66 10
-2 6 -2 3411.86 415.945 1
-2 6 -2 3890.18 359.108 5
2 -6 2 3444.06 447.895 10
-2 6 -2 4303.72 280.211 4
2 -6 2 4320.69 436.326 7
-2 6 -3 233.943 126.213 4
2 -6 3 -70.3233 209.58 7
2 -6 3 395.756 234.581 14
-2 6 -3 251.067 58.0225 11
2 -6 3 165.104 271.03 10
-2 6 -3 189.514 187.257 5
-2 6 -3 169.682 222.669 1
2 -6 4 12194.2 721.971 7
2 -6 4 12830.9 812.228 10
-2 6 -4 13145.5 565.622 4
-2 6 -4 12813.8 484.252 11
2 -6 4 12498.9 757.008 14
-2 6 -4 13251.3 699.925 5
-2 6 -4 11334.1 724.755 1
2 -6 5 215.71 227.425 7
-2 6 -5 275.245 155.953 11
2 -6 5 -84.9917 249.724 10
-2 6 -5 234.465 247.536 1
-2 6 -5 289.111 213.658 5
2 -6 5 183.197 234.653 14
2 -6 6 20212.3 988.176 7
-2 6 -6 21366.8 831.104 11
2 -6 6 19926.3 1022.69 10
-2 6 -6 20233.2 959.662 5
2 -6 6 19064.3 1021.21 14
-2 6 -6 18802.8 1014.99 1
2 -6 7 12788.4 810.842 7
2 -6 7 13857.8 901.606 14
2 -6 7 15016.1 884.167 10
-2 6 -7 14473.2 733.545 11
-2 6 -7 15202.8 849.749 5
-2 6 -7 14228.6 723.36 9
-2 6 -7 13512.6 875.349 1
2 -6 8 22204.4 1121.06 7
2 -6 8 20691.4 1152.98 14
-2 6 -8 23367.4 958.284 9
2 -6 8 23846.6 1233.74 6
-2 6 -8 22366.8 1012.27 11
-2 6 -8 22609.5 1129.88 5
2 -6 8 23878.8 1115.17 10
-2 6 -8 21044.5 1128.44 1
2 -6 9 5456.42 625.944 14
-2 6 -9 6622.5 592.094 11
-2 6 -9 5477.73 640.57 1
2 -6 9 5955.78 552.314 10
2 -6 9 6226.14 668.161 6
-2 6 -9 6161.45 471.087 9
2 -6 9 6395.84 630.739 7
-2 6 -10 5293.5 656.495 1
2 -6 10 4319.04 603.792 14
-2 6 -10 5685.69 572.773 11
2 -6 10 5658.78 544.353 10
2 -6 10 5950.96 688.342 6
2 -6 11 2805.24 541.4 14
-2 6 -11 2099.11 457.849 1
-2 6 -11 2318.86 441.81 11
2 -6 11 2957.51 551.448 6
2 -6 11 2517.28 383.593 10
-2 6 -12 -12.0365 358.156 1
2 -6 12 755.8 427.442 14
2 -6 12 202.469 369.049 6
-2 6 -12 -157.259 299.535 11
2 -6 13 989.515 428.261 14
-2 6 -13 1614.83 488.591 1
-2 6 -13 2038.55 494.601 11
2 -6 13 1575.69 460.033 6
-2 6 -14 5123.35 789.247 1
2 -6 14 5223.36 766.139 14
2 -6 14 4365.33 678.07 6
-2 6 -14 3944.45 667.064 11
2 -6 15 13.9373 395.365 14
-2 6 -15 754.599 464.868 11
2 -6 15 915.124 458.162 6
-2 6 -15 313.081 466.6 1
2 -5 -13 1138.62 540.965 4
-2 5 12 -208.795 395.15 6
-2 5 12 3.15666 388.646 3
2 -5 -12 392.913 458.655 4
-2 5 11 4000.86 661.806 3
-2 5 11 4877.37 718.24 6
2 -5 -11 5224.15 692.147 4
2 -5 -10 7291.22 720.485 11
-2 5 10 7541.41 834.369 3
2 -5 -10 8292.51 803.579 4
-2 5 10 7228.88 778.647 6
2 -5 -9 78.4433 274.051 11
-2 5 9 -285.682 318.313 6
-2 5 9 438.668 450.237 3
2 -5 -9 148.765 332.085 4
-2 5 8 534.165 393.084 6
2 -5 -8 548.883 277.015 11
-2 5 8 912.519 378.948 3
2 -5 -8 -71.9137 289.52 4
-2 5 7 28056.9 1224.91 13
-2 5 7 25827.6 1390.93 3
2 -5 -7 28753.1 1201.8 11
2 -5 -7 28369.7 1170.07 10
2 -5 -7 26309 1242.26 4
-2 5 7 27109.6 1373.05 6
-2 5 6 16603.2 1042.77 3
-2 5 6 14882 970.636 6
2 -5 -6 16164.3 801.757 11
2 -5 -6 16694.6 864.928 10
2 -5 -6 16448.8 897.283 4
-2 5 6 15167.6 869.89 13
-2 5 5 120.451 213.247 13
2 -5 -5 182.302 239.552 10
-2 5 5 341.201 336.599 3
2 -5 -5 95.516 147.657 11
2 -5 -5 279.871 247.298 4
2 -5 -4 21190.8 1043.23 7
-2 5 4 20638.7 969.767 13
2 -5 -4 21373.5 798.39 11
-2 5 4 20279.2 1095.61 3
2 -5 -4 20338.5 975.443 10
2 -5 -4 21546.6 898.521 4
2 -5 -3 2137.9 270.422 4
2 -5 -3 2600.36 375.78 7
-2 5 3 2493.75 216.099 11
-2 5 3 2821.58 239.902 14
-2 5 3 2535.35 354.808 13
-2 5 3 2330.19 363.981 1
-2 5 3 2400.18 418.073 3
2 -5 -3 2265.17 360.172 10
2 -5 -3 2348.74 218.809 11
2 -5 -2 232.111 133.846 4
-2 5 2 -18.7941 233.903 13
2 -5 -2 693.19 265.333 7
-2 5 2 280.397 112.017 14
-2 5 2 512.702 301.995 3
2 -5 -2 299.552 212.23 10
-2 5 2 37.9425 226.765 1
2 -5 -1 7546.66 554.749 7
2 -5 -1 7691.37 382.081 4
-2 5 1 6363.61 521.936 1
-2 5 1 7505.67 624.383 3
2 -5 -1 7838.65 607.163 10
-2 5 1 7930.67 431.803 14
2 -5 -1 7456.6 430.248 8
-2 5 0 7804.2 442.437 14
2 -5 0 7935.33 563.487 7
-2 5 0 6361.31 498.305 1
-2 5 0 6948.76 591.026 3
2 -5 0 8078.34 391.434 8
2 -5 0 7425.95 596.924 10
2 -5 0 7750 340.575 4
2 -5 1 9304.96 603.37 7
-2 5 -1 9251.03 358.605 4
2 -5 1 9503.72 358.494 8
2 -5 1 8840.35 651.046 10
2 -5 1 9266.17 350.952 4
-2 5 -1 8578.11 579.496 1
-2 5 -2 18729.4 573.541 4
2 -5 2 18679.2 943.886 10
2 -5 2 17434 780.904 14
2 -5 2 19191.8 886.621 7
-2 5 -2 18728.7 721.433 5
-2 5 -2 17867 853.213 1
-2 5 -3 629.674 253.72 1
2 -5 3 261.101 227.77 7
-2 5 -3 325.779 87.1819 11
2 -5 3 357.551 270.716 10
-2 5 -3 91.8951 160.737 5
2 -5 3 748.89 241.506 14
-2 5 -3 591.558 139.933 4
2 -5 4 2626.26 365.347 7
2 -5 4 1833.19 325.78 14
-2 5 -4 2487.35 224.434 11
2 -5 4 2571.34 223.044 11
2 -5 4 2673.75 383.256 10
-2 5 -4 1965.9 339.303 1
-2 5 -4 2295.24 313.39 5
-2 5 -4 2713.31 244.517 4
2 -5 5 5368.06 494.501 7
2 -5 5 5737.26 517.453 14
-2 5 -5 6468.25 481.814 5
-2 5 -5 6543.22 403.583 11
2 -5 5 5737.15 387.301 11
2 -5 5 6516.73 544.019 10
-2 5 -5 6731.62 550.169 1
-2 5 -5 6362.79 402.832 4
2 -5 6 12586.6 753.696 7
-2 5 -6 13574 659.793 11
2 -5 6 12136.5 780.05 14
-2 5 -6 12879 719.014 5
-2 5 -6 12910.5 608.529 9
-2 5 -6 12961.4 796.437 1
-2 5 -6 12497.1 439.806 8
2 -5 6 13632.5 791.752 10
2 -5 7 675.241 280.334 7
2 -5 7 779.541 343.558 6
-2 5 -7 820.404 306.682 1
2 -5 7 887.044 271.708 10
-2 5 -7 934.74 205.903 9
-2 5 -7 1018 295.532 5
-2 5 -7 649.154 136.531 8
-2 5 -7 854.768 235.444 11
2 -5 7 1061.82 327.988 14
2 -5 8 2019.78 391.359 7
2 -5 8 1211.87 297.199 10
-2 5 -8 1209.38 364.483 1
-2 5 -8 1100.07 275.946 11
-2 5 -8 1129.83 206.247 9
2 -5 8 1403.79 370.61 6
2 -5 8 1360.54 361.575 14
2 -5 9 19302.5 1114.91 6
2 -5 9 19290.5 1107.69 14
2 -5 9 20657.8 971.329 10
-2 5 -9 21461 802.305 9
-2 5 -9 20096.9 1124.31 1
-2 5 -9 19784.6 1024.87 11
2 -5 9 20404.2 1111.19 7
-2 5 -10 2139.92 403.434 11
2 -5 10 1916.09 438.019 6
2 -5 10 2089.28 335.479 10
2 -5 10 2266.58 478.148 14
-2 5 -10 2176.1 464.369 1
-2 5 -11 -198.29 311.08 1
-2 5 -11 319.914 327.74 11
2 -5 11 -11.0019 321.732 6
2 -5 11 51.1895 208.194 10
2 -5 11 153.021 358.881 14
-2 5 -12 2529.02 524.278 1
2 -5 12 2715.71 543.859 14
-2 5 -12 2249.84 441.632 11
2 -5 12 3049.63 565.143 6
2 -5 13 681.397 373.478 14
-2 5 -13 1384.14 436.749 1
-2 5 -13 1786.58 487.459 11
2 -5 13 1027.08 418.391 6
-2 5 -14 1071.59 509.208 1
2 -5 14 546.169 407.566 14
-2 5 -14 1831.33 476.945 11
2 -5 14 847.704 452.306 6
2 -5 15 3105.49 653.853 14
-2 5 -15 2264.51 649.006 1
-2 5 -15 1750.74 471.844 11
2 -5 15 3272.59 656.249 6
2 -4 -13 4084.56 648.425 11
-2 4 13 3447.73 640.091 6
-2 4 13 4011.09 681.691 3
2 -4 -13 3588.67 678.465 4
-2 4 12 1866.52 521.925 6
2 -4 -12 1428.67 455.33 11
-2 4 12 1553.65 501.729 3
2 -4 -12 1603.81 507.095 4
-2 4 11 12781.4 1038.24 6
-2 4 11 12800.5 1052.18 3
2 -4 -11 12652.3 973.349 11
2 -4 -11 13757.5 1050.48 4
-2 4 10 7556.5 797.988 3
-2 4 10 6885.86 745.76 6
2 -4 -10 6961.43 680.525 11
2 -4 -10 7053.81 747.346 4
-2 4 9 -197.624 316.926 6
2 -4 -9 14.4356 254.771 11
-2 4 9 65.9643 339.896 3
2 -4 -9 459.711 331.109 4
-2 4 8 836.628 380.035 6
2 -4 -8 1694.51 339.387 11
-2 4 8 1361.74 385.241 3
2 -4 -8 1281.26 364.695 4
2 -4 -7 2438.24 353.771 11
-2 4 7 3281 408.752 13
2 -4 -7 2532.21 324.068 10
-2 4 7 2851.4 483.531 6
-2 4 7 3361.24 489.073 3
2 -4 -7 4133.59 501.451 4
-2 4 6 5261.54 463.248 13
2 -4 -6 5375.87 449.781 11
-2 4 6 5478.56 583.159 6
2 -4 -6 5641.19 467.891 10
-2 4 6 4299.16 543.017 3
2 -4 -6 5766.01 533.906 4
2 -4 -5 209.643 197.699 10
-2 4 5 -202.767 209.869 13
-2 4 5 -50.9123 260.046 3
2 -4 -5 208.088 233.358 4
2 -4 -5 223.428 162.272 11
-2 4 4 6295.53 563.572 3
-2 4 4 6254.74 463.43 13
2 -4 -4 5977.7 382.206 11
2 -4 -4 4963.82 449.793 10
2 -4 -4 5506.99 417.488 4
-2 4 4 5732.44 375.961 11
2 -4 -3 10111.8 681.791 7
2 -4 -3 9656.84 621.753 10
-2 4 3 10439.4 401.517 14
-2 4 3 8823.24 597.414 1
-2 4 3 9783.17 687.502 3
2 -4 -3 9890.44 440.241 11
-2 4 3 10806.9 458.175 11
2 -4 -3 10624.2 514.622 4
-2 4 3 10371.9 584.228 13
2 -4 -2 7403.03 541.324 7
-2 4 2 7552.8 337.508 14
-2 4 2 6120.78 483.545 1
2 -4 -2 6522.71 515.03 10
-2 4 2 6919.35 591.4 3
2 -4 -2 7850.47 380.571 4
2 -4 -2 7146.71 302.883 11
2 -4 -1 20534.6 905.368 7
-2 4 1 20893.5 904.892 1
-2 4 1 22745.1 698.886 14
2 -4 -1 21579 766.923 8
-2 4 1 20153.6 951.96 3
2 -4 -1 20965.5 939.593 10
2 -4 -1 21753 637.113 4
-2 4 0 62839.6 1826.73 1
2 -4 0 63716.8 1840.68 7
2 -4 0 63669 1911.72 10
2 -4 0 66423 1581.07 8
2 -4 0 60612.2 1397.37 4
-2 4 0 68722.2 1632.62 14
2 -4 1 5404.87 452.163 7
-2 4 -1 7073.45 415.632 14
2 -4 1 5274.53 481.954 10
-2 4 -1 5897.56 313.873 5
-2 4 -1 5510.58 459.599 1
2 -4 1 5676.93 391.408 14
2 -4 2 20973.8 891.285 7
2 -4 2 21523.9 803.696 14
2 -4 2 20870.8 553.554 11
2 -4 2 21722.3 941.771 10
-2 4 -2 22604.1 714.571 5
2 -4 2 19087 528.985 8
-2 4 -2 19878.1 543.913 4
-2 4 -2 21352.9 880.286 1
-2 4 -3 998.223 152.715 11
2 -4 3 1207.19 147.454 11
2 -4 3 1533.36 302.079 7
-2 4 -3 1099.83 138.845 4
2 -4 3 943.408 246.272 14
2 -4 3 813.412 268.8 10
-2 4 -3 1061.23 196.448 5
-2 4 -3 862.786 256.043 1
2 -4 4 7872.22 561.026 7
-2 4 -4 8145.93 426.888 11
2 -4 4 7985.5 542.655 14
2 -4 4 8967.42 607.107 10
2 -4 4 9199.41 436.581 11
-2 4 -4 8148.71 481.407 5
2 -4 4 8112.57 292.52 8
-2 4 -4 8186.41 575.438 1
2 -4 5 4775.66 464.334 7
-2 4 -5 5521.75 388.119 11
2 -4 5 5201.23 452.215 10
-2 4 -5 5654.51 419.832 5
2 -4 5 5320.66 272.916 8
-2 4 -5 5582.94 286.532 8
-2 4 -5 4694.53 467.995 1
2 -4 5 4731.43 461.868 14
-2 4 -6 20544.1 997.084 1
2 -4 6 20396.9 969.825 7
2 -4 6 21255.4 1002.87 14
-2 4 -6 21085.2 887.173 11
2 -4 6 22174.4 948.852 10
2 -4 6 21420.1 1013.52 6
-2 4 -6 20728.5 717.925 9
2 -4 6 21235.8 723.555 8
-2 4 -6 22445 737.208 8
2 -4 7 1429.86 340.243 7
2 -4 7 1112.93 337.61 14
-2 4 -7 1510.37 298.082 11
2 -4 7 1505.34 350.388 6
-2 4 -7 1259.53 338.086 1
2 -4 7 1332.46 281.818 10
-2 4 -7 1115.51 170.441 9
2 -4 8 492.643 275.151 7
2 -4 8 801.029 235.083 10
-2 4 -8 594.49 242.862 11
2 -4 8 983.629 332.762 6
-2 4 -8 525.886 295.838 1
2 -4 8 675.486 314.162 14
2 -4 9 1135 349.884 7
2 -4 9 1850.1 303.158 10
-2 4 -9 1479.42 336.745 11
2 -4 9 1162.73 376.795 14
2 -4 9 1582.59 402.982 6
-2 4 -9 1786.42 417.946 1
-2 4 -10 2646.82 444.905 11
2 -4 10 3122.79 340.822 10
2 -4 10 2775.82 484.128 14
2 -4 10 2756.69 450.802 6
-2 4 -10 3383.17 538.803 1
2 -4 11 1364.52 433.04 14
-2 4 -11 1664.28 397.208 11
2 -4 11 1706.37 421.683 6
2 -4 11 1947.92 271.492 10
2 -4 12 11513.4 930.703 6
-2 4 -12 11928 951.803 11
2 -4 12 11322.1 940.222 14
-2 4 -13 516.186 356.832 11
2 -4 13 138.625 332.794 6
2 -4 13 -170.615 387.306 14
2 -4 14 8821.73 933.788 14
2 -4 14 8370.83 874.596 6
-2 4 -14 9264.93 925.881 11
2 -4 15 2419.47 552.948 14
-2 4 -15 1667.47 535.738 11
2 -4 15 2819.04 573.519 6
2 -4 16 665.424 437.77 6
-2 3 14 2142.44 554.409 6
2 -3 -14 1900.09 521.406 11
-2 3 14 2132.54 565.271 3
2 -3 -14 3384.48 708.879 4
-2 3 13 3023.91 592.737 6
2 -3 -13 3181.03 593.54 11
-2 3 13 3734.77 666.138 3
2 -3 -13 3348.75 635.774 4
2 -3 -12 11781 993.828 11
-2 3 12 12591.7 1022.63 3
-2 3 12 13790.4 1084.2 6
2 -3 -11 1692.91 444.097 11
-2 3 11 1641.29 467.758 6
-2 3 11 1400.13 433.134 3
-2 3 10 15431.9 1034.28 3
2 -3 -10 15122.6 981.865 11
-2 3 10 14515.8 1038.2 6
-2 3 9 7099.28 700.433 3
2 -3 -9 7852.69 663.073 11
-2 3 9 6689.75 689.731 6
-2 3 8 1992.42 394.808 6
2 -3 -8 2333.82 376.949 11
2 -3 -8 2634.56 294.514 10
-2 3 8 2438.08 435.568 3
-2 3 8 2447.75 253.717 14
-2 3 7 11426 489.093 14
-2 3 7 9589.64 764.347 6
-2 3 7 10332.4 753.263 3
2 -3 -7 11402.8 701.885 11
2 -3 -7 12021 614.942 10
-2 3 6 -7.86849 80.9571 14
-2 3 6 42.0154 294.155 6
-2 3 6 241.275 168.838 13
2 -3 -6 -112.18 180.8 11
2 -3 -6 115.254 155.644 10
-2 3 6 68.452 244.851 3
-2 3 6 -15.0932 94.8981 2
2 -3 -5 391.879 195.237 10
-2 3 5 339.674 110.535 2
-2 3 5 506.715 262.678 3
2 -3 -5 769.75 216.676 11
-2 3 5 577.745 172.459 13
-2 3 4 1620.29 228.413 13
2 -3 -4 1526.7 206.874 11
-2 3 4 1694.56 315.538 3
2 -3 -4 1907.41 281.905 10
-2 3 4 1838.82 232.689 11
-2 3 3 33804.4 1068.44 13
2 -3 -3 36172.5 1255.81 7
-2 3 3 32331.6 778.766 14
-2 3 3 34108.1 1211.92 1
2 -3 -3 36418.1 1004.6 11
-2 3 3 33849.3 1251.11 3
2 -3 -3 35573.2 1197.36 10
2 -3 -2 41030.6 1394.48 7
-2 3 2 41456.1 1365.97 1
-2 3 2 42716.6 1411.92 3
-2 3 2 41619.7 978.924 14
2 -3 -2 44047.7 1089.13 11
2 -3 -2 41839.9 1373.04 10
2 -3 -2 44238.4 1110.56 4
2 -3 -1 13494.8 689.071 7
-2 3 1 12905.4 677.799 1
-2 3 1 14476.1 454.634 14
2 -3 -1 13477.6 413.451 11
2 -3 -1 14026.8 701.306 10
2 -3 -1 13918.8 408.396 4
2 -3 0 2119.08 302.752 7
-2 3 0 1127.25 258.304 1
2 -3 0 1797.08 189.958 14
2 -3 0 2063.62 332.389 10
-2 3 0 1750.35 126.056 5
-2 3 0 2269.34 203.276 14
2 -3 1 6856.12 518.296 10
2 -3 1 7105.01 486.474 7
2 -3 1 6809.54 373.379 14
-2 3 -1 7484.67 393.534 14
2 -3 1 6882.63 265.072 11
-2 3 -1 7451.24 292.495 5
-2 3 -1 6576.25 458.562 1
2 -3 2 55391.4 1623.06 7
2 -3 2 56018.1 1310.65 8
2 -3 2 51574.2 1481.25 14
2 -3 2 55319.1 1660.75 10
2 -3 2 56960.4 1338.82 11
2 -3 2 55429.7 1370.54 5
-2 3 -2 55400.1 1365.67 5
-2 3 -2 51836.4 1597.32 1
2 -3 3 7864 535.064 7
2 -3 3 8406.15 414.582 11
-2 3 -3 8373.55 420.495 11
2 -3 3 9007.92 568.659 10
2 -3 3 8501.01 430.971 5
2 -3 3 8938.27 348.943 8
-2 3 -3 8008.89 534.54 1
2 -3 3 7505.99 497.828 14
2 -3 4 65712.4 1870.01 10
2 -3 4 69534.5 1766.6 11
-2 3 -4 64815.3 1743.79 11
2 -3 4 68141.1 1783.67 5
2 -3 4 65740.9 1911.24 7
2 -3 4 66819.6 1603.41 8
-2 3 -4 64282.8 1910.53 1
-2 3 -4 65873.6 1624.37 8
2 -3 4 64398.7 1871.31 14
2 -3 5 10810.7 654.522 7
-2 3 -5 10589.9 649.18 1
2 -3 5 10583.7 658.865 14
2 -3 5 10179.7 639.192 6
2 -3 5 10765.1 608.283 10
-2 3 -5 10404.2 382.257 9
-2 3 -5 10864.7 494.669 8
2 -3 5 11361.6 496.591 8
-2 3 -5 10138.2 568.539 11
2 -3 6 21526.3 987.628 7
2 -3 6 21362.1 962.926 6
2 -3 6 21457.7 999.137 14
-2 3 -6 21687.5 920.685 11
2 -3 6 22951.1 911.532 10
-2 3 -6 19257 584.352 9
-2 3 -6 22129 1006.09 1
2 -3 6 22109.7 810.631 8
2 -3 7 52.3724 248.911 7
-2 3 -7 629.236 294.298 1
-2 3 -7 -3.70929 228.682 11
2 -3 7 -247.145 250.997 6
2 -3 7 -9.70915 159.882 10
2 -3 7 424.32 306.044 14
2 -3 7 -11.5717 157.853 8
-2 3 -8 454.941 313.704 1
-2 3 -8 447.409 271.978 11
2 -3 8 185.159 245.253 6
2 -3 8 109.755 155.241 10
2 -3 8 422.079 302.895 7
2 -3 8 650.546 324.565 14
2 -3 8 43.8699 188.05 8
2 -3 9 1822.64 425.159 14
-2 3 -9 1299.33 343.024 11
2 -3 9 1553.29 362.617 6
2 -3 9 1213.47 229.278 10
2 -3 9 1276.36 303.664 8
-2 3 -10 3509.19 522.782 11
2 -3 10 3170.59 296.281 10
2 -3 10 3163.15 472.79 6
2 -3 10 2832.97 520.773 14
-2 3 -11 1322.87 412.161 11
2 -3 11 702.055 299.226 6
2 -3 11 606.647 381.411 14
-2 3 -12 1568.82 453.091 11
2 -3 12 2448.31 488.195 6
2 -3 12 1383.09 468.78 14
-2 3 -13 4865.97 679.005 11
2 -3 13 3757.11 582.647 6
2 -3 13 3919.91 632.1 14
2 -3 14 13442.3 1123.05 14
-2 3 -14 15115.2 1196.74 11
2 -3 14 16367 1165.09 6
-2 3 -15 448.277 399.628 11
2 -3 15 461.763 439.345 6
2 -3 15 857.736 455.481 14
2 -3 16 583.812 410.878 6
2 -2 -15 79.9388 398.44 11
-2 2 15 1078.34 467.803 3
-2 2 14 614.017 464.822 6
2 -2 -14 888.079 443.666 11
-2 2 14 1158.21 465.921 3
2 -2 -13 959.97 389.384 11
-2 2 13 845.995 357.123 3
-2 2 12 988.363 434.578 6
2 -2 -12 694.569 384.835 11
-2 2 12 547.827 355.517 3
-2 2 11 4236.69 611.652 6
2 -2 -11 4730.65 620.426 11
-2 2 11 3195.59 525.035 3
2 -2 -10 98.1824 268.437 11
-2 2 10 412.516 305.109 3
-2 2 10 -230.858 342.364 6
2 -2 -9 20242 1078.77 11
-2 2 9 21155.9 796.827 14
-2 2 9 18230.9 1110.5 6
-2 2 9 20766.7 1089.17 3
-2 2 8 4374.47 311.625 14
-2 2 8 4569.18 565.524 6
2 -2 -8 4492.28 493.307 11
2 -2 -8 4314.2 337.87 10
-2 2 8 4255.24 484.023 3
-2 2 7 39569 1066.43 14
-2 2 7 34794.5 1473.44 6
-2 2 7 38290.5 1424.63 3
2 -2 -7 36294.2 1378.23 11
2 -2 -7 38967.4 1206.03 10
-2 2 6 3702.15 413.111 3
-2 2 6 3517.09 269.89 13
-2 2 6 3107.54 183.467 2
2 -2 -6 3728.15 376.364 11
-2 2 6 3069.43 430.889 6
2 -2 -6 3301.75 314.676 10
-2 2 6 3340.11 205.144 14
-2 2 5 552.468 137.342 13
2 -2 -5 783.926 220.136 11
-2 2 5 388.233 294.964 6
-2 2 5 426.352 69.5236 14
2 -2 -5 698.33 198.39 10
-2 2 5 518.358 239.718 3
2 -2 -4 38.7313 170.43 11
-2 2 4 -3.12542 230.098 3
-2 2 4 15.4886 120.747 13
-2 2 4 279.82 166.793 5
-2 2 3 4831.16 419.876 3
2 -2 -3 5507.5 423.498 10
-2 2 3 4231.27 411.245 1
2 -2 -3 4819.18 336.047 11
-2 2 3 5417.77 288.488 5
2 -2 -2 18532.4 797.505 7
2 -2 -2 18890.2 623.527 11
2 -2 -2 17798.9 770.147 10
-2 2 2 18009.4 501.081 5
-2 2 2 17111.3 778.517 1
2 -2 -1 98235.9 2422.17 7
-2 2 1 95151.5 2405.2 1
2 -2 -1 93900.1 2038.95 14
2 -2 -1 96598.1 2427.14 10
2 -2 -1 96912.6 2040.35 4
-2 2 0 52670.2 1514 1
2 -2 0 52452.6 1525.28 7
2 -2 0 53456.7 1286 14
2 -2 0 53816.5 1558.27 10
2 -2 1 8747.61 514.166 7
2 -2 1 8619.43 295.65 5
2 -2 1 9351.67 553.448 10
2 -2 1 8933.21 381.836 11
2 -2 1 9065.85 399.459 8
-2 2 -1 7317.14 249.351 4
2 -2 1 8537.69 410.568 14
-2 2 -1 8222.17 499.008 1
2 -2 2 30162.6 1060.5 7
2 -2 2 32246.8 867.942 5
-2 2 -2 31461.1 810.273 4
2 -2 2 28949.2 966.377 14
2 -2 2 31886.3 918.756 11
2 -2 2 30656.2 1080.8 10
2 -2 2 30802 892.074 8
-2 2 -2 28427.6 1024.71 1
2 -2 3 6022.9 468.354 7
2 -2 3 6746.86 472.628 14
2 -2 3 6977.68 401.769 11
2 -2 3 6510.02 476.224 10
2 -2 3 6563.61 378.641 5
2 -2 3 6265.35 353.535 8
-2 2 -3 5677.36 450.75 1
-2 2 -3 6667.67 363.522 8
-2 2 -3 6349.58 401.887 11
2 -2 4 13495.3 703.475 7
2 -2 4 12384.6 655.421 6
2 -2 4 13141.6 689 14
2 -2 4 15781 695.511 10
-2 2 -4 13111 637.511 11
-2 2 -4 14065.7 693.759 1
2 -2 4 13562 574.504 8
-2 2 -4 13824.8 581.178 8
2 -2 5 33699.8 1243.12 7
2 -2 5 35890.5 1125.85 8
2 -2 5 34153.7 1194.84 6
2 -2 5 33436.4 1254.49 14
-2 2 -5 35279.1 1220.67 11
2 -2 5 35791.1 1163.6 10
-2 2 -5 33898.4 1230.85 1
2 -2 6 18473 934.887 14
-2 2 -6 20247.9 915.874 11
-2 2 -6 18959 908.997 1
2 -2 6 20645.5 909.532 6
2 -2 6 20444.5 809.852 10
2 -2 6 19799 831.446 8
2 -2 6 19496.2 938.899 7
2 -2 7 1446.29 351.57 7
2 -2 7 2083.73 269.057 10
2 -2 7 1580.19 380.699 14
-2 2 -7 1934.19 372.719 1
-2 2 -7 2186.83 358.78 11
2 -2 7 1957.6 336.937 6
2 -2 7 1858.99 314.581 8
-2 2 -8 5163.26 544.805 11
2 -2 8 5331.68 380.364 10
2 -2 8 5215.22 495.758 6
2 -2 8 4905.89 552.814 14
2 -2 8 5691.62 518.538 8
2 -2 9 306.014 338.771 14
-2 2 -9 106.543 266.116 11
2 -2 9 -157.324 264.894 6
2 -2 9 41.1405 120.561 10
2 -2 9 351.905 255.071 8
2 -2 10 1346.99 394.543 14
2 -2 10 1154.58 178.706 10
2 -2 10 1477.25 342.624 6
-2 2 -10 1152.35 360.349 11
2 -2 10 1232.22 344.039 8
2 -2 11 6583.72 730.272 14
2 -2 11 5512.47 606.793 6
2 -2 11 4271.24 550.046 8
-2 2 -11 5974.43 668.474 11
2 -2 12 15400.9 999.935 6
-2 2 -12 13324 1041.63 11
2 -2 12 13266.3 1030.27 14
2 -2 13 318.545 419.07 14
2 -2 13 -32.693 326.747 6
2 -2 14 98.1795 318.447 6
2 -2 14 257.278 411.225 14
-2 2 -14 -232.795 389.225 11
-2 2 -15 1389.94 550.282 11
2 -2 15 899.125 420.427 6
2 -2 15 1413.74 508.923 14
-2 2 -15 1842.34 613.415 4
2 -2 16 2943.34 609.996 6
2 -1 -15 5663.87 813.668 11
-2 1 15 6178.43 825.221 6
-2 1 14 3259.59 614.823 6
2 -1 -14 4138.04 683.391 11
-2 1 14 4161.65 628.403 3
2 -1 -13 7794.66 822.851 11
-2 1 13 6247.06 778.455 6
-2 1 13 6003.65 667.408 3
-2 1 12 4143.65 616.658 6
2 -1 -12 4594.65 627.06 11
-2 1 12 4430.84 566.3 3
2 -1 -11 207.09 330.444 11
-2 1 11 207.455 184.453 14
-2 1 11 81.2038 343.062 6
-2 1 11 370.366 319.707 3
-2 1 10 4165.13 591.614 6
2 -1 -10 3848.06 513.79 11
-2 1 10 4586.68 511.955 3
-2 1 10 4294.63 370.907 14
-2 1 9 2969.7 478.934 6
2 -1 -9 3274.49 479.554 11
-2 1 9 3335.87 301.063 14
-2 1 9 3129.7 423.488 3
2 -1 -9 3613.02 280.302 10
-2 1 8 -101.304 130.693 14
-2 1 8 -110.366 297.149 6
2 -1 -8 119.259 242.025 11
2 -1 -8 302.444 168.538 10
-2 1 8 187.762 220.539 3
2 -1 -7 14.8004 224.62 11
-2 1 7 93.3967 112.548 14
-2 1 7 236.271 257.185 6
2 -1 -7 5.73025 143.366 10
-2 1 7 -34.0817 198.379 3
2 -1 -6 2619.3 352.334 11
-2 1 6 2408.64 403.552 6
2 -1 -6 2666.91 300.408 10
-2 1 6 2501.52 183.527 14
-2 1 6 2229.19 316.172 3
-2 1 5 68383.8 1839.83 3
-2 1 5 65939.3 2010.34 6
2 -1 -5 66927.3 1885.13 11
-2 1 5 64608.9 1492.7 13
-2 1 5 70007.8 1801.31 5
-2 1 5 69779.9 1520 14
-2 1 4 22919.4 959.363 6
-2 1 4 21549 593.798 13
2 -1 -4 23295.7 854.332 11
-2 1 4 22676.6 746.304 5
-2 1 4 22240 827.507 3
-2 1 3 1322.42 274.798 1
2 -1 -3 993.874 216.43 11
-2 1 3 958.543 212.165 3
-2 1 3 813.855 135.258 5
2 -1 -2 12144.6 605.109 7
-2 1 2 11372.6 605.874 1
2 -1 -2 13579.2 476.715 4
2 -1 -1 10917.3 549.026 1
2 -1 -1 10042.6 530.505 7
-2 1 1 10601.9 543.838 7
-2 1 1 10127.5 548.188 1
2 -1 -1 10639.7 381.369 4
2 -1 0 158.711 110.687 4
2 -1 0 334.193 186.469 1
-2 1 0 124.264 106.429 4
-2 1 0 196.3 187.809 7
-2 1 0 216.501 229.166 1
2 -1 0 412.034 223.233 7
2 -1 1 106701 2596.03 7
-2 1 -1 113164 2631.89 7
2 -1 1 111047 2392 4
-2 1 -1 105338 2374.19 4
2 -1 1 105687 2512.49 8
2 -1 1 113047 2594.83 1
-2 1 -1 103644 2563.69 1
2 -1 2 16325.9 711.865 7
-2 1 -2 17294.9 672.439 6
2 -1 2 18342.4 688.371 11
-2 1 -2 16135.9 476.27 9
2 -1 2 18732.2 709.402 1
-2 1 -2 16303.2 589.542 4
2 -1 2 15892.6 636.754 8
-2 1 -2 17621.4 670.657 8
-2 1 -2 16911.8 693.506 1
2 -1 3 74032.3 2071.35 7
-2 1 -3 85612.2 2041.67 6
-2 1 -3 79344.2 1983.32 4
2 -1 3 78078.4 2001.65 8
-2 1 -3 80333.6 2072.34 1
-2 1 -3 82712.7 2051.39 8
2 -1 4 1391.21 290.567 7
-2 1 -4 2071.67 306.245 1
-2 1 -4 2137.53 322.039 11
-2 1 -4 2551.39 285.388 6
2 -1 4 1687.56 245.605 6
2 -1 4 1860.23 277.081 8
-2 1 -4 2515.81 320.861 4
2 -1 5 3361.76 396.065 7
-2 1 -5 2755.64 353.037 1
-2 1 -5 3725.96 417.55 11
2 -1 5 3552.95 341.618 6
2 -1 5 3026.13 349.206 8
-2 1 -5 3737.94 392.315 4
2 -1 6 13061.7 692.489 8
2 -1 6 12736.7 659.715 6
2 -1 6 11856.1 727.4 7
-2 1 -6 12414 695.54 1
-2 1 -6 12545.3 746.346 11
-2 1 -7 11189.3 752.308 11
2 -1 7 11986.7 550.927 10
-2 1 -7 12359.8 711.953 1
2 -1 7 11887 706.074 8
2 -1 7 11554.8 655.485 6
2 -1 8 665.932 245.975 6
2 -1 8 705.435 167.161 10
-2 1 -8 931.16 324.706 11
2 -1 8 468.304 86.2173 9
2 -1 8 1328.47 331.793 8
2 -1 9 22059 1040.93 6
-2 1 -9 21105.1 1156.14 11
2 -1 9 21903.3 741.479 10
2 -1 9 19934.4 1067.63 8
2 -1 9 19047.6 1119.58 14
2 -1 10 17506.3 968.092 6
2 -1 10 17520.1 1089.16 14
-2 1 -10 16677.8 1077.3 11
2 -1 10 16664.3 1008.41 8
2 -1 11 461.992 375.189 14
-2 1 -11 -130.294 334.141 11
2 -1 11 286.392 306.652 6
2 -1 11 58.1617 293.954 8
2 -1 12 617.878 410.705 14
-2 1 -12 103.358 311.806 11
2 -1 12 354.115 278.635 6
2 -1 12 -60.7704 309.895 8
-2 1 -12 64.3018 405.29 4
2 -1 13 560.618 415.384 14
-2 1 -13 64.884 382.949 11
2 -1 13 393.683 304.286 6
-2 1 -13 -394.564 416.161 4
2 -1 14 23.7939 358.767 14
-2 1 -14 543.421 447.079 11
2 -1 14 618.56 362.615 6
-2 1 -14 295.55 471.173 4
2 -1 15 838.96 460.356 14
-2 0 15 5213.2 780.318 6
2 0 -15 7430.32 877.776 11
-2 0 14 2179.56 539.122 6
2 0 -14 1943.64 524.122 11
-2 0 13 5542.44 725.414 6
2 0 -13 5781.81 737.379 11
-2 0 13 5463.63 602.3 3
-2 0 12 307.464 328.316 6
2 0 -12 1219.57 416.377 11
-2 0 12 591.242 213.474 14
-2 0 12 336.88 282.251 3
-2 0 11 256.574 219.685 14
2 0 -11 261.798 323.088 11
-2 0 11 16.1662 333.107 6
-2 0 11 749.366 323.778 3
2 0 -10 668.466 292.58 11
-2 0 10 853.183 144.013 12
-2 0 10 714.96 352.987 6
-2 0 10 1124.21 312.727 3
-2 0 10 1093.19 230.906 14
-2 0 9 14880.1 689.193 14
-2 0 9 15006.3 591.951 12
-2 0 9 12628.4 893.039 6
2 0 -9 13823.3 892.469 11
-2 0 9 14137.5 758.563 3
2 0 -9 15720 620.878 10
-2 0 8 5384.79 355.038 12
-2 0 8 4525.6 348.855 14
2 0 -8 5129.62 509.987 11
-2 0 8 4946.73 430.207 3
-2 0 8 4609.17 548.017 6
-2 0 7 474.321 141.812 14
-2 0 7 664.868 287.157 6
2 0 -7 428.23 251.997 11
-2 0 7 792.578 200.233 3
-2 0 6 6344.26 259.126 2
-2 0 6 6268.71 531.311 6
-2 0 6 7155.68 358.964 14
2 0 -6 7035.84 420.587 3
-2 0 6 6580.25 413.435 3
2 0 -6 7062.99 527.225 11
2 0 -6 6410.3 357.423 14
2 0 -5 89889.5 2328.4 11
2 0 -5 88030.8 2001 14
-2 0 5 86774.2 2098.37 3
-2 0 5 87823.5 2185.22 5
2 0 -5 89074.9 2192.34 5
-2 0 5 85126 2355.27 6
-2 0 5 82338.6 1942.41 2
2 0 -4 60168 1439.52 14
-2 0 4 61312.5 1770.82 6
2 0 -4 60647.6 1724.73 11
-2 0 4 63228.9 1589.62 5
-2 0 4 62142.9 1547.67 3
2 0 -4 60919.4 1585.86 5
2 0 -3 6990.27 353.572 5
-2 0 3 8237.67 506.769 6
2 0 -3 7023.9 304.379 14
2 0 -3 7705.35 414.337 4
2 0 -2 3555.61 326.991 1
-2 0 2 2645.72 245.923 4
2 0 -2 3089.75 216.574 5
2 0 -2 3431.11 322.308 7
-2 0 2 2867.07 329.176 1
2 0 -2 3056.59 262.437 4
2 0 -1 90288.1 2075.72 1
-2 0 1 83825.5 2038.95 7
-2 0 1 79222.3 2045.9 1
-2 0 1 82413.2 2007.1 9
2 0 -1 81138.8 2021.09 7
2 0 -1 85577.9 1959.22 4
-2 0 1 76405.1 1938.89 4
2 0 0 70507.9 1798.42 7
-2 0 0 74152 1819.93 7
-2 0 0 70371.1 1802.71 1
-2 0 0 71707.5 1730.06 9
2 0 0 73358.7 1743.29 4
2 0 0 70983.3 1841.43 8
-2 0 0 69593.6 1727.21 4
2 0 0 74918.9 1814.92 1
2 0 1 76418.1 1924.93 7
-2 0 -1 80792.5 1949.82 7
-2 0 -1 76897.9 1775.61 9
2 0 1 77252.7 1883.71 4
2 0 1 76778 1954.68 8
-2 0 -1 73566.8 1862.07 4
-2 0 -1 81631 1983.76 8
2 0 1 77447.8 1901.5 1
-2 0 -1 72838.2 1889.84 1
2 0 2 9857.17 525.476 7
-2 0 -2 10734.8 537.115 7
2 0 2 9778.28 355.19 9
2 0 2 10563.2 499.895 1
2 0 2 10720.1 522.809 4
2 0 2 9904.07 543.97 8
-2 0 -2 9272.14 484.814 4
-2 0 -2 11090 550.921 8
-2 0 -2 9826.22 489.091 1
-2 0 -2 11039.5 449.941 6
2 0 3 -38.5861 189.074 7
-2 0 -3 104.971 207.351 1
-2 0 -3 184.035 128.778 6
2 0 3 18.1434 72.4739 9
2 0 3 190.572 216.176 8
-2 0 -3 154.916 196.522 4
2 0 4 246.728 229.697 7
-2 0 -4 404.773 199.4 1
-2 0 -4 258.557 137.883 6
2 0 4 436.847 177.337 6
2 0 4 149.685 59.6459 9
2 0 4 295.866 240.847 8
-2 0 -4 103.292 219.353 4
2 0 5 37331.4 1164.96 6
-2 0 -5 40223.2 1174.59 6
-2 0 -5 37515.8 1239.36 1
-2 0 -5 35946.8 1323.86 4
2 0 5 38543.5 1331.04 8
-2 0 -5 37189.5 1376.87 11
2 0 5 36194.1 1301.74 7
2 0 6 29677.7 1045.01 6
-2 0 -6 31166.8 1279.72 11
-2 0 -6 30894 1136.36 1
-2 0 -6 29036.4 1209.75 4
2 0 6 28676.7 1181.16 8
-2 0 -7 25194.2 1202.17 11
2 0 7 24626.3 1137.95 8
-2 0 -7 26449.6 1189.24 4
-2 0 -7 27044 893.637 12
2 0 7 23907.6 972.079 6
-2 0 -8 672.278 342.205 11
2 0 8 176.323 195.573 6
-2 0 -8 358.345 150.375 12
2 0 8 230.9 273.77 8
-2 0 -8 993.81 366.952 4
2 0 9 76441.6 2262.51 6
-2 0 -9 75001.9 2559.01 11
2 0 9 77678.8 1876.01 10
2 0 9 74266.5 2461.64 8
-2 0 -9 75222.3 2519.36 4
-2 0 -10 -51.8305 299.156 11
2 0 10 282.313 238.208 6
2 0 10 240.633 321.944 8
-2 0 -10 360.28 335.546 4
2 0 11 847.37 419.765 14
-2 0 -11 173.201 372.059 11
2 0 11 584.219 293.265 6
2 0 11 574.987 354.077 8
-2 0 -11 526.571 396.193 4
2 0 12 829.572 470.604 14
-2 0 -12 907.628 466.987 11
2 0 12 408.724 319.168 6
2 0 12 272.621 341.898 8
-2 0 -12 668.237 448.892 4
2 0 13 328.367 411.696 14
-2 0 -13 184.582 423.407 11
-2 0 -13 681.357 467.333 4
-2 0 -14 356.251 450.862 11
2 0 14 958.503 488.412 14
-2 0 -14 890.373 511.533 4
2 0 15 -478.084 426.302 14
-2 -1 15 8295.43 912.508 6
2 1 -15 8524.69 935.917 11
-2 -1 14 1249.16 417.262 6
2 1 -14 854.698 433.29 11
2 1 -13 1308.89 427.309 11
-2 -1 13 1853.7 511.649 6
-2 -1 13 1686.36 340.937 14
-2 -1 13 1329.7 331.822 3
2 1 -12 2.28506 309.572 11
-2 -1 12 29.5446 229.136 14
-2 -1 12 -483.691 370.357 6
-2 -1 12 70.0116 222.917 3
-2 -1 11 248.285 253.58 14
2 1 -11 506.198 330.826 11
-2 -1 11 566.03 351.799 6
-2 -1 11 310.424 231.454 3
-2 -1 10 824.776 351.655 6
-2 -1 10 1156.19 176.48 12
-2 -1 10 1083.26 252.234 14
2 1 -10 458.206 279.782 11
-2 -1 10 895.545 243.341 3
-2 -1 9 4699.52 584.83 6
2 1 -9 4159.83 513.258 11
-2 -1 9 5187.33 342.757 12
-2 -1 9 4690.02 413.417 14
-2 -1 9 4431.62 388.819 3
-2 -1 8 973.376 185.923 12
-2 -1 8 1030.32 229.961 14
-2 -1 8 750.02 312.825 6
2 1 -8 1244.22 324.265 11
-2 -1 8 670.204 173.431 3
-2 -1 7 2041.73 169.398 2
-2 -1 7 2122.81 255.721 12
-2 -1 7 2404.05 243.664 3
-2 -1 7 2011.59 364.129 6
2 1 -7 2078.67 374.437 11
2 1 -7 2155.96 228.038 3
2 1 -7 2737.37 376.853 5
-2 -1 7 2094.45 250.102 14
-2 -1 6 15850.8 551.99 2
2 1 -6 15721.2 638.254 14
2 1 -6 14874.8 808.628 11
-2 -1 6 14983.4 805.001 6
-2 -1 6 16240.3 690.942 12
-2 -1 6 16027.7 564.664 3
2 1 -6 15278.9 746.342 5
-2 -1 5 11541.2 494.637 2
-2 -1 5 13022.6 634.915 12
-2 -1 5 12320.8 676.074 6
-2 -1 5 13681.4 457.958 3
2 1 -5 13020.4 545.883 14
2 1 -5 11748.7 670.649 11
2 1 -5 11950 608.004 5
-2 -1 4 913.485 88.3429 13
2 1 -4 879.005 171.443 14
-2 -1 4 1001.42 200.197 2
-2 -1 4 1537.01 328.766 12
-2 -1 4 975.441 252.326 6
-2 -1 4 1045.59 117.922 3
2 1 -4 1185.79 229.048 5
-2 -1 3 18946.8 555.828 13
2 1 -3 20720.9 758.853 4
2 1 -3 17588.2 670.462 5
-2 -1 3 17181.6 724.322 6
-2 -1 3 17208.3 708.541 4
-2 -1 3 16734.3 664.245 2
-2 -1 2 1246.34 265.432 2
-2 -1 2 1400.99 247.868 4
2 1 -2 1490.17 224.001 7
-2 -1 2 1992.82 203.78 13
-2 -1 2 1542.26 248.95 6
2 1 -2 1692.39 246.568 1
-2 -1 2 1473.26 248.581 1
2 1 -2 1598.79 232.634 4
-2 -1 2 1647.37 242.302 9
2 1 -2 1474.88 272.674 9
2 1 -1 110114 2532.39 7
2 1 -1 116215 2582.09 1
-2 -1 1 112745 2541.73 7
2 1 -1 105787 2682.35 8
-2 -1 1 105747 2559.37 1
-2 -1 1 113875 2618.12 9
2 1 -1 107179 2602.79 9
2 1 -1 116147 2636.15 4
-2 -1 1 106021 2606.37 4
2 1 0 4806.78 313.88 7
-2 -1 0 5095.22 326.732 7
-2 -1 0 5087.83 340.444 1
-2 -1 0 5401.49 329.096 9
2 1 0 5218.11 337.69 9
-2 -1 0 5694.74 342.682 3
2 1 0 5346.66 383.984 4
-2 -1 0 4826.98 362.904 4
2 1 0 5820.38 332.959 1
2 1 0 4987.87 407.545 8
2 1 1 4942.17 332.901 7
-2 -1 -1 5244.96 344.391 7
-2 -1 -1 5212.04 374.185 3
2 1 1 4927.27 313.248 9
2 1 1 4736.48 354.409 4
2 1 1 5160.4 317.799 1
-2 -1 -1 4466.45 369.183 4
2 1 1 3723.55 385.145 8
-2 -1 -1 4729.96 314.439 1
-2 -1 -2 130.816 219.537 4
-2 -1 -2 -7.13003 152.051 7
2 1 2 95.2585 173.738 7
-2 -1 -2 45.0056 222.896 12
-2 -1 -2 136.433 85.4559 6
2 1 2 130.392 138.01 9
2 1 2 168.053 145.068 1
-2 -1 -2 283.876 157.887 1
2 1 2 134.911 239.905 8
-2 -1 -3 18785.8 789.971 12
-2 -1 -3 19782.6 593.614 6
2 1 3 18048 845.408 3
2 1 3 19892.6 861.716 8
-2 -1 -3 18666.5 833.697 4
-2 -1 -3 19421.6 704.228 1
2 1 3 18661.7 760.264 7
2 1 4 232.158 211.697 7
-2 -1 -4 265.088 107.574 6
-2 -1 -4 126.739 155.61 1
-2 -1 -4 556.609 218.255 12
2 1 4 359.357 140.88 6
2 1 4 512.282 258.918 8
2 1 4 270.109 290.297 3
-2 -1 -4 329.046 257.619 4
-2 -1 -5 14894.5 824.198 4
-2 -1 -5 15138.8 700.655 12
2 1 5 16183 621.552 6
2 1 5 15688.9 874.355 3
-2 -1 -5 16662 721.437 1
2 1 5 15202.3 837.996 8
-2 -1 -5 17390.5 643.235 6
-2 -1 -6 59430.3 1639.94 12
2 1 6 57279.8 1968.12 3
-2 -1 -6 56421.1 1990.87 11
-2 -1 -6 61503.6 1757.46 1
2 1 6 57643.5 1935.22 8
-2 -1 -6 58458.9 1960.97 4
2 1 6 61198.6 1634.58 6
2 1 7 8612.01 516.911 6
-2 -1 -7 8963.88 478.643 12
-2 -1 -7 8775.18 730.919 11
2 1 7 8633.01 712.06 3
2 1 7 8097.25 669.259 8
-2 -1 -7 8885.82 716.364 4
-2 -1 -8 916.53 192.176 12
-2 -1 -8 189.267 270.023 11
2 1 8 641.607 222.5 6
2 1 8 510.046 355.31 8
2 1 8 641.435 320.483 3
-2 -1 -8 587.343 349.394 4
-2 -1 -9 966.092 331.901 2
-2 -1 -9 963.991 395.878 11
2 1 9 446.147 252.571 6
2 1 9 191.45 296.381 8
-2 -1 -9 862.623 412.68 4
2 1 9 600.728 360.546 3
2 1 10 6096.29 534.832 6
2 1 10 5275.06 638.322 8
-2 -1 -10 6559.04 746.623 4
2 1 10 6180.04 707.955 3
-2 -1 -10 6520.7 550.434 2
-2 -1 -10 4661.79 631.113 11
-2 -1 -11 54.1223 329.192 11
2 1 11 593.062 380.672 8
-2 -1 -11 -32.5486 379.057 4
-2 -1 -12 273.274 370.646 11
2 1 12 714.587 414.428 8
-2 -1 -12 712.936 471.021 4
-2 -1 -13 794.457 394.172 11
2 1 13 2416.18 585.474 14
2 1 13 1497.41 493.623 8
-2 -1 -13 2057.37 593.152 4
2 1 14 -91.0103 411.933 14
2 2 -15 9372.97 981.72 11
-2 -2 15 7872.27 924.204 6
-2 -2 14 -56.0007 259.475 14
-2 -2 14 555.464 404.651 6
2 2 -14 -123.649 340.569 11
-2 -2 13 3399.68 466.615 14
-2 -2 13 2385.06 501.861 6
2 2 -13 3143.69 551.906 11
-2 -2 12 -165.768 377.418 6
2 2 -12 127.797 314.9 11
-2 -2 12 669.802 294.123 14
-2 -2 11 5875.76 532.703 14
-2 -2 11 5559.65 649.471 6
2 2 -11 4985.89 630.589 11
-2 -2 11 4971.73 435.158 3
-2 -2 10 2903.58 317.821 3
-2 -2 10 3941.44 434.204 14
-2 -2 10 2905.9 486.414 6
2 2 -10 3112.32 474.954 11
-2 -2 10 3400.89 305.207 12
-2 -2 9 8459.9 570.839 14
-2 -2 9 9317.74 512.994 12
-2 -2 9 7789.8 678.928 6
2 2 -9 8096.28 689.396 11
-2 -2 9 7785.99 453.238 3
2 2 -9 9220.9 729.748 5
-2 -2 8 1449.85 270.829 14
-2 -2 8 1245.79 313.221 6
-2 -2 8 1579.81 232.687 12
2 2 -8 1379.37 361.141 11
2 2 -8 1499.3 179.385 3
2 2 -8 1625.9 354.007 5
-2 -2 8 1613.53 188.26 3
2 2 -7 11720.7 756.26 11
2 2 -7 10548.5 340.182 13
-2 -2 7 11379.6 596.047 12
-2 -2 7 12058 742.698 6
-2 -2 7 11760.7 420.994 3
-2 -2 7 11916.1 510.589 2
2 2 -7 11405.5 690.6 5
-2 -2 6 60832.5 1580.16 2
2 2 -6 61188.2 1894.89 11
2 2 -6 60277.2 1356.28 13
-2 -2 6 60938.4 1840.88 6
-2 -2 6 55946.3 1310.41 3
2 2 -6 60755.9 1805.28 5
-2 -2 6 61569.6 1716.26 12
-2 -2 5 8253.25 527.822 12
-2 -2 5 9178.18 481.855 2
2 2 -5 9487.8 369.115 13
-2 -2 5 10101.7 601.901 6
2 2 -5 8962.25 571.809 5
2 2 -4 1446.5 191.107 13
-2 -2 4 1328.52 262.583 6
-2 -2 4 1157.51 154.952 13
-2 -2 4 845.597 263.477 4
-2 -2 4 882.64 264.518 12
-2 -2 4 1489.33 233.078 2
2 2 -4 1401.96 251.388 5
2 2 -4 1664.99 343.795 9
-2 -2 3 3712.58 352.777 2
2 2 -3 4411.37 299.592 7
-2 -2 3 4391.34 287.644 13
-2 -2 3 3507.13 383.803 4
2 2 -3 4610.83 346.467 1
2 2 -3 4401.81 342.829 6
-2 -2 3 4116.21 341.274 6
-2 -2 3 3577.3 389.103 12
-2 -2 3 4134.13 166.653 3
2 2 -3 4410.16 418.389 9
-2 -2 2 12283.1 639.405 2
2 2 -2 13915.2 520.384 7
-2 -2 2 15291 598.78 13
-2 -2 2 15312.5 572.932 6
-2 -2 2 13345.5 700.661 12
-2 -2 2 14737.6 470.36 3
2 2 -2 15971.5 610.368 1
2 2 -2 13893.8 701.726 8
-2 -2 2 13775.9 675.011 4
2 2 -2 13478.3 659.899 9
-2 -2 1 11183.2 604.355 2
2 2 -1 11153.6 445.935 7
-2 -2 1 11460.2 446.516 7
2 2 -1 11940.4 486.6 1
-2 -2 1 12210.5 567.938 13
-2 -2 1 11430.2 480.519 1
-2 -2 1 10910.9 630.443 12
-2 -2 1 12406.9 475.522 3
2 2 -1 11772.3 584.111 9
-2 -2 1 11584.6 436.109 6
2 2 -1 10739.2 614.089 8
-2 -2 1 11236 608.008 4
2 2 0 632.921 142.111 1
-2 -2 0 332.08 230.627 4
-2 -2 0 134.381 220.783 2
-2 -2 0 644.225 154.391 1
-2 -2 0 541.348 141.11 7
-2 -2 0 496.185 245.099 12
-2 -2 0 533.726 89.9905 6
2 2 0 807.645 236.633 9
-2 -2 0 502.105 168.315 3
2 2 0 477.559 176.244 3
2 2 0 584.669 259.089 8
2 2 0 495.699 140.939 7
2 2 1 38657.3 1082.9 7
-2 -2 -1 42684.7 1128.26 7
-2 -2 -1 41054 1051.36 1
-2 -2 -1 39451.5 1294.77 12
2 2 1 37178.4 1220.26 3
2 2 1 38763 1172.86 9
2 2 1 41049.4 1047.37 1
2 2 1 38411 1323.07 8
-2 -2 -1 38725 1294.65 4
-2 -2 -1 36359.1 1288.19 2
-2 -2 -2 14603.8 598.69 7
2 2 2 14244 697.019 3
2 2 2 14395.4 738.432 8
-2 -2 -2 14530.3 746.331 4
-2 -2 -2 13697.7 678.651 12
-2 -2 -2 13815.5 506.905 1
-2 -2 -2 13500.7 716.172 2
2 2 2 13615 577.483 7
2 2 3 40783.4 1368.63 3
-2 -2 -3 35258.9 882.988 6
-2 -2 -3 40349.2 1273.48 12
-2 -2 -3 41483.8 1397.1 4
2 2 3 39921 1386.78 8
-2 -2 -3 42812.7 1090.63 1
-2 -2 -3 39518 1339.4 2
-2 -2 -4 865.934 275.335 2
-2 -2 -4 999.097 239.293 12
-2 -2 -4 791.256 108.953 6
-2 -2 -4 1092.99 185.941 1
2 2 4 796.581 118.932 6
2 2 4 523.455 259.892 8
2 2 4 899.757 300.491 3
-2 -2 -4 835.247 301.16 4
2 2 5 4791.48 287.4 6
-2 -2 -5 4122.8 379.785 12
-2 -2 -5 3806.64 432.996 2
-2 -2 -5 4474.41 278.851 6
-2 -2 -5 4347.12 344.214 1
2 2 5 3781.47 471.151 8
2 2 5 4025.64 486.05 3
-2 -2 -5 3910.62 482.757 4
2 2 6 5700.74 365.381 6
-2 -2 -6 5928.92 364.93 6
-2 -2 -6 5489.8 417.533 12
2 2 6 6020.65 604.89 3
-2 -2 -6 5758.57 429.634 1
2 2 6 5883.95 593.073 8
-2 -2 -6 5817.68 607.583 4
-2 -2 -6 4765.34 463.66 2
2 2 7 11389.7 564.522 6
-2 -2 -7 11240.8 575.358 12
-2 -2 -7 12627.1 674.014 1
2 2 7 11530.4 848.507 3
2 2 7 9717.15 787.308 8
-2 -2 -7 9649.06 778.974 4
-2 -2 -7 10138.2 702.56 2
-2 -2 -8 28812.5 1239.87 2
2 2 8 31270.4 1482.98 3
-2 -2 -8 29949.5 1449.25 4
2 2 8 28771.6 1410.93 8
2 2 8 29494.3 1078.62 6
-2 -2 -9 46339.6 1618.85 2
-2 -2 -9 43365.2 1916.24 11
2 2 9 40599.6 1842.46 3
2 2 9 42559.4 1854.73 8
-2 -2 -9 42679.3 1877.17 4
-2 -2 -10 542.619 244.409 2
2 2 10 472.461 377.064 8
-2 -2 -10 28.6145 354.504 11
2 2 10 277.003 396.295 3
-2 -2 -10 155.988 344.542 4
2 2 11 10333.6 991.202 3
2 2 11 10287.3 948.546 8
-2 -2 -11 10389.8 989.981 4
-2 -2 -11 9447.35 927.179 11
2 2 12 14817.9 1182.47 8
-2 -2 -12 16406.2 1284.95 11
2 2 12 15992.6 1248.36 3
-2 -2 -12 15316.3 1245.55 4
2 2 13 769.213 464.472 8
-2 -2 -13 249.063 436.651 4
2 2 14 911.623 498.009 14
-2 -3 15 1446.29 413.027 14
2 3 -15 784.933 412.509 11
-2 -3 15 869.39 464.096 6
2 3 -14 9147.7 932.132 11
-2 -3 14 8405.49 751.556 14
-2 -3 14 9188.6 934.475 6
-2 -3 13 14225.5 1089.58 6
-2 -3 13 14214.5 920.395 14
2 3 -13 13084 1063.36 11
-2 -3 12 92.1984 270.867 14
2 3 -12 367.481 339.015 11
-2 -3 12 193.056 339.505 6
-2 -3 11 4649.77 513.262 14
-2 -3 11 4600.92 382.986 12
2 3 -11 3577.9 539.742 11
-2 -3 11 4217.67 581.936 6
2 3 -11 5108.82 673.933 5
-2 -3 10 7159.01 581.83 14
-2 -3 10 6802.47 471.125 12
2 3 -10 6519.65 674.564 5
2 3 -10 6787.2 679.276 11
-2 -3 10 6890.66 661.548 6
-2 -3 9 245.681 173.343 12
2 3 -9 136.919 95.9447 13
2 3 -9 271.699 259.36 11
2 3 -9 143.17 276.244 5
-2 -3 9 -49.3181 283.186 6
2 3 -8 392.368 122.321 13
2 3 -8 57.7255 279.349 11
-2 -3 8 474.208 201.713 12
-2 -3 8 277.777 261.178 6
2 3 -8 232.751 67.4698 3
2 3 -8 7.29996 297.523 5
-2 -3 7 9488.06 532.956 2
2 3 -7 9926 429.417 13
-2 -3 7 10420.7 606.705 12
-2 -3 7 9645.29 675.714 6
2 3 -7 10053.6 723.365 11
2 3 -7 9658.11 668.331 5
-2 -3 6 9408.43 589.705 12
-2 -3 6 8583.98 516.318 2
2 3 -6 8639.25 419.154 13
-2 -3 6 8411.38 588.315 6
2 3 -6 8544.92 649.627 11
2 3 -6 9045.03 608.074 5
2 3 -6 9278 664.334 9
-2 -3 5 13081.3 650.533 2
2 3 -5 12449.9 537.049 13
-2 -3 5 13167.6 694.785 12
-2 -3 5 13178.8 679.179 6
2 3 -5 12559.4 710.352 5
2 3 -5 13484.1 765.09 9
-2 -3 4 15431.7 719.385 2
2 3 -4 15612.3 635.272 13
-2 -3 4 14984.5 769.978 12
-2 -3 4 16061.8 696.239 6
2 3 -4 16150.1 808.259 9
-2 -3 4 14207.7 778.707 4
-2 -3 3 1637.91 129.916 3
-2 -3 3 2127.69 332.39 4
2 3 -3 1920.99 188.288 7
2 3 -3 2128.5 241.492 6
2 3 -3 1956.64 274.375 13
-2 -3 3 1599.13 336.389 12
-2 -3 3 1614.86 219.584 6
2 3 -3 2183.29 244.173 1
2 3 -3 2602.19 406.305 9
-2 -3 3 1820.52 295.32 2
2 3 -3 1429.74 302.591 8
2 3 -2 6722.71 300.501 7
-2 -3 2 6903.83 521.621 2
-2 -3 2 7502.58 367.662 6
2 3 -2 7890.29 388.942 1
-2 -3 2 7579.59 346.21 3
2 3 -2 6898.79 479.192 13
2 3 -2 7303.78 351.572 3
2 3 -2 6956.17 513.96 9
-2 -3 2 6770.15 522.186 12
2 3 -2 6844.63 513.097 8
-2 -3 2 6656.59 524.958 4
2 3 -2 7751.26 391.04 6
2 3 -1 5839.43 261.32 7
-2 -3 1 6356.76 503.228 2
-2 -3 1 6591.1 282.7 6
2 3 -1 6337.83 316.303 1
-2 -3 1 6627.02 510.498 12
-2 -3 1 6396.22 368.433 3
2 3 -1 6428.85 377.146 3
2 3 -1 6155.98 458.3 9
2 3 -1 5757.88 484.703 8
-2 -3 1 5457.16 486.065 4
-2 -3 0 4615.3 253.23 7
-2 -3 0 3942.45 437.615 4
-2 -3 0 4875.84 444.009 12
-2 -3 0 4239.61 436.375 2
2 3 0 4834.48 401.687 9
2 3 0 4318.14 231.861 1
2 3 0 4538.8 360.586 3
2 3 0 4303.05 438.101 8
2 3 0 4739.87 245.376 7
-2 -3 -1 577.564 305.9 4
-2 -3 -1 226.849 116.978 7
-2 -3 -1 343.128 274.273 2
-2 -3 -1 482.246 258.95 12
-2 -3 -1 263.648 82.7583 1
2 3 1 296.976 204.44 3
2 3 1 383.226 267.677 8
-2 -3 -2 6531.38 285.061 1
-2 -3 -2 6451.62 520.721 2
-2 -3 -2 7027.55 389.593 7
-2 -3 -2 5932.83 491.585 12
2 3 2 6060.9 538.876 8
2 3 2 6414.73 501.623 3
-2 -3 -2 6435.7 552.914 4
-2 -3 -3 272.661 244.529 4
-2 -3 -3 388.157 255.363 2
-2 -3 -3 393.945 230.622 12
2 3 3 670.084 291.603 3
-2 -3 -3 247.561 95.235 1
2 3 3 322.205 279.207 8
-2 -3 -4 4061.79 499.951 4
-2 -3 -4 4047.55 391.778 12
2 3 4 4005.29 471.822 3
-2 -3 -4 3854.83 459.528 2
-2 -3 -4 4146.52 267.186 1
2 3 4 3548.42 442.974 8
-2 -3 -5 25995 1125.63 2
-2 -3 -5 25028 1009.8 12
2 3 5 25239.8 1210.82 3
-2 -3 -5 27088.2 877.453 1
2 3 5 25797.8 1221.43 8
-2 -3 -5 25188.6 1212.31 4
2 3 5 25257.8 736.964 6
-2 -3 -6 956.77 283.4 2
2 3 6 876.418 155.767 6
-2 -3 -6 1184.22 225.154 1
2 3 6 806.966 380.454 8
2 3 6 1248.66 375.66 3
-2 -3 -6 525.496 219.027 12
-2 -3 -6 379.939 318.635 4
-2 -3 -7 1563.33 257.07 12
-2 -3 -7 1792.66 272.326 1
-2 -3 -7 1705.9 361.075 2
2 3 7 1587.42 419.156 8
2 3 7 1044.71 392.908 3
-2 -3 -7 910.503 365.202 4
-2 -3 -8 836.792 257.191 1
-2 -3 -8 1048.25 293.315 2
2 3 8 1716.61 453.131 8
2 3 8 1223.2 403.365 3
-2 -3 -8 1342.62 424.617 4
-2 -3 -9 5314.2 546.277 2
2 3 9 4566.6 644.143 8
2 3 9 4251.58 651.21 3
-2 -3 -9 4631.58 648.221 4
2 3 10 955.132 420.677 3
2 3 10 1345.84 501.58 8
-2 -3 -10 1353.18 473.18 4
2 3 11 14430.2 1174.75 3
2 3 11 13680.6 1123.85 8
-2 -3 -11 12421.6 1113.7 4
2 3 12 1064.9 480.838 8
2 3 12 667.45 454.935 3
-2 -3 -12 350.17 443.833 4
-2 -4 15 4019.81 595.631 14
2 4 -15 3570.46 663.369 11
-2 -4 15 4358.54 719.009 6
2 4 -14 533.367 426.943 11
-2 -4 14 84.7653 362.404 6
-2 -4 14 -227.034 352.303 14
-2 -4 13 5211.26 597.12 14
2 4 -13 4296.03 647.746 11
-2 -4 13 4289.1 643.642 6
-2 -4 12 17120.4 1025.21 14
-2 -4 12 15314.6 1084.36 6
2 4 -12 16409.1 1143.59 5
2 4 -12 15942.5 1115.24 11
-2 -4 11 26777.6 1079.07 12
-2 -4 11 23248.6 1297.07 6
2 4 -11 26391 1371.74 5
2 4 -11 25699 1379.77 11
-2 -4 10 36620.5 1604.61 6
-2 -4 10 38445.6 1360.6 12
2 4 -10 36885.6 1650.96 11
2 4 -10 37586.8 1624.62 5
2 4 -9 84163 2079.1 13
2 4 -9 79925.9 2626.18 11
-2 -4 9 83461.5 2344.01 12
2 4 -9 80667.2 2600.07 5
-2 -4 9 81175.2 2562.75 6
-2 -4 8 6723.43 522.279 12
-2 -4 8 7086.94 616.888 6
2 4 -8 6289.24 637.806 9
2 4 -8 5503.48 554.733 5
2 4 -8 6489.02 642.148 11
2 4 -8 7133.47 422.208 13
-2 -4 7 17387.9 906.88 6
2 4 -7 17912.8 730.125 13
-2 -4 7 17542.6 869.553 12
2 4 -7 17443.2 970.04 11
2 4 -7 18158.5 972.667 5
2 4 -7 17864.4 982.324 9
-2 -4 7 17837.7 828.647 2
-2 -4 6 11902.3 689.756 6
2 4 -6 12051.3 589.74 13
-2 -4 6 12759.8 691.734 2
2 4 -6 12218.8 762.917 5
2 4 -6 11707.3 763.162 9
-2 -4 6 12411.7 725.968 12
2 4 -5 895.451 204.559 13
-2 -4 5 1178.76 291.239 12
-2 -4 5 787.287 284.924 4
-2 -4 5 1105.59 254.529 6
-2 -4 5 775.025 226.77 2
2 4 -5 514.526 278.934 5
2 4 -5 622.199 277.068 9
-2 -4 4 136.079 251.54 4
-2 -4 4 128.807 231.818 12
-2 -4 4 93.3809 193.099 6
2 4 -4 -36.02 185.246 13
2 4 -4 -183.285 315.357 9
-2 -4 4 43.7703 215.894 2
2 4 -4 50.3995 62.1091 3
2 4 -4 -95.8851 210.35 8
2 4 -3 8076.15 313.925 7
-2 -4 3 10122.9 644.619 2
2 4 -3 9142.27 570.868 13
2 4 -3 10405.2 481.384 1
2 4 -3 9629.67 399.371 3
-2 -4 3 10036 407.336 3
2 4 -3 9273.52 653.9 9
-2 -4 3 8570.91 625.101 12
2 4 -3 8806.66 602.856 8
-2 -4 3 9737.27 482.314 6
2 4 -3 8667.48 448.938 6
-2 -4 3 8565.51 640.766 4
-2 -4 2 9057.83 626.496 2
2 4 -2 8502.63 570.546 13
2 4 -2 9687.92 414.389 1
2 4 -2 9042.33 408.387 6
-2 -4 2 8028.96 611.214 12
-2 -4 2 9559 453.985 3
2 4 -2 8909.88 444.7 3
2 4 -2 8111.49 598.767 9
-2 -4 2 9369.77 426.068 6
2 4 -2 7741.57 580.593 8
-2 -4 2 8740.26 643.094 4
2 4 -1 34501.4 901.413 1
-2 -4 1 34737.8 1330.49 2
2 4 -1 35962.1 1315.63 13
2 4 -1 35100.7 903.611 6
-2 -4 1 34470.5 1305.36 12
-2 -4 1 35354.2 917.843 6
2 4 -1 36410.1 1140.23 3
2 4 -1 35700.3 1286.39 9
2 4 -1 33385.3 1266.64 8
-2 -4 1 34077.7 1324.3 4
-2 -4 0 26611.2 728.805 7
-2 -4 0 29539 1201.84 2
2 4 0 30283 1214.17 13
2 4 0 30852.9 1074.3 3
2 4 0 29639.8 1125.7 9
-2 -4 0 28940.9 1162.7 12
2 4 0 28635.7 1151.44 8
-2 -4 0 28259.8 1186.74 4
-2 -4 -1 3437.91 228.535 7
-2 -4 -1 3476.51 447.552 4
-2 -4 -1 3195.44 408.555 12
-2 -4 -1 3896.9 461.424 2
2 4 1 3149.63 379.113 3
2 4 1 2460.15 373.303 8
-2 -4 -2 9010.23 439.432 7
-2 -4 -2 9006.41 654.407 2
-2 -4 -2 8747.37 607.635 12
2 4 2 9301.01 636.897 3
2 4 2 8426.83 641.303 8
-2 -4 -2 8036.67 650.322 4
-2 -4 -3 7401.07 599.908 2
-2 -4 -3 7559.98 554.917 12
2 4 3 7143.66 593.937 3
2 4 3 7323.86 620.602 8
-2 -4 -3 7787.53 647.122 4
-2 -4 -4 1436.12 378.561 4
-2 -4 -4 1450.35 302.373 12
-2 -4 -4 1512.92 316.319 2
2 4 4 1730.17 389.637 3
-2 -4 -4 1507.81 141.414 1
2 4 4 1837.49 394.526 8
-2 -4 -5 235.602 309.311 4
-2 -4 -5 13.1758 189.674 12
-2 -4 -5 -22.6903 236.572 2
-2 -4 -5 63.2506 110.136 1
2 4 5 -349.657 330.194 3
2 4 5 159.543 276.852 8
-2 -4 -6 8005.47 651.336 2
-2 -4 -6 7631.5 558.945 12
2 4 6 7722.88 762.625 3
-2 -4 -6 8557.89 448.296 1
2 4 6 8144.56 767.046 8
-2 -4 -6 7583.19 760.684 4
-2 -4 -7 11471.5 787.856 2
2 4 7 11335 928.42 8
-2 -4 -7 10413.6 654.492 12
2 4 7 9724.47 866.069 3
-2 -4 -7 10455.8 878.805 4
-2 -4 -8 2181.68 532.455 4
-2 -4 -8 2256.21 408.284 2
2 4 8 2815.78 557.926 8
2 4 8 1336.6 462.364 3
-2 -4 -9 237.244 282.555 2
2 4 9 -163.439 356.03 8
2 4 9 -63.9223 361.137 3
-2 -4 -9 -91.3664 396.103 4
2 4 10 -43.4919 354.916 8
2 4 10 330.239 427.179 3
-2 -4 -10 217.438 421.108 4
2 4 11 356.543 417.935 8
2 4 11 620.107 432.904 3
-2 -4 -11 59.4956 416.65 4
2 5 -15 1804.71 518.298 11
-2 -5 15 1060.73 520.673 6
2 5 -14 1135.04 487.564 11
-2 -5 14 1336.88 476.426 6
2 5 -13 901.6 479.223 11
-2 -5 13 550.328 390.197 6
2 5 -13 1513.85 526.693 5
-2 -5 12 971.418 254.749 12
2 5 -12 408.439 351.968 11
-2 -5 12 356.634 353.529 6
2 5 -12 776.637 425.217 5
-2 -5 11 151.871 233.572 12
2 5 -11 837.359 399.562 11
-2 -5 11 500.657 364.669 6
2 5 -11 -60.1876 316.654 5
2 5 -10 2682.59 316.728 13
-2 -5 10 2606.97 484.624 6
2 5 -10 2686.85 511.713 5
-2 -5 10 2378.44 368.935 12
2 5 -10 2347.81 450.151 11
2 5 -9 -36.6377 318.757 11
-2 -5 9 -288.189 250.601 12
2 5 -9 134.252 176.954 13
-2 -5 9 71.2915 273.895 6
2 5 -9 220 308.748 5
2 5 -9 801.924 347.606 9
-2 -5 8 43712.4 1666.8 6
2 5 -8 45345.5 1445.83 13
-2 -5 8 45213.7 1627.14 12
2 5 -8 44907.9 1771.43 11
2 5 -8 46154 1786.7 5
2 5 -8 44840.4 1758.42 9
-2 -5 7 2063.69 364.563 12
2 5 -7 1753.14 291.313 13
2 5 -7 1446.31 334.475 11
-2 -5 7 1551.67 340.726 6
-2 -5 7 834.244 270.822 2
2 5 -7 1437.74 353.899 5
2 5 -7 1313.34 350.555 9
-2 -5 6 370.024 250.759 12
-2 -5 6 546.663 303.422 4
-2 -5 6 525.405 223.972 6
2 5 -6 294.065 191.017 13
-2 -5 6 811.767 257.006 2
2 5 -6 229.355 248.106 5
2 5 -6 635.652 280.073 9
2 5 -5 2646.44 345.99 13
-2 -5 5 2527.76 324.61 6
-2 -5 5 1959.62 361.01 2
-2 -5 5 1585.66 365.086 4
2 5 -5 2586.3 401.097 9
2 5 -5 1919.61 139.951 3
2 5 -5 2327.74 363.447 8
2 5 -5 2593.96 189.87 7
-2 -5 5 2160.39 359.434 12
2 5 -4 8019.03 272.181 7
-2 -5 4 9833.43 669.969 2
2 5 -4 8542.9 601.594 13
-2 -5 4 8997.1 525.829 6
2 5 -4 9545.61 397.356 3
2 5 -4 9422.66 698.06 9
2 5 -4 8786.26 621.918 8
-2 -5 4 8777.79 664.806 12
-2 -5 4 9510.29 690.3 4
-2 -5 3 2421.97 414.293 4
2 5 -3 1812.64 327.298 13
-2 -5 3 2213.24 379.248 12
2 5 -3 2566.51 260.69 6
-2 -5 3 2091.55 223.854 3
-2 -5 3 1973.03 363.436 2
-2 -5 3 1853.61 241.881 6
2 5 -3 2901.94 273.028 3
2 5 -3 2018 215.715 1
2 5 -3 1821.92 377.985 9
2 5 -3 1676.44 343.566 8
-2 -5 2 2218.54 379.787 4
2 5 -2 2026.58 311.99 13
2 5 -2 2994.45 249.661 6
-2 -5 2 2563.64 410.992 12
-2 -5 2 1845.07 354.836 2
-2 -5 2 1946.19 209.97 6
2 5 -2 2475.06 192.378 1
2 5 -2 2322.27 389.661 9
2 5 -2 2486.64 286.364 3
2 5 -2 2188.99 361.129 8
-2 -5 1 37253.1 1458.69 12
-2 -5 1 39153.1 1486.71 2
2 5 -1 39517.3 1005.11 6
2 5 -1 37518.7 1282.74 3
2 5 -1 40144.7 1492.56 13
2 5 -1 38465.3 1444.85 9
2 5 -1 36165 1402.15 8
-2 -5 1 38528.9 1498.37 4
2 5 0 89.1245 287.46 13
-2 -5 0 -248.28 306.66 2
2 5 0 -139.581 198.712 3
-2 -5 0 -26.0967 231.895 12
2 5 0 -298.325 262.082 8
-2 -5 0 62.6743 307.277 4
-2 -5 -1 -70.2538 294.373 4
-2 -5 -1 -154.978 284.973 2
2 5 1 -92.8599 234.496 3
-2 -5 -1 -84.8289 223.804 12
2 5 1 305.055 269.979 8
-2 -5 -1 79.1133 70.0138 7
-2 -5 -2 15845 591.773 7
-2 -5 -2 14603.5 873.226 2
-2 -5 -2 13662.6 827.068 12
2 5 2 14783.9 864.393 3
2 5 2 14056.3 886.968 8
-2 -5 -2 14314.4 919.56 4
-2 -5 -3 -373.873 330.484 4
-2 -5 -3 -137.606 226.821 12
2 5 3 419.62 271.611 3
2 5 3 108.885 271.94 8
-2 -5 -3 -210.395 299.667 2
-2 -5 -4 346.769 334.137 4
-2 -5 -4 458.497 264.847 12
-2 -5 -4 446.744 297.292 2
2 5 4 328.729 296.685 3
2 5 4 139.542 277.84 8
-2 -5 -5 -168.705 324.421 4
-2 -5 -5 -10.8078 273.866 2
-2 -5 -5 -105.599 221.799 12
2 5 5 255.721 339.07 3
2 5 5 301.478 304.855 8
-2 -5 -6 272.551 253.957 2
-2 -5 -6 905.421 293.615 12
2 5 6 550.794 329.37 3
2 5 6 859.41 408.412 8
-2 -5 -7 391.479 370.821 4
-2 -5 -7 370.176 289.744 2
2 5 7 513.943 412.433 3
2 5 7 -148.892 384.09 8
-2 -5 -8 -282.468 394.852 4
-2 -5 -8 -151.53 281.211 2
2 5 8 402.748 378.389 8
2 5 8 -120.086 397.503 3
-2 -5 -9 -241.69 362.511 4
2 5 9 111.065 346.642 8
2 5 9 457.643 357.234 3
-2 -5 -10 2358.81 630.678 4
2 5 10 2852.08 637.926 8
2 5 10 3644.31 724.406 3
2 6 -15 1046.29 509.562 11
-2 -6 15 820.448 476.97 6
2 6 -14 3506.12 681.515 11
-2 -6 14 4059.56 681.428 6
2 6 -14 3134.92 661.847 5
2 6 -13 1310.44 479.051 11
-2 -6 13 1462.25 466.73 6
2 6 -13 1671.44 568.792 5
2 6 -12 3825.49 626.684 11
-2 -6 12 3600.71 610.735 6
2 6 -12 3496.83 629.796 5
-2 -6 12 3691.46 482.958 12
2 6 -11 9312.41 874.851 5
2 6 -11 9623.96 886.312 11
-2 -6 11 8661.68 809.895 6
2 6 -11 9616.34 868.309 9
-2 -6 11 9665.59 738.194 12
-2 -6 10 3124.04 451.497 12
2 6 -10 3392.66 384.185 13
2 6 -10 3388.36 521.77 11
-2 -6 10 2561.77 485.415 6
2 6 -10 2420.09 500.714 5
2 6 -10 3082.2 523.216 9
2 6 -9 17603.3 868.179 13
-2 -6 9 17715.4 1005.04 12
2 6 -9 14861 1029.05 11
-2 -6 9 17600.3 1034.74 6
2 6 -9 17351.6 1112.38 5
2 6 -9 16898 1068.15 9
2 6 -8 -150.239 225.206 13
-2 -6 8 290.667 261.001 12
-2 -6 8 -140.841 273.874 6
2 6 -8 -114.048 336.648 5
2 6 -8 113.656 314.144 9
2 6 -8 127.849 274.959 11
2 6 -7 4235.98 449.041 13
-2 -6 7 3597.15 477.917 12
2 6 -7 3628.99 496.8 11
-2 -6 7 4144.08 476.064 6
2 6 -7 3937.31 543.088 5
-2 -6 7 4084.99 491.677 2
2 6 -7 3891.63 536.062 9
2 6 -6 145.489 242.565 13
-2 -6 6 -107.331 241.015 12
-2 -6 6 176.294 205.766 6
-2 -6 6 419.933 279.764 2
2 6 -6 -114.271 325.722 5
2 6 -6 -166.214 351.336 9
2 6 -6 6.43633 66.5574 3
-2 -6 6 322.048 310.456 4
2 6 -6 334.979 242.123 8
-2 -6 5 11319.8 772.324 2
2 6 -5 11642.8 731.09 13
-2 -6 5 10326.8 740.536 12
-2 -6 5 11155.4 639.262 6
2 6 -5 11668.1 457.422 3
2 6 -5 11351.8 813.773 9
2 6 -5 12182.3 734.265 8
-2 -6 5 10707.3 781.952 4
-2 -6 4 1336.66 362.268 12
-2 -6 4 1738.11 280.896 6
-2 -6 4 1924.04 404.246 2
-2 -6 4 1633.92 376.454 4
2 6 -4 1561.43 361.938 9
2 6 -4 2095.64 234.519 3
2 6 -4 1585.23 343.245 13
2 6 -4 1688.86 344.109 8
-2 -6 3 3222.38 477.396 4
2 6 -3 3680.82 435.531 13
-2 -6 3 3385.29 476.996 12
-2 -6 3 3301.38 311.408 6
2 6 -3 3768.79 347.313 3
-2 -6 3 3768.97 502.299 2
2 6 -3 3762.71 512.659 9
2 6 -3 3599.54 461.947 8
-2 -6 2 8442.62 696.966 2
2 6 -2 8168.07 668.983 13
-2 -6 2 7635.9 667.716 12
2 6 -2 9462.71 564.374 3
2 6 -2 8913.23 700.743 9
2 6 -2 7603.86 294.069 1
2 6 -2 8747.81 642.734 8
-2 -6 2 9724.55 736.649 4
2 6 -1 8822.09 718.32 13
-2 -6 1 8126.49 668.095 12
2 6 -1 8164.36 582.845 3
2 6 -1 8347.69 687.459 9
2 6 -1 7785.04 621.508 8
-2 -6 1 8276.69 713.089 4
-2 -6 1 7270.39 661.346 2
-2 -6 0 17130.1 1004.25 2
-2 -6 0 14780.4 917.87 12
2 6 0 19511.4 1093.94 13
2 6 0 17046 892.133 3
2 6 0 17860.9 964.115 8
-2 -6 0 15391.1 981.752 4
-2 -6 -1 37828.7 1593.9 2
-2 -6 -1 38528.4 1563.64 12
2 6 1 37478.5 1535.79 8
2 6 1 37744.6 1490.51 3
2 6 1 37517.5 1638.48 13
-2 -6 -1 38776.5 1629.69 4
-2 -6 -2 1249.45 353.687 12
-2 -6 -2 774.64 340.079 4
2 6 2 783.767 340.616 3
-2 -6 -2 143.187 270.887 2
2 6 2 507.905 287.294 8
-2 -6 -3 -140.581 322.098 4
-2 -6 -3 635.672 306.924 12
-2 -6 -3 234.436 285.285 2
2 6 3 223.649 326.242 3
2 6 3 399.445 351.789 8
-2 -6 -4 11568.1 855.856 2
-2 -6 -4 10559.6 780.764 12
2 6 4 11613.7 901.027 3
2 6 4 10896.7 881.225 8
-2 -6 -4 11263.3 923.03 4
-2 -6 -5 920.857 427.502 4
-2 -6 -5 910.399 329.275 12
-2 -6 -5 1037.5 356.609 2
2 6 5 1209.55 448.393 3
2 6 5 1341.39 415.711 8
-2 -6 -6 4181.4 625.52 4
-2 -6 -6 5253.77 604.076 2
2 6 6 6485.63 773.475 3
2 6 6 5172.25 673.689 8
-2 -6 -7 1384.86 450.496 4
-2 -6 -7 1271.61 382.74 2
2 6 7 1236.72 441.06 3
2 6 7 1057.43 414.417 8
-2 -6 -8 5325.48 772.437 4
-2 -6 -8 5391.56 635.832 2
2 6 8 6080.69 805.922 8
2 6 8 6592.72 837.821 3
-2 -6 -9 2635.16 648.897 4
2 6 9 1624.81 535.553 8
2 6 9 1593.88 545.441 3
2 7 -15 590.036 358.687 11
-2 -7 15 285.758 396.146 6
-2 -7 14 573.633 441.208 6
2 7 -14 294.666 406.373 11
2 7 -14 80.215 435.925 5
2 7 -13 3129.43 603.845 11
-2 -7 13 1736.64 471.386 6
2 7 -13 2172.07 564.288 5
-2 -7 12 12766.3 900.215 12
2 7 -12 10990.7 978.242 11
-2 -7 12 11607.9 985.271 6
2 7 -12 12593.1 1074.67 5
2 7 -12 12048.7 1008.19 9
-2 -7 11 12126.9 881.558 12
2 7 -11 11834.5 984.06 11
2 7 -11 13361.7 1072.2 5
2 7 -11 11923.9 992.694 9
-2 -7 11 11179.9 930.634 6
2 7 -10 1727.85 463.366 11
-2 -7 10 1378.24 348.982 12
-2 -7 10 1105.85 385.531 6
2 7 -10 1766.22 356.414 13
2 7 -10 1497.98 510.844 5
2 7 -10 2118.89 466.485 9
-2 -7 9 5902.79 616.329 12
2 7 -9 6207.13 688.468 11
2 7 -9 5189.96 655.354 5
2 7 -9 6031.99 686.189 9
2 7 -9 5798.67 556.458 13
-2 -7 9 6058.24 643.363 6
-2 -7 8 6899.01 659.663 12
-2 -7 8 6128.79 638.724 6
2 7 -8 6661.23 683.925 11
2 7 -8 6510.33 715.773 5
2 7 -8 6675.69 711.068 9
2 7 -8 6642 603.606 8
2 7 -8 6265.49 588.354 13
2 7 -7 -84.2085 263.792 13
-2 -7 7 -33.9084 292.954 4
-2 -7 7 632.949 350.409 12
-2 -7 7 457.677 298.951 6
2 7 -7 58.6456 318.253 5
2 7 -7 16.8963 327.329 9
2 7 -7 -34.4532 240.496 8
2 7 -6 4156.28 491.511 13
-2 -7 6 3590.49 541.725 4
-2 -7 6 4058.73 530.929 12
-2 -7 6 4411.07 477.582 6
-2 -7 6 3781.56 531.592 2
2 7 -6 3483.08 552.482 9
2 7 -6 3928.6 477.479 8
2 7 -5 3560.75 499.877 13
-2 -7 5 2853.78 463.801 12
2 7 -5 3086.62 283.622 3
-2 -7 5 3374.87 389.853 6
-2 -7 5 3335.2 524.242 4
-2 -7 5 2891.2 470.639 2
2 7 -5 3563.79 547.165 9
2 7 -5 3211.76 415.74 8
-2 -7 4 405.402 327.872 4
-2 -7 4 372.573 203.152 6
-2 -7 4 417.656 318.775 12
2 7 -4 -64.5138 257.285 13
-2 -7 4 277.485 290.912 2
2 7 -4 777.12 378.571 9
2 7 -4 632.447 197.983 3
2 7 -4 488.664 273.281 8
2 7 -3 11689.9 826.481 13
-2 -7 3 12481.3 896.805 12
2 7 -3 13892.9 716.788 3
-2 -7 3 10732.6 835.581 2
2 7 -3 11968.1 875.287 9
2 7 -3 11915.7 788.246 8
-2 -7 3 11180.9 865.281 4
-2 -7 2 622.023 310.495 4
2 7 -2 279.229 306.999 13
-2 -7 2 106.027 276.975 12
-2 -7 2 239.277 321.616 2
2 7 -2 214.795 326.973 9
2 7 -2 284.344 223.775 3
2 7 -2 12.7039 239.473 8
-2 -7 1 17621.9 1088.8 2
2 7 -1 17810.7 1087.54 13
-2 -7 1 16490.3 1044.07 12
2 7 -1 19618.6 975.836 3
2 7 -1 17768.2 1014.54 8
-2 -7 1 18154.9 1100.1 4
-2 -7 0 2472.26 508.316 4
-2 -7 0 2686.65 468.58 12
-2 -7 0 2682.93 500.045 2
2 7 0 2650.8 400.458 3
2 7 0 2842.14 444.826 8
2 7 0 3903.1 616.583 13
-2 -7 -1 5405.47 652.007 4
-2 -7 -1 4904.97 586.863 12
2 7 1 4808.1 544.853 3
-2 -7 -1 4536.25 580.073 2
2 7 1 5043.66 572.079 8
2 7 1 6352.29 727.626 13
-2 -7 -2 1444.9 450.441 4
-2 -7 -2 1335.35 376.908 12
2 7 2 1649.87 399.151 3
-2 -7 -2 1775.79 419.927 2
2 7 2 1903.3 429.876 8
-2 -7 -3 216.541 330.298 4
-2 -7 -3 288.26 298.287 12
-2 -7 -3 -139.504 296.815 2
2 7 3 -69.3259 316.202 3
2 7 3 501.704 376.27 8
-2 -7 -4 -181.23 342.642 4
-2 -7 -4 -21.6886 260.015 12
-2 -7 -4 597.585 363.756 2
2 7 4 109.366 327.532 3
2 7 4 480.369 309.052 8
-2 -7 -5 465.867 404.026 4
-2 -7 -5 788.195 316.4 12
-2 -7 -5 1690.46 433.579 2
2 7 5 109.565 362.75 3
2 7 5 1572.7 444.396 8
-2 -7 -6 -714.763 423.834 4
-2 -7 -6 279.774 325.714 2
2 7 6 70.1844 395.8 3
2 7 6 863.361 425.053 8
-2 -7 -7 416.911 480.509 4
-2 -7 -7 1094.55 390.542 2
2 7 7 833.512 471.569 3
2 7 7 465.176 405.735 8
2 7 8 6505.14 852.653 8
2 8 -14 250.169 433.862 11
-2 -8 14 -575.108 442.183 6
2 8 -14 -240.689 397.905 5
-2 -8 13 2530.8 503.341 12
2 8 -13 2326.77 556.872 11
-2 -8 13 2046.08 574.524 6
2 8 -13 2531.25 606.024 5
2 8 -13 3344.46 620.823 9
-2 -8 12 14494.3 1127.66 6
-2 -8 12 14953.8 1059.96 12
2 8 -12 13872.4 1119.84 11
2 8 -12 16787.9 1280.49 5
-2 -8 11 -121.099 321.224 12
2 8 -11 163.211 363.191 11
-2 -8 11 -80.2755 329.176 6
2 8 -11 293.257 358.97 5
2 8 -11 361.609 345.017 9
2 8 -10 1733.92 408.681 13
-2 -8 10 2009.02 451.472 12
2 8 -10 2461.27 512.471 11
-2 -8 10 2041.78 479.51 6
2 8 -10 1564.68 482.417 5
2 8 -10 1610.96 454.061 9
2 8 -10 1866.42 403.838 8
-2 -8 9 2368.8 495.07 12
2 8 -9 2957.78 544.979 11
2 8 -9 2382.91 440.952 13
2 8 -9 2410.15 536.153 5
2 8 -9 2304.04 515.384 9
-2 -8 9 2880.12 482.439 6
2 8 -9 2541.53 425.658 8
2 8 -8 2341 467.415 11
-2 -8 8 2155.06 431.314 6
2 8 -8 2297.26 449.666 13
2 8 -8 1646.96 458.158 5
2 8 -8 2243.13 505.75 9
-2 -8 8 1761.26 439.936 12
2 8 -8 3101.35 458.788 8
2 8 -7 4914.28 575.303 13
-2 -8 7 4481.77 616.388 4
-2 -8 7 4467.7 612.857 12
-2 -8 7 5799.02 595.354 6
2 8 -7 5173.73 669.35 5
2 8 -7 4332.43 627.218 9
2 8 -7 5149.37 574.644 8
2 8 -6 2000.53 423.004 13
-2 -8 6 1910.86 454.345 12
-2 -8 6 2353.9 388.429 6
-2 -8 6 1664.3 421.405 2
-2 -8 6 1957.21 475.946 4
2 8 -6 1123.26 392.305 9
2 8 -6 2339.18 388.951 8
-2 -8 5 7721.71 748.994 2
2 8 -5 7492.2 715.321 13
-2 -8 5 6775.04 715.128 12
-2 -8 5 7737.12 591.069 6
2 8 -5 8394.59 826.131 9
2 8 -5 7924.47 645.704 8
-2 -8 5 7409.45 750.011 4
2 8 -4 218.737 265.307 13
-2 -8 4 1176.22 392.453 4
-2 -8 4 826.232 358.147 2
2 8 -4 923.558 360.416 9
2 8 -4 917.091 242.771 3
-2 -8 4 1185.33 385.401 12
2 8 -4 947.3 318.738 8
-2 -8 3 871.43 399.137 4
2 8 -3 744.519 338.939 13
-2 -8 3 1312.46 407.531 12
-2 -8 3 1375.41 426.772 2
2 8 -3 1218.62 436.455 9
2 8 -3 822.799 281.312 3
2 8 -3 821.997 315.302 8
-2 -8 2 3370.66 567.297 4
-2 -8 2 2900.86 479.484 12
2 8 -2 4030.66 582.617 13
-2 -8 2 3314.88 513.219 2
2 8 -2 3590.9 568.371 9
2 8 -2 3727.62 451.601 3
2 8 -2 3163.13 443.645 8
2 8 -1 13262.7 1016.31 13
-2 -8 1 13802.1 1003.83 12
2 8 -1 14760.8 915.087 3
-2 -8 1 14087.4 1004.17 2
2 8 -1 13819.2 915.667 8
-2 -8 1 14599.5 1043.59 4
-2 -8 0 3489.31 576.3 4
2 8 0 4909.95 697.079 13
-2 -8 0 3681.74 558.718 12
-2 -8 0 4592.16 631.839 2
2 8 0 4608.41 561.965 3
2 8 0 4558.02 557.202 8
-2 -8 -1 5938.44 734.537 4
-2 -8 -1 5507.85 656.944 12
-2 -8 -1 5821.23 701.57 2
2 8 1 6039.83 777.955 13
2 8 1 5270.62 620.082 3
2 8 1 5841.51 652.532 8
-2 -8 -2 -192.889 347.739 4
-2 -8 -2 -370.838 348.185 12
-2 -8 -2 -152.701 353.674 2
2 8 2 398.999 367.23 3
2 8 2 781.993 357.759 8
-2 -8 -3 1659.58 493.924 4
-2 -8 -3 1222.9 418.294 12
-2 -8 -3 1023.72 368.522 2
2 8 3 1850.36 472.798 3
2 8 3 1468.42 442.922 8
-2 -8 -4 1861.7 574.161 4
-2 -8 -4 1169.17 415.336 12
-2 -8 -4 1118.53 426.684 2
2 8 4 1382.68 460.538 3
2 8 4 778.417 371.209 8
-2 -8 -5 2194.04 556.829 4
-2 -8 -5 1363.94 432.033 2
2 8 5 2601.48 574.362 3
2 8 5 1294.83 425.26 8
-2 -8 -6 1798.97 548.249 4
-2 -8 -6 1874.83 481.537 2
2 8 6 2468.96 608.406 3
2 8 6 1028.29 478.82 8
-2 -9 14 1079.97 447.655 6
-2 -9 13 538.766 325.328 12
2 9 -13 1015.87 507.181 11
-2 -9 13 377.842 394.759 6
2 9 -13 993.166 491.662 9
-2 -9 12 5245.33 713.776 6
2 9 -12 5264.95 724.948 11
2 9 -12 4943.26 775.434 5
2 9 -12 4926.19 733.719 9
-2 -9 12 3950.58 603.876 12
-2 -9 11 524.207 318.95 12
2 9 -11 554.071 394.009 11
-2 -9 11 121.627 369.137 6
2 9 -11 749.747 459.573 5
2 9 -11 1307.22 424.77 9
2 9 -10 813.443 364.284 13
2 9 -10 409.962 339.42 11
-2 -9 10 -90.8852 345.44 12
-2 -9 10 582.87 416.418 6
2 9 -10 622.325 407.062 5
2 9 -10 951.882 383.866 9
2 9 -9 479.347 351.808 13
-2 -9 9 -64.1273 369.899 12
2 9 -9 -133.756 333.421 11
-2 -9 9 379.876 335.999 6
2 9 -9 26.5777 364.004 5
2 9 -9 -353.498 399.103 9
-2 -9 8 3506.1 587.782 12
2 9 -8 3966.69 580.2 13
2 9 -8 4267.58 591.354 11
-2 -9 8 3309.14 522.088 6
2 9 -8 3912.69 659.414 5
2 9 -8 3512.23 613.23 9
2 9 -7 -67.8144 287.128 13
-2 -9 7 438.529 391.222 12
-2 -9 7 -184.872 260 6
2 9 -7 148.194 355.922 5
-2 -9 7 -330.741 334.92 4
2 9 -7 552.978 392.113 9
2 9 -6 3388.89 571.117 13
-2 -9 6 2572.3 535.187 4
-2 -9 6 3004.56 558.181 12
2 9 -6 2551.31 532.177 9
-2 -9 5 -187.556 338.549 4
2 9 -5 -329.608 315.587 13
-2 -9 5 510.954 398.642 12
2 9 -5 -242.67 347.013 9
2 9 -5 279.021 252.252 8
2 9 -4 7368.47 761.51 13
-2 -9 4 7300.39 780.877 4
-2 -9 4 8096.57 834.27 12
2 9 -4 8074.99 834.566 9
-2 -9 4 6225.21 749.38 2
2 9 -4 7669.52 675.635 8
-2 -9 3 691.849 384.22 4
2 9 -3 1908.87 483.442 13
-2 -9 3 1500.86 486.638 12
-2 -9 3 2077.52 487.89 2
2 9 -3 1976.08 509.718 9
2 9 -3 1376.21 377.106 8
-2 -9 2 1002.85 416.416 4
-2 -9 2 1636.58 452.166 12
-2 -9 2 1720.62 462.152 2
2 9 -2 2319.24 501.572 9
2 9 -2 2142.17 442.516 3
2 9 -2 1035.55 472.745 13
2 9 -2 2694.8 454.032 8
-2 -9 1 290.705 360.497 4
2 9 -1 166.151 343.1 13
-2 -9 1 464.374 383.158 12
-2 -9 1 22.8369 346.296 2
2 9 -1 161.461 329.302 9
2 9 -1 -25.4338 265.362 3
2 9 -1 273.497 326.276 8
-2 -9 0 167.186 398.575 4
-2 -9 0 778.8 396.657 12
2 9 0 953.557 500.754 13
-2 -9 0 368.139 336.337 2
2 9 0 622.194 362.483 3
2 9 0 870.198 379.446 8
-2 -9 -1 486.621 375.592 4
2 9 1 1859.86 554.285 13
-2 -9 -1 1189.66 443.743 12
-2 -9 -1 723.468 418.579 2
2 9 1 1853.02 466.884 3
2 9 1 1189.11 403.899 8
-2 -9 -2 168.094 385.178 4
-2 -9 -2 266.842 410.782 2
-2 -9 -2 -79.1816 334.9 12
2 9 2 616.212 417.32 3
2 9 2 750.637 381.565 8
-2 -9 -3 4551.83 759.91 4
-2 -9 -3 4928.42 675.023 12
-2 -9 -3 5477.38 759.285 2
2 9 3 5113.59 727.25 3
2 9 3 4021.83 634.664 8
-2 -9 -4 125.486 397.896 12
-2 -9 -4 -62.5846 344.379 2
2 9 4 441.778 381.334 3
2 9 4 -101.022 349.461 8
-2 -9 -4 133.613 389.542 4
-2 -9 -5 5944.15 766.364 2
2 9 5 6635.46 830.761 8
2 10 -13 1743.82 550.107 11
-2 -10 13 1485.49 516.501 6
-2 -10 12 179.377 351.793 12
2 10 -12 768.746 394.742 11
-2 -10 11 -109.538 368.762 12
2 10 -11 215.687 445.488 11
-2 -10 11 211.42 343.256 6
2 10 -11 624.247 482.389 5
2 10 -11 188.763 347.999 9
2 10 -10 581.388 367.125 13
-2 -10 10 630.042 403.397 12
2 10 -10 342.339 399.001 11
-2 -10 10 502.282 338.342 6
2 10 -10 796.491 475.868 5
2 10 -10 991.41 417.879 9
2 10 -9 4488.62 629.773 13
-2 -10 9 6178.47 794.719 12
-2 -10 9 5690.92 677.861 6
2 10 -9 3840.11 694.837 5
2 10 -9 3950.53 678.934 9
2 10 -9 6355.59 770.437 11
2 10 -8 2411.04 509.359 13
-2 -10 8 986.076 440.157 12
2 10 -8 1424.2 409.472 11
2 10 -8 972.201 411.217 5
2 10 -8 784.581 479.729 9
2 10 -7 531.06 345.809 13
-2 -10 7 -386.066 450.599 4
-2 -10 7 532.702 349.415 12
2 10 -7 1.36216 289.798 11
2 10 -7 809.147 488.221 5
2 10 -7 1415.34 492.015 9
2 10 -6 1893.94 477.409 13
-2 -10 6 1187.93 479.025 12
2 10 -6 1131.83 486.078 9
-2 -10 6 1116.44 450.183 4
-2 -10 5 552.2 434.426 4
2 10 -5 336.553 343.807 13
-2 -10 5 405.046 370.978 12
2 10 -5 284.478 393.3 9
2 10 -4 1383.63 422.607 13
-2 -10 4 1851.63 524.364 4
-2 -10 4 1309.31 468.326 12
2 10 -4 1191.84 478.406 9
-2 -10 3 1184.72 479.066 4
2 10 -3 1362.34 488.123 13
-2 -10 3 818.207 436.835 12
2 10 -3 944.874 449.01 9
2 10 -2 2754.86 609.33 13
-2 -10 2 1655.94 515.489 4
-2 -10 2 2108.8 533.085 12
2 10 -2 2257.01 579.094 9
-2 -10 1 204.967 387.314 4
2 10 -1 933.102 515.624 13
-2 -10 1 714.71 446.14 12
-2 -10 1 1033.87 481.901 2
2 10 -1 267.987 375.04 9
-2 -10 0 -97.0426 391.804 4
-2 -10 0 656.924 432.763 12
2 10 0 1566.86 560.326 13
-2 -10 0 230.856 375.79 2
2 10 0 270.567 334.92 3
-2 -10 -1 -3.44748 409.191 4
-2 -10 -1 299.984 397.247 12
-2 -10 -1 802.804 448.662 2
2 10 1 245.098 403.585 3
-2 -10 -2 -324.834 463.828 4
-2 -10 -2 -861.226 351.077 12
-2 -10 -2 571.538 433.364 2
2 10 2 336.952 358.961 3
-2 -10 -3 5911.27 816.944 2
2 10 3 5170.8 765.764 3
2 11 -10 -243.104 393.884 13
2 11 -9 8578.13 903.951 13
2 11 -8 600.56 405.312 13
-2 -11 7 504.697 447.891 4
2 11 -7 196.812 342.081 13
2 11 -6 7680.69 880.535 13
-2 -11 6 7830.88 930.611 12
2 11 -6 8175.95 954.603 9
-2 -11 6 9518.39 977.994 4
2 11 -5 618.291 380.736 13
-2 -11 5 282.589 412.272 12
2 11 -5 -357.273 407.662 9
-2 -11 5 -121.215 408.178 4
-2 -11 4 -99.9397 417.497 4
2 11 -4 783.099 410.349 13
-2 -11 3 6296.77 834.341 4
-2 -11 2 1203.06 499.833 4
-2 -11 1 901.103 508.154 4
-3 11 2 -148.339 455.349 13
-3 11 1 1817.39 534.943 13
-3 11 0 914.6 463.071 13
-3 11 -1 1000.22 440.019 13
-3 11 -1 1298.82 537.661 3
3 -11 1 1013.59 441.034 10
-3 11 -2 891.369 462.948 13
-3 11 -2 770.094 478.143 3
3 -11 2 1577.09 564.113 10
-3 11 -3 2204.66 590.044 3
-3 11 -3 1078.81 491.958 13
3 -11 3 1275.03 477.505 10
-3 11 -4 705.036 429.672 3
3 -11 4 -587.325 440.784 10
-3 11 -4 424.032 423.763 13
-3 11 -5 1027.84 440.545 3
3 -11 5 2032.44 562.282 10
-3 11 -6 10078.9 1002.74 3
3 -11 6 8612.59 969.937 10
-3 11 -6 8850.06 886.252 1
-3 11 -7 723.046 430.758 1
3 -11 7 42.8845 384.578 10
-3 11 -8 730.688 382.11 1
3 -11 8 1217.14 509.552 10
3 -11 9 1558.57 498.734 10
-3 11 -9 266.582 366.354 1
3 -11 10 15.8976 394.236 10
-3 11 -10 31.0469 403.074 1
-3 10 4 1252.96 486.966 13
3 -10 -4 1667.41 456.596 10
3 -10 -3 299.135 407.895 10
-3 10 3 176.892 434.999 13
-3 10 2 1843.67 521.665 13
-3 10 2 1294.56 539.33 3
3 -10 -2 797.284 420.631 10
3 -10 -1 1064.12 403.839 7
-3 10 1 1126.45 440.545 13
-3 10 1 1516.12 555.502 3
3 -10 -1 2351.73 563.725 10
-3 10 0 -33.047 357.804 13
-3 10 0 324.539 377.456 3
3 -10 0 -308.19 351.157 10
3 -10 0 -14.3434 267.918 7
-3 10 -1 -4.97689 343.853 13
3 -10 1 238.269 289.255 7
-3 10 -1 640.742 441.786 3
3 -10 1 212.018 362.977 10
3 -10 2 5499 643.169 7
-3 10 -2 4506.44 692.966 13
-3 10 -2 4641.07 674.137 3
3 -10 2 3874.13 644.584 10
-3 10 -2 4976.15 613.845 1
3 -10 3 446.31 304.061 7
-3 10 -3 428.814 404.226 3
-3 10 -3 80.896 302.403 1
3 -10 3 534.452 393.117 10
-3 10 -4 439.447 358.976 1
-3 10 -4 467.354 376.99 3
3 -10 4 18.5795 402.956 10
3 -10 4 772.366 352.691 7
-3 10 -5 39.154 334.4 1
3 -10 5 532.132 325.434 7
-3 10 -5 570.394 390.36 3
3 -10 5 -299.216 366.201 10
3 -10 6 745.971 359.209 7
-3 10 -6 983.005 387.554 1
3 -10 6 1340.92 468.014 10
3 -10 7 8852.4 774.837 7
3 -10 7 9058.87 924.709 10
-3 10 -7 9907.95 920.418 1
3 -10 8 3806.4 580.713 7
3 -10 8 4168.73 672.254 10
-3 10 -8 2218.26 492.769 1
3 -10 9 949.389 407.575 7
3 -10 9 406.013 406.556 10
-3 10 -9 507.417 411.676 1
3 -10 10 971.031 395.839 7
3 -10 10 1297.98 446.515 10
-3 10 -10 1334.57 495.742 1
3 -10 10 629.928 396.253 14
3 -10 11 964.221 441.134 7
3 -10 11 1012.45 446.997 10
-3 10 -11 1688.82 554.578 1
3 -10 11 341.863 440.65 14
3 -10 12 1550.15 470.233 10
3 -9 -7 362.239 350.94 7
3 -9 -6 2626.84 543.935 7
3 -9 -5 1515.93 458.976 7
-3 9 5 2090.98 503.865 13
-3 9 5 1882.03 542.059 3
3 -9 -5 1953.43 487.547 10
3 -9 -4 1052.8 398.07 7
-3 9 4 1215.03 417.726 13
-3 9 4 1399.23 519.381 3
3 -9 -4 849.149 385.29 10
3 -9 -3 -400.721 310.392 7
-3 9 3 152.207 342.399 13
-3 9 3 -460.79 404.063 3
3 -9 -3 -218.951 316.496 10
-3 9 2 3351.11 535.477 13
3 -9 -2 2770.08 474.027 7
-3 9 2 2798.59 585.953 3
3 -9 -2 2539.19 546.936 10
-3 9 1 -103.512 295.519 1
3 -9 -1 681.093 338.246 7
-3 9 1 504.695 357.685 13
-3 9 1 -216.677 343.271 3
3 -9 -1 -138.323 330.914 10
-3 9 0 2763.11 533.072 13
3 -9 0 1737.54 396.876 7
-3 9 0 2259.88 455.847 1
-3 9 0 1880.54 503.978 3
3 -9 0 1595.3 454.816 10
3 -9 1 17170.4 1060.58 7
-3 9 -1 16489.1 1021.84 1
-3 9 -1 15667.9 1149.68 3
3 -9 1 14232.9 1095.68 10
-3 9 -1 15197.6 1080.85 13
3 -9 2 -466.47 306.334 7
-3 9 -2 24.5645 366.745 3
-3 9 -2 209.473 352.53 1
3 -9 2 -390.056 365.101 10
3 -9 3 708.747 327.551 7
-3 9 -3 66.1466 343.254 3
-3 9 -3 717.84 368.542 1
3 -9 3 80.7991 338.746 10
-3 9 -4 515.952 338.906 1
3 -9 4 434.416 287.996 7
3 -9 4 306.141 355.004 10
-3 9 -5 539.963 356.878 1
3 -9 5 738.849 368.675 10
3 -9 5 -270.001 295.852 7
3 -9 6 9734.38 804.182 7
3 -9 6 9447.45 865.845 10
-3 9 -6 8308.89 795.94 1
3 -9 7 1567.89 404.367 7
3 -9 7 1949.6 457.274 14
3 -9 7 530.077 366.45 10
-3 9 -7 1877.94 461.455 1
3 -9 8 1269.98 382.142 7
3 -9 8 1070.41 418.755 14
3 -9 8 786.75 396.219 10
-3 9 -8 1210.79 325.832 5
-3 9 -8 1674.41 467.649 1
3 -9 9 24876.9 1370.34 7
3 -9 9 23597.2 1400.72 10
-3 9 -9 25311.8 1326.2 5
3 -9 9 23481 1415.69 14
-3 9 -9 23701.7 1409.43 1
3 -9 10 9939.17 917.816 10
-3 9 -10 8468.35 902.456 1
3 -9 10 10301.4 975.219 14
3 -9 10 9884.58 890.918 7
3 -9 11 838.859 420.23 7
3 -9 11 338.407 422.437 14
3 -9 11 -369.408 349.992 10
-3 9 -11 408.172 438.047 1
3 -9 12 715.758 442.256 14
-3 9 -12 974.337 502.531 1
3 -9 12 983.987 402.522 10
3 -8 -8 4371.36 684.302 7
-3 8 8 4783.51 759.269 6
3 -8 -7 987.763 426.751 7
-3 8 7 242.406 374.738 6
-3 8 7 -308.922 404.24 3
3 -8 -6 -78.7038 330.973 7
-3 8 6 1217.88 505.49 3
3 -8 -5 1667.92 444.908 7
-3 8 5 2154.25 451.512 13
-3 8 5 1762.93 502.832 3
3 -8 -5 1208.27 437.41 10
-3 8 4 36.7764 311.026 13
-3 8 4 207.774 378.763 3
3 -8 -4 154.395 306.899 10
3 -8 -4 76.5257 304.41 7
3 -8 -3 8954.18 822.169 7
-3 8 3 8855.44 795.928 13
-3 8 3 9417.79 752.403 1
-3 8 3 8380.21 852.079 3
3 -8 -3 8652 818.551 10
3 -8 -2 1569.47 408.828 7
-3 8 2 1785.64 443.481 13
-3 8 2 1376.78 427.927 3
-3 8 2 1049.11 360.598 1
3 -8 -2 1560.99 433.559 10
3 -8 -1 7799.49 703.413 7
-3 8 1 7699.14 744.384 13
-3 8 1 7059.29 676.634 1
-3 8 1 6663.17 737.32 3
3 -8 -1 7088.75 749.65 10
3 -8 0 16078.4 988.868 7
-3 8 0 14686.7 958.638 1
-3 8 0 14390.4 1002.57 13
-3 8 0 15743.6 1099.72 3
3 -8 0 14856.9 1058.18 10
3 -8 1 203.432 274.426 7
-3 8 -1 48.1864 305.986 3
3 -8 1 455.468 316.106 10
-3 8 -1 599.341 329.31 1
3 -8 2 334.798 324.849 7
-3 8 -2 -467.657 378.854 3
-3 8 -2 -4.08708 281.376 1
3 -8 2 -171.2 325.057 10
3 -8 3 -59.868 297.315 7
-3 8 -3 32.6231 305.62 1
3 -8 4 282.705 289.543 7
-3 8 -4 679.482 325.76 1
3 -8 4 -160.958 315.807 10
-3 8 -4 313.72 206.616 5
3 -8 5 8583.13 717.693 7
3 -8 5 7139.88 652.262 14
3 -8 5 6771.69 703.435 10
-3 8 -5 7541.13 586.505 5
-3 8 -5 7924.9 727.717 1
3 -8 6 24625.4 1255.42 7
3 -8 6 22841 1234.31 14
3 -8 6 23985 1337.33 10
-3 8 -6 24895.7 1135.92 5
-3 8 -6 25130.2 1320.28 1
3 -8 7 292.976 304.579 14
3 -8 7 1492.21 383.246 7
3 -8 7 1621.94 434.648 10
-3 8 -7 1064.12 306.844 5
-3 8 -7 1282.33 416.912 1
3 -8 8 322.513 339.108 7
3 -8 8 -22.8931 331.556 14
3 -8 8 39.8023 331.425 10
-3 8 -8 -222.708 362.61 1
-3 8 -8 122.139 238.382 5
3 -8 9 26484.9 1400.87 7
3 -8 9 27910.5 1441.46 10
-3 8 -9 24888.2 1427.78 1
3 -8 9 25999.1 1443.23 14
3 -8 10 6138.64 706.55 7
3 -8 10 7100.25 797.097 14
3 -8 10 6712.35 733.391 10
-3 8 -10 6139.59 774.33 1
3 -8 11 -642.124 401.444 7
-3 8 -11 -90.6263 383.476 1
3 -8 11 -220.978 396.317 14
3 -8 11 105.402 295.027 10
-3 8 -12 -86.9235 432.198 1
3 -8 12 -101.23 291.25 10
3 -8 12 53.7012 375.604 14
3 -8 13 2811.62 594.258 14
-3 8 -13 1940.12 555.372 1
-3 7 10 44.6681 404.953 6
-3 7 9 1576.58 523.942 6
3 -7 -9 2316.5 551.982 7
-3 7 9 1734.2 581.72 3
3 -7 -8 4744 686.099 7
-3 7 8 3397.93 666.094 6
-3 7 8 4135.92 697.677 3
3 -7 -7 1767.17 444.487 7
-3 7 7 2274.78 537.585 6
-3 7 7 1851.71 524.836 3
3 -7 -6 844.438 353.576 7
-3 7 6 2012.78 416.466 13
-3 7 6 1908.38 517.417 3
3 -7 -6 1627.25 387.614 10
3 -7 -5 1303.14 384.978 7
-3 7 5 1199.56 356.033 13
-3 7 5 1065.76 438.918 3
3 -7 -5 885.327 391.57 10
3 -7 -4 1864.07 446.513 7
-3 7 4 2021.5 424.505 13
-3 7 4 1542.97 469.127 3
3 -7 -4 1717.81 397.075 10
3 -7 -3 1578.75 397.105 7
-3 7 3 1509.37 349.146 13
-3 7 3 1543.91 373.993 1
-3 7 3 974.888 379.097 3
3 -7 -3 1651.52 390.282 10
-3 7 2 6096.71 628.827 13
-3 7 2 4723.74 552.743 1
3 -7 -2 5027.1 572.443 7
-3 7 2 4933.67 654.452 3
3 -7 -2 5683.67 634.867 10
3 -7 -1 14522.6 954.334 7
-3 7 1 12135 852.766 1
-3 7 1 12442.8 939.611 3
3 -7 -1 12461.7 922.02 10
-3 7 1 13106.6 872.056 13
-3 7 0 2567.85 443.192 1
3 -7 0 2332.96 405.771 7
-3 7 0 2763.2 517.92 3
3 -7 0 2659.08 479.983 10
3 -7 1 9705.92 766.162 7
-3 7 -1 10101.6 764.374 1
3 -7 1 9660.64 807.508 10
-3 7 -1 10765.8 559.199 5
3 -7 2 473.136 282.463 7
-3 7 -2 31.6228 271.172 1
3 -7 2 350.418 318.666 10
-3 7 -2 250.844 168.882 5
-3 7 -3 1359.66 347.234 1
3 -7 3 766.483 332.142 7
3 -7 3 1267.56 381.492 10
-3 7 -3 1066.46 218.165 5
3 -7 4 9438.33 733.575 7
3 -7 4 9320.51 684.482 14
3 -7 4 9098.31 769.38 10
-3 7 -4 10455 608.065 5
-3 7 -4 9131.97 754.447 1
3 -7 5 15266.3 941.136 7
3 -7 5 13436.6 952.259 10
-3 7 -5 15589.7 796.447 5
-3 7 -5 13665.1 927.681 1
3 -7 5 13550.2 871.765 14
3 -7 6 20272.2 1115.33 7
3 -7 6 20620.9 1113.18 14
3 -7 6 20889.6 1199.09 10
-3 7 -6 21908.8 1011.03 5
-3 7 -6 20250.5 1139.62 1
3 -7 7 5223.28 612.318 14
3 -7 7 4873.89 560.536 10
-3 7 -7 5986.59 547.634 5
-3 7 -7 4545.5 599.412 1
3 -7 7 4657.96 577.364 7
3 -7 8 324.078 308.519 7
3 -7 8 476.091 326.656 14
3 -7 8 147.975 292.787 10
-3 7 -8 23.53 311.839 1
3 -7 9 1097.45 393.261 7
3 -7 9 428.265 377.301 14
-3 7 -9 1308.83 310.027 11
3 -7 9 1090.49 355.299 10
-3 7 -9 1155.07 425.226 1
3 -7 10 1530.15 452.053 7
3 -7 10 1445.03 480.429 14
-3 7 -10 1094.03 303.957 11
-3 7 -10 1893.15 477.776 1
3 -7 10 1337.65 332.145 10
3 -7 11 3654.89 585.876 7
-3 7 -11 4202.71 555.289 11
-3 7 -11 4109.14 640.961 1
3 -7 11 4317.43 568.545 10
3 -7 11 4292.27 638.901 14
3 -7 12 4753.85 723.704 14
-3 7 -12 4211.11 692.855 1
-3 7 -12 4081.16 581.4 11
3 -7 12 4522.73 570.498 10
3 -7 13 5111.2 797.61 14
-3 7 -13 7304.16 887.362 1
-3 7 -13 6370.03 716.469 11
3 -7 13 7053.57 855.877 6
-3 7 -14 3550.58 581.328 11
3 -7 14 4302.46 723.755 6
-3 7 -15 941.07 472.02 11
-3 6 11 3823.14 713.463 6
3 -6 -10 115.403 399.931 7
-3 6 10 132.557 419.222 6
-3 6 10 580.184 445.239 3
3 -6 -9 7426.6 852.189 7
-3 6 9 9290.18 930.182 6
-3 6 9 7379.77 854.144 3
3 -6 -8 710.651 391.411 7
-3 6 8 523.386 439.522 6
-3 6 8 1368.39 459.143 3
-3 6 7 5264.81 713.135 6
3 -6 -7 5875.8 712.568 7
-3 6 7 7480.05 792.907 3
3 -6 -6 228.731 317.178 7
-3 6 6 361.22 347.129 3
3 -6 -6 610.096 296.389 10
-3 6 6 666.033 309.527 13
-3 6 5 454.383 273.039 13
3 -6 -5 793.388 372.971 7
-3 6 5 577.696 386.977 3
3 -6 -5 616.467 308.841 10
3 -6 -5 900.352 253.705 4
3 -6 -4 4764.25 572.148 7
-3 6 4 5045.71 616.438 3
-3 6 4 4833.54 510.139 13
3 -6 -4 4149.35 522.603 10
3 -6 -4 5145.42 396.47 4
3 -6 -3 2004.66 232.609 4
-3 6 3 1383.32 331.449 13
3 -6 -3 1970.02 406.717 7
-3 6 3 1857.92 453.528 3
3 -6 -3 1597.6 363.596 10
-3 6 3 1659.17 369.461 1
3 -6 -2 169.136 94.3815 4
-3 6 2 268.421 252.135 13
3 -6 -2 319.82 279.786 7
-3 6 2 400.104 325.306 3
3 -6 -2 824.314 324.298 10
-3 6 2 560.972 292.376 1
3 -6 -1 127.839 59.826 4
3 -6 -1 666.422 314.171 7
-3 6 1 295.8 266.009 1
-3 6 1 469.05 332.244 3
3 -6 -1 398.106 267.886 10
3 -6 0 115.8 239.852 7
3 -6 0 369.688 310.46 10
-3 6 0 215.727 110.826 5
3 -6 0 561.47 155.049 8
-3 6 0 80.5019 239.669 1
3 -6 1 456.843 286.334 7
-3 6 -1 12.7804 253.943 1
-3 6 -1 493.304 158.789 5
3 -6 1 -225.652 325.731 10
3 -6 1 354.485 108.804 8
3 -6 2 629.492 249.883 14
-3 6 -2 1150.43 338.47 1
3 -6 2 636.23 276.109 7
3 -6 2 471.022 308.109 10
-3 6 -2 430.252 135.463 5
3 -6 2 630.32 84.5777 8
3 -6 2 570.735 84.1524 8
3 -6 3 2939.35 389.867 14
-3 6 -3 3708.35 321.894 5
3 -6 3 2703.94 449.77 10
-3 6 -3 3270.06 448.765 1
3 -6 3 2924.83 441.632 7
3 -6 4 3766.52 507.478 10
3 -6 4 3851.57 440.185 14
3 -6 4 3364.17 231.169 11
3 -6 4 3479.5 463.648 7
-3 6 -4 4090.52 366.398 5
-3 6 -4 2966.38 448.48 1
3 -6 5 9180.84 731.784 7
3 -6 5 10783.7 794.7 10
-3 6 -5 10679.6 618.161 5
-3 6 -5 9226.65 758.924 1
3 -6 5 9345.74 693.682 14
3 -6 6 3646.83 509.952 14
3 -6 6 3475.71 506.507 7
-3 6 -6 3648.11 355.717 11
3 -6 6 3946.13 506.564 10
-3 6 -6 3686.77 485.11 1
3 -6 7 1886.12 410.547 7
3 -6 7 2389.38 445.943 14
-3 6 -7 2964.2 360.269 11
3 -6 7 2570.6 442.492 10
-3 6 -7 2890.91 478.886 1
-3 6 -7 3302.86 314.442 9
3 -6 8 16368.6 1039.16 7
3 -6 8 17296.8 1062.51 14
-3 6 -8 18567.1 929.239 11
3 -6 8 17793 1039.03 10
-3 6 -8 17621.9 1097.43 1
3 -6 9 16153.6 1062.78 7
-3 6 -9 16489.3 933.286 11
3 -6 9 16845.8 1001.54 10
-3 6 -9 16572.2 1115.47 1
3 -6 9 13871.6 1019.75 14
3 -6 10 291.563 302.644 7
3 -6 10 15.8926 345.842 14
-3 6 -10 317.716 288.815 11
-3 6 -10 224.022 338.252 1
3 -6 10 210.988 272.691 10
3 -6 11 2431.76 519.652 7
3 -6 11 2429.52 532.2 14
-3 6 -11 2329.88 523.071 1
-3 6 -11 3092.25 496.795 11
3 -6 11 2691.86 538.515 6
3 -6 11 3614.11 475.712 10
3 -6 12 20164.5 1334.79 14
3 -6 12 21463.2 1365.97 6
-3 6 -12 20499.9 1255.06 11
-3 6 -12 20913.4 1363.83 1
3 -6 13 1273.26 459.679 14
-3 6 -13 2503.68 614.807 1
-3 6 -13 2375.97 517.781 11
3 -6 13 2110.57 556.667 6
3 -6 14 3079.85 663.164 14
-3 6 -14 3753.04 736.565 1
-3 6 -14 4620.1 700.989 11
3 -6 14 4350.18 687.999 6
-3 6 -15 2032.12 550.995 11
-3 5 12 637.309 429.254 3
-3 5 11 -215.222 414.484 6
-3 5 11 366.03 430.919 3
-3 5 10 9146.01 935.333 6
-3 5 10 8800.68 911.884 3
3 -5 -10 10509.8 870.86 4
-3 5 9 334.124 361.851 6
-3 5 9 499.155 399.702 3
3 -5 -9 682.758 374.906 4
-3 5 8 3321.2 576.259 6
-3 5 8 2942.36 549.613 3
3 -5 -8 3816.87 496.323 4
3 -5 -7 18357.8 1163.42 7
-3 5 7 20995.2 971.117 13
-3 5 7 18165.7 1183.39 6
-3 5 7 17251.4 1125.34 3
3 -5 -7 17877.9 979.086 10
3 -5 -7 20049.2 1000.69 4
3 -5 -6 10925.6 884.322 7
-3 5 6 11154.4 700.539 13
-3 5 6 11574.7 891.769 3
3 -5 -6 12075.9 656.075 11
3 -5 -6 12257.6 801.171 10
3 -5 -6 12619.9 734.482 4
-3 5 5 1450.12 316.655 13
3 -5 -5 1148.14 378.455 7
-3 5 5 1397.47 376.471 3
3 -5 -5 1009.29 304.66 10
3 -5 -5 1518.11 240.192 11
3 -5 -5 1695.09 255.004 4
-3 5 4 2205.48 343.614 13
3 -5 -4 2153.33 404.537 7
-3 5 4 1382.26 353.909 1
3 -5 -4 1983 223.262 11
-3 5 4 1333.03 394.861 3
3 -5 -4 1332.84 315.233 10
3 -5 -4 2251.73 270.421 4
-3 5 3 1405.11 293.595 13
3 -5 -3 686.814 303.285 7
3 -5 -3 1268.48 147.133 11
-3 5 3 1258.04 339.216 3
-3 5 3 843.073 306.29 1
3 -5 -3 632.544 274.568 10
3 -5 -3 1197.28 183.654 4
3 -5 -2 83.2655 79.7345 4
-3 5 2 151.475 91.0782 14
3 -5 -2 250.241 256.151 7
3 -5 -2 103.186 43.2805 11
-3 5 2 140.213 322.551 3
3 -5 -2 -17.5345 281.269 10
-3 5 2 235.114 265.99 1
3 -5 -1 7062.1 606.913 7
-3 5 1 6336.76 350.15 14
-3 5 1 5429.66 536.306 1
3 -5 -1 5656.25 570.172 10
3 -5 0 1792.74 355.652 7
3 -5 0 1449.76 368.922 10
-3 5 0 1719.81 154.803 5
-3 5 0 1492.05 321.874 1
-3 5 0 2464.75 251.911 14
3 -5 1 430.522 176.365 14
3 -5 1 483.243 248.979 7
-3 5 -1 295.374 259.594 1
3 -5 1 164.861 274.721 10
-3 5 -1 353.77 102.694 5
3 -5 2 15186.1 851.773 7
3 -5 2 12733.6 390.635 11
3 -5 2 13550.3 850.716 10
3 -5 2 13552.2 674.228 14
-3 5 -2 15816.3 559.791 5
3 -5 2 15378.7 513.314 8
-3 5 -2 13310.7 815.469 1
3 -5 3 32750.1 1352.49 7
3 -5 3 31821.1 1203.11 14
3 -5 3 31646.6 1377.06 10
3 -5 3 35300.2 935.326 11
3 -5 3 33603.2 868.074 8
-3 5 -3 30090.6 1313.59 1
3 -5 4 25.8556 250.507 7
-3 5 -4 188.653 88.4997 4
3 -5 4 -116.809 216.939 14
3 -5 4 -114.797 105.122 11
3 -5 4 105.086 258.884 10
3 -5 4 11.8948 66.5736 8
-3 5 -4 140.493 271.745 1
3 -5 5 1245.66 328.442 7
3 -5 5 1133.83 299.479 14
3 -5 5 1669.67 360.221 10
-3 5 -5 1104.45 349.3 1
3 -5 5 1633.13 151.606 8
3 -5 6 4136.21 517.166 7
3 -5 6 3781.29 466.683 14
-3 5 -6 4763.27 425.111 11
3 -5 6 4029.06 490.266 10
-3 5 -6 3898.39 508.836 1
3 -5 6 4507.7 281.928 8
3 -5 7 5598.17 598.08 7
3 -5 7 5058.13 556.307 14
-3 5 -7 6006.48 513.565 11
3 -5 7 5847.58 571.085 10
-3 5 -7 6113.45 621.744 1
-3 5 -7 6062.09 353.307 9
3 -5 7 6170.33 372.17 8
3 -5 8 -100.459 266.298 7
3 -5 8 94.5316 291.078 14
-3 5 -8 15.8359 198.755 11
-3 5 -8 369.179 340.79 1
3 -5 8 257.872 281.48 10
3 -5 8 -88.9174 138.18 8
3 -5 9 2468.58 470.148 7
3 -5 9 2329.79 491.752 14
-3 5 -9 2581.2 405.827 11
-3 5 -9 2435.36 477.211 1
3 -5 9 2863.77 404.698 10
3 -5 10 787.57 391.398 7
3 -5 10 1259.99 406.304 14
-3 5 -10 1139.73 440.546 1
-3 5 -10 1925.04 415.492 11
3 -5 10 1131.04 391.928 6
3 -5 10 1732.73 352.92 10
3 -5 11 4665.8 656.47 14
-3 5 -11 5504.08 704.096 1
-3 5 -11 5419.19 641.209 11
3 -5 11 5719.36 535.221 10
3 -5 11 5030.05 667.637 6
3 -5 12 6546.32 798.358 14
3 -5 12 8058.09 832.731 6
-3 5 -12 7174.72 809.832 1
-3 5 -12 6673.87 725.105 11
-3 5 -13 2979.22 624.379 1
-3 5 -13 2512.95 534.163 11
3 -5 13 2849.98 558.263 6
3 -5 13 2534.55 577.495 14
-3 5 -14 145.095 369.092 11
3 -5 14 137.007 377.993 6
3 -5 14 1130.58 451.208 14
-3 5 -14 530.891 453.084 1
-3 5 -15 9674.13 1011.87 11
3 -5 15 8117.81 936.007 6
-3 4 13 264.083 368.897 3
3 -4 -13 101.09 396.165 4
-3 4 12 1516.16 544.415 6
-3 4 12 948.394 447.388 3
3 -4 -12 1225.34 497.12 4
-3 4 11 12764.8 1047.24 3
3 -4 -11 13167.2 974.356 11
3 -4 -11 14599.3 1067.54 4
-3 4 11 12752.2 1099.8 6
-3 4 10 9050.35 902.568 6
-3 4 10 9022.42 874.949 3
3 -4 -10 10186.5 796.875 11
3 -4 -10 11078.9 869.178 4
-3 4 9 10928.7 954.381 6
-3 4 9 11414.1 926.173 3
3 -4 -9 11834.1 820.342 11
-3 4 8 27114.6 1455.11 6
-3 4 8 27966.4 1403.85 3
3 -4 -8 27488 1221 11
-3 4 7 12309.5 651.391 13
-3 4 7 11553.8 862.764 3
-3 4 7 9737.6 874.522 6
3 -4 -7 12794.2 751.236 11
3 -4 -7 12292.3 762.711 10
-3 4 6 4680.2 406.837 13
3 -4 -6 4654.55 567.321 7
3 -4 -6 5302.82 446.187 11
3 -4 -6 5387.75 523.564 10
-3 4 6 4703.75 557.19 3
-3 4 5 546.922 203.782 13
3 -4 -5 1386.48 361.036 7
3 -4 -5 1013.38 214.369 11
-3 4 5 1119.81 346.992 3
3 -4 -5 346.179 234.495 10
3 -4 -4 22776.8 1142.52 7
-3 4 4 24420.5 956.25 13
-3 4 4 21925.5 1125.52 1
-3 4 4 23593.4 1146.09 3
3 -4 -4 24754.7 866.205 11
3 -4 -4 22446.8 1097.71 10
3 -4 -4 25960.3 888.409 4
3 -4 -3 -123.358 246.821 7
3 -4 -3 6.26775 96.0477 11
-3 4 3 -262.399 295.142 3
3 -4 -3 -121.092 243.104 10
-3 4 3 30.2266 245.408 1
-3 4 3 285.757 107.357 5
3 -4 -3 185.35 133.957 4
3 -4 -2 1353.97 338.207 7
3 -4 -2 1398.79 150.248 11
-3 4 2 1251.35 332.97 3
3 -4 -2 1386.81 329.698 10
-3 4 2 1240.93 339.026 1
-3 4 2 1491.48 115.261 5
3 -4 -2 1397.37 132.049 4
-3 4 1 296.29 254.615 1
3 -4 -1 399.697 270.952 7
3 -4 -1 231.916 71.1892 11
3 -4 -1 348.995 275.811 10
3 -4 0 760.5 161.56 14
3 -4 0 712.064 282.127 7
3 -4 0 580.824 88.4375 11
3 -4 0 579.145 269.878 10
-3 4 0 794.042 291.515 1
-3 4 -1 5449.99 529.955 1
3 -4 1 5476.19 519.893 7
3 -4 1 5387.9 378.822 14
3 -4 1 5855.3 274.884 11
3 -4 1 5896.1 559.808 10
3 -4 2 1703.69 343.912 7
-3 4 -2 1501.55 319.232 1
3 -4 2 1525.08 254.903 14
3 -4 2 1745.97 172.273 11
3 -4 2 1908.67 373.728 10
3 -4 2 1525.43 186.447 8
3 -4 3 17338.1 918.167 7
3 -4 3 16142.9 778.81 14
3 -4 3 18416.6 670.355 11
3 -4 3 18155.7 946.682 10
3 -4 3 18007 662.38 5
-3 4 -3 17210.5 509.4 4
3 -4 3 18560.9 632.549 8
-3 4 -3 16410.9 881.039 1
3 -4 4 2064.11 334.567 14
3 -4 4 2529.44 399.373 10
-3 4 -4 2517.27 227.527 4
-3 4 -4 2320.54 386.923 1
3 -4 4 2072.51 210.325 8
3 -4 4 2456.92 411.867 7
3 -4 5 1914.56 385.037 7
3 -4 5 1300.3 315.623 14
3 -4 5 1550.33 339.959 10
-3 4 -5 2359.11 389.39 1
3 -4 5 2847.28 250.646 8
-3 4 -5 2029.65 232.848 8
3 -4 6 18649.2 1027.67 7
-3 4 -6 19782 914.894 11
3 -4 6 18369.6 957.794 10
-3 4 -6 18231.4 582.276 9
3 -4 6 20263.5 766.097 8
-3 4 -6 20091.5 1026.66 1
3 -4 6 18411.2 981.472 14
3 -4 7 1705.58 357.341 7
3 -4 7 1524.92 375.932 14
-3 4 -7 1317.03 281.124 11
-3 4 -7 1536.93 386.969 1
3 -4 7 1390.32 323.734 10
3 -4 7 1248.17 234.934 8
3 -4 8 0.25834 280.502 7
3 -4 8 165.631 303.12 14
-3 4 -8 416.337 250.823 11
-3 4 -8 399.97 329.59 1
3 -4 8 298.65 186.881 8
3 -4 8 345.583 244.877 10
3 -4 9 -101.471 327.236 7
-3 4 -9 -294.363 311.546 1
-3 4 -9 -160.142 277.902 11
3 -4 9 196.861 310.16 6
3 -4 9 -314.213 256.723 10
3 -4 9 111.842 323.165 14
3 -4 9 314.725 217.71 8
3 -4 10 4215.66 609.686 7
-3 4 -10 4802.99 616.453 1
-3 4 -10 4143.22 547.107 11
3 -4 10 5272.61 496.085 10
3 -4 10 4393.33 586.126 6
3 -4 10 3603.79 588.628 14
3 -4 10 4508.87 479.358 8
3 -4 11 879.172 441.433 14
-3 4 -11 227.012 337.883 1
-3 4 -11 -266.733 298.316 11
3 -4 11 -55.7718 293.023 6
3 -4 12 1582.65 498.142 14
-3 4 -12 1299.59 443.537 1
-3 4 -12 691.365 422.251 11
3 -4 12 633.24 351.309 6
3 -4 13 2525.26 584.489 14
-3 4 -13 2192.31 562.539 1
-3 4 -13 2132.65 506.191 11
3 -4 13 4104.75 626.422 6
3 -4 14 6557.64 861.291 14
-3 4 -14 5330.66 763.809 1
-3 4 -14 6016.9 809.439 11
3 -4 14 6586.17 799.511 6
3 -4 15 2664.82 571.507 6
-3 4 -15 3104.06 634.22 4
3 -3 -14 1235.59 481.356 11
-3 3 13 851.982 473.056 6
3 -3 -13 736.381 426.457 11
-3 3 13 -73.6917 385.285 3
-3 3 12 1160.94 540.133 6
3 -3 -12 1144.7 392.093 11
-3 3 12 961.996 371.233 3
-3 3 11 682.544 412.445 6
3 -3 -11 409.331 319.863 11
-3 3 11 324.282 320.416 3
-3 3 10 -286.867 392.047 6
3 -3 -10 616.764 280.329 11
-3 3 10 97.0255 289.106 3
-3 3 9 1468.83 459.769 6
3 -3 -9 1792.16 390.395 11
-3 3 9 912.521 356.87 3
3 -3 -8 2418.99 393.471 11
-3 3 8 2092.76 443.438 6
3 -3 -8 2826.35 362.593 10
-3 3 8 2312.2 419.874 3
-3 3 7 2485.96 258.955 13
-3 3 7 1493.97 426.461 6
3 -3 -7 2261.06 351.146 11
3 -3 -7 2053.76 339.961 10
-3 3 7 2620.74 435.913 3
-3 3 6 11530.9 539.072 13
-3 3 6 10987.5 854.616 6
-3 3 6 10747.9 745.94 3
3 -3 -6 11117.1 661.692 11
3 -3 -6 11827.2 718.955 10
3 -3 -5 23663.8 1182.29 7
3 -3 -5 25216 1096.97 10
3 -3 -5 26330.1 988.819 11
-3 3 5 25328.5 858.893 5
-3 3 5 25442.3 1132.42 3
-3 3 5 24791.9 868.459 13
3 -3 -4 8309.08 653.165 7
-3 3 4 7267.22 615.929 1
-3 3 4 8888.49 646.034 3
3 -3 -4 8946.9 503.637 11
3 -3 -4 9292.25 651.047 10
-3 3 4 9616.69 406.867 5
3 -3 -3 3907.62 441.793 7
3 -3 -3 3079.95 275.406 11
-3 3 3 3465.4 448.687 1
-3 3 3 3716.27 430.032 3
3 -3 -3 4076.8 454.02 10
-3 3 3 3194.87 176.642 5
3 -3 -2 5326.61 494.394 7
3 -3 -2 4706.23 311.957 11
3 -3 -2 5225.31 506.793 10
-3 3 2 5035.4 499.595 1
3 -3 -2 4856.29 250.266 4
-3 3 1 830.842 290.943 1
3 -3 -1 900.53 294.302 7
3 -3 -1 1216.53 137.732 14
3 -3 -1 1701.52 364.167 10
3 -3 0 1400.26 181.479 14
3 -3 0 918.761 284.907 7
3 -3 0 1381.07 355.187 10
-3 3 0 1169.39 319.395 1
3 -3 1 502.463 275.333 7
3 -3 1 425.827 176.18 14
-3 3 -1 242.003 235.092 1
3 -3 1 213.93 108.704 11
3 -3 1 707.175 315.959 10
3 -3 1 66.1988 153.045 8
3 -3 2 9606.34 653.493 7
3 -3 2 9580.49 548.203 14
3 -3 2 10087.4 480.831 11
3 -3 2 10304.2 682.574 10
3 -3 2 10196.8 400.083 5
3 -3 2 9931.99 499.246 8
-3 3 -2 8973.89 324.609 4
-3 3 -2 9685.87 636.023 1
3 -3 3 6148.9 539.429 7
3 -3 3 6528.81 485.415 14
3 -3 3 6379.46 556.989 10
3 -3 3 6127.02 361.847 5
-3 3 -3 6742.65 330.309 4
3 -3 3 6353.7 393.422 8
-3 3 -3 5919.59 526.071 1
3 -3 4 6669.88 570.47 7
3 -3 4 6456.7 521.708 14
3 -3 4 7069.77 586.026 10
-3 3 -4 6815.07 400.655 4
3 -3 4 6474.09 409.79 8
-3 3 -4 6573.77 540.67 1
3 -3 5 89.1497 267.055 7
3 -3 5 242.035 269.114 14
3 -3 5 294.325 266.24 10
-3 3 -5 15.0471 254.656 1
3 -3 5 230.221 172.698 8
-3 3 -5 160.767 192.049 4
3 -3 6 128.17 269.426 14
3 -3 6 121.087 296.61 7
-3 3 -6 -5.37188 201.379 11
3 -3 6 -33.7807 225.633 10
-3 3 -6 596.527 306.913 1
3 -3 6 -32.5952 157.754 8
-3 3 -6 173.867 221.652 4
3 -3 7 -110.236 273.326 7
3 -3 7 294.61 314.512 14
-3 3 -7 96.6657 243.244 11
-3 3 -7 384.967 308.972 1
3 -3 7 307.12 230.368 10
3 -3 7 110.433 184.293 8
-3 3 -7 77.3204 251.113 4
3 -3 8 4639.37 558.625 7
3 -3 8 4213.77 562.061 14
-3 3 -8 5390.19 586.59 1
-3 3 -8 5029.22 558.526 11
3 -3 8 4834.69 465.554 10
3 -3 8 5074.74 544.528 6
3 -3 8 5033.11 490.928 8
3 -3 9 6391.55 661.659 7
3 -3 9 6922.03 709.371 14
3 -3 9 7950.11 686.997 6
-3 3 -9 6834.12 676.674 11
3 -3 9 7810.28 571.033 10
-3 3 -9 7868.53 724.486 1
3 -3 9 7385.76 603.089 8
3 -3 10 8803.35 735.219 6
-3 3 -10 7462.7 733.664 11
3 -3 10 8148.55 573.46 10
-3 3 -10 7646.46 763.371 1
3 -3 10 6262.56 726.806 14
3 -3 10 8226.73 682.355 8
3 -3 11 3640.26 607.597 14
-3 3 -11 2799.89 516.24 1
-3 3 -11 3742.81 583.711 11
3 -3 11 3684.32 528.952 6
3 -3 11 4060.94 532.999 8
-3 3 -11 3979.45 582.071 4
-3 3 -12 1686.03 504.036 1
-3 3 -12 365.332 372.34 11
3 -3 12 1167.1 375.436 6
3 -3 12 1230.11 496.188 14
3 -3 12 1028.54 364.439 8
-3 3 -12 912.885 428.938 4
3 -3 13 104.361 392.033 14
-3 3 -13 -49.637 390.603 1
-3 3 -13 309.276 365.978 11
3 -3 13 -259.024 316.911 6
-3 3 -13 413.928 406.756 4
3 -3 14 2790.05 618.39 14
-3 3 -14 3960.92 681.26 1
-3 3 -14 3128.05 641.125 11
3 -3 14 3826.82 646.228 6
-3 3 -14 4615.42 738.494 4
-3 3 -15 -234.123 427.287 1
3 -3 15 83.8351 372.979 6
-3 3 -15 767.32 430.58 4
3 -2 -14 1981.59 532.782 11
-3 2 13 1903.5 562.061 6
3 -2 -13 2424.22 541.181 11
-3 2 13 2428.73 536.401 3
3 -2 -12 444.101 352.692 11
-3 2 12 202.318 319.096 3
-3 2 11 639.401 393.661 6
3 -2 -11 589.606 336.059 11
-3 2 11 1323.95 397.766 3
-3 2 10 614.74 340.625 6
3 -2 -10 348.456 292.567 11
-3 2 10 377.856 299.582 3
-3 2 9 9927.98 869.206 6
-3 2 9 10645 773.681 3
3 -2 -9 10509.2 776.569 11
-3 2 8 -172.683 343.845 6
3 -2 -8 758.101 296.733 11
3 -2 -8 258.108 201.507 10
-3 2 8 404.251 277.955 3
-3 2 7 5384.02 502.164 3
-3 2 7 5303.89 632.999 6
3 -2 -7 4812.65 483.407 11
3 -2 -7 5710.45 488.095 10
-3 2 6 15233 525.521 13
-3 2 6 15437.3 955.439 6
-3 2 6 15287.4 814.958 3
3 -2 -6 15484 798.577 11
3 -2 -6 15601.1 818.839 10
3 -2 -5 10900.2 733.802 7
-3 2 5 11749.9 458.817 13
-3 2 5 11300.5 667.043 3
3 -2 -5 11163 637.812 11
3 -2 -5 10784.1 675.679 10
-3 2 5 11619.3 515.625 5
3 -2 -4 526.735 267.277 7
3 -2 -4 564.152 146.323 4
3 -2 -4 553.141 197.464 11
-3 2 4 711.923 256.502 3
3 -2 -4 665.552 285.859 10
-3 2 4 491.584 275.475 1
-3 2 4 446.342 109.816 5
3 -2 -3 624.752 143.68 4
3 -2 -3 558.68 258.507 7
-3 2 3 -5.50619 253.04 1
3 -2 -3 427.952 178.989 11
3 -2 -2 1678.43 118.078 14
3 -2 -2 1466.82 301.65 7
-3 2 2 1931.4 359.851 1
3 -2 -2 2445.18 194.609 4
3 -2 -1 7.63111 76.381 4
3 -2 -1 87.358 231.243 7
3 -2 -1 172.412 124.532 14
-3 2 1 -91.8437 243.69 1
3 -2 0 1640.18 316.163 7
-3 2 0 1484.23 145.15 4
-3 2 0 1193.58 296.766 1
3 -2 0 1766.14 146.155 4
-3 2 -1 31990.5 1218.33 1
3 -2 1 32566.6 1224.01 7
3 -2 1 33764.7 856.047 5
3 -2 1 33255.6 1095.67 8
-3 2 -1 32417.4 876.059 4
-3 2 -2 4462.85 439.619 1
3 -2 2 3594.62 413.311 7
3 -2 2 4611.86 368.102 8
-3 2 -2 4065.93 273.188 4
3 -2 3 33249 1277.34 7
3 -2 3 36880.1 1170.12 8
-3 2 -3 35592.7 1066.1 4
-3 2 -3 34450.9 1275.39 1
3 -2 4 50112.2 1678.77 7
-3 2 -4 51410.3 1482.22 4
3 -2 4 51582.6 1533.36 8
-3 2 -4 50805.1 1671.53 1
3 -2 5 41223.5 1527.79 7
3 -2 5 41982.6 1489.22 10
-3 2 -5 43923.5 1393.3 4
3 -2 5 42671 1396.73 8
-3 2 -5 43792.7 1531.92 1
3 -2 6 2197.74 376.969 7
3 -2 6 2750.69 458.048 14
3 -2 6 2795.2 382.676 10
-3 2 -6 2393.02 381.232 1
3 -2 6 1881.15 322.907 8
-3 2 -6 1786.03 295.151 4
3 -2 7 653.178 255.678 7
3 -2 7 1407.63 427.559 14
-3 2 -7 984.208 313.058 11
-3 2 -7 324.891 260.675 1
3 -2 7 735.754 263.569 10
3 -2 7 584.789 247.27 6
3 -2 7 217.917 223.924 8
-3 2 -7 726.432 287.561 4
3 -2 8 2456.79 452.618 7
-3 2 -8 1795.8 377.391 1
-3 2 -8 1691.79 378.997 11
3 -2 8 2189.01 478.062 14
3 -2 8 2169.9 360.09 10
3 -2 8 2292.21 381.544 6
3 -2 8 2166.38 372.094 8
-3 2 -8 2544.34 430.276 4
3 -2 9 19394.5 1171.9 14
3 -2 9 20046.4 1052.9 6
-3 2 -9 20294.8 1172.84 11
3 -2 9 21670.3 945.136 10
-3 2 -9 18741.5 1086.53 1
3 -2 9 19284.3 1060.5 8
-3 2 -9 20229.7 1103.16 4
-3 2 -10 5530.33 637.989 1
-3 2 -10 5495.41 644.984 11
3 -2 10 6185.18 474.35 10
3 -2 10 5588.34 588.951 6
3 -2 10 5349.35 591.962 8
-3 2 -10 5650.8 639.094 4
3 -2 10 5554.45 685.362 14
3 -2 11 7386.03 686.791 6
-3 2 -11 7246.68 732.926 1
-3 2 -11 6737.35 745.949 11
3 -2 11 6991.85 779.769 14
3 -2 11 7551.79 709.266 8
-3 2 -11 7579.77 775.155 4
3 -2 12 17427.4 1113.71 6
-3 2 -12 19308.6 1306.28 11
-3 2 -12 19100.7 1237.93 1
3 -2 12 18117.3 1185.39 8
-3 2 -12 19262.9 1265.5 4
3 -2 12 16494.9 1223.4 14
3 -2 13 2254.41 595.267 14
-3 2 -13 1204.91 401.051 1
-3 2 -13 1767.8 512.407 11
3 -2 13 3252.94 561.173 6
3 -2 13 3113.69 585.416 8
-3 2 -13 2573.49 567.338 4
-3 2 -14 489.718 423.97 1
-3 2 -14 302.637 395.365 11
3 -2 14 -125.91 382.726 14
-3 2 -14 435.56 437.154 4
-3 2 -15 2545.55 595.941 1
3 -1 -15 86.5695 372.447 11
-3 1 14 116.132 405.771 6
3 -1 -14 562.565 432.828 11
-3 1 13 3961.11 669.366 6
3 -1 -13 4032.81 621.292 11
-3 1 12 2977.24 598.177 6
3 -1 -12 1164.65 366.846 11
-3 1 12 2704.17 489.825 3
-3 1 11 1669.25 489.555 6
3 -1 -11 2329.08 469.523 11
-3 1 11 2095.47 395.517 3
-3 1 10 6276.21 583.095 3
-3 1 10 4917.88 647.315 6
3 -1 -10 5357.85 617.375 11
3 -1 -9 8479.38 704.326 11
-3 1 9 7954.58 772.109 6
-3 1 9 8894.2 639.607 3
3 -1 -9 9479.69 599.085 10
-3 1 8 1500.91 420.998 6
3 -1 -8 1741.9 365.125 11
3 -1 -8 2212.03 343.518 10
-3 1 8 1973.53 330.058 3
-3 1 7 147.26 97.774 2
-3 1 7 -229.332 289.854 6
3 -1 -7 131.904 224.52 11
-3 1 7 75.2409 191.106 3
-3 1 6 317.389 272.603 6
3 -1 -6 -97.2802 203.151 11
-3 1 6 -119.053 173.39 3
-3 1 5 9469.09 328.17 13
-3 1 5 10410.5 583.646 3
-3 1 5 10076 715.416 6
3 -1 -5 9892.23 613.524 11
-3 1 5 10033.2 482.366 5
3 -1 -4 885.585 81.0157 14
3 -1 -4 1424.75 261.476 11
-3 1 4 1295.56 236.258 3
3 -1 -4 1108.86 301.638 7
3 -1 -3 11444.7 679.195 7
-3 1 3 11456.8 702.034 1
3 -1 -3 11769.9 426.767 5
3 -1 -3 12184.9 551.224 4
3 -1 -2 146.76 129.555 4
3 -1 -2 311.591 255.518 7
3 -1 -2 50.4784 76.6671 5
-3 1 2 130.257 243.943 1
3 -1 -1 900.53 157.526 4
3 -1 -1 526.156 239.86 7
-3 1 1 1013.37 295.119 1
-3 1 1 731.395 173.455 4
3 -1 0 11344 646.188 7
-3 1 0 10435.3 629.072 1
3 -1 0 11047.6 471.241 4
3 -1 0 10919.2 609.51 8
-3 1 0 10506 469.311 4
-3 1 -1 2136.89 238.066 4
3 -1 1 1536.43 300.376 7
-3 1 -1 2338.77 335.319 1
-3 1 -1 2862.54 261.799 9
3 -1 1 2343.78 307.806 8
3 -1 1 2068.98 227.776 4
-3 1 -2 386.232 163.352 4
-3 1 -2 819.193 254.469 1
3 -1 2 200.986 236.26 7
-3 1 -2 308.101 124.324 9
3 -1 2 577.037 187.699 4
3 -1 2 368.061 246.779 8
-3 1 -3 651.196 201.065 4
-3 1 -3 847.945 110.647 9
3 -1 3 666.004 230.857 8
3 -1 3 1094.37 298.568 7
-3 1 -3 1135.52 276.385 1
3 -1 4 3619.6 429.509 7
-3 1 -4 3739.16 397.564 1
3 -1 4 4151.26 404.531 8
-3 1 -4 3338.39 357.739 4
3 -1 5 3658.93 437.74 7
-3 1 -5 3497.31 404.834 1
3 -1 5 3031.15 377.777 8
-3 1 -5 3051.77 396.116 4
3 -1 6 661.578 273.204 7
-3 1 -6 449.227 264.54 1
3 -1 6 -17.8272 228.486 8
-3 1 -6 505.459 270.171 4
3 -1 7 5272.28 544.651 7
3 -1 7 5946.15 499.405 6
-3 1 -7 5705.57 528.856 1
3 -1 7 5155.84 522.803 8
-3 1 -7 5167.27 527.096 4
-3 1 -8 4113.35 567.638 11
-3 1 -8 2998.03 438.28 1
3 -1 8 3974.93 417.997 10
3 -1 8 2998.77 402.028 6
3 -1 8 3507.02 478.269 8
-3 1 -8 3756.5 510.078 4
3 -1 9 34779.9 1379.52 6
-3 1 -9 35343.6 1633.14 11
3 -1 9 35291 1251.07 10
-3 1 -9 33817.7 1487.53 1
3 -1 9 33479.4 1506.29 8
-3 1 -9 33970.9 1540.75 4
-3 1 -10 3330.21 501.716 1
-3 1 -10 2948.69 523.925 11
3 -1 10 3858.12 474.365 6
3 -1 10 3317.8 607.922 14
3 -1 10 3020.63 496.881 8
-3 1 -10 2542.33 495.758 4
-3 1 -11 1476.36 413.459 1
3 -1 11 1817.12 361.106 6
3 -1 11 1780.37 526.089 14
3 -1 11 2174.22 494.743 8
-3 1 -11 2126.73 516.967 11
-3 1 -11 2036.3 511.29 4
-3 1 -12 420.129 351.779 1
-3 1 -12 72.2104 385.672 11
3 -1 12 -168.366 283.19 6
3 -1 12 -282.457 358.636 8
-3 1 -12 404.226 432.671 4
3 -1 12 516.85 451.968 14
3 -1 13 944.259 483.133 14
-3 1 -13 938.964 409.261 1
-3 1 -13 826.141 468.976 11
3 -1 13 960.791 436.873 8
-3 1 -13 1578.86 535.112 4
3 -1 14 1707.09 572.69 14
-3 1 -14 1005.89 435.594 1
3 -1 14 1450.96 493.498 8
-3 1 -14 1746.45 561.299 4
-3 1 -15 460.139 474.322 1
3 0 -15 10385.1 1043.74 11
3 0 -14 307.87 421.565 11
-3 0 14 1023.13 476.966 6
-3 0 13 729.012 447.31 6
3 0 -13 1369.14 429.434 11
3 0 -12 9052.33 847.638 11
-3 0 12 6458.26 786.965 6
-3 0 11 2779.04 555.855 6
3 0 -11 1563.75 414.635 11
-3 0 11 1773.61 338.75 3
-3 0 10 135.71 174.391 12
-3 0 10 297.746 414.782 6
3 0 -10 229.841 267.507 11
-3 0 10 25.2994 219.19 3
-3 0 9 1334.64 280.461 12
-3 0 9 1955.9 434.134 6
3 0 -9 1611.03 381.266 11
-3 0 9 1426.36 272.216 3
-3 0 8 9406.91 763.895 6
-3 0 8 10948.1 612.782 3
3 0 -8 10477.9 754.699 11
-3 0 7 4645.66 298.587 2
3 0 -7 4674.11 305.191 14
-3 0 7 4534.6 372.908 3
-3 0 7 3793.69 485.193 6
3 0 -7 4036.7 476.455 11
-3 0 6 174.961 132.332 2
3 0 -6 39.0306 95.9446 14
-3 0 6 -14.3121 277.307 6
3 0 -6 -38.154 229.772 11
-3 0 6 -152.329 160.97 3
3 0 -6 457.954 219.65 5
3 0 -5 60422 1480.94 14
-3 0 5 56406.9 1886.49 6
-3 0 5 61137.3 1622.59 3
3 0 -5 57743.8 1840.03 11
3 0 -5 60063 1643.55 5
3 0 -4 236.668 111.465 14
-3 0 4 279.972 263.624 6
3 0 -4 49.3984 213.84 7
3 0 -4 80.3478 138.334 5
3 0 -3 28234.3 1083.63 7
-3 0 3 28863 1124.71 1
3 0 -3 29980.8 899.625 5
3 0 -2 1543.53 230.243 4
-3 0 2 1370.04 274.53 1
3 0 -2 975.638 256.09 7
-3 0 2 1023.26 217.704 4
3 0 -1 227711 5223.79 7
-3 0 1 228258 5252.56 1
3 0 -1 237048 5303.93 8
3 0 -1 243325 5128.47 4
-3 0 1 229005 5098.56 4
3 0 0 56.4067 183.002 4
-3 0 0 120.697 180.74 4
3 0 0 20.4012 222.458 7
-3 0 0 265.51 152.921 9
-3 0 0 149.584 205.408 1
3 0 0 -86.5954 229.53 8
-3 0 -1 6613.07 470.451 1
3 0 1 5690.88 443.13 7
-3 0 -1 6265.77 371.322 9
3 0 1 5916.53 481.17 8
-3 0 -1 5552.27 405.137 4
3 0 2 75545.8 2130.72 7
-3 0 -2 78780.4 1872.57 9
3 0 2 76856.5 2185.92 8
-3 0 -2 76656 2090.7 4
-3 0 -2 83353.4 2016.38 6
-3 0 -2 77262.8 2103.93 1
3 0 3 11202.8 657.684 7
-3 0 -3 14880.9 613.747 6
3 0 3 13021.6 727.912 8
-3 0 -3 13046.8 683.244 4
-3 0 -3 12943.7 664.24 1
3 0 4 13359.4 734.847 7
-3 0 -4 14694 630.464 6
3 0 4 13704.8 760.203 8
-3 0 -4 13740.5 750.865 4
-3 0 -4 13083.2 689.014 1
3 0 5 1242.88 291.969 7
-3 0 -5 1489.42 299.278 1
3 0 5 1129.81 309.134 8
-3 0 -5 1641.34 323.654 4
3 0 6 16054.4 902.668 8
-3 0 -6 17032.1 853.029 1
-3 0 -6 15858.1 899.62 4
3 0 6 14913.5 876.821 7
-3 0 -7 33545.1 1230.75 12
3 0 7 34093.9 1201.82 6
-3 0 -7 33420.2 1328.47 1
3 0 7 32053.9 1413.42 8
-3 0 -7 31611.5 1399.28 4
-3 0 -8 30848.3 1145.12 12
3 0 8 29235.6 1159.76 6
-3 0 -8 28568.4 1262.58 1
3 0 8 28371.1 1373.4 8
-3 0 -8 28683.2 1379.97 4
-3 0 -9 14.363 258.375 1
3 0 9 804.568 243.841 6
3 0 9 469.378 305.271 8
-3 0 -9 -274.681 321.106 4
-3 0 -10 1497.38 395.813 1
3 0 10 1123.83 311.441 6
3 0 10 1504.51 428.928 8
-3 0 -10 1574.57 479.994 4
-3 0 -11 2237.92 464.167 1
3 0 11 1811.18 472.223 8
-3 0 -11 2236.61 494.259 4
3 0 12 2053.4 569.566 14
-3 0 -12 1679.59 495.337 1
3 0 12 2515.01 537.932 8
-3 0 -12 1194.56 514.422 4
-3 0 -13 1639.97 452.077 1
3 0 13 1051.18 488.407 14
3 0 13 912.181 471.12 8
-3 0 -13 1607.62 524.513 4
-3 0 -14 858.249 452.65 1
3 1 -15 336.264 382.698 11
-3 -1 14 413.289 450.649 6
3 1 -14 773.899 427.789 11
-3 -1 13 1154.51 455.348 6
3 1 -13 1433.64 433.578 11
-3 -1 12 4737.26 688.267 6
3 1 -12 3539.15 558.594 11
3 1 -11 1673.3 421.175 11
-3 -1 11 2249.04 476.945 6
-3 -1 10 1889.23 446.72 6
-3 -1 10 1603.13 261.627 12
3 1 -10 2085.09 436.474 11
-3 -1 10 1291.96 235.7 3
3 1 -9 100.611 284.274 11
-3 -1 9 -26.9886 183.48 12
-3 -1 9 263.674 356.641 6
-3 -1 9 214.355 147.043 3
-3 -1 8 6634.77 365.446 2
-3 -1 8 6335.2 644.958 6
-3 -1 8 6495.76 517.75 12
3 1 -8 7360.77 654.763 11
-3 -1 8 7110.82 421.796 3
3 1 -8 7499.02 608.182 5
-3 -1 7 16033.7 656.029 2
-3 -1 7 15669.5 915.93 6
-3 -1 7 16786.8 622.957 3
3 1 -7 16308.5 930.211 11
-3 -1 7 15672.9 821.133 12
3 1 -7 16205.5 828.85 5
3 1 -6 294.202 139.972 14
-3 -1 6 267.565 156.94 2
-3 -1 6 443.247 278.101 12
-3 -1 6 124.036 257.947 6
3 1 -6 118.337 228.897 11
-3 -1 6 537.647 133.09 3
3 1 -6 59.4089 180.806 5
3 1 -5 749.369 169.305 14
-3 -1 5 802.614 94.0026 13
-3 -1 5 1082.21 231.557 2
-3 -1 5 1762.24 341.757 12
-3 -1 5 662.898 282.239 6
-3 -1 5 735.519 136.701 3
3 1 -5 424.766 189.844 5
3 1 -4 7276.43 507.067 7
-3 -1 4 7379.45 345.681 13
-3 -1 4 6779.35 521.771 6
3 1 -4 6695.6 441.213 5
-3 -1 4 6448.34 456.589 2
3 1 -3 10760.8 589.736 7
-3 -1 3 12516.5 528.742 13
-3 -1 3 10883.1 622.328 6
-3 -1 3 10604.5 605.641 4
3 1 -2 50064.7 1477.37 7
-3 -1 2 49883.7 1519.8 1
-3 -1 2 50251.9 1456.75 6
-3 -1 2 47468.1 1485.08 4
-3 -1 1 82.5658 214.534 4
3 1 -1 -12.3853 171.815 7
-3 -1 1 -193.901 194.523 1
3 1 -1 78.8699 257.277 8
3 1 0 3595.68 342.735 7
-3 -1 0 3522.11 342.288 1
-3 -1 0 3206.72 353.327 4
3 1 0 4174.23 368.022 9
3 1 0 3681.43 416.544 8
3 1 1 40223.3 1281.51 7
-3 -1 -1 42309.9 1285.78 1
3 1 1 41284.6 1226.51 9
3 1 1 41099.8 1427.37 8
-3 -1 -1 38707 1332.04 4
3 1 2 20523.5 854.984 7
-3 -1 -2 22453.7 714.757 6
3 1 2 20855.7 747.38 9
3 1 2 19882.9 953.592 8
-3 -1 -2 20210 909.88 4
-3 -1 -2 21624.3 842.279 1
-3 -1 -3 1158.78 295.181 4
-3 -1 -3 1386.1 261.985 1
3 1 3 1646.4 287.782 7
-3 -1 -3 1655.5 365.46 12
-3 -1 -3 1356.94 162.765 6
3 1 3 1675.55 198.608 9
3 1 3 1466.57 339.834 8
-3 -1 -4 2031.58 355.718 4
3 1 4 1488.75 290.486 7
-3 -1 -4 2146.05 206.888 6
-3 -1 -4 2574.73 385.636 12
3 1 4 2185.97 217.337 9
-3 -1 -4 1829.27 277.319 1
3 1 4 1805.73 351.555 8
-3 -1 -5 4411.57 502.119 4
3 1 5 3602.71 441.096 7
-3 -1 -5 4837.85 450.387 12
-3 -1 -5 4671.81 316.989 6
3 1 5 4626.23 286.467 9
-3 -1 -5 4559.14 422.667 1
3 1 5 4291.29 501.047 8
-3 -1 -6 30008 1165.91 12
3 1 6 29850.3 883.844 9
3 1 6 27539.5 1296.28 8
-3 -1 -6 29741.8 1150.3 1
-3 -1 -6 25979 1274.21 4
-3 -1 -7 14160.9 752.133 12
3 1 7 13151.3 644.031 6
3 1 7 13001.1 515.896 9
-3 -1 -7 13057.9 755.615 1
3 1 7 13546.6 930.295 8
-3 -1 -7 11951.6 881.547 4
-3 -1 -8 7619.72 540.79 12
3 1 8 7185.7 501.202 6
-3 -1 -8 7533.2 605.217 1
3 1 8 7443.62 731.642 8
-3 -1 -8 6766.2 701.185 4
-3 -1 -9 1461.37 380.378 2
-3 -1 -9 941.136 334.15 1
3 1 9 860.53 413.415 8
-3 -1 -9 1584.72 445.344 4
-3 -1 -10 13867.1 908.834 1
3 1 10 12541.7 1010.41 8
-3 -1 -10 14523 1085.75 4
-3 -1 -10 13963 941.128 2
-3 -1 -11 1182.45 425.119 1
-3 -1 -11 1114.76 392.116 2
3 1 11 1088.98 453.917 8
-3 -1 -11 739.204 443.548 4
-3 -1 -12 9771.72 854.382 1
3 1 12 9424.7 978.252 8
-3 -1 -12 10980.4 1024.81 4
3 1 13 1725.66 612.174 14
3 1 13 736.314 418.711 8
-3 -2 15 1245.34 519.065 6
3 2 -15 155.071 433.291 11
-3 -2 14 83.5779 377.206 6
3 2 -14 244.279 375.647 11
-3 -2 13 -174.269 381.53 6
3 2 -13 8.05322 363.827 11
-3 -2 12 135.379 379.793 6
3 2 -12 -423.885 338.859 11
-3 -2 11 9088.85 589.512 12
-3 -2 11 7610.55 791.87 6
3 2 -11 8433.38 807.512 11
-3 -2 10 3731.03 405.712 12
-3 -2 10 3268.85 536.714 6
3 2 -10 3480.3 523.084 5
3 2 -10 2592.85 474.468 11
-3 -2 9 1020.85 254.18 12
3 2 -9 1010.44 339.448 11
-3 -2 9 915.981 172.562 2
3 2 -9 1375.34 371.102 5
-3 -2 9 1126.89 156.351 3
-3 -2 9 665.018 337.779 6
-3 -2 8 4712.75 367.643 2
-3 -2 8 3960.91 522.061 6
-3 -2 8 4883.77 253.574 3
3 2 -8 5772.36 608.249 11
-3 -2 8 4761.68 453.931 12
3 2 -8 4754.15 496.469 5
-3 -2 7 186.893 220.803 12
-3 -2 7 -74.0288 258.794 6
-3 -2 7 270.603 169.471 2
3 2 -7 217.207 285.941 11
3 2 -7 222.181 225.115 5
-3 -2 7 215.02 62.8052 3
-3 -2 6 210.161 233.124 12
-3 -2 6 -40.0426 167.406 2
-3 -2 6 400.654 262.282 6
3 2 -6 -7.11856 196.219 5
-3 -2 6 -29.5731 36.064 3
-3 -2 5 24564.9 967.935 2
3 2 -5 24679.3 971.909 7
-3 -2 5 24594.8 1031.96 6
-3 -2 5 25005.7 764.462 13
-3 -2 5 25019.8 1077.88 12
-3 -2 5 23584.5 615.112 3
3 2 -5 23392.5 980.212 5
-3 -2 4 26866.5 1063.58 2
3 2 -4 28560.8 1028.46 7
-3 -2 4 27568 1060.94 6
-3 -2 4 28105.9 1179.84 12
-3 -2 4 28474 766.283 3
-3 -2 4 26386.5 1104.68 4
-3 -2 4 30970.9 933.458 13
3 2 -3 8275.89 483.756 7
-3 -2 3 7529.96 489.94 6
-3 -2 3 8709.71 375.475 3
3 2 -3 7763.3 582.315 9
-3 -2 3 7256.04 592.884 12
-3 -2 3 7323.27 544.864 4
-3 -2 3 8127.78 565.883 2
3 2 -2 3777.79 325.809 7
-3 -2 2 3307.28 405.78 4
-3 -2 2 3383.95 403.694 2
-3 -2 2 3797.52 320.472 6
-3 -2 2 3645.53 264.737 3
-3 -2 2 3087.21 417.216 12
3 2 -2 3513.29 391.995 9
3 2 -2 3097.16 400.91 8
-3 -2 1 628.054 288.874 2
-3 -2 1 263.428 252.491 4
3 2 -1 507.295 188.277 7
-3 -2 1 466.508 161.654 7
-3 -2 1 533.884 286.119 12
-3 -2 1 448.79 154.265 6
-3 -2 1 556.243 188.133 1
3 2 -1 388.806 214.799 9
-3 -2 1 666.676 179.626 3
3 2 -1 444.23 265.29 8
3 2 0 5249.23 373.708 7
-3 -2 0 5694.89 382.465 7
-3 -2 0 5506.67 391.332 1
-3 -2 0 5690.35 306.897 6
-3 -2 0 5260.39 506.443 12
3 2 0 5117.9 418.169 9
3 2 0 5175.05 515.015 8
-3 -2 0 5078.92 476.494 4
-3 -2 0 5359.58 521.838 2
-3 -2 -1 3037.86 390.028 4
-3 -2 -1 3655.88 320.518 1
3 2 1 3216.69 307.736 7
-3 -2 -1 3884.17 467.869 2
-3 -2 -1 3602.63 430.655 12
3 2 1 3291.74 337.315 9
3 2 1 3640 310.819 1
3 2 1 3680.86 444.864 8
3 2 2 5129.84 395.749 7
-3 -2 -2 5924.05 397.359 1
-3 -2 -2 5556.22 237.727 6
-3 -2 -2 4751.94 476.37 12
3 2 2 6183.66 429.857 9
3 2 2 6157.8 395.256 1
3 2 2 5290.54 522.541 8
-3 -2 -2 6328.84 549.93 4
-3 -2 -2 4930.3 515.878 2
-3 -2 -3 3389.28 438.24 4
3 2 3 3160.72 340.579 7
-3 -2 -3 3321.79 468.798 2
-3 -2 -3 3138.71 171.635 6
-3 -2 -3 3304.64 416.957 12
3 2 3 3570.22 312.337 9
3 2 3 3151.05 422.097 8
-3 -2 -3 3320.9 302.469 1
-3 -2 -4 7031.87 298.872 6
-3 -2 -4 6528.84 545.929 12
3 2 4 7645.7 454.926 9
3 2 4 6267.56 611.272 8
-3 -2 -4 6825.25 601.087 4
-3 -2 -4 7785.3 469.713 1
-3 -2 -4 7790.61 651.284 2
3 2 4 7129.63 539.711 7
-3 -2 -5 3205.73 485.817 4
-3 -2 -5 3634.24 489.786 2
-3 -2 -5 3516.29 225.629 6
-3 -2 -5 3288.91 403 12
3 2 5 3594.06 309.928 9
-3 -2 -5 3304.68 330.09 1
3 2 5 3766.19 503.015 8
-3 -2 -6 5587.67 492.766 12
3 2 6 6830.93 686.549 8
-3 -2 -6 6307.13 649.223 4
-3 -2 -6 6742.37 487.394 1
-3 -2 -6 5682.75 583.669 2
-3 -2 -7 803.938 307.347 2
-3 -2 -7 603.242 247.709 12
-3 -2 -7 910.307 254.263 1
3 2 7 1221.7 400.754 8
-3 -2 -7 721.155 361.53 4
-3 -2 -8 918.389 346.301 2
-3 -2 -8 996.597 279.872 1
3 2 8 846.818 380.325 8
-3 -2 -8 504.93 378.929 4
-3 -2 -9 68.2324 254.902 2
-3 -2 -9 371.664 258.879 1
3 2 9 377.382 331.171 8
-3 -2 -9 -395.993 386.086 4
-3 -2 -10 3409.25 532.722 2
3 2 10 2581.17 562.726 8
-3 -2 -10 2479.45 565.042 4
3 2 11 22033 1461.57 8
-3 -2 -11 23352.2 1505.9 4
3 2 12 10820.5 1060.8 8
-3 -2 -12 9600.72 1023.55 4
3 3 -15 1100.65 478.884 11
-3 -3 15 1037.65 443.967 6
3 3 -14 592.021 449.364 11
-3 -3 14 270.738 373.834 6
3 3 -13 1743.02 494.001 11
-3 -3 13 1748.23 472.888 6
-3 -3 12 793.227 416.383 6
3 3 -12 160.18 358.507 11
-3 -3 11 18790.6 929.601 12
-3 -3 11 16931.7 1135.87 6
3 3 -11 18409.4 1194.79 11
3 3 -11 19275.9 1142.65 5
-3 -3 10 12697.6 753.048 12
-3 -3 10 11104.2 877.934 6
3 3 -10 11213.4 896.496 11
3 3 -10 12546 883.526 5
-3 -3 9 4206.3 462.385 12
3 3 -9 4244.61 567.467 11
-3 -3 9 3544.19 511.56 6
-3 -3 9 4230.44 372.469 2
3 3 -9 4272.62 530.591 5
-3 -3 8 10699.9 777.55 6
3 3 -8 11373.5 845.935 11
3 3 -8 11007.1 766.442 5
-3 -3 8 10760.1 708.363 12
-3 -3 8 10924.6 622.372 2
-3 -3 7 5139.33 431.769 2
-3 -3 7 4684.16 487.682 12
3 3 -7 5164.44 576.381 11
-3 -3 7 4947.38 509.941 6
3 3 -7 5002.64 536.052 5
-3 -3 6 28.7969 222.6 12
-3 -3 6 152.303 198.804 2
-3 -3 6 -68.2 221.65 6
3 3 -6 402.776 254.081 5
-3 -3 5 304.56 136.874 13
-3 -3 5 314.857 258.907 4
3 3 -5 369.201 174.417 7
-3 -3 5 -81.9721 282.317 12
-3 -3 5 403.696 218.175 2
-3 -3 5 -35.1425 201.807 6
3 3 -5 416.29 243.822 5
3 3 -5 234.696 306.908 9
3 3 -4 3733.38 326.288 7
-3 -3 4 3489.04 450.175 4
-3 -3 4 4596.25 394.796 6
-3 -3 4 4312.45 445.173 2
-3 -3 4 3865.58 467.74 12
-3 -3 4 4130.85 192.424 3
3 3 -4 4362.27 493.292 9
3 3 -3 3671.09 305.751 7
-3 -3 3 3590.7 444.29 4
-3 -3 3 3381.85 314.807 6
-3 -3 3 3445.61 425.629 2
-3 -3 3 3472.92 456.19 12
-3 -3 3 4026.38 243.594 3
3 3 -3 3235.16 419.035 9
3 3 -3 3062.69 427.026 8
3 3 -2 43.971 126.956 7
-3 -3 2 14.0802 268.226 4
-3 -3 2 -115.46 231.314 2
-3 -3 2 -273.3 303.371 12
-3 -3 2 52.3585 131.353 6
-3 -3 2 116.804 117.487 3
3 3 -2 -160.296 255.491 9
3 3 -2 84.1216 248.517 8
-3 -3 1 8687.28 661.397 2
3 3 -1 9768.5 466.632 7
-3 -3 1 9603.84 461.137 7
-3 -3 1 9808.23 685.078 12
-3 -3 1 10154.5 413.107 6
3 3 -1 10625.3 650.252 9
3 3 -1 8792.28 667.561 8
-3 -3 1 8906.34 653.356 4
3 3 -1 10435.2 512.375 1
-3 -3 0 11274.3 741.706 2
3 3 0 11643 524.981 7
-3 -3 0 13182.2 551.636 7
-3 -3 0 11061.6 514.224 1
-3 -3 0 10846.2 732.899 12
-3 -3 0 11883.4 381.544 6
3 3 0 11960.7 683.284 9
3 3 0 12086.3 765.585 8
-3 -3 0 9594.36 695.427 4
3 3 0 12233.5 526.975 1
-3 -3 -1 2694.78 272.872 7
-3 -3 -1 2176.78 356.893 4
3 3 1 2431.62 273.138 7
-3 -3 -1 2598.5 399.366 2
-3 -3 -1 2408.25 382.97 12
3 3 1 2562.08 238.446 1
-3 -3 -1 2400.41 233.046 1
3 3 1 3249.63 370.371 9
3 3 1 2142.28 366.672 8
3 3 1 2474.65 349.693 3
-3 -3 -2 6701.32 615.498 2
-3 -3 -2 7094.03 388.083 1
-3 -3 -2 7262.04 583.617 12
3 3 2 7069.03 579.906 3
3 3 2 7522.64 514.677 9
3 3 2 6942.66 618.477 8
-3 -3 -2 7152.51 615.106 4
3 3 2 7310.79 471.281 7
-3 -3 -3 10397.9 767.683 2
-3 -3 -3 10909.2 500.869 1
-3 -3 -3 10812.4 710.636 12
3 3 3 9793.3 709.455 3
3 3 3 10390.3 602.84 9
3 3 3 9360.57 737.027 8
-3 -3 -3 9519.72 736.961 4
-3 -3 -4 5763.12 606.947 4
-3 -3 -4 5054.62 514.15 12
-3 -3 -4 5274.15 567.052 2
3 3 4 5864.73 453.309 9
3 3 4 5869.1 601.573 8
3 3 4 5503.79 575.152 3
-3 -3 -4 5943.54 376.207 1
-3 -3 -5 693.898 343.042 4
-3 -3 -5 224.653 275.963 2
-3 -3 -5 205.782 243.684 12
3 3 5 -31.1441 287.658 8
-3 -3 -5 14.6519 141.817 1
3 3 5 283.389 328.339 3
-3 -3 -6 3202.47 544.127 4
-3 -3 -6 2279.32 435.629 2
-3 -3 -6 3093.31 413.997 12
-3 -3 -6 3122.44 321.423 1
3 3 6 2888.46 498.906 8
3 3 6 3334.27 535.787 3
-3 -3 -7 785.103 379.016 4
-3 -3 -7 1369.66 368.845 2
-3 -3 -7 2069.52 369.721 12
3 3 7 909.064 357.267 8
3 3 7 1676.37 510.181 3
-3 -3 -8 2564.97 535.841 4
-3 -3 -8 2702.55 451.02 2
3 3 8 2999.99 587.313 8
3 3 8 2979.1 565.556 3
-3 -3 -9 246.172 350.245 4
-3 -3 -9 71.8388 311.24 2
3 3 9 360.356 398.464 8
3 3 9 956.327 480.275 3
-3 -3 -10 5359.53 775.923 4
-3 -3 -10 6398.02 666.131 2
3 3 10 5561.16 754.522 8
3 3 10 5406.79 783.872 3
-3 -3 -11 1648.71 592.937 4
3 3 11 1192.65 521.446 8
3 4 -15 -214.172 426.328 11
-3 -4 15 956.139 501.957 6
3 4 -14 754.427 444.037 11
-3 -4 14 711.678 397.694 6
-3 -4 13 9661.18 948.589 6
3 4 -13 9497.2 935.996 11
3 4 -13 10171.8 930.051 5
3 4 -12 -361.907 409.977 11
-3 -4 12 -387.628 393.919 6
3 4 -12 41.8905 393.397 5
-3 -4 11 -357.661 243.23 12
3 4 -11 -14.8336 354.069 11
-3 -4 11 244.837 346.06 6
3 4 -11 139.634 333.761 5
-3 -4 10 3335.05 446.354 12
3 4 -10 3215.07 553.865 11
-3 -4 10 2889.32 468.349 6
3 4 -10 2522.09 457.204 5
-3 -4 9 42938.4 1482.47 2
-3 -4 9 44097.3 1630.66 12
-3 -4 9 41414.3 1704.96 6
3 4 -9 41593.3 1805.6 11
3 4 -9 42120.2 1725.02 5
-3 -4 8 41884.6 1502.53 2
-3 -4 8 42814.9 1625.21 12
-3 -4 8 43099.6 1661.04 6
3 4 -8 43374.6 1782.26 11
3 4 -8 44912 1721.83 5
-3 -4 7 810.097 297.881 12
-3 -4 7 907.192 287.566 6
-3 -4 7 973.913 273.575 2
3 4 -7 779.638 300.321 5
3 4 -7 1170.44 416.235 9
-3 -4 6 37707.1 1435.85 2
-3 -4 6 40337.6 1537.64 12
-3 -4 6 40184.9 1440.33 6
3 4 -6 37728.5 1507.75 5
3 4 -6 39627.8 1596.72 9
-3 -4 6 36332.3 1533.37 4
3 4 -5 16937 698.312 7
-3 -4 5 17430.1 900.836 2
-3 -4 5 16529.5 939.147 12
-3 -4 5 18063.7 836.495 6
3 4 -5 15726.5 942.283 9
-3 -4 5 15462.7 921.344 4
3 4 -4 21684.6 747.487 7
-3 -4 4 20327.9 1019.15 2
-3 -4 4 20699.4 1056.76 12
-3 -4 4 20943.5 853.147 6
-3 -4 4 20674.3 603.824 3
3 4 -4 20479.8 1041.88 9
3 4 -4 18609.9 1020.87 8
-3 -4 4 18268.7 1000 4
3 4 -3 370.845 138.266 7
-3 -4 3 -69.4676 275.447 4
-3 -4 3 402.102 294.087 12
-3 -4 3 212.444 254.55 2
-3 -4 3 319.358 128.206 6
-3 -4 3 89.5214 91.5725 3
3 4 -3 -286.974 281.855 9
3 4 -3 13.6371 258.388 8
3 4 -2 11666.5 460.684 7
3 4 -2 13349.3 579.252 1
-3 -4 2 11284.8 763.188 2
-3 -4 2 11780.9 796.11 12
-3 -4 2 12055.5 503.506 6
-3 -4 2 12242.2 565.103 3
3 4 -2 10990 753.999 9
3 4 -2 11866 781.778 8
-3 -4 2 12429.5 814.941 4
3 4 -1 4618.6 265.931 7
-3 -4 1 4243.41 226.913 6
-3 -4 1 3624.82 461.194 4
-3 -4 1 3797.7 481.529 2
-3 -4 1 3842.86 489.142 12
3 4 -1 4929.86 405.762 3
3 4 -1 4560.4 479.645 9
3 4 -1 4811.74 314.131 1
3 4 -1 3960.37 494.449 8
-3 -4 0 17218.1 975.746 2
-3 -4 0 16984.5 610.996 7
-3 -4 0 15763.2 914.794 12
3 4 0 18356.8 845.494 3
3 4 0 17302.7 893.586 9
3 4 0 17318.3 597.286 1
3 4 0 15434.4 916.797 8
-3 -4 0 15699.7 932.195 4
3 4 0 17740 620.817 7
-3 -4 -1 7973.93 679.685 2
-3 -4 -1 7993.33 420.357 7
-3 -4 -1 6291.05 602.961 4
-3 -4 -1 7449.07 644.546 12
3 4 1 7712.78 589.252 3
3 4 1 7548.48 581.287 9
3 4 1 6556.3 623.251 8
-3 -4 -2 8540.85 717.305 2
-3 -4 -2 9788.78 379.602 1
-3 -4 -2 9019.85 701.398 12
3 4 2 9362.53 680.498 3
3 4 2 9395.29 646.132 9
3 4 2 7721.42 686.712 8
-3 -4 -2 8013.54 715.844 4
-3 -4 -3 1798.77 420.263 4
-3 -4 -3 2029.67 431.465 2
-3 -4 -3 2041.41 378.605 12
3 4 3 1903.29 330.822 9
3 4 3 1974.84 410.826 8
3 4 3 2171.8 405.246 3
-3 -4 -3 2132.6 180.915 1
-3 -4 -4 3643.58 549.557 4
-3 -4 -4 4377.88 558.923 2
3 4 4 4301.56 559.087 8
3 4 4 3842.91 516.655 3
-3 -4 -4 4873.01 517.514 12
-3 -4 -5 -221.401 337.863 4
-3 -4 -5 39.7926 282.065 2
-3 -4 -5 -107.099 229.868 12
3 4 5 -311.283 331.836 8
3 4 5 60.1494 307.612 3
-3 -4 -6 12745.4 916.956 2
-3 -4 -6 12234.1 788.093 12
3 4 6 11334.2 916.051 3
3 4 6 10531.6 943.684 8
-3 -4 -6 13019.9 1004.11 4
-3 -4 -7 72.7449 340.58 4
-3 -4 -7 140.281 282.021 2
3 4 7 480.885 362.788 8
3 4 7 95.7259 349.124 3
-3 -4 -8 1797.97 505.194 4
-3 -4 -8 1165.53 372.136 2
3 4 8 582.465 339.667 8
3 4 8 1709.52 468.033 3
-3 -4 -9 576.097 478.02 4
-3 -4 -9 615.015 342.89 2
3 4 9 0.41728 404.922 8
3 4 9 245.461 367.405 3
-3 -4 -10 -34.8161 410.717 4
3 4 10 56.0945 377.294 8
-3 -5 15 3875.66 702.522 6
3 5 -14 -103.17 368.24 11
-3 -5 14 -513.952 405.58 6
3 5 -14 633.017 455.004 5
3 5 -13 -152.546 361.86 11
-3 -5 13 1127.98 462.995 6
3 5 -13 137.134 382.438 5
-3 -5 12 9305.29 714.374 12
-3 -5 12 9674.63 895.471 6
3 5 -12 7715.3 849.193 11
3 5 -12 9320.5 884.564 5
-3 -5 11 1525.56 341.629 12
3 5 -11 988.277 419.217 11
-3 -5 11 1294.67 429.908 6
3 5 -11 952.594 388.769 5
-3 -5 10 191.548 266.092 12
3 5 -10 163.346 300.97 11
-3 -5 10 731.886 346.111 6
3 5 -10 45.3936 328.148 5
-3 -5 9 5750.3 541.983 2
-3 -5 9 5730.25 586.96 12
3 5 -9 5296.65 644.031 11
-3 -5 9 5857.39 623.533 6
3 5 -9 6002.75 671.313 5
3 5 -9 6519.48 723.384 9
3 5 -8 2116.15 324.26 13
-3 -5 8 2144.09 401.213 12
3 5 -8 2448.67 460.828 11
-3 -5 8 2422.75 425.779 6
-3 -5 8 1753.62 350.575 2
3 5 -8 1893.41 385.466 5
3 5 -8 1821.48 443.246 9
-3 -5 7 12247.1 804.002 2
3 5 -7 12929.5 711.246 13
-3 -5 7 12983.1 862.403 12
-3 -5 7 12419.8 792.789 6
3 5 -7 12570.2 885.496 5
3 5 -7 13593.2 946.234 9
3 5 -6 1338.74 216.236 7
-3 -5 6 1279.01 380.317 4
-3 -5 6 1695.83 366.825 12
-3 -5 6 1276.69 291.166 6
-3 -5 6 1375.56 375.983 2
3 5 -6 958.52 337.472 5
3 5 -6 1244.74 371.291 9
3 5 -6 1419.05 303.318 13
3 5 -6 859.07 328.551 8
-3 -5 5 130.125 283.482 4
3 5 -5 69.8571 232.393 13
-3 -5 5 -2.44784 297.317 12
-3 -5 5 294.182 276.788 2
-3 -5 5 44.1681 179.617 6
3 5 -5 3.28939 113.622 7
3 5 -5 72.7961 294.05 9
3 5 -5 206.212 256.142 8
3 5 -4 915.946 131.703 7
-3 -5 4 1297.16 336.165 4
3 5 -4 903.121 287.585 13
-3 -5 4 548.271 284.601 12
-3 -5 4 404.277 287.178 2
-3 -5 4 839.491 140.084 3
-3 -5 4 1038.65 220.042 6
3 5 -4 499.349 325.298 9
3 5 -4 1204.25 328.666 8
3 5 -3 587.56 81.4624 7
-3 -5 3 547.155 327.995 4
-3 -5 3 1516.58 385.086 12
-3 -5 3 671.394 326.992 2
-3 -5 3 598.664 170.53 6
-3 -5 3 542.038 147.019 3
3 5 -3 351.787 297.087 9
3 5 -3 954.935 204.266 3
3 5 -3 519.921 261.05 8
-3 -5 2 25423.5 1259.87 2
-3 -5 2 26037.1 1270.33 12
-3 -5 2 27279.1 835.456 6
3 5 -2 28134.5 1016.79 3
3 5 -2 26641.6 1253.81 9
3 5 -2 27135.8 1263.94 8
-3 -5 2 25897.1 1289.38 4
-3 -5 1 2240.78 434.801 12
-3 -5 1 1384.42 376.185 2
3 5 -1 1513.07 364.203 9
3 5 -1 1952.9 307.246 3
-3 -5 1 1714.26 390.34 4
3 5 -1 1589.67 361.105 8
-3 -5 0 196.37 331.504 4
-3 -5 0 195.161 285.029 12
-3 -5 0 220.254 299.643 2
3 5 0 449.192 289.268 9
3 5 0 342.831 225.582 3
3 5 0 -38.7718 267.947 8
-3 -5 -1 498.7 292.32 12
-3 -5 -1 141.767 293.275 4
-3 -5 -1 105.151 290.927 2
3 5 1 669.514 308.236 9
3 5 1 112.641 246.189 3
3 5 1 658.595 349.44 8
-3 -5 -2 3494.42 545.549 4
-3 -5 -2 4252.47 517.036 12
-3 -5 -2 3584.18 502.411 2
3 5 2 3804.38 459.399 9
3 5 2 3940.87 495.643 3
3 5 2 4584.41 575.928 8
-3 -5 -3 6777.18 704.624 2
-3 -5 -3 7047.32 643.836 12
3 5 3 6880.57 678.016 3
3 5 3 7045.6 603.539 9
3 5 3 7683.72 738.106 8
-3 -5 -3 6891.81 736.181 4
-3 -5 -4 22370.3 1242.14 2
-3 -5 -4 21729.4 1133.34 12
3 5 4 21109.4 1192.76 3
3 5 4 19824.4 1217.17 8
-3 -5 -4 19376.7 1239.42 4
-3 -5 -5 453.6 385.967 4
-3 -5 -5 688.854 288.506 12
-3 -5 -5 127.506 333.998 2
3 5 5 629.006 364.837 8
3 5 5 763.316 371.863 3
-3 -5 -6 675.27 411.54 4
-3 -5 -6 1352 356.516 12
-3 -5 -6 1056.91 413.647 2
3 5 6 1269.17 478.878 8
3 5 6 1130.27 457.733 3
-3 -5 -7 512.471 392.752 4
-3 -5 -7 1013.15 379.997 2
3 5 7 768.248 395.593 8
3 5 7 -81.7439 357.974 3
-3 -5 -8 -39.9391 394.548 4
-3 -5 -8 347.712 306.848 2
3 5 8 -203.548 370.133 8
3 5 8 192.525 372.639 3
-3 -5 -9 -347.527 414.63 4
3 5 9 780.69 464.626 8
3 5 9 156.765 426.104 3
3 6 -15 1414.02 590.676 5
3 6 -14 -395.682 419.471 11
-3 -6 14 314.895 450.088 6
3 6 -14 361.162 432.878 5
3 6 -13 -258.423 391.843 11
3 6 -13 -18.3931 382.135 5
-3 -6 12 10930.8 828.749 12
3 6 -12 9094.16 924.092 11
3 6 -12 10641.5 975.885 5
-3 -6 12 10500.5 939.377 6
-3 -6 11 791.188 350.591 12
3 6 -11 205.377 372.662 11
-3 -6 11 -15.3773 326.891 6
3 6 -11 -347.463 401.781 5
-3 -6 10 1244.9 365.525 12
3 6 -10 1000.52 413.714 11
-3 -6 10 1391.8 393.574 6
3 6 -10 1846.99 469.938 5
3 6 -10 2703.28 554.436 9
-3 -6 9 326.72 307.737 12
3 6 -9 303.017 341.784 11
-3 -6 9 481.213 305.025 6
-3 -6 9 435.271 272.787 2
3 6 -9 936.694 404.516 5
3 6 -9 775.32 414.424 9
-3 -6 8 834.967 349.026 12
3 6 -8 1519.77 417.374 11
-3 -6 8 1315.5 361.568 6
-3 -6 8 1176.75 411.633 2
3 6 -8 1390.63 415.181 5
3 6 -8 1135.59 315.65 13
3 6 -8 803.327 382.589 9
3 6 -7 637.457 274.492 13
-3 -6 7 418.973 350.576 4
-3 -6 7 999.562 371.189 12
-3 -6 7 910.755 294.405 6
-3 -6 7 394.738 287.485 2
3 6 -7 99.3173 309.292 5
3 6 -7 266.781 311.505 9
3 6 -7 227.224 271.12 8
-3 -6 6 22157.7 1195.27 2
3 6 -6 24329.3 1121.18 13
-3 -6 6 22715.7 1233.66 12
-3 -6 6 24182.8 1070.22 6
3 6 -6 23572.4 1287.28 9
3 6 -6 21194.3 1178.97 8
-3 -6 6 20993 1221.57 4
3 6 -5 9149.86 700.667 13
-3 -6 5 7458.21 715.466 2
-3 -6 5 9732.71 797.456 12
-3 -6 5 9560.73 603.784 6
3 6 -5 9424.08 792.009 9
3 6 -5 9381.23 751.246 8
-3 -6 5 8121.1 765.832 4
-3 -6 4 9227.7 773.216 2
3 6 -4 10208.7 756.409 13
-3 -6 4 9684.12 787.934 12
-3 -6 4 10634 588.03 6
3 6 -4 9713.66 802.399 9
3 6 -4 11507.6 821.791 8
-3 -6 4 9290.58 810.284 4
-3 -6 3 -33.7419 323.658 4
3 6 -3 -247.216 285.969 13
-3 -6 3 343.323 305.707 12
-3 -6 3 808.284 339.861 2
-3 -6 3 320.514 140.147 6
3 6 -3 1085.66 387.288 9
3 6 -3 253.296 176.324 3
3 6 -3 136.554 254.29 8
-3 -6 2 1000.39 358.412 12
-3 -6 2 1142.69 389.806 4
-3 -6 2 1438.5 383.428 2
3 6 -2 1174.15 381.801 9
3 6 -2 1200.64 258.424 3
3 6 -2 1620.95 380.598 8
-3 -6 1 1838.31 408.902 12
-3 -6 1 2210.18 485.56 4
-3 -6 1 1892.32 424.111 2
3 6 -1 1498.41 409.201 9
3 6 -1 1564.98 307.683 3
3 6 -1 2375 436.452 8
-3 -6 0 1262.45 374.184 12
-3 -6 0 551.201 343.418 4
-3 -6 0 561.503 374.967 2
3 6 0 95.309 263.813 9
3 6 0 510.806 237.875 3
3 6 0 1240.04 389.062 8
-3 -6 -1 771.164 381.835 4
-3 -6 -1 263.807 295.891 12
-3 -6 -1 209.895 289.257 2
3 6 1 187.518 269.706 9
3 6 1 164.965 261.901 3
3 6 1 104.805 302.496 8
-3 -6 -2 3814.69 591.152 4
-3 -6 -2 3640.17 512.006 12
-3 -6 -2 3571.33 557.009 2
3 6 2 3425.83 509.372 9
3 6 2 3230.46 493.974 3
3 6 2 4034.8 571.493 8
-3 -6 -3 2653.14 539.915 4
-3 -6 -3 1990.65 441.415 12
-3 -6 -3 2831.38 514.774 2
3 6 3 2145.86 466.477 3
3 6 3 2489.42 496.434 8
-3 -6 -4 7329.36 824.051 4
-3 -6 -4 6974.39 754.2 2
-3 -6 -4 7292.18 688.474 12
3 6 4 8212.75 792.141 3
3 6 4 6881.41 754.292 8
-3 -6 -5 822.152 428.25 4
-3 -6 -5 687.768 311.477 12
-3 -6 -5 325.485 329.862 2
3 6 5 814.872 407.526 8
3 6 5 106.354 334.211 3
-3 -6 -6 2094.7 529.055 4
-3 -6 -6 2937.51 560.2 2
3 6 6 3135.53 602.084 8
3 6 6 2333.61 568.736 3
-3 -6 -7 4263.14 721.207 4
-3 -6 -7 3012.9 568.117 2
3 6 7 2943.66 611.772 8
3 6 7 3595.63 653.876 3
-3 -6 -8 5529.8 700.998 2
3 6 8 4874.19 768.055 8
3 6 8 4368.41 711.123 3
-3 -7 14 569.857 452.936 6
3 7 -14 -47.8723 401.903 5
-3 -7 13 9432.84 941.557 6
3 7 -13 6794.46 867.382 11
3 7 -13 7934.37 925.513 5
-3 -7 12 8137.28 770.289 12
-3 -7 12 8999.99 901.201 6
3 7 -12 7506.23 885.845 11
3 7 -12 8405.29 908.598 5
3 7 -11 -3.58435 409.2 11
-3 -7 11 127.543 329.84 6
3 7 -11 -61.3989 381.548 5
3 7 -11 25.6477 350.23 9
-3 -7 11 507.682 373.169 12
-3 -7 10 5133.38 629.614 12
3 7 -10 5944.29 775.468 11
-3 -7 10 5432.99 671.247 6
3 7 -10 4408.52 679.31 5
3 7 -10 4952.33 678.353 9
-3 -7 9 428.091 309.232 12
3 7 -9 21.8273 319.606 11
-3 -7 9 -234.447 314.171 6
3 7 -9 461.208 374.179 5
-3 -7 9 39.9642 302.531 2
3 7 -9 787.417 416.87 9
3 7 -9 798.068 328.099 8
3 7 -8 6634.36 618.415 13
-3 -7 8 5103.15 625.395 12
-3 -7 8 6130.29 614.765 6
3 7 -8 7462.7 783.29 5
-3 -7 8 5624.37 638.119 2
3 7 -8 5897.58 725.621 9
3 7 -8 5898.8 636.444 8
3 7 -7 968.368 317.157 13
-3 -7 7 202.253 405.446 4
-3 -7 7 704.612 314.458 12
-3 -7 7 460.619 278.807 6
-3 -7 7 129.473 282.537 2
3 7 -7 253.387 337.824 5
3 7 -7 340.331 341.148 9
3 7 -7 544.078 292.471 8
3 7 -6 365.642 264.568 13
-3 -7 6 -10.211 320.083 4
-3 -7 6 305.805 367.404 12
-3 -7 6 381.212 246.968 6
-3 -7 6 119.635 317.281 2
3 7 -6 464.302 371.54 9
3 7 -6 19.6135 275.223 8
-3 -7 5 12758.6 956.011 2
3 7 -5 12969.8 899.207 13
-3 -7 5 12214.3 942.867 12
-3 -7 5 13718.4 739.051 6
3 7 -5 11911.1 968.184 9
3 7 -5 14083.7 931.892 8
-3 -7 5 11777 955.759 4
3 7 -4 10419.7 826.77 13
-3 -7 4 9546.56 833.631 12
3 7 -4 11555.3 924.188 9
3 7 -4 10668.2 824.253 8
-3 -7 4 9693.16 873.661 4
-3 -7 4 9395.26 841.267 2
-3 -7 3 276.277 349.846 4
3 7 -3 698.6 354.99 13
-3 -7 3 799.079 387.63 12
-3 -7 3 213.321 343.812 2
3 7 -3 910.932 369.196 9
3 7 -3 834.589 346.89 8
-3 -7 2 1665.19 434.3 12
-3 -7 2 1664.68 426.54 2
3 7 -2 1956.82 463.009 9
3 7 -2 2308.99 344.778 3
3 7 -2 1831.22 408.464 8
-3 -7 2 1670.98 477.467 4
-3 -7 1 15651.7 1082.63 2
-3 -7 1 13743 1012.25 12
3 7 -1 15123.9 888.786 3
3 7 -1 15866.9 1069.12 9
3 7 -1 16005.4 1040.81 8
-3 -7 1 15644.9 1094.42 4
-3 -7 0 9671.17 867.385 2
-3 -7 0 8935.02 811.008 12
3 7 0 10756.9 777.602 3
3 7 0 10121.2 842.743 9
3 7 0 9861.87 846.258 8
-3 -7 0 10218.7 902.47 4
-3 -7 -1 442.717 363.349 4
-3 -7 -1 96.1042 284.159 12
-3 -7 -1 -113.338 353.893 2
3 7 1 -198.398 343.845 9
3 7 1 224.121 276.883 3
3 7 1 -167.528 323.491 8
-3 -7 -2 2869.1 558.933 4
-3 -7 -2 2684.11 476.639 12
-3 -7 -2 3495.15 583.128 2
3 7 2 2506.63 466.002 9
3 7 2 3370.57 515.811 3
3 7 2 2428.5 507.465 8
-3 -7 -3 2727.43 600.289 4
-3 -7 -3 1569.26 432.438 12
-3 -7 -3 1106.32 420.7 2
3 7 3 1880.5 463.891 3
3 7 3 1359.81 446.869 8
-3 -7 -4 816.238 401.092 4
-3 -7 -4 109.989 282.634 12
-3 -7 -4 139.303 350.773 2
3 7 4 538.728 392.135 3
3 7 4 31.1678 338.539 8
-3 -7 -5 668.759 408.445 4
-3 -7 -5 -190.62 336.714 2
3 7 5 287.538 394.787 8
3 7 5 223.844 343.793 3
-3 -7 -6 -465.777 457.858 4
-3 -7 -6 792.068 418.378 2
3 7 6 18.3767 354.06 8
3 7 6 381.114 409.985 3
-3 -7 -7 513.124 377.458 2
-3 -8 14 3227.68 657.167 6
-3 -8 13 1080.74 415.041 12
3 8 -13 882.32 473.74 11
-3 -8 13 820.415 419.358 6
3 8 -13 843.682 529.045 5
-3 -8 12 10345.2 935.676 12
-3 -8 12 10339 972.988 6
3 8 -12 10136 1039.78 11
3 8 -12 11500.5 1099.23 5
3 8 -12 11929.4 1072.27 9
-3 -8 11 1719.62 473.761 12
3 8 -11 1772.45 490.994 11
-3 -8 11 1354.41 427.196 6
3 8 -11 1616.33 508.343 5
3 8 -11 2931.22 614.799 9
3 8 -11 2720.4 499.304 8
-3 -8 10 2008.14 479.253 12
3 8 -10 1683.55 478.912 11
-3 -8 10 2013.95 445.373 6
3 8 -10 2518.75 584.222 5
3 8 -10 2225.49 543.794 9
3 8 -10 1799.03 444.841 8
-3 -8 9 1923.91 494.006 12
3 8 -9 2461.84 534.792 11
-3 -8 9 1657.22 404.748 6
3 8 -9 2367.84 547.793 5
3 8 -9 2889.52 586.607 9
3 8 -9 2741.21 530.263 8
3 8 -8 -180.652 324.36 13
-3 -8 8 68.1524 325.476 12
-3 -8 8 -46.7005 261.358 6
3 8 -8 125.144 337.197 5
-3 -8 8 244.986 323.254 2
3 8 -8 207.778 347.271 9
3 8 -8 509.455 325.96 8
-3 -8 7 2577.89 552.411 4
-3 -8 7 2048.34 465.51 12
-3 -8 7 2509.69 409.351 6
3 8 -7 2109.72 422.13 13
-3 -8 7 2201.47 496.697 2
3 8 -7 2491.98 553.975 5
3 8 -7 2089.96 507.463 9
3 8 -7 2255.29 441.438 8
-3 -8 6 5762.51 696.464 4
-3 -8 6 5985.28 691.153 2
3 8 -6 5833.91 661.061 13
3 8 -6 6342.03 751.245 9
-3 -8 6 5900.58 714.147 12
3 8 -6 7563.71 714.941 8
-3 -8 5 353.036 330.953 12
-3 -8 5 75.4775 365.453 4
3 8 -5 764.522 348.476 13
-3 -8 5 178.772 380.49 2
3 8 -5 964.301 419.374 9
3 8 -5 -204.173 309.112 8
-3 -8 4 1794.21 475.295 4
3 8 -4 3516.92 555.912 13
-3 -8 4 2655.23 520.201 12
-3 -8 4 2685.75 507.561 2
3 8 -4 4095.04 629.831 9
3 8 -4 3065.41 510.714 8
-3 -8 3 648.184 414.386 4
3 8 -3 1622.05 473.584 13
-3 -8 3 589.283 339.378 12
-3 -8 3 268.417 356.833 2
3 8 -3 1121.11 436.18 9
3 8 -3 440.581 340.959 8
-3 -8 2 569.406 386.457 4
3 8 -2 1497.76 475.973 13
-3 -8 2 122.887 347.684 12
-3 -8 2 399.112 382.773 2
3 8 -2 625.723 357.004 9
3 8 -2 1164.85 400.08 8
-3 -8 1 1410.13 409.945 12
-3 -8 1 2292.63 530.845 4
-3 -8 1 1945.71 504.55 2
3 8 -1 1755.11 487.423 9
3 8 -1 2541.18 426.464 3
3 8 -1 2216.05 468.648 8
-3 -8 0 7074.89 813.363 4
-3 -8 0 8931.86 909.838 2
-3 -8 0 8611.59 837.986 12
3 8 0 9133.95 769.167 3
3 8 0 8192.68 845.57 9
3 8 0 9629.38 860.576 8
-3 -8 -1 5413.27 719.592 4
-3 -8 -1 6043.03 734.822 12
3 8 1 6372.49 705.051 3
-3 -8 -1 5365.36 722.519 2
3 8 1 6281.13 708.257 9
3 8 1 6505.63 734.682 8
-3 -8 -2 165.493 393.688 4
-3 -8 -2 -329.751 343.361 12
-3 -8 -2 380.497 406.855 2
3 8 2 309.239 323.854 9
3 8 2 496.846 313.835 3
3 8 2 435.721 355.229 8
-3 -8 -3 146.412 320.944 12
-3 -8 -3 673.035 445.596 4
-3 -8 -3 638.604 444.599 2
3 8 3 -342.302 358.394 9
3 8 3 -101.431 389.311 3
3 8 3 -88.7346 350.003 8
-3 -8 -4 4289.19 710.03 4
-3 -8 -4 4793.15 668.815 12
-3 -8 -4 4641.97 703.904 2
3 8 4 4028.18 668.949 3
3 8 4 3242.85 641.131 8
-3 -8 -5 279.11 373.868 2
3 8 5 93.1921 396.025 8
3 8 5 466.467 404.553 3
-3 -8 -6 423.763 374.83 2
-3 -9 13 917.188 378.632 12
-3 -9 13 381.596 404.31 6
-3 -9 12 70.3919 378.556 12
3 9 -12 144.428 405.279 11
-3 -9 12 1127.69 463.104 6
-3 -9 11 -456.863 340.302 12
3 9 -11 104.473 396.351 11
-3 -9 11 6.523 334.096 6
3 9 -11 77.5915 390.313 5
3 9 -11 -77.255 342.804 9
-3 -9 10 2414.35 554.885 12
3 9 -10 3338.99 601.511 11
-3 -9 10 2078.32 490.415 6
3 9 -10 1690.7 522.847 5
3 9 -10 1930.78 558.602 9
-3 -9 9 -41.5125 345.991 12
3 9 -9 -446.025 390.16 11
3 9 -9 -72.8429 413.346 5
3 9 -9 52.7977 360.409 9
3 9 -8 2255.55 484.268 13
-3 -9 8 2396.83 560.432 4
-3 -9 8 1850.92 508.514 12
3 9 -8 1870.23 547.334 5
3 9 -8 1866.59 536.778 9
3 9 -8 1749.19 426.738 8
3 9 -7 3319.29 565.853 13
-3 -9 7 3916.25 668.787 4
-3 -9 7 2446.96 548.27 12
3 9 -7 3667.42 636.112 5
-3 -9 7 2638.05 546.298 2
3 9 -7 3465.49 649.187 9
3 9 -7 3242.55 547.622 8
-3 -9 6 75.1967 384.062 4
3 9 -6 2.75704 296.693 13
-3 -9 6 291.724 345.116 12
-3 -9 6 1177.68 481.618 2
3 9 -6 633.088 446.707 9
3 9 -6 -159.453 284.172 8
3 9 -5 640.204 389.174 13
-3 -9 5 -346.372 408.047 12
-3 -9 5 -280.291 355.242 4
-3 -9 5 105.109 354.314 2
3 9 -5 551.994 422.503 9
3 9 -5 -90.2825 291.99 8
-3 -9 4 4148.3 675.196 4
3 9 -4 3166.76 584.482 13
-3 -9 4 2538.88 561.145 12
-3 -9 4 2947.47 573.861 2
3 9 -4 3815.23 663.536 9
3 9 -4 3532.84 546.027 8
-3 -9 3 4937.65 732.055 4
3 9 -3 5754.3 766.842 13
-3 -9 3 4373.07 681.17 12
-3 -9 3 4686.38 684.863 2
3 9 -3 5065.34 714.77 9
3 9 -3 4926.5 652.182 8
-3 -9 2 772.637 426.686 4
-3 -9 2 725.37 435.182 12
-3 -9 2 1025.62 482.085 2
3 9 -2 702.89 430.748 9
3 9 -2 1105.7 390.815 8
-3 -9 1 2048.5 536.456 4
-3 -9 1 2020.37 517.201 12
-3 -9 1 2247.19 520.347 2
3 9 -1 2096.77 502.019 9
3 9 -1 3073.31 536.427 8
-3 -9 0 369.193 433.151 4
-3 -9 0 -62.5814 363.246 12
-3 -9 0 41.7574 374.154 2
3 9 0 25.8518 351.343 9
3 9 0 -177.286 331.866 8
-3 -9 -1 1017.96 477.126 4
-3 -9 -1 799.439 422.508 12
-3 -9 -1 205.846 362.856 2
3 9 1 319.977 383.762 9
3 9 1 411.112 360.69 3
3 9 1 1215.72 476.775 8
-3 -9 -2 791.52 419.303 4
-3 -9 -2 1031.34 451.951 12
-3 -9 -2 1101.69 485.135 2
3 9 2 1312.41 474.12 9
3 9 2 863.199 452.669 3
3 9 2 599.866 374.588 8
-3 -9 -3 1443.86 475.538 12
-3 -9 -3 991.782 459.47 2
3 9 3 1861.69 524.679 9
3 9 3 881.481 399.898 3
3 9 3 1439.67 472.116 8
3 9 4 860.47 422.386 9
3 10 -11 287.315 449.015 11
-3 -10 10 2978.01 648.578 12
3 10 -10 2420.6 589.344 11
-3 -10 9 564.799 407.663 12
3 10 -9 133.837 388.308 11
3 10 -8 508.576 390.625 13
-3 -10 8 202.747 382.154 12
-3 -10 8 1169.01 516.983 4
3 10 -8 1105.57 438.495 11
3 10 -8 658.154 447.202 5
3 10 -8 -121.338 428.426 9
-3 -10 7 515.536 400.144 4
3 10 -7 170.859 351.469 13
-3 -10 7 -225.771 424.444 12
3 10 -7 398.677 436.14 5
3 10 -7 -48.5804 440.577 9
-3 -10 6 1491.21 509.172 4
3 10 -6 1201.89 411.796 13
-3 -10 6 1260.12 457.247 12
-3 -10 6 662.103 398.781 2
3 10 -6 2231.74 582.589 9
-3 -10 5 325.715 414.258 4
3 10 -5 82.0543 388.001 13
-3 -10 5 930.333 432.395 12
-3 -10 5 1440.44 533.744 2
3 10 -5 1068.54 553.704 9
-3 -10 4 432.655 397.045 4
3 10 -4 630.012 447.909 13
-3 -10 4 -156.035 350.445 12
-3 -10 4 391.133 348.311 2
3 10 -4 496.17 453.536 9
-3 -10 3 972.297 509.631 4
3 10 -3 1663.87 520.042 13
-3 -10 3 1032.29 455.304 12
-3 -10 3 1349.37 505.316 2
3 10 -3 329.542 407.498 9
-3 -10 2 -72.4465 403.36 4
-3 -10 2 186.071 368.831 12
-3 -10 2 -116.325 371.214 2
3 10 -2 947.469 469.674 9
-3 -10 1 980.215 469.887 4
-3 -10 1 -21.0245 361.109 12
3 10 -1 606.583 449.99 9
3 10 -1 -329.486 356.745 8
-3 -10 0 175.44 349.027 12
3 10 0 -263.871 404.463 9
3 10 0 -425.644 370.206 8
3 10 1 4943.65 713.671 8
3 11 -9 8176.17 935.698 11
3 11 -8 156.671 429.264 13
3 11 -8 -919.316 469.644 11
3 11 -7 271.46 383.777 13
-4 11 -4 1821.43 569.117 1
4 -11 5 874.502 459.746 7
-4 11 -5 -138.615 378.834 1
4 -11 6 301.134 360.045 7
-4 11 -6 677.092 470.078 1
4 -11 7 563.714 360.3 7
-4 11 -7 350.516 464.205 1
4 -11 8 4776.01 684.261 7
-4 11 -8 4527.15 749.809 1
4 -11 9 2519.93 555.89 7
4 -11 10 1935.49 525.048 7
4 -10 -4 1332.78 545.417 7
4 -10 -3 1031.93 436.858 7
-4 10 3 1431.22 562.098 13
4 -10 -2 39.548 327.664 7
-4 10 2 587.477 439.255 13
4 -10 -2 477.632 420.781 10
4 -10 -1 283.326 381.487 7
-4 10 1 129.479 387.358 13
4 -10 -1 47.1863 419.624 10
4 -10 0 -177.382 330.866 7
-4 10 0 -441.783 427.664 13
-4 10 0 429.722 391.125 3
4 -10 0 -267.434 362.286 10
-4 10 -1 332.457 370.651 13
-4 10 -1 1093.14 479.162 1
4 -10 1 363.964 336.502 7
-4 10 -1 747.82 502.683 3
4 -10 1 266.642 379.149 10
-4 10 -2 398.664 415.719 1
4 -10 2 -54.5181 347.282 7
-4 10 -2 664.646 413.092 3
4 -10 2 -544.904 469.438 10
4 -10 3 3416.22 589.276 7
-4 10 -3 4682.56 723.112 3
4 -10 3 4256.48 692.968 10
-4 10 -3 3657.79 622.905 1
4 -10 4 914.971 378.407 7
-4 10 -4 1386.92 512.837 3
-4 10 -4 2059.57 524.538 1
4 -10 4 2076.78 503.441 10
4 -10 5 2460.63 491.895 7
-4 10 -5 2679.77 566.757 1
4 -10 5 2805.52 618.578 10
4 -10 6 3220.33 565.596 7
-4 10 -6 1873.63 543.448 1
4 -10 6 2348.06 573.88 10
4 -10 7 381.653 373.317 7
-4 10 -7 188.805 388.154 1
4 -10 7 -522.412 449.126 10
-4 10 -8 318.893 487.475 1
4 -10 8 281.083 338.595 7
4 -10 8 -89.2104 363.166 14
4 -10 8 -176.725 373.658 10
4 -10 9 5330.71 717.607 7
4 -10 9 4226.73 674.028 14
4 -10 9 3701.2 677.577 10
-4 10 -9 4883 758.1 1
4 -10 10 491.803 389.396 7
4 -10 10 1045.12 489.676 14
4 -10 10 131 411.85 10
4 -10 11 -358.951 417.233 7
4 -10 11 318.838 361.735 10
4 -10 12 -305.052 359.513 10
4 -9 -5 84.7411 352.332 7
4 -9 -5 20.8811 385.928 10
4 -9 -4 433.169 388.561 7
4 -9 -4 25.6013 348.064 10
4 -9 -3 1139.72 462.024 7
-4 9 3 833.869 366.232 13
-4 9 3 -38.7889 426.889 3
4 -9 -3 829.292 425.543 10
4 -9 -2 855.212 393.995 7
-4 9 2 1166.78 424.799 13
-4 9 2 526.605 461.577 3
4 -9 -2 769.144 432.251 10
-4 9 2 738.87 447.709 1
-4 9 1 440.176 334.168 1
4 -9 -1 701.249 402.394 7
-4 9 1 -283.371 351.366 13
-4 9 1 -380.792 443.669 3
4 -9 -1 504.234 361.595 10
4 -9 0 2087.34 487.852 7
-4 9 0 1029.2 410.321 13
-4 9 0 1847.28 493.216 1
-4 9 0 1710.38 561.06 3
4 -9 0 1485.71 449.755 10
-4 9 -1 -457.374 372.172 1
4 -9 1 423.96 372.578 7
-4 9 -1 -32.4188 371.703 3
4 -9 1 110.535 357.188 10
4 -9 2 876.241 362.409 7
-4 9 -2 43.059 342.182 3
4 -9 2 391.704 400.195 10
-4 9 -2 362.731 370.874 1
4 -9 3 514.528 359.349 7
-4 9 -3 -198.343 357.798 1
4 -9 3 180.56 351.331 10
4 -9 4 351.695 353.939 7
-4 9 -4 85.3678 354.18 1
4 -9 4 482.224 385.104 10
4 -9 5 432.489 352.523 7
-4 9 -5 124.323 345.733 1
4 -9 5 443.684 420.504 10
4 -9 6 2543.52 516.158 7
-4 9 -6 1537.75 463.838 1
4 -9 6 1896.25 457.312 14
4 -9 6 1707.54 461.134 10
-4 9 -7 1167.15 425.709 1
4 -9 7 1800.29 471.164 7
4 -9 7 2271.75 504.138 14
4 -9 7 1052.8 425.855 10
4 -9 8 2756.98 541.714 14
4 -9 8 1459.93 408.568 7
4 -9 8 2084.84 488.345 10
-4 9 -8 1127.5 453.787 1
4 -9 9 6954.19 826.286 7
4 -9 9 7069.38 800.65 14
4 -9 9 4813.67 706.62 10
-4 9 -9 6678.75 867.615 1
4 -9 10 934.039 435.279 7
4 -9 10 939.023 424.855 14
4 -9 10 714.554 449.544 10
-4 9 -10 1926.5 551.318 1
4 -9 11 227.916 384.995 7
4 -9 11 313.481 430.323 14
4 -9 11 84.2019 337.564 10
4 -9 12 652.355 401.425 10
4 -8 -7 38.5097 383.83 7
4 -8 -6 1144.88 471.654 7
-4 8 6 1927.23 593.863 3
4 -8 -5 3376.92 592.807 7
-4 8 5 5275.95 786.126 3
4 -8 -5 4767.83 632.527 10
-4 8 4 343.456 310.637 13
4 -8 -4 173.937 319.97 7
-4 8 4 -590.461 389.287 3
4 -8 -4 406.788 336.294 10
-4 8 3 1337.83 413.95 13
-4 8 3 1112.4 436.656 1
-4 8 3 838.169 381.951 3
4 -8 -3 941.583 394.066 10
4 -8 -2 2342.55 554.875 7
-4 8 2 2121.59 440.099 13
-4 8 2 2475.84 501.663 1
-4 8 2 2481.46 554.069 3
4 -8 -2 1682.49 448.439 10
4 -8 -1 13485.3 1027.2 7
-4 8 1 13980.3 1113.85 3
4 -8 -1 14075.5 1084.73 10
-4 8 1 14377.3 1040.54 1
4 -8 0 4196.07 603.968 7
-4 8 0 4961.77 693.031 1
-4 8 0 3941.41 652.362 3
4 -8 0 4304.7 655.094 10
-4 8 -1 1045.92 399.461 3
4 -8 1 1962.84 497.735 10
4 -8 1 1081.64 402.489 7
-4 8 -1 1507.53 447.212 1
4 -8 2 4863.58 665.384 10
-4 8 -2 4795.64 663.804 1
4 -8 2 4796.38 614.9 7
4 -8 3 4814.42 635.827 7
-4 8 -3 4229.82 603.568 1
4 -8 3 5219.4 695.986 10
4 -8 4 5579.04 590.36 14
4 -8 4 5036.82 638.466 7
-4 8 -4 6448.57 742.599 1
4 -8 4 5646.17 706.16 10
4 -8 5 6772.73 650.625 14
4 -8 5 5437.19 654.932 7
-4 8 -5 4982.73 656.446 1
4 -8 5 5582.96 708.918 10
-4 8 -6 1748.15 472.962 1
4 -8 6 2449.06 517.71 7
4 -8 6 2036.75 471.359 14
4 -8 6 1159.89 408.137 10
4 -8 7 16248.6 1128.64 7
4 -8 7 16688.6 1095.63 14
4 -8 7 15691.6 1149.38 10
-4 8 -7 15131.4 1134.91 1
4 -8 8 1394.68 423.389 7
4 -8 8 1711.41 444.443 14
4 -8 8 1349.58 435.035 10
-4 8 -8 1876.43 519.466 1
4 -8 9 1163.31 429.005 7
4 -8 9 1793.63 474.518 14
4 -8 9 2011.92 480.375 10
-4 8 -9 2480.39 555.935 1
4 -8 10 61.4104 342.326 7
4 -8 10 56.6838 362.341 14
4 -8 10 335.125 321.45 10
-4 8 -10 207.597 455.45 1
4 -8 11 380.433 432.463 7
4 -8 11 -305.098 388.799 14
4 -8 11 -462.735 349.149 10
-4 8 -11 353.16 490.725 1
4 -8 12 652.275 427.181 7
4 -8 12 1082.55 525.741 14
4 -7 -8 -8.75873 370.959 7
-4 7 8 13.126 414.404 6
-4 7 8 -2.67708 412.424 3
4 -7 -7 -27.4849 442.343 7
-4 7 7 32.673 390.083 6
-4 7 7 743.027 503.748 3
4 -7 -6 -511.813 399.257 7
-4 7 6 32.6225 358.673 3
4 -7 -5 -396.551 342.627 7
-4 7 5 -50.2299 365.033 3
4 -7 -5 34.3367 337.566 10
4 -7 -4 -256.478 378.658 7
-4 7 4 568.442 322.611 13
-4 7 4 -187.675 348.764 3
4 -7 -4 177.748 317.214 10
-4 7 4 43.0545 377.284 1
-4 7 3 451.032 333.435 1
4 -7 -3 240.165 322.762 7
-4 7 3 -186.013 303.871 13
-4 7 3 -68.1913 373.66 3
4 -7 -3 324.7 356.072 10
-4 7 2 2662 509.136 1
4 -7 -2 3041.56 525.041 7
-4 7 2 3708.39 589.505 3
4 -7 -2 2556.04 497.568 10
4 -7 -1 224.734 297.783 7
-4 7 1 445.977 354.554 1
-4 7 1 380.629 325.932 3
4 -7 -1 872.807 412.77 10
-4 7 0 634.221 349.253 1
4 -7 0 650.008 336.724 7
-4 7 0 1068.92 432.049 3
4 -7 0 417.195 306.234 10
4 -7 1 -131.929 305.835 7
4 -7 1 -200.596 350.82 10
-4 7 -1 421.836 334.109 1
4 -7 2 10730.5 862.026 7
-4 7 -2 9783.54 831.004 1
4 -7 2 8535.73 814.322 10
4 -7 3 1251.55 406.089 7
4 -7 3 1318.38 319.538 14
-4 7 -3 665.073 369.601 1
4 -7 3 658.001 351.092 10
4 -7 4 -255.986 325.163 7
4 -7 4 572.935 307.913 14
-4 7 -4 43.9425 355.591 1
4 -7 4 531.166 379.999 10
4 -7 5 19765.7 1178.95 7
4 -7 5 17706.8 1022.36 14
4 -7 5 19142.6 1186.58 10
-4 7 -5 18756.2 1154.42 1
-4 7 -6 -201.791 325.373 1
4 -7 6 -63.448 303.641 7
4 -7 6 166.726 290.123 14
4 -7 6 284.067 335.803 10
4 -7 7 529.969 369.339 7
4 -7 7 529.84 307.175 14
4 -7 7 -248.393 312.925 10
-4 7 -7 0.66058 330.713 1
4 -7 8 780.331 377.554 7
4 -7 8 207.977 314.961 10
-4 7 -8 453.604 357.453 1
4 -7 9 -35.1848 336.8 7
4 -7 9 297.882 328.456 14
4 -7 9 20.5364 301.815 10
-4 7 -9 -178.981 410.97 1
4 -7 10 -116.703 371.926 7
4 -7 10 -266.64 368.46 14
4 -7 10 -66.4131 349.056 10
-4 7 -10 -5.76675 374.833 1
4 -7 11 -203.641 385.363 7
4 -7 11 397.781 411.064 14
4 -7 11 460.322 343.924 10
-4 7 -11 -6.92494 406.323 1
4 -7 12 3518.54 635.846 7
4 -7 12 3332.44 636.992 14
-4 7 -12 3685.02 691.804 1
-4 6 10 460.523 434.903 3
4 -6 -9 85.6087 376.501 7
-4 6 9 881.633 450.394 6
-4 6 9 502.751 406.31 3
4 -6 -8 1080.86 467.147 7
-4 6 8 397.153 417.981 6
-4 6 8 1997.61 544.009 3
4 -6 -7 2587.5 538.769 7
-4 6 7 3269.84 606.261 6
-4 6 7 3358.13 597.302 3
4 -6 -6 3937.84 611.874 7
-4 6 6 3959.35 616.163 3
4 -6 -6 3265.64 521.824 10
-4 6 5 5379.25 531.461 13
4 -6 -5 4517.66 654.362 7
4 -6 -5 5838.38 684.846 10
-4 6 5 3885.5 613.587 3
-4 6 4 3988.04 473.633 13
4 -6 -4 4196 586.069 7
-4 6 4 3192.86 513.064 1
-4 6 4 3464.61 549.607 3
4 -6 -4 3641.67 533.714 10
-4 6 3 998.958 312.853 13
4 -6 -3 918.385 427.455 7
-4 6 3 744.035 377.468 3
-4 6 3 2215.46 475.23 1
4 -6 -3 1219.28 364.22 10
4 -6 -2 541.726 336.885 7
-4 6 2 905.744 404.812 3
4 -6 -2 -17.9806 370.371 10
-4 6 2 10.4924 306.869 1
4 -6 -1 1698.41 413.219 7
-4 6 1 855.44 384.659 1
-4 6 1 1217.4 398.851 3
4 -6 -1 1609.07 382.869 10
-4 6 0 800.719 351.691 1
4 -6 0 174.237 310.234 7
4 -6 0 1301.28 367.832 10
4 -6 1 137.628 297.445 7
4 -6 1 902.595 245.223 14
4 -6 1 405.97 332.406 10
-4 6 -1 649.86 305.82 1
4 -6 1 692.775 163.491 8
-4 6 -2 15736.3 1024.95 1
4 -6 2 16141 1049.3 7
4 -6 2 17732.4 845.183 14
4 -6 2 17042.3 1094.25 10
4 -6 2 17855.1 663.514 8
4 -6 3 43463.9 1780.05 7
4 -6 3 42087.2 1502.92 14
4 -6 3 44953.8 1849.42 10
-4 6 -3 41059 1743.68 1
4 -6 4 11584.2 888.268 7
4 -6 4 11106.1 745.382 14
4 -6 4 10682.2 885.907 10
-4 6 -4 10901.8 857.222 1
-4 6 -5 510.467 329.869 1
4 -6 5 398.143 312.631 7
4 -6 5 904.066 323.53 14
4 -6 5 522.697 327.092 10
4 -6 6 1778.43 441.293 7
4 -6 6 1667.2 383.965 14
4 -6 6 1841.3 400.089 10
-4 6 -6 1716.67 443.652 1
4 -6 7 243.916 299.182 7
4 -6 7 686.899 360.788 14
4 -6 7 656.312 339.582 10
-4 6 -7 379.529 378.244 1
4 -6 8 192.908 335.516 7
4 -6 8 130.838 321.523 14
4 -6 8 136.717 320.952 10
-4 6 -8 162.232 337.561 1
4 -6 9 465.236 343.425 7
4 -6 9 564.112 344.799 10
-4 6 -9 -171.019 358.615 1
4 -6 9 -668.719 403.992 14
4 -6 10 1005.15 453.715 7
4 -6 10 1260.66 431.641 14
-4 6 -10 1786.41 407.921 11
4 -6 10 1263.06 366.09 10
-4 6 -10 832.428 445.335 1
4 -6 11 9615.21 936.328 14
-4 6 -11 10020.7 864.12 11
4 -6 11 12013.9 892.059 10
-4 6 -11 10469.5 999.729 1
4 -6 11 10064.1 999.419 7
4 -6 12 460.441 408.722 7
4 -6 12 618.168 405.689 14
-4 6 -12 682.957 335.673 11
-4 6 -12 1559.2 517.881 1
4 -6 13 1979.97 594.488 14
-4 6 -13 1908.46 468.656 11
-4 6 -13 2660.43 658.552 1
-4 6 -14 1249.87 454.86 11
-4 5 11 -49.4305 378.047 3
4 -5 -10 -11.4721 373.958 7
-4 5 10 339.342 443.012 6
-4 5 10 -173.513 410.843 3
4 -5 -9 -411.212 364.188 7
-4 5 9 612.75 472.549 6
-4 5 9 691.742 421.481 3
4 -5 -8 1824.11 510.188 7
-4 5 8 1968.7 535.877 6
-4 5 8 2543.13 528.674 3
4 -5 -7 754.32 388.658 7
-4 5 7 573.519 402.153 6
4 -5 -7 1602.47 401.483 10
-4 5 7 488.871 336.392 3
4 -5 -6 7625.79 777.45 7
-4 5 6 8192.62 787.559 3
4 -5 -6 9054.87 766.371 10
-4 5 5 251.943 206.743 13
4 -5 -5 172.715 305.013 7
-4 5 5 248.373 299.928 3
4 -5 -5 -273.547 308.895 10
-4 5 4 812.486 269.041 13
4 -5 -4 860.446 346.878 7
-4 5 4 1081.6 406.271 3
4 -5 -4 587.155 322.929 10
-4 5 4 753.614 364.062 1
4 -5 -3 264.065 324.993 7
-4 5 3 143.494 296.143 1
-4 5 3 328.477 310.762 3
4 -5 -3 639.196 347.307 10
4 -5 -2 -105.423 286.442 7
-4 5 2 -54.8268 270.789 3
4 -5 -2 -70.1114 306.974 10
-4 5 2 -113.912 321.453 1
4 -5 -1 13005 898.872 7
-4 5 1 12847.8 899.49 1
4 -5 -1 12209.8 884.8 10
4 -5 0 76.0858 138.823 14
4 -5 0 248.498 282.881 7
4 -5 0 235.77 64.4511 11
4 -5 0 113.95 279.136 10
-4 5 0 314.353 298.175 1
4 -5 1 8363.07 719.051 7
-4 5 -1 7224.15 685.333 1
4 -5 1 7376.37 483.864 14
4 -5 1 7469.23 705.282 10
4 -5 1 9241.57 519.583 8
4 -5 2 4988.6 427.331 14
4 -5 2 4290.5 557.778 7
-4 5 -2 4838.96 579.33 1
4 -5 2 3952.09 535.028 10
4 -5 2 5109.34 368.519 8
4 -5 3 3007.57 368.305 14
-4 5 -3 2762.64 467.02 1
4 -5 3 3169.81 489.48 7
4 -5 3 3158.23 502.659 10
4 -5 3 3375.45 290.272 8
-4 5 -4 4551.56 541.75 1
4 -5 4 3961.76 557.198 7
4 -5 4 4033.3 457.726 14
4 -5 4 4419.51 575.249 10
4 -5 4 4961.33 342.539 8
4 -5 5 6739.71 659.328 7
4 -5 5 6415.16 585.376 14
4 -5 5 6387.11 663.213 10
4 -5 5 7733.71 441.188 8
-4 5 -5 7845.18 725.417 1
4 -5 6 -404.584 299.133 14
4 -5 6 -195.556 289.725 10
4 -5 6 -5.85645 129.044 8
-4 5 -6 -92.2429 305.615 1
4 -5 6 95.9328 317.001 7
4 -5 7 116.523 306.994 7
4 -5 7 663.521 335.172 14
4 -5 7 438.649 305.925 10
-4 5 -7 -40.8311 328.82 1
4 -5 7 274.703 154.884 8
4 -5 8 4024.42 584.742 7
4 -5 8 4088.61 570.925 14
4 -5 8 5057.98 587.499 10
-4 5 -8 4818.16 620.528 1
4 -5 9 1072.17 359.86 7
4 -5 9 1242.22 426.509 14
4 -5 9 1418.77 327.91 10
-4 5 -9 1032 413.402 1
4 -5 10 2689.39 562.806 7
4 -5 10 2206.52 529.456 14
4 -5 10 2435.85 433.713 10
-4 5 -10 2947.76 579.332 1
4 -5 11 -82.4184 373.291 7
4 -5 11 313.959 393.985 14
-4 5 -11 -7.52186 300.528 11
4 -5 11 92.1237 262.475 10
-4 5 -11 -180.997 377.685 1
4 -5 12 146.254 405.565 14
-4 5 -12 107.629 332.292 11
-4 5 -12 377.621 391.097 1
4 -5 13 -523.51 495.409 14
-4 5 -13 -387.606 432.628 11
-4 5 -13 526.246 441.244 1
-4 5 -14 -649.956 498.046 11
-4 4 12 224.51 373.965 3
4 -4 -11 1370.13 521.697 7
-4 4 11 360.911 414.752 6
-4 4 11 1082.87 433.867 3
4 -4 -10 2182.27 557.598 7
-4 4 10 1700.19 523.983 6
-4 4 10 1620.64 447.103 3
4 -4 -9 20151.1 1338.61 7
-4 4 9 18646.4 1305.66 6
-4 4 9 19654.2 1214.7 3
4 -4 -8 2341.2 530.567 7
-4 4 8 2390.62 542.831 6
4 -4 -8 2173.52 408.86 10
-4 4 8 2024 441.946 3
4 -4 -7 4409.19 631.041 7
-4 4 7 3089.96 597.118 6
4 -4 -7 3567.03 418.874 11
4 -4 -7 4299.33 527.688 10
-4 4 7 3892.34 560.274 3
4 -4 -6 4828.76 614.706 7
4 -4 -6 4736.66 437.701 11
-4 4 6 5526.36 613.127 3
4 -4 -6 4958.79 566.643 10
4 -4 -5 50675.3 1989.94 7
-4 4 5 51547.5 1571.56 13
-4 4 5 49891.9 1912.12 3
4 -4 -5 51933.5 1583.33 11
4 -4 -5 46589.2 1870.05 10
4 -4 -4 23722.7 1262.39 7
-4 4 4 21416.9 1215.34 1
-4 4 4 22756.2 1202.02 3
4 -4 -4 24398.6 915.971 11
4 -4 -4 24999 1238.07 10
4 -4 -3 389.425 330.196 7
-4 4 3 307.331 317.548 1
4 -4 -3 308.1 136.235 11
-4 4 3 594.658 305.096 3
4 -4 -3 527.82 338.729 10
4 -4 -3 623.481 120.781 4
4 -4 -2 1829.58 386.544 7
4 -4 -2 2131.24 227.028 11
4 -4 -2 2083.7 449.251 10
-4 4 2 2181.32 410.623 1
4 -4 -1 69485.3 2289.75 7
4 -4 -1 66976.7 1653.71 14
-4 4 1 69801.6 2281.92 1
4 -4 -1 70497.7 2332.96 10
4 -4 0 10693.2 796.712 7
-4 4 0 10630.7 783.868 1
4 -4 0 11440 538.678 14
4 -4 0 12723.3 871.906 10
4 -4 1 11160.8 806.767 7
-4 4 -1 10473.1 793.564 1
4 -4 1 10303.9 566.868 14
4 -4 1 11987.6 546.593 11
4 -4 1 12221.4 871.108 10
4 -4 1 12248.9 633.164 8
4 -4 2 1062.74 238.665 14
4 -4 2 671.841 282.039 7
-4 4 -2 691.203 317.603 1
4 -4 2 1250.69 388.743 10
4 -4 2 777.172 190.46 8
4 -4 3 3045.04 404.339 14
-4 4 -3 3116.98 459.539 1
4 -4 3 2722.67 472.872 7
4 -4 3 2922.87 470.988 10
4 -4 3 2662.4 230.125 5
-4 4 -3 2250.3 157.464 4
4 -4 3 2587.71 284.604 8
-4 4 -4 433.844 142.765 4
-4 4 -4 457.746 306.017 1
4 -4 4 -27.2297 247.521 14
4 -4 4 -201.514 288.217 7
4 -4 4 66.9362 293.977 10
4 -4 4 386.014 183.923 8
4 -4 5 620.464 354.35 7
4 -4 5 886.723 348.147 10
4 -4 5 706.014 297.118 14
4 -4 5 183.392 155.829 8
-4 4 -5 366.624 317.14 1
-4 4 -5 192.678 155.144 4
4 -4 6 75.4678 291.714 7
4 -4 6 548.241 329.119 14
4 -4 6 313.321 290.009 10
-4 4 -6 -13.2045 304.981 1
4 -4 6 208.097 166.594 8
-4 4 -6 110.303 188.003 4
4 -4 7 3263.42 529.723 7
4 -4 7 4556.01 582.961 14
4 -4 7 3386.19 524.294 10
4 -4 7 4410.39 428.816 8
-4 4 -7 3345.17 507.043 1
-4 4 -7 3849.1 414.657 4
4 -4 8 3101.99 536.406 7
4 -4 8 2756.18 541.195 14
4 -4 8 3487.16 490.398 10
-4 4 -8 2516.96 472.038 1
4 -4 8 2780.06 366.268 8
-4 4 -8 3154.85 419.983 4
4 -4 9 1951.39 466.9 7
4 -4 9 3108.18 528.185 14
4 -4 9 2379.34 407.422 10
-4 4 -9 3048.66 495.519 1
4 -4 9 2868.93 403.114 8
-4 4 -9 2968.29 446.724 4
4 -4 10 433.607 376.072 7
4 -4 10 1110.13 463.298 14
4 -4 10 221.543 268.467 10
-4 4 -10 604.655 395.2 1
4 -4 10 600.557 292.146 8
-4 4 -10 114.537 283.234 4
4 -4 11 948.577 437.29 7
4 -4 11 389.868 393.982 14
-4 4 -11 824.4 406.285 1
4 -4 11 283.99 259.31 8
-4 4 -11 643.641 346.869 4
4 -4 12 -891.34 454.339 14
-4 4 -12 -88.4752 365.227 11
-4 4 -12 288.099 409.906 4
4 -4 13 1947.77 575.165 14
-4 4 -13 984.838 427.759 11
-4 4 -13 2569.33 617.182 1
-4 4 -13 2192.89 522.648 4
-4 4 -14 -41.0869 424.348 11
-4 4 -14 -399.227 398.156 4
-4 3 12 1166.75 524.376 6
-4 3 11 490.809 452.808 6
4 -3 -11 397.542 360.504 11
-4 3 11 -293.342 353.017 3
-4 3 10 940.915 436.405 6
4 -3 -10 1535.88 380.071 11
-4 3 10 1000.68 372.397 3
4 -3 -9 141.279 370.966 7
-4 3 9 67.9633 396.21 6
4 -3 -9 81.0601 247.115 11
-4 3 9 457.594 297.27 3
4 -3 -8 239.275 345.553 7
-4 3 8 249.23 378.273 6
4 -3 -8 513.774 280.186 11
4 -3 -8 28.3298 254.203 10
-4 3 8 -37.9989 284.096 3
4 -3 -7 511.225 312.186 7
-4 3 7 691.275 414.051 6
4 -3 -7 793.351 298.687 11
4 -3 -7 295.255 260.858 10
-4 3 7 1231.56 345.674 3
4 -3 -6 497.568 342.766 7
4 -3 -6 268.709 215.058 11
-4 3 6 30.2778 257 3
4 -3 -6 195.188 279.104 10
4 -3 -5 -197.116 287.406 7
4 -3 -5 -173.489 188.131 11
-4 3 5 129.797 250.503 3
4 -3 -5 201.945 298.637 10
4 -3 -4 301.032 275.227 7
4 -3 -4 180.098 179.197 11
-4 3 4 175.214 312.443 1
-4 3 4 136.72 235.998 3
4 -3 -4 102.404 287.519 10
4 -3 -3 30231.5 1371.62 7
-4 3 3 29840.1 1376.66 1
4 -3 -3 32041.5 1119.67 11
4 -3 -3 31141.2 1398.21 10
4 -3 -3 32592.7 950.596 4
4 -3 -2 4531.35 221.513 14
4 -3 -2 5384.52 562.134 7
4 -3 -2 5584.65 599.462 10
-4 3 2 4575.04 530.56 1
4 -3 -2 5459 267.966 4
4 -3 -1 15903.7 924.334 7
4 -3 -1 14872 559.641 14
-4 3 1 14135.3 889.419 1
4 -3 -1 15831.1 950.452 10
4 -3 -1 14501.7 435.693 4
4 -3 0 414.063 272.348 7
4 -3 0 660.691 182.761 14
4 -3 0 1335.88 400.635 10
-4 3 0 420.718 318.119 1
4 -3 0 456.469 208.602 8
4 -3 1 41156 1573.59 7
-4 3 -1 41543.5 1581.56 1
4 -3 1 42202.3 1310.71 14
4 -3 1 40902.7 1619.99 10
4 -3 1 45167.5 1403.78 8
-4 3 -1 37765.1 967.925 4
4 -3 2 2998.03 360.067 14
4 -3 2 3097.92 458.117 7
-4 3 -2 2862.03 416.663 1
4 -3 2 3948.04 526.091 10
4 -3 2 2942.81 215.285 5
-4 3 -2 3210.37 221.178 4
4 -3 2 2840.05 332.557 8
4 -3 3 8759.23 712.172 7
4 -3 3 7916.2 600.602 14
4 -3 3 8577.45 733.911 10
4 -3 3 9533.64 468.854 5
4 -3 3 9292.08 570.359 8
-4 3 -3 9409 446.6 4
-4 3 -3 9343.36 710.17 1
-4 3 -4 1236.36 230.595 4
-4 3 -4 549.464 300.492 1
4 -3 4 897.099 343.19 7
4 -3 4 1169.19 340.254 14
4 -3 4 1262.65 363.217 10
4 -3 4 815.917 226.02 8
4 -3 5 9241.17 753.04 7
4 -3 5 8692.27 687.608 14
4 -3 5 10350.7 781.587 10
4 -3 5 9354.96 607.072 8
-4 3 -5 10026.6 567.223 4
-4 3 -5 9947.29 747.676 1
4 -3 6 7808.59 704.77 7
4 -3 6 8146.75 709.281 14
4 -3 6 8730.93 723.19 10
4 -3 6 8850.47 606.955 8
-4 3 -6 8718.25 595.893 4
-4 3 -6 9250.24 744.762 1
4 -3 7 4613.98 594.445 7
4 -3 7 4820.45 581.225 14
4 -3 7 5404.78 596.611 10
-4 3 -7 5574.75 627.322 1
4 -3 7 4828.44 489.768 8
-4 3 -7 4843.75 472.439 4
4 -3 8 408.44 318.075 7
4 -3 8 853.198 308.442 10
-4 3 -8 -18.24 288.45 1
4 -3 8 235.583 241.326 8
-4 3 -8 -145.73 249.966 4
4 -3 9 70.9699 367.935 7
4 -3 9 491.21 383.415 14
4 -3 9 455.735 263.032 10
-4 3 -9 432.025 346.593 1
4 -3 9 213.513 295.043 8
-4 3 -9 529.094 315.176 4
4 -3 10 625.476 406.916 7
4 -3 10 587.784 396.54 14
4 -3 10 265.544 261.393 10
-4 3 -10 301.5 379.773 1
4 -3 10 561.542 317.33 8
-4 3 -10 658 363.258 4
4 -3 11 5469.41 747.874 14
-4 3 -11 5820.01 715.487 1
4 -3 11 6047.19 661.387 8
-4 3 -11 7003.59 725.139 4
4 -3 12 1705.79 540.785 14
-4 3 -12 2199.83 529.678 1
4 -3 12 2119.43 481.966 8
-4 3 -12 2537.33 555.714 4
4 -3 13 512.892 460.523 14
-4 3 -13 129.138 434.946 1
4 -3 13 -72.224 348.931 8
-4 3 -13 -72.1605 367.065 4
-4 3 -14 2207.99 587.694 1
-4 3 -14 1721.28 559.87 4
4 -2 -14 941.123 456.281 11
4 -2 -13 130.782 332.171 11
-4 2 12 29.9638 406.392 6
4 -2 -12 -160.562 341.45 11
-4 2 11 507.698 408.191 6
4 -2 -11 292.223 292.991 11
-4 2 11 339.168 293.924 3
-4 2 10 988.497 419.811 6
4 -2 -10 1417.23 371.955 11
-4 2 10 663.555 315.54 3
-4 2 9 1534.25 434.304 6
4 -2 -9 1600.57 376.645 11
-4 2 9 1057.97 305.747 3
4 -2 -8 814.479 380.72 7
-4 2 8 784.894 394.997 6
4 -2 -8 1454.79 347.725 11
4 -2 -8 1221.08 338.974 10
-4 2 8 1325.91 340.488 3
4 -2 -7 5780.83 634.182 7
-4 2 7 5581.12 532.522 3
-4 2 7 4879.5 654.305 6
4 -2 -7 5417.94 538.282 11
4 -2 -7 5984.94 577.617 10
-4 2 6 3285.93 221.493 13
4 -2 -6 2885.2 458.101 7
-4 2 6 3161.99 530.218 6
4 -2 -6 2930.72 395.747 11
-4 2 6 3043.26 404.825 3
4 -2 -6 2799.78 435.88 10
4 -2 -5 425.334 313.048 7
4 -2 -5 321.412 223.859 11
-4 2 5 191.039 224.006 3
4 -2 -4 1400.65 363.824 7
4 -2 -4 1422.11 289.292 11
-4 2 4 857.607 265.908 3
-4 2 4 997.097 342 1
4 -2 -3 40907.7 1570.88 7
-4 2 3 40740.9 1593.47 1
4 -2 -3 44041.4 1215.04 4
4 -2 -3 37860.7 931.356 14
4 -2 -2 5779.23 553.712 7
-4 2 2 5782.91 580.196 1
4 -2 -2 5399.59 330.725 4
4 -2 -1 1302.42 166.439 4
4 -2 -1 960.263 298.942 7
-4 2 1 989.473 313.54 1
4 -2 0 9270.65 683.337 7
-4 2 0 8859.38 686.656 1
4 -2 0 10205 446.81 4
4 -2 0 9760.29 624.133 8
-4 2 0 9666.7 435.414 4
-4 2 -1 227.234 138.353 4
4 -2 1 141.332 252.16 7
-4 2 -1 448.452 269.829 1
4 -2 1 350.966 138.039 4
4 -2 1 684.228 275.822 8
4 -2 2 2583.96 400.134 7
-4 2 -2 3232.73 441.154 1
-4 2 -2 3921.16 323.419 9
-4 2 -2 3177.63 293.635 4
4 -2 2 3731.28 410.343 8
4 -2 3 7078.27 609.032 7
-4 2 -3 7105.52 374.863 9
4 -2 3 6874.46 527.82 8
-4 2 -3 6424.54 441.21 4
-4 2 -3 7420.05 608.099 1
-4 2 -4 504.888 214.5 4
-4 2 -4 494.827 280.996 1
4 -2 4 358.661 281.086 7
4 -2 4 239.65 222.375 8
4 -2 5 21651.2 1146.36 7
4 -2 5 24530.7 1087.99 8
-4 2 -5 25046.1 1026.62 4
-4 2 -5 24945.9 1177.6 1
4 -2 6 474.994 328.022 7
-4 2 -6 123.138 279.869 1
4 -2 6 357.168 240.31 8
-4 2 -6 208.345 220.411 4
4 -2 7 24947 1341.57 7
4 -2 7 32034.5 1359.59 10
4 -2 7 30518.6 1324.92 8
-4 2 -7 29084.4 1272.15 4
-4 2 -7 30792.7 1372.99 1
4 -2 8 5442.33 644.842 7
4 -2 8 5739.66 686.462 14
4 -2 8 4475.83 536.536 10
-4 2 -8 4982.04 623.254 1
4 -2 8 5676.61 585.538 8
-4 2 -8 4030.27 496.208 4
4 -2 9 1860.91 460.618 7
4 -2 9 1576.13 491.991 14
4 -2 9 2630.6 413.807 10
-4 2 -9 1630.51 408.395 1
4 -2 9 1475.59 392.349 8
-4 2 -9 1856.19 397.757 4
4 -2 10 3087 605.223 14
-4 2 -10 2606.45 519.932 1
4 -2 10 3072.17 520.125 8
-4 2 -10 2398.9 466.638 4
4 -2 11 1013.43 514.26 14
-4 2 -11 335.469 339.689 1
4 -2 11 680.699 324.797 8
-4 2 -11 376.139 376.922 4
4 -2 12 5787.22 830.494 14
-4 2 -12 5864.17 743.497 1
4 -2 12 6213.64 746.384 8
-4 2 -12 6479.24 780.666 4
4 -2 13 705.64 499.16 14
-4 2 -13 855.143 439.343 1
4 -2 13 1490.48 487.948 8
-4 2 -13 781.444 464.413 4
-4 2 -14 3707.94 711.09 1
4 -2 14 3244.26 671.056 8
4 -1 -14 3981.76 680.37 11
-4 1 13 2821.36 623.071 6
4 -1 -13 1336.16 470.643 11
-4 1 12 3399.02 659.447 6
4 -1 -12 3416.15 582.474 11
-4 1 11 74.3526 371.94 6
4 -1 -11 -22.8663 290.776 11
-4 1 10 584.186 408.349 6
4 -1 -10 1137.11 429.186 11
-4 1 10 981.319 298.971 3
-4 1 9 84.1964 362.21 6
4 -1 -9 13.1737 249.36 11
4 -1 -9 548.842 310.798 10
-4 1 9 28.4333 221.773 3
-4 1 8 -158.806 358.53 6
4 -1 -8 58.6255 238.094 11
-4 1 8 101.98 204.832 3
4 -1 -7 1071.95 371.253 7
-4 1 7 1262.46 411.704 6
4 -1 -7 1102.15 330.086 11
-4 1 7 1440.04 292.149 3
-4 1 6 538.052 71.0801 13
4 -1 -6 655.399 302.005 7
4 -1 -6 835.661 265.355 11
-4 1 6 955.035 276.807 3
4 -1 -5 4146.28 512.793 7
-4 1 5 4939.12 435.441 3
-4 1 5 4514.09 545.981 6
4 -1 -5 4408.08 456.945 11
4 -1 -4 1892.27 165.841 14
4 -1 -4 2254.3 396.478 7
4 -1 -4 3047.44 241.268 5
-4 1 4 1996.67 393.403 1
4 -1 -3 1178.41 312.9 7
-4 1 3 1552.23 382.201 1
4 -1 -3 1107.77 134.279 5
4 -1 -2 8733.89 655.849 7
-4 1 2 7184.68 626.977 1
4 -1 -2 8092.97 344.912 5
4 -1 -1 5117.18 508.795 7
-4 1 1 5499.32 546.291 1
4 -1 -1 5184.93 510.719 8
-4 1 1 5012.29 363.195 4
4 -1 0 32963.3 1316.65 7
-4 1 0 33320 1326.54 1
4 -1 0 34519.3 1316.68 8
-4 1 0 34804.2 1108.07 4
-4 1 -1 943.463 208.965 4
4 -1 1 1168.23 310.159 7
-4 1 -1 1149.65 304.955 1
4 -1 1 1024.93 286.791 8
-4 1 -2 2106.34 277.142 4
4 -1 2 2160.1 371.419 7
-4 1 -2 2422.13 385.966 1
-4 1 -2 2223.75 246.978 9
4 -1 2 2332.69 371.193 8
4 -1 3 5990.85 551.42 7
-4 1 -3 6759.33 349.974 9
4 -1 3 6571.63 556.807 8
-4 1 -3 6604.24 485.26 4
-4 1 -3 6712.5 586.128 1
-4 1 -4 1839.49 309.362 4
-4 1 -4 1680.7 345.714 1
4 -1 4 1661.18 341.031 7
4 -1 4 1657.12 329.029 8
4 -1 5 5950.27 587.418 7
4 -1 5 7099.1 610.664 8
-4 1 -5 6887.36 556.436 4
-4 1 -5 6689.23 587.582 1
4 -1 6 5629.93 585.239 7
4 -1 6 7036.74 622.334 8
-4 1 -6 6296.25 576.281 4
-4 1 -6 6414.92 589.49 1
4 -1 7 2810.09 460.346 7
-4 1 -7 2932.73 440.344 1
4 -1 7 2786.68 466.396 8
-4 1 -7 2610.07 418.562 4
4 -1 8 12257.7 885.837 8
-4 1 -8 11334.8 850.635 4
-4 1 -8 12702.6 875.174 1
4 -1 8 12745.1 948.968 7
4 -1 9 11681.4 785.321 10
4 -1 9 11811.3 907.277 8
-4 1 -9 12170 927.513 4
-4 1 -9 10562.4 843.958 1
-4 1 -10 -544.618 348.732 1
4 -1 10 -356.07 350.719 8
-4 1 -10 -726.231 405.114 4
-4 1 -11 801.553 445.557 1
4 -1 11 282.839 394.031 8
-4 1 -11 298.026 368.034 4
-4 1 -12 2087.23 492.232 1
4 -1 12 1716.66 495.809 8
4 -1 12 1978.18 608.821 14
-4 1 -12 2078.81 531.927 4
-4 1 -13 619.368 446.97 1
4 -1 13 940.176 415.306 8
-4 1 -13 436.639 449.778 4
-4 1 -14 3095.68 676.743 1
4 0 -14 -625.061 417.834 11
-4 0 13 -63.8272 427.467 6
4 0 -13 767.982 397.005 11
-4 0 12 9249.48 959.48 6
4 0 -12 7767.71 812.283 11
-4 0 11 2393.92 548.476 6
4 0 -11 2640.52 524.253 11
-4 0 10 483.447 276.209 12
-4 0 10 -486.11 422.472 6
4 0 -10 -179.248 296.546 11
-4 0 9 4035.53 489.354 12
-4 0 9 2477.74 483.945 6
4 0 -9 3203.14 507.353 11
-4 0 9 2707.31 333.87 3
-4 0 8 11459.1 883.414 6
-4 0 8 12105.9 650.488 3
4 0 -8 11308.5 850.643 11
-4 0 7 1543.75 256.376 2
4 0 -7 1704.41 391.395 7
-4 0 7 1633.04 404.268 6
4 0 -7 994.187 320.316 11
-4 0 7 1335.61 230.774 3
-4 0 6 1853.65 298.194 2
4 0 -6 1875.45 381.22 7
-4 0 6 1894.15 406.947 6
4 0 -6 1834.48 368.049 11
-4 0 6 1455.96 240.65 3
4 0 -6 2753.87 321.158 5
4 0 -5 13093.1 820.267 7
-4 0 5 14116.2 510.096 13
-4 0 5 11921.8 818.291 6
-4 0 5 12869.4 636.108 3
4 0 -5 12588.5 605.945 5
4 0 -4 60.6099 238.169 7
-4 0 4 217.619 250.354 6
4 0 -4 -84.7194 138.05 5
4 0 -3 7937.76 613.789 7
-4 0 3 9290.53 670.658 1
4 0 -3 8498.91 446.869 5
-4 0 3 8327.58 539.818 4
-4 0 2 3884.92 464.365 1
4 0 -2 3554.93 418.918 7
-4 0 2 3622.24 353.015 4
4 0 -1 2925.93 378.913 7
-4 0 1 2737.32 391.562 1
-4 0 1 2622.35 334.836 4
4 0 -1 3028.38 443.1 8
-4 0 0 2617.47 377.489 1
-4 0 0 2612.37 320.549 4
4 0 0 2101.69 344.373 7
4 0 0 2180.76 377.786 8
4 0 1 19747 954.452 7
-4 0 -1 20414.5 964.249 1
4 0 1 19340.4 989.082 8
-4 0 -1 20467.6 896.268 4
-4 0 -2 19199.7 943.825 1
4 0 2 17376.1 902.316 7
-4 0 -2 19172.2 727.528 9
4 0 2 19716.3 980.08 8
-4 0 -2 17582.8 855.952 4
-4 0 -3 1088.97 301.157 4
4 0 3 1162.91 304.786 7
-4 0 -3 1018.2 300.603 1
4 0 3 1163.68 314.417 8
4 0 4 7661.76 615.91 7
4 0 4 8173.04 670.539 8
-4 0 -4 8233.71 626.796 4
-4 0 -4 8436.25 618.803 1
4 0 5 30889 1360.43 7
4 0 5 31959.9 1413.32 8
-4 0 -5 34280.3 1391.11 4
-4 0 -5 34994.5 1355.2 1
-4 0 -6 4135.72 504.351 4
4 0 6 4265.29 526.597 7
-4 0 -6 3332.62 420.957 1
4 0 6 3861.93 527.05 8
-4 0 -7 8955.29 702.686 12
4 0 7 7856.34 736.567 8
-4 0 -7 7474.04 686.566 4
-4 0 -7 9015.11 698.035 1
4 0 7 7795.24 707.195 7
-4 0 -8 1275.66 364.703 12
-4 0 -8 560.574 293.708 1
4 0 8 323.937 347.141 8
-4 0 -8 473.745 341.49 4
-4 0 -9 6578.32 654.285 1
4 0 9 6483.6 714.594 8
-4 0 -9 6015.44 706.297 4
-4 0 -10 2886.05 502.871 1
4 0 10 2250.69 503.207 8
-4 0 -10 3018.11 585.987 4
-4 0 -11 361.767 305.129 1
4 0 11 498.333 360.949 8
-4 0 -11 -146.923 389.688 4
4 0 12 1670.78 637.971 14
-4 0 -12 447.371 379.846 1
4 0 12 606.204 416.968 8
-4 0 -12 135.032 390 4
4 1 -14 1353.4 533.373 11
-4 -1 13 1067.8 496.378 6
4 1 -13 178.066 391.041 11
-4 -1 12 3164.44 648.839 6
4 1 -12 2439.85 542.31 11
-4 -1 11 842.397 453.645 6
4 1 -11 70.7822 323.917 11
-4 -1 10 948.71 299.793 12
-4 -1 10 1007.9 424.487 6
4 1 -10 614.784 354.769 11
-4 -1 9 273.215 262.747 12
-4 -1 9 237.576 363.843 6
4 1 -9 152.355 274.171 11
-4 -1 8 8371.26 511.845 2
-4 -1 8 7767.7 735.518 6
-4 -1 8 8790.86 690.801 12
-4 -1 8 8222.74 451.52 3
4 1 -8 8193.94 741.118 11
4 1 -8 8395.79 630.852 5
-4 -1 7 14791.5 748.548 2
4 1 -7 16242.2 950 7
-4 -1 7 14688.4 951.123 6
-4 -1 7 16386 963.246 12
-4 -1 7 16964.4 649.467 3
4 1 -7 14114.2 941.919 11
4 1 -7 16087.9 823.978 5
4 1 -6 7442.92 619.998 7
-4 -1 6 7436.9 655.849 6
-4 -1 6 9188.96 713.801 12
-4 -1 6 8262.5 434.63 3
4 1 -6 7649.89 540.385 5
-4 -1 6 7865.75 557.111 2
4 1 -5 23833.5 1119.15 7
-4 -1 5 27059.8 829.764 13
-4 -1 5 24688.1 1141.41 6
-4 -1 5 28095.5 903.725 3
4 1 -5 26186.8 1018.39 5
-4 -1 5 22343 1025.17 2
4 1 -4 15128.9 814.163 7
-4 -1 4 15523.2 657.142 13
-4 -1 4 15044.3 823.904 6
4 1 -4 13856.4 689.696 5
-4 -1 4 13735 764.709 4
-4 -1 4 14758.8 799.17 2
4 1 -3 6885.79 545.817 7
-4 -1 3 7078.29 539.526 6
-4 -1 3 6488.46 557.991 1
-4 -1 3 6817.29 541.335 4
4 1 -2 1016.3 255.445 7
-4 -1 2 1158.78 284.117 4
-4 -1 2 1382.6 277.369 6
-4 -1 2 1210.51 312.112 1
4 1 -2 1268.37 348.073 8
4 1 -1 4440.16 436.912 7
-4 -1 1 5138.3 469.154 1
-4 -1 1 5017.81 460.226 4
4 1 -1 4944.64 530.556 8
-4 -1 0 692.974 245.801 1
-4 -1 0 190.117 233.656 4
4 1 0 936.27 325.7 8
4 1 0 600.961 211.394 7
4 1 1 5297.93 484.766 7
-4 -1 -1 5861.08 509.485 1
4 1 1 6215.39 596.029 8
-4 -1 -1 5320.38 504.069 4
-4 -1 -2 734.401 270.951 4
4 1 2 923.019 271.956 7
-4 -1 -2 567.995 151.569 6
-4 -1 -2 219.668 221.067 1
4 1 2 896.514 329.463 8
-4 -1 -3 2033.84 375.642 4
4 1 3 1550.31 288.581 7
-4 -1 -3 1885.79 327.349 1
-4 -1 -3 2051.5 448.372 12
-4 -1 -3 1911.5 225.436 6
4 1 3 1648.52 234.999 9
4 1 3 1098.83 325.134 8
4 1 4 60369.5 1978.39 7
-4 -1 -4 58917.3 2053.32 12
4 1 4 61252.3 1616.71 9
4 1 4 59576.5 2096.65 8
-4 -1 -4 60212.4 2054.59 4
-4 -1 -4 62730.8 1905.57 1
-4 -1 -5 26030.1 1234.89 12
4 1 5 26730.6 848.685 9
4 1 5 27477.4 1329.8 8
-4 -1 -5 25723.8 1263.2 4
-4 -1 -5 26703.6 1127.43 1
4 1 5 25410.7 1195.97 7
-4 -1 -6 1824.72 400.252 4
4 1 6 2097.61 402.661 7
-4 -1 -6 1721.68 355.28 12
4 1 6 1869.4 432.905 8
-4 -1 -6 1669.39 344.182 1
-4 -1 -7 965.746 385.509 4
-4 -1 -7 1683.8 371.687 12
-4 -1 -7 802.012 288.271 1
4 1 7 1327.52 412.862 8
-4 -1 -8 870.087 397.256 4
-4 -1 -8 449.425 306.354 1
4 1 8 81.2483 331.258 8
-4 -1 -9 1160.57 438.157 4
-4 -1 -9 1643.14 459.025 2
-4 -1 -9 871.018 312.907 1
4 1 9 512.336 379.991 8
-4 -1 -10 -133.628 394.173 4
-4 -1 -10 387.323 349.641 2
4 1 10 -186.134 398.407 8
-4 -1 -11 1869.74 477.282 2
4 1 11 1382.72 486.317 8
-4 -1 -11 1094.06 502.54 4
-4 -2 14 -799.318 418.245 6
4 2 -14 543.213 435.173 11
-4 -2 13 353.613 394.158 6
4 2 -13 1226.09 461.317 11
-4 -2 12 -349.872 385.647 6
4 2 -12 -77.0559 351.069 11
-4 -2 11 116.197 225.663 12
-4 -2 11 290.66 337.32 6
4 2 -11 939.104 437.477 11
-4 -2 10 8087.15 683.199 12
-4 -2 10 8967.26 848.786 6
4 2 -10 8758.74 830.135 11
4 2 -10 9322.47 778.338 5
-4 -2 9 89.0296 270.955 12
-4 -2 9 512.605 359.895 6
4 2 -9 680.354 367.747 11
4 2 -9 803.528 314.375 5
-4 -2 8 1471.53 398.077 12
-4 -2 8 1268.5 281.315 2
-4 -2 8 1575.13 401.979 6
4 2 -8 1379.63 388.025 11
4 2 -8 1317.12 330.586 5
4 2 -7 2460.59 392.256 7
-4 -2 7 2467.38 344.554 2
-4 -2 7 2707.14 447.283 12
-4 -2 7 1635.95 393.34 6
4 2 -7 3171.58 503.771 11
4 2 -7 1895.93 339.102 5
4 2 -6 429.419 208.493 7
-4 -2 6 276.733 207.777 2
-4 -2 6 284.655 277.892 12
-4 -2 6 264.521 249.125 6
-4 -2 6 348.489 86.6285 3
4 2 -6 544.406 272.732 5
-4 -2 5 14720.9 833.439 2
4 2 -5 15491.2 824.302 7
-4 -2 5 15432.8 646.242 13
-4 -2 5 14499.5 832.153 6
-4 -2 5 13474.1 900.346 12
-4 -2 5 16145 568.503 3
4 2 -5 14626.5 789.002 5
4 2 -4 3242.29 381.117 7
-4 -2 4 3572.71 426.379 2
-4 -2 4 3370.25 451.413 4
-4 -2 4 3850.19 505.229 12
-4 -2 4 3761.07 410.783 6
-4 -2 4 3846.89 279.517 3
4 2 -3 11119.2 658.271 7
-4 -2 3 11803.4 661.746 6
-4 -2 3 11880.2 827.839 12
-4 -2 3 12986.5 568.779 3
4 2 -3 11531.4 800.058 8
-4 -2 3 11104 724.287 4
-4 -2 3 10644.5 734.486 2
4 2 -2 2161.24 308.401 7
-4 -2 2 1892.67 363.951 4
-4 -2 2 2594.09 417.574 2
-4 -2 2 2041.46 429.283 12
-4 -2 2 2155.31 293.854 6
-4 -2 2 2626.13 369.965 1
4 2 -2 1591.31 374.369 8
4 2 -1 301.032 207.201 7
-4 -2 1 438.695 269.762 4
-4 -2 1 347.219 286.59 2
-4 -2 1 62.612 253.528 12
-4 -2 1 262.962 161.69 6
-4 -2 1 56.0992 191.685 1
4 2 -1 246.66 242.047 9
4 2 -1 181.44 290.184 8
-4 -2 0 1858.85 377.41 4
4 2 0 1962.59 305.163 7
-4 -2 0 2701.66 466.356 2
-4 -2 0 2848.15 460.102 12
-4 -2 0 2163.59 245.542 6
-4 -2 0 1812.19 299.289 1
4 2 0 2090.57 344.032 9
4 2 0 3009.03 482.216 8
4 2 1 596.604 217.193 7
-4 -2 -1 1396.09 380.006 2
-4 -2 -1 864.32 243.871 1
-4 -2 -1 260.09 292.539 12
4 2 1 631.801 244.168 9
4 2 1 981.692 357.305 8
-4 -2 -1 431.603 270.364 4
4 2 2 4563.55 438.814 7
-4 -2 -2 5115.25 440.16 1
-4 -2 -2 4456.38 513.307 4
-4 -2 -2 5019.36 576.559 2
-4 -2 -2 4877.01 287.258 6
-4 -2 -2 4273.82 530.44 12
4 2 2 4765.59 419.36 9
4 2 2 5213.62 588.578 8
4 2 3 19293.7 927.091 7
-4 -2 -3 20702.6 899.173 1
-4 -2 -3 19337.8 1079.19 12
4 2 3 19209.3 831.169 9
4 2 3 19876.1 1110.7 8
-4 -2 -3 18920.5 1045.46 4
-4 -2 -3 19403.7 1116.71 2
-4 -2 -4 563.581 333.094 4
4 2 4 -160.647 219.265 7
-4 -2 -4 281.268 320.722 2
-4 -2 -4 -35.7405 195.374 1
-4 -2 -4 -511.872 337.391 12
4 2 4 -53.7567 157.82 9
4 2 4 -55.5897 285.943 8
-4 -2 -5 4023.07 556.144 4
4 2 5 3239.46 438.335 7
-4 -2 -5 4001.76 558.072 2
-4 -2 -5 3413.72 483.354 12
4 2 5 3707.29 330.198 9
4 2 5 3069.85 503.613 8
-4 -2 -5 3989.19 430.692 1
-4 -2 -6 5837.77 663.234 4
-4 -2 -6 6048.47 672.207 2
-4 -2 -6 5828.71 583.332 12
4 2 6 5421.45 644.274 8
-4 -2 -6 5680.72 504.909 1
-4 -2 -7 16105.6 947.654 12
4 2 7 16330.5 1139.73 8
-4 -2 -7 15849.5 1100.75 4
-4 -2 -7 17825.6 912.619 1
-4 -2 -7 15696.1 1068.5 2
-4 -2 -8 -136.965 365.93 4
-4 -2 -8 64.9324 318.845 2
4 2 8 79.5086 344.9 8
-4 -2 -9 2043.95 513.115 4
-4 -2 -9 2735.95 507.013 2
4 2 9 2554.24 560.318 8
-4 -2 -10 128.461 380.467 4
-4 -2 -10 -240.336 330.536 2
4 2 10 132.91 392.731 8
-4 -2 -11 1660.13 520.389 4
4 2 11 2820.61 605.447 8
4 3 -14 3435.24 672.075 11
-4 -3 14 3921.89 729.211 6
4 3 -13 2536.1 583.295 11
-4 -3 13 2108.87 547.388 6
4 3 -12 19.0897 328.116 11
-4 -3 12 410.353 390.603 6
4 3 -12 839.109 391.685 5
-4 -3 11 1346.86 346.117 12
4 3 -11 502.582 407.499 11
-4 -3 11 1258.09 459.768 6
4 3 -11 1283.5 408.671 5
-4 -3 10 995.834 321.135 12
4 3 -10 1435.1 457.382 11
-4 -3 10 1888.51 450.098 6
4 3 -10 1319.62 379.083 5
-4 -3 9 7668.25 574.319 2
-4 -3 9 8011.31 686.747 12
-4 -3 9 7695.61 746.839 6
4 3 -9 7494.59 772.386 11
4 3 -9 7828.78 686.826 5
4 3 -8 114.744 226.413 7
-4 -3 8 -30.548 283.81 12
4 3 -8 366.136 304.42 11
-4 -3 8 -183.685 298.05 6
-4 -3 8 -107.124 213.727 2
4 3 -8 -152.346 273.568 5
-4 -3 7 12517.8 780.106 2
4 3 -7 13129.5 780.914 7
-4 -3 7 12760.7 869.136 12
-4 -3 7 14083.4 894.415 6
4 3 -7 13033.8 842.918 5
-4 -3 6 18138.4 964.349 2
4 3 -6 18950.9 918.203 7
-4 -3 6 18328.4 1079.42 12
-4 -3 6 20176.7 1011.6 6
4 3 -6 19612.9 1004.67 5
4 3 -5 4793.24 426.908 7
-4 -3 5 4805.36 527.644 4
-4 -3 5 4052.33 473.184 2
-4 -3 5 5103.82 569.41 12
-4 -3 5 4839.92 486.268 6
4 3 -5 4566.89 497.481 5
4 3 -4 1463.84 269.183 7
-4 -3 4 1781.8 374.65 4
-4 -3 4 1981.63 385.962 2
-4 -3 4 1813.75 391.611 12
-4 -3 4 2153.73 192.864 3
-4 -3 4 2049.38 329.724 6
4 3 -4 2200.59 425.497 9
4 3 -4 2058.34 432.258 8
4 3 -3 -33.4018 171.499 7
-4 -3 3 452.951 292.179 4
-4 -3 3 235.427 305.623 2
-4 -3 3 -159.022 315.17 12
-4 -3 3 -68.8988 172.62 6
-4 -3 3 216.457 129.799 3
4 3 -3 897.83 349.557 9
4 3 -3 110.454 275.33 8
4 3 -2 1194.54 235.25 7
-4 -3 2 1253.66 354.965 4
-4 -3 2 1374.6 349.665 2
-4 -3 2 1673.81 381.885 12
-4 -3 2 1496.11 223.66 6
4 3 -2 1247.87 340.343 9
4 3 -2 1979.03 426.898 8
4 3 -1 1472.23 253.557 7
-4 -3 1 1488.15 354.452 2
-4 -3 1 1792.67 392.961 4
-4 -3 1 1711.05 408.461 12
-4 -3 1 1842.37 220.703 6
4 3 -1 1668.15 342.2 9
-4 -3 1 2166.92 298.64 1
4 3 -1 2040.68 416.469 8
4 3 0 24719.7 968.32 7
-4 -3 0 25630.9 981.951 1
-4 -3 0 25335.3 767.266 6
-4 -3 0 23948.9 1239.38 12
4 3 0 26155.4 1122.14 9
4 3 0 23639.7 1217.92 8
-4 -3 0 24925 1217.34 4
-4 -3 0 21951.7 1193.37 2
-4 -3 -1 2263.75 398.907 4
-4 -3 -1 1977.71 425.223 2
-4 -3 -1 2276.03 142.123 6
-4 -3 -1 2703.4 455.997 12
4 3 1 2753.34 375.341 9
-4 -3 -1 2862.49 322.035 1
4 3 1 2422.81 429.496 8
4 3 1 2236.57 304.278 7
4 3 2 8672.15 573.385 7
-4 -3 -2 8996.38 530.268 1
-4 -3 -2 8786.96 732.109 12
4 3 2 9137.23 618.974 9
4 3 2 8636.3 747.08 8
-4 -3 -2 8364.48 733.853 4
-4 -3 -2 7867.65 738.543 2
-4 -3 -3 20916.5 844.669 1
-4 -3 -3 18691.4 1082.38 12
4 3 3 21052.1 950.429 9
4 3 3 18021.1 1119.48 8
-4 -3 -3 19669.2 1129.95 4
-4 -3 -3 17995.1 1104.48 2
4 3 3 18854 919.638 7
-4 -3 -4 3965.8 361.364 1
-4 -3 -4 4289.03 587.402 4
-4 -3 -4 3656.64 571.04 2
-4 -3 -4 3668.8 490.071 12
4 3 4 4480.69 426.259 9
4 3 4 4503.49 605.013 8
-4 -3 -5 180.23 349.431 4
-4 -3 -5 305.937 306.359 2
-4 -3 -5 -34.8829 268.72 12
4 3 5 543.871 227.881 9
4 3 5 421.799 352.818 8
-4 -3 -6 1963.05 508.88 4
-4 -3 -6 1734.9 470.162 2
-4 -3 -6 1395.38 386.091 12
4 3 6 1983.75 497.633 8
-4 -3 -7 2140.75 496.459 4
-4 -3 -7 3005.03 553.062 2
4 3 7 1189.9 452.789 8
-4 -3 -8 325.662 357.479 4
-4 -3 -8 91.9998 309.566 2
4 3 8 792.321 453.184 8
-4 -3 -9 68.7825 330.777 2
4 3 9 189.37 408.829 8
-4 -3 -10 1874.84 585.178 4
-4 -3 -10 1917.14 490.819 2
4 4 -14 328.854 430.618 11
-4 -4 14 1068.78 419.693 6
4 4 -13 2211.34 584.523 11
-4 -4 13 1587 501.691 6
4 4 -13 1923.15 567.689 5
4 4 -12 522.555 436.984 11
-4 -4 12 286.27 371.098 6
4 4 -12 597.17 394.582 5
-4 -4 11 324.817 279.717 12
4 4 -11 158.555 409.795 11
-4 -4 11 1150.3 410.641 6
4 4 -11 978.081 388.522 5
-4 -4 10 784.506 356.633 12
4 4 -10 747.402 406.159 11
-4 -4 10 222.728 304.303 6
4 4 -10 664.31 322.833 5
-4 -4 9 4924.36 593.398 12
4 4 -9 3791.1 586.448 11
-4 -4 9 3813.75 541.312 6
-4 -4 9 4668.06 506.232 2
4 4 -9 4361.55 552.537 5
4 4 -8 200.055 224.134 7
-4 -4 8 22.8795 290.208 12
-4 -4 8 616.922 329.391 6
-4 -4 8 405.293 242.154 2
4 4 -8 -12.4095 269.916 5
4 4 -7 20993.2 959.022 7
-4 -4 7 19720.7 1055.22 2
-4 -4 7 20239.4 1148.54 12
-4 -4 7 20691 1074.56 6
4 4 -7 22421.8 1158.54 5
4 4 -6 21802.2 935.98 7
-4 -4 6 21315.7 1110.94 2
-4 -4 6 20572.4 1165.48 12
-4 -4 6 22354.9 1058.66 6
4 4 -6 22176.2 1140.72 5
4 4 -6 21529.5 1225.09 9
4 4 -6 21160.7 1192.95 8
-4 -4 6 19861.4 1153.11 4
4 4 -5 7555.88 506.97 7
-4 -4 5 7328.55 656.182 2
-4 -4 5 7599.05 571.523 6
-4 -4 5 6058.56 630.229 12
4 4 -5 6715.22 687.926 9
4 4 -5 6637.09 678.751 8
-4 -4 5 6179.89 653.94 4
4 4 -4 6114.48 435.21 7
-4 -4 4 6125.16 606.407 2
-4 -4 4 4693.37 582.527 4
-4 -4 4 5981.27 469.423 6
-4 -4 4 6193.64 648.778 12
4 4 -4 5407.55 618.501 9
4 4 -4 5687.72 615.608 8
4 4 -3 10149.1 550.018 7
-4 -4 3 9884.69 785.651 2
-4 -4 3 9532.31 790.108 12
-4 -4 3 10922.7 568.246 6
4 4 -3 9419.25 753.496 9
4 4 -3 10291.9 831.528 8
-4 -4 3 9330.38 783.806 4
4 4 -2 14727.2 653.906 7
-4 -4 2 15214 980.737 2
-4 -4 2 14598.8 983.211 12
-4 -4 2 16070.9 635.56 6
4 4 -2 15064.4 920.455 9
4 4 -2 13946.5 969.546 8
-4 -4 2 14939.1 975.631 4
4 4 -1 34340.7 1098.74 7
-4 -4 1 34306.6 1534.23 2
-4 -4 1 34235.1 1538.83 12
-4 -4 1 33526.1 931.102 6
4 4 -1 36923.2 1474.56 9
4 4 -1 33150.2 1521.8 8
-4 -4 1 31084.9 1472.14 4
4 4 0 10286.7 544.004 7
-4 -4 0 10587.6 834.527 2
-4 -4 0 8895.34 760.14 12
4 4 0 11056 755.092 9
4 4 0 9247.7 789.548 8
-4 -4 0 11206.9 844.436 4
-4 -4 -1 9230.24 807.963 2
-4 -4 -1 7281.05 696.914 12
4 4 1 9669 690.171 9
4 4 1 9261.79 798.53 8
-4 -4 -1 8720.81 781.675 4
4 4 1 9826.17 546.135 7
-4 -4 -2 642.931 372.76 4
-4 -4 -2 832.543 381.996 2
-4 -4 -2 841.967 339.538 12
4 4 2 473.959 251.618 9
4 4 2 395.731 320.103 8
-4 -4 -3 1272.25 400.53 4
-4 -4 -3 1337.72 393.092 2
-4 -4 -3 1497.67 386.226 12
4 4 3 1738.61 343.86 9
4 4 3 951.355 363.772 8
-4 -4 -4 679.172 397.065 4
-4 -4 -4 456.176 365.295 2
-4 -4 -4 217.646 274.878 12
4 4 4 815.661 284.2 9
4 4 4 367.01 349.34 8
-4 -4 -5 1757.31 480.72 4
-4 -4 -5 2018.57 477.861 2
-4 -4 -5 2069.06 404.014 12
4 4 5 1622.77 475.232 8
-4 -4 -6 876.959 442.793 4
-4 -4 -6 1491.1 472.32 2
-4 -4 -6 1392.68 387.125 12
4 4 6 1241.11 480.035 8
-4 -4 -7 1102.19 491.602 4
-4 -4 -7 1599.03 439.418 2
4 4 7 1037.71 435.429 8
-4 -4 -8 1184.87 518.517 4
-4 -4 -8 693.743 410.384 2
4 4 8 509.856 395.347 8
-4 -4 -9 -188.553 343.124 2
-4 -5 14 860.667 465.463 6
4 5 -14 3316 705.02 5
4 5 -13 4103.95 702.397 11
-4 -5 13 3539.76 638.739 6
4 5 -13 2910.55 591.732 5
-4 -5 12 -413.803 321.009 12
4 5 -12 -597.738 460.621 11
-4 -5 12 -62.6643 339.484 6
4 5 -12 417.132 385.273 5
-4 -5 11 1231.47 390.476 12
4 5 -11 1517.65 495.693 11
-4 -5 11 802.436 383.007 6
4 5 -11 2410.43 538.763 5
-4 -5 10 405.566 328.958 12
4 5 -10 116.257 363.424 11
-4 -5 10 848.874 374.403 6
4 5 -10 839.777 338.087 5
-4 -5 9 672.485 360.195 12
4 5 -9 236.09 317.425 11
-4 -5 9 1681.2 419.487 6
-4 -5 9 440.855 300.135 2
4 5 -9 803.928 401.474 5
-4 -5 8 6486.18 644.718 2
-4 -5 8 6708.35 640.482 6
-4 -5 8 6468.3 668.302 12
4 5 -8 6892.24 711.976 5
-4 -5 7 920.719 368.837 12
-4 -5 7 826.766 303.391 6
-4 -5 7 600.093 340.049 2
4 5 -7 86.2572 299.314 5
4 5 -7 1017.9 460.834 9
4 5 -7 795.769 375.731 8
-4 -5 6 6283.64 648.829 2
-4 -5 6 5014.39 608.367 4
-4 -5 6 6252.06 700.894 12
-4 -5 6 5489.03 511.146 6
4 5 -6 5315.83 628.731 5
4 5 -6 5391.86 665.786 9
4 5 -6 5630.83 662.316 8
-4 -5 5 20721.4 1172.67 2
-4 -5 5 23217.3 1285.12 12
-4 -5 5 24554.1 1025.67 6
4 5 -5 22740.5 1261.89 9
4 5 -5 22095.1 1254.8 8
-4 -5 5 20360.1 1204.96 4
-4 -5 4 8868.34 769.806 2
-4 -5 4 7679.4 744.714 12
-4 -5 4 8125.31 526.858 6
4 5 -4 7265.34 732.188 9
4 5 -4 7641.15 754.615 8
-4 -5 4 8569.83 779.316 4
-4 -5 3 7174.72 711.79 2
-4 -5 3 7092.2 731.882 12
-4 -5 3 7906.21 456.61 6
4 5 -3 7362.29 706.228 9
4 5 -3 7641.08 746.773 8
-4 -5 3 7274.05 731.372 4
-4 -5 2 1071.76 422.916 4
-4 -5 2 1163.81 385.103 12
-4 -5 2 1075.84 378.919 2
4 5 -2 1572.05 391.84 9
4 5 -2 1072.24 412.478 8
-4 -5 1 2941.15 517.656 4
-4 -5 1 2959.35 528.944 12
-4 -5 1 2201.8 477.497 2
4 5 -1 2468.59 457.962 9
4 5 -1 3025.44 522.323 8
-4 -5 0 1945.83 469.858 4
-4 -5 0 2096.32 479.884 12
-4 -5 0 2032.36 453.397 2
4 5 0 2107.06 446.045 9
4 5 0 2328.35 462.823 8
-4 -5 -1 14116.7 1039.84 2
-4 -5 -1 14607.6 1020.93 12
4 5 1 16566.8 985.047 9
4 5 1 14616.5 1040.82 8
-4 -5 -1 15553.2 1077.7 4
-4 -5 -2 460.145 353.885 4
-4 -5 -2 718.193 334.751 12
-4 -5 -2 434.804 327.789 2
4 5 2 1309.37 368.923 9
4 5 2 1375.58 431.283 8
-4 -5 -3 760.368 394.177 4
-4 -5 -3 572.801 322.199 12
-4 -5 -3 479.445 319.181 2
4 5 3 911.063 321.411 9
4 5 3 483.614 387.457 8
4 5 3 592.597 348.509 3
-4 -5 -4 1021.01 438.635 4
-4 -5 -4 1450.75 421.942 12
-4 -5 -4 855.264 399.325 2
4 5 4 1382.32 350.294 9
4 5 4 1352.77 458.251 8
4 5 4 2105.38 487.143 3
-4 -5 -5 -797.312 446.115 4
-4 -5 -5 567.873 342.202 12
-4 -5 -5 91.757 324.833 2
4 5 5 256.024 362.475 8
4 5 5 15.9993 323.926 3
-4 -5 -6 1725.7 546.198 4
-4 -5 -6 1146.05 463.43 2
4 5 6 956.409 443.219 8
4 5 6 407.84 390.941 3
-4 -5 -7 1144.55 484.242 4
-4 -5 -7 418.747 390.897 2
4 5 7 881.491 485.935 8
-4 -5 -8 2474.09 549.066 2
-4 -5 -9 -79.8694 361.78 2
-4 -6 14 -48.801 380.544 6
4 6 -14 -156.783 449.46 5
4 6 -13 408.839 423.506 11
-4 -6 13 349.141 410.519 6
4 6 -13 -178.974 406.194 5
-4 -6 12 49.5925 294.666 12
4 6 -12 647.334 434.377 11
-4 -6 12 -337.205 336.412 6
4 6 -12 274.453 411.487 5
-4 -6 11 447.884 333.401 12
4 6 -11 40.2206 373.647 11
-4 -6 11 420.21 350.987 6
4 6 -11 -381.524 404.136 5
-4 -6 10 -246.054 337.364 12
4 6 -10 155.577 352.143 11
-4 -6 10 -44.4328 306.161 6
-4 -6 10 -269.721 278.408 2
4 6 -10 -215.897 352.625 5
-4 -6 9 7610.46 718.586 2
-4 -6 9 8585.6 755.141 6
-4 -6 9 7088.9 731.423 12
4 6 -9 7302.43 850.649 11
4 6 -9 8473.23 835.749 5
4 6 -9 8082.14 876.865 9
4 6 -9 7586.58 800.174 8
-4 -6 8 4153.17 595.376 12
-4 -6 8 5193.29 592.806 6
-4 -6 8 4349.92 577.393 2
4 6 -8 4602.5 642.406 5
4 6 -8 3932.63 653.683 9
4 6 -8 4855.61 666.571 8
-4 -6 7 183.061 365.555 4
-4 -6 7 -179.6 300.995 12
-4 -6 7 55.8811 210.743 6
-4 -6 7 452.139 347.549 2
4 6 -7 -289.913 327.126 5
4 6 -7 337.367 366.945 9
4 6 -7 186.735 339.982 8
-4 -6 6 1471.56 425.987 4
-4 -6 6 2160.23 476.38 12
-4 -6 6 1969.87 340.798 6
-4 -6 6 2444.12 466.916 2
4 6 -6 2808.62 533.944 9
4 6 -6 2262.49 456.541 8
-4 -6 5 10.4361 326.849 4
-4 -6 5 -156.633 343.702 12
-4 -6 5 -151.173 325.456 2
-4 -6 5 569.528 216.726 6
4 6 -5 149.841 352.411 9
4 6 -5 313.915 334.593 8
-4 -6 4 6008.48 707.066 4
-4 -6 4 6000.52 709.085 12
-4 -6 4 6013.49 696.567 2
4 6 -4 6286.99 715.68 9
4 6 -4 5968.37 688.807 8
-4 -6 3 16672.5 1120.7 2
-4 -6 3 15601.9 1106.27 12
4 6 -3 15746.4 1072.94 9
4 6 -3 15958.7 1081.22 8
-4 -6 3 16840.8 1167.99 4
-4 -6 2 10863.5 920.549 2
-4 -6 2 10489.7 903.688 12
4 6 -2 10581.8 869.618 9
4 6 -2 9873.36 861.252 8
-4 -6 2 11440.9 956.379 4
-4 -6 1 2533.86 525.336 4
-4 -6 1 2371.27 517.518 12
-4 -6 1 1767.36 486.934 2
4 6 -1 2387.13 484.79 9
4 6 -1 1190.14 411.745 8
-4 -6 0 26414.2 1486.08 2
-4 -6 0 24291.3 1406.02 12
4 6 0 29211.4 1308.56 3
4 6 0 28095.3 1415.82 9
4 6 0 26733.6 1477.31 8
-4 -6 0 26737.9 1489.82 4
-4 -6 -1 1735.16 468.446 4
-4 -6 -1 896.651 374.474 12
-4 -6 -1 1358.98 443.693 2
4 6 1 2122.46 434.717 9
4 6 1 2156.51 497.261 8
4 6 1 1792.34 418.247 3
-4 -6 -2 184.029 367.879 4
-4 -6 -2 300.677 368.17 12
-4 -6 -2 377.77 343.024 2
4 6 2 379.505 318.508 9
4 6 2 189.25 355.506 8
4 6 2 162.516 297.485 3
-4 -6 -3 5859.06 771.54 4
-4 -6 -3 5085.12 646.284 12
-4 -6 -3 4646.84 680.202 2
4 6 3 4839 578.238 9
4 6 3 4344.16 653.42 8
4 6 3 4971.8 650.223 3
-4 -6 -4 160.014 403.809 4
-4 -6 -4 445.862 391.373 12
-4 -6 -4 127.893 395.963 2
4 6 4 -20.228 316.033 9
4 6 4 809.891 445.068 8
4 6 4 414.975 389.2 3
-4 -6 -5 1893.58 550.737 4
-4 -6 -5 897.462 384.587 12
-4 -6 -5 839.209 435.922 2
4 6 5 823.712 425.728 8
4 6 5 295.365 356.742 3
-4 -6 -6 1776.64 581.126 4
-4 -6 -6 1280.02 471.597 2
4 6 6 2302.8 616.16 8
4 6 6 2186.9 577.673 3
-4 -6 -7 -260.182 446.662 2
-4 -6 -8 2501.81 585.793 2
-4 -7 13 209.255 418.474 6
4 7 -13 -194.687 443.042 5
-4 -7 12 1769.28 465.17 12
4 7 -12 2365.72 619.774 11
-4 -7 12 1829.48 472.751 6
4 7 -12 2211.96 593.568 5
-4 -7 11 398.255 379.274 12
4 7 -11 900.885 510.041 11
-4 -7 11 454.596 359.206 6
4 7 -11 2.94292 378.339 5
4 7 -11 804.203 404.979 8
-4 -7 10 1867.7 482.535 12
4 7 -10 1574.22 485.107 11
-4 -7 10 1929.95 447.876 6
-4 -7 10 1944.61 444.756 2
4 7 -10 1280.84 466.169 5
4 7 -10 3042.48 670.103 9
4 7 -10 1711.6 471.871 8
-4 -7 9 288.075 351.423 12
4 7 -9 732.225 423.355 11
-4 -7 9 275.481 292.815 6
-4 -7 9 471.939 330.791 2
4 7 -9 642.522 368.013 5
4 7 -9 581.092 459.126 9
4 7 -9 -223.142 368.589 8
-4 -7 8 383.82 325.806 12
-4 -7 8 524.141 314.873 6
-4 -7 8 86.371 325.484 2
4 7 -8 49.0085 332.186 5
4 7 -8 59.2026 366.348 9
4 7 -8 -307.879 343.267 8
-4 -7 7 4051.02 659.828 4
-4 -7 7 3399.32 604.023 12
-4 -7 7 4154.31 590.771 2
4 7 -7 3035.37 593.845 5
4 7 -7 3517.89 614.923 9
4 7 -7 4847.36 623.239 8
-4 -7 6 -276.867 404.158 4
-4 -7 6 750.142 407.953 12
-4 -7 6 -293.538 379.806 2
4 7 -6 252.078 343.911 9
4 7 -6 4.06585 314.086 8
-4 -7 5 568.072 409.088 4
-4 -7 5 518.536 338.96 12
-4 -7 5 532.648 380.991 2
4 7 -5 481.004 364.649 9
4 7 -5 194.458 321.944 8
-4 -7 4 222.579 389.392 4
-4 -7 4 -120.813 326.764 12
-4 -7 4 613.054 397.58 2
4 7 -4 389.983 385.078 9
4 7 -4 285.412 344.063 8
-4 -7 3 3837.95 647.972 4
-4 -7 3 3839.38 617.276 12
-4 -7 3 4427.74 663.411 2
4 7 -3 4370.68 630.494 9
4 7 -3 4115.57 593.251 8
-4 -7 2 1466.51 494.532 4
-4 -7 2 1955.7 501.7 12
-4 -7 2 1732.37 483.231 2
4 7 -2 2076.33 495.462 9
4 7 -2 1790.98 475.947 8
-4 -7 1 141.435 371.009 4
-4 -7 1 17.8722 331.369 12
-4 -7 1 -379.692 430.559 2
4 7 -1 -361.189 368.124 9
4 7 -1 385.139 359.006 8
-4 -7 0 12618.6 1072.85 2
-4 -7 0 11404 978.37 12
4 7 0 13544.2 1019.56 9
4 7 0 11387.4 979.79 8
-4 -7 0 12644.7 1073.03 4
-4 -7 -1 2130.18 559.346 4
-4 -7 -1 2742.69 546.402 12
-4 -7 -1 3547.98 626.592 2
4 7 1 2704.76 539.352 9
4 7 1 3024.05 558.253 8
4 7 1 2044.02 433.448 3
-4 -7 -2 254.979 441.127 4
-4 -7 -2 143.353 307.385 12
-4 -7 -2 43.1322 369.897 2
4 7 2 860.539 390.051 9
4 7 2 190.108 408.668 8
4 7 2 -288.32 352.528 3
-4 -7 -3 2809.17 640.323 4
-4 -7 -3 2558.16 543.344 12
-4 -7 -3 2461.99 548.922 2
4 7 3 2107.98 497.011 9
4 7 3 3029.59 572.313 8
4 7 3 2677.77 546.375 3
-4 -7 -4 1812.98 540.867 4
-4 -7 -4 2544.6 511.073 12
-4 -7 -4 1955.29 535.519 2
4 7 4 2857.6 626.266 8
4 7 4 1703.58 490.12 3
-4 -7 -5 238.159 364.161 2
4 7 5 217.126 432.414 3
-4 -7 -6 133.529 410.002 2
-4 -8 13 295.74 383.733 12
-4 -8 13 739.243 416.418 6
4 8 -13 1057.29 482.099 8
-4 -8 12 319.72 411.924 12
-4 -8 12 -223.519 383.112 6
4 8 -12 79.0362 354.314 8
-4 -8 11 606.7 396.369 12
4 8 -11 1170.47 502.987 11
-4 -8 11 833.905 384.541 6
4 8 -11 1180.72 481.513 5
4 8 -11 1337.01 472.827 8
-4 -8 10 2558.44 590.811 12
4 8 -10 2781.22 615.478 11
-4 -8 10 2281.64 516.156 2
4 8 -10 3598.76 662.071 5
4 8 -10 3200.63 700.248 9
4 8 -10 2405.11 530.904 8
-4 -8 9 275.664 361.525 12
4 8 -9 41.2025 375.182 11
-4 -8 9 26.547 363.914 2
4 8 -9 666.043 396.891 5
4 8 -9 545.647 472.786 9
4 8 -9 -331.397 339.437 8
-4 -8 8 3203.62 632.727 4
-4 -8 8 3446.93 603.631 12
-4 -8 8 2808.84 537.887 2
4 8 -8 3791.1 665.895 5
4 8 -8 4336.64 721.134 9
4 8 -8 3177.29 566.671 8
-4 -8 7 491.703 392.484 4
-4 -8 7 876.548 432.232 12
-4 -8 7 899.371 401.411 2
4 8 -7 738.272 410.658 5
4 8 -7 1566.67 525.072 9
4 8 -7 1089.6 419.927 8
-4 -8 6 543.651 451.764 4
-4 -8 6 458.978 382.7 12
-4 -8 6 119.479 334.694 2
4 8 -6 757.623 473.906 9
4 8 -6 1014.38 407.539 8
-4 -8 5 882.591 416.4 4
-4 -8 5 883.596 432.111 12
-4 -8 5 1260.75 464.688 2
4 8 -5 271.592 362.812 9
4 8 -5 346.94 344.963 8
-4 -8 4 2677.69 594.143 4
-4 -8 4 3609.35 605.835 12
-4 -8 4 3269.74 606.277 2
4 8 -4 3063.98 586.609 9
4 8 -4 2504.18 505.5 8
-4 -8 3 4174.97 710.082 4
-4 -8 3 4876.85 716.903 12
-4 -8 3 5200.11 734.49 2
4 8 -3 4450.56 684.944 9
4 8 -3 5011.64 708.301 8
-4 -8 2 3730.4 670.989 4
-4 -8 2 2249.3 535.32 12
-4 -8 2 2856.54 584.544 2
4 8 -2 2630.86 569.651 9
4 8 -2 2710.84 544.382 8
-4 -8 1 25.3018 392.789 4
-4 -8 1 -20.9885 380 12
-4 -8 1 81.1386 414.274 2
4 8 -1 521.684 405.909 9
4 8 -1 542.294 389.866 8
-4 -8 0 410.524 395.658 12
-4 -8 0 -628.058 416.367 4
-4 -8 0 897.133 472.44 2
4 8 0 467.012 435.847 9
4 8 0 363.194 376.913 8
-4 -8 -1 1347.56 543.877 4
-4 -8 -1 2052.6 535.456 12
-4 -8 -1 822.935 452.059 2
4 8 1 781.471 429.214 9
4 8 1 605.317 371.323 8
-4 -8 -2 257.959 376.039 12
-4 -8 -2 584.347 396.533 2
4 8 2 493.278 355.11 9
4 8 2 -44.7402 380.49 8
-4 -8 -3 1374.31 484.982 12
-4 -8 -3 532.76 391.315 2
4 8 3 708.608 394.611 9
4 8 3 1049.64 465.618 3
4 8 4 4363.45 734.969 3
-4 -9 10 3782.45 686.607 12
-4 -9 9 199.802 366.889 12
4 9 -9 164.358 435.068 11
-4 -9 9 -403.322 407.934 2
4 9 -9 917.243 405.49 8
-4 -9 8 1113 507.074 4
-4 -9 8 1329.7 541.94 12
-4 -9 8 235.145 360.705 2
4 9 -8 1034.9 460.994 5
4 9 -8 2082.66 592.137 9
4 9 -8 1588.57 498.549 8
-4 -9 7 -60.2812 406.16 4
-4 -9 7 -374.624 420.427 12
-4 -9 7 -96.7757 369.885 2
4 9 -7 551.563 433.128 5
4 9 -7 -516.782 480.864 9
4 9 -7 99.2768 322.888 8
-4 -9 6 545.508 392.949 4
-4 -9 6 476.447 406.679 12
-4 -9 6 382.511 393.919 2
4 9 -6 505.95 427.903 9
4 9 -6 790.212 380.008 8
-4 -9 5 121.256 423.37 4
-4 -9 5 -384.661 350.31 12
-4 -9 5 -134.33 368.723 2
4 9 -5 -69.1713 432.461 9
4 9 -5 38.6722 328.305 8
-4 -9 4 984.786 518.169 4
-4 -9 4 344.069 357.067 12
-4 -9 4 188.287 368.005 2
4 9 -4 504.64 446.159 9
4 9 -4 361.879 342.045 8
-4 -9 3 1266.17 514.993 4
-4 -9 3 942.525 453.079 12
-4 -9 3 959.534 476.886 2
4 9 -3 2035.66 572.63 9
4 9 -3 1529.53 476.694 8
-4 -9 2 320.132 475.663 4
-4 -9 2 686.411 400.175 12
-4 -9 2 -99.6622 391.259 2
4 9 -2 368.257 435.695 9
4 9 -2 502.848 368.745 8
-4 -9 1 567.908 427.664 12
4 9 -1 -631.74 466.491 9
4 9 -1 514.982 370.513 8
-4 -9 0 323.671 363.643 12
4 9 0 876.18 428.366 9
4 9 0 -277.491 370.305 8
4 9 1 5330.25 740.984 9
4 9 2 370.729 378.827 9
4 10 -4 89.6072 356.222 8
4 10 -3 6091.72 787.828 8
4 10 -2 -552.945 424.462 8
-5 10 1 -106.218 357.629 13
-5 10 1 -412.725 415.537 1
5 -10 0 1398.44 473.595 7
-5 10 0 958.993 460.531 13
-5 10 0 642.536 465.939 1
5 -10 1 1143.39 455.973 7
-5 10 -1 -355.576 424.763 1
5 -10 2 1553.2 496.059 7
-5 10 -2 1534.57 563.914 1
5 -10 3 -498.575 415.327 7
-5 10 -3 337.532 411.494 1
5 -10 4 4094.09 657.88 7
-5 10 -4 4994.53 769.674 1
5 -10 5 3344.12 625.066 7
-5 10 -5 3065.57 644.57 1
5 -10 6 1990.19 546.571 7
5 -10 7 98.2398 411.042 7
5 -9 -3 445.312 439.832 7
-5 9 3 -228.165 438.846 1
5 -9 -2 1219.13 465.487 7
-5 9 2 755.96 380.413 13
5 -9 -2 760.272 429.135 10
-5 9 2 475.421 424.031 1
-5 9 1 1561.51 507.177 1
5 -9 -1 2637.06 593.205 7
-5 9 1 1300.64 453.554 13
-5 9 1 2660.11 639.444 3
5 -9 -1 2427.54 531.582 10
5 -9 0 4382.07 689.775 7
-5 9 0 2706.57 612.437 3
-5 9 0 3089.33 623.46 1
5 -9 0 3888.48 671.957 10
5 -9 1 561.128 391.364 7
-5 9 -1 -164.611 384.586 1
-5 9 -1 564.738 428.983 3
5 -9 1 679.074 440.62 10
-5 9 -2 764.94 493.116 1
5 -9 2 350.893 340.721 7
5 -9 2 235.006 384.124 10
5 -9 3 -252.018 382.586 7
5 -9 3 -138.18 379.518 10
-5 9 -3 358.421 397.007 1
5 -9 4 343.627 369.416 7
-5 9 -4 808.721 510.142 1
5 -9 4 88.4765 412.839 10
5 -9 5 978.349 434.465 7
-5 9 -5 271.283 458.071 1
5 -9 5 222.185 374.562 10
5 -9 6 2114.59 528.144 7
-5 9 -6 1696.17 523.869 1
5 -9 6 2682.77 605.575 10
5 -9 7 100.308 376.41 7
-5 9 -7 626.326 469.059 1
5 -9 7 607.991 449.176 10
5 -9 8 2144 530.412 7
5 -9 8 2718 602.323 14
5 -9 8 1052.79 499.36 10
5 -9 9 2280.61 558.248 14
5 -9 9 1656.49 514.382 10
5 -9 10 5240.37 776.335 14
5 -9 10 5287.33 761.166 10
5 -8 -5 1671.59 496.243 10
5 -8 -4 1661.34 525.725 7
-5 8 4 1058.94 463.818 3
5 -8 -4 377.958 381.185 10
-5 8 3 313.357 435.153 1
5 -8 -3 -353.119 348.165 7
-5 8 3 -515.82 410.456 3
5 -8 -3 384.462 387.755 10
5 -8 -2 149.789 356.494 7
-5 8 2 282.282 341.667 13
-5 8 2 674.298 451.637 1
-5 8 2 336.43 373.913 3
5 -8 -2 1135.87 451.908 10
5 -8 -1 2740.82 561.801 7
-5 8 1 3492.35 650.482 3
5 -8 -1 1845.53 476.361 10
-5 8 1 2408.29 552.222 1
5 -8 0 1022.81 427.901 7
-5 8 0 704.197 463.048 1
-5 8 0 260.177 364.28 3
5 -8 0 288.725 397.278 10
5 -8 1 10482.1 967.25 7
-5 8 -1 11100.1 1031.25 1
5 -8 1 11874 1057.42 10
5 -8 2 -329.488 394.5 7
5 -8 2 518.298 387.674 10
-5 8 -2 665.739 419.365 1
5 -8 3 1033.8 430.503 7
5 -8 3 969.606 422.932 10
-5 8 -3 1357.94 476.922 1
-5 8 -4 741.005 415.63 1
5 -8 4 -223.775 327.869 7
5 -8 4 429.751 427.375 10
5 -8 5 4886.86 715.973 7
-5 8 -5 4432.65 692.95 1
5 -8 5 3085.79 604.554 10
5 -8 6 4053.26 649.022 7
5 -8 6 3677.55 564.701 14
-5 8 -6 2584.43 566.666 1
5 -8 6 3727.41 658.692 10
5 -8 7 4132.33 677.859 7
-5 8 -7 3899.96 672.598 1
5 -8 7 2941.27 555.359 14
5 -8 7 4773.94 713.039 10
-5 8 -8 5800.17 822.424 1
5 -8 8 4950.42 753.661 7
5 -8 8 5496.66 713.36 14
5 -8 8 7113.51 821.631 10
-5 8 -9 1150.84 492.805 1
5 -8 9 1272.13 487.345 7
5 -8 9 465.324 391.928 14
5 -8 9 1154.36 402.964 10
5 -8 10 337.339 398.617 14
5 -8 10 -176.595 385.62 10
5 -8 11 200.221 369.044 10
-5 7 7 1510.65 508.854 3
5 -7 -6 4132.81 700.157 7
-5 7 6 3566.57 673.753 3
5 -7 -6 3814.53 621.45 10
5 -7 -5 114.713 415.555 7
-5 7 5 442.694 413.309 3
5 -7 -5 -215.706 356.377 10
5 -7 -4 1363.43 487.221 7
-5 7 4 580.636 401.981 3
5 -7 -4 408.157 368.526 10
-5 7 4 280.253 393.869 1
5 -7 -3 4370.41 687.954 7
-5 7 3 4497.49 564.591 13
-5 7 3 5411.22 741.444 3
5 -7 -3 5263.57 707.544 10
-5 7 3 4437.2 661.753 1
-5 7 2 892.454 448.716 1
5 -7 -2 770.412 347.227 7
-5 7 2 701.673 418.789 3
5 -7 -2 816.675 404.463 10
5 -7 -1 1438.2 491.828 7
-5 7 1 1207.31 450.225 3
-5 7 1 1276.6 472.706 1
5 -7 -1 1065.88 434.301 10
5 -7 0 -108.02 327.109 7
-5 7 0 -31.9682 350.188 1
5 -7 0 104.376 337.913 10
5 -7 1 230.85 346.221 7
5 -7 1 885.3 443.269 10
-5 7 -1 552.214 416.96 1
5 -7 2 2569.06 554.58 7
5 -7 2 2555.18 567.927 10
-5 7 -2 1861.7 467.359 1
5 -7 3 3564.9 600.436 7
-5 7 -3 3099.64 576.992 1
5 -7 3 3916.73 638.444 10
5 -7 4 4201.08 637.624 7
-5 7 -4 3703.62 635.908 1
5 -7 4 4590.15 683.444 10
5 -7 5 230.893 370.281 7
5 -7 5 1014.72 369.734 14
-5 7 -5 445.758 406.888 1
5 -7 5 863.507 432.352 10
5 -7 6 496.592 358.267 7
5 -7 6 364.637 302.319 14
-5 7 -6 -115.649 389.232 1
5 -7 6 144.724 326.364 10
-5 7 -7 230.67 420.615 1
5 -7 7 139.269 351.509 7
5 -7 7 173.19 328.349 14
5 -7 7 -254.212 398.299 10
-5 7 -8 2969.55 606.749 1
5 -7 8 4195.72 665.787 7
5 -7 8 4895.41 648.973 14
5 -7 8 4000.94 632.509 10
5 -7 9 -101.945 346.535 7
5 -7 9 -357.627 364.465 14
5 -7 9 1411.37 479.336 10
-5 7 -9 1562.11 608.889 1
5 -7 10 660.48 441.562 7
5 -7 10 1839.94 535.93 14
5 -7 10 1546.89 413.459 10
-5 7 -10 1440.48 545.066 1
5 -7 11 767.669 483.916 14
5 -7 11 1149.3 405.286 10
-5 6 9 2441.58 624.12 3
-5 6 8 1242.86 473.387 3
5 -6 -7 596.589 430.856 7
-5 6 7 1115.48 546.708 6
-5 6 7 408.035 368.546 3
5 -6 -6 1374.69 503.134 7
-5 6 6 1352.21 438.853 3
5 -6 -6 390.5 345.448 10
5 -6 -5 1347.01 500.491 7
-5 6 5 49.0071 378.637 3
5 -6 -5 848.54 419.044 10
-5 6 4 84.5683 346.39 1
5 -6 -4 334.42 338.898 7
-5 6 4 761.85 418.887 3
5 -6 -4 96.9915 344.2 10
5 -6 -3 -62.8629 328.715 7
-5 6 3 321.544 367.594 3
-5 6 3 920.416 423.028 1
5 -6 -3 -469.183 394.308 10
5 -6 -2 423.123 354.06 7
-5 6 2 330.185 372.903 3
5 -6 -2 -427.442 396.891 10
-5 6 2 -124.134 365.737 1
5 -6 -1 119.442 355.763 7
-5 6 1 -87.7052 363.709 1
5 -6 -1 172.793 337.276 10
5 -6 0 636.977 401.131 7
-5 6 0 850.932 446.4 1
5 -6 0 -352.337 363.561 10
5 -6 1 -278.223 346.472 7
5 -6 1 -114.199 375.569 10
-5 6 -1 446.014 392.804 1
5 -6 2 2572.69 520.142 7
5 -6 2 2494.39 527.803 10
-5 6 -2 2362.23 523.643 1
-5 6 -3 9088.2 857.021 1
5 -6 3 8384.29 832.636 7
5 -6 3 7628.61 611.982 14
5 -6 3 9368.93 868.333 10
5 -6 4 213.777 335.012 7
5 -6 4 -81.7592 260.632 14
-5 6 -4 -299.003 392.243 1
5 -6 4 92.7992 378.379 10
5 -6 5 426.56 344.066 7
5 -6 5 753.242 291.993 14
-5 6 -5 82.0227 377.064 1
5 -6 5 852.64 413.916 10
5 -6 6 807.75 408.194 7
-5 6 -6 624.803 390.154 1
5 -6 6 591.634 349.321 14
5 -6 6 1158.8 420.895 10
-5 6 -7 441.374 417.548 1
5 -6 7 292.958 369.639 7
5 -6 7 118.578 325.302 14
5 -6 7 -205.816 363.88 10
5 -6 8 5734.74 755.138 7
5 -6 8 6269.73 726.763 14
5 -6 8 6330.88 733.897 10
-5 6 -8 5875.56 745.839 1
5 -6 9 756.373 446.71 7
5 -6 9 234.759 341.185 14
5 -6 9 434.168 348.048 10
-5 6 -9 21.105 375.912 1
5 -6 10 247.433 359.498 7
5 -6 10 32.8279 376.116 14
5 -6 10 -488.422 359.291 10
-5 6 -10 233.976 396.841 1
5 -6 11 2838.37 674.511 7
5 -6 11 3027.72 618.196 14
-5 6 -11 2641.77 584.415 1
-5 5 10 154.674 349.075 3
-5 5 9 3908.95 670.664 3
5 -5 -8 3831.3 674.316 7
-5 5 8 3706.68 711.697 6
-5 5 8 3998.97 639.261 3
5 -5 -7 -225.699 386.713 7
-5 5 7 571.671 457.733 6
-5 5 7 757.613 414.796 3
5 -5 -7 394.535 341.936 10
5 -5 -6 148.67 381.633 7
-5 5 6 -407.21 362.834 3
5 -5 -6 326.737 351.128 10
5 -5 -5 3914.44 648.117 7
-5 5 5 3913.86 591.65 3
5 -5 -5 3797.94 598.185 10
5 -5 -4 3998.24 614.397 7
-5 5 4 2978.3 564.687 1
-5 5 4 5045.26 669.028 3
5 -5 -4 4119.64 618.316 10
5 -5 -3 -281.524 341.976 7
-5 5 3 -353.894 350.312 1
-5 5 3 -376.71 363.003 3
5 -5 -3 -185.511 324.698 10
5 -5 -2 223.469 359.157 10
-5 5 2 -308.817 381.228 1
5 -5 -1 10938.2 918.686 7
-5 5 1 12182.9 948.29 1
5 -5 -1 12649.2 990.135 10
5 -5 0 19205.7 1206.58 7
-5 5 0 18131.9 1182.94 1
5 -5 0 19773.7 1238.84 10
5 -5 0 21051.3 988.155 8
5 -5 1 18238.9 1172.75 7
-5 5 -1 18367.7 1170.26 1
5 -5 1 20633 1268.08 10
5 -5 1 21358.2 949.743 8
5 -5 2 25.4669 310.702 7
5 -5 2 -60.853 204.953 14
5 -5 2 341.016 372.681 10
-5 5 -2 730.154 386.929 1
5 -5 2 -272.049 199.446 8
5 -5 3 228.758 311.757 7
5 -5 3 257.498 218.408 14
-5 5 -3 -229.76 333.247 1
5 -5 3 204.188 366.434 10
5 -5 3 346.113 174.098 8
5 -5 4 1020.29 379.086 7
5 -5 4 829.036 284.432 14
-5 5 -4 1261.12 451.712 1
5 -5 4 1664.67 482.188 10
5 -5 5 762.806 403.651 7
5 -5 5 1322.44 349.812 14
-5 5 -5 676.057 407.985 1
5 -5 5 1627.2 462.542 10
5 -5 6 2587.35 516.972 7
5 -5 6 3302.67 513.959 14
-5 5 -6 3173.9 545.243 1
5 -5 6 2460.49 530.442 10
-5 5 -7 980.135 424.135 1
5 -5 7 1553.67 453.645 7
5 -5 7 882.056 362.81 14
5 -5 7 831.252 360.166 10
5 -5 8 204.815 333.215 7
5 -5 8 102.829 358.895 14
5 -5 8 201.181 306.028 10
-5 5 -8 222.267 395.352 1
5 -5 9 2229.05 555.2 7
5 -5 9 2307.44 534.535 14
5 -5 9 2038.47 463.106 10
-5 5 -9 1877.36 511.341 1
5 -5 10 9175.89 903.946 14
5 -5 10 10011.5 872.958 10
-5 5 -10 8954.54 944.907 1
5 -5 10 10726.8 1034.16 7
5 -5 11 2344.74 581.809 7
5 -5 11 1365.56 501.171 14
-5 5 -11 1167.54 476.092 1
-5 4 10 1088.49 410.724 3
5 -4 -9 4856.46 727.758 7
-5 4 9 5151.09 765.9 6
-5 4 9 5240.11 666.178 3
5 -4 -8 2.84583 346.145 7
-5 4 8 717.703 378.474 3
5 -4 -7 267.824 339.754 7
-5 4 7 184.187 418.827 6
-5 4 7 420.96 341.102 3
5 -4 -7 202.544 313.822 10
5 -4 -6 1042.81 444.107 7
-5 4 6 1234.54 380.047 3
5 -4 -6 712.933 366.532 10
5 -4 -5 5309.08 679.671 7
-5 4 5 5800.9 651.687 3
5 -4 -5 5653.19 677.452 10
5 -4 -4 4375.75 634.719 7
-5 4 4 5726.92 713.474 1
-5 4 4 4801.84 601.845 3
5 -4 -4 4673.8 651.231 10
5 -4 -3 26063.6 1420.35 7
-5 4 3 24676.1 1381.58 1
5 -4 -3 28482.7 1469.85 10
5 -4 -2 13725.4 1011.99 7
-5 4 2 16190.3 1080.49 1
5 -4 -2 16888.3 768.945 11
5 -4 -2 16427.5 1122.94 10
5 -4 -1 20888.2 1223.91 7
-5 4 1 23233.1 1291.19 1
5 -4 -1 22470.4 1295.89 10
-5 4 0 889.562 387.511 1
5 -4 0 1272.74 363.357 7
5 -4 0 2145.74 491.688 10
5 -4 0 1609.14 350.983 8
5 -4 1 16045 1058.48 7
-5 4 -1 15488.2 1047.05 1
5 -4 1 16410.6 782.7 14
5 -4 1 17870 1150.64 10
5 -4 1 17091.3 882.769 8
5 -4 2 6270.69 530.783 14
5 -4 2 5650.76 669.54 7
5 -4 2 5751.39 687.646 10
-5 4 -2 4724.88 628.243 1
5 -4 2 5490.9 493.024 8
-5 4 -3 7975.48 755.215 1
5 -4 3 7122.43 730.311 7
5 -4 3 7240.25 614.754 14
5 -4 3 7320.28 753.157 10
5 -4 3 8029.44 579.69 8
5 -4 4 713.833 285.906 14
5 -4 4 1256.52 449.139 7
-5 4 -4 -78.5334 360.077 1
5 -4 4 786.976 406.816 10
5 -4 4 725.379 225.436 8
5 -4 5 2685.81 521.428 7
5 -4 5 2747.37 476.24 14
-5 4 -5 2454.76 523.79 1
5 -4 5 3164.65 564.419 10
5 -4 5 2580.64 375.016 8
5 -4 6 9488.85 860.504 7
5 -4 6 9697.38 812.452 14
5 -4 6 9984.09 900.167 10
5 -4 6 11422.5 724.731 8
-5 4 -6 10045 873.89 1
-5 4 -7 732.788 370.962 1
5 -4 7 644.887 379.126 7
5 -4 7 972.156 412.736 14
5 -4 7 470.436 336.456 10
5 -4 7 798.74 289.153 8
5 -4 8 837.564 404.715 7
5 -4 8 2214.28 497.104 14
5 -4 8 2073.38 484.603 10
5 -4 8 2238.84 400.467 8
-5 4 -8 2328.47 517.85 1
5 -4 9 -31.7839 363.149 7
5 -4 9 1237.31 466.725 14
5 -4 9 123.044 332.3 10
-5 4 -9 369.394 380.971 1
5 -4 10 301.272 373.836 7
5 -4 10 279.137 428.324 14
5 -4 10 -270.848 293.044 10
-5 4 -10 208.091 365.087 1
5 -4 11 2183.6 557.534 7
5 -4 11 1554.26 529.57 14
-5 4 -11 1219.13 504.139 1
-5 4 -12 6759.33 853.717 1
5 -3 -10 4755.24 738.329 7
-5 3 10 4621.86 760.36 6
5 -3 -9 1206.5 465.705 7
-5 3 9 1295.74 509.049 6
-5 3 9 1929.61 432.496 3
5 -3 -8 646.021 389.122 7
-5 3 8 -147.833 387.272 6
5 -3 -8 160.279 304.782 10
-5 3 8 337.459 301.852 3
5 -3 -7 509.567 369.607 7
-5 3 7 544.936 445.759 6
5 -3 -7 778.124 282.594 11
-5 3 7 1042.28 343.913 3
5 -3 -7 687.465 368.616 10
5 -3 -6 41.1388 333.915 7
5 -3 -6 357.62 221.874 11
-5 3 6 699.61 291.735 3
5 -3 -6 584.035 361.854 10
5 -3 -5 3942.96 590.319 7
5 -3 -5 4451.21 477.198 11
-5 3 5 3320.44 483.265 3
5 -3 -5 4791.46 621.531 10
5 -3 -4 20117 1198.17 7
-5 3 4 18470.1 1154.22 1
-5 3 4 18840.3 1056.81 3
5 -3 -4 19557.2 949.741 11
5 -3 -4 17423.4 1118.53 10
5 -3 -3 13303 967.14 7
-5 3 3 11907.6 934.314 1
5 -3 -3 13308.7 979.195 10
5 -3 -2 1318.73 393.168 7
-5 3 2 2423.73 488.991 1
5 -3 -1 27167.4 1397.87 7
-5 3 1 28565.4 1420.25 1
5 -3 -1 30307.5 1506.13 10
5 -3 -1 31875.6 1330.78 8
-5 3 0 571.948 372.645 1
5 -3 0 445.565 206.183 14
5 -3 0 -57.5078 291.052 7
5 -3 0 1166.27 448.603 10
5 -3 0 589.196 271.771 8
5 -3 1 6541.9 666.161 7
5 -3 1 6744.13 518.598 14
5 -3 1 8456.87 793.863 10
-5 3 -1 5768.67 644.684 1
5 -3 1 6927.83 580.061 8
5 -3 2 5781.69 531.206 14
5 -3 2 5527.04 646.43 7
5 -3 2 6640.56 734.799 10
-5 3 -2 5798.07 630.479 1
5 -3 2 6117.44 547.991 8
5 -3 3 4110.18 493.326 14
5 -3 3 4041.28 555.796 7
-5 3 -3 4402.01 585.267 1
5 -3 3 4432.54 622.076 10
5 -3 3 3880.94 443.532 8
5 -3 4 24149.4 1314.71 7
5 -3 4 25499.8 1249.24 14
5 -3 4 26307.8 1396.15 10
5 -3 4 29315.4 1218.56 8
-5 3 -4 26329.1 1353.95 1
5 -3 5 -118.269 324.317 7
-5 3 -5 -29.3034 321.304 1
5 -3 5 853.799 381.677 14
5 -3 5 186.847 355.522 10
5 -3 5 194.967 228.706 8
-5 3 -6 -221.34 341.466 1
5 -3 6 202.168 350.956 7
5 -3 6 371.058 399.231 14
5 -3 6 91.3983 329.722 10
5 -3 6 283.592 287.027 8
5 -3 7 -84.2567 316.869 7
5 -3 7 457.466 378.091 14
5 -3 7 534.194 344.721 10
5 -3 7 72.483 230.348 8
-5 3 -7 253.253 340.68 1
5 -3 8 6755.78 781.633 7
5 -3 8 8451.46 855.474 14
5 -3 8 8002.01 789.572 10
5 -3 8 9274.13 757.499 8
-5 3 -8 8117.36 793.239 1
5 -3 9 -377.624 322.921 7
5 -3 9 463.866 413.704 14
5 -3 9 862.276 401.103 10
-5 3 -9 -483.533 375.487 1
5 -3 9 -211.412 300.636 8
5 -3 10 1480.7 512.762 7
5 -3 10 817.567 460.77 14
-5 3 -10 1229.55 468.728 1
5 -3 10 811.857 374.423 8
5 -3 11 -161.992 402.018 7
5 -3 11 871.388 472.18 14
-5 3 -11 138.684 452.687 1
5 -3 11 -76.9258 339.751 8
-5 3 -12 1878.79 533.441 1
5 -2 -11 771.68 459.891 7
-5 2 11 -119.125 418.77 6
5 -2 -11 45.2159 305.279 11
5 -2 -10 493.492 373.135 7
-5 2 10 -200.034 418.562 6
5 -2 -10 201.772 281.735 11
5 -2 -9 379.985 401.043 7
-5 2 9 469.871 404.392 6
5 -2 -9 732.571 337.369 11
5 -2 -8 1218.08 422.984 7
-5 2 8 1565.84 484.462 6
5 -2 -8 1338.53 379.964 11
5 -2 -8 2102.11 444.393 10
-5 2 8 2218.01 422.329 3
5 -2 -7 -15.4295 334.416 7
-5 2 7 295.066 399.501 6
5 -2 -7 418.301 297.778 11
-5 2 7 385.819 290.412 3
5 -2 -7 148.37 298.483 10
5 -2 -6 291.407 314.993 7
-5 2 6 299.53 371.89 6
5 -2 -6 96.5772 230.171 11
-5 2 6 218.225 295.939 3
5 -2 -5 13516.7 972.652 7
-5 2 5 11679.1 785.392 3
5 -2 -5 12360.5 797.596 11
5 -2 -4 -149.911 313.736 7
-5 2 4 230.37 307.41 1
5 -2 -3 -171.661 346.191 7
-5 2 3 -178.791 352.231 1
5 -2 -2 28445.9 1376.69 7
-5 2 2 29724.1 1426.86 1
5 -2 -1 2584.3 450.033 7
-5 2 1 2783.06 495.257 1
5 -2 -1 3226.5 454.044 8
5 -2 0 49419.3 1908.49 7
-5 2 0 48852.1 1912.33 1
5 -2 0 54676.5 1865.63 8
-5 2 0 51527.7 1465.99 4
5 -2 1 15414.9 990.889 7
-5 2 -1 15652.2 1002.43 1
5 -2 1 17744.5 973.218 8
-5 2 -1 17459.7 732.208 4
-5 2 -2 188.33 169.527 4
5 -2 2 213.026 316.008 7
-5 2 -2 -165.05 296.754 1
5 -2 2 -9.29897 247.234 8
-5 2 -3 3210.62 350.927 4
5 -2 3 3273.44 471.038 7
-5 2 -3 3474.6 486.831 1
5 -2 3 3114.03 439.566 8
-5 2 -4 276.142 231.818 4
5 -2 4 120.625 289.898 7
-5 2 -4 64.1429 283.545 1
5 -2 4 74.3447 257.499 8
-5 2 -5 4343.38 467.987 4
5 -2 5 4211.65 568.431 7
-5 2 -5 3950.44 543.506 1
5 -2 5 4856.97 555.596 8
-5 2 -6 1676.15 346.363 4
-5 2 -6 2067.89 455.396 1
5 -2 6 1811.33 434.052 7
5 -2 6 2247.28 420.728 8
-5 2 -7 4955.84 545.186 4
5 -2 7 4431.74 614.829 7
5 -2 7 5044.23 635.858 10
5 -2 7 4715.86 589.74 8
-5 2 -7 4421.59 605.877 1
-5 2 -8 1502.88 376.117 4
5 -2 8 978.411 356.762 7
5 -2 8 2270.38 564.985 14
5 -2 8 1633.27 466.856 10
5 -2 8 1133.51 397.397 8
-5 2 -8 1085.79 410.491 1
-5 2 -9 877.483 354.149 4
5 -2 9 1471.94 466.779 7
5 -2 9 2128.54 586.206 14
5 -2 9 1484.96 414.393 10
5 -2 9 1269.98 420.599 8
-5 2 -9 918.616 391.594 1
-5 2 -10 5558.57 684.241 4
5 -2 10 5334.97 737.345 7
5 -2 10 7011.36 873.148 14
-5 2 -10 6013.96 734.072 1
5 -2 10 5418.78 687.373 8
5 -2 11 49.6861 409.997 14
-5 2 -11 432.327 394.067 1
5 -2 11 224.927 371.729 8
-5 2 -11 -332.34 383.231 4
-5 2 -12 4879.64 722.75 1
5 -2 12 4517.16 684.737 8
-5 2 -12 3973 614.862 4
-5 2 -13 1379.58 486.62 1
5 -2 13 1615.68 528.232 8
5 -1 -13 123.275 361.266 11
5 -1 -12 4323.81 648.503 11
5 -1 -11 241.535 354.219 7
-5 1 11 -503.155 481.581 6
5 -1 -11 633.414 379.344 11
5 -1 -10 93.5062 387.378 7
-5 1 10 560.615 438.082 6
5 -1 -10 292.703 354.622 11
5 -1 -9 54.6622 343.34 7
-5 1 9 -219.056 367.515 6
5 -1 -9 573.972 332.32 11
5 -1 -8 427.74 364.333 7
-5 1 8 885.417 434.297 6
5 -1 -8 1717.45 427.774 11
5 -1 -7 19449.1 1207.36 7
-5 1 7 17181.5 1169.9 6
-5 1 7 20729.8 994.803 3
5 -1 -7 20225.5 1137.48 11
5 -1 -6 17190.9 1084.88 7
-5 1 6 16470.2 1122.05 6
-5 1 6 18396.2 927.555 3
5 -1 -6 18207.8 1043.38 11
5 -1 -5 5152.44 624.053 7
-5 1 5 4250.25 580.126 6
-5 1 5 3884.52 443.099 3
5 -1 -4 -257.031 299.732 7
-5 1 4 -820.472 394.496 1
5 -1 -3 13341.9 902.876 7
-5 1 3 13120.8 911.016 1
5 -1 -2 8874.57 756.118 7
-5 1 2 9344.45 767.099 1
5 -1 -2 9730.63 419.977 5
5 -1 -2 9922.02 762.932 8
5 -1 -1 7227.2 666.129 7
-5 1 1 7679.55 692.438 1
5 -1 -1 7239.71 635.258 8
-5 1 1 7230.65 498.953 4
5 -1 0 14975.9 946.02 7
-5 1 0 15730.9 980.496 1
5 -1 0 17661 998.395 8
-5 1 0 16206.9 781.044 4
5 -1 1 4062.78 510.758 7
-5 1 -1 3859.93 395.744 4
-5 1 -1 3306.9 484.126 1
5 -1 1 3018.79 450.252 8
5 -1 2 9556.99 769.816 7
-5 1 -2 9326.45 740.396 1
5 -1 2 9725.93 757.933 8
-5 1 -2 10172.6 630.849 4
-5 1 -3 303.741 210.029 4
5 -1 3 581.115 310.051 7
-5 1 -3 540.311 327.084 1
5 -1 3 506.24 267.669 8
5 -1 4 9561.19 776.46 7
5 -1 4 11628.6 835.639 8
-5 1 -4 11532.6 742.588 4
-5 1 -4 11070.4 814.308 1
-5 1 -5 1485.98 357.429 4
5 -1 5 1518.76 416.408 7
-5 1 -5 1178.17 402.379 1
5 -1 5 800.466 332.975 8
-5 1 -6 876.785 306.321 4
5 -1 6 825.031 362.511 7
-5 1 -6 914.161 358.629 1
5 -1 6 178.101 275.639 8
-5 1 -7 1362.8 395.534 1
-5 1 -7 650.938 312.023 4
5 -1 7 840.422 338.926 7
5 -1 7 278.825 313.3 8
-5 1 -8 3886.13 545.962 4
5 -1 8 4750.3 658.314 7
5 -1 8 3558.83 573.567 8
-5 1 -8 3649.1 530.273 1
-5 1 -9 1548.91 413.769 4
5 -1 9 1784.77 456.735 7
5 -1 9 1600.87 415.736 10
5 -1 9 2185.74 503.561 8
-5 1 -9 1712.52 445.173 1
-5 1 -10 -216.674 350.918 4
-5 1 -10 37.0781 375.208 1
5 -1 10 240.22 349.572 8
-5 1 -11 564.177 405.264 4
-5 1 -11 1147.94 473.986 1
5 -1 11 -288.37 378.083 8
-5 1 -12 -226.345 436.444 4
-5 1 -12 445.813 425.768 1
5 -1 12 892.508 502.51 8
5 0 -13 853.286 454.604 11
5 0 -12 187.023 371.112 7
-5 0 12 -86.7532 413.077 6
5 0 -12 -866.07 421.824 11
5 0 -11 5480.94 731.325 7
-5 0 11 5035.95 775.1 6
5 0 -11 4575.03 661.585 11
5 0 -10 619.863 381.279 7
-5 0 10 -170.01 295.115 12
-5 0 10 284.087 373.447 6
5 0 -10 -73.9922 320.505 11
5 0 -9 177.63 309.423 7
-5 0 9 286.989 288.469 12
-5 0 9 161.396 364.423 6
5 0 -9 278.576 326.989 11
5 0 -8 2638.33 491.165 7
-5 0 8 1973.38 485.634 6
5 0 -8 2708.53 491.968 11
-5 0 7 -70.0889 208.924 2
5 0 -7 103.87 293.285 7
-5 0 7 -68.5195 312.594 6
5 0 -7 -200.935 295.458 11
-5 0 6 3057.49 435.149 2
5 0 -6 2111.08 423.73 7
-5 0 6 2442.98 501.274 6
-5 0 6 2853.9 346.662 3
5 0 -5 6571.35 643.275 7
-5 0 5 7863.57 718.701 6
5 0 -5 7120.03 447.154 5
-5 0 4 146.265 289.641 1
5 0 -4 -71.8454 257.506 7
-5 0 4 614.614 332.116 6
5 0 -4 126.724 144.696 5
-5 0 3 3470.21 509.052 1
5 0 -3 3635.06 493.633 7
-5 0 3 3435.59 401.985 4
5 0 -3 4146.94 328.805 5
5 0 -3 3573.53 500.855 8
5 0 -2 7351.52 637.698 7
-5 0 2 7660.39 689.02 1
5 0 -2 8107.57 709.17 8
-5 0 2 6170.41 534.475 4
5 0 -1 874.987 318.889 7
-5 0 1 1064.33 268.157 4
-5 0 1 838.778 339.713 1
5 0 -1 1279.46 393.479 8
5 0 0 1936.73 370.473 7
-5 0 0 1206.56 283.44 4
-5 0 0 2713.45 423.319 1
5 0 0 1638.6 379.311 8
-5 0 -1 2643.16 453.077 1
5 0 1 2721.62 416.673 7
-5 0 -1 3759.55 445.869 4
5 0 1 3612.17 504.62 8
-5 0 -2 1957.55 345.018 4
5 0 2 1746.64 417.334 7
-5 0 -2 1853.36 401.56 1
5 0 2 1889.92 423.151 8
-5 0 -3 -134.343 212.855 4
5 0 3 27.1149 266.189 7
-5 0 -3 28.9591 252.951 1
5 0 3 197.083 315.002 8
-5 0 -4 18676.7 1042.92 1
5 0 4 17004 1027.59 7
5 0 4 18101.8 1093.45 8
-5 0 -4 20239.1 1057.07 4
-5 0 -5 208.362 315.224 4
5 0 5 -20.9397 281.417 7
-5 0 -5 228.042 291.033 1
5 0 5 127.295 299.771 8
-5 0 -6 208.208 327.051 4
5 0 6 134.193 267.79 7
-5 0 -6 307.729 280.111 1
5 0 6 -119.326 334.827 8
-5 0 -7 1331.93 428.865 4
-5 0 -7 1386.97 394.034 1
5 0 7 1862.22 454.502 7
-5 0 -7 631.852 363.558 12
5 0 7 666.54 384.387 8
-5 0 -8 4745.21 582.742 1
-5 0 -8 5778.73 676.405 4
5 0 8 5070.08 651.757 7
-5 0 -8 4700.6 611.696 12
5 0 8 5369.6 685.929 8
-5 0 -9 -341.498 357.195 4
5 0 9 -49.1032 337.21 8
-5 0 -9 65.605 298.485 1
-5 0 -10 212.376 383.7 4
5 0 10 -518.054 393.837 8
-5 0 -10 603.647 391.725 1
-5 0 -11 -172.74 390.062 4
5 0 11 94.8694 395.433 8
-5 0 -12 3359.1 629.34 2
5 1 -13 2433.03 618.053 11
5 1 -12 -59.0793 345.598 7
-5 -1 12 696.839 453.607 6
5 1 -12 -128.352 431.034 11
5 1 -11 963.315 420.918 7
-5 -1 11 1840.69 534.038 6
5 1 -11 1250.53 454.711 11
5 1 -10 119.897 317.833 7
-5 -1 10 389.705 388.958 12
-5 -1 10 1207.74 434.394 6
5 1 -10 308.769 355.323 11
5 1 -9 11539.2 921.072 7
-5 -1 9 11429.8 951.023 6
-5 -1 9 11215.5 908.875 12
5 1 -9 12164.3 979.799 11
5 1 -8 4014.25 559.549 7
-5 -1 8 3766.46 545.164 12
-5 -1 8 3054.45 538.465 6
5 1 -8 3130.03 538.94 11
5 1 -8 4309.31 483.243 5
-5 -1 7 7646.35 616.825 2
5 1 -7 5698.57 601.37 7
-5 -1 7 7146.9 716.718 12
5 1 -7 6733.1 721.315 11
-5 -1 7 5943.76 657.096 6
5 1 -7 7213.05 560.839 5
5 1 -6 -71.2871 267.533 7
-5 -1 6 605.66 272.177 2
-5 -1 6 528.238 302.894 6
5 1 -6 441.541 192.695 5
-5 -1 5 4197.42 491.117 2
5 1 -5 5263.43 564.186 7
-5 -1 5 4265.58 608.282 12
-5 -1 5 4144.7 524.77 6
5 1 -5 5105.72 450.383 5
-5 -1 4 -103.102 264.603 2
5 1 -4 30.3443 254.991 7
-5 -1 4 75.2073 244.742 4
-5 -1 4 271.567 283.311 6
5 1 -4 51.4323 190.028 5
5 1 -4 -120.608 303.151 8
5 1 -3 895.532 300.787 7
-5 -1 3 932.072 269.252 4
-5 -1 3 1206.12 327.088 6
-5 -1 3 696.521 346.308 1
5 1 -3 1057.43 361.162 8
5 1 -2 946.746 304.985 7
-5 -1 2 1670.08 342.973 4
-5 -1 2 1743.32 359.007 6
5 1 -2 1811.3 432.166 8
-5 -1 2 1277.94 339.888 1
-5 -1 1 734.987 295.57 1
5 1 -1 295.445 226.561 7
-5 -1 1 777.297 307.209 4
5 1 -1 225.59 312.927 8
5 1 0 422.995 274.893 7
-5 -1 0 264.798 269.09 4
-5 -1 0 507.246 272.606 1
5 1 0 793.953 340.567 8
5 1 1 2688.7 403.258 7
-5 -1 -1 2758.9 412.553 4
-5 -1 -1 3036.57 425.722 1
5 1 1 2832.35 475.18 8
-5 -1 -2 -196.581 252.876 4
5 1 2 167.265 231.802 7
-5 -1 -2 36.3402 306.026 12
5 1 2 401.573 348.756 8
-5 -1 -2 -122.34 248.192 1
-5 -1 -3 3520.99 490.617 4
5 1 3 3625.59 512.65 7
-5 -1 -3 4334.41 615.268 12
-5 -1 -3 4596.17 519.982 1
5 1 3 3901.8 542.744 8
-5 -1 -4 4559.6 576.82 4
5 1 4 4509.08 522.854 7
-5 -1 -4 4816.62 635.645 12
-5 -1 -4 4625.52 540.694 1
5 1 4 4745.46 624.396 8
-5 -1 -5 5052.33 659.022 4
5 1 5 4390.04 552.069 7
-5 -1 -5 5160.54 553.978 1
-5 -1 -5 5698.47 641.002 12
5 1 5 4835.2 624.396 8
-5 -1 -6 4925.95 628.045 4
5 1 6 5991.64 665.27 7
-5 -1 -6 5206.65 561.035 1
-5 -1 -6 5890.37 652.223 12
5 1 6 5395.63 692.428 8
-5 -1 -7 3409.28 575.271 4
5 1 7 3318.5 562.531 7
-5 -1 -7 3190.89 479.856 1
-5 -1 -7 3818.51 546.742 12
5 1 7 3107.38 562.67 8
-5 -1 -8 57.8404 354.251 4
5 1 8 -551.205 391.672 8
-5 -1 -9 62.701 390.649 4
-5 -1 -9 358.686 366.178 2
5 1 9 595.534 470.317 8
-5 -1 -10 383.129 397.003 4
-5 -1 -10 605.182 410.821 2
5 1 10 909.315 443.526 8
-5 -1 -11 1543.76 444.744 2
5 2 -13 3219.99 638.487 11
5 2 -12 1601.36 480.11 7
-5 -2 12 1159.04 483.875 6
5 2 -12 1390.45 516.059 11
5 2 -11 262.347 348.385 7
-5 -2 11 807.232 378.978 12
-5 -2 11 904.375 435.743 6
5 2 -11 89.3324 355.48 11
5 2 -10 3857.86 571.898 7
-5 -2 10 3911.75 581.322 12
-5 -2 10 3805.09 643.697 6
5 2 -10 3682.48 608.117 11
5 2 -10 4757.9 582.637 5
5 2 -9 576.909 319.604 7
-5 -2 9 171.381 307.884 12
-5 -2 9 292.735 398.804 6
5 2 -9 229.708 360.601 11
5 2 -9 57.8414 256.415 5
5 2 -8 10248.6 807.73 7
-5 -2 8 8025.04 782.266 6
-5 -2 8 10530.6 874.847 12
5 2 -8 8551.51 844.045 11
5 2 -8 9712.89 727.665 5
5 2 -7 591.992 297.282 7
-5 -2 7 751.209 308.224 2
-5 -2 7 316.483 356.37 12
-5 -2 7 507.302 328.747 6
5 2 -7 488.965 273.189 5
-5 -2 6 7565.34 663.471 2
5 2 -6 8179.63 687.62 7
-5 -2 6 8073.06 713.332 6
-5 -2 6 7342.37 746.682 12
5 2 -6 7377.87 596.607 5
5 2 -5 611.567 288.666 7
-5 -2 5 1296.22 366.591 2
-5 -2 5 894.636 364.724 12
-5 -2 5 406.032 286.02 6
5 2 -5 518.63 246.227 5
5 2 -5 1346.49 410.286 8
5 2 -4 1853.68 358.595 7
-5 -2 4 2484.54 438.369 2
-5 -2 4 1922.57 401.367 4
-5 -2 4 1580.51 418.243 12
-5 -2 4 3021.67 405.152 6
5 2 -4 2018.58 452.628 8
5 2 -3 7609.59 615.064 7
-5 -2 3 5296.46 618.316 2
-5 -2 3 5783.7 584.574 4
-5 -2 3 7185.68 568.635 6
-5 -2 3 6398.15 718.189 12
5 2 -3 6116.55 661.833 8
5 2 -2 647.28 264.043 7
-5 -2 2 899.897 337.812 4
-5 -2 2 882.27 344.688 2
-5 -2 2 525.718 368.92 12
-5 -2 2 244.16 206.765 6
-5 -2 2 304.354 272.946 1
5 2 -2 752.976 390.054 8
5 2 -1 455.024 249.226 7
-5 -2 1 379.052 258.73 4
-5 -2 1 892.916 392.636 2
-5 -2 1 913.354 409.695 12
-5 -2 1 907.314 251.739 6
-5 -2 1 689.655 303.08 1
5 2 -1 754.418 374.218 8
5 2 0 5577.47 523.462 7
-5 -2 0 5985.72 601.195 4
-5 -2 0 5464.83 636.984 2
-5 -2 0 6142.87 565.498 1
-5 -2 0 6682.54 460.79 6
-5 -2 0 6173.03 699.64 12
5 2 0 5852.57 680.659 8
5 2 1 9527.75 681.174 7
-5 -2 -1 10252.3 708.989 1
-5 -2 -1 10144.8 850.622 12
5 2 1 8617.65 799.354 8
-5 -2 -1 9720.85 773.058 4
-5 -2 -1 9145.56 825.369 2
5 2 2 19478.8 1008.26 7
-5 -2 -2 20648.9 1001.08 1
-5 -2 -2 18578.1 1160.99 12
5 2 2 18125.1 1151.21 8
-5 -2 -2 19336.2 1117.35 4
-5 -2 -2 18350.2 1167.22 2
-5 -2 -3 2263.6 473.737 4
5 2 3 3000.7 429.978 7
-5 -2 -3 3149.47 591.447 2
-5 -2 -3 2774.18 525.762 12
5 2 3 2134.57 520.256 8
-5 -2 -3 3057.02 391.3 1
-5 -2 -4 681.037 387.235 4
5 2 4 940.072 353.941 7
-5 -2 -4 860.975 423.363 2
-5 -2 -4 774.929 364.159 12
-5 -2 -4 440.655 247.598 1
5 2 4 672.173 383.143 8
-5 -2 -5 767.535 359.461 4
5 2 5 395.061 279.524 7
-5 -2 -5 576.172 363.6 2
-5 -2 -5 194.082 300.468 12
-5 -2 -5 129.853 248.258 1
5 2 5 -146.517 342.295 8
-5 -2 -6 1155.82 452.462 4
-5 -2 -6 739.102 387.835 2
-5 -2 -6 556.088 317.64 12
5 2 6 985.685 463.093 8
-5 -2 -7 4557.08 690.788 4
-5 -2 -7 4370.72 693.392 2
-5 -2 -7 4456.06 617.06 12
5 2 7 4421.84 667.682 8
-5 -2 -8 2920.89 601.22 4
-5 -2 -8 2063.25 545.586 2
5 2 8 1595.82 492.927 8
-5 -2 -9 247.041 371.296 4
-5 -2 -9 -296.502 396.512 2
5 2 9 729.152 450.466 8
-5 -2 -10 9437.46 968.971 2
5 3 -13 -210.716 364.843 7
5 3 -13 -386.491 396.564 11
-5 -3 13 -661.296 476.319 6
5 3 -12 1380.01 471.784 7
5 3 -12 1054.14 469.637 11
-5 -3 12 735.514 412.813 6
5 3 -12 1091.68 506.02 5
5 3 -11 2346.93 487.37 7
-5 -3 11 3301.24 537.062 12
5 3 -11 3378.97 619.905 11
-5 -3 11 3714.91 639.464 6
5 3 -11 3876.47 585.204 5
5 3 -10 1021.85 340.494 7
-5 -3 10 924.037 368.854 12
5 3 -10 993.922 430.386 11
-5 -3 10 1198.96 410.395 6
5 3 -10 597.418 340.271 5
5 3 -9 642.009 334.181 7
-5 -3 9 -190.777 321.652 12
5 3 -9 185.503 316.002 11
-5 -3 9 -1.64016 313.831 6
5 3 -9 156.58 306.4 5
5 3 -8 596.632 295.816 7
-5 -3 8 326.936 323.906 12
-5 -3 8 694.286 292.488 2
-5 -3 8 535.794 358.956 6
5 3 -8 140.032 271.125 5
5 3 -7 460.783 267.505 7
-5 -3 7 98.5275 306.418 12
-5 -3 7 29.4085 276.755 2
-5 -3 7 376.614 287.23 6
5 3 -7 50.2448 254.379 5
5 3 -6 1413.04 326.645 7
-5 -3 6 1307.08 375.568 2
-5 -3 6 1514.27 450.777 12
-5 -3 6 1726.43 381.438 6
5 3 -6 1481.52 365.702 5
5 3 -6 1444.11 429.175 8
5 3 -5 5396.19 525.918 7
-5 -3 5 4476.07 594.367 4
-5 -3 5 4475.92 561.768 2
-5 -3 5 4804.61 647.294 12
-5 -3 5 4413.45 490.907 6
5 3 -5 4523.18 514.287 5
5 3 -5 4292.27 623.796 8
5 3 -4 4373.31 462.044 7
-5 -3 4 3690.32 541.625 4
-5 -3 4 3984.42 555.715 2
-5 -3 4 3707.75 584.329 12
-5 -3 4 3849.69 439.621 6
5 3 -4 3401.25 539.764 8
5 3 -3 5379.45 484.814 7
-5 -3 3 5422.95 630.044 4
-5 -3 3 4881.62 610.72 2
-5 -3 3 5454.94 483.978 6
-5 -3 3 5696.96 696.694 12
5 3 -3 4709.18 616.46 8
5 3 -2 668.021 248.34 7
-5 -3 2 1243.05 354.027 4
-5 -3 2 1126.49 382.543 2
-5 -3 2 1633.02 446.453 12
-5 -3 2 1187.91 241.997 6
5 3 -2 760.934 373.986 8
5 3 -1 1181.98 265.199 7
-5 -3 1 1758.07 418.368 4
-5 -3 1 1898.7 451.115 2
-5 -3 1 1092.71 438.673 12
5 3 -1 1863.85 408.45 9
5 3 -1 1590.33 450.428 8
5 3 0 12529 734.963 7
-5 -3 0 12970.6 753.633 1
-5 -3 0 11448.1 937.149 12
5 3 0 12053.5 823.836 9
5 3 0 11697 938.385 8
-5 -3 0 12933.9 925.027 4
-5 -3 0 11605.8 916.437 2
5 3 1 388.945 225.568 7
-5 -3 -1 435.681 367.808 4
-5 -3 -1 -171.081 345.171 2
-5 -3 -1 541.752 267.712 1
-5 -3 -1 171.87 332.381 12
5 3 1 245.547 249.458 9
5 3 1 700.188 363.445 8
5 3 2 225.306 228.703 7
-5 -3 -2 180.13 315.482 4
-5 -3 -2 461.269 392.722 2
-5 -3 -2 448.921 337.631 12
-5 -3 -2 468.395 259.389 1
5 3 2 702.687 285.096 9
5 3 2 1251.11 456.749 8
-5 -3 -3 689.167 400.206 4
-5 -3 -3 645.57 389.454 2
-5 -3 -3 348.163 311.739 12
5 3 3 -23.0119 342.276 8
-5 -3 -4 8290.44 794.587 12
-5 -3 -4 8544.59 837.064 4
5 3 4 7408.64 807.823 8
-5 -3 -4 8893.1 878.214 2
-5 -3 -5 333.298 345.251 4
-5 -3 -5 264.078 369.728 2
-5 -3 -5 144.13 323.583 12
5 3 5 -572.429 371.134 8
-5 -3 -6 1095.58 496.524 4
-5 -3 -6 1676.06 478.049 2
-5 -3 -6 955.659 386.322 12
5 3 6 439.648 399.817 8
-5 -3 -7 207.032 387.118 4
-5 -3 -7 484.127 390.11 2
5 3 7 21.6257 356.14 8
-5 -3 -8 2303.59 559.564 4
-5 -3 -8 2078.35 524.648 2
5 3 8 2320.06 578.655 8
-5 -3 -9 -44.8491 375.483 2
-5 -3 -10 1155.73 480.956 2
-5 -4 13 3883.04 714.623 6
5 4 -13 6128.23 770.149 5
5 4 -12 326.884 382.659 11
-5 -4 12 916.839 453.056 6
5 4 -12 1292.7 474.299 5
-5 -4 11 262.451 335.45 12
5 4 -11 116.341 371.018 11
-5 -4 11 -306.905 390.337 6
5 4 -11 -128.094 337.292 5
-5 -4 10 11195.2 942.638 12
-5 -4 10 9243.14 860.661 6
5 4 -10 9836.99 1004.79 11
5 4 -10 11225.1 914.181 5
-5 -4 9 871.44 392.162 12
5 4 -9 -83.7395 364.787 11
-5 -4 9 281.935 309.705 6
5 4 -9 -207.997 334.771 5
-5 -4 8 1339 462.592 12
-5 -4 8 2337.39 442.034 2
-5 -4 8 1029.91 368.646 6
5 4 -8 2108.62 446.596 5
-5 -4 7 5614.06 679.671 12
-5 -4 7 4906.57 586.94 2
-5 -4 7 4851.52 589.209 6
5 4 -7 4542.63 562.094 5
5 4 -7 4484.53 637.194 8
-5 -4 6 2904.86 536.855 4
-5 -4 6 2466.96 508.547 12
-5 -4 6 2546.38 471.999 2
-5 -4 6 2485.2 401.922 6
5 4 -6 2996.01 464.575 5
5 4 -6 2819.15 520.442 8
-5 -4 5 232.342 318.664 4
-5 -4 5 85.9209 322.391 12
-5 -4 5 225.593 317.429 2
-5 -4 5 976.088 282.498 6
5 4 -5 -10.5917 361.153 8
-5 -4 4 11927.1 913.863 2
-5 -4 4 11849.2 959.979 12
-5 -4 4 12961.5 732.169 6
5 4 -4 12793.3 946.374 9
5 4 -4 12631.4 1009.22 8
-5 -4 4 12243.9 934.137 4
-5 -4 3 142.275 329.662 4
-5 -4 3 120.457 343.522 2
-5 -4 3 -150.778 357.23 12
5 4 -3 534.607 400.163 9
5 4 -3 153.987 358.922 8
-5 -4 2 13114.5 1010.22 2
-5 -4 2 11278.5 939.322 12
5 4 -2 12919.2 904.724 9
5 4 -2 11420 947.73 8
-5 -4 2 11416.7 936.362 4
-5 -4 1 20343.1 1266.82 2
-5 -4 1 18270.2 1210.45 12
5 4 -1 21120.1 1152.45 9
5 4 -1 18796.5 1228.59 8
-5 -4 1 20308.6 1227.4 4
-5 -4 0 -342.385 355.647 4
-5 -4 0 -342.213 345.585 2
-5 -4 0 -524.801 398.773 12
5 4 0 -50.2338 307.709 9
5 4 0 570.688 372.026 8
-5 -4 -1 20400.8 1303.27 2
-5 -4 -1 20309.9 1270.72 12
5 4 1 22882.3 1151.87 9
5 4 1 20587.2 1302.64 8
-5 -4 -1 20620 1281.24 4
-5 -4 -2 88.4988 371.975 4
-5 -4 -2 381.527 380.816 2
-5 -4 -2 -30.4174 354.43 12
5 4 2 489.531 277.145 9
5 4 2 -37.5448 340.936 8
-5 -4 -3 19.2254 354.743 4
-5 -4 -3 -400.126 356.576 2
-5 -4 -3 258.172 357.749 12
5 4 3 298.19 450.785 8
-5 -4 -4 367.554 394.071 4
-5 -4 -4 -74.5283 362.029 2
-5 -4 -4 465.703 354.339 12
5 4 4 568.606 370.467 8
-5 -4 -5 1760.21 534.572 4
-5 -4 -5 2075.47 518.419 2
-5 -4 -5 2638.24 504.144 12
5 4 5 1765.57 503.588 8
-5 -4 -6 -13.7285 388.161 4
-5 -4 -6 169.107 392.144 2
5 4 6 933.32 479.932 8
-5 -4 -7 5793.49 840.036 4
-5 -4 -7 6249.96 826.907 2
-5 -4 -8 711.679 451.827 2
5 5 -14 386.222 502.546 5
-5 -5 13 997.703 453.928 6
5 5 -13 -27.8277 376.519 5
-5 -5 12 1624.29 465.264 12
-5 -5 12 988.191 430.641 6
5 5 -12 1046.83 363.247 5
-5 -5 11 1127.5 413.062 12
5 5 -11 2531.7 626.268 11
-5 -5 11 1987.52 525.434 6
5 5 -11 984.798 436.303 5
-5 -5 10 -8.81467 348.161 12
5 5 -10 907.436 476.002 11
-5 -5 10 289.345 321.342 6
-5 -5 9 2950.61 577.227 12
5 5 -9 2169.16 563.562 11
-5 -5 9 2080.12 453.287 6
-5 -5 9 2835.84 491.871 2
5 5 -9 2571.59 537.189 5
5 5 -9 1654.73 480.771 8
-5 -5 8 880.049 423.199 12
-5 -5 8 378.861 266.813 6
-5 -5 8 851.333 363.798 2
5 5 -8 20.0136 293.148 5
5 5 -8 384.459 408.879 8
-5 -5 7 614.515 396.762 12
-5 -5 7 146.351 341.698 2
-5 -5 7 11.5507 236.81 6
5 5 -7 333.639 333.047 5
5 5 -7 92.7148 329.473 8
-5 -5 6 246.373 363.904 4
-5 -5 6 688.339 375.616 12
-5 -5 6 167.393 307.536 2
5 5 -6 602.724 309.799 5
5 5 -6 1691.36 516.093 9
5 5 -6 803.087 436.65 8
-5 -5 5 -45.1669 365.99 4
-5 -5 5 1343.6 432.229 12
-5 -5 5 2308.66 474.507 2
5 5 -5 1772.66 484.861 9
5 5 -5 725.229 391.542 8
-5 -5 4 36.5784 344.952 4
-5 -5 4 937.378 465.929 12
-5 -5 4 435.382 364.044 2
5 5 -4 398.003 352.895 9
5 5 -4 138.903 361.696 8
-5 -5 3 13668.2 1060.86 2
-5 -5 3 13417.3 1061.41 12
5 5 -3 14574.9 1060.15 9
5 5 -3 13576.7 1064.28 8
-5 -5 3 14139.3 1067.02 4
-5 -5 2 9412.56 895.582 12
-5 -5 2 7486.37 813.988 2
5 5 -2 7905.82 751.471 9
5 5 -2 7428.34 809.122 8
-5 -5 2 8467.06 852.611 4
-5 -5 1 601.804 394.286 4
-5 -5 1 -341.076 365.579 12
-5 -5 1 -339.18 411.255 2
5 5 -1 216.393 312.566 9
5 5 -1 298.808 361.586 8
-5 -5 0 915.084 462.733 4
-5 -5 0 639.144 374.41 2
-5 -5 0 695.322 375.946 12
5 5 0 98.8398 304.707 9
5 5 0 564.61 342.761 8
-5 -5 -1 14866.3 1142.23 2
-5 -5 -1 12810.5 1060.99 12
5 5 1 15453.8 996.873 9
5 5 1 12468.6 1062.34 8
-5 -5 -1 14114.1 1113.25 4
-5 -5 -2 1295.22 509.72 4
-5 -5 -2 1653.43 470.51 2
-5 -5 -2 1041.32 441.594 12
5 5 2 814.707 334.49 9
5 5 2 1458.75 488.154 8
-5 -5 -3 905.78 468.452 4
-5 -5 -3 798.003 409.075 12
-5 -5 -3 1389.82 476.36 2
5 5 3 1628.84 481.481 8
-5 -5 -4 -672.69 448.289 4
-5 -5 -4 -25.1909 339.556 12
-5 -5 -4 80.6631 389.772 2
5 5 4 -501.072 426.481 8
-5 -5 -5 193.918 382.626 4
-5 -5 -5 504.77 350.18 12
-5 -5 -5 412.612 381.223 2
5 5 5 238.421 386.555 8
-5 -5 -6 2659.63 638.221 2
-5 -6 13 843.947 441.998 6
5 6 -13 -389.017 446.85 5
-5 -6 12 480.101 385.42 12
5 6 -12 286.798 407.293 5
-5 -6 11 1301.2 453.144 12
-5 -6 11 807.963 370.875 6
5 6 -11 672.385 410.662 5
-5 -6 10 4605.74 664.004 12
5 6 -10 3968.51 681.716 11
-5 -6 10 4469.73 611.53 6
5 6 -10 5731.27 745.369 5
5 6 -10 4353.22 705.085 8
-5 -6 9 894.984 454.835 12
-5 -6 9 228.631 303.664 6
-5 -6 9 9.83949 329.956 2
5 6 -9 -91.0393 326.313 5
5 6 -9 -540.085 388.778 8
-5 -6 8 278.472 335.479 12
-5 -6 8 504.798 366.516 2
5 6 -8 264.405 349.221 5
5 6 -8 449.831 416.664 8
-5 -6 7 -245.299 408.345 4
-5 -6 7 -79.0917 372.286 12
-5 -6 7 347.248 386.355 2
5 6 -7 -436.428 342.614 5
5 6 -7 574.321 473.839 9
5 6 -7 224.306 384.135 8
-5 -6 6 5396.48 742.431 4
-5 -6 6 3920.13 637.891 12
-5 -6 6 4977.79 664.773 2
5 6 -6 5205.48 712.219 9
5 6 -6 5181.65 696.415 8
-5 -6 5 -329.21 375.716 4
-5 -6 5 -21.1637 362.295 12
-5 -6 5 618.242 396.098 2
5 6 -5 -378.485 388.467 9
5 6 -5 -332.554 357.912 8
-5 -6 4 6137.83 768.308 4
-5 -6 4 4691.45 697.917 12
-5 -6 4 5544.2 735.352 2
5 6 -4 6531.6 772.222 9
5 6 -4 7846.86 836.384 8
-5 -6 3 15955.1 1182.14 2
-5 -6 3 18904.8 1295.08 12
5 6 -3 18530.5 1210.67 9
5 6 -3 17318.7 1241.22 8
-5 -6 3 17547.1 1261.47 4
-5 -6 2 712.702 473.459 4
-5 -6 2 -222.726 382.717 12
-5 -6 2 788.899 440.369 2
5 6 -2 -4.40273 358.266 9
5 6 -2 485.832 395.475 8
-5 -6 1 10683.1 1018.18 2
-5 -6 1 9576.96 944.094 12
5 6 -1 10028 893.918 9
5 6 -1 10023.1 961.829 8
-5 -6 1 10981.2 1018.99 4
-5 -6 0 10803 1010.52 2
-5 -6 0 11544 1009.01 12
5 6 0 12311 993.151 9
5 6 0 12028.7 1049.03 8
-5 -6 0 10869 1023.55 4
-5 -6 -1 1149.83 474.514 4
-5 -6 -1 447.703 352.108 12
-5 -6 -1 1605.26 498.13 2
5 6 1 681.164 317.262 9
5 6 1 1625.81 495.241 8
-5 -6 -2 2297.97 581.429 4
-5 -6 -2 2940.28 579.645 12
-5 -6 -2 2713.77 605.821 2
5 6 2 1717.55 437.062 9
5 6 2 2603.23 570.058 8
-5 -6 -3 15041.2 1231.43 2
-5 -6 -3 15447 1176.8 12
5 6 3 15876.9 1281.03 8
-5 -6 -3 15317.2 1246.23 4
-5 -6 -4 10685.6 1064.13 2
-5 -6 -4 12089.2 1038.83 12
-5 -7 12 -118.248 386.857 12
-5 -7 11 391.789 367.021 12
5 7 -11 2401.33 622.154 5
-5 -7 10 1.2886 369.332 12
5 7 -10 576.619 468.675 5
5 7 -10 58.9154 361.177 8
-5 -7 9 -558.777 424.689 12
-5 -7 9 -431.962 405.784 2
5 7 -9 379.548 395.817 5
5 7 -9 -35.5483 350.55 8
-5 -7 8 -496.467 420.537 12
-5 -7 8 -125.494 402.433 2
5 7 -8 155.135 379.59 5
5 7 -8 276.988 436.726 9
5 7 -8 191.752 405.541 8
-5 -7 7 1597.98 472.71 4
-5 -7 7 2222.31 544.379 12
-5 -7 7 2730.49 553.17 2
5 7 -7 2414.58 565.996 5
5 7 -7 1893.51 539.357 9
5 7 -7 1268.66 478.64 8
-5 -7 6 1403.37 543.354 4
-5 -7 6 2581.47 592.729 12
-5 -7 6 2380.05 586.424 2
5 7 -6 2450.01 596.012 9
5 7 -6 2327.33 555.211 8
-5 -7 5 1287.78 511.155 4
-5 -7 5 893.765 447.428 12
-5 -7 5 1460.89 457.745 2
5 7 -5 1823.93 535.371 9
5 7 -5 1588.3 477.743 8
-5 -7 4 -116.839 374.015 4
-5 -7 4 480.859 415.283 12
-5 -7 4 787.795 397.495 2
5 7 -4 418.703 353.919 9
5 7 -4 -321.646 419.643 8
-5 -7 3 3530.29 665.177 4
-5 -7 3 2943.81 610.025 12
-5 -7 3 3129.56 652.123 2
5 7 -3 1861.58 508.179 9
5 7 -3 3073.33 632.897 8
-5 -7 2 979.881 510.475 4
-5 -7 2 197.651 375.858 12
-5 -7 2 314.714 386.782 2
5 7 -2 326.507 386.605 9
5 7 -2 441.188 400.629 8
-5 -7 1 3972.41 750.06 4
-5 -7 1 4465.09 688.916 12
-5 -7 1 3051.21 647.141 2
5 7 -1 3924.49 632.182 9
5 7 -1 3644.51 675.714 8
-5 -7 0 1100.01 483.747 4
-5 -7 0 690.163 402.176 12
-5 -7 0 536.325 388.65 2
5 7 0 592.988 374.329 9
5 7 0 1042.11 432.814 8
-5 -7 -1 132.149 428.565 4
-5 -7 -1 23.7676 359.007 12
-5 -7 -1 -206.509 405.311 2
5 7 1 -629.217 434.035 9
5 7 1 84.0935 376.694 8
-5 -7 -2 570.341 442.098 12
-5 -7 -3 2057.51 532.44 12
-5 -8 10 716.868 437.596 2
-5 -8 9 1431.56 472.935 2
5 8 -9 1459.85 508.573 5
5 8 -9 1543.69 512.645 8
-5 -8 8 2627.52 566.219 2
5 8 -8 3260.74 651.567 5
5 8 -8 2712.84 598.631 8
-5 -8 7 2237.74 519.079 2
5 8 -7 3161.74 642.048 5
5 8 -7 2457.29 625.653 9
5 8 -7 3870.82 682.879 8
-5 -8 6 6751.76 842.381 2
5 8 -6 7533.64 899.557 9
5 8 -6 5632.1 777.933 8
-5 -8 5 7382.31 877.424 2
5 8 -5 5652.59 808.676 9
5 8 -5 6162.8 795.936 8
-5 -8 4 1157.24 441.369 2
5 8 -4 1812.13 568.416 9
5 8 -4 1421.67 523.251 8
5 8 -3 1737.05 518.873 9
5 8 -3 637.472 421.003 8
5 8 -2 -199.235 397.34 9
5 8 -2 -106.66 397.813 8
5 8 -1 413.084 366.609 9
5 8 0 87.1809 389.658 9
5 8 1 363.836 402.441 9
-6 8 1 982.66 537.044 1
6 -8 0 -218.973 426.459 7
-6 8 0 265.157 390.512 3
-6 8 0 680.512 491.806 1
6 -8 1 3842.44 682.441 7
-6 8 -1 2813.92 665.056 1
-6 8 -2 1989.69 592.837 1
6 -8 2 3317.45 631.771 7
6 -8 2 1492.54 492.943 10
6 -8 3 2718.4 613.522 7
6 -8 3 1587.39 487.286 10
-6 8 -3 2872.42 653.702 1
6 -8 4 129.684 416.096 7
6 -8 4 0.47708 438.645 10
-6 8 -4 727.985 490.425 1
6 -8 5 1380.18 492.319 7
6 -7 -5 -572.796 418.607 10
-6 7 4 614.451 403.926 3
6 -7 -4 -218.815 422.683 10
-6 7 3 1932.95 588.022 1
6 -7 -3 1716.08 518.633 7
-6 7 3 2215.76 582.274 3
6 -7 -3 1727.52 558.353 10
6 -7 -2 10510.4 1039.05 7
-6 7 2 8468.33 960.213 1
-6 7 2 9003.27 981.424 3
6 -7 -2 7196.8 866.186 10
6 -7 -1 11969.5 1107.48 7
-6 7 1 11657.1 1092.01 1
-6 7 1 12678.2 1125.36 3
6 -7 -1 12970.4 1131.41 10
6 -7 0 955.13 451.273 7
-6 7 0 588.989 438.063 1
6 -7 0 265.125 397.6 10
6 -7 1 472.272 423.62 7
6 -7 1 -191.512 433.724 10
6 -7 2 -788.415 498.06 7
6 -7 2 55.8797 393.268 10
-6 7 -2 249.892 424.234 1
6 -7 3 542.999 425.139 7
6 -7 3 406.337 409.94 10
-6 7 -3 521.32 459.149 1
6 -7 4 1919.74 519.656 7
6 -7 4 657.192 378.865 10
-6 7 -4 587.258 447.995 1
6 -7 5 3129.26 639.691 7
-6 7 -5 2789.75 663.348 1
6 -7 5 3455.35 685.262 10
6 -7 6 1340.87 507.072 7
-6 7 -6 1186.32 578.818 1
6 -7 6 1218.96 480.011 10
6 -7 7 43.0957 374.365 7
6 -7 7 -669.669 452.068 10
6 -7 8 1174.64 456.196 14
6 -7 8 1212.05 490.02 10
6 -7 9 -100.796 386.282 14
6 -7 9 -5.4194 391.827 10
6 -7 10 1484.12 493.305 10
-6 6 7 404.426 390.868 3
-6 6 6 3271.79 653.515 3
6 -6 -6 3173.24 613.056 10
-6 6 5 152.707 371.551 3
6 -6 -5 459.517 401.385 10
-6 6 4 1732.78 591.368 1
6 -6 -4 1918.1 538.925 7
-6 6 4 2014.31 550.758 3
6 -6 -4 679.051 432.237 10
6 -6 -3 -269.876 403.725 7
-6 6 3 407.923 395.387 3
6 -6 -3 43.4067 369.313 10
-6 6 3 835.399 483.874 1
-6 6 2 2211.54 584.586 1
6 -6 -2 2582.12 585.27 7
-6 6 2 1833.58 490.541 3
6 -6 -2 1738.23 533.491 10
6 -6 -1 1280.35 455.825 7
6 -6 -1 2095.34 588.49 10
-6 6 1 1661.25 515.022 1
6 -6 0 2904.64 594.942 7
-6 6 0 3143 616.875 1
6 -6 0 1533 468.832 10
-6 6 -1 274.924 406.345 1
6 -6 1 372.339 360.1 7
6 -6 1 -244.828 363.034 10
6 -6 2 394.267 351.734 7
6 -6 2 649.196 438.356 10
-6 6 -2 1073.24 469.263 1
6 -6 3 3667.96 659.075 7
6 -6 3 3277.07 581.9 10
-6 6 -3 4496.55 713.523 1
6 -6 4 620.09 409.793 7
-6 6 -4 1387.06 512.238 1
6 -6 4 1373.67 490.005 10
6 -6 5 -42.8167 360.147 7
-6 6 -5 411.703 489.222 1
6 -6 5 424.939 385.909 10
6 -6 6 953.121 449.651 7
6 -6 6 -54.0372 286.737 14
-6 6 -6 45.6226 416.439 1
6 -6 6 690.324 422.458 10
6 -6 7 2448.1 592.656 7
6 -6 7 657.594 355.226 14
-6 6 -7 2078.3 550.515 1
6 -6 7 1128.85 480.996 10
6 -6 8 144.227 398.868 7
6 -6 8 48.9466 349.601 14
-6 6 -8 -504.283 468.611 1
6 -6 8 -98.0087 402.622 10
6 -6 9 1408.69 478.656 14
6 -6 9 333.501 387.205 10
6 -6 10 -5.96082 380.682 10
-6 5 8 270.001 361.318 3
-6 5 7 -286.094 358.03 3
6 -5 -7 1014.65 441.534 10
6 -5 -6 2426.61 575.874 7
-6 5 6 958.898 434.191 3
6 -5 -6 1831.29 527.44 10
6 -5 -5 146.913 388.544 7
-6 5 5 844.134 387.856 3
6 -5 -5 358.412 361.993 10
6 -5 -4 878.586 461.329 7
-6 5 4 1464.12 452.382 3
6 -5 -4 1258.5 475.788 10
-6 5 4 768.745 447.115 1
6 -5 -3 -102.442 391.867 7
-6 5 3 -428.971 370.562 3
6 -5 -3 280.413 391.417 10
-6 5 3 32.462 455.826 1
-6 5 2 7208.8 849.728 1
6 -5 -2 5408 725.501 7
6 -5 -2 5980.38 805.662 10
6 -5 -2 5856.09 620.205 8
6 -5 -1 1206.34 481.839 7
6 -5 -1 1013.56 478.811 10
-6 5 1 923.702 458.396 1
6 -5 0 13758.7 1105.92 7
-6 5 0 12938.1 1074.9 1
6 -5 0 14123.4 1148.55 10
-6 5 -1 -184.164 400.001 1
6 -5 1 -390.497 385.626 7
6 -5 1 377.131 430.395 10
6 -5 2 -311.004 391.044 7
6 -5 2 220.397 355.334 10
-6 5 -2 -50.376 359.453 1
6 -5 3 522.222 380.476 7
6 -5 3 345.38 339.859 10
-6 5 -3 1007.89 464.611 1
6 -5 4 533.343 404.827 7
-6 5 -4 445.777 418.782 1
6 -5 4 135.928 352.742 10
6 -5 5 1833.86 498.566 7
6 -5 5 2300.61 476.815 14
-6 5 -5 2245.7 570.767 1
6 -5 5 2027.89 558.042 10
6 -5 6 976.636 473.814 7
6 -5 6 870.867 397.079 14
-6 5 -6 610.526 477.249 1
6 -5 6 875.972 459.321 10
6 -5 7 1845.1 554.691 7
6 -5 7 720.192 342.822 14
-6 5 -7 1558.83 535 1
6 -5 7 480.194 401.293 10
6 -5 8 119.978 372.071 7
6 -5 8 12.9678 383.864 14
-6 5 -8 -768.333 467.384 1
6 -5 8 425.962 403.14 10
-6 5 -9 4074.24 714.967 1
6 -5 9 3095.37 642.158 14
6 -5 9 3834.96 648.928 10
6 -5 10 587.591 374.879 10
6 -4 -7 43.5715 373.435 7
-6 4 7 609.981 506.388 6
-6 4 7 806.218 402.563 3
6 -4 -7 416.985 419.087 10
6 -4 -6 861.112 428.682 7
-6 4 6 855.87 378.842 3
6 -4 -6 1517.83 492.74 10
6 -4 -5 3082.52 586.873 7
-6 4 5 3345.86 556.888 3
6 -4 -5 4191.86 663.509 10
6 -4 -4 -129.034 342.026 7
-6 4 4 171.498 309.37 3
6 -4 -4 160.937 396.332 10
-6 4 4 369.01 511.492 1
6 -4 -3 -318.253 345.637 7
6 -4 -3 420.541 396.381 10
-6 4 3 -57.1332 363.961 1
6 -4 -2 18114.4 1234.57 7
-6 4 2 18178.8 1269.81 1
6 -4 -2 18859 1285.99 10
6 -4 -2 18954.3 1105.69 8
6 -4 -1 1558.45 504.484 7
-6 4 1 1091.28 460.083 1
6 -4 -1 1251.68 496.909 10
6 -4 -1 786.77 354.805 8
6 -4 0 17345.9 1195.97 7
-6 4 0 17224.5 1219.24 1
6 -4 0 18334.3 1274.59 10
6 -4 0 18539.5 1057.06 8
-6 4 -1 2649.52 567.837 1
6 -4 1 2345.57 478.159 7
6 -4 1 2599.33 610.804 10
6 -4 1 2828.01 439.074 8
6 -4 2 -202.298 318.687 7
6 -4 2 583.546 432.463 10
-6 4 -2 589.739 432.981 1
6 -4 2 459.097 264.516 8
6 -4 3 1109.53 431.762 7
6 -4 3 1418.41 471.085 10
-6 4 -3 1564.95 509.803 1
6 -4 3 1026.98 288.108 8
6 -4 4 10256.4 956.645 7
-6 4 -4 8917.25 894.816 1
6 -4 4 8071.01 731.818 14
6 -4 4 8593.47 904.823 10
6 -4 4 9458.9 713.12 8
6 -4 5 5950.28 781.411 7
6 -4 5 5223.91 622.016 14
-6 4 -5 6240.88 770.441 1
6 -4 5 6774.67 816.097 10
6 -4 6 2387.41 559.377 7
6 -4 6 2574.02 515.681 14
-6 4 -6 3446.29 616.949 1
6 -4 6 4023.07 672.933 10
6 -4 7 2347.35 569.877 7
6 -4 7 4096.75 639.55 14
-6 4 -7 3203.74 627.13 1
6 -4 7 3763.42 688.059 10
6 -4 8 453.395 376.348 7
6 -4 8 853.564 436.253 14
-6 4 -8 482.591 397.806 1
6 -4 8 1085.78 429.911 10
6 -4 9 3798.01 662.568 7
-6 4 -9 3397.89 636.487 1
6 -4 9 3031.47 643.11 14
6 -4 9 4806.3 687.355 10
-6 4 -10 138.639 412.638 1
6 -3 -8 1629.48 517.492 7
-6 3 8 662.948 413.19 6
6 -3 -8 730.838 468.804 10
6 -3 -7 2724.64 580.283 7
-6 3 7 1773.21 525.847 6
-6 3 7 1406.97 393.458 3
6 -3 -7 3138.67 599.53 10
6 -3 -6 292.915 373.306 7
-6 3 6 361.511 466.297 6
-6 3 6 193.896 313.62 3
6 -3 -6 82.9109 358.307 10
6 -3 -5 2475.91 608.492 7
-6 3 5 3479.16 519.801 3
6 -3 -5 3562.06 636.856 10
6 -3 -4 266.444 373.107 7
-6 3 4 80.4459 268.761 3
6 -3 -4 380.269 416.974 10
-6 3 4 -330.175 428.256 1
6 -3 -3 277.057 343.791 7
6 -3 -3 653.483 427.977 10
-6 3 3 1316.74 481.779 1
-6 3 2 -222.804 345.261 1
6 -3 -2 210.364 320.227 7
6 -3 -2 589.657 415.977 10
6 -3 -2 -67.2093 305.403 8
6 -3 -1 1223.65 440.165 7
-6 3 1 563.786 428.562 1
6 -3 -1 480.341 312.925 8
6 -3 0 -181.255 322.536 7
-6 3 0 -143.719 356.069 1
6 -3 0 463.039 315.182 8
-6 3 -1 6498.63 735.875 1
6 -3 1 5796.88 710.423 7
6 -3 1 7696.73 862.172 10
6 -3 1 6377.99 634.917 8
6 -3 2 14281.4 1068.86 7
-6 3 -2 12169.7 991.489 1
6 -3 2 13583.5 849.235 14
6 -3 2 14764.9 1134.46 10
6 -3 2 13810.8 920.008 8
6 -3 3 309.206 336.459 14
6 -3 3 941.366 407.141 7
-6 3 -3 -189.198 336.615 1
6 -3 3 413.113 283.229 8
6 -3 4 1342.33 443.564 7
6 -3 4 783.936 376.395 14
-6 3 -4 -268.819 377.532 1
6 -3 4 636.718 451.629 10
6 -3 4 110.949 298.298 8
6 -3 5 -169.66 346.343 7
6 -3 5 728.125 381.81 14
-6 3 -5 437.98 406.744 1
6 -3 5 517.593 396.003 10
6 -3 5 -13.7031 336.519 8
6 -3 6 1502.91 467.852 7
6 -3 6 2061.52 514.98 14
-6 3 -6 1648.09 548.065 1
6 -3 6 2197.08 558.875 10
6 -3 6 2421.11 477.747 8
6 -3 7 243.814 355.876 7
6 -3 7 614.937 419.124 14
-6 3 -7 908.141 416.48 1
6 -3 7 770.249 419.037 10
6 -3 7 407.537 320.158 8
6 -3 8 4580.7 717.404 7
6 -3 8 5282.16 738.894 14
-6 3 -8 4254.53 687.347 1
6 -3 8 5043.86 727.099 10
6 -3 9 1382.9 492.302 7
-6 3 -9 400.99 424.035 1
6 -3 9 804.667 435.289 14
-6 3 -10 677.667 464.768 1
6 -2 -9 160.257 387.741 7
-6 2 9 -620.366 468.847 6
6 -2 -8 432.018 391.667 7
-6 2 8 831.212 476.875 6
6 -2 -8 1701.3 486.516 10
6 -2 -7 10452.5 981.104 7
-6 2 7 9731.33 973.847 6
6 -2 -7 11145.1 882.801 11
6 -2 -7 10642.1 973.765 10
6 -2 -6 2975.53 584.105 7
-6 2 6 4283 680.857 6
6 -2 -6 2800.29 467.116 11
-6 2 6 3145.06 479.708 3
6 -2 -5 1623.81 475.019 7
-6 2 5 1374.29 466.528 6
6 -2 -5 1803.6 390.228 11
-6 2 5 2139.42 408.091 3
6 -2 -4 5272.66 679.459 7
-6 2 4 5304.79 716.952 1
6 -2 -3 7024.83 754.621 7
6 -2 -3 7500.74 724.366 8
-6 2 3 5795.1 733.677 1
6 -2 -2 77.0174 365.159 7
-6 2 2 -37.0281 334.226 1
6 -2 -2 510.833 334.457 8
6 -2 -1 54.3335 311.873 7
-6 2 1 524.494 394.822 1
6 -2 -1 160.265 283.964 8
6 -2 0 3525.88 568.108 7
-6 2 0 3689.02 560.862 1
6 -2 0 3640.53 516.284 8
-6 2 -1 5520.92 682.499 1
6 -2 1 5595.96 682.318 7
6 -2 1 7306.22 702.105 8
6 -2 2 7694.47 794.352 7
6 -2 2 7528.68 726.339 8
-6 2 -2 6731.6 736.496 1
6 -2 3 8166.11 804.016 7
-6 2 -3 9351.76 853.865 1
6 -2 3 9201.9 778.255 8
6 -2 4 30037.8 1597.58 7
-6 2 -4 36515.8 1718.17 1
6 -2 4 35530.1 1600.78 8
6 -2 5 294.719 357.242 7
-6 2 -5 -109.187 347.724 1
6 -2 5 280.246 298.839 8
6 -2 6 2601.69 557.885 7
6 -2 6 3393.46 535.967 8
6 -2 7 11750.6 1034.44 7
6 -2 7 12218.8 1050.97 14
6 -2 7 13010.3 1058.71 10
6 -2 7 12908.9 1014.52 8
-6 2 -7 13375.7 1065.43 1
6 -2 8 5171.27 734.418 7
6 -2 8 5636.66 776.763 14
-6 2 -8 5104.67 710.151 1
6 -2 8 4529.48 729.029 10
6 -2 8 5869.81 728.114 8
6 -2 9 3915.66 700.62 7
-6 2 -9 4798.51 701.938 1
6 -2 9 5640.32 827.544 14
6 -2 9 4171.43 651.826 8
-6 2 -10 -81.8328 440.844 1
6 -2 10 -84.0909 355.55 8
-6 2 -11 783.691 532.18 1
6 -1 -11 1286.05 452.796 11
6 -1 -10 -23.2581 383.286 7
6 -1 -10 276.353 362.899 11
6 -1 -9 235.929 378.983 7
-6 1 9 -309.471 461.82 6
6 -1 -9 432.818 367.341 11
6 -1 -8 664.661 386.172 7
-6 1 8 909.205 430.485 6
6 -1 -8 1396.36 440.672 11
6 -1 -7 3039.43 575.619 7
-6 1 7 1875.82 530.196 6
6 -1 -7 2866.86 513.643 11
6 -1 -6 1290.78 443.207 7
-6 1 6 394.005 386.617 6
6 -1 -6 1037.03 371.727 11
6 -1 -5 12359.5 994.294 7
-6 1 5 13288.9 1040.59 6
-6 1 5 14798.5 878.272 3
6 -1 -4 518.822 350.902 7
-6 1 4 246.977 347.335 1
-6 1 3 1346.43 433.321 1
6 -1 -3 2016.64 475.246 7
6 -1 -3 2114.71 481.195 8
6 -1 -2 1267.38 383.684 7
-6 1 2 1180.65 412.569 1
6 -1 -2 947.579 365.548 8
6 -1 -1 557.543 343.305 7
-6 1 1 816.392 429.179 1
6 -1 -1 377.431 325.884 8
6 -1 0 644.447 308.945 7
-6 1 0 688.423 433.524 1
6 -1 0 886.467 351.609 8
6 -1 1 402.564 348.677 7
-6 1 -1 387.431 313.071 1
6 -1 1 332.383 294.962 8
6 -1 2 -212.79 308.017 7
6 -1 2 -193.199 299.763 8
-6 1 -2 139.565 317.576 1
6 -1 3 1344 430.471 7
-6 1 -3 594.617 397.78 1
6 -1 3 581.576 345.907 8
6 -1 4 -422.965 381.829 7
6 -1 4 -79.4391 300.187 8
6 -1 5 546.039 352.558 7
-6 1 -5 246.7 341.043 1
6 -1 5 292.487 317.378 8
-6 1 -6 9970.21 884.218 1
6 -1 6 8112.17 814.32 7
6 -1 6 8740.36 833.868 8
6 -1 7 1618.98 468.015 7
-6 1 -7 1851.03 470.488 1
6 -1 7 1058.07 388.246 8
6 -1 8 3260.63 630.481 7
-6 1 -8 3822.89 608.602 1
6 -1 8 3491.07 592.712 8
6 -1 9 13008.4 1113.96 8
-6 1 -9 10871 995.567 1
6 -1 9 11308.3 1066.24 7
6 -1 10 36.3605 372.329 8
6 0 -12 8370.67 941.045 11
6 0 -11 233.78 373.198 7
6 0 -11 749.595 459.751 11
6 0 -10 10819 1009.34 7
-6 0 10 10770.1 1051.3 6
-6 0 10 10915.4 1001.69 12
6 0 -10 11353.6 1017.56 11
6 0 -9 8161.35 849.523 7
-6 0 9 9361.79 895.303 12
6 0 -9 8699.58 883.423 11
-6 0 9 7593.25 876.329 6
6 0 -8 922.703 386.515 7
-6 0 8 1131.67 464.885 12
-6 0 8 344.387 403.939 6
6 0 -8 827.299 391.975 11
6 0 -7 7300.92 798.516 7
-6 0 7 7865.19 825.75 6
6 0 -7 8273.29 833.972 11
6 0 -6 6508.98 714.205 7
-6 0 6 5597.18 684.892 6
-6 0 6 5875.73 620.183 2
-6 0 5 1338.97 388.946 2
6 0 -5 1063.63 376.734 7
-6 0 5 776.563 393.455 6
6 0 -4 535.245 335.044 7
-6 0 4 232.806 291.026 6
6 0 -4 492.683 359.762 8
6 0 -3 4490.05 572.607 7
-6 0 3 3608.65 528.418 6
-6 0 3 4340.29 619.802 1
6 0 -3 4279.09 595.286 8
6 0 -2 1359.86 422.348 7
-6 0 2 1125.96 300.014 4
-6 0 2 938.905 385.689 1
6 0 -2 1518.35 408.278 8
-6 0 1 1398.51 420.986 1
6 0 -1 903.815 352.844 7
-6 0 1 1019.17 300.835 4
6 0 -1 1530.33 440.652 8
6 0 0 4021.99 555.45 7
-6 0 0 4629.34 523.064 4
-6 0 0 4529.42 611.961 1
6 0 0 3653.69 574.083 8
6 0 1 3012.55 481.914 7
-6 0 -1 2451.37 430.931 4
-6 0 -1 2940.79 519.206 1
6 0 1 3010.14 524.399 8
-6 0 -2 5598.33 640.029 1
6 0 2 4588.35 588.522 7
-6 0 -2 4432.51 525.916 4
6 0 2 5934.43 704.62 8
6 0 3 -101.032 313.303 7
-6 0 -3 -483.392 323.222 4
-6 0 -3 296.778 317.436 1
6 0 3 150.924 315.579 8
-6 0 -4 3761.86 532.282 4
6 0 4 3741.44 560.966 7
-6 0 -4 4595.05 570.803 1
6 0 4 3263.77 561.583 8
-6 0 -5 340.756 348.52 4
6 0 5 281.886 304.025 7
-6 0 -5 943.927 463.364 12
-6 0 -5 83.5887 319.936 1
6 0 5 -218.891 364.51 8
-6 0 -6 3077.18 504.823 4
6 0 6 2826.01 506.834 7
-6 0 -6 3889.86 666.182 12
-6 0 -6 2869.85 533.733 1
6 0 6 3450.1 594.966 8
-6 0 -7 1173.03 424.304 4
6 0 7 1128.02 452.578 7
-6 0 -7 1453.54 467.687 1
-6 0 -7 1581.31 479.33 12
6 0 7 1395.24 481.627 8
-6 0 -8 586.916 480.969 4
6 0 8 325.771 415.784 7
6 0 8 632.095 455.218 8
-6 0 -9 244.655 405.338 4
6 0 9 174.938 375.604 8
6 1 -11 2267.74 497.64 7
-6 -1 11 1860.6 625.356 6
6 1 -11 2518.4 610.974 11
6 1 -10 1419.55 496.224 7
-6 -1 10 1504.1 493.017 12
-6 -1 10 1959.96 552.829 6
6 1 -10 1955.51 535.208 11
6 1 -9 2177.13 492.92 7
-6 -1 9 3215.92 579.839 12
-6 -1 9 2437.77 567.181 6
6 1 -9 2776.31 567.569 11
6 1 -8 1296.24 425.505 7
-6 -1 8 2223.57 514.515 12
-6 -1 8 1422.98 468.261 6
6 1 -8 1569.39 465.032 11
6 1 -7 199.832 323.079 7
-6 -1 7 480.906 389.499 12
-6 -1 7 -482.06 391.389 6
6 1 -6 6917.35 711.037 7
-6 -1 6 7114.39 739.024 6
-6 -1 6 5332.45 743.021 12
-6 -1 6 6648.45 677.957 2
6 1 -5 2766.42 511.983 7
-6 -1 5 2023.32 444.793 2
-6 -1 5 2795.87 612.474 12
-6 -1 5 2113.63 489.41 6
6 1 -5 2625.31 511.516 8
6 1 -4 757.487 335.888 7
-6 -1 4 1047.53 401.426 2
-6 -1 4 1133.5 487.398 12
-6 -1 4 1035.09 377.377 6
6 1 -4 637.155 363.558 8
6 1 -3 3741.51 514.728 7
-6 -1 3 3388.09 562.334 2
-6 -1 3 3350.58 474.817 4
-6 -1 3 3155.98 576.509 12
-6 -1 3 4016.95 521.64 6
-6 -1 3 3068.98 529.954 1
6 1 -3 3696.7 572.67 8
6 1 -2 1008.75 370.627 7
-6 -1 2 1667.64 432.165 2
-6 -1 2 1579.99 398.303 4
-6 -1 2 605.662 352.818 1
-6 -1 2 1759.44 384.138 6
-6 -1 2 1139.27 472.893 12
6 1 -2 1486.04 451.859 8
6 1 -1 460.062 282.576 7
-6 -1 1 -149.605 271.439 4
-6 -1 1 6.10734 237.497 6
-6 -1 1 707.847 456.59 12
-6 -1 1 -334.044 310.138 1
6 1 -1 -104.81 320.754 8
6 1 0 213.574 262.925 7
-6 -1 0 260.861 276.281 4
-6 -1 0 176.755 376.288 12
6 1 0 619.546 400.296 8
-6 -1 0 713.027 360.154 1
6 1 1 1210.28 350.521 7
-6 -1 -1 1424.21 412.166 4
-6 -1 -1 1481.74 509.888 12
-6 -1 -1 944.829 345.445 1
6 1 1 1073.28 438.405 8
6 1 2 376.419 306.039 7
-6 -1 -2 554.85 323.06 4
-6 -1 -2 1018.32 340.855 1
-6 -1 -2 1304.33 500.683 12
6 1 2 438.952 335.755 8
-6 -1 -3 518.651 328.404 1
6 1 3 534.749 291.108 7
-6 -1 -3 288.084 345.494 4
-6 -1 -3 612.476 421.206 12
6 1 3 533.679 387.36 8
6 1 4 1095.73 391.518 7
-6 -1 -4 287.114 329.672 4
-6 -1 -4 1134.4 438.402 12
-6 -1 -4 228.018 287.981 1
6 1 4 606.008 331.93 8
6 1 5 5116.19 654.634 7
-6 -1 -5 5275.75 680.706 4
-6 -1 -5 5384.53 735.965 12
-6 -1 -5 5809.21 659.008 1
6 1 5 5577.05 737.945 8
6 1 6 3313.49 583.354 7
-6 -1 -6 3209.06 580.008 4
-6 -1 -6 3294.56 624.169 12
6 1 6 2530.87 578.889 8
-6 -1 -7 1637.28 481.419 4
6 1 7 1827.78 497.247 7
-6 -1 -7 2411.99 653.143 2
6 1 7 1228.96 499.519 8
-6 -1 -8 -139.916 353.575 4
-6 -1 -8 460.571 429.072 2
6 1 8 323.615 409.151 8
6 2 -12 3247.72 636.926 7
6 2 -11 4294.73 673.388 7
-6 -2 11 2722.37 701.174 6
6 2 -11 4773.09 754.016 11
6 2 -10 4855.33 695.456 7
-6 -2 10 3805.91 630.306 12
-6 -2 10 3882.81 655.413 6
6 2 -10 4439.91 726.775 11
6 2 -9 6758.01 761.56 7
-6 -2 9 5993.01 760.868 12
-6 -2 9 6959.32 817.425 6
6 2 -9 6388.25 812.674 11
6 2 -8 1335.72 419.923 7
-6 -2 8 821.631 418.572 12
-6 -2 8 741.733 375.351 6
6 2 -8 948.199 449.492 11
6 2 -7 3338.94 534.833 7
-6 -2 7 3130.75 486.997 2
-6 -2 7 2715.17 544.585 12
-6 -2 7 2648.14 495.182 6
6 2 -6 129.687 261.506 7
-6 -2 6 -182.399 286.373 2
-6 -2 6 35.4375 330.161 12
-6 -2 6 630.993 328.855 6
6 2 -6 -181.644 364.734 8
6 2 -5 -114.963 289.253 7
-6 -2 5 315.891 324.962 2
-6 -2 5 257.745 404.259 12
-6 -2 5 222.474 278.995 6
6 2 -5 596.627 433.675 8
6 2 -4 9382.39 774.588 7
-6 -2 4 10268 762.993 6
-6 -2 4 9669.18 940.519 12
6 2 -4 9840.95 914.724 8
-6 -2 4 8454.95 781.237 4
-6 -2 4 10466.5 905.072 2
6 2 -3 821.599 313.291 7
-6 -2 3 745.508 410.798 2
-6 -2 3 639.35 322.492 4
-6 -2 3 1058.57 473.346 12
-6 -2 3 644.472 293.45 6
6 2 -3 523.497 377.319 8
6 2 -2 1056.26 323.074 7
-6 -2 2 1241.27 418.446 2
-6 -2 2 1118.37 370.099 4
-6 -2 2 2335.55 563.061 12
6 2 -2 1221.76 475.893 8
6 2 -1 9323.11 737.073 7
-6 -2 1 9398.28 775.312 1
-6 -2 1 9337.62 946.257 12
6 2 -1 9045.34 885.703 8
-6 -2 1 8664.99 791.256 4
-6 -2 1 9209.33 883.182 2
6 2 0 7584.59 673.259 7
-6 -2 0 8296.74 731.482 1
-6 -2 0 7637.86 853.559 12
-6 -2 0 8701.81 785.596 4
6 2 0 7166.23 791.887 8
-6 -2 0 9322.68 885.462 2
-6 -2 -1 706.653 368.549 1
6 2 1 -22.5472 248.066 7
-6 -2 -1 327.608 301.217 4
-6 -2 -1 485.177 404.465 2
-6 -2 -1 1129.27 427.484 12
6 2 1 770.364 414.698 8
6 2 2 755.529 298.941 7
-6 -2 -2 505.188 384.208 4
-6 -2 -2 636.4 424.637 2
-6 -2 -2 402.222 446.487 12
-6 -2 -2 209.297 332.11 1
6 2 2 513.451 377.829 8
-6 -2 -3 2868.48 538.365 4
-6 -2 -3 2269.66 595.297 2
-6 -2 -3 3449.15 627.773 12
6 2 3 2149.7 520.451 8
-6 -2 -4 644.358 357.408 4
-6 -2 -4 733.429 434.53 2
-6 -2 -4 552.845 433.862 12
6 2 4 508.947 396.541 8
-6 -2 -5 -338.693 372.253 4
-6 -2 -5 552.756 460.313 2
-6 -2 -5 313.055 351.499 12
6 2 5 377.149 373.61 8
-6 -2 -6 1035.3 465.926 4
-6 -2 -6 683.472 482.109 2
-6 -2 -6 -404.517 398.433 12
6 2 6 261.705 425.432 8
-6 -2 -7 3092.38 616.265 4
-6 -2 -7 3411.48 688.289 2
-6 -3 11 -149.675 386.309 12
-6 -3 11 -241.018 411.123 6
-6 -3 10 5193.94 703.277 12
6 3 -10 5465.62 800.98 11
-6 -3 10 6802.81 808.314 6
-6 -3 9 28.5629 368.305 12
6 3 -9 107.159 373.215 11
-6 -3 9 551.018 380.968 6
-6 -3 8 -443.231 425.16 12
-6 -3 8 170.566 317.958 6
6 3 -8 123.19 383.934 8
-6 -3 7 11.8379 355.586 12
-6 -3 7 158.434 290.164 2
-6 -3 7 291.234 335.41 6
6 3 -7 585.842 425.07 8
-6 -3 6 536.783 390.653 2
-6 -3 6 -208.344 401.92 12
-6 -3 6 461.12 333.849 6
6 3 -6 -158.761 369.598 8
-6 -3 5 2.23743 298.215 4
-6 -3 5 -711.544 379.392 2
-6 -3 5 226.912 406.692 12
-6 -3 5 446.434 299.266 6
6 3 -5 -34.7695 276.398 5
6 3 -5 902.519 417.878 8
-6 -3 4 192.848 326.661 4
-6 -3 4 131.971 334.559 2
-6 -3 4 459.001 343.069 12
6 3 -4 -582.335 456.881 8
-6 -3 3 486.274 390.927 4
-6 -3 3 -26.3323 346.417 2
-6 -3 3 -25.5147 365.854 12
6 3 -3 58.5768 352.844 8
-6 -3 2 2400.23 480.065 4
-6 -3 2 3090.77 598.207 2
-6 -3 2 3037.53 591.09 12
6 3 -2 2245.6 526.225 8
-6 -3 1 5515.27 704.605 4
-6 -3 1 5948.94 754.808 2
-6 -3 1 5908.18 748.756 12
6 3 -1 6596.94 800.08 8
-6 -3 0 1195.57 425.684 4
-6 -3 0 1435.59 505.619 2
-6 -3 0 1569.87 489.95 12
6 3 0 1968.8 539.441 8
-6 -3 -1 908.645 429.591 4
-6 -3 -1 32.04 364.963 2
-6 -3 -1 885.204 451.754 12
6 3 1 1042.62 465.969 8
-6 -3 -2 1621.13 471.429 4
-6 -3 -2 1442.45 491.635 2
-6 -3 -2 464.617 382.928 12
6 3 2 862.277 437.057 8
-6 -3 -3 2620.75 553.616 4
-6 -3 -3 2244.87 540.176 2
-6 -3 -3 2479.5 536.087 12
6 3 3 3267.56 620.027 8
-6 -3 -4 306.575 401.247 4
-6 -3 -4 16.0957 371.237 2
-6 -3 -4 -746.218 482.091 12
6 3 4 -482.499 418.859 8
-6 -3 -5 511.138 437.561 4
-6 -3 -5 372.732 404.881 2
-6 -3 -5 356.618 355.172 12
6 3 5 682.35 446.015 8
-6 -3 -6 906.104 505.026 4
-6 -4 11 2223.27 553.859 12
-6 -4 11 1464.01 485.031 6
-6 -4 10 8166.18 889.578 12
-6 -4 10 6895.89 815.331 6
-6 -4 9 2183.89 489.283 12
6 4 -9 1642.72 541.806 11
-6 -4 9 1623.73 469.896 6
6 4 -9 2809.74 603.305 8
-6 -4 8 3202.54 604.512 12
-6 -4 8 3539.65 583.672 2
-6 -4 8 3144.06 521.009 6
6 4 -8 4042.13 684.344 8
-6 -4 7 4968.34 752.716 12
-6 -4 7 5888.25 717.016 2
6 4 -7 5536.31 681.34 5
6 4 -7 5644.63 790.21 8
-6 -4 6 6310.95 732.391 4
-6 -4 6 5512.67 779.446 12
-6 -4 6 5414.97 702.194 2
6 4 -6 5616.35 657.288 5
6 4 -6 6173.46 782.767 8
-6 -4 5 468.079 383.139 4
-6 -4 5 197.72 371.58 2
-6 -4 5 28.0458 377.22 12
6 4 -5 819.561 354.561 5
6 4 -5 411.491 403.264 8
-6 -4 4 2072.96 476.948 4
-6 -4 4 2565.42 545.754 2
-6 -4 4 2026.55 522.719 12
6 4 -4 3052.6 585.599 8
-6 -4 3 706.957 442.341 4
-6 -4 3 531.05 394.399 2
-6 -4 3 -330.902 411.703 12
6 4 -3 309.223 366.472 8
-6 -4 2 1694 484.313 4
-6 -4 2 1350.65 438.945 2
-6 -4 2 1440.66 500.955 12
6 4 -2 1773.26 491.156 8
-6 -4 1 228.449 398.487 4
-6 -4 1 -214.506 365.654 2
-6 -4 1 90.0179 408.702 12
6 4 -1 -129.486 371.475 8
-6 -4 0 7199 822.58 4
-6 -4 0 6213.68 809.368 2
-6 -4 0 5946.35 768.708 12
6 4 0 5443.54 733.347 8
-6 -4 -1 310.856 367.244 4
-6 -4 -1 455.058 425.989 2
-6 -4 -1 -381.738 408.645 12
6 4 1 388.588 422.993 8
-6 -4 -2 1610.43 485.035 4
-6 -4 -2 3061.92 644.058 2
-6 -4 -2 2936.13 615.079 12
6 4 2 3244.18 621.387 8
-6 -4 -3 535.522 424.161 4
-6 -4 -3 516.456 395.803 2
-6 -4 -3 -297.627 382.006 12
6 4 3 146.666 391.483 8
-6 -4 -4 170.638 397.065 4
-6 -4 -4 175.717 401.512 12
-6 -4 -5 770.945 446.639 12
-6 -5 11 496.637 405.128 12
-6 -5 11 -54.9946 360.992 6
-6 -5 10 958.91 452.76 12
-6 -5 9 155.518 429.23 12
6 5 -9 205.685 373.77 5
-6 -5 8 1378.85 517.484 12
-6 -5 8 458.954 392.763 2
6 5 -8 565.017 368.92 5
6 5 -8 946.899 488.423 8
-6 -5 7 828.633 438.042 2
6 5 -7 1128.59 418.307 5
6 5 -7 1576.15 571.133 8
-6 -5 6 250.777 385.245 4
-6 -5 6 612.803 432.666 12
-6 -5 6 1550.63 483.838 2
6 5 -6 982.358 382.32 5
6 5 -6 907.536 454.213 8
-6 -5 5 6406.96 797.244 4
-6 -5 5 7050.77 848.233 12
-6 -5 5 7726.68 837.187 2
6 5 -5 7476.06 875.875 8
-6 -5 4 3212.13 630.292 4
-6 -5 4 3554.18 666.449 12
-6 -5 4 2004.45 504.443 2
6 5 -4 3359.3 644.504 8
-6 -5 3 1346.81 455.919 4
-6 -5 3 1723.28 550.46 12
-6 -5 3 927.171 434.259 2
6 5 -3 815.797 390.67 8
-6 -5 2 401.474 385.658 4
-6 -5 2 71.6428 401.129 12
-6 -5 2 673.927 455.953 2
6 5 -2 1539.27 510.361 9
6 5 -2 791.878 490.099 8
-6 -5 1 9449.96 983.251 2
-6 -5 1 8535.21 914.048 4
-6 -5 1 9274.09 1004 12
6 5 -1 9038.61 852.837 9
6 5 -1 8744.87 960.309 8
-6 -5 0 515.62 424.535 4
-6 -5 0 0.44986 385.531 2
-6 -5 0 975.292 466.603 12
6 5 0 -8.0344 403.722 8
-6 -5 -1 1324.63 522.471 4
-6 -5 -1 203.696 389.074 2
-6 -5 -1 771.926 414.191 12
6 5 1 -32.5376 380.961 8
-6 -5 -2 2697.61 621.906 4
-6 -5 -2 1850.79 576.31 12
-6 -5 -3 3004.85 618.437 12
-6 -5 -4 14915.6 1234.47 12
6 6 -10 731.678 437.213 5
6 6 -9 1008.81 412.589 5
-6 -6 8 600.568 397.006 2
6 6 -8 713.209 424.092 5
-6 -6 7 839.408 445.068 4
-6 -6 7 1044.52 447.5 2
6 6 -7 1231.07 453.266 5
-6 -6 6 836.635 466.797 4
-6 -6 6 741.36 458.264 12
-6 -6 6 657.724 459.109 2
6 6 -6 -105.009 365.3 5
6 6 -6 113.276 383.816 8
-6 -6 5 -31.9579 406.225 4
-6 -6 5 785.022 445.915 12
-6 -6 5 -252.053 393.536 2
6 6 -5 -947.949 504.997 8
-6 -6 4 -333.66 431.861 4
-6 -6 4 340.986 361.303 12
-6 -6 4 412.457 400.252 2
6 6 -4 284.317 436.025 9
6 6 -4 52.6448 394.397 8
-6 -6 3 843.798 481.478 4
-6 -6 3 1579.76 548.835 12
-6 -6 3 1217.08 493.55 2
6 6 -3 1089.86 451.057 9
6 6 -3 1371.32 522.363 8
-6 -6 2 2369.73 573.97 4
-6 -6 2 4183.4 714.963 12
-6 -6 2 4048.75 700.399 2
6 6 -2 4190.42 656.782 9
6 6 -2 3061.48 631.279 8
-6 -6 1 798.257 543.166 4
6 6 -1 575.489 425.865 9
6 7 -8 739.916 405.046 5
6 7 -7 5791.24 782.357 5
6 7 -5 7909.8 948.348 9
6 7 -4 525.691 484.82 9
6 7 -3 1924.89 559.675 9
6 7 -2 -108.039 459.421 9
6 7 -1 600.954 417.946 9
-7 6 3 22.1442 386.722 3
-7 6 2 1848.88 555.269 3
-7 5 5 23.9824 395.02 3
-7 5 4 -238.24 364.626 3
-7 5 3 -110.244 417.196 3
7 -5 -2 916.648 514.815 10
7 -5 -1 871.471 482.746 7
7 -5 -1 433.143 509.952 10
-7 5 1 1896.64 600.631 1
7 -5 0 9658.3 1010.45 7
-7 5 0 9628.7 1060.35 1
7 -5 0 10677.6 1101.15 10
7 -5 1 761.036 451.872 7
-7 5 -1 677.057 433.406 1
7 -5 1 699.845 498.869 10
7 -5 2 954.948 472.483 7
-7 5 -2 228.957 432.482 1
7 -5 2 698.067 477.033 10
7 -5 3 2206.3 557.391 7
7 -5 3 2334.57 599.307 10
-7 5 -3 2710.94 640.582 1
7 -5 4 2005.1 604.979 10
-7 5 -4 2570.32 659.313 1
7 -5 5 152.916 387.307 10
7 -4 -5 -135.998 425.131 10
-7 4 4 127.785 327.751 3
7 -4 -4 176.552 429.196 10
7 -4 -4 -33.3273 319.075 8
-7 4 3 -175.084 430.611 1
7 -4 -3 42.7923 387.486 7
7 -4 -3 938.576 524.844 10
7 -4 -3 318.337 352.643 8
7 -4 -2 12907.2 1142.8 7
-7 4 2 13903.3 1189.39 1
7 -4 -2 13327.9 1194.53 10
7 -4 -2 13570.2 1026.27 8
7 -4 -1 -783.521 450.566 7
7 -4 -1 6.07917 442.062 10
-7 4 1 571.128 482.848 1
7 -4 0 1851.31 552.423 7
-7 4 0 1350.65 497.073 1
7 -4 0 1482.85 534.699 10
7 -4 1 2653.68 590.444 7
-7 4 -1 1688.16 536.936 1
7 -4 1 2600.64 620.011 10
7 -4 2 1650.91 480.394 7
-7 4 -2 1847.95 550.301 1
7 -4 2 1694.37 569.9 10
7 -4 3 277.84 395.277 7
7 -4 3 1172.14 510.746 10
-7 4 -3 212.551 498.134 1
7 -4 4 805.228 429.874 7
7 -4 4 1484.09 574.124 10
7 -4 5 154.97 425.367 7
7 -4 5 154.257 396.068 10
-7 4 -5 -591.126 471.897 1
-7 4 -6 497.146 449.127 1
7 -4 6 948.482 497.248 10
7 -4 7 2697.68 591.778 14
7 -4 7 4390.35 773.416 10
7 -3 -7 2214.82 601.346 10
-7 3 6 1719.46 599.932 6
7 -3 -6 639.474 473.564 10
7 -3 -5 1880.11 546.523 7
-7 3 5 3682.18 693.762 6
7 -3 -5 2382.19 629.242 10
7 -3 -4 1778.65 502.198 7
-7 3 4 2590.55 507.142 3
7 -3 -4 2774.61 665.54 10
-7 3 4 2765.04 601.59 1
7 -3 -4 2813.12 554.032 8
-7 3 3 744.861 493.729 1
7 -3 -3 -13.229 377.614 7
7 -3 -3 795.081 532.815 10
7 -3 -3 381.166 349.181 8
7 -3 -2 1884.69 501.676 7
-7 3 2 2388.7 603.12 1
7 -3 -2 3290.51 705.733 10
7 -3 -2 2299.39 483.527 8
7 -3 -1 414.997 403.768 7
7 -3 -1 1289.2 600.232 10
7 -3 -1 -44.8796 361.758 8
-7 3 1 -223.135 406.728 1
7 -3 0 2090.62 550.181 7
7 -3 0 2552.27 627.712 10
-7 3 0 1348.36 525.211 1
7 -3 0 2299.25 464.684 8
7 -3 1 173.354 362.874 7
-7 3 -1 162.308 413.963 1
7 -3 1 1056.9 557.397 10
7 -3 1 340.751 347.699 8
7 -3 2 100.406 371.673 7
-7 3 -2 -433.347 458.814 1
7 -3 2 -145.732 308.731 8
7 -3 3 -95.1035 344.383 7
7 -3 3 396.884 482.729 10
7 -3 3 539.923 385.152 8
-7 3 -3 13.1364 384.288 1
7 -3 4 1777.46 509.907 7
7 -3 4 2668.45 629.041 10
-7 3 -4 2491.97 568.671 1
7 -3 5 7462.07 882.51 7
7 -3 5 7945.69 928.593 10
-7 3 -5 9108.15 950.898 1
7 -3 6 3930.37 671.701 14
-7 3 -6 2385.13 573.498 1
7 -3 6 2900.48 657.175 10
7 -3 7 265.418 424.491 14
-7 3 -7 1212.06 525.257 1
7 -3 7 873.758 497.972 10
7 -3 8 890.214 498.175 10
7 -2 -8 122.481 414.429 10
-7 2 7 -6.93437 409.576 6
7 -2 -7 608.36 471.614 10
7 -2 -6 168.238 417.847 7
-7 2 6 420.763 401.196 6
7 -2 -6 1246.91 532.274 10
7 -2 -5 645.848 418.358 7
-7 2 5 28.1533 456.509 6
7 -2 -5 604.202 459.251 8
7 -2 -4 1259.82 460.372 7
-7 2 4 1163.56 518.633 1
7 -2 -4 1640.58 477.261 8
7 -2 -3 528.516 422.454 7
-7 2 3 689.627 444.234 1
7 -2 -3 775.306 394.12 8
7 -2 -2 915.789 439.61 7
-7 2 2 1070.35 462.217 1
7 -2 -2 1340.86 495.213 8
-7 2 1 2014.44 451.885 1
7 -2 -1 3419.32 633.639 7
7 -2 -1 2179.51 488.813 8
-7 2 0 174.83 393.374 1
7 -2 0 -333.191 335.63 8
7 -2 1 396.983 378.111 7
-7 2 -1 478.633 441.086 1
7 -2 1 965.581 391.849 8
7 -2 2 356.17 332.016 7
-7 2 -2 989.239 439.118 1
7 -2 2 1457.57 436.569 8
-7 2 -3 473.57 425.89 1
7 -2 3 635.645 404.96 7
7 -2 3 -562.854 376.417 8
7 -2 4 464.405 388.079 7
-7 2 -4 -250.17 399.135 1
7 -2 4 814.162 407.394 8
7 -2 5 27.5838 378.744 7
-7 2 -5 -151.221 424.666 1
7 -2 5 471.851 381.915 8
7 -2 6 7297.24 852.218 7
7 -2 6 8585.8 939.889 14
7 -2 6 8344.58 973.196 10
-7 2 -6 8161.44 888.613 1
7 -2 6 8643.63 882.689 8
-7 2 -7 17420.9 1332.26 1
7 -2 7 14861.8 1239.42 14
7 -2 7 14460.8 1268.46 10
7 -2 7 15222.1 1177.72 8
-7 2 -8 178.817 450.908 1
7 -2 8 815.183 504.469 10
-7 1 9 1291.82 512.983 12
7 -1 -7 1481.18 526.204 7
-7 1 7 763.006 436.755 6
7 -1 -7 1614.07 463.574 11
7 -1 -6 537.49 392.182 7
-7 1 6 724.311 453.157 6
7 -1 -6 801.239 375.493 11
7 -1 -6 1204.82 506.689 8
7 -1 -5 273.379 391.767 7
-7 1 5 -145.368 394.392 6
7 -1 -5 138.127 372.608 8
7 -1 -4 -29.4349 374.717 7
-7 1 4 110.558 360.024 6
7 -1 -4 331.149 388.807 8
-7 1 3 439.017 445.822 1
7 -1 -3 375.704 422.695 7
-7 1 3 -815.762 390.88 6
7 -1 -3 19.2016 341.268 8
7 -1 -2 -5.66189 355.145 7
-7 1 2 -177.444 374.257 1
7 -1 -2 -152.249 343.527 8
7 -1 -1 1118.6 444.135 7
-7 1 1 541.846 422.567 1
7 -1 -1 732.588 391.23 8
7 -1 0 5032.52 715.928 7
-7 1 0 6052.16 762.53 1
7 -1 0 5777.49 714.332 8
7 -1 1 1739.71 481.513 7
-7 1 -1 2831.23 578.357 1
7 -1 1 1864.36 484.561 8
7 -1 2 -78.3657 347.641 7
-7 1 -2 -117.278 367.396 1
7 -1 2 -749.407 425.922 8
7 -1 3 403.642 395.218 7
-7 1 -3 -6.35242 359.186 1
7 -1 3 1017.08 439.511 8
7 -1 4 141.358 389.823 7
7 -1 4 -88.9923 415.232 8
-7 1 -4 -509.081 402.579 1
7 -1 5 -527.538 383.801 7
-7 1 -5 -158.266 394.478 1
7 -1 5 -106.152 347.723 8
7 -1 6 2378.58 560.006 7
-7 1 -6 2882.83 615.94 1
7 -1 6 3157.23 599.162 8
-7 1 -7 2401.38 631.591 12
-7 1 -7 958.712 443.11 1
7 -1 7 1357.72 530.606 8
7 0 -10 6573.64 836.564 11
-7 0 9 5222.98 778.073 12
7 0 -9 5024.52 722.645 11
7 0 -8 1076.13 463.976 7
-7 0 8 78.3227 411.232 6
7 0 -8 7.55961 362.092 11
7 0 -7 2566.33 567.788 7
-7 0 7 1168.51 483.077 12
-7 0 7 1569.24 487.987 6
7 0 -7 1033.91 422.034 11
7 0 -6 88.566 338.734 7
-7 0 6 373.8 386.702 6
7 0 -6 -712.723 453.888 8
7 0 -5 -455.398 411.802 7
-7 0 5 312.465 385.14 2
-7 0 5 216.115 334.715 6
7 0 -5 -203.808 403.396 8
-7 0 4 1914.15 473.803 2
7 0 -4 1696.82 465.909 7
-7 0 4 1118.92 405.735 6
7 0 -4 1349.45 479.061 8
7 0 -3 439.73 328.306 7
-7 0 3 664.957 386.493 1
-7 0 3 456.806 395.37 6
7 0 -3 101.865 357.173 8
7 0 -2 2525.45 504.269 7
-7 0 2 2088.75 508.038 1
-7 0 2 2679.62 492.665 6
7 0 -2 2320.05 520.215 8
7 0 -1 759.197 422.548 7
-7 0 1 703.335 439.883 1
7 0 -1 -64.0873 359.916 8
7 0 0 -191.233 325.187 7
-7 0 0 33.1345 354.127 1
7 0 0 244.094 366.867 8
7 0 1 155.085 301.795 7
-7 0 -1 969.501 423.888 1
7 0 1 170.441 367.544 8
7 0 2 828.721 414.215 7
-7 0 -2 1200.17 515.23 12
-7 0 -2 1073.55 425.753 1
7 0 2 176.649 358.047 8
7 0 3 384.413 412.087 7
-7 0 -3 -102.886 392.3 1
-7 0 -3 1307.05 528.812 12
7 0 3 271.175 404.122 8
-7 0 -4 2720.51 581.961 1
7 0 4 1352.54 421.506 7
-7 0 -4 2079.92 564.428 12
7 0 4 1702.03 539.489 8
7 0 5 1831.42 500.917 7
-7 0 -5 2424.79 640.016 12
7 0 5 1692.98 500.595 8
7 0 6 1902.75 491.516 7
-7 0 -6 2421.13 568.242 12
7 0 6 2373.97 576.073 8
-7 -1 10 2642.87 630.022 12
7 1 -9 3715.07 651.45 7
-7 -1 9 1989.55 530.99 12
-7 -1 9 1958.97 604.394 6
7 1 -9 1762.87 528.735 11
7 1 -8 2844.45 585.025 7
-7 -1 8 1089.47 496.539 12
-7 -1 8 2504.64 586.067 6
7 1 -8 3597.2 668.103 11
7 1 -7 5460.96 741.057 7
-7 -1 7 6536.69 867.048 12
-7 -1 7 6872.56 809.323 6
7 1 -6 69.9205 376.987 7
-7 -1 6 788.518 489.987 12
-7 -1 6 183.072 331.443 6
7 1 -6 463.812 431.919 8
7 1 -5 478.107 356.259 7
-7 -1 5 606.47 413.978 2
-7 -1 5 -67.1883 406.156 12
-7 -1 5 721.081 349.199 6
7 1 -5 333.134 374.375 8
7 1 -4 1113.55 384.191 7
-7 -1 4 891.089 413.828 2
-7 -1 4 1906.18 539.253 12
-7 -1 4 1684.53 427.946 6
7 1 -4 784.111 446.985 8
7 1 -3 -298.8 305.803 7
-7 -1 3 -364.942 351.796 2
-7 -1 3 964.585 518.91 12
7 1 -3 716.12 481.308 8
-7 -1 2 6750.11 766.749 1
7 1 -2 5819.4 702.837 7
-7 -1 2 5127.53 747.084 2
-7 -1 2 7875.56 927.218 12
7 1 -2 6848.62 831.626 8
7 1 -1 4890.72 631.393 7
-7 -1 1 6158.38 757.794 1
-7 -1 1 5044.76 724.58 2
-7 -1 1 4501.12 755.887 12
7 1 -1 6280.37 809.299 8
7 1 0 878.372 371.627 7
-7 -1 0 1540.27 539.625 2
-7 -1 0 1503.49 522.281 12
-7 -1 0 -139.1 382.306 1
7 1 0 1287.86 485.707 8
-7 -1 -1 -594.096 376.067 1
7 1 1 -109.823 303.692 7
-7 -1 -1 643.911 455.175 2
-7 -1 -1 616.944 404.244 12
7 1 1 297.882 423.475 8
-7 -1 -2 4558.08 756.753 2
-7 -1 -2 4543.95 752.301 12
-7 -1 -2 4542.44 629.509 1
7 1 2 4395.91 689.159 8
-7 -1 -3 6925.38 884.549 12
7 1 3 7097.54 885.269 8
-7 -1 -4 -51.1883 400.439 12
7 1 4 -37.1689 379.185 8
-7 -1 -5 960.118 441.123 12
-7 -1 -6 -149.788 437.849 12
-7 -2 9 1662.11 487.582 6
-7 -2 8 2755.86 607.319 12
-7 -2 8 3836.59 667.163 6
7 2 -8 2333.97 599.322 11
-7 -2 7 1150.31 543.768 12
-7 -2 7 191.442 363.185 6
-7 -2 6 9.41134 343.187 2
-7 -2 6 628.391 476.902 12
7 2 -6 -213.924 382.228 8
-7 -2 5 320.471 373.681 2
-7 -2 5 88.745 388.906 12
7 2 -5 308.961 398.038 8
-7 -2 4 -205.191 370.188 2
-7 -2 4 -128.851 434.694 12
7 2 -4 143.583 409.277 8
-7 -2 3 -185.475 359.398 2
-7 -2 3 289.287 402.028 12
7 2 -3 -463.887 430.694 8
-7 -2 2 3325.39 618.105 2
-7 -2 2 2337.1 599.368 12
7 2 -2 2354.4 586.85 8
-7 -2 1 2394.42 543.128 2
-7 -2 1 1818.01 531.122 12
-7 -2 1 2323.37 537.293 1
7 2 -1 2140.81 524.058 8
-7 -2 0 -92.2036 408.592 2
-7 -2 0 279.09 444.647 12
7 2 0 1125.15 455.809 8
-7 -2 -1 2929.49 645.996 2
-7 -2 -1 2865.91 613.924 12
7 2 1 2418.76 581.087 8
-7 -2 -2 1426.83 485.893 4
-7 -2 -2 877.973 471.2 12
7 2 2 920.797 457.69 8
-7 -2 -3 12566.9 1180.76 12
-7 -2 -3 14485.9 1146.54 4
-7 -3 6 4592.46 672.889 2
-7 -3 5 4111.16 674.041 2
-7 -3 4 941.169 401.219 4
-7 -3 4 -86.4645 357.922 2
-7 -3 4 1167.44 557.398 12
-7 -3 3 508.319 445.976 4
-7 -3 3 222.069 433.329 2
-7 -3 3 -52.5287 411.799 12
7 3 -3 734.415 479.295 8
-7 -3 2 -240.169 369.219 4
-7 -3 2 522.291 460.713 2
-7 -3 2 576.654 471.91 12
7 3 -2 -524.794 440.149 8
-7 -3 1 847.184 439.942 4
-7 -3 1 707.54 495.217 2
7 3 -1 105.319 385.253 8
-7 -3 0 3398.74 639.055 4
-7 -3 -1 -38.3053 401.898 4
-7 -3 -2 -62.9662 378.498 4
-7 -3 -3 170.884 428.756 4
-7 -4 7 4289.79 678.862 2
-7 -4 6 2077.36 589.74 2
-7 -4 5 5549.62 742.671 4
-7 -4 5 6273.72 826.881 2
-7 -4 4 8292.7 905.545 4
-7 -4 4 7374.19 873.813 2
-7 -4 3 -155.579 433.499 4
-7 -4 2 659.952 434.702 4
-7 -4 1 616.416 492.732 4
-7 -4 0 216.115 467.602 4
-8 2 3 95.5576 423.493 6
8 -2 -2 -42.7504 413.474 8
8 -2 -1 1117.39 475.01 8
8 -2 0 3160.41 626.365 8
8 -2 1 932.426 480.105 8
8 -2 2 9948.84 984.815 8
-8 1 4 4177.82 734.82 6
8 0 -3 882.805 392.739 7
8 0 -2 2432 581.824 7
-8 0 2 2006.56 573.249 1
-8 0 1 278.52 426.574 1
-8 0 0 3376.46 720.962 1
-8 0 -1 715.894 456.447 1
