#------------------------------------------------------------------------------
#$Date: 2020-04-04 07:13:24 +0300 (Sat, 04 Apr 2020) $
#$Revision: 250068 $
#$URL: file:///home/coder/svn-repositories/cod/cif/4/13/43/4134372.cif $
#------------------------------------------------------------------------------
#
# This file is available in the Crystallography Open Database (COD),
# http://www.crystallography.net/
#
# All data on this site have been placed in the public domain by the
# contributors.
#
data_4134372
loop_
_publ_author_name
'Ma, Ni'
'Li, Yan-Yan'
'Chen, Ling'
'Wu, Li-Ming'
_publ_section_title
;
 \a-CsCu<sub>5</sub>Se<sub>3</sub>: Discovery of a Low-Cost Bulk Selenide
 with High Thermoelectric Performance.
;
_journal_issue                   11
_journal_name_full               'Journal of the American Chemical Society'
_journal_page_first              5293
_journal_page_last               5303
_journal_paper_doi               10.1021/jacs.0c00062
_journal_volume                  142
_journal_year                    2020
_chemical_formula_sum            'Cs Cu5 Se3'
_chemical_formula_weight         687.49
_space_group_crystal_system      tetragonal
_space_group_IT_number           136
_space_group_name_Hall           '-P 4n 2n'
_space_group_name_H-M_alt        'P 42/m n m'
_audit_creation_method           SHELXL-2014/7
_cell_angle_alpha                90
_cell_angle_beta                 90
_cell_angle_gamma                90
_cell_formula_units_Z            4
_cell_length_a                   13.2381(11)
_cell_length_b                   13.2381(11)
_cell_length_c                   4.0646(3)
_cell_measurement_reflns_used    2012
_cell_measurement_temperature    200(2)
_cell_measurement_theta_max      29.22
_cell_measurement_theta_min      3.08
_cell_volume                     712.31(10)
_computing_structure_refinement  'SHELXL-2014/7 (Sheldrick, 2014)'
_diffrn_ambient_temperature      200(2)
_diffrn_measured_fraction_theta_full 0.995
_diffrn_measured_fraction_theta_max 0.931
_diffrn_measurement_device_type  'Bruker APEX-II CCD'
_diffrn_radiation_type           MoK\a
_diffrn_radiation_wavelength     0.71073
_diffrn_reflns_av_R_equivalents  0.1027
_diffrn_reflns_av_unetI/netI     0.0599
_diffrn_reflns_Laue_measured_fraction_full 0.995
_diffrn_reflns_Laue_measured_fraction_max 0.931
_diffrn_reflns_limit_h_max       16
_diffrn_reflns_limit_h_min       -16
_diffrn_reflns_limit_k_max       18
_diffrn_reflns_limit_k_min       -18
_diffrn_reflns_limit_l_max       5
_diffrn_reflns_limit_l_min       -5
_diffrn_reflns_number            4543
_diffrn_reflns_point_group_measured_fraction_full 0.995
_diffrn_reflns_point_group_measured_fraction_max 0.931
_diffrn_reflns_theta_full        25.242
_diffrn_reflns_theta_max         29.457
_diffrn_reflns_theta_min         3.078
_exptl_absorpt_coefficient_mu    34.934
_exptl_absorpt_correction_type   multi-scan
_exptl_crystal_colour            black
_exptl_crystal_density_diffrn    6.411
_exptl_crystal_description       prism
_exptl_crystal_F_000             1208
_exptl_crystal_size_max          1.0
_exptl_crystal_size_mid          0.8
_exptl_crystal_size_min          0.6
_exptl_transmission_factor_max   0.7842
_exptl_transmission_factor_min   0.6231
_refine_diff_density_max         3.317
_refine_diff_density_min         -2.308
_refine_diff_density_rms         0.546
_refine_ls_extinction_method     none
_refine_ls_goodness_of_fit_ref   1.232
_refine_ls_hydrogen_treatment    undef
_refine_ls_matrix_type           full
_refine_ls_number_parameters     31
_refine_ls_number_reflns         553
_refine_ls_number_restraints     0
_refine_ls_restrained_S_all      1.232
_refine_ls_R_factor_all          0.0872
_refine_ls_R_factor_gt           0.0653
_refine_ls_shift/su_max          0.000
_refine_ls_shift/su_mean         0.000
_refine_ls_structure_factor_coef Fsqd
_refine_ls_weighting_details
'w=1/[\s^2^(Fo^2^)+(0.0074P)^2^+70.4191P] where P=(Fo^2^+2Fc^2^)/3'
_refine_ls_weighting_scheme      calc
_refine_ls_wR_factor_gt          0.1351
_refine_ls_wR_factor_ref         0.1435
_reflns_Friedel_coverage         0.000
_reflns_number_gt                455
_reflns_number_total             553
_reflns_threshold_expression     'I > 2\s(I)'
_cod_data_source_file            ja0c00062_si_003.cif
_cod_data_source_block           y
_cod_depositor_comments
'Adding full bibliography for 4134372--4134374.cif.'
_cod_original_cell_volume        712.31(13)
_cod_database_code               4134372
_shelx_shelxl_version_number     2014/7
_shelx_space_group_comment
;
The symmetry employed for this shelxl refinement is uniquely defined
by the following loop, which should always be used as a source of
symmetry information in preference to the above space-group names.
They are only intended as comments.
;
_shelx_res_file
;

    y.res created by SHELXL-2014/7


TITL y         P 42/m n m   R =  New: P42/mnm
CELL  0.71073   13.2381   13.2381    4.0646    90.000    90.000    90.000
ZERR  4           0.0011    0.0011    0.0003     0.000     0.000     0.000
LATT   1
SYMM     0.50000 - Y ,    0.50000 + X ,    0.50000 + Z
SYMM             - X ,            - Y ,              Z
SYMM     0.50000 + Y ,    0.50000 - X ,    0.50000 + Z
SYMM     0.50000 + X ,    0.50000 - Y ,    0.50000 - Z
SYMM               Y ,              X ,            - Z
SYMM     0.50000 - X ,    0.50000 + Y ,    0.50000 - Z
SYMM             - Y ,            - X ,            - Z
SFAC Cs Cu Se
UNIT     4   20  12
L.S. 5
FMAP 2
PLAN -20
ACTA
BOND $H
CONF

WGHT    0.007400   70.419113
FVAR       0.05112
CS1   1    0.111001    0.111001    0.000000    10.25000    0.00904    0.00904 =
         0.01053    0.00000    0.00000    0.00115
CU1   2    0.420050    0.208588    0.000000    10.50000    0.02427    0.00796 =
         0.03368    0.00000    0.00000    0.00150
CU2   2    0.016016    0.395846    0.000000    10.50000    0.00812    0.01255 =
         0.01569    0.00000    0.00000    0.00100
CU3   2   -0.184340    0.184340    0.000000    10.25000    0.04652    0.04652 =
         0.00834    0.00000    0.00000    0.02849
SE1   3    0.109956    0.334068   -0.500000    10.50000    0.00699    0.00740 =
         0.00926    0.00000    0.00000   -0.00059
SE2   3    0.384113    0.384113    0.000000    10.25000    0.00579    0.00579 =
         0.01150    0.00000    0.00000    0.00044
HKLF 4

REM  y         P 42/m n m   R =  New: P42/mnm
REM R1 =  0.0653 for     455 Fo > 4sig(Fo)  and  0.0872 for all     553 data
REM     31 parameters refined using      0 restraints

END

WGHT      0.0001     71.1125

REM Highest difference peak  3.317,  deepest hole -2.308,  1-sigma level  0.546
Q1    1   0.2701  0.2701  0.0000  10.25000  0.05    3.32
Q2    1  -0.0459  0.4542  0.0000  10.50000  0.05    2.47
Q3    1   0.3780  0.2900  0.0000  10.50000  0.05    2.25
Q4    1  -0.1217  0.2129  0.0000  10.50000  0.05    2.24
Q5    1  -0.3205  0.1667  0.0000  10.50000  0.05    2.22
Q6    1  -0.0509  0.3094  0.0000  10.50000  0.05    2.18
Q7    1   0.4588  0.0449  0.0000  10.50000  0.05    2.17
Q8    1   0.1127  0.1127 -0.4063  10.50000  0.05    2.15
Q9    1   0.1168  0.0500  0.0000  10.50000  0.05    2.12
Q10   1   0.0444  0.0444  0.0000  10.25000  0.05    2.00
Q11   1   0.1162  0.3781  0.0000  10.50000  0.05    1.88
Q12   1   0.5157  0.0858  0.0000  10.50000  0.05    1.86
Q13   1   0.1581  0.1581 -0.5000  10.25000  0.05    1.85
Q14   1  -0.0391  0.1277  0.0000  10.50000  0.05    1.85
Q15   1   0.1162  0.1162  0.1592  10.50000  0.05    1.83
Q16   1  -0.1652  0.4396  0.0000  10.50000  0.05    1.78
Q17   1   0.0812  0.2521  0.0000  10.50000  0.05    1.77
Q18   1   0.0000  0.0000  0.0000  10.12500  0.05    1.77
Q19   1   0.1617  0.0957  0.0000  10.50000  0.05    1.71
Q20   1   0.0724  0.1762 -0.5000  10.50000  0.05    1.65
;
_shelx_res_checksum              51659
_shelx_hkl_file
;
  -2  -1   0    6.77    0.79
   1  -2   0    5.99    0.71
   1  -2   0    5.95    0.66
   2   1   0    6.03    0.76
   0   2   0    4.25    0.51
  -2   0   0    3.55    0.55
   0  -2   0    4.75    0.52
   2  -1   0    9.55    0.93
  -1  -2   0    7.32    0.87
  -2   1   0    9.55    0.94
   1   2   0    7.60    0.88
   2  -2   0    0.78    0.25
  -2   2   0    0.67    0.21
   2   2   0    0.51    0.22
  -2  -2   0    0.67    0.24
   2  -3   0   28.77    2.54
   3   2   0   27.50    2.68
  -3  -2   0   24.09    2.64
  -3  -1   0    0.48    0.29
   1  -3   0    0.87    0.27
   3   1   0    0.56    0.26
   0  -3   0    0.00    0.07
   3   0   0    0.45    0.27
  -3   0   0   -0.09    0.11
   0   3   0    0.02    0.09
   1   3   0    1.11    0.33
  -3   1   0    0.93    0.36
  -1  -3   0    0.92    0.26
   3  -1   0    0.95    0.34
   2   3   0   33.71    2.95
  -3   2   0   30.70    2.91
   3  -2   0   27.90    2.86
  -2  -3   0   30.38    2.88
  -3  -3   0   49.06    4.35
  -3   3   0   44.26    4.24
   3  -3   0   46.44    4.30
   3   3   0   46.12    4.35
  -4  -3   0   20.44    2.12
  -3   4   0   19.95    1.95
   3  -4   0   16.02    1.86
   4   3   0   17.47    2.05
  -4  -2   0    0.32    0.29
   2  -4   0    0.40    0.22
   2  -4   0    0.38    0.25
   4   2   0    0.22    0.25
  -1   4   0   20.70    2.25
   4   1   0   24.54    2.74
  -4  -1   0   22.72    2.45
   1  -4   0   23.33    2.29
   0   4   0  511.96   41.89
  -4   0   0  477.21   42.03
   4  -1   0   21.30    2.69
   1   4   0   29.21    2.60
  -1  -4   0   25.08    2.50
  -4   1   0   28.23    2.68
  -2  -4   0    0.13    0.17
  -4   2   0    0.33    0.27
   2   4   0    0.47    0.21
   4  -2   0    0.12    0.17
   4  -3   0   20.70    2.13
   3   4   0   20.75    2.20
  -4   3   0   19.92    2.14
  -3  -4   0   20.02    2.13
   4  -4   0   66.94    6.08
  -4   4   0   69.48    6.13
  -4  -4   0   72.26    6.24
   4   4   0   59.26    6.18
   4  -5   0   85.39    8.38
   5   4   0  100.24    8.71
  -4   5   0  107.80    8.53
  -5  -4   0   84.62    8.57
   3  -5   0    4.78    0.78
   3  -5   0    4.79    0.88
   5   3   0    6.32    1.03
  -5  -3   0    6.43    1.06
  -5  -2   0   14.49    2.04
   5   2   0   16.11    2.05
   2  -5   0   19.38    1.90
   2  -5   0   20.16    2.04
  -1   5   0   73.16    6.66
  -5  -1   0   83.15    6.99
   5   1   0   64.70    6.77
   0   5   0    0.00    0.15
   5   0   0    0.15    0.24
  -5   0   0   -0.08    0.18
   5  -1   0   85.70    8.16
   1   5   0   92.09    8.07
  -5   1   0   80.04    8.13
  -1  -5   0  102.18    8.04
   5  -2   0   20.98    2.21
  -5   2   0   18.59    2.18
  -2  -5   0   21.32    2.11
   2   5   0   18.36    2.12
   3   5   0    5.48    0.93
  -5   3   0    7.09    1.04
  -3  -5   0    6.60    0.95
   5  -3   0    5.54    0.91
   5  -4   0   88.58    8.37
   4   5   0  103.47    8.61
  -5   4   0   89.93    8.43
  -4  -5   0   92.58    8.44
   5   5   0  893.16   78.52
   5  -5   0  845.46   78.27
  -5   5   0  969.41   78.40
  -5  -5   0 1000.00   78.53
   5  -6   0   62.87    5.42
  -6  -5   0   51.30    5.51
   6   5   0   54.39    5.59
   4  -6   0   25.68    2.91
  -6  -4   0   24.01    2.93
   6   4   0   26.16    2.97
   4  -6   0   27.00    2.72
  -6  -3   0   35.63    3.82
   3  -6   0   32.32    3.44
   6   3   0   38.14    3.82
   3  -6   0   36.43    3.68
  -6  -2   0    0.42    0.40
   2  -6   0    0.61    0.30
   6   2   0    0.92    0.45
  -1   6   0    9.48    1.41
   6   1   0   11.29    1.63
   1  -6   0   14.18    1.54
  -6  -1   0   11.76    1.69
  -6   0   0   17.28    2.15
   0  -6   0   18.19    1.90
   0   6   0   16.33    1.99
   6   0   0   14.92    2.03
   1   6   0   14.11    1.67
  -1  -6   0   14.31    1.59
   6  -1   0   11.39    1.68
  -6   1   0   13.64    1.79
  -2  -6   0    0.89    0.35
  -6   2   0    0.58    0.46
   6  -2   0    0.47    0.33
   2   6   0    0.54    0.33
  -6   3   0   37.65    3.87
   6  -3   0   38.02    3.81
   3   6   0   42.01    3.90
  -3  -6   0   34.02    3.67
   4   6   0   29.00    3.14
  -6   4   0   33.18    3.19
  -4  -6   0   30.11    3.05
   6  -4   0   23.71    2.94
  -5  -6   0   66.36    6.25
  -6   5   0   72.06    6.30
   6  -5   0   58.50    6.10
   5   6   0   65.94    6.37
   6   6   0   29.92    3.19
  -6  -6   0   25.98    2.98
  -6   6   0   25.80    2.90
   6  -6   0   23.23    2.77
   6  -7   0   21.33    2.35
   7   6   0   19.35    2.57
  -7  -6   0   16.57    2.37
   5  -7   0    6.10    1.22
   7   5   0    6.42    1.31
  -7  -5   0    6.35    1.29
   5  -7   0    8.10    1.14
   7   4   0   11.82    1.68
  -7  -4   0    9.74    1.66
   4  -7   0   10.25    1.58
   4  -7   0   10.35    1.42
   3  -7   0    0.97    0.44
   3  -7   0    0.44    0.38
  -7  -3   0   -0.09    0.38
   7   3   0    0.03    0.32
   2  -7   0    4.53    0.89
   7   2   0    3.30    0.98
  -7  -2   0    5.66    1.50
  -1   7   0    2.36    0.70
   7   1   0    2.44    0.83
  -7  -1   0    3.02    1.01
   0  -7   0    0.32    0.24
   0   7   0    0.16    0.25
  -7   0   0   -0.08    0.33
   1   7   0    2.90    0.77
  -7   1   0    3.56    0.98
  -1  -7   0    4.26    0.74
   7  -1   0    3.85    1.11
  -7   2   0    4.48    1.16
   7  -2   0    4.56    1.09
  -2  -7   0    4.92    0.88
   2   7   0    6.10    1.05
  -7   3   0    0.65    0.47
   7  -3   0    0.81    0.36
   3   7   0    0.97    0.51
  -4  -7   0   11.81    1.63
   4   7   0   12.63    1.79
   7  -4   0   12.62    1.67
  -7   4   0   12.99    1.80
   7  -5   0    5.31    1.05
  -7   5   0    7.08    1.21
  -5  -7   0    6.31    1.10
   5   7   0    5.49    1.12
   6   7   0   18.03    2.52
  -6  -7   0   19.17    2.42
   7  -6   0   22.05    2.42
  -7   6   0   19.18    2.43
  -7  -7   0   25.80    3.15
   7  -7   0   27.24    3.02
  -7   7   0   27.78    3.15
   7   7   0   25.32    3.22
   8   7   0   16.86    2.41
   7  -8   0   15.66    2.38
  -8  -7   0   17.39    2.39
   7  -8   0   14.28    2.04
   6  -8   0    0.73    0.37
   6  -8   0   -0.32    0.43
  -8  -6   0    0.35    0.58
   8   6   0   -0.27    0.40
   8   5   0   14.36    2.14
   5  -8   0   15.24    1.86
  -8  -5   0   14.48    2.17
   5  -8   0   14.31    2.14
   4  -8   0   98.66    8.68
   8   4   0   88.35    8.96
  -8  -4   0   95.41    9.13
  -8  -3   0   55.40    5.44
   8   3   0   44.64    5.11
   3  -8   0   57.36    5.16
   3  -8   0   43.86    4.79
   2  -8   0   25.68    2.57
   2  -8   0   22.02    2.56
   8   2   0   19.63    2.66
  -8  -2   0   18.87    2.76
  -1   8   0   14.96    2.05
  -8  -1   0   19.54    2.49
   8   1   0   16.29    2.23
   0   8   0   57.50    6.29
  -8   0   0   74.41    6.77
   8   0   0   69.65    6.63
   0  -8   0   66.09    6.25
  -1  -8   0   17.65    2.13
   1   8   0   17.77    2.27
   8  -1   0   17.84    2.35
  -8   1   0   20.67    2.54
   2   8   0   22.26    2.65
   8  -2   0   22.54    2.69
  -8   2   0   23.77    2.84
  -2  -8   0   21.23    2.48
  -3  -8   0   52.59    4.67
   8  -3   0   44.85    4.74
   3   8   0   44.77    4.76
  -8   3   0   42.56    4.79
   4   8   0   87.20    7.93
  -8   4   0   74.72    7.82
  -4  -8   0   90.76    7.74
   8  -4   0   76.19    7.73
  -5  -8   0   12.66    1.91
  -8   5   0   15.65    2.16
   8  -5   0   15.93    2.05
   5   8   0   17.40    2.20
   6   8   0    0.26    0.52
   8  -6   0   -0.43    0.25
  -8   6   0    0.02    0.68
  -6  -8   0    1.00    0.53
   8  -7   0   17.24    2.82
   7   8   0   14.77    2.47
  -8   7   0   19.36    2.49
  -7  -8   0   19.92    2.59
   8  -8   0   86.10    8.37
   8   8   0   84.57    8.75
  -8  -8   0   94.85    8.70
   8  -9   0   10.94    1.64
  -9  -8   0    6.97    1.89
   9   8   0    9.45    1.80
   8  -9   0    9.96    2.28
   7  -9   0    0.89    0.68
   7  -9   0    1.45    0.68
   9   7   0    1.03    0.78
  -9  -7   0    1.43    0.85
   6  -9   0    0.10    0.51
   6  -9   0    0.03    0.43
  -9  -6   0   -0.61    0.50
   9   6   0    0.96    0.54
   5  -9   0  161.97   17.03
  -9  -5   0  193.93   17.41
   9   5   0  199.62   17.48
   5  -9   0  208.60   16.98
  -9  -4   0    0.40    0.71
   4  -9   0    0.43    0.55
   9   4   0    0.66    0.51
   4  -9   0    0.48    0.38
   3  -9   0   22.47    2.68
   9   3   0   29.34    3.20
  -9  -3   0   21.47    3.03
   3  -9   0   22.37    2.79
  -9  -2   0    2.43    1.08
   2  -9   0    1.70    0.67
   9   2   0    2.29    0.90
   2  -9   0    3.17    0.97
  -9  -1   0    4.84    1.30
   9   1   0    3.38    1.03
  -1   9   0    2.18    0.79
   1  -9   0    3.97    0.96
   0  -9   0   -0.34    0.25
  -9   0   0   -0.09    0.38
   9   0   0    0.10    0.35
   0   9   0    0.19    0.41
  -1  -9   0    6.03    1.09
  -9   1   0    7.87    1.81
   9  -1   0    7.59    1.34
   9  -2   0    2.76    1.02
   2   9   0    2.93    1.02
  -2  -9   0    1.59    0.63
  -9   2   0    2.48    1.01
   9  -3   0   22.77    2.89
  -9   3   0   19.74    2.97
   3   9   0   27.45    3.04
  -3  -9   0   25.58    2.77
   9  -4   0    0.74    0.52
   4   9   0    0.86    0.56
  -4  -9   0    1.31    0.60
  -9   4   0    0.04    0.43
   5   9   0  218.18   19.54
  -5  -9   0  236.60   19.31
   9  -5   0  212.23   20.28
  -9   5   0  204.46   19.43
   9  -6   0    2.08    0.51
  -6  -9   0    1.14    0.85
  -9   6   0    0.01    0.49
   6   9   0    0.44    0.46
   7   9   0    0.92    0.72
  -9   7   0    1.42    0.78
  -7  -9   0    1.19    0.74
  -8  -9   0    8.24    1.63
   9  -8   0    6.98    1.44
   8   9   0    9.42    2.24
   9  -9   0  156.30   14.45
  -9  -9   0  133.65   14.04
   9   9   0  151.54   14.47
   9  -9   0  168.82   14.06
   9 -10   0   32.30    3.94
  10   9   0   28.97    3.92
   9 -10   0   26.04    3.36
 -10  -9   0   25.55    3.61
   8 -10   0    2.70    1.08
  10   8   0    5.77    1.95
   8 -10   0    3.88    1.59
   7 -10   0   11.63    1.87
  10   7   0   13.56    2.06
   7 -10   0   13.79    2.18
 -10  -7   0   10.97    2.15
 -10  -6   0    0.21    0.78
  10   6   0    1.54    0.54
   6 -10   0    1.45    0.71
   6 -10   0    1.75    0.93
 -10  -5   0    4.91    1.66
   5 -10   0    5.35    1.13
  10   5   0    7.18    1.45
   5 -10   0    4.56    1.34
  10   4   0   48.62    5.09
   4 -10   0   44.50    4.63
   4 -10   0   46.24    4.90
 -10  -4   0   40.49    5.05
   3 -10   0   23.64    2.98
   3 -10   0   26.68    3.18
  10   3   0   29.67    3.45
 -10  -2   0    7.07    1.98
   2 -10   0    8.46    1.34
   2 -10   0    6.60    1.33
  10   2   0    6.32    2.51
 -10  -1   0  135.49   11.97
   1 -10   0  125.11   11.35
  10   1   0  111.55   11.87
   0  10   0  283.82   26.93
  10   0   0  303.33   27.56
   0 -10   0  320.46   26.81
 -10   0   0  326.69   27.40
  10  -1   0  108.36   11.10
  -1 -10   0  113.16   10.22
   1  10   0  111.91   10.48
   2  10   0    7.35    1.44
  -2 -10   0    6.92    1.54
  10  -2   0   12.10    2.91
 -10   2   0    8.62    1.70
  -3 -10   0   25.38    2.94
   3  10   0   21.55    3.08
 -10   3   0   29.60    3.43
  10  -3   0   26.76    3.21
 -10   4   0   32.56    4.22
  -4 -10   0   40.18    4.04
  10  -4   0   38.35    4.18
 -10   5   0    3.48    1.20
  10  -5   0    6.44    1.21
  -5 -10   0    5.48    1.78
   5  10   0    4.59    1.32
  -6 -10   0    1.29    0.70
 -10   6   0    0.62    0.73
  10  -6   0    1.24    0.66
   6  10   0    0.70    0.75
  10  -7   0    7.86    1.43
   7  10   0    6.55    1.77
 -10   7   0    9.41    1.81
  -7 -10   0    9.19    1.66
  10  -8   0    4.16    1.09
  -8 -10   0    6.61    1.75
   8  10   0    7.35    2.15
 -10   8   0    6.37    1.70
  -9 -10   0   32.47    3.75
  10  -9   0   28.08    3.47
   9  10   0   24.71    3.74
 -10 -10   0   23.82    2.94
  10 -10   0   17.48    2.62
  10 -10   0   15.11    2.97
  10  10   0   17.80    3.07
  10 -11   0    8.76    2.56
  11  10   0   12.89    3.27
 -11 -10   0   14.58    2.25
  10 -11   0   12.88    2.46
  11   9   0   15.69    2.57
   9 -11   0   12.68    2.82
 -11  -9   0   11.82    2.74
   9 -11   0   11.47    2.04
 -11  -8   0    6.58    1.85
  11   8   0    7.74    2.18
   8 -11   0    7.63    1.74
   8 -11   0    8.42    2.18
  11   7   0    2.58    1.32
   7 -11   0    2.53    1.05
   7 -11   0    2.32    1.09
 -11  -7   0    3.31    1.27
   6 -11   0    7.26    1.88
   6 -11   0    5.43    1.35
 -11  -6   0    4.82    1.44
  11   6   0    7.42    1.70
   5 -11   0    0.96    0.51
 -11  -5   0    0.59    0.74
   5 -11   0    0.39    0.73
  11   5   0    1.00    0.83
  11   4   0    3.24    1.11
   4 -11   0    3.76    1.12
   4 -11   0    3.62    1.11
 -11  -4   0    2.60    1.41
  11   3   0    0.48    0.56
 -11  -3   0   -0.01    0.76
   3 -11   0   -0.38    0.35
   3 -11   0    0.55    0.56
   2 -11   0   90.32    9.66
  11   2   0   96.37   10.01
 -11  -2   0  113.59   10.42
   2 -11   0  116.58    9.89
   1 -11   0    8.76    1.58
 -11  -1   0   13.43    2.26
  11   1   0   10.92    1.86
 -11   0   0    1.04    0.92
  11   0   0    0.86    0.68
   0  11   0    0.43    0.56
   0 -11   0    1.08    0.66
  -1 -11   0   10.80    1.72
  11  -1   0   11.36    1.92
   1  11   0    8.43    1.71
 -11   1   0   12.12    2.15
  11  -2   0  110.12    9.89
   2  11   0   87.09    9.57
  -2 -11   0  104.36    9.41
 -11   3   0    0.02    0.78
  11  -3   0    0.07    0.54
  -3 -11   0    0.22    0.52
   3  11   0    0.42    0.60
  11  -4   0    4.19    1.06
  -4 -11   0    3.26    1.34
   4  11   0    2.63    1.14
 -11   4   0    3.51    1.32
   5  11   0    0.46    0.72
  11  -5   0    0.46    0.48
 -11   5   0    0.04    0.79
  -5 -11   0   -0.27    0.51
   6  11   0   10.14    1.84
 -11   6   0    5.58    1.75
  -6 -11   0    8.33    1.86
  11  -6   0    7.09    1.74
  -7 -11   0    1.12    0.87
  11  -7   0    0.87    0.68
 -11   7   0    2.02    0.97
   7  11   0    0.94    0.99
  -8 -11   0    7.68    2.04
   8  11   0    8.95    1.82
 -11   8   0   10.00    1.94
  11  -8   0    9.86    1.80
  -9 -11   0   15.56    2.02
   9  11   0   13.40    3.08
  10  11   0   12.29    3.00
  11 -10   0   15.20    2.46
 -10 -11   0   13.78    2.84
  11 -10   0   11.14    2.94
  11 -11   0   -0.28    1.54
 -11 -11   0    3.99    1.10
  11 -11   0    2.67    1.05
  11  11   0   -0.83    1.24
  11 -12   0    0.29    1.41
  10 -12   0    5.31    2.03
  12  10   0    6.53    1.76
  10 -12   0    4.40    1.51
 -12  -9   0   11.90    2.08
   9 -12   0    7.64    1.81
  12   9   0    7.77    2.07
  12   8   0   -0.81    1.02
 -12  -8   0    4.88    1.69
   8 -12   0   -0.02    1.07
   8 -12   0   -0.30    0.63
   7 -12   0   30.87    3.72
   7 -12   0   20.63    3.00
 -12  -7   0   21.59    3.40
  12   7   0   27.63    3.73
   6 -12   0    1.56    0.81
 -12  -6   0    2.26    1.06
   6 -12   0    1.72    0.85
   5 -12   0   14.18    2.20
   5 -12   0   16.09    2.38
  12   5   0   15.22    2.60
 -12  -5   0   13.71    2.56
   4 -12   0   19.32    2.68
 -12  -4   0   16.14    2.84
   4 -12   0   22.72    2.89
  12   4   0   22.86    3.15
   3 -12   0   13.68    2.34
  12   3   0   16.56    2.57
   3 -12   0   16.38    2.69
 -12  -3   0   21.93    2.86
   2 -12   0    8.44    1.66
  12   2   0   12.38    1.71
   2 -12   0    7.00    1.73
 -12  -2   0   12.59    2.06
  12   1   0   24.31    3.24
   1 -12   0   21.03    2.95
 -12  -1   0   28.48    3.62
   0 -12   0   12.79    1.89
   0  12   0    9.11    1.81
  12   0   0    8.71    1.85
  12  -1   0   21.53    2.95
  -1 -12   0   18.66    2.58
   1  12   0   18.88    2.77
   2  12   0    5.40    1.43
  -2 -12   0    7.43    1.62
 -12   2   0   11.87    2.62
  12  -2   0    9.32    1.56
  -3 -12   0   13.65    2.05
   3  12   0   12.25    2.20
  12  -4   0   15.23    2.46
  -4 -12   0   15.38    2.27
 -12   4   0   21.36    2.90
   4  12   0   16.36    2.57
   5  12   0   10.50    2.17
  -5 -12   0   11.34    1.91
 -12   5   0   13.16    2.39
  12  -5   0    8.56    1.82
 -12   6   0    0.09    1.01
   6  12   0    1.93    1.02
  12  -6   0    1.60    0.72
  -6 -12   0    0.39    0.64
   7  12   0   18.22    3.12
  -7 -12   0   20.24    2.83
 -12   7   0   23.94    3.09
  12  -7   0   20.83    2.95
 -12   8   0    0.01    0.98
   8  12   0   -0.67    0.93
  -8 -12   0    1.01    0.84
  12  -8   0    0.39    1.03
   9  12   0    3.31    1.39
  12  -9   0    1.82    1.06
  -9 -12   0    4.27    1.82
  12 -10   0    9.61    1.67
 -10 -12   0    7.11    2.06
  11  12   0   -0.37    1.27
  12 -11   0    2.71    1.50
  12 -12   0   -0.93    2.09
  11 -13   0   -4.16    2.56
  10 -13   0    4.22    2.14
  13   9   0  122.67   11.64
   9 -13   0  101.96   11.58
   9 -13   0  118.65   11.20
   8 -13   0    5.10    1.73
   8 -13   0    4.03    2.06
 -13  -8   0    7.88    2.36
  13   8   0    5.95    1.88
   7 -13   0    2.13    1.05
  13   7   0    3.54    1.30
   7 -13   0    2.84    1.75
 -13  -7   0    1.40    1.26
   6 -13   0    3.58    1.01
 -13  -6   0    3.20    1.19
   6 -13   0    0.61    1.10
  13   6   0    0.53    1.39
   5 -13   0   93.26    8.84
  13   5   0   86.02    9.17
   5 -13   0  106.41    9.30
 -13  -5   0   71.20    9.10
   4 -13   0   25.08    3.20
   4 -13   0   23.98    3.40
 -13  -4   0   24.92    3.72
  13   4   0   27.06    3.48
  13   3   0   36.29    4.82
   3 -13   0   39.69    4.69
   3 -13   0   44.17    4.80
 -13  -3   0   48.64    5.41
  13   2   0   10.90    2.35
 -13  -2   0   17.48    2.73
   2 -13   0   16.57    2.34
   2 -13   0   12.44    2.06
  13   1   0   26.72    3.83
   1 -13   0   32.78    3.73
 -13   0   0    1.58    0.98
   0  13   0    0.78    0.54
  13   0   0   -0.31    0.80
   0 -13   0   -0.66    0.59
  -1 -13   0   35.92    4.24
  13  -1   0   30.33    4.03
   1  13   0   26.60    3.82
  -2 -13   0   11.27    1.85
   2  13   0    8.27    2.63
  13  -2   0   10.63    2.53
  -3 -13   0   24.64    3.18
  13  -3   0   25.67    3.51
   4  13   0   20.08    3.29
 -13   4   0   26.40    3.64
  -4 -13   0   21.78    2.97
  13  -4   0   24.08    3.05
  13  -5   0   67.99    7.42
   5  13   0   78.18    7.84
  -5 -13   0   63.21    7.06
 -13   5   0   82.85    9.39
  13  -6   0    0.13    1.43
 -13   6   0    2.33    1.16
   6  13   0    0.87    0.89
  -6 -13   0    1.08    1.00
 -13   7   0    2.32    1.20
  13  -7   0    1.39    1.12
  -7 -13   0    2.90    1.12
   8  13   0    3.48    1.37
  13  -8   0    4.23    1.43
 -13   8   0    6.06    1.85
  -9 -13   0  107.66   10.45
   9  13   0  110.79   11.18
  13  -9   0   98.63   11.35
  10  13   0    7.45    2.16
   9 -14   0   -0.85    1.96
   8 -14   0   32.21    5.13
   8 -14   0   42.10    4.77
   7 -14   0   -2.51    1.56
  14   7   0    0.06    1.27
   6 -14   0   10.56    2.16
   6 -14   0   12.32    2.90
 -14  -6   0   12.10    2.80
  14   6   0   13.04    2.78
  14   5   0    0.55    1.27
 -14  -5   0    5.83    1.62
   5 -14   0    1.70    0.99
   5 -14   0    1.76    1.46
  14   4   0   43.02    5.32
   4 -14   0   45.40    5.09
   4 -14   0   41.33    5.10
 -14  -4   0   46.84    5.60
   3 -14   0   -0.12    0.71
 -14  -3   0    1.39    1.15
   3 -14   0   -0.29    0.87
 -14  -2   0    9.11    1.67
  14   2   0    1.89    1.55
   2 -14   0    5.35    1.53
   1 -14   0    4.79    1.36
 -14  -1   0    4.69    1.64
  14   1   0    3.51    1.56
 -14   0   0  120.74   11.12
   0 -14   0  102.71   10.15
  14   0   0   96.34   10.43
 -14   1   0    5.75    1.61
  14  -1   0    2.85    1.35
  -1 -14   0    5.08    0.95
   2  14   0    1.45    0.95
  -2 -14   0    2.18    0.98
  14  -2   0    1.53    1.07
  14  -3   0    0.12    1.10
 -14   3   0    4.03    0.95
   3  14   0    1.10    0.83
  -3 -14   0    2.40    0.73
  -4 -14   0   43.63    4.73
   4  14   0   43.25    5.32
  14  -4   0   39.79    5.07
 -14   5   0    0.49    1.30
   5  14   0    1.88    1.19
  -5 -14   0    0.73    0.93
  14  -5   0    0.75    1.11
 -14   6   0    8.34    2.45
  14  -6   0    5.86    1.94
   6  14   0    7.10    2.07
  -6 -14   0    9.82    1.87
  14  -7   0    2.96    1.75
   7  14   0    1.70    1.16
   8  14   0   31.54    4.88
  -8 -14   0   33.14    4.10
   9  14   0   -2.19    1.26
   8 -15   0   15.67    4.45
   7 -15   0   14.96    2.87
   7 -15   0   24.11    5.08
   6 -15   0   10.51    2.45
   5 -15   0    4.76    2.07
   5 -15   0   10.01    2.02
   4 -15   0   53.00    5.65
  15   4   0   50.46    6.08
   4 -15   0   39.22    5.42
   3 -15   0   -0.22    1.25
   3 -15   0    2.08    1.11
   2 -15   0    2.48    1.10
  15   2   0    1.77    1.30
 -15  -2   0    2.77    1.35
   2 -15   0   -0.53    1.26
 -15  -1   0    6.46    1.52
  15   1   0    2.76    1.21
   1 -15   0    2.96    1.15
  15   0   0    0.91    1.11
   0 -15   0   -0.66    0.93
  15  -1   0    2.05    1.08
   1  15   0    1.92    0.93
  -1 -15   0    3.58    1.49
   2  15   0    0.47    1.14
 -15   2   0    3.10    1.38
  -2 -15   0    1.48    0.90
  15  -3   0   -0.98    0.95
   3  15   0   -1.49    1.07
  -3 -15   0    0.97    0.87
  -4 -15   0   46.55    5.20
  15  -4   0   48.54    7.17
   4  15   0   41.72    5.73
   5  15   0    6.14    2.01
   6  15   0   14.78    3.68
  -6 -15   0   12.03    2.24
  -7 -15   0   16.79    2.71
   7  15   0   16.98    3.64
   8  15   0   13.22    3.98
   6 -16   0    6.07    2.26
   5 -16   0    5.79    2.13
   5 -16   0    8.38    2.76
   4 -16   0    2.17    2.14
   4 -16   0    1.52    1.49
   3 -16   0   18.31    3.18
   3 -16   0   13.81    2.93
   2 -16   0    0.96    1.58
   2 -16   0    4.37    1.76
   1 -16   0    2.07    1.43
   1 -16   0   -1.59    1.02
   0 -16   0    3.10    1.24
  -1 -16   0    3.50    1.21
   2  16   0    3.22    1.73
  -2 -16   0    1.55    1.51
  -3 -16   0   14.08    2.61
   3  16   0   15.11    3.45
   4  16   0    0.16    1.39
   5  16   0    7.19    2.44
  -5 -16   0    4.03    1.61
  -6 -16   0    2.28    1.42
   6  16   0   -0.32    1.58
   4 -17   0   14.38    3.42
   4 -17   0   23.38    4.50
   3 -17   0   -0.96    1.93
   2 -17   0   12.29    3.12
   1 -17   0   17.38    3.29
   0 -17   0    2.83    1.77
   0 -17   0   -2.89    1.56
  -1 -17   0   19.08    3.10
   2  17   0   10.07    2.90
   3  17   0    0.71    1.56
  -3 -17   0    3.83    1.59
   4  17   0   11.23    3.42
  -4 -17   0   17.42    3.00
   5  17   0   16.44    3.86
   2 -18   0    1.59    2.44
   1 -18   0    2.00    1.93
   0 -18   0   77.71    8.54
   0 -18   0   71.32    8.41
  -1 -18   0    0.75    2.27
  -1 -18   0    2.26    2.02
  -2 -18   0   -1.18    2.15
   3  18   0   -1.62    1.76
   0   0  -1    0.04    0.08
   0   0   1    0.13    0.14
   0  -1  -1    1.64    0.40
   0   1  -1    1.68    0.27
  -1   0  -1    1.87    0.38
   1   0   1    2.04    0.48
   0  -1   1    2.46    0.34
  -1   0   1    1.74    0.21
   0   1   1    2.29    0.34
  -1   1  -1    1.25    0.33
  -1  -1  -1    1.29    0.42
   1  -1  -1    1.21    0.20
  -1   1   1    1.34    0.18
  -1  -1   1    1.12    0.18
  -1  -1   1    1.35    0.19
   1  -1   1    1.13    0.34
   2   1  -1   16.47    1.43
   1  -2  -1   16.49    1.51
   1  -2   1   15.52    1.60
   2   1   1   12.75    1.71
  -2  -1   1   17.82    1.45
  -1   2   1   14.24    1.47
   0  -2  -1    0.12    0.13
   2   0   1    0.08    0.17
   0  -2   1    0.06    0.08
   0   2   1    0.03    0.10
   2  -1  -1   17.71    1.51
   2  -1  -1   17.99    1.52
  -1  -2  -1   18.51    2.02
   2  -1   1   14.61    1.78
   1   2   1   18.15    1.76
  -1  -2   1   14.65    1.57
   2   2  -1  259.07   22.43
  -2   2  -1  245.74   22.59
   2  -2  -1  312.80   22.44
   2   2   1  245.77   22.69
  -2  -2   1  260.29   22.39
   2  -3  -1    2.68    0.45
   3   2  -1    3.61    0.48
  -2   3  -1    3.48    0.57
  -3  -2  -1    3.12    0.86
  -3  -2   1    3.47    0.49
  -2   3   1    2.54    0.44
   2  -3   1    2.84    0.54
   3   2   1    2.80    0.70
   1  -3  -1   93.78    7.00
  -3  -1  -1   88.06    7.42
   3   1   1   71.88    7.28
   1  -3   1   83.17    7.03
  -1   3   1   71.42    6.92
  -3  -1   1   70.88    6.91
   3   0  -1   30.04    2.82
   0  -3  -1   31.87    2.95
  -3   0  -1   30.44    3.19
   0  -3   1   28.37    2.94
   0  -3   1   31.83    2.91
   0   3   1   34.42    2.95
  -3   0   1   33.00    2.82
   3  -1  -1   97.64    7.77
  -3   1  -1   93.55    8.12
  -3   1   1   75.41    7.68
  -1  -3   1   91.44    7.83
   1   3   1  101.89    8.00
   3  -1   1   82.48    8.10
  -2  -3  -1    2.82    0.60
   3  -2  -1    3.00    0.42
   2   3  -1    2.93    0.49
   3  -2  -1    2.39    0.42
  -3   2  -1    3.14    0.62
  -2  -3   1    3.24    0.46
   3  -2   1    3.27    0.75
   2   3   1    3.45    0.76
   3  -3  -1   34.45    3.26
  -3  -3  -1   31.80    3.61
   3   3  -1   37.92    3.37
  -3   3  -1   40.11    3.58
   3   3   1   35.08    3.62
   3  -3   1   34.54    3.49
  -3  -3   1   37.68    3.32
   3  -4  -1   12.34    1.49
   4   3  -1   16.31    1.65
  -4  -3  -1   11.31    1.82
  -3   4  -1   16.71    1.78
  -4  -3   1   16.03    1.64
   4   3   1   14.53    1.89
   3  -4   1   17.03    1.77
  -4  -2  -1   11.30    1.75
  -2   4  -1   15.24    1.58
   4   2  -1   15.25    1.49
   2  -4   1   15.14    1.58
  -4  -2   1   12.30    1.48
   4   2   1   11.23    1.70
   4   1  -1  163.79   13.94
  -1   4   1  182.89   14.01
   1  -4   1  151.94   14.10
   1  -4   1  180.24   14.04
   4   1   1  130.41   14.26
  -4   0  -1   -0.02    0.18
  -4   0   1    0.07    0.17
   0   4   1   -0.05    0.10
   0  -4   1    0.05    0.14
   0  -4   1   -0.05    0.09
   4   0   1   -0.25    0.24
   4  -1  -1  153.09   13.53
  -4   1  -1  144.59   13.85
   1   4  -1  145.39   13.64
  -1  -4   1  163.86   13.58
   1   4   1  172.76   13.72
   4  -1   1  145.31   13.89
  -4   1   1  176.84   13.51
  -4   2  -1   13.51    1.77
   4  -2  -1   14.82    1.54
  -2  -4  -1   15.27    1.77
   2   4  -1   13.94    1.63
   2   4   1   17.83    1.83
  -2  -4   1   14.91    1.56
   4  -2   1   14.52    1.82
  -4   2   1   15.77    1.52
  -4   3  -1   14.43    1.82
   3   4  -1   15.03    1.68
  -3  -4  -1   14.59    1.84
   4  -3  -1   15.98    1.60
   4  -3   1   16.03    1.85
  -3  -4   1   14.79    1.60
   3   4   1   16.53    1.91
   4  -4  -1    1.25    0.38
  -4  -4  -1    1.29    0.46
   4  -4  -1    0.81    0.37
   4   4  -1    1.02    0.32
   4  -4   1    1.00    0.42
  -4  -4   1    1.60    0.46
   4   4   1    0.41    0.43
   5   4  -1    4.50    0.77
   4  -5  -1    3.91    0.65
  -4   5  -1    3.07    0.79
   4  -5  -1    2.98    0.76
  -5  -4  -1    5.04    1.33
   4  -5   1    3.73    0.77
  -5  -4   1    3.86    0.74
   3  -5  -1   -0.13    0.15
   3  -5  -1    0.40    0.17
  -5  -3  -1   -0.15    0.23
   5   3  -1    0.28    0.23
  -3   5  -1    0.34    0.23
  -5  -3   1   -0.04    0.15
   5   3   1    0.09    0.34
   3  -5   1    0.34    0.30
   2  -5  -1    0.42    0.24
  -5  -2  -1    0.59    0.44
   5   2  -1    1.06    0.41
   5   2   1    0.42    0.37
  -5  -2   1    0.08    0.26
   2  -5   1    0.40    0.24
  -2   5   1    0.17    0.23
   5   1  -1   43.89    4.16
   1  -5   1   51.38    4.21
   1  -5   1   45.03    4.28
   5   1   1   38.60    4.49
  -1   5   1   44.25    4.14
  -5  -1   1   40.40    4.19
  -5   0  -1  470.63   46.84
   0  -5   1  569.27   46.01
  -5   0   1  600.53   46.07
   0  -5   1  542.46   46.05
   5   0   1  517.12   46.44
   0   5   1  553.87   46.05
  -5   1  -1   36.79    4.66
  -1  -5  -1   41.37    4.04
   1   5  -1   36.67    4.03
   5  -1  -1   41.66    3.99
  -1  -5   1   46.44    4.01
   5  -1   1   46.27    4.43
  -5   1   1   39.67    3.92
   1   5   1   50.47    4.17
  -5   2  -1    0.47    0.34
   2   5  -1    0.25    0.26
   5  -2  -1    0.30    0.24
  -2  -5  -1    0.97    0.45
   5  -2   1    0.14    0.30
  -2  -5   1    0.28    0.24
   2   5   1    0.28    0.28
  -5   2   1    0.53    0.27
   3   5  -1    0.70    0.29
  -3  -5  -1    0.08    0.32
  -5   3  -1    0.37    0.24
   5  -3  -1    0.19    0.14
  -5   3   1   -0.03    0.14
  -3  -5   1    0.12    0.17
   5  -3   1   -0.20    0.21
   3   5   1    0.06    0.29
   4   5  -1    3.65    0.73
   5  -4  -1    3.69    0.66
  -4  -5  -1    4.02    1.08
  -5   4  -1    2.92    0.82
  -4  -5   1    4.59    0.72
   5  -4   1    4.39    1.01
   4   5   1    4.95    1.15
   5  -5  -1    0.04    0.24
  -5   5  -1   -0.03    0.21
   5  -5  -1    0.08    0.22
   5   5  -1    0.20    0.24
  -5  -5  -1   -0.16    0.30
   5  -5   1   -0.12    0.24
   5   5   1    0.24    0.45
  -5  -5   1    0.04    0.20
  -5   6  -1   25.94    2.74
   5  -6  -1   21.49    2.39
   5  -6  -1   22.05    2.60
  -6  -5  -1   20.68    2.80
   6   5  -1   25.17    2.66
  -6  -5   1   21.90    2.53
   5  -6   1   23.55    2.63
   6   5   1   21.67    2.80
   6   4  -1    1.71    0.63
  -6  -4  -1    1.33    0.62
  -4   6  -1    1.50    0.55
   4  -6  -1    1.83    0.57
   4  -6  -1    1.99    0.70
  -6  -4   1    0.75    0.41
   6   4   1    1.63    0.75
   4  -6   1    1.19    0.51
   6   3  -1   19.37    2.26
  -6  -3  -1   19.03    2.63
   3  -6  -1   23.81    2.21
   3  -6   1   19.28    2.25
  -6  -3   1   18.27    2.30
   6   3   1   21.65    2.64
  -6  -2  -1  422.05   35.90
   6   2  -1  467.85   35.43
   6   2   1  391.80   35.74
  -6  -2   1  365.37   35.36
   2  -6   1  436.33   35.32
   2  -6   1  407.45   35.49
  -2   6   1  405.98   35.27
   6   1  -1  141.91   12.01
  -6  -1  -1  119.47   12.30
   6   1   1  129.55   12.37
   1  -6   1  154.89   12.11
   1  -6   1  143.33   11.92
  -6  -1   1  121.00   11.97
   6   0  -1    0.19    0.29
   0  -6  -1    0.19    0.23
  -6   0  -1    0.38    0.28
   0  -6   1    0.36    0.26
  -6   0   1    0.23    0.23
   0   6   1    0.13    0.20
   6   0   1    0.43    0.39
  -6   1  -1  154.72   13.27
  -1  -6  -1  132.11   12.80
   1   6  -1  123.09   12.83
   6  -1  -1  144.15   12.85
  -6   1   1  146.37   12.81
  -1  -6   1  143.69   12.77
   1   6   1  167.57   12.99
   6  -1   1  161.93   13.36
   2   6  -1  451.35   37.62
   6  -2  -1  431.73   37.47
  -6   2  -1  393.92   37.77
   6  -2   1  434.66   37.86
  -2  -6   1  440.06   37.41
  -6   2   1  488.77   37.49
  -3  -6  -1   19.90    2.66
  -6   3  -1   19.25    2.49
   6  -3  -1   20.53    2.21
   3   6  -1   18.63    2.30
  -3  -6   1   19.48    2.17
   6  -3   1   23.26    2.58
  -6   3   1   21.05    2.22
   3   6   1   25.38    2.57
   6  -4  -1    1.01    0.37
  -6   4  -1    1.96    0.70
   4   6  -1    2.13    0.62
  -4  -6  -1    2.09    0.74
  -4  -6   1    1.39    0.51
  -6   4   1    1.36    0.47
   6  -4   1    1.43    0.62
  -6   5  -1   25.34    2.86
   6  -5  -1   21.75    2.48
   5   6  -1   24.70    2.71
  -5  -6  -1   25.09    2.92
   5   6   1   24.77    2.93
   6  -5   1   25.30    2.78
  -5  -6   1   21.23    2.51
  -6  -6  -1   91.73    9.43
   6  -6  -1  104.56    9.01
   6  -6  -1   82.51    9.12
  -6   6  -1  114.82    9.46
   6   6  -1  107.04    9.30
   6  -6   1   98.26    9.22
  -6  -6   1  106.31    9.14
   6   6   1   93.71    9.45
  -7  -6  -1    2.64    1.09
   7   6  -1    1.56    0.57
   6  -7  -1    0.90    0.64
   6  -7  -1    1.42    0.55
  -6   7  -1    1.96    0.78
  -7  -6   1    1.42    0.61
   6  -7   1    1.66    0.66
   7   6   1    1.36    0.88
  -5   7  -1    1.28    0.51
   5  -7  -1    1.35    0.52
  -7  -5  -1    1.26    0.71
   7   5  -1    0.61    0.51
  -7  -5   1    1.53    0.62
   5  -7   1    0.44    0.43
   7   5   1    1.31    0.68
   4  -7  -1    0.04    0.24
   7   4  -1    0.22    0.37
  -7  -4  -1    0.07    0.45
   4  -7   1    0.22    0.34
   7   4   1    0.10    0.42
   7   3  -1   80.24    7.32
  -7  -3   1   65.54    7.25
   3  -7   1   86.43    7.55
   7   3   1   83.71    7.73
   3  -7   1   73.91    7.28
   7   2  -1    6.66    1.04
   2  -7  -1    5.66    0.97
  -7  -2  -1    5.03    1.36
  -7  -2   1    4.35    1.15
   7   2   1    6.49    1.29
   2  -7   1    5.69    1.09
  -2   7   1    4.84    0.90
   2  -7   1    5.99    0.99
   7   1  -1   72.11    6.63
  -7  -1  -1   67.24    6.99
   1  -7  -1   65.24    6.43
  -7  -1   1   71.68    6.68
   1  -7   1   75.56    6.52
  -1   7   1   65.07    6.46
   1  -7   1   76.26    6.64
   7   1   1   63.76    6.90
   7   0  -1   11.29    1.64
  -7   0  -1   15.48    2.10
   0  -7  -1   14.45    1.67
   0  -7   1   11.50    1.58
  -7   0   1   14.28    1.76
   0   7   1   10.44    1.56
   7   0   1   13.17    1.99
   7  -1  -1   64.53    6.50
   1   7  -1   66.84    6.57
  -7   1  -1   80.50    7.05
   1   7   1   58.98    6.46
   7  -1   1   71.63    6.95
  -7   1   1   70.75    6.53
  -1  -7   1   76.97    6.48
   2   7  -1    5.77    0.99
  -2  -7  -1    7.04    1.11
  -7   2  -1    6.55    1.27
   7  -2  -1    4.13    0.89
   2   7   1    5.94    1.09
  -2  -7   1    6.29    0.94
   7  -2   1    6.33    1.19
  -7   2   1    6.09    1.02
  -3  -7  -1   83.57    7.29
   3   7  -1   74.84    7.21
   7  -3  -1   70.65    7.03
  -7   3  -1   62.47    7.30
   3   7   1   81.41    7.36
  -7   3   1   82.69    7.12
   7  -3   1   80.90    7.48
  -3  -7   1   78.52    7.02
  -4  -7  -1    0.28    0.40
   4   7  -1    0.29    0.35
   7  -4  -1    0.26    0.31
  -7   4  -1    0.56    0.40
   7  -4   1   -0.17    0.26
  -4  -7   1    0.17    0.25
  -7   4   1    0.26    0.35
   4   7   1   -0.55    0.32
  -5  -7  -1    1.03    0.55
  -7   5  -1    1.67    0.59
   5   7  -1    0.41    0.43
   7  -5  -1    0.77    0.45
  -5  -7   1    0.93    0.47
   5   7   1    1.17    0.72
  -7   5   1    0.94    0.50
   7  -5   1    0.55    0.47
  -6  -7  -1    1.41    0.68
   6   7  -1    1.05    0.60
  -7   6  -1    2.08    0.76
   7  -6  -1    1.50    0.54
   7  -6  -1    0.65    0.43
  -6  -7   1    1.19    0.54
   7  -6   1    1.11    0.61
   6   7   1    1.89    0.98
  -7  -7  -1   71.13    8.02
   7  -7  -1   72.48    7.52
   7  -7  -1   95.30    8.11
   7   7  -1   87.70    7.99
  -7   7  -1   79.61    7.95
  -7  -7   1   87.32    7.79
   7   7   1   87.26    8.27
   7  -7   1   77.98    7.81
  -8  -7  -1    9.07    1.96
   8   7  -1   11.62    1.83
  -7   8  -1   10.02    1.81
   7  -8  -1   13.10    1.62
   8   7   1   11.57    2.12
  -8  -7   1   12.65    1.84
   7  -8   1   11.30    1.80
   8   6  -1   50.16    4.96
   6  -8  -1   41.37    4.47
  -8  -6  -1   49.31    5.29
  -8  -6   1   41.94    4.74
   6  -8   1   46.42    4.79
   8   6   1   49.26    5.22
  -8  -5  -1    9.81    2.24
   5  -8  -1   11.07    1.37
   8   5  -1   11.05    1.60
   5  -8  -1    9.66    1.55
   5  -8   1    8.49    1.45
   8   5   1    8.25    1.68
  -8  -5   1    6.68    1.44
   5  -8   1    7.59    1.62
   4  -8  -1    8.74    1.19
   8   4  -1    7.02    1.31
   4  -8  -1    5.84    1.20
  -8  -4  -1    8.39    1.69
   8   4   1    8.06    1.87
  -8  -4   1    7.13    1.35
   4  -8   1    8.11    1.52
   4  -8   1    6.55    1.22
   3  -8  -1    4.65    1.13
   8   3  -1    5.11    1.39
  -8  -3  -1    3.66    1.24
   3  -8   1    4.80    0.95
   3  -8   1    4.11    1.13
   8   3   1    4.47    1.32
  -8  -3   1    5.77    1.38
   2  -8  -1   10.56    1.50
   8   2  -1   11.39    1.61
  -8  -2  -1   10.28    1.85
   2  -8   1   10.47    1.60
  -2   8   1    7.86    1.38
  -8  -2   1   10.80    1.69
   8   2   1   10.86    1.90
   2  -8   1   13.05    1.75
   8   1  -1   13.28    1.92
   1  -8  -1   18.12    1.98
  -8  -1  -1   16.36    2.38
   1  -8   1   14.94    1.88
  -8  -1   1   17.66    2.31
  -1   8   1   13.32    1.86
   8   1   1   12.72    2.15
   1  -8   1   13.99    1.91
   0  -8  -1    0.30    0.34
  -8   0  -1    1.14    0.66
   8   0  -1    0.28    0.30
   0   8   1   -0.02    0.24
  -8   0   1    0.50    0.61
   0  -8   1   -0.04    0.26
  -1  -8  -1   13.98    1.81
  -8   1  -1   16.34    2.26
   1   8  -1   11.90    1.83
   8  -1  -1   14.62    1.87
   1   8   1   13.69    1.88
  -8   1   1   15.22    1.99
   8  -1   1   12.70    2.10
  -1  -8   1   13.79    1.74
  -2  -8  -1   11.88    1.61
   8  -2  -1   11.39    1.58
   2   8  -1   11.43    1.68
  -8   2  -1   10.84    1.79
   8  -2   1    9.67    1.77
   2   8   1   10.87    1.63
  -8   2   1   10.11    1.53
  -2  -8   1   11.00    1.46
  -8   3  -1    2.87    1.01
   8  -3  -1    3.42    1.21
   3   8  -1    3.56    0.94
  -3  -8  -1    5.39    1.02
  -3  -8   1    4.27    0.79
   8  -3   1    5.46    1.30
   3   8   1    4.40    1.17
  -8   3   1    2.51    0.79
   4   8  -1    7.73    1.35
   8  -4  -1    6.94    1.15
  -4  -8  -1    8.09    1.38
  -8   4  -1    7.60    1.74
   8  -4   1    7.30    1.44
  -8   4   1    8.66    1.31
  -4  -8   1    6.71    1.11
   4   8   1    9.05    1.54
   5   8  -1   11.08    1.65
  -8   5  -1    8.41    1.66
  -5  -8  -1    9.37    1.64
   8  -5  -1    9.62    1.35
   5   8   1    9.66    1.74
  -5  -8   1    9.43    1.39
  -8   5   1    8.71    1.41
   8  -5   1    7.88    1.49
   6   8  -1   49.33    5.02
   8  -6  -1   41.17    4.63
  -8   6  -1   56.56    5.33
  -6  -8  -1   45.77    5.06
   6   8   1   43.67    5.12
   8  -6   1   45.92    4.96
  -6  -8   1   51.02    4.79
   8  -7  -1   11.09    1.60
   8  -7  -1    8.55    1.70
  -8   7  -1   12.79    1.95
  -7  -8  -1    9.58    2.28
   7   8  -1   13.79    1.88
  -7  -8   1    9.29    1.58
   8  -7   1   11.51    1.81
   7   8   1   11.41    2.01
  -8  -8  -1   -0.12    0.60
   8   8  -1    1.09    0.78
  -8   8  -1    0.22    0.59
   8  -8  -1    0.01    0.38
   8  -8   1    1.51    0.71
  -8  -8   1    1.37    0.46
   8   8   1    0.35    0.66
   8  -9  -1   -0.59    0.95
   8  -9  -1    1.07    0.66
   9   8  -1    0.86    0.78
  -9  -8  -1    1.45    1.10
   8  -9   1    1.23    0.71
   9   8   1    1.12    0.86
  -9  -8   1    0.32    0.68
   9   7  -1    3.98    1.28
   7  -9  -1    3.57    1.24
   7  -9  -1    2.18    0.79
  -9  -7  -1    3.78    1.46
   7  -9   1    3.27    1.01
  -9  -7   1    2.85    0.90
   9   7   1    0.72    0.99
  -9  -6  -1   84.57    8.77
   6  -9  -1   85.83    8.00
   9   6  -1   87.03    8.45
   6  -9  -1   98.20    8.50
   9   6   1  103.84    8.93
  -9  -6   1   71.77    8.17
   6  -9   1   86.73    8.23
   6  -9   1   72.28    8.41
  -9  -5  -1   21.28    3.02
   9   5  -1   18.43    2.55
   5  -9  -1   21.77    2.61
   5  -9  -1   21.31    2.34
   9   5   1   20.48    2.87
   5  -9   1   15.79    2.34
  -9  -5   1   16.13    2.47
   5  -9   1   19.55    2.76
   9   4  -1    2.81    0.98
  -9  -4  -1    3.00    1.25
   4  -9  -1    1.98    0.66
   4  -9  -1    3.72    0.73
   4  -9   1    1.57    0.75
   4  -9   1    3.45    1.15
  -9  -4   1    2.14    0.85
   9   4   1    3.31    1.18
  -9  -3  -1    2.93    1.32
   3  -9  -1    5.15    1.23
   9   3  -1    5.78    1.13
   3  -9   1    3.32    1.05
   3  -9   1    3.67    1.06
  -9  -3   1    2.19    1.09
   9   3   1    4.13    1.20
   9   2  -1    3.42    0.92
   2  -9  -1    1.85    0.77
  -9  -2  -1    2.68    1.23
   2  -9   1    2.47    0.93
  -9  -2   1    1.63    0.84
   9   2   1    3.25    0.87
  -2   9   1    1.32    0.58
   2  -9   1    2.33    0.86
   1  -9  -1    0.33    0.34
   9   1  -1    0.33    0.36
  -9  -1  -1   -0.28    0.50
   1  -9   1    0.22    0.43
  -9  -1   1    0.55    0.44
  -1   9   1    0.17    0.37
   9   1   1    1.27    0.65
   1  -9   1   -0.10    0.38
   0  -9  -1   27.21    3.23
   9   0  -1   22.87    2.91
   9   0   1   21.14    3.11
   0  -9   1   25.74    2.87
  -9   0   1   30.68    3.15
   0   9   1   22.41    2.86
  -9   1  -1    0.09    0.59
  -1  -9  -1   -0.02    0.37
   9  -1  -1    0.61    0.45
   1   9   1   -0.15    0.30
   9  -1   1    0.71    0.52
  -9   1   1    0.31    0.40
  -1  -9   1    0.36    0.39
   9  -2  -1    1.13    0.64
  -9   2  -1    2.57    1.16
   2   9  -1    2.09    0.76
  -2  -9  -1    1.19    0.62
   2   9   1    2.73    0.97
  -9   2   1    1.76    0.80
  -2  -9   1    2.38    0.85
   9  -2   1    3.54    1.03
  -3  -9  -1    3.64    1.06
  -9   3  -1    3.15    1.33
   9  -3  -1    1.92    0.74
   3   9  -1    3.13    1.00
  -3  -9   1    3.69    0.90
  -9   3   1    2.79    0.96
   9  -3   1    3.62    1.12
   3   9   1    3.30    1.05
  -9   4  -1    2.68    1.16
   4   9  -1    3.56    1.09
   9  -4  -1    2.83    0.87
  -4  -9  -1    3.70    1.06
   9  -4   1    3.56    1.18
  -4  -9   1    2.61    0.75
   4   9   1    2.90    1.06
  -9   4   1    3.71    1.11
   5   9  -1   17.84    2.48
  -9   5  -1   17.54    2.65
   9  -5  -1   17.07    2.25
  -5  -9  -1   19.10    2.49
   5   9   1   19.35    2.64
  -5  -9   1   20.13    2.25
   9  -5   1   19.50    2.59
  -9   5   1   14.69    2.23
   9  -6  -1   80.76    7.28
   6   9  -1   81.51    7.63
  -6  -9  -1   78.93    7.60
  -9   6  -1   67.05    7.58
   9  -6   1   78.58    7.58
  -6  -9   1   76.96    7.22
   6   9   1   78.66    7.76
  -9   6   1   65.84    7.21
  -7  -9  -1    2.95    1.21
   9  -7  -1    3.03    0.92
   7   9  -1    3.80    0.98
  -9   7  -1    2.55    1.28
  -7  -9   1    4.21    0.80
   7   9   1    1.68    1.16
   9  -7   1    2.66    0.97
   8   9  -1    2.69    1.04
   9  -8  -1    1.03    0.80
  -9   8  -1    1.31    0.81
  -8  -9  -1    1.13    0.99
  -8  -9   1    2.83    0.86
   8   9   1    2.38    0.95
   9  -8   1    0.87    0.78
   9   9  -1   -0.30    0.68
   9  -9  -1    1.98    0.87
  -9   9  -1    1.02    0.93
  -9  -9  -1    0.17    0.84
   9   9   1    1.02    1.04
   9  -9   1    1.08    0.87
  10   9  -1    1.88    1.62
 -10  -9  -1    2.82    1.31
   9 -10  -1    3.38    1.36
   9 -10  -1    2.47    1.09
 -10  -9   1    0.80    0.74
   9 -10   1    1.37    0.97
  10   9   1    1.23    1.16
   8 -10  -1    0.19    0.62
   8 -10  -1    0.22    0.71
  10   8  -1   -0.33    0.65
 -10  -8  -1    0.31    1.01
   8 -10   1    1.06    0.73
  10   8   1    0.91    0.96
   8 -10   1    0.22    0.82
 -10  -8   1    0.20    0.73
   7 -10  -1   23.27    2.88
 -10  -7  -1   24.16    3.47
   7 -10  -1   28.77    3.40
  10   7  -1   24.49    3.33
   7 -10   1   25.97    3.11
 -10  -7   1   19.53    3.01
  10   7   1   28.03    4.35
   7 -10   1   24.06    3.40
   6 -10  -1    0.57    0.61
 -10  -6  -1   -0.20    0.76
  10   6  -1    1.14    0.85
   6 -10  -1    1.14    0.61
  10   6   1    0.61    1.02
 -10  -6   1    0.52    0.54
   6 -10   1    0.79    0.64
   6 -10   1    1.32    1.05
  10   5  -1   16.98    2.65
 -10  -5  -1   18.38    2.98
   5 -10  -1   16.38    2.22
   5 -10   1   18.83    2.45
 -10  -5   1   21.25    2.63
  10   5   1   20.14    2.89
   5 -10   1   18.09    2.73
 -10  -4  -1   51.48    6.13
   4 -10  -1   46.41    5.30
   4 -10  -1   49.45    5.54
  10   4  -1   56.30    5.79
   4 -10   1   65.02    6.03
  10   4   1   59.95    6.15
   4 -10   1   61.35    5.66
 -10  -4   1   49.53    5.72
   3 -10  -1   15.41    1.89
   3 -10  -1   12.29    1.91
 -10  -3  -1   13.64    2.45
  10   3  -1   15.19    2.17
   3 -10   1   12.62    1.91
  10   3   1   12.35    2.24
 -10  -3   1   10.82    2.06
   3 -10   1   13.94    2.14
   2 -10  -1   17.38    2.22
  10   2  -1   15.71    2.32
 -10  -2  -1   15.09    2.68
   2 -10   1   16.21    2.30
 -10  -2   1   16.94    2.46
   2 -10   1   19.78    2.33
  10   2   1   13.46    2.45
   1 -10  -1   25.60    3.06
 -10  -1  -1   27.88    3.64
  10   1  -1   25.44    3.07
  10   1   1   26.06    3.47
   1 -10   1   26.21    3.04
   1 -10   1   24.08    2.94
  -1  10   1   21.06    2.90
  10   0  -1    0.47    0.48
 -10   0  -1   -0.50    0.60
   0 -10  -1   -0.21    0.51
 -10   0   1    0.35    0.61
   0 -10   1    0.00    0.59
   0  10   1    0.00    0.35
  10   0   1   -0.26    0.59
 -10   1  -1   31.27    3.66
  -1 -10  -1   26.38    2.99
  10  -1  -1   23.30    2.96
   1  10  -1   20.11    2.95
  10  -1   1   22.36    3.25
  -1 -10   1   22.83    2.81
 -10   1   1   27.31    3.18
   1  10   1   28.26    3.18
  10  -2  -1   12.73    2.00
   2  10  -1   11.30    2.22
 -10   2  -1   17.25    2.58
  -2 -10  -1   14.62    2.04
 -10   2   1   14.44    2.15
  -2 -10   1   15.24    1.95
  10  -2   1   15.47    2.38
  10  -3  -1   12.69    1.91
  -3 -10  -1   13.26    1.95
 -10   3  -1   14.65    2.39
   3  10  -1   15.62    2.00
 -10   3   1   11.60    1.95
  -3 -10   1   12.56    1.78
   3  10   1   12.04    2.04
  10  -3   1   11.57    2.05
   4  10  -1   49.94    5.43
  -4 -10  -1   49.67    5.25
  10  -4  -1   48.96    5.22
 -10   4  -1   50.85    5.69
 -10   4   1   48.37    5.25
   4  10   1   60.39    5.74
  10  -4   1   46.70    5.48
  -4 -10   1   54.55    5.12
   5  10  -1   17.77    2.53
  -5 -10  -1   19.51    2.55
  10  -5  -1   18.19    2.30
  10  -5   1   14.77    2.47
 -10   5   1   17.77    2.39
   5  10   1   18.58    2.68
  -5 -10   1   14.83    2.13
 -10   6  -1    2.42    1.30
  10  -6  -1    0.05    0.54
  -6 -10  -1    2.65    1.17
   6  10  -1    0.39    0.63
   6  10   1    0.14    0.71
  -6 -10   1    0.98    0.60
  10  -6   1    0.77    0.61
 -10   6   1    1.21    0.66
   7  10  -1   24.25    3.34
  10  -7  -1   23.84    2.92
 -10   7  -1   21.83    3.26
  -7 -10  -1   22.99    3.18
  -7 -10   1   26.13    2.95
   7  10   1   26.04    3.46
  10  -7   1   22.86    3.07
 -10   8  -1   -0.36    0.75
   8  10  -1    0.45    0.64
  -8 -10  -1    0.83    0.85
  10  -8  -1    1.51    0.75
  10  -8  -1   -0.09    0.45
  10  -8   1    0.61    0.76
  -8 -10   1    0.28    0.52
   8  10   1    0.70    0.82
 -10   9  -1   -0.19    1.02
  -9 -10  -1    0.92    1.11
   9  10  -1    0.01    0.76
  10  -9  -1    1.96    0.75
  10  -9   1    2.59    0.88
   9  10   1    0.80    1.11
  -9 -10   1    1.61    0.71
  10 -10  -1    1.97    1.01
 -10 -10  -1    1.54    1.21
  10 -10  -1    1.57    1.13
  10  10  -1    0.47    1.14
  10 -10   1    3.49    1.13
  10  10   1    0.39    1.08
 -10 -10   1    3.93    1.14
  10 -11  -1    2.04    1.80
  10 -11  -1    3.71    1.51
  11  10  -1    5.08    2.50
 -11 -10  -1    4.25    1.63
  10 -11   1    4.68    1.85
  11  10   1    6.75    1.78
   9 -11  -1    0.85    0.78
   9 -11  -1    0.96    1.16
   9 -11   1    2.04    1.10
   9 -11   1    0.14    0.90
  11   9   1    2.45    1.06
   8 -11  -1    6.54    1.90
  11   8  -1    6.16    1.73
 -11  -8  -1    2.23    1.55
   8 -11   1    5.18    1.33
 -11  -8   1    8.56    1.36
  11   7  -1  237.00   21.59
   7 -11  -1  238.93   20.97
   7 -11  -1  255.78   21.50
 -11  -7  -1  214.71   21.67
   7 -11   1  241.15   23.16
 -11  -7   1  229.56   21.32
  11   7   1  248.97   21.80
   7 -11   1  228.45   21.98
 -11  -6  -1    8.75    2.29
   6 -11  -1    5.80    1.49
   6 -11  -1    6.76    1.32
  11   6  -1    8.79    2.13
   6 -11   1    8.52    1.56
  11   6   1    8.70    2.11
   5 -11  -1    0.36    0.74
 -11  -5  -1    0.39    0.94
   5 -11  -1    0.75    0.56
  11   5  -1    1.61    0.86
   5 -11   1    1.11    0.79
  11   5   1   -0.34    0.72
 -11  -5   1   -0.52    0.58
   4 -11  -1   32.13    3.58
   4 -11  -1   26.74    3.29
 -11  -4  -1   34.13    4.31
  11   4  -1   32.75    3.82
   4 -11   1   29.14    3.48
   4 -11   1   32.82    4.62
 -11  -4   1   24.59    3.59
   3 -11  -1  268.27   26.19
   3 -11  -1  275.53   25.18
  11   3  -1  330.67   25.75
 -11  -3  -1  277.81   26.05
   3 -11   1  305.76   25.39
 -11  -3   1  277.36   25.60
  11   3   1  314.57   26.06
   3 -11   1  257.28   25.61
 -11  -2  -1    2.25    1.29
  11   2  -1    0.11    0.68
   2 -11  -1    2.06    0.86
 -11  -2   1    0.07    0.73
   2 -11   1    0.67    0.62
  11   2   1   -0.46    0.68
   2 -11   1   -0.31    0.53
  11   1  -1   43.13    4.62
 -11  -1  -1   41.90    5.38
   1 -11  -1   42.86    4.43
 -11  -1   1   39.22    4.59
  11   1   1   33.08    4.68
   1 -11   1   40.92    4.44
   1 -11   1   40.81    4.38
 -11   0  -1    3.26    1.57
  11   0  -1    3.02    1.10
   0 -11  -1    3.38    0.99
 -11   0   1    2.53    1.03
  11   0   1    0.69    0.85
   0 -11   1    2.33    0.90
   0 -11   1    2.39    0.87
   0  11   1    1.45    0.79
  -1 -11  -1   37.61    3.94
   1  11  -1   31.62    4.01
  11  -1  -1   36.02    4.05
  -1 -11   1   39.20    3.90
  11  -1   1   33.74    4.32
   1  11   1   29.15    3.91
   2  11  -1    0.57    0.62
  -2 -11  -1    0.90    0.59
 -11   2  -1   -0.36    0.83
  11  -2  -1    0.34    0.63
   2  11   1    1.41    0.66
 -11   2   1    0.28    0.76
  -2 -11   1    1.30    0.59
  11  -2   1    0.21    0.85
  11  -3  -1  227.29   21.80
   3  11  -1  265.77   22.24
  -3 -11  -1  229.60   21.75
 -11   3  -1  274.82   22.61
 -11   3   1  232.56   21.89
   3  11   1  251.38   22.17
  -3 -11   1  267.24   21.71
  11  -3   1  228.06   22.37
 -11   4  -1   31.34    3.98
   4  11  -1   29.57    3.66
  -4 -11  -1   28.37    3.43
  11  -4  -1   23.36    3.29
  -4 -11   1   30.12    3.29
   4  11   1   26.12    3.62
 -11   4   1   30.04    3.57
  11  -4   1   33.28    4.03
 -11   5  -1    0.50    0.88
  11  -5  -1    1.79    0.75
  -5 -11  -1    0.02    0.69
   5  11  -1    1.79    0.84
 -11   5   1    1.88    0.82
   5  11   1   -0.04    0.57
  -5 -11   1    1.04    0.60
  11  -5   1    0.83    0.83
   6  11  -1    4.87    1.45
  -6 -11  -1    6.86    1.89
 -11   6  -1    6.42    1.89
  11  -6  -1    7.25    1.41
   6  11   1    5.23    1.65
  -6 -11   1    8.20    1.35
 -11   6   1    5.40    1.54
  11  -6   1    7.54    1.84
  11  -7  -1  237.63   21.16
 -11   7  -1  234.44   21.40
  -7 -11  -1  241.35   21.27
   7  11  -1  239.12   21.40
  11  -7   1  224.04   21.05
   7  11   1  239.41   21.50
  -7 -11   1  222.39   20.64
   8  11  -1    3.18    1.34
  -8 -11  -1    5.21    1.46
 -11   8  -1    3.10    1.28
  11  -8  -1    4.63    1.17
  -8 -11   1    5.09    1.40
  11  -8   1    2.18    0.88
   8  11   1    4.53    1.50
 -11   9  -1    0.14    1.04
   9  11  -1   -0.11    0.81
  -9 -11  -1   -1.15    0.86
  11  -9  -1    0.75    0.80
  11  -9   1    1.01    0.80
   9  11   1   -1.09    0.94
  -9 -11   1    0.33    0.61
 -10 -11  -1    7.22    2.05
  10  11  -1    0.91    1.35
  10  11   1    3.76    1.33
  11 -10   1    3.49    1.31
 -11 -11  -1  119.79   12.55
  11  11   1  125.97   12.89
  11 -11   1  129.99   12.90
  11 -11   1  130.53   12.32
  11 -12  -1   -1.68    1.74
 -12 -11  -1    3.69    1.67
  11 -12   1    0.94    1.81
  11 -12   1    3.16    1.67
  12  11   1    3.03    1.99
  10 -12  -1    1.54    1.45
 -12 -10  -1    1.17    1.43
  12  10   1   -1.53    1.37
  10 -12   1    2.67    1.27
  10 -12   1    0.60    1.55
 -12  -9  -1    3.86    1.49
   9 -12  -1    3.04    1.33
  12   9   1    1.94    1.57
   9 -12   1    3.80    1.33
  12   8  -1    3.38    1.25
 -12  -8  -1    5.48    1.65
   8 -12  -1    2.50    1.45
   8 -12  -1    1.58    0.87
   8 -12   1    2.19    1.17
   8 -12   1    2.25    1.33
  12   8   1    2.21    1.29
   7 -12  -1   21.73    3.09
   7 -12  -1   24.84    3.34
  12   7  -1   19.41    3.13
 -12  -7  -1   19.30    3.31
   7 -12   1   17.57    3.13
  12   7   1   24.18    3.46
   7 -12   1   20.04    2.94
 -12  -7   1   19.90    2.93
   6 -12  -1   29.45    3.54
 -12  -6  -1   26.13    4.19
   6 -12  -1   22.48    3.61
  12   6  -1   31.47    4.00
   6 -12   1   35.64    4.15
 -12  -6   1   33.68    3.89
  12   6   1   39.55    4.43
  12   5  -1   14.59    2.73
   5 -12  -1   15.68    2.20
  12   5   1   18.68    2.65
   5 -12   1   14.23    2.74
 -12  -5   1   20.43    2.53
   5 -12   1   16.12    2.47
 -12  -4  -1    2.72    1.67
  12   4  -1    3.91    1.37
   4 -12  -1    2.86    0.95
   4 -12  -1    2.61    0.92
   4 -12   1    3.74    1.66
   4 -12   1    5.16    1.45
  12   4   1    4.98    1.54
   3 -12  -1    2.58    0.93
 -12  -3  -1    3.08    1.61
  12   3  -1    4.49    1.51
   3 -12  -1    3.56    1.25
  12   3   1    5.52    1.59
   3 -12   1    4.60    1.39
   3 -12   1    4.69    1.29
 -12  -3   1    4.29    1.37
 -12  -2  -1   33.04    4.48
  12   2  -1   33.79    3.98
  12   2   1   40.38    4.53
 -12  -2   1   33.46    4.00
   2 -12   1   29.80    3.75
   2 -12   1   26.69    3.75
   1 -12  -1    2.42    1.02
 -12  -1  -1    3.23    1.44
  12   1  -1    0.89    0.82
   1 -12   1    2.36    0.97
 -12  -1   1    4.67    1.25
  12   1   1    3.44    1.35
   1 -12   1    3.09    1.21
  -1  12   1    2.89    1.03
   0 -12  -1    0.95    0.62
  12   0  -1    0.88    0.76
 -12   0  -1   -0.93    0.80
   0 -12   1    0.01    0.61
 -12   0   1    1.49    0.82
  12   0   1    1.96    0.79
 -12   1  -1    3.47    1.60
  -1 -12  -1    2.14    0.96
  12  -1  -1    1.08    0.85
 -12   1   1    3.18    1.22
   1  12   1    3.93    1.40
  12  -1   1    4.50    1.38
  -1 -12   1    1.88    0.94
  12  -2  -1   25.97    3.38
  -2 -12  -1   26.41    3.26
   2  12  -1   22.76    3.39
  12  -2   1   28.91    3.78
 -12   2   1   34.16    3.70
   2  12   1   27.07    3.58
  -2 -12   1   26.06    3.19
  -3 -12  -1    3.51    1.21
  12  -3  -1    3.18    1.18
   3  12  -1    2.17    1.15
 -12   3  -1    2.97    1.53
  12  -3   1    3.90    1.30
   3  12   1    1.84    0.93
 -12   3   1    4.88    1.50
   4  12  -1    0.68    0.85
 -12   4  -1    4.85    1.76
  -4 -12  -1    2.53    1.01
  12  -4  -1    3.58    1.21
  12  -4   1    2.38    1.09
 -12   4   1    1.43    1.32
   4  12   1    4.58    1.36
  -5 -12  -1   12.88    2.12
  12  -5  -1   13.42    2.57
   5  12  -1   10.44    2.17
 -12   5  -1    8.56    2.15
   5  12   1   11.14    2.27
  12  -5   1   12.98    2.14
  -5 -12   1   13.74    1.84
 -12   5   1   15.51    2.09
   6  12  -1   25.19    3.70
 -12   6  -1   31.32    4.09
  -6 -12  -1   28.88    4.01
  12  -6  -1   21.80    3.15
 -12   6   1   32.29    3.47
  -6 -12   1   27.44    3.16
  12  -6   1   25.07    3.50
   6  12   1   26.18    3.82
  12  -7  -1   16.85    2.48
  -7 -12  -1   18.99    2.80
 -12   7  -1   18.10    3.05
   7  12  -1   18.61    3.43
  12  -7   1   18.39    2.77
 -12   7   1   15.23    2.67
   7  12   1   19.87    3.14
  -7 -12   1   17.86    2.39
  12  -8  -1    1.76    0.82
 -12   8  -1    2.19    1.52
  -8 -12  -1    2.61    1.10
   8  12  -1    3.47    1.54
   8  12   1    2.11    1.27
  -8 -12   1    1.33    0.92
  12  -8   1    2.16    1.28
  12  -9  -1    0.15    0.80
  -9 -12  -1    2.63    1.23
   9  12  -1    0.32    1.50
 -12   9  -1    1.34    1.34
  12  -9   1    1.31    1.13
   9  12   1   -0.02    1.31
 -10 -12  -1    1.45    1.51
  10  12   1   -1.05    1.09
 -11 -12  -1    4.91    1.76
  12 -11  -1   -2.77    1.44
  12 -11   1   -0.63    1.27
  11  12   1    1.87    1.91
  12 -11   1    0.40    1.67
 -12 -12  -1   -0.62    1.81
  12  12   1    0.39    1.81
  12 -12   1    1.22    1.44
  11 -13   1    9.48    2.53
  11 -13   1   12.15    3.36
  13  11   1   11.37    3.17
 -13 -10  -1    2.92    1.99
  10 -13  -1   -1.69    1.60
  10 -13   1    0.97    1.97
  13  10   1    2.73    1.99
  10 -13   1    1.40    1.98
   9 -13  -1    8.87    2.63
 -13  -9  -1    8.19    2.28
   9 -13   1    3.80    1.61
  13   9   1    4.87    3.28
   9 -13   1    4.23    2.17
 -13  -8  -1    4.49    1.81
   8 -13  -1    8.29    2.14
   8 -13   1    2.03    1.94
  13   8   1    5.38    1.69
   8 -13   1    3.51    1.37
   7 -13  -1   -1.13    1.02
 -13  -7  -1   -1.27    1.17
   7 -13  -1    0.63    0.73
  13   7   1   -0.17    1.12
   7 -13   1    0.03    0.85
   7 -13   1   -1.72    1.31
 -13  -6  -1    6.83    2.21
   6 -13  -1    7.81    1.80
   6 -13  -1   10.31    2.46
  13   6  -1   11.08    2.45
   6 -13   1   12.51    2.25
  13   6   1   14.05    2.60
   6 -13   1    9.78    1.99
  13   5  -1    1.77    1.00
   5 -13  -1    1.00    0.95
   5 -13  -1   -0.90    0.89
 -13  -5  -1    0.89    0.94
   5 -13   1   -0.32    1.05
   5 -13   1   -0.08    1.35
  13   5   1    1.50    1.17
 -13  -5   1    0.42    0.77
   4 -13  -1    2.67    1.06
  13   4  -1    3.16    1.25
   4 -13  -1    2.92    0.87
   4 -13   1    1.90    1.46
  13   4   1    3.31    1.27
   4 -13   1    2.32    1.17
   3 -13  -1    0.66    0.77
  13   3  -1    2.31    0.85
   3 -13  -1    0.19    0.63
   3 -13   1    0.25    0.75
   3 -13   1   -1.10    0.66
   2 -13  -1    3.39    1.14
  13   2  -1    3.70    1.18
 -13  -2  -1    4.15    1.61
   2 -13   1    4.00    1.30
   2 -13   1    2.50    1.06
  13   2   1    3.81    1.45
  13   1  -1    3.95    1.95
   1 -13  -1    4.68    1.36
  13   1   1    3.98    1.34
  -1  13   1    1.80    0.86
 -13  -1   1    5.95    1.68
   1 -13   1    3.26    1.22
   1 -13   1    2.17    1.11
   0 -13  -1    5.16    1.36
 -13   0  -1    6.18    2.43
   0 -13   1    3.45    1.18
  13   0   1    6.06    1.65
   0  13   1    2.16    1.01
   0 -13   1    4.39    1.26
 -13   0   1    7.33    1.69
 -13   1  -1    2.01    1.47
  13  -1  -1    2.70    1.28
  -1 -13  -1    3.07    0.89
   1  13   1    3.14    1.08
  -1 -13   1    2.53    0.95
  13  -1   1    4.08    1.39
 -13   1   1    4.33    1.35
   2  13  -1    2.25    1.10
 -13   2  -1    7.63    2.19
  -2 -13  -1    1.53    1.02
  13  -2  -1    2.60    0.98
 -13   2   1    3.80    1.20
   2  13   1    2.55    1.08
  -2 -13   1    3.41    1.02
  13  -2   1    3.65    1.33
 -13   3  -1   -0.30    1.05
   3  13  -1   -0.30    0.66
  13  -3  -1    0.40    0.52
  -3 -13  -1    0.00    0.71
 -13   3   1    2.37    0.86
  13  -3   1    2.45    0.99
   3  13   1   -0.10    0.91
  -3 -13   1    1.76    0.73
   4  13  -1    1.32    0.98
  -4 -13  -1    2.65    1.10
 -13   4  -1    6.42    1.76
  13  -4  -1    2.66    0.91
  13  -4   1    3.90    1.36
   4  13   1    3.65    1.53
  -4 -13   1    1.66    0.87
 -13   4   1    4.48    1.26
  -5 -13  -1    1.77    0.89
 -13   5  -1    1.96    1.10
  13  -5  -1    3.10    0.93
   5  13   1    0.08    1.07
  -5 -13   1    1.61    0.83
  13  -5   1    4.23    1.10
  -6 -13  -1   10.10    2.06
   6  13  -1   10.01    2.79
  13  -6  -1    6.74    1.77
 -13   6  -1   14.65    3.33
  13  -6   1    7.04    2.04
  -6 -13   1   10.05    1.76
 -13   7  -1    2.55    1.14
  -7 -13  -1    0.58    0.93
   7  13  -1   -0.24    1.17
  13  -7   1    3.70    1.29
   7  13   1    0.81    1.28
  -7 -13   1    1.19    0.85
 -13   8  -1    4.80    1.89
  -8 -13  -1    6.05    1.83
   8  13  -1    3.96    1.87
  13  -9  -1    0.24    1.31
 -13   9  -1    5.48    1.54
  -9 -13  -1    3.29    1.65
  13  -9   1    6.34    1.76
 -13  10  -1    4.45    1.62
  13 -10   1    3.93    1.42
  10  13   1    2.23    1.95
 -11 -13  -1    6.25    2.28
  11  13   1    9.40    3.00
  10 -14   1    1.20    2.17
  10 -14   1    3.08    2.77
 -14  -9  -1   -2.26    2.55
  14   9   1    2.55    2.05
   9 -14   1    3.39    2.43
   9 -14   1    2.54    1.72
   8 -14  -1   -0.81    1.64
 -14  -8  -1    2.93    1.78
   8 -14   1    1.89    1.59
  14   8   1   -0.06    1.67
   8 -14   1   -0.85    1.80
   7 -14  -1   -0.34    1.41
 -14  -7  -1    1.47    1.65
  14   7   1   -0.23    1.85
   7 -14   1    3.15    1.49
   7 -14   1    4.47    1.67
   6 -14  -1    1.77    1.20
   6 -14  -1   -0.58    1.08
 -14  -6  -1    1.89    1.60
  14   6   1    4.46    1.39
   6 -14   1    0.66    1.37
   6 -14   1    4.78    1.31
   5 -14  -1    0.01    1.24
 -14  -5  -1    3.35    1.39
   5 -14  -1    1.42    0.84
  14   5   1    0.88    1.05
   5 -14   1    1.09    1.29
   5 -14   1    1.24    1.09
   4 -14  -1    2.33    1.04
   4 -14  -1    0.04    1.15
   4 -14   1   -0.33    0.91
  14   4   1    0.17    1.07
   4 -14   1   -0.72    1.08
   3 -14  -1    1.00    1.16
   3 -14  -1    1.85    1.06
 -14  -3  -1    4.24    1.84
  14   3  -1    0.75    1.21
  14   3   1    3.11    1.30
   3 -14   1    3.20    1.16
   3 -14   1    3.57    1.14
  14   2  -1   11.08    2.05
   2 -14  -1   10.79    2.49
 -14  -2  -1   13.45    2.44
  14   2   1    9.93    2.50
   2 -14   1   11.25    1.94
   2 -14   1   11.68    2.09
   1 -14  -1   34.79    4.54
  14   1  -1   43.07    4.63
 -14  -1  -1   51.44    5.58
   1 -14   1   33.77    4.48
 -14  -1   1   42.90    5.49
  14   1   1   35.68    4.88
   1 -14   1   41.20    4.60
   0 -14  -1   -0.13    0.86
 -14   0  -1    2.36    1.32
  14   0   1    1.43    1.05
   0  14   1    1.46    0.53
   0 -14   1    3.37    0.84
 -14   0   1    0.47    0.87
   0 -14   1   -0.03    0.77
  -1 -14  -1   33.53    4.08
  14  -1  -1   36.79    4.07
  14  -1   1   35.18    4.55
   1  14   1   27.50    4.12
  -1 -14   1   33.91    3.94
 -14   2  -1   15.58    2.47
  14  -2  -1    8.50    1.74
  -2 -14  -1    9.68    2.29
  14  -2   1   10.40    2.17
  -2 -14   1   10.64    1.81
   2  14   1   10.19    1.92
  -3 -14  -1    4.64    1.11
   3  14  -1    0.95    0.94
 -14   3  -1    2.81    1.22
  14  -3  -1    3.54    1.35
  -3 -14   1    3.04    1.04
  14  -3   1    2.07    1.29
   4  14  -1    0.03    0.95
  -4 -14  -1   -0.81    0.94
 -14   4  -1    3.18    1.61
  -4 -14   1   -0.39    0.67
  14  -4   1    2.21    1.45
   4  14   1   -0.96    0.93
  -5 -14  -1    0.28    1.01
   5  14  -1    2.53    0.91
 -14   5  -1    4.89    1.90
  14  -5   1    0.09    1.04
   5  14   1   -0.22    0.94
  -5 -14   1    0.66    0.84
   6  14   1    3.83    1.32
  -6 -14   1    1.96    0.95
  14  -6   1    0.18    1.36
  -7 -14  -1    2.35    1.16
 -14   7  -1   -0.10    1.28
  14  -7   1    2.59    1.28
  -8 -14  -1    0.26    1.11
 -14   8  -1    3.73    1.58
   8  14   1    0.68    1.53
  14  -8   1    2.06    1.70
  -9 -14  -1    1.12    2.09
   9  14   1   -0.07    1.66
  14  -9   1    2.67    1.89
 -10 -14  -1   16.15    3.06
   9 -15   1   15.10    4.40
   9 -15   1   14.50    3.14
   8 -15   1    9.53    2.89
   7 -15   1   40.42    5.34
   7 -15   1   50.97    5.90
  15   7   1   38.94    5.65
 -15  -6  -1   23.98    3.70
   6 -15  -1   13.20    3.53
   6 -15   1   18.64    3.53
  15   6   1   19.66    3.79
   6 -15   1   21.00    3.06
 -15  -5  -1    5.39    1.57
   5 -15  -1    2.59    1.67
  15   5   1    0.20    1.44
   5 -15   1    3.74    1.29
   5 -15   1   -0.58    1.71
 -15  -4  -1   17.84    3.31
   4 -15  -1   13.48    2.65
   4 -15  -1   14.79    2.34
   4 -15   1   19.02    2.66
   4 -15   1   11.08    2.77
   3 -15  -1   12.11    2.46
   3 -15  -1   13.66    2.66
   3 -15   1   13.91    2.72
  15   3   1   23.62    4.62
   3 -15   1   17.08    2.47
   2 -15  -1    1.19    1.15
   2 -15   1    1.60    1.48
  15   2   1    0.09    1.65
   1 -15  -1   -0.33    1.40
 -15  -1  -1    4.43    1.97
   1 -15   1    0.51    0.97
  15   1   1    0.23    1.42
   1 -15   1    3.34    1.36
 -15   0  -1    1.20    1.71
   0 -15  -1   -0.22    1.21
  15   0   1   -1.69    1.21
   0  15   1    0.51    0.69
   0 -15   1    2.69    0.98
   0 -15   1    2.33    1.13
 -15   1  -1    4.04    1.60
  -1 -15  -1    1.25    1.17
   1  15   1    1.87    1.05
  15  -1   1    0.18    1.54
  -1 -15   1    1.75    1.42
 -15   2  -1    6.15    1.51
  15  -2   1    2.88    2.32
  -3 -15  -1   16.69    2.71
   3  15  -1    6.68    2.01
  -3 -15   1   11.20    1.94
   4  15  -1    8.43    2.42
  -4 -15  -1    6.15    1.83
  -4 -15   1    9.57    1.81
   5  15  -1    0.78    1.60
  -5 -15  -1    0.13    1.38
 -15   5  -1   -1.06    1.63
   5  15   1    3.44    1.38
  -6 -15  -1    9.66    2.34
  15  -6   1   15.07    2.80
   6  15   1   11.24    2.70
  -7 -15  -1   30.89    4.15
   7  15   1   24.52    4.65
  -8 -15  -1    9.67    4.20
   8  15   1    1.30    2.09
  -9 -15  -1   21.31    3.74
   8 -16   1   34.39    5.04
   7 -16   1   -1.35    4.07
   7 -16   1    0.28    1.76
   6 -16   1   61.71    7.20
   6 -16   1   60.30    9.06
   5 -16   1    2.95    2.91
   5 -16   1    3.04    1.65
   4 -16  -1   -1.03    1.86
   4 -16   1    0.39    1.67
   4 -16   1    1.75    2.58
   3 -16  -1    1.75    1.89
   3 -16   1    1.32    1.51
   3 -16   1    7.13    2.50
  16   3   1    1.20    1.44
   2 -16  -1  201.73   17.96
   2 -16  -1  165.80   17.28
   2 -16   1  176.52   17.44
   2 -16   1  187.48   17.81
  16   2   1  205.65   18.09
 -16  -1  -1    4.08    2.07
   1 -16   1    3.30    1.53
   1 -16   1    1.32    1.41
  16   1   1    2.85    1.38
   0 -16  -1    0.16    1.31
 -16   0  -1    3.88    1.77
   0 -16   1    0.28    1.14
  16   0   1    2.36    1.42
 -16   1  -1    2.23    2.22
  -1 -16  -1    0.20    1.36
   1  16   1    0.54    0.98
  16  -1   1   -0.03    1.28
  -1 -16   1    2.13    1.60
  -2 -16  -1  192.42   15.56
  -2 -16   1  167.93   15.08
  16  -2   1  152.81   15.58
   2  16   1  129.96   15.44
  -3 -16  -1    3.16    1.71
  16  -3   1    0.02    1.64
   3  16   1    3.90    1.90
  -4 -16  -1    0.63    1.36
   4  16   1    0.30    1.49
  -5 -16  -1   -1.74    1.42
  -6 -16  -1   59.47    6.22
   6  16   1   38.22    6.35
  -7 -16  -1    2.87    2.33
   7  16   1    2.65    1.97
  -8 -16  -1   33.59    5.38
   8  16   1   38.01    5.71
   6 -17   1    2.10    3.82
   5 -17   1   12.97    3.29
   5 -17   1    1.16    2.68
   4 -17   1    6.17    2.35
   4 -17   1   -1.85    1.83
   3 -17   1    1.63    1.52
   3 -17   1    3.86    1.82
   2 -17   1    2.72    1.50
   2 -17   1   -0.40    1.86
   1 -17  -1   -1.13    3.32
   1 -17   1    1.88    2.40
   1  17   1    5.08    1.48
  -2 -17  -1    0.54    1.87
   2  17   1    3.32    1.36
  -3 -17  -1   -1.11    1.68
   3  17   1    2.18    1.24
  -4 -17  -1   -3.15    2.19
   4  17   1    4.18    2.76
   1   0  -2    0.33    0.13
   0   1  -2    0.05    0.14
   0  -1  -2    0.18    0.25
  -1   0  -2    0.36    0.26
   0  -1   2    0.59    0.30
   0   1   2   -0.02    0.16
   1   0   2    0.17    0.27
  -1   0   2    0.15    0.14
  -1  -1  -2   13.94    1.79
   1  -1  -2   16.00    1.56
  -1  -1   2   13.72    1.61
  -1   1   2   17.68    1.51
   1   1   2   17.87    1.88
  -1   2  -2    3.29    0.58
   1  -2  -2    2.15    0.59
  -2  -1  -2    2.95    0.80
   1  -2   2    3.85    0.86
   2   1   2    4.36    0.85
  -1   2   2    3.30    0.46
  -2  -1   2    3.51    0.34
   0  -2  -2    3.04    0.71
   0   2  -2    2.32    0.39
  -2   0  -2    2.04    0.67
   0   2   2    2.93    0.50
   2   0   2    1.63    0.67
   0  -2   2    2.89    0.66
  -2   1  -2    3.53    0.67
  -1  -2  -2    4.20    0.96
   2  -1   2    3.76    0.99
   1   2   2    3.39    0.66
  -1  -2   2    2.34    0.43
  -1  -2   2    2.91    0.52
   2  -2  -2   -0.20    0.15
  -2   2  -2    0.07    0.18
  -2  -2  -2   -0.07    0.33
  -2  -2   2    0.06    0.10
   2  -2   2   -0.06    0.27
  -2   2   2    0.08    0.10
   2   2   2   -0.20    0.20
  -2  -2   2    0.10    0.16
  -2   3  -2   13.69    1.65
   2  -3  -2   14.45    1.53
  -3  -2   2   14.06    1.36
  -3  -2   2   14.48    1.34
   3   2   2   14.15    1.90
   2  -3   2   13.92    1.75
   1  -3  -2    1.41    0.50
  -1   3  -2    1.07    0.40
  -3  -1  -2    0.58    0.45
   1  -3   2    1.15    0.50
  -1   3   2    0.98    0.31
   3   1   2    0.91    0.64
  -3   0  -2    0.26    0.34
   0  -3  -2    0.08    0.25
   3   0   2   -0.20    0.26
   0   3   2   -0.02    0.19
   0  -3   2   -0.02    0.16
  -3   1  -2    0.45    0.33
  -1  -3  -2    1.97    0.64
   3  -1   2    0.35    0.42
  -1  -3   2    0.68    0.26
   1   3   2    1.11    0.45
  -1  -3   2    0.62    0.31
  -2  -3  -2   10.14    1.72
   3  -2  -2   14.99    1.23
  -3   2  -2   13.12    1.67
   3  -2  -2   12.78    1.28
  -2  -3   2   12.22    1.32
  -2  -3   2   12.97    1.39
   3  -2   2   12.80    1.78
   2   3   2   16.47    1.80
   3  -3  -2   26.95    2.51
  -3  -3   2   28.81    2.48
  -3  -3   2   26.77    2.49
   3  -3   2   22.62    2.85
  -4  -3  -2    8.15    1.67
   3  -4  -2   12.96    1.37
   4   3  -2   10.98    1.31
   3  -4   2   11.37    1.61
  -4  -3   2   13.97    1.31
   4   3   2   11.99    1.79
   2  -4  -2   -0.20    0.15
  -2   4  -2   -0.09    0.14
  -4  -2  -2    0.56    0.34
   4   2   2   -0.01    0.33
  -4  -2   2    0.11    0.14
  -2   4   2   -0.10    0.11
   2  -4   2    0.73    0.32
   1  -4  -2   23.70    2.24
   1  -4   2   19.87    2.21
   4   1   2   21.22    2.64
  -1   4   2   17.53    1.99
   0  -4  -2  361.80   27.19
   0   4   2  327.50   26.91
   0  -4   2  323.34   26.97
   4   0   2  273.39   27.40
   0  -4   2  290.44   26.93
  -1  -4  -2   27.14    2.67
  -1  -4   2   18.80    2.15
   4  -1   2   20.88    2.69
   1   4   2   22.05    2.34
  -1  -4   2   22.40    2.64
  -4   2  -2    0.24    0.22
   4  -2  -2    0.25    0.12
   4  -2  -2    0.29    0.14
  -2  -4  -2   -0.08    0.29
   4  -2   2   -0.02    0.31
  -2  -4   2   -0.04    0.13
  -2  -4   2    0.08    0.19
   2   4   2   -0.05    0.26
   4  -3  -2   14.00    1.30
  -4   3  -2   13.56    1.73
   4  -3  -2   13.59    1.33
   3   4   2   12.21    1.76
  -3  -4   2   12.16    1.33
   4  -3   2   10.13    1.69
  -3  -4   2   11.88    1.37
  -4   4  -2   51.74    4.81
   4   4  -2   47.05    4.48
  -4  -4  -2   39.54    4.94
   4  -4  -2   47.16    4.27
   4   4   2   48.20    4.94
   4  -4   2   50.95    4.88
   5   4  -2   57.79    5.70
   4  -5  -2   56.11    5.35
  -4   5  -2   58.07    5.67
   4  -5   2   59.70    5.74
  -5  -4   2   56.44    5.30
   5   4   2   62.15    6.03
   5   3  -2    4.71    0.74
  -3   5  -2    5.32    0.95
   3  -5  -2    5.60    0.84
  -5  -3  -2    5.30    1.50
   5   3   2    5.64    1.48
  -5  -3   2    4.16    1.00
   3  -5   2    4.88    1.13
   5   2  -2   11.80    1.21
  -5  -2  -2   10.99    1.86
  -2   5   2   11.14    1.33
   2  -5   2   12.70    1.58
  -5  -2   2    9.38    1.25
   5   2   2   15.35    2.08
   1  -5  -2   64.39    5.34
   5   1  -2   57.50    4.84
  -5  -1  -2   54.99    5.81
   1  -5   2   50.93    5.33
  -5  -1   2   54.15    4.84
  -1   5   2   54.47    5.14
   5   1   2   53.33    5.79
   1  -5   2   58.32    5.32
  -5   0  -2    0.16    0.41
   0  -5  -2   -0.16    0.24
   0  -5   2   -0.11    0.18
   0   5   2    0.18    0.20
   0  -5   2    0.11    0.23
   5   0   2   -0.36    0.44
  -5   1  -2   54.06    5.66
  -1  -5  -2   54.17    5.47
  -1  -5   2   56.14    5.21
   5  -1   2   56.13    5.85
  -1  -5   2   55.48    5.24
   1   5   2   63.34    5.41
  -5   2  -2   10.62    1.61
  -2  -5  -2    9.60    1.56
   5  -2  -2    9.62    1.14
   5  -2  -2   12.35    1.13
  -2  -5   2   10.43    1.50
  -2  -5   2   11.58    1.31
   2   5   2   10.58    1.51
   5  -2   2   11.62    1.81
   5  -3  -2    5.73    0.67
  -5   3  -2    3.94    1.08
   5  -3  -2    5.55    0.74
  -3  -5   2    4.54    0.71
   5  -3   2    3.92    1.05
   3   5   2    5.33    1.08
   5  -4  -2   50.81    4.63
   4   5  -2   45.86    5.52
   5  -4  -2   52.18    4.69
  -5   4  -2   49.45    5.12
  -4  -5  -2   41.10    5.19
  -4  -5   2   53.22    4.65
   4   5   2   60.33    5.37
   5  -4   2   49.60    5.17
   5  -5  -2  605.80   49.58
  -5   5  -2  655.98   50.25
  -5  -5  -2  535.02   50.45
   5   5  -2  573.55   49.82
  -5  -5   2  592.90   49.64
   5   5   2  534.49   50.25
   5  -5   2  604.08   50.19
  -5   6  -2   51.66    4.65
   5  -6  -2   39.00    4.00
   6   5  -2   39.76    4.20
   5  -6  -2   43.93    4.24
  -6  -5   2   39.44    4.11
   5  -6   2   48.24    4.61
   6   5   2   39.92    4.73
   4  -6  -2   15.67    1.87
  -4   6  -2   15.22    2.00
   4  -6  -2   17.55    1.75
   6   4  -2   16.31    1.81
  -6  -4  -2   11.01    2.20
   4  -6   2   15.72    2.07
   6   4   2   14.95    2.36
  -6  -4   2   15.10    1.82
   3  -6  -2   18.78    2.16
   6   3  -2   20.92    2.29
   6   3   2   24.28    2.93
  -6  -3   2   16.57    2.10
   3  -6   2   20.69    2.38
  -6  -2  -2   -0.57    0.39
   2  -6  -2    0.38    0.32
   6   2  -2    0.27    0.21
   6   2   2   -0.15    0.41
  -2   6   2    0.03    0.23
   2  -6   2   -0.06    0.31
  -6  -1  -2   12.86    2.02
   1  -6  -2   10.48    1.47
   6   1  -2   11.34    1.16
   6   1   2    7.26    1.85
   1  -6   2   11.35    1.50
  -1   6   2   14.12    1.52
   0  -6  -2    8.53    1.32
  -6   0  -2    9.55    1.67
   6   0  -2   10.29    0.98
   6   0   2    8.35    1.91
   0  -6   2    9.53    1.44
  -6   0   2    8.44    0.93
   0  -6   2    7.62    1.21
   0   6   2    9.57    1.29
  -6   1  -2   10.06    1.70
   6  -1  -2   11.07    1.14
  -1  -6  -2    8.90    1.44
  -1  -6   2    9.11    1.32
  -1  -6   2   10.57    1.34
   6  -1   2   10.29    1.82
  -6   2  -2    0.02    0.38
   6  -2  -2    0.13    0.22
   6  -2  -2    0.14    0.26
   2   6   2    0.46    0.37
  -2  -6   2    0.25    0.32
   6  -2   2    0.17    0.49
  -2  -6   2    0.13    0.24
  -3  -6  -2   17.43    2.49
  -6   3  -2   21.89    2.66
   6  -3  -2   21.79    2.13
   3   6   2   18.49    2.46
   6  -3   2   18.02    2.60
  -3  -6   2   21.30    2.13
   4   6  -2   12.73    1.80
  -6   4  -2   19.66    2.45
  -4  -6  -2   14.85    2.20
   6  -4  -2   12.33    1.65
   6  -4   2   14.98    2.19
   4   6   2   14.42    2.10
  -4  -6   2   15.93    1.68
  -5  -6  -2   38.48    4.39
   6  -5  -2   29.82    3.63
  -6   5  -2   43.03    4.24
   5   6  -2   34.71    3.82
   6  -5  -2   38.61    3.58
   6  -5   2   41.84    4.21
  -5  -6   2   36.77    3.62
   6  -6  -2   13.08    1.95
   6   6  -2   16.28    2.10
   6  -6  -2   17.86    1.90
  -6  -6  -2   19.07    2.69
  -6   6  -2   18.74    2.43
   6   6   2   17.80    2.56
  -6  -6   2   15.94    1.93
  -6   7  -2   13.37    1.97
  -7  -6  -2   10.48    2.24
   7   6  -2   11.08    1.71
   6  -7  -2    9.43    1.65
   6  -7  -2   11.47    1.49
  -7  -6   2   13.82    1.68
   6  -7   2   11.98    1.91
   7   6   2   16.31    2.34
   5  -7  -2    6.26    1.51
  -5   7  -2    4.89    1.26
   5  -7  -2    4.25    0.74
   7   5  -2    5.17    0.96
  -7  -5  -2    5.22    1.66
   5  -7   2    5.27    1.32
  -7  -5   2    3.44    0.96
   7   5   2    5.99    1.68
   7   4  -2   10.13    1.21
  -7  -4  -2    6.41    1.89
   4  -7  -2    7.44    1.09
   4  -7  -2    8.75    1.32
   4  -7   2    8.25    1.41
  -7  -4   2    7.40    1.26
   3  -7  -2    0.98    0.43
   7   3  -2    0.93    0.35
   3  -7   2    0.21    0.39
   7   3   2    0.78    0.72
   3  -7   2    0.07    0.39
  -7  -3   2    0.68    0.50
   2  -7  -2    3.29    0.85
  -7  -2  -2    1.95    0.92
   7   2  -2    2.92    0.54
   2  -7   2    2.15    0.85
  -2   7   2    1.70    0.57
   2  -7   2    1.67    0.62
   7   2   2    1.64    1.00
  -7  -2   2    3.19    0.72
   1  -7  -2    1.43    0.57
   7   1  -2    2.39    0.45
  -7  -1  -2    0.92    0.77
   1  -7   2    1.20    0.54
   1  -7   2    1.59    0.57
   7   1   2    0.97    0.87
  -7  -1   2    1.33    0.52
  -1   7   2    2.21    0.70
   0  -7  -2    0.21    0.36
   7   0  -2    0.79    0.36
   0   7   2   -0.21    0.22
   0  -7   2    0.45    0.31
   7   0   2   -0.71    0.46
   0  -7   2   -0.07    0.29
  -7   1  -2    1.09    0.81
   7  -1  -2    2.86    0.52
  -1  -7  -2    1.59    0.66
  -1  -7   2    1.41    0.54
  -7   1   2    2.21    0.52
  -1  -7   2    2.02    0.60
   1   7   2    1.50    0.61
   7  -1   2    1.68    0.92
  -2  -7  -2    0.94    0.57
   7  -2  -2    2.45    0.62
  -2  -7   2    2.10    0.61
   7  -2   2    2.11    0.91
  -2  -7   2    2.29    0.62
   2   7   2    2.48    0.77
   7  -3  -2    0.28    0.27
  -7   3  -2    0.16    0.53
  -3  -7  -2    0.37    0.52
   7  -3  -2    0.49    0.32
   7  -3   2    0.52    0.73
   3   7   2    0.74    0.53
  -3  -7   2    0.69    0.34
  -4  -7  -2   10.70    1.75
   4   7  -2    7.02    1.33
  -7   4  -2    7.32    1.55
   7  -4  -2    8.01    1.14
   7  -4  -2    9.68    1.34
   4   7   2   10.69    1.69
  -4  -7   2    9.05    1.19
   7  -4   2    7.62    1.93
   5   7  -2    3.38    0.99
   7  -5  -2    4.88    0.77
  -7   5  -2    4.44    1.24
  -5  -7  -2    3.93    1.37
  -5  -7   2    5.21    0.84
   5   7   2    5.12    1.39
   7  -5   2    4.70    1.22
  -6  -7  -2    9.37    2.03
   6   7  -2   14.70    1.83
  -7   6  -2   10.87    1.98
   7  -6  -2   13.03    1.56
   7  -6  -2    9.88    1.66
  -6  -7   2   12.63    1.56
   6   7   2    9.49    2.05
   7  -6   2   14.76    2.06
  -7   7  -2   15.43    2.31
  -7  -7  -2   14.82    2.49
   7   7  -2   13.38    2.01
   7  -7  -2   13.96    2.00
   7  -7  -2   14.17    1.75
  -7  -7   2   12.59    1.74
   7   7   2   15.90    2.55
   7  -7   2   13.10    2.11
   7  -8  -2   11.87    1.61
  -8  -7  -2   12.69    2.94
  -7   8  -2   16.05    2.23
   8   7  -2   10.73    1.87
   7  -8  -2   12.38    1.90
  -8  -7   2   14.27    1.82
   8   7   2   12.01    2.67
   7  -8   2   11.24    1.97
   6  -8  -2    0.64    0.37
  -8  -6  -2   -0.86    0.67
  -6   8  -2    0.09    0.46
   8   6  -2    0.15    0.48
   6  -8  -2    1.47    1.01
   8   6   2   -1.07    0.64
  -8  -6   2    0.78    0.43
   6  -8   2    0.08    0.67
   8   5  -2   12.70    1.79
   5  -8  -2   13.91    1.66
  -8  -5  -2   11.89    2.44
   5  -8  -2   12.48    1.78
   5  -8   2   11.90    2.07
  -8  -5   2   12.23    1.70
   8   5   2   12.18    2.20
  -8  -4  -2   51.13    6.42
   8   4  -2   56.79    5.63
   4  -8  -2   61.90    5.59
   4  -8  -2   69.78    5.91
   4  -8   2   60.63    6.24
   4  -8   2   51.50    5.80
   8   4   2   65.04    6.52
  -8  -4   2   55.82    5.73
   8   3  -2   30.98    3.25
  -8  -3  -2   23.69    3.84
   3  -8  -2   35.10    3.51
   3  -8   2   29.09    3.43
   8   3   2   38.79    4.29
   3  -8   2   33.70    3.79
  -8  -2  -2   12.32    2.29
   8   2  -2   13.79    1.57
   2  -8  -2    8.83    1.58
  -2   8   2   10.09    1.51
  -8  -2   2   13.53    1.71
   8   2   2   10.30    2.20
   2  -8   2   14.32    1.79
   2  -8   2   14.26    1.97
   1  -8  -2   12.94    1.93
  -8  -1  -2   18.11    2.71
   8   1  -2   16.24    1.83
  -8  -1   2   13.49    1.80
  -1   8   2   18.43    2.06
   1  -8   2   14.84    2.01
   1  -8   2   15.23    2.09
   8   1   2   17.25    2.67
  -8   0  -2   60.98    6.10
   0  -8  -2   47.34    5.31
   8   0  -2   58.74    5.20
   0  -8   2   57.23    5.38
   0  -8   2   60.89    5.43
   8   0   2   47.82    5.88
   0   8   2   53.44    5.34
  -8   0   2   50.49    5.02
   8  -1  -2   14.12    1.82
  -8   1  -2   18.00    2.54
   1   8   2   17.26    2.06
   8  -1   2   14.02    2.46
  -1  -8   2   14.43    1.88
  -1  -8   2   18.08    2.04
  -8   1   2   13.34    1.66
  -8   2  -2   13.39    2.21
  -2  -8  -2   15.67    2.03
   8  -2  -2   12.15    1.59
   8  -2   2   12.69    2.22
  -8   2   2   12.03    1.48
  -2  -8   2   12.97    1.65
   2   8   2   12.98    1.90
  -2  -8   2   12.40    1.71
   8  -3  -2   26.33    3.00
  -8   3  -2   26.23    3.57
  -3  -8  -2   33.60    3.58
  -3  -8   2   29.04    3.01
   8  -3   2   33.86    3.81
   3   8   2   27.59    3.36
  -8   4  -2   50.79    5.64
   4   8  -2   49.46    5.36
  -4  -8  -2   62.21    5.76
   8  -4  -2   48.70    4.98
   8  -4  -2   52.75    5.17
  -4  -8   2   51.64    4.98
   8  -4   2   46.04    5.53
   4   8   2   60.83    5.71
   5   8  -2   11.98    1.79
  -5  -8  -2    8.37    1.81
  -8   5  -2   11.31    2.06
   8  -5  -2   10.29    1.43
   8  -5  -2   10.66    1.61
  -5  -8   2    9.71    1.44
   8  -5   2   14.85    2.06
   5   8   2   11.90    2.01
   8  -6  -2    0.45    0.48
   8  -6  -2    0.49    0.40
   6   8  -2    0.48    0.51
  -8   6  -2    0.23    0.70
  -6  -8  -2   -0.33    0.64
   8  -6   2   -0.58    0.61
  -6  -8   2    0.43    0.38
   7   8  -2    8.98    1.77
  -8   7  -2   11.91    2.07
   8  -7  -2   10.03    1.48
  -7  -8  -2   10.86    2.08
   7   8   2   10.78    2.01
  -7  -8   2   11.24    1.59
   8  -7   2   10.44    1.94
   8   8  -2   49.11    5.73
  -8  -8  -2   53.46    6.23
  -8   8  -2   61.75    6.08
   8  -8  -2   61.35    5.51
   8  -8   2   49.74    5.76
  -8  -8   2   57.18    5.55
   8   8   2   51.86    6.11
   8  -9  -2    4.18    1.07
  -8   9  -2    7.95    2.05
   9   8  -2    4.62    1.39
  -9  -8  -2    5.30    1.75
   8  -9  -2    8.60    1.56
  -9  -8   2    4.76    1.28
   8  -9   2    5.68    1.41
   9   8   2    7.93    2.03
  -9  -7  -2   -0.43    0.95
   9   7  -2    1.56    0.97
   7  -9  -2    1.00    0.58
  -9  -7   2    1.78    0.53
   7  -9   2    0.61    0.83
   9   7   2    0.66    0.99
   6  -9  -2    0.04    0.56
  -9  -6  -2    0.03    0.97
   9   6  -2    0.31    0.53
   6  -9  -2    0.24    0.31
  -9  -6   2    0.12    0.51
   9   6   2    0.22    0.83
   6  -9   2    0.38    0.52
   9   5  -2  149.31   14.04
   5  -9  -2  173.47   14.26
   5  -9  -2  153.51   13.83
   5  -9   2  156.94   14.27
   9   5   2  164.01   14.89
  -9  -5   2  153.27   14.09
   5  -9   2  143.73   14.50
   4  -9  -2   -0.33    0.32
   4  -9  -2    0.53    0.40
   9   4  -2    0.34    0.42
  -9  -4  -2    1.00    0.73
   4  -9   2   -0.20    0.53
   4  -9   2   -0.52    0.59
   9   4   2   -0.40    0.81
  -9  -4   2    1.47    0.60
   9   3  -2   15.42    2.07
   3  -9  -2   12.98    2.02
  -9  -3  -2   16.09    2.85
   3  -9   2   21.24    2.69
   9   3   2   22.96    2.97
  -9  -3   2   18.58    2.15
   3  -9   2   15.52    2.24
  -9  -2  -2    1.01    0.95
   2  -9  -2    1.34    0.71
   9   2   2    2.02    0.84
   2  -9   2    2.03    0.75
  -2   9   2    0.86    0.54
  -9  -2   2    1.05    0.62
   2  -9   2    1.19    0.59
   1  -9  -2    6.60    1.27
   9   1  -2    5.64    1.07
  -9  -1  -2    9.41    1.83
  -1   9   2    5.03    1.06
   1  -9   2    6.20    1.22
  -9  -1   2    5.87    1.16
   1  -9   2    5.89    1.41
   9   1   2    8.66    1.67
  -9   0  -2   -0.28    0.48
   9   0  -2    0.01    0.39
   0  -9   2    0.57    0.42
   0  -9   2    0.61    0.47
   9   0   2    1.61    0.83
  -9   0   2    0.40    0.41
   9  -1  -2    4.70    1.16
  -9   1  -2    9.44    2.26
  -1  -9  -2    6.06    1.20
  -1  -9   2    4.35    1.09
  -9   1   2    4.49    0.93
   1   9   2    6.01    1.21
   9  -1   2    7.93    1.84
  -1  -9   2    5.15    1.07
  -9   2  -2    0.78    0.82
  -2  -9  -2    1.50    0.84
   9  -2  -2    1.84    0.58
   2   9   2    1.14    0.63
  -2  -9   2    1.70    0.78
   9  -2   2    2.73    1.08
  -2  -9   2    1.51    0.58
  -9   2   2    1.94    0.61
   9  -3  -2   16.33    2.04
  -9   3  -2   12.13    2.39
  -3  -9  -2   16.18    2.34
   3   9   2   17.80    2.42
   9  -3   2   17.86    2.71
  -3  -9   2   16.07    1.92
  -9   4  -2    0.80    0.70
   4   9  -2    0.04    0.36
  -4  -9  -2    0.93    0.66
   9  -4  -2    0.45    0.41
   9  -4   2    0.06    0.72
  -4  -9   2    0.34    0.30
   4   9   2    0.34    0.53
  -5  -9  -2  114.87   12.73
  -9   5  -2  137.21   13.09
   9  -5  -2  137.73   12.31
   5   9  -2  130.23   12.74
   9  -5  -2  160.48   12.73
   9  -5   2  152.21   13.16
  -5  -9   2  143.93   12.30
   5   9   2  124.24   12.85
   9  -6  -2    0.43    0.48
   9  -6  -2    0.27    0.56
   6   9  -2    0.36    0.53
  -9   6  -2    0.84    0.80
  -6  -9  -2   -0.60    0.70
  -6  -9   2    0.35    0.44
   9  -6   2    0.04    0.58
   6   9   2    0.53    0.79
   9  -7  -2    0.27    0.60
  -9   7  -2    0.91    0.88
   7   9  -2    0.90    0.82
  -7  -9  -2    0.21    0.69
   9  -7   2    1.41    0.69
   7   9   2    1.31    0.83
  -7  -9   2    0.73    0.53
   9  -8  -2    8.23    1.53
  -8  -9  -2    8.15    2.07
   9  -8  -2    5.41    1.10
   8   9  -2    3.63    1.16
  -9   8  -2    4.47    1.61
   8   9   2    4.97    1.89
   9  -8   2    4.39    1.36
  -8  -9   2    6.17    1.13
   9   9  -2  109.80   11.10
  -9  -9  -2  115.04   11.59
   9  -9  -2  122.44   10.58
  -9   9  -2  122.09   11.31
   9   9   2  104.52   11.32
   9  -9   2   97.91   10.87
  -9  -9   2  130.36   11.41
   9 -10  -2   19.49    3.15
 -10  -9  -2   12.80    4.92
  10   9   2   20.14    3.27
   9 -10   2   21.39    2.90
 -10  -8  -2    6.12    1.58
  10   8  -2    8.85    1.57
   8 -10  -2    4.05    1.14
  10   8   2    6.08    1.58
   8 -10   2    5.53    1.45
 -10  -7  -2    8.87    2.56
   7 -10  -2    7.60    1.19
   7 -10  -2    8.57    1.68
  10   7  -2    7.20    1.72
   7 -10   2    6.30    1.95
  10   7   2    7.83    2.23
 -10  -7   2    6.54    1.63
  10   6  -2    1.18    0.84
 -10  -6  -2    1.39    1.21
   6 -10  -2    1.67    0.83
   6 -10   2    0.64    0.86
   6 -10   2    1.11    0.76
  10   6   2    1.95    1.18
 -10  -6   2    2.08    0.68
  10   5  -2    4.69    1.28
 -10  -5  -2    5.91    1.87
   5 -10  -2    4.14    1.18
   5 -10  -2    3.64    0.96
  10   5   2    1.82    1.09
   5 -10   2    6.72    1.52
 -10  -5   2    6.15    1.43
   5 -10   2    2.59    1.34
 -10  -4  -2   30.43    4.38
   4 -10  -2   31.61    3.57
  10   4  -2   30.36    3.48
   4 -10  -2   31.64    3.36
  10   4   2   34.70    4.31
   4 -10   2   27.25    3.54
 -10  -4   2   29.79    3.45
  10   3  -2   17.39    2.34
 -10  -3  -2   17.79    3.13
   3 -10  -2   21.67    2.56
   3 -10   2   14.90    2.38
   3 -10   2   18.42    2.69
  10   3   2   20.41    3.12
 -10  -3   2   20.27    2.43
 -10  -2  -2    4.01    1.51
   2 -10  -2    5.08    1.26
  10   2  -2    4.99    1.23
  10   2   2    3.26    1.44
   2 -10   2    4.90    1.26
   2 -10   2    5.12    1.36
  10   1  -2   81.59    7.90
  -1  10   2   88.39    8.07
 -10  -1   2   93.00    7.93
  10   1   2   81.26    8.73
   1 -10   2   81.09    8.02
   1 -10   2   76.16    7.99
   0 -10  -2  232.75   19.16
  10   0  -2  240.72   19.01
   0  10   2  183.45   18.91
   0 -10   2  236.36   19.05
   0 -10   2  211.68   19.00
  10   0   2  196.61   19.66
 -10   0   2  198.65   18.70
  10  -1  -2   77.25    7.27
 -10   1  -2   74.29    8.01
  -1 -10  -2   89.36    7.61
   1  10   2   72.56    7.41
 -10   1   2   63.49    6.95
  -1 -10   2   77.94    7.22
  10  -1   2   79.17    8.11
  -1 -10   2   74.12    7.30
  10  -2  -2    4.02    1.13
 -10   2  -2    5.96    1.88
  -2 -10  -2    5.25    1.40
   2  10   2    4.06    1.28
  -2 -10   2    5.21    0.96
  10  -2   2    3.77    1.43
  -2 -10   2    5.55    1.37
 -10   2   2    4.15    1.04
  -3 -10  -2   18.93    2.55
 -10   3  -2   17.09    2.82
  10  -3  -2   14.64    2.15
  -3 -10   2   18.58    2.07
   3  10   2   16.38    2.54
  10  -3   2   17.21    2.67
 -10   3   2   19.31    2.11
  -4 -10  -2   26.22    3.50
 -10   4  -2   28.96    3.86
  10  -4  -2   27.95    3.16
  10  -4   2   24.55    3.56
  -4 -10   2   31.44    3.12
  -5 -10  -2    3.65    1.27
 -10   5  -2    1.88    1.25
  10  -5  -2    2.98    1.09
   5  10  -2    6.32    1.72
  10  -5  -2    4.33    1.07
  10  -5   2    7.31    1.77
  -5 -10   2    5.45    0.98
   5  10   2    6.74    1.94
  10  -6  -2    1.12    0.65
  10  -6  -2    1.45    0.82
   6  10  -2    0.26    0.77
 -10   6  -2   -0.24    0.78
  -6 -10  -2    0.64    0.81
  10  -6   2    0.73    0.83
   6  10   2    2.33    1.01
 -10   7  -2    4.94    1.73
   7  10  -2    6.61    1.77
  10  -7  -2    5.94    1.24
  -7 -10  -2    6.15    1.59
  10  -7   2    7.29    1.77
   7  10   2    8.21    2.22
  10  -8  -2    3.48    0.89
   8  10  -2    3.04    1.33
  -8 -10  -2    7.19    1.87
 -10   8  -2    4.87    1.84
  10  -8  -2    5.90    1.77
  10  -8   2    1.92    1.26
   8  10   2    7.11    2.23
  -9 -10  -2   14.88    3.00
  10  -9  -2   12.43    2.62
 -10   9  -2   18.64    3.08
  10  -9   2   20.48    3.09
   9  10   2   17.26    2.93
  10 -10  -2    7.80    2.15
 -10 -10  -2    9.65    2.62
  10  10   2   16.96    4.71
  10 -11  -2    8.29    2.16
 -11 -10  -2    5.89    2.46
  10 -11   2   11.44    2.28
  10 -11   2   10.44    2.72
  11  10   2   10.50    2.69
 -11  -9  -2    8.57    2.45
   9 -11  -2    8.27    2.46
   9 -11   2   14.08    2.45
   9 -11   2    7.18    2.13
 -11  -8  -2    2.50    1.58
   8 -11  -2    5.06    1.69
  11   8   2    6.37    3.25
 -11  -7  -2    1.08    1.52
   7 -11  -2    1.96    0.68
   7 -11  -2    2.75    1.17
   7 -11   2    1.82    1.07
  11   7   2    5.15    1.69
   7 -11   2    1.56    1.22
  11   6  -2    5.74    1.75
 -11  -6  -2    9.28    2.28
   6 -11  -2    7.93    1.28
   6 -11   2    9.76    1.66
   6 -11   2    8.86    2.32
  11   6   2    5.49    1.97
 -11  -6   2    8.97    1.58
 -11  -5  -2   -0.77    1.09
   5 -11  -2    0.43    0.66
  11   5  -2   -0.01    0.65
   5 -11  -2    0.37    0.49
 -11  -5   2    0.14    0.60
   5 -11   2    0.89    0.83
   4 -11  -2    5.25    1.42
 -11  -4  -2    1.10    1.17
  11   4  -2    2.88    0.95
   4 -11  -2    2.79    0.85
 -11  -4   2    2.98    0.81
  11   4   2    2.89    1.27
   4 -11   2    2.81    1.37
   4 -11   2    3.43    1.19
   3 -11  -2    0.90    0.51
  11   3  -2   -0.07    0.78
   3 -11   2    2.02    0.77
 -11  -3   2    1.52    0.60
  11   3   2    0.47    1.22
   3 -11   2   -0.23    0.54
  11   2  -2   72.31    7.92
 -11  -2  -2   83.66    8.99
   2 -11   2   74.78    8.05
 -11  -2   2   95.42    8.38
   2 -11   2   84.88    8.28
  11   2   2   95.74    9.09
 -11  -1  -2    9.46    2.33
  11   1  -2    9.23    1.60
   1 -11  -2    7.56    1.83
   1 -11   2    8.09    1.65
   1 -11   2   10.99    1.69
  11   1   2   11.88    2.67
 -11  -1   2   12.57    1.94
  11   0  -2    0.90    0.64
   0 -11  -2   -0.08    0.57
 -11   0  -2   -0.44    0.98
   0  11   2    0.58    0.43
  11   0   2    0.32    1.04
 -11   0   2    1.90    0.76
   0 -11   2   -0.47    0.54
  -1 -11  -2    7.51    1.85
 -11   1  -2   12.29    2.73
  11  -1  -2    8.52    1.51
   1  11   2    6.47    1.67
 -11   1   2    9.66    1.78
  11  -1   2    6.81    2.11
  -1 -11   2    9.00    1.42
  -1 -11   2    9.32    1.61
 -11   2  -2   86.79    8.16
  11  -2  -2   67.69    7.02
  -2 -11  -2   86.73    7.53
   2  11   2   72.97    7.40
 -11   2   2   61.31    7.06
  11  -2   2   65.97    7.70
  -2 -11   2   76.45    7.22
  -2 -11   2   68.33    6.87
  11  -3  -2    0.13    0.60
 -11   3  -2    1.81    1.14
  -3 -11  -2    0.97    0.70
  11  -3   2    0.78    1.05
  -3 -11   2   -0.27    0.43
 -11   3   2    1.34    0.48
   3  11   2    0.71    0.66
  11  -4  -2    3.66    0.90
  -4 -11   2    3.90    0.90
  11  -4   2    2.58    1.35
   4  11   2    4.44    1.33
  -5 -11  -2   -0.06    0.78
   5  11  -2    0.36    0.56
 -11   5  -2    0.14    1.09
  11  -5  -2   -0.03    0.57
   5  11   2   -0.01    0.68
  11  -5   2    1.64    0.95
   6  11  -2    3.21    1.30
  -6 -11  -2    4.82    1.48
  11  -6  -2    5.08    1.22
 -11   6  -2    7.07    2.55
  11  -6  -2    7.26    1.68
   6  11   2    7.67    1.88
  11  -6   2    2.25    1.41
 -11   7  -2    1.06    1.38
  11  -7  -2    1.31    0.98
  -7 -11  -2   -0.77    0.99
   7  11  -2    0.57    0.79
  11  -7   2    2.49    1.28
   7  11   2    1.20    1.26
  11  -8  -2    6.81    2.11
  -8 -11  -2    2.44    1.73
 -11   8  -2    4.47    1.80
   8  11   2    9.91    1.95
  11  -8   2    5.71    1.72
 -11   9  -2    5.63    1.97
  -9 -11  -2    9.35    2.63
  11  -9  -2    9.20    2.14
   9  11   2   11.86    2.31
 -10 -11  -2   11.58    3.08
  11 -10  -2   16.41    2.55
  10  11   2    8.96    2.51
  11 -10   2   15.13    2.39
 -11 -11  -2    1.76    1.98
  11 -11  -2   -1.05    1.85
  11 -11   2   -0.30    1.22
  11  11   2   -0.34    1.46
 -12 -11  -2   -1.86    2.25
  11 -12   2    4.60    1.84
  11 -12   2    0.30    1.62
  12  11   2    0.60    1.70
 -12 -10  -2    3.75    2.34
  10 -12   2    4.28    1.56
  12  10   2    6.33    2.20
 -12  -9  -2    1.46    1.92
   9 -12  -2    2.63    1.68
   9 -12   2    8.16    3.13
   9 -12   2    6.02    1.79
 -12  -8  -2    3.29    1.45
   8 -12   2    1.03    1.34
  12   8   2    3.61    1.41
   8 -12   2    2.60    1.35
 -12  -7  -2   21.81    4.44
   7 -12  -2   19.23    3.17
  12   7   2   24.69    3.63
   7 -12   2   18.33    3.00
   7 -12   2   24.02    3.31
  12   6   2    1.83    1.40
   6 -12   2    3.33    1.05
   6 -12   2    2.04    0.93
   5 -12  -2   10.80    1.82
 -12  -5  -2    8.30    2.44
   5 -12  -2   13.72    2.19
  12   5  -2    9.64    2.68
   5 -12   2   16.17    2.50
   5 -12   2   12.47    2.23
   4 -12  -2   12.16    1.93
 -12  -4  -2   18.60    2.88
  12   4  -2    9.93    2.08
 -12  -4   2   11.35    3.10
   4 -12   2   13.22    2.17
   4 -12   2   10.75    2.31
  12   4   2   16.87    3.49
 -12  -3  -2   15.03    4.11
  12   3  -2   15.30    2.33
   3 -12   2   15.92    2.32
   3 -12   2   14.66    2.56
 -12  -3   2   19.17    2.39
  12   3   2   11.85    2.61
   2 -12  -2    5.94    1.61
  12   2  -2    4.54    1.33
 -12  -2  -2    5.25    2.04
   2 -12   2    5.55    1.42
  12   2   2    3.92    1.63
   2 -12   2    8.62    1.88
 -12  -1  -2   23.64    3.56
  12   1  -2   21.55    2.84
   1 -12   2   18.82    2.75
  12   1   2   19.03    3.38
   1 -12   2   22.92    2.87
  -1  12   2   16.57    2.64
 -12  -1   2   25.57    2.79
   0 -12  -2   10.47    1.91
 -12   0  -2   11.88    2.24
  12   0  -2    9.15    1.75
   0  12   2    9.11    1.79
  12   0   2    7.89    2.24
 -12   0   2   13.09    1.69
   0 -12   2   11.73    1.84
  12  -1  -2   21.02    2.58
  -1 -12  -2   11.25    2.25
 -12   1  -2   20.91    3.33
 -12   1   2   14.36    2.11
   1  12   2   14.44    2.48
  12  -1   2   19.46    3.03
  -1 -12   2   17.18    2.47
  -1 -12   2   22.06    2.72
  -2 -12  -2    3.74    1.20
  12  -2  -2    2.89    1.02
  12  -2   2    3.91    1.65
  -2 -12   2    2.88    1.08
  -2 -12   2    4.48    1.12
 -12   2   2    3.40    1.10
   2  12   2    4.38    1.24
  12  -3  -2   12.60    2.03
  -3 -12  -2   15.33    2.26
 -12   3  -2   19.01    3.03
 -12   3   2   13.72    1.92
  -3 -12   2   11.11    2.04
  12  -3   2   12.10    2.96
  -3 -12   2   17.24    2.06
   3  12   2   11.44    2.26
  12  -4  -2    9.53    1.61
  -4 -12  -2    6.39    1.89
   4  12   2   11.46    2.07
  12  -4   2    8.68    2.37
  -5 -12  -2    9.77    2.59
 -12   5  -2   14.55    2.80
  -5 -12   2   13.55    1.71
  12  -5   2   12.09    2.51
   6  12  -2   -0.20    0.78
  -6 -12  -2    1.29    0.99
  12  -6  -2   -0.76    0.86
   6  12   2    1.13    0.87
  12  -6   2   -1.20    0.97
 -12   7  -2   17.03    3.38
  -7 -12  -2   13.50    3.30
  12  -7  -2   17.78    2.91
  12  -7   2   20.80    2.90
   7  12   2   16.41    3.07
  12  -8   2    6.77    1.37
 -12   9  -2    0.25    1.68
  -9 -12  -2    1.05    1.34
   9  12   2    2.68    2.02
 -12  10  -2    4.23    1.92
 -10 -12  -2   -0.76    1.52
  12 -10  -2    2.48    2.16
  10  12   2   -0.58    1.61
  12 -10   2    3.08    1.77
 -11 -12  -2    0.92    2.22
  11  12   2    0.74    1.73
  12 -12   2    0.35    2.76
 -13 -10  -2    2.81    2.62
  13  10   2    6.60    2.47
  10 -13   2    4.94    1.91
 -13  -9  -2   85.28    9.63
   9 -13   2   82.71    8.89
  13   9   2   82.05    9.42
   9 -13   2   86.25    9.30
 -13  -8  -2    4.01    2.27
   8 -13   2    5.25    1.75
   8 -13   2    2.88    2.51
  13   8   2    5.12    2.08
   7 -13   2    2.62    1.61
   7 -13   2    3.84    1.59
   6 -13  -2    2.72    1.32
 -13  -6  -2   -0.13    1.59
   6 -13   2    1.50    1.27
 -13  -5  -2   67.88    8.00
   5 -13  -2   70.62    7.35
   5 -13   2   67.79    7.17
  13   5   2   59.18    7.37
   5 -13   2   69.40    7.48
 -13  -4  -2   18.84    3.72
  13   4   2   17.60    3.07
   4 -13   2   11.17    2.43
 -13  -3  -2   32.86    4.70
   3 -13  -2   25.08    3.48
   3 -13  -2   23.79    3.64
   3 -13   2   31.04    3.84
  13   3   2   36.50    4.50
   3 -13   2   32.41    4.14
 -13  -2  -2    8.96    2.77
   2 -13   2   12.16    1.91
  13   2   2    5.48    2.16
   2 -13   2    9.95    2.22
   1 -13  -2   23.05    3.22
  13   1   2   24.20    3.88
   1 -13   2   24.25    3.23
   1 -13   2   25.33    3.27
  -1  13   2   18.74    2.95
   0 -13  -2   -0.07    0.85
 -13   0  -2   -1.24    1.30
  13   0  -2   -1.16    0.83
   0  13   2   -0.21    0.64
   0 -13   2    0.55    0.75
  -1 -13  -2   18.01    2.93
  -1 -13   2   22.65    2.86
  13  -1   2   21.10    3.64
  -1 -13   2   20.93    2.93
   1  13   2   23.77    3.22
  -2 -13  -2    7.28    1.86
 -13   2  -2   11.26    2.80
  13  -2   2    6.07    2.02
  -2 -13   2    8.99    1.62
   2  13   2    8.25    2.05
  -2 -13   2    5.71    1.78
  -3 -13  -2   26.33    3.52
   3  13   2   20.85    3.31
  -3 -13   2   22.50    2.86
  13  -3   2   24.14    3.70
  -3 -13   2   21.61    3.15
 -13   4  -2   16.36    3.11
  -4 -13  -2   12.66    2.61
  13  -4   2   12.81    2.98
 -13   5  -2   62.93    7.14
  -5 -13  -2   61.43    6.68
   5  13   2   55.98    6.74
  13  -5   2   54.85    6.66
  -6 -13  -2    1.97    1.46
  13  -6  -2   -0.19    1.02
   6  13   2    0.62    1.34
  13  -6   2    5.84    1.60
 -13   7  -2   -0.42    1.53
  13  -7  -2    1.06    1.27
  -7 -13  -2    2.27    1.31
   7  13   2    2.05    1.52
  13  -7   2    4.14    1.34
  -8 -13  -2    1.05    1.70
  13  -8  -2    0.10    1.54
 -13   8  -2    0.92    1.78
   8  13   2   -3.71    1.92
 -13   9  -2   77.96    8.53
  -9 -13  -2   78.66    8.69
   9  13   2   64.18    8.37
 -13  10  -2    0.84    2.77
 -10 -13  -2    5.99    2.91
  10  13   2    6.54    2.94
  13 -10   2    3.52    2.15
  13 -11   2   -1.93    1.72
 -14  -9  -2   -3.95    2.55
  14   9   2    4.17    3.91
 -14  -8  -2   22.66    5.28
   8 -14   2   27.20    6.92
  14   8   2   22.70    4.50
   7 -14   2    3.41    1.90
   7 -14   2    1.95    1.26
   6 -14  -2   -0.84    1.69
 -14  -6  -2    3.88    2.65
   6 -14   2    8.75    2.39
  14   6   2    6.67    2.27
   6 -14   2    2.42    1.57
 -14  -5  -2   -2.69    1.63
  14   5   2   -0.22    1.64
   5 -14   2   -0.60    1.56
   4 -14  -2   26.96    4.37
 -14  -4  -2   41.97    5.49
   4 -14   2   31.57    4.41
  14   4   2   39.44    5.06
   4 -14   2   42.93    4.70
   3 -14  -2    0.91    1.16
 -14  -3  -2    2.75    1.62
   3 -14   2    2.82    1.23
  14   3   2    0.81    1.34
   3 -14   2   -1.11    0.95
 -14  -2  -2    4.50    2.17
   2 -14  -2    0.40    1.17
   2 -14   2    0.89    1.27
   2 -14   2    2.99    1.36
  14   2   2    0.45    1.12
   1 -14  -2    1.92    1.20
 -14  -1  -2    5.48    1.74
  14   1   2    3.41    1.62
  -1  14   2    1.60    0.76
   1 -14   2    1.94    1.16
   0 -14  -2   95.07    8.48
  14   0   2   90.58    9.00
   0  14   2   70.53    8.17
   0 -14   2   76.26    8.17
   0 -14   2   69.81    7.95
 -14   1  -2    5.82    1.73
  -1 -14  -2    1.79    1.40
   1  14   2    2.08    1.01
  -1 -14   2   -0.55    1.57
  14  -1   2    2.66    1.51
 -14   2  -2    3.20    2.16
   2  14   2    1.40    1.28
  14  -2   2    2.91    1.43
  -3 -14  -2    0.51    1.07
 -14   3  -2    4.40    1.94
  14  -3   2    1.77    1.28
   3  14   2    2.31    0.90
  -4 -14  -2   31.73    4.08
  14  -4   2   27.65    4.35
   4  14   2   26.60    4.15
  -5 -14  -2    3.22    1.56
 -14   5  -2    1.09    1.80
  14  -5   2    2.03    1.80
   5  14   2   -1.26    1.39
 -14   6  -2    4.82    2.50
  -6 -14  -2    3.20    1.83
  14  -6  -2    2.12    1.44
   6  14   2    2.62    1.51
  14  -6   2    5.08    2.05
 -14   7  -2    0.64    1.63
  14  -7  -2   -1.89    1.60
  -7 -14  -2   -0.69    1.71
  14  -7   2    1.51    1.69
 -14   8  -2   17.42    4.17
  -8 -14  -2   15.55    3.69
  14  -8   2   25.93    4.15
 -14   9  -2    6.82    3.14
  14  -9   2   -1.83    1.94
 -15  -8  -2    5.89    3.98
  15   8   2   12.57    3.23
 -15  -7  -2   12.08    3.39
  15   7   2   11.47    3.23
 -15  -6  -2    5.68    2.96
  15   6   2   10.42    4.06
   6 -15   2    5.94    1.96
 -15  -5  -2    9.82    3.99
  15   5   2    5.07    2.42
   5 -15   2   14.93    2.93
 -15  -4  -2   34.21    6.08
  15   4   2   49.86    5.95
   4 -15   2   39.06    5.03
 -15  -3  -2   -1.30    2.09
   3 -15   2   -0.15    1.26
  15   3   2    0.55    1.46
   2 -15  -2    0.07    1.75
 -15  -2  -2    2.85    2.26
  15   2   2    4.99    1.87
   2 -15   2    0.31    1.28
   1 -15  -2    0.71    1.40
 -15  -1  -2    0.94    1.79
  15   1   2    4.96    1.98
   1 -15   2    0.98    1.53
   0 -15  -2   -0.89    1.42
 -15   0  -2    1.55    1.88
   0  15   2   -0.14    0.74
  15   0   2    1.57    1.57
   0 -15   2   -0.37    1.19
 -15   1  -2    1.04    1.69
  -1 -15  -2    0.33    1.26
   1  15   2    1.22    1.28
  -1 -15   2    2.86    1.60
  15  -1   2    1.28    1.89
 -15   2  -2    0.59    2.18
  -2 -15  -2   -0.58    1.31
   2  15   2   -0.02    0.95
  -2 -15   2    0.33    1.25
  15  -2   2    4.57    1.92
 -15   3  -2    0.55    2.26
  -3 -15  -2   -1.20    1.46
  15  -3   2    3.62    1.65
   3  15   2   -1.39    0.94
  -3 -15   2   -0.49    0.96
  -4 -15  -2   24.50    4.37
 -15   4  -2   39.13    5.72
  -4 -15   2   22.43    5.47
   4  15   2   28.30    4.08
  15  -4   2   31.45    4.38
  -5 -15  -2    0.81    2.20
 -15   5  -2    5.15    2.58
  15  -5   2    3.28    1.93
 -15   6  -2   10.01    2.98
  15  -6   2    6.90    2.98
 -15   7  -2   11.52    3.41
  15  -7   2    1.03    2.37
 -15   8  -2    6.88    3.63
  15  -8   2   11.51    2.71
  16   6   2   -3.12    2.39
 -16  -5  -2    7.04    3.46
  16   5   2    1.92    2.29
 -16  -4  -2    2.82    2.83
  16   4   2   -0.69    1.83
  16   3   2   13.19    3.48
 -16  -2  -2    7.44    2.49
  16   2   2   -0.26    1.89
 -16  -1  -2    3.58    2.26
  16   1   2    1.95    1.79
 -16   0  -2   10.07    2.60
  16   0   2    4.87    2.54
 -16   1  -2    3.05    2.63
  16  -1   2    0.63    2.08
 -16   2  -2    4.25    2.32
  16  -3   2   11.61    2.97
 -16   4  -2    2.75    2.60
  16  -4   2    1.67    2.27
 -16   5  -2   13.27    6.12
   0   0  -3    0.00    0.16
   0   0   3   -0.07    0.25
  -1   0  -3    1.59    0.54
   1   0  -3    1.76    0.30
   0  -1  -3    1.99    0.53
   0   1  -3    2.00    0.48
   0  -1   3    1.22    0.63
   0   1   3    1.92    0.58
  -1   0   3    2.34    0.45
   1   0   3    1.67    0.73
  -1   1  -3    0.21    0.25
  -1  -1  -3   -0.15    0.23
   1  -1  -3    0.35    0.17
  -1   1   3   -0.07    0.14
   1   1   3   -0.40    0.30
  -1  -1   3   -0.32    0.20
   1  -1   3   -0.68    0.44
  -2  -1  -3    4.85    1.01
  -1   2  -3    4.97    0.81
   1  -2  -3    5.01    0.74
   1  -2   3    7.42    1.55
   2   1   3    5.16    1.19
  -1   2   3    4.99    0.65
   0  -2  -3    0.16    0.30
   0   2  -3    0.17    0.17
  -2   0  -3   -0.01    0.27
   2   0   3   -0.15    0.40
   0   2   3    0.25    0.26
   0  -2   3    0.21    0.45
  -1  -2  -3    4.68    1.16
  -2   1  -3    5.14    0.91
   2  -1   3    3.88    1.16
  -1  -2   3    5.10    0.69
   1   2   3    6.02    0.98
  -1  -2   3    4.06    0.98
  -2  -2  -3  102.12   10.21
  -2  -2   3  126.08    9.46
   2  -2   3  124.74   10.48
  -2  -2   3   99.68    9.58
   2   2   3  102.15   10.04
  -3  -2  -3    0.75    0.71
   2  -3  -3    1.68    0.42
  -2   3  -3    1.61    0.75
  -2   3   3    1.27    0.33
   3   2   3    0.70    0.81
   2  -3   3   -0.02    0.56
   1  -3  -3   23.48    2.71
  -3  -1  -3   27.56    3.12
   3   1   3   27.18    3.22
  -1   3   3   24.77    2.45
   1  -3   3   28.03    3.04
   0  -3  -3   10.83    1.66
  -3   0  -3   13.47    1.79
   3   0   3   12.92    1.99
   0  -3   3   10.10    1.60
  -1  -3  -3   27.75    3.19
  -3   1  -3   32.09    3.16
   3  -1   3   21.31    3.48
  -1  -3   3   29.50    2.68
  -1  -3   3   24.92    2.87
  -3   2  -3    0.43    0.44
  -2  -3  -3    1.47    0.76
  -2  -3   3    0.88    0.51
   3  -2   3    0.70    0.95
   2   3   3    0.98    0.58
  -2  -3   3    1.57    0.34
  -3   3  -3   29.77    2.90
   3   3   3   29.01    3.64
  -3  -3   3   24.28    2.25
  -3  -3   3   23.55    2.38
   3  -3   3   20.54    3.02
   3  -4  -3    5.97    0.99
  -3   4  -3    6.47    1.16
   3  -4  -3    7.98    0.76
  -4  -3  -3    5.58    1.54
   4   3   3    4.80    1.39
   3  -4   3    5.45    1.49
  -4  -2  -3    6.93    1.75
  -2   4  -3    4.79    0.92
   2  -4  -3    4.94    0.98
   4   2   3    5.73    1.46
   2  -4   3    5.17    1.28
  -2   4   3    5.29    0.74
   1  -4  -3   51.88    5.34
  -4  -1  -3   51.30    5.61
   4   1   3   47.77    5.63
  -1   4   3   57.80    4.93
   1  -4   3   59.78    5.49
   0  -4  -3    0.77    0.50
  -4   0  -3   -0.03    0.44
   0  -4   3   -0.20    0.26
   0  -4   3   -0.22    0.39
   4   0   3   -0.50    0.62
   0   4   3   -0.06    0.23
  -4   1  -3   60.83    5.54
  -1  -4  -3   43.83    5.41
   4  -1   3   48.38    5.65
  -1  -4   3   54.81    5.14
  -1  -4   3   56.82    4.91
  -2  -4  -3    4.49    2.09
  -4   2  -3    5.79    1.15
  -2  -4   3    6.04    0.96
  -2  -4   3    4.85    0.71
   4  -2   3    5.23    1.57
   2   4   3    7.15    1.09
  -3  -4  -3    6.23    1.69
  -4   3  -3    8.09    1.32
   3   4   3    6.70    1.38
  -3  -4   3    7.43    0.85
  -3  -4   3    6.52    1.03
   4  -3   3    6.81    1.73
   4  -4  -3    2.04    0.54
  -4   4  -3    4.09    1.10
   4  -4  -3    3.04    0.38
  -4  -4  -3    0.75    0.91
  -4  -4   3    2.22    0.47
  -4  -4   3    2.30    0.59
   4  -4   3    1.19    0.95
   4   4   3    3.56    1.25
   4  -5  -3    3.24    0.48
   4  -5  -3    2.84    0.78
  -4   5  -3    2.50    0.81
   5   4   3    2.10    1.19
  -5  -4   3    2.73    0.73
   4  -5   3    1.33    0.86
  -5  -4   3    3.07    0.53
  -3   5  -3   -0.10    0.32
  -5  -3  -3    0.42    0.65
   3  -5  -3    0.58    0.37
   3  -5   3   -0.28    0.47
   5   3   3   -0.44    0.47
  -5  -2  -3    1.24    0.80
   2  -5   3    1.03    1.08
   1  -5  -3   12.13    2.10
  -5  -1  -3   18.49    2.57
   5   1   3   17.02    2.60
   1  -5   3   18.66    2.25
   1  -5   3   15.63    2.02
  -1   5   3   17.73    1.84
  -5   0  -3  220.71   18.63
   0  -5   3  223.32   18.16
   0  -5   3  191.00   17.87
   5   0   3  189.58   18.68
  -1  -5  -3   11.32    2.13
  -5   1  -3   15.65    2.23
   5  -1   3   14.94    2.49
  -1  -5   3   18.61    2.04
  -1  -5   3   15.16    1.71
  -2  -5  -3    0.22    0.52
  -5   2  -3    0.61    0.61
  -2  -5   3    0.60    0.22
  -2  -5   3    0.51    0.49
   2   5   3    0.33    0.34
   5  -2   3   -0.37    0.62
  -5   3  -3    0.04    0.51
  -3  -5  -3   -0.03    0.56
   3   5   3    0.06    0.47
  -3  -5   3    0.14    0.43
  -3  -5   3   -0.22    0.16
   5  -3   3   -0.56    0.55
  -5   4  -3    2.22    1.07
  -4  -5  -3    1.88    1.07
   5  -4   3    1.68    1.15
  -4  -5   3    3.22    0.72
   4   5   3    2.78    1.07
  -5  -5  -3    0.32    0.52
   5  -5  -3    0.33    0.32
   5  -5  -3    0.35    0.25
   5   5   3   -0.51    0.67
  -5  -5   3   -0.27    0.39
   5  -5   3    0.83    0.62
   5  -6  -3   16.78    1.73
  -5   6  -3   15.33    2.37
   5  -6  -3   18.26    2.00
  -6  -5  -3   12.91    3.01
  -6  -5   3   14.47    1.73
   6   5   3   18.11    2.74
  -6  -5   3   18.37    2.29
   5  -6   3   13.26    2.34
   4  -6  -3    0.02    0.24
  -6  -4  -3    1.78    0.81
  -4   6  -3   -0.10    0.30
   4  -6  -3    0.16    0.44
  -6  -4   3    1.10    0.36
   6   4   3   -0.07    0.69
  -6  -4   3   -0.31    0.25
   4  -6   3    0.37    0.48
   3  -6  -3    8.85    1.49
   6   3   3   13.99    2.14
   3  -6   3    9.01    1.69
   2  -6  -3  229.51   18.82
   6   2   3  197.09   19.33
   2  -6   3  204.05   18.83
   2  -6   3  222.70   18.94
  -2   6   3  209.49   18.35
   1  -6  -3   56.49    6.58
   6   1   3   77.44    7.47
   1  -6   3   68.89    6.58
   1  -6   3   62.48    6.62
  -1   6   3   79.44    6.40
   0  -6   3   -0.05    0.45
   0  -6   3    0.03    0.31
   0   6   3   -0.10    0.29
   6   0   3   -0.57    0.63
  -1  -6   3   73.56    6.78
   1   6   3   72.59    6.70
   6  -1   3   69.97    7.52
  -1  -6   3   68.07    6.50
   6  -2   3  223.04   19.62
  -2  -6   3  216.50   18.68
  -2  -6   3  203.74   18.38
  -3  -6  -3    9.57    1.84
  -6   3  -3   10.52    1.78
   6  -3   3    9.55    2.29
   3   6   3   11.96    1.75
  -3  -6   3   10.39    1.21
  -3  -6   3    8.77    1.45
  -4  -6  -3    0.06    0.76
  -6   4  -3    0.10    0.49
  -4  -6   3    0.16    0.48
   6  -4   3    0.85    0.71
  -4  -6   3    0.69    0.31
   4   6   3    0.21    0.54
   6  -5  -3   17.82    2.18
   6  -5  -3   15.11    1.60
  -6   5  -3   15.13    2.34
  -5  -6   3   16.40    1.72
   5   6   3   15.31    2.47
  -5  -6   3   13.81    1.90
   6  -5   3   15.04    2.47
   6  -6  -3   54.89    5.13
   6  -6  -3   66.09    5.41
  -6  -6  -3   53.28    6.43
  -6   6  -3   60.51    5.95
  -6  -6   3   54.05    5.33
   6   6   3   52.61    6.08
  -6  -6   3   54.96    5.38
   6  -6   3   51.66    5.98
   6  -7  -3    2.74    0.89
  -7  -6  -3    2.05    1.26
  -6   7  -3    1.47    0.80
   6  -7  -3    1.47    0.82
   6  -7   3    1.19    0.69
   7   6   3    1.68    1.24
  -7  -6   3    0.55    0.71
   5  -7  -3    0.82    0.53
  -5   7  -3    0.77    0.59
  -7  -5  -3    0.75    0.86
   5  -7  -3    0.45    0.32
  -7  -5   3   -0.18    0.44
   7   5   3    1.76    1.15
   5  -7   3    0.85    0.67
  -7  -5   3    0.08    0.45
   4  -7  -3    0.48    0.44
   4  -7  -3    0.70    0.37
  -7  -4   3    0.58    0.35
   7   4   3    0.02    0.60
   4  -7   3   -0.13    0.63
  -7  -4   3    1.45    0.38
  -7  -3  -3   51.66    5.89
   3  -7  -3   49.28    4.94
   3  -7   3   45.63    5.11
   3  -7   3   43.64    5.13
   7   3   3   57.14    5.86
  -7  -2  -3    0.88    0.90
   2  -7  -3    0.45    0.51
   2  -7   3    0.54    0.56
   2  -7   3    0.47    0.59
  -2   7   3    0.94    0.48
   7   2   3    0.92    0.95
   1  -7  -3   35.43    4.09
  -7  -1  -3   38.77    4.76
  -1   7   3   40.79    3.87
   1  -7   3   32.92    3.93
   7   1   3   37.52    4.74
   1  -7   3   46.51    5.18
  -7   0  -3    6.81    1.98
   0  -7  -3    7.77    1.49
   0   7   3    6.86    1.17
   0  -7   3    7.61    1.14
   7   0   3    4.57    1.65
   0  -7   3    6.66    1.32
  -1  -7  -3   31.21    3.95
  -7   1  -3   30.30    4.05
  -1  -7   3   32.27    3.37
   7  -1   3   34.83    4.36
  -1  -7   3   37.87    3.76
  -2  -7  -3    2.55    0.74
  -2  -7   3    3.58    0.57
  -2  -7   3    2.34    0.89
   7  -2   3    2.41    1.09
  -7   3  -3   42.82    5.22
  -3  -7  -3   46.50    5.45
   7  -3   3   52.00    5.63
  -3  -7   3   48.91    4.51
  -3  -7   3   45.27    4.78
   3   7   3   52.47    5.16
  -7   4  -3   -0.72    0.51
  -4  -7  -3   -0.36    0.64
   4   7   3   -0.33    0.45
   7  -4   3    2.32    0.91
  -4  -7   3    0.34    0.58
   7  -5  -3    0.85    0.41
  -7   5  -3    1.64    0.88
  -5  -7   3    2.03    0.61
  -5  -7   3    1.41    0.50
   5   7   3   -0.10    0.59
   7  -5   3    0.89    0.74
   7  -6  -3    1.71    0.82
  -6  -7  -3    0.59    0.87
  -7   6  -3    2.81    1.06
   7  -6  -3    0.62    0.42
   7  -6   3    2.44    1.01
  -6  -7   3    1.40    0.75
  -6  -7   3    1.18    0.56
   6   7   3    1.39    0.91
  -7   7  -3   58.31    6.51
   7  -7  -3   54.17    5.59
  -7  -7  -3   58.22    6.80
   7  -7  -3   60.07    5.34
  -7  -7   3   54.59    5.40
   7   7   3   64.30    6.55
   7  -7   3   49.90    6.04
  -7   8  -3    7.71    1.89
   7  -8  -3    6.68    1.48
   7  -8  -3    4.79    1.05
  -8  -7  -3    5.15    2.00
   7  -8   3    3.59    1.17
   8   7   3    7.17    2.43
   6  -8  -3   26.27    2.85
   6  -8  -3   22.45    2.50
  -8  -6  -3   19.83    3.64
   8   6   3   28.37    3.59
   6  -8   3   23.77    3.23
  -8  -6   3   21.44    2.56
  -8  -5  -3    3.94    1.90
   5  -8  -3    5.08    1.25
   5  -8  -3    4.29    0.84
   8   5   3    7.59    2.06
   5  -8   3    3.56    1.26
  -8  -5   3    6.44    1.04
  -8  -4  -3    4.90    1.53
   4  -8  -3    3.11    1.09
   8   4   3    6.77    1.86
   4  -8   3    3.59    1.41
  -8  -4   3    4.85    0.84
  -8  -3  -3    3.11    1.23
   3  -8  -3    1.19    0.74
   3  -8   3    0.84    0.70
   8   3   3    2.29    1.20
   3  -8   3    0.66    0.51
  -8  -2  -3   11.61    2.34
   2  -8  -3   12.28    1.82
   8   2   3   13.03    2.79
   2  -8   3    9.82    1.74
   2  -8   3   10.69    1.62
  -2   8   3    8.75    1.41
   1  -8  -3    8.35    1.65
  -8  -1  -3   11.33    2.16
  -1   8   3    5.95    1.20
   8   1   3   11.65    2.68
   1  -8   3    7.21    1.39
   1  -8   3    8.61    1.57
  -8   0  -3    0.15    0.59
   0  -8  -3    0.23    0.64
   0  -8   3    0.19    0.58
   0  -8   3   -0.02    0.42
  -1  -8  -3   10.83    1.87
  -8   1  -3    7.69    1.84
   8  -1   3    7.94    2.01
   1   8   3    5.33    1.75
  -1  -8   3    7.79    1.54
  -1  -8   3    7.54    1.21
  -2  -8  -3    6.56    1.70
  -8   2  -3    6.29    1.80
   8  -2   3   10.54    2.15
  -2  -8   3   10.63    2.01
  -2  -8   3    9.72    1.67
   2   8   3    8.99    1.54
  -8   3  -3    1.05    0.67
  -3  -8  -3    2.33    0.79
  -3  -8   3   -0.29    0.58
   3   8   3    0.89    0.68
   8  -3   3    0.80    0.89
  -3  -8   3    0.70    0.41
  -8   4  -3    4.83    1.65
  -4  -8   3    4.36    0.77
   8  -4   3    6.08    1.64
   4   8   3    3.84    1.28
  -4  -8   3    5.22    1.25
  -8   5  -3    2.96    1.21
   8  -5  -3    4.66    0.83
   8  -5  -3    5.40    0.83
  -5  -8  -3    2.50    1.21
  -5  -8   3    7.11    0.93
  -5  -8   3    6.05    1.20
   5   8   3    3.74    1.37
   8  -5   3    2.95    1.34
  -8   6  -3   17.38    3.07
   8  -6  -3   21.70    2.34
  -6  -8  -3   22.02    3.57
   8  -6  -3   25.25    2.49
  -6  -8   3   20.22    2.42
  -6  -8   3   23.97    2.71
   6   8   3   24.45    3.32
   8  -7  -3    7.73    1.25
   8  -7  -3    5.46    1.00
  -7  -8  -3    2.99    1.67
  -8   7  -3    4.93    1.60
   7   8   3    2.24    1.51
   8  -7   3    5.22    1.74
  -8   8  -3    1.05    0.96
   8  -8  -3    1.22    1.30
   8   8   3   -0.56    0.92
   8  -8   3   -0.88    0.99
  -9  -8  -3   -0.57    1.10
   8  -9  -3    0.78    0.96
   9   8   3    0.65    1.48
   8  -9   3    0.84    1.22
  -9  -7  -3   -0.41    1.48
   7  -9  -3    3.00    1.21
   7  -9   3    1.65    1.23
   9   7   3    0.61    1.26
   9   6  -3   29.34    3.95
  -9  -6  -3   31.60    5.00
   6  -9  -3   46.35    4.46
   6  -9   3   42.12    4.84
   6  -9   3   36.43    4.46
   9   6   3   43.18    5.13
   9   5  -3    5.74    1.29
   5  -9  -3    8.71    1.21
   5  -9  -3    7.48    1.52
  -9  -5  -3    8.34    2.79
   9   5   3   11.60    2.32
   5  -9   3   10.87    1.85
  -9  -5   3    7.40    1.46
   5  -9   3    8.73    1.73
   4  -9  -3    1.00    0.55
  -9  -4  -3   -0.21    1.15
   4  -9  -3    0.68    0.69
   4  -9   3    2.10    1.14
   4  -9   3   -0.30    0.55
   9   4   3    1.97    1.47
  -9  -4   3    1.29    0.54
  -9  -3  -3    1.10    1.22
   3  -9  -3    3.24    1.09
   3  -9   3    2.14    1.00
   3  -9   3    2.97    1.00
   9   3   3    1.40    1.11
  -9  -2  -3    0.54    1.24
   2  -9  -3    1.46    0.79
  -2   9   3    0.72    0.49
   2  -9   3    1.02    0.77
   9   2   3    0.84    1.05
   2  -9   3    0.34    0.69
   1  -9  -3    0.63    0.63
  -9  -1  -3    0.80    0.94
   9   1   3   -0.44    1.00
  -1   9   3    0.19    0.39
   1  -9   3   -0.55    0.63
  -9   0  -3   25.23    3.57
   0   9   3   21.38    2.70
   0  -9   3   20.58    2.64
   9   0   3   22.08    3.44
   0  -9   3   25.81    2.90
  -9   1  -3    2.07    1.15
  -1  -9  -3    1.88    0.91
   1   9   3    1.76    0.55
  -1  -9   3    3.47    0.69
  -9   2  -3    0.81    1.04
  -2  -9  -3    0.79    0.70
   2   9   3    2.34    0.89
   9  -2   3    1.71    1.22
  -2  -9   3    1.23    0.51
  -2  -9   3    0.96    0.82
  -9   3  -3    2.97    1.44
  -3  -9  -3    2.08    1.04
   9  -3   3    3.06    1.59
   3   9   3    1.57    0.70
  -9   4  -3    1.49    0.92
   9  -4  -3    0.73    0.44
   9  -4  -3    0.70    0.38
   9  -4   3    1.28    1.19
  -4  -9   3    1.76    0.49
  -4  -9   3    0.86    0.78
   4   9   3    0.41    0.64
   9  -5  -3    9.06    1.27
  -5  -9  -3   12.61    2.91
   9  -5  -3    9.35    1.24
   9  -5   3    7.50    1.79
  -5  -9   3    9.05    1.53
   5   9   3   11.75    2.12
  -5  -9   3   10.23    1.70
  -9   6  -3   40.66    4.82
  -6  -9  -3   33.09    4.86
   9  -6  -3   36.10    3.68
   9  -6  -3   34.96    3.78
   6   9   3   36.78    4.69
  -6  -9   3   40.40    4.13
  -9   7  -3   -0.49    0.97
  -7  -9  -3    0.58    1.35
   9  -7   3    1.00    1.21
   7   9   3    1.77    1.08
  -7  -9   3    0.34    0.86
  -8  -9  -3   -0.29    1.23
   9  -8  -3   -0.77    0.78
  -9   8  -3   -1.87    1.00
   8   9   3   -0.93    1.06
   9  -8   3    1.33    1.09
  -9   9  -3   -1.82    1.26
   9  -9  -3   -1.51    0.98
  -9  -9  -3   -0.92    1.63
   9  -9   3    1.20    1.24
   9   9   3    1.49    1.45
 -10  -9  -3   -1.43    1.69
   9 -10  -3    2.31    1.34
  10   9   3    0.21    1.29
 -10  -8  -3   -0.90    1.83
   8 -10  -3    2.24    1.13
   8 -10   3    1.74    1.13
  10   8   3    1.91    1.38
 -10  -7  -3   10.47    3.11
   7 -10  -3   14.27    2.52
   7 -10   3   12.76    2.86
   7 -10   3   11.43    3.92
   6 -10  -3   -0.22    0.66
 -10  -6  -3    1.19    1.64
   6 -10   3   -0.12    1.24
  10   6   3    0.78    1.34
   6 -10   3   -0.35    1.05
   5 -10  -3    6.36    1.84
  10   5  -3    4.66    1.15
  10   5   3    7.21    2.12
   5 -10   3    8.00    1.88
   4 -10  -3   25.93    3.30
  10   4  -3   19.53    2.58
 -10  -4  -3   25.56    4.14
   4 -10   3   19.68    3.20
   4 -10   3   31.73    3.49
 -10  -4   3   27.88    2.64
  10   4   3   32.76    4.33
 -10  -3  -3    8.71    2.64
  10   3  -3    7.43    1.22
   3 -10  -3    9.68    1.89
 -10  -3   3    9.55    1.11
  10   3   3   15.27    2.67
   3 -10   3    8.15    1.91
   2 -10  -3   11.45    2.03
 -10  -2  -3   15.73    3.05
  10   2   3   15.39    2.71
  -2  10   3    9.06    1.59
   1 -10  -3   21.46    3.46
 -10  -1  -3   18.93    3.53
   1 -10   3   21.50    2.52
   1 -10   3   21.07    2.84
  10   1   3   25.50    3.48
  10   0   3    1.66    0.83
   0 -10   3    1.06    0.73
   0 -10   3    1.01    0.55
  -1 -10  -3   15.18    2.53
 -10   1  -3   16.30    3.15
  -1 -10   3   15.38    2.05
   1  10   3   13.34    2.14
  -2 -10  -3    9.80    2.06
 -10   2  -3    6.84    2.28
  -2 -10   3   13.17    2.04
  10  -2   3   15.13    2.60
  -2 -10   3   10.19    1.58
   2  10   3   11.54    1.91
 -10   3  -3    9.51    2.61
  -3 -10   3    7.59    1.81
   3  10   3    9.55    2.12
  10  -3   3    8.63    2.32
  10  -4  -3   20.76    2.22
  10  -4  -3   22.71    2.33
 -10   4  -3   19.56    3.42
  -4 -10  -3   22.37    3.36
   4  10   3   21.27    3.03
  -4 -10   3   21.84    2.93
  10  -4   3   24.22    3.59
  10  -5  -3    6.44    1.12
 -10   5  -3    3.77    1.81
  -5 -10  -3    4.87    1.95
  10  -5  -3    5.55    1.11
  -5 -10   3    7.76    1.63
   5  10   3    6.16    1.77
  10  -5   3    7.31    2.14
  -6 -10  -3    0.68    1.34
  10  -6  -3    0.01    0.62
 -10   6  -3   -1.20    1.29
  -6 -10   3    1.83    0.86
  10  -6   3    2.40    1.02
   6  10   3    0.60    0.81
 -10   7  -3   14.41    3.03
  10  -7  -3   10.94    1.92
  -7 -10  -3    8.27    2.41
   7  10   3   12.86    2.91
  10  -7   3   11.03    2.47
  -7 -10   3   11.64    2.10
  -8 -10  -3   -2.26    1.42
  10  -8  -3    1.23    1.06
 -10   8  -3   -2.17    1.22
   8  10   3    0.24    1.12
  -9 -10  -3   -2.99    1.81
 -10   9  -3   -0.10    1.72
  10  -9  -3    2.48    1.10
   9  10   3   -1.24    1.22
  10  -9   3    0.72    1.44
  10 -10   3    3.30    1.97
   9 -11  -3   -0.26    2.00
 -11  -8  -3   -0.56    2.23
  11   8   3    3.30    2.10
   8 -11   3    5.04    1.56
 -11  -7  -3  112.86   12.13
   7 -11  -3  102.21   10.94
   7 -11   3  125.22   11.41
 -11  -6  -3    3.41    2.41
   6 -11  -3    5.30    1.68
   6 -11   3    2.09    1.45
  11   6   3    1.97    1.81
 -11  -5  -3   -0.02    1.82
   5 -11  -3    1.29    1.10
  11   5   3    2.37    1.65
   5 -11   3   -0.85    0.89
   4 -11  -3   14.11    2.52
 -11  -4  -3   12.86    3.14
   4 -11   3   11.99    2.31
   3 -11  -3  141.28   12.53
  11   3  -3  126.29   11.52
   3 -11   3  125.74   12.36
 -11  -2  -3    0.66    1.19
   2 -11  -3   -0.16    0.94
 -11  -2   3   -0.22    0.45
   2 -11   3    0.20    0.95
  -2  11   3    0.24    0.43
  11   2   3    1.97    1.31
 -11  -1  -3   27.00    4.19
   1 -11  -3   29.71    3.60
  11   1   3   24.38    3.92
  -1  11   3   20.87    2.99
   1 -11   3   25.39    3.22
 -11   0  -3    1.85    1.52
   0 -11  -3    3.41    1.16
  11   0   3    0.81    1.44
   0  11   3    2.92    1.09
   0 -11   3    2.82    1.10
 -11   1  -3   27.15    4.06
  -1 -11  -3   18.21    3.19
   1  11   3   25.42    3.11
  -1 -11   3   21.36    2.98
  11  -1   3   21.54    3.65
  -2 -11  -3    1.80    1.10
   2  11   3    1.91    0.66
  11  -2   3    2.47    1.39
  11  -3  -3  130.94   11.41
 -11   3  -3  153.06   13.46
  11  -3  -3  115.23   11.36
  -3 -11   3  143.98   12.36
  11  -3   3  142.95   13.25
   3  11   3  113.25   12.36
  11  -4  -3   13.05    2.24
  11  -4  -3    9.88    1.60
  -4 -11  -3   15.68    3.23
 -11   4  -3   12.21    3.02
  11  -4   3   18.94    3.11
   4  11   3   11.55    2.41
  -5 -11  -3   -0.75    0.80
  11  -5   3    3.20    1.40
  -5 -11   3    1.40    0.89
   5  11   3    0.75    0.98
  11  -6  -3    3.14    1.13
  -6 -11  -3    3.58    1.97
 -11   6  -3    2.21    1.89
   6  11   3    1.19    1.35
  -6 -11   3    2.65    1.28
  -7 -11  -3  121.26   12.30
  11  -7  -3  118.40   11.06
 -11   7  -3  112.55   11.98
   7  11   3  129.35   12.24
  -7 -11   3   99.33   11.05
  11  -7   3  134.65   12.22
  11  -8  -3    1.10    1.25
  -8 -11  -3    0.07    1.86
 -11   8  -3    1.35    1.82
  11  -8   3    4.04    1.89
   8  11   3    0.16    1.72
 -11   9  -3   -0.76    2.92
  11  -9  -3   -1.25    1.52
  11  -9   3    6.24    1.88
   7 -12  -3   11.36    3.00
 -12  -7  -3    8.73    3.74
   7 -12   3   10.50    3.60
   6 -12  -3   15.97    3.30
 -12  -6  -3   12.02    3.53
  12   6   3   22.12    4.17
   6 -12   3   24.26    3.29
   5 -12  -3    6.21    1.97
 -12  -5  -3   10.44    3.30
   5 -12   3    3.10    1.89
  12   5   3    7.70    2.59
 -12  -4  -3   -0.36    1.98
   4 -12  -3    2.21    1.46
   4 -12   3    1.38    1.30
  12   4   3    4.99    1.94
 -12  -3  -3    0.86    1.79
   3 -12  -3    3.28    1.45
   3 -12   3    4.07    1.64
  12   3   3    4.87    2.04
 -12  -2  -3   24.61    4.61
  12   2   3   29.78    4.20
   2 -12   3   21.31    3.34
 -12  -1  -3    1.16    2.01
   1 -12  -3    3.77    1.23
   1 -12   3    1.00    0.99
  -1  12   3    0.64    0.68
   0 -12  -3   -0.27    1.02
 -12   0  -3   -0.35    1.55
  12   0   3    4.42    1.58
   0  12   3    1.13    0.61
   0 -12   3    0.83    0.94
  -1 -12  -3    3.81    1.29
 -12   1  -3    0.42    1.71
  -1 -12   3    0.99    1.08
   1  12   3    0.96    0.67
  12  -1   3    2.13    1.37
  12  -2  -3   16.46    2.13
 -12   2  -3   21.17    4.04
  -2 -12   3   16.17    2.73
   2  12   3   21.06    2.78
  -3 -12  -3    2.73    1.66
 -12   3  -3    0.19    1.89
   3  12   3    1.44    1.26
  -3 -12   3    1.47    1.28
  12  -3   3    5.75    1.89
  12  -4  -3    1.33    0.80
  -4 -12  -3    1.33    1.62
 -12   4  -3   -2.13    1.59
  -4 -12   3    0.25    1.09
  12  -4   3    2.61    1.54
 -12   5  -3    3.46    2.18
  -5 -12  -3    1.96    2.33
  12  -5  -3    5.16    1.46
   5  12   3    4.37    1.70
  -5 -12   3    9.19    1.94
  12  -5   3    7.43    2.41
  12  -6  -3   12.18    2.18
 -12   6  -3   14.68    3.71
   6  12   3   15.84    3.12
  12  -6   3   10.28    2.81
  -6 -12   3   12.81    2.46
  12  -7  -3    5.59    1.64
 -12   7  -3    7.82    3.80
  12  -7   3    6.84    1.92
  -7 -12   3    4.79    1.74
  12  -8  -3   -1.36    1.38
 -13  -6  -3   -1.04    3.04
  13   6   3   11.27    2.83
 -13  -5  -3   -1.26    2.50
   5 -13  -3    0.47    2.61
  13   5   3    2.37    2.08
 -13  -4  -3    4.18    3.75
   4 -13  -3   -2.36    1.65
   4 -13   3    0.03    1.50
  13   4   3    2.75    1.73
 -13  -3  -3    0.81    1.90
   3 -13  -3   -1.11    1.65
  13   3   3    2.99    1.71
   3 -13   3   -1.62    1.22
   2 -13  -3    0.15    1.37
 -13  -2  -3    2.40    1.85
   2 -13   3    0.96    1.25
  13   2   3    0.42    1.66
   1 -13  -3   -0.82    1.29
 -13  -1  -3    1.65    2.39
  13   1   3    1.12    1.69
  -1  13   3    0.97    0.78
   1 -13   3    0.16    0.80
 -13   0  -3    0.63    2.01
   0 -13  -3    1.94    1.35
   0  13   3    1.97    0.83
  13   0   3    7.09    2.10
   0 -13   3    1.17    1.07
  -1 -13  -3   -0.20    1.41
 -13   1  -3    0.09    2.07
  13  -1   3   -0.61    1.55
   1  13   3    0.38    0.89
  -1 -13   3   -0.70    1.11
 -13   2  -3    2.36    2.25
  -2 -13   3    2.16    1.22
  13  -2   3    4.04    1.73
 -13   3  -3    0.24    1.86
  13  -3   3   -1.98    1.53
  -3 -13   3   -0.80    1.57
   3  13   3    0.93    1.09
  -4 -13  -3   -0.98    1.87
 -13   4  -3   -1.37    1.94
   4  13   3    1.18    1.26
  -4 -13   3    3.07    1.23
  13  -5  -3   -1.52    1.30
  13  -5   3    1.60    1.74
  13  -6  -3    3.93    1.66
 -13   6  -3    4.14    3.57
  13  -6   3    8.49    2.07
  13  -7  -3   -1.47    1.74
 -14  -3  -3   -4.99    2.80
 -14  -2  -3    3.33    3.02
  14   2   3    4.80    1.85
 -14  -1  -3   25.29    4.93
  14   1   3   14.98    3.62
 -14   0  -3   -1.88    2.23
  14   0   3    5.45    2.17
 -14   1  -3   20.95    4.60
  14  -1   3   21.50    3.88
 -14   2  -3    8.31    3.87
  14  -2   3    6.95    2.31
  14  -4   3   12.30    4.30
  14  -5  -3   -1.61    1.23
   0   0  -4  623.10   55.46
   0   0   4  689.74   55.45
   0  -1  -4    0.23    0.33
  -1   0  -4   -0.07    0.30
   0  -1   4   -0.58    0.35
   0   1   4    0.23    0.32
   1   0   4   -0.62    0.47
  -1   1  -4    3.11    0.69
  -1  -1  -4    3.38    0.78
   1   1   4    4.91    1.03
  -1  -1   4    2.79    0.44
   1  -1   4    2.79    0.92
  -1   2  -4    0.40    0.33
  -2  -1  -4   -0.18    0.43
   1  -2  -4    0.11    0.19
   2   1   4    0.32    0.51
   1  -2   4   -0.08    0.70
  -1   2   4    0.23    0.17
  -2   0  -4    0.58    0.51
   0  -2  -4    1.02    0.62
   0  -2   4    1.61    0.50
   0   2   4    0.33    0.36
   0  -2   4    0.67    0.65
  -1  -2  -4    0.73    0.45
  -2   1  -4    0.36    0.41
   2  -1   4    2.49    0.82
  -1  -2   4    0.71    0.36
   1   2   4    0.67    0.50
  -1  -2   4    0.66    0.23
  -2   2  -4    0.37    0.40
  -2  -2  -4    1.20    0.60
   2   2   4   -0.03    0.57
  -2   3  -4    2.86    0.72
  -3  -2  -4    3.30    1.05
   2  -3   4    3.66    1.29
   3   2   4    1.49    0.74
   1  -3  -4    0.46    0.31
  -3  -1  -4    1.06    0.64
   1  -3   4    1.08    0.74
   3   1   4    0.95    0.69
  -1   3   4    1.89    0.37
  -3   0  -4    0.61    0.46
   3   0   4    0.10    0.62
   0   3   4    0.18    0.31
  -1  -3  -4    0.59    0.52
  -1  -3   4    0.09    0.59
   1   3   4    1.59    0.43
   3  -1   4    1.02    0.80
  -2  -3  -4    2.49    0.93
  -3   2  -4    3.53    0.89
   3  -2   4    1.59    0.92
   2   3   4    2.82    0.76
  -3  -3  -4    4.75    1.30
   3  -3   4    5.16    1.63
  -4  -3  -4    7.11    1.80
  -3   4  -4    8.08    1.21
   3  -4   4    5.60    1.67
   4   3   4    8.12    1.88
  -4  -2  -4    0.50    0.62
   4   2   4    0.33    0.73
   2  -4   4    3.14    0.81
   1  -4  -4   11.92    1.45
  -4  -1  -4   12.51    2.04
  -1   4   4   11.20    1.30
   1  -4   4   11.00    1.61
   4   1   4   11.53    2.10
   1  -4   4    9.26    2.23
  -4   0  -4  132.84   12.04
   0  -4  -4  128.32   11.93
   0   4   4  120.86   11.32
   4   0   4  135.79   12.32
   0  -4   4  132.22   11.45
  -4   1  -4   13.34    1.93
  -1  -4  -4   13.63    2.01
   1   4   4   13.95    1.65
  -1  -4   4   12.58    1.40
   4  -1   4   10.16    2.27
  -1  -4   4   10.45    1.71
  -4   2  -4   -0.40    0.40
  -2  -4  -4   -0.71    0.69
   4  -2   4    0.16    0.88
   2   4   4    0.15    0.39
  -2  -4   4   -0.31    0.39
  -2  -4   4    0.01    0.24
  -4   3  -4    8.27    1.37
  -3  -4  -4    7.14    1.81
   4  -3   4    4.89    1.78
   3   4   4    7.65    1.44
  -4   4  -4   33.87    3.59
  -4  -4  -4   33.40    4.34
   4  -4   4   25.77    4.08
   4   4   4   30.08    3.66
  -4   5  -4   17.51    2.40
  -5  -4  -4   19.36    3.25
   4  -5   4   14.97    2.82
   5   4   4   18.38    2.73
  -5  -3  -4    1.14    1.12
   3  -5   4    3.71    1.17
   5   3   4    1.06    0.96
   2  -5  -4    4.54    0.84
  -5  -2  -4    4.60    1.64
   2  -5   4    2.89    0.97
   5   2   4    6.74    1.33
   2  -5   4    4.41    1.47
   1  -5  -4   17.15    2.40
   1  -5   4   22.48    2.82
   1  -5   4   21.30    2.41
  -1   5   4   19.13    2.12
   5   1   4   23.49    3.00
   0  -5  -4    0.38    0.65
  -5   0  -4    1.86    0.61
   0  -5   4    3.18    0.86
   0  -5   4    1.09    0.34
   5   0   4    0.68    0.71
  -1  -5  -4   20.53    2.81
  -5   1  -4   21.74    2.88
   5  -1   4   22.93    3.10
   1   5   4   22.72    2.50
  -1  -5   4   23.07    2.30
  -2  -5  -4    4.76    1.62
  -5   2  -4    2.78    1.10
  -2  -5   4    4.57    0.74
   2   5   4    6.03    1.13
  -5   3  -4    2.99    1.16
  -3  -5  -4    0.38    1.20
   5  -3   4    0.65    0.99
   3   5   4    4.69    1.12
  -3  -5   4    2.68    0.84
  -5   4  -4   16.07    3.04
  -4  -5  -4   16.36    3.09
   5  -4   4   15.76    2.87
   4   5   4   17.25    2.52
  -5  -5  -4  212.46   19.95
  -5   5  -4  224.99   17.80
   5  -5   4  169.43   18.06
   5   5   4  180.97   17.76
  -6  -5  -4   18.45    3.56
  -5   6  -4   14.63    2.42
   6   5   4   18.60    2.63
   5  -6   4   19.10    3.07
  -6  -4  -4    1.10    1.37
   4  -6   4    1.87    1.13
   6   4   4    6.47    2.09
   3  -6  -4    6.17    0.90
  -6  -3  -4    5.04    1.78
   3  -6  -4    4.50    0.70
   3  -6   4    6.62    1.66
  -6  -2  -4   -1.18    0.79
   6   2   4   -0.73    0.80
  -6  -1  -4    6.49    1.95
   1  -6  -4    5.61    1.49
   1  -6   4    6.18    1.51
   6   1   4    7.28    2.13
  -1   6   4    5.35    0.95
  -6   0  -4    2.17    1.36
   0  -6  -4    2.68    1.24
   0   6   4    2.55    0.87
   6   0   4    2.99    1.32
   0  -6   4    5.35    1.24
  -6   1  -4    5.08    1.66
  -1  -6  -4    5.14    1.63
  -1  -6   4    8.08    1.44
   6  -1   4    5.35    2.38
   1   6   4    5.95    1.13
  -1  -6   4    9.01    1.70
  -2  -6  -4    0.03    0.95
   2   6   4    0.55    0.62
  -2  -6   4    1.00    0.71
   6  -2   4   -1.04    1.58
  -2  -6   4    1.45    0.39
  -3  -6  -4    2.08    1.51
  -6   3  -4    3.06    1.12
   6  -3   4    4.70    1.63
   3   6   4    3.93    1.18
  -3  -6   4    3.93    1.03
   6  -4   4    3.89    1.58
  -4  -6   4    7.51    1.05
   4   6   4    5.68    1.45
  -4  -6   4    6.38    0.91
  -5  -6  -4   18.61    4.97
  -6   5  -4   13.23    2.50
   6  -5   4   21.57    2.81
   5   6   4   19.80    2.48
  -6  -6  -4    4.73    2.14
  -6   6  -4    5.86    1.51
   6   6   4    4.03    1.56
   6  -6   4    4.99    1.67
  -7  -6  -4    7.10    2.57
   7   6   4    2.80    1.47
   6  -7   4    2.52    1.62
  -7  -5  -4   -0.27    1.68
   7   5   4    3.58    1.38
   5  -7   4    1.01    1.16
  -7  -4  -4    3.41    2.08
   4  -7  -4    3.34    1.00
   7   4   4    5.02    1.67
   3  -7  -4    1.47    0.71
   3  -7   4    3.25    1.13
   7   3   4    1.34    0.71
  -7  -2  -4   -0.95    1.17
   2  -7  -4   -0.11    0.90
   2  -7   4   -0.13    0.90
  -7  -1  -4    0.12    1.21
  -1   7   4    0.52    0.39
   1  -7   4    0.65    0.86
  -7   0  -4   -1.16    0.98
   7   0   4    2.15    0.85
   0  -7   4   -0.38    0.89
  -7   1  -4   -0.85    1.01
   7  -1   4    3.37    1.09
   1   7   4    1.18    0.61
  -1  -7   4    0.90    1.08
  -7   2  -4    2.34    1.47
  -2  -7  -4    0.69    1.10
  -2  -7   4    0.36    0.81
   2   7   4    0.96    0.62
   3   7   4    2.62    0.84
   7  -3   4    4.28    1.24
  -3  -7   4    3.20    0.97
  -4  -7  -4    5.42    2.13
  -4  -7   4    7.43    1.32
   7  -4   4    3.78    1.65
   4   7   4    8.79    1.50
  -7   5  -4    2.52    1.33
  -5  -7  -4    4.58    1.74
   7  -5   4    2.57    1.39
  -7   6  -4    3.52    1.25
  -6  -7  -4    3.76    2.18
   7  -6   4    1.81    1.34
   6   7   4    3.42    1.57
  -7  -7  -4    0.87    1.89
  -7   7  -4   -1.63    1.16
   7   7   4    1.38    1.27
   7  -7   4    4.95    1.96
   7  -8   4    5.27    2.43
   6  -8   4   -0.92    1.17
   8   6   4    0.08    1.21
   5  -8  -4    4.55    1.26
   5  -8   4    4.36    1.82
   8   5   4    6.98    2.03
  -8  -4  -4   27.33    5.19
   4  -8  -4   16.30    2.69
   4  -8   4   25.74    3.43
  -8  -3  -4   14.54    3.30
   3  -8  -4    7.34    1.89
   8   3   4    8.28    2.04
   3  -8   4   12.53    2.53
  -8  -2  -4    4.04    1.60
   8   2   4    7.46    2.09
   2  -8   4    5.41    1.61
   1  -8  -4    7.77    2.29
  -8  -1  -4    8.69    2.23
  -1   8   4    8.66    1.46
   8   1   4    6.80    1.80
   1  -8   4    6.20    1.80
   0  -8  -4   17.31    3.19
  -8   0  -4   19.91    3.50
   0  -8   4   21.70    2.97
  -8   1  -4    8.00    2.08
  -1  -8  -4    3.95    1.94
   1   8   4    6.67    1.30
   8  -1   4    7.51    1.86
  -8   2  -4    6.61    1.84
  -2  -8  -4    2.60    1.68
   8  -2   4    3.56    1.33
  -2  -8   4    4.53    1.41
  -3  -8  -4   10.25    2.58
   8  -3   4    8.87    2.46
  -3  -8   4    9.88    1.96
   3   8   4   10.61    2.19
  -4  -8  -4   20.27    3.87
  -4  -8   4   24.37    2.83
   8  -4   4   20.03    3.33
   4   8   4   22.02    3.17
  -5  -8  -4    3.26    2.48
   5   8   4    5.75    2.14
  -5  -8   4    9.11    1.49
   8  -5   4    6.99    2.33
  -6  -8  -4    3.21    2.01
   8  -6   4    3.66    1.60
  -7  -8  -4   -1.38    3.00
   8  -7   4    1.84    2.40
   6  -9  -4   -2.14    1.73
   5  -9  -4   46.28    5.54
   5  -9   4   64.15    6.50
   4  -9  -4   -0.20    1.18
  -9  -4  -4   -0.67    1.80
   4  -9   4    1.39    1.76
   9   4   4    0.84    1.37
  -9  -3  -4    4.72    2.77
   3  -9  -4    3.80    1.62
   9   3   4    8.21    2.31
   3  -9   4    5.27    1.60
  -9  -2  -4   -1.70    1.38
   2  -9  -4   -1.91    1.17
   9   2   4    1.68    1.54
   2  -9   4    0.41    1.16
  -9  -1  -4    3.31    1.86
   1  -9  -4    4.80    1.95
  -1   9   4    2.44    1.29
   1  -9   4    2.73    1.60
   9   1   4    6.94    2.04
   0  -9  -4   -0.24    1.45
  -9   0  -4   -0.58    1.50
   0   9   4    0.08    0.53
   9   0   4   -0.35    1.16
   0  -9   4   -0.05    1.11
  -9   1  -4    2.75    1.74
  -1  -9  -4    6.23    2.23
   9  -1   4    3.15    1.96
  -1  -9   4    6.48    1.69
   1   9   4    4.54    1.23
  -2  -9  -4    0.81    1.57
  -9   2  -4   -0.41    1.10
   2   9   4    0.56    0.66
  -2  -9   4   -0.81    1.43
  -3  -9  -4    5.28    1.96
  -9   3  -4    4.88    2.11
   3   9   4    5.93    1.69
  -3  -9   4    6.70    1.66
   9  -3   4    9.03    2.77
  -9   4  -4   -0.39    1.46
  -4  -9  -4   -1.15    1.88
  -4  -9   4    1.70    1.00
   4   9   4   -1.57    0.82
   9  -4   4    0.88    1.38
   9  -5   4   64.14    8.06
  -5  -9   4   73.49    7.20
   5   9   4   84.90    8.56
  -7  -9   4   13.86    2.22
  -8  -9   4    6.79    2.15
   7 -10  -4    2.03    1.60
   6 -10  -4   -1.58    1.54
   5 -10  -4    1.94    1.70
   4 -10  -4    8.44    2.33
   3 -10  -4    7.71    2.09
   3 -10   4    5.98    1.91
  10   3   4    8.37    2.34
 -10  -2  -4   -2.36    1.88
   2 -10  -4    3.14    1.99
  10   2   4    2.26    1.66
   2 -10   4   -1.35    1.07
   1 -10  -4   25.93    3.99
  10   1   4   29.34    4.39
  -1  10   4   21.75    3.50
   1 -10   4   20.09    3.52
   0 -10  -4   62.40    6.58
   0  10   4   43.59    5.10
  10  -1   4   27.22    4.30
   1  10   4   19.93    2.77
  -2 -10  -4    2.12    1.64
 -10   2  -4   -1.64    1.69
   2  10   4    0.67    0.84
  10  -2   4   -0.56    1.70
  -3 -10  -4    4.68    2.82
  -3 -10   4    6.91    2.02
  10  -3   4    8.33    2.61
   3  10   4    9.18    1.76
  -4 -10   4   16.46    3.03
  -5 -10   4   13.18    2.34
  -6 -10   4   19.72    2.68
  -8 -10   4   14.96    2.97
   5 -11  -4   -1.01    1.99
   4 -11  -4   -0.54    1.96
   3 -11  -4   -0.37    1.92
   2 -11  -4   35.54    7.83
   1 -11  -4    3.78    2.63
  -1  11   4    2.39    0.88
   0 -11  -4   -3.66    2.01
   0 -11   4    1.40    1.99
   0  11   4    3.08    0.89
  -1 -11   4    3.15    1.43
  -2 -11   4   29.63    4.32
  -3 -11   4    1.05    1.52
   1   0   5   13.29    1.57
  -1  -1  -5   -0.22    0.51
   1  -2   5   13.07    1.81
   2   1   5   11.28    1.47
   2  -1   5   11.13    1.50
  -2  -2  -5   58.49    5.80
   2  -2   5   65.20    5.77
   2   2   5   56.93    5.60
  -3  -2  -5    2.03    0.99
   3   2   5    0.97    0.84
  -3  -1  -5    8.27    1.77
   3   1   5   12.40    1.82
  -3   0  -5    5.33    1.32
   3   0   5    6.17    1.36
  -1  -3  -5    7.98    1.46
  -3   1  -5    7.76    1.56
   3  -1   5   11.14    1.84
  -3   2  -5    1.76    0.84
   3  -2   5    1.43    1.06
  -3  -3  -5   13.83    2.59
   3   3   5   19.48    2.37
   3  -3   5   20.49    2.77
  -4  -3  -5    2.05    1.69
   3  -4   5    3.44    1.69
  -4  -1  -5   19.85    2.91
   1  -4   5   25.01    2.62
   4   1   5   19.13    2.85
   0  -4  -5    0.21    0.45
  -4   0  -5   -0.77    0.78
   4   0   5   -0.84    0.90
  -1  -4  -5   14.07    2.11
  -4   1  -5   16.14    2.41
   4  -1   5   17.33    2.58
  -4   2  -5    0.87    1.06
  -4   3  -5    1.57    1.15
  -3  -4  -5    2.01    1.52
   4  -3   5    6.88    1.82
   3   4   5    4.02    1.13
  -4  -4  -5    2.30    1.87
   4  -4   5    5.95    1.84
   4   4   5    4.53    1.25
  -5  -3  -5   -4.69    2.64
   5   2   5    4.84    1.52
  -5  -1  -5    2.63    1.77
   5   1   5    7.06    1.95
   0  -5  -5   51.59    4.72
  -5   0  -5   54.96    5.84
   5   0   5   49.79    6.00
   0  -5   5   44.99    4.80
  -5   1  -5    2.16    1.61
  -1  -5  -5    4.94    1.39
   5  -1   5    5.61    1.80
  -2  -5  -5   -0.64    1.12
   3   5   5    1.67    0.86
   2  -6   5   65.68    6.69
   1  -6   5   43.58    4.43
  -1  -6  -5   18.45    2.76
  -2  -6  -5   62.54    6.97
   2   6   5   67.02    6.30
  -3  -6  -5    2.05    3.75
   1  -7   5   27.06    3.48
   0  -7  -5    2.27    1.27
  -1  -7   5   20.55    3.28
   1   7   5   25.01    3.12
   0   8   5    0.32    0.64
  -1  -8   5   23.04    3.26
   0   0   0    0.00    0.00
;
_shelx_hkl_checksum              23403
loop_
_space_group_symop_operation_xyz
'x, y, z'
'-y+1/2, x+1/2, z+1/2'
'-x, -y, z'
'y+1/2, -x+1/2, z+1/2'
'x+1/2, -y+1/2, -z+1/2'
'y, x, -z'
'-x+1/2, y+1/2, -z+1/2'
'-y, -x, -z'
'-x, -y, -z'
'y-1/2, -x-1/2, -z-1/2'
'x, y, -z'
'-y-1/2, x-1/2, -z-1/2'
'-x-1/2, y-1/2, z-1/2'
'-y, -x, z'
'x-1/2, -y-1/2, z-1/2'
'y, x, z'
loop_
_atom_site_label
_atom_site_type_symbol
_atom_site_fract_x
_atom_site_fract_y
_atom_site_fract_z
_atom_site_U_iso_or_equiv
_atom_site_adp_type
_atom_site_occupancy
_atom_site_site_symmetry_order
_atom_site_calc_flag
_atom_site_refinement_flags_posn
_atom_site_refinement_flags_adp
_atom_site_refinement_flags_occupancy
_atom_site_disorder_assembly
_atom_site_disorder_group
Cs1 Cs 0.11100(10) 0.11100(10) 0.0000 0.0095(4) Uani 1 4 d S T P . .
Cu1 Cu 0.4200(2) 0.2086(2) 0.0000 0.0220(7) Uani 1 2 d S T P . .
Cu2 Cu 0.01602(19) 0.3958(2) 0.0000 0.0121(6) Uani 1 2 d S T P . .
Cu3 Cu -0.1843(2) 0.1843(2) 0.0000 0.0338(13) Uani 1 4 d S T P . .
Se1 Se 0.10996(15) 0.33407(15) -0.5000 0.0079(5) Uani 1 2 d S T P . .
Se2 Se 0.38411(15) 0.38411(15) 0.0000 0.0077(6) Uani 1 4 d S T P . .
loop_
_atom_site_aniso_label
_atom_site_aniso_U_11
_atom_site_aniso_U_22
_atom_site_aniso_U_33
_atom_site_aniso_U_23
_atom_site_aniso_U_13
_atom_site_aniso_U_12
Cs1 0.0090(6) 0.0090(6) 0.0105(8) 0.000 0.000 0.0011(6)
Cu1 0.0243(16) 0.0080(13) 0.0337(18) 0.000 0.000 0.0015(11)
Cu2 0.0081(12) 0.0125(13) 0.0157(13) 0.000 0.000 0.0010(10)
Cu3 0.047(2) 0.047(2) 0.0083(19) 0.000 0.000 0.028(2)
Se1 0.0070(9) 0.0074(10) 0.0093(10) 0.000 0.000 -0.0006(7)
Se2 0.0058(8) 0.0058(8) 0.0115(13) 0.000 0.000 0.0004(10)
loop_
_atom_type_symbol
_atom_type_description
_atom_type_scat_dispersion_real
_atom_type_scat_dispersion_imag
_atom_type_scat_source
Cs Cs -0.3680 2.1192 'International Tables Vol C Tables 4.2.6.8 and 6.1.1.4'
Cu Cu 0.3201 1.2651 'International Tables Vol C Tables 4.2.6.8 and 6.1.1.4'
Se Se -0.0929 2.2259 'International Tables Vol C Tables 4.2.6.8 and 6.1.1.4'
loop_
_geom_angle_atom_site_label_1
_geom_angle_atom_site_label_2
_geom_angle_atom_site_label_3
_geom_angle
_geom_angle_site_symmetry_1
_geom_angle_site_symmetry_3
_geom_angle_publ_flag
Se1 Cs1 Se1 71.64(6) 6 1_556 ?
Se1 Cs1 Se1 69.07(4) 6 6_554 ?
Se1 Cs1 Se1 109.13(7) 1_556 6_554 ?
Se1 Cs1 Se1 109.13(7) 6 . ?
Se1 Cs1 Se1 69.07(4) 1_556 . ?
Se1 Cs1 Se1 71.64(6) 6_554 . ?
Se1 Cs1 Se2 179.08(5) 6 10_565 ?
Se1 Cs1 Se2 107.44(4) 1_556 10_565 ?
Se1 Cs1 Se2 111.38(3) 6_554 10_565 ?
Se1 Cs1 Se2 70.39(3) . 10_565 ?
Se1 Cs1 Se2 107.44(4) 6 2_544 ?
Se1 Cs1 Se2 179.08(5) 1_556 2_544 ?
Se1 Cs1 Se2 70.39(3) 6_554 2_544 ?
Se1 Cs1 Se2 111.38(3) . 2_544 ?
Se2 Cs1 Se2 73.48(7) 10_565 2_544 ?
Se1 Cs1 Se2 111.38(3) 6 10_566 ?
Se1 Cs1 Se2 70.39(3) 1_556 10_566 ?
Se1 Cs1 Se2 179.08(5) 6_554 10_566 ?
Se1 Cs1 Se2 107.44(4) . 10_566 ?
Se2 Cs1 Se2 68.15(4) 10_565 10_566 ?
Se2 Cs1 Se2 110.09(6) 2_544 10_566 ?
Se1 Cs1 Se2 70.39(3) 6 2_545 ?
Se1 Cs1 Se2 111.38(3) 1_556 2_545 ?
Se1 Cs1 Se2 107.44(4) 6_554 2_545 ?
Se1 Cs1 Se2 179.08(5) . 2_545 ?
Se2 Cs1 Se2 110.09(6) 10_565 2_545 ?
Se2 Cs1 Se2 68.15(4) 2_544 2_545 ?
Se2 Cs1 Se2 73.48(7) 10_566 2_545 ?
Se1 Cs1 Cu2 105.32(6) 6 . ?
Se1 Cs1 Cu2 38.49(3) 1_556 . ?
Se1 Cs1 Cu2 105.32(6) 6_554 . ?
Se1 Cs1 Cu2 38.49(3) . . ?
Se2 Cs1 Cu2 73.81(5) 10_565 . ?
Se2 Cs1 Cu2 142.30(3) 2_544 . ?
Se2 Cs1 Cu2 73.81(5) 10_566 . ?
Se2 Cs1 Cu2 142.30(3) 2_545 . ?
Se1 Cs1 Cu2 38.49(3) 6 6 ?
Se1 Cs1 Cu2 105.32(6) 1_556 6 ?
Se1 Cs1 Cu2 38.49(3) 6_554 6 ?
Se1 Cs1 Cu2 105.32(6) . 6 ?
Se2 Cs1 Cu2 142.30(3) 10_565 6 ?
Se2 Cs1 Cu2 73.81(5) 2_544 6 ?
Se2 Cs1 Cu2 142.30(3) 10_566 6 ?
Se2 Cs1 Cu2 73.81(4) 2_545 6 ?
Cu2 Cs1 Cu2 126.88(9) . 6 ?
Se1 Cs1 Cu1 78.18(4) 6 2_544 ?
Se1 Cs1 Cu1 143.64(7) 1_556 2_544 ?
Se1 Cs1 Cu1 39.02(5) 6_554 2_544 ?
Se1 Cs1 Cu1 103.49(4) . 2_544 ?
Se2 Cs1 Cu1 102.68(5) 10_565 2_544 ?
Se2 Cs1 Cu1 35.61(5) 2_544 2_544 ?
Se2 Cs1 Cu1 141.71(7) 10_566 2_544 ?
Se2 Cs1 Cu1 75.67(5) 2_545 2_544 ?
Cu2 Cs1 Cu1 141.53(5) . 2_544 ?
Cu2 Cs1 Cu1 40.45(4) 6 2_544 ?
Se1 Cs1 Cu1 39.02(5) 6 2_545 ?
Se1 Cs1 Cu1 103.49(4) 1_556 2_545 ?
Se1 Cs1 Cu1 78.18(4) 6_554 2_545 ?
Se1 Cs1 Cu1 143.64(7) . 2_545 ?
Se2 Cs1 Cu1 141.71(7) 10_565 2_545 ?
Se2 Cs1 Cu1 75.67(5) 2_544 2_545 ?
Se2 Cs1 Cu1 102.68(5) 10_566 2_545 ?
Se2 Cs1 Cu1 35.61(5) 2_545 2_545 ?
Cu2 Cs1 Cu1 141.53(5) . 2_545 ?
Cu2 Cs1 Cu1 40.45(4) 6 2_545 ?
Cu1 Cs1 Cu1 60.60(4) 2_544 2_545 ?
Se2 Cu1 Cu2 161.27(17) . 6 ?
Se2 Cu1 Se1 114.23(14) . 5_554 ?
Cu2 Cu1 Se1 84.50(12) 6 5_554 ?
Se2 Cu1 Se1 113.17(10) . 6_554 ?
Cu2 Cu1 Se1 57.43(7) 6 6_554 ?
Se1 Cu1 Se1 107.98(10) 5_554 6_554 ?
Se2 Cu1 Se1 113.17(10) . 6 ?
Cu2 Cu1 Se1 57.43(7) 6 6 ?
Se1 Cu1 Se1 107.98(10) 5_554 6 ?
Se1 Cu1 Se1 99.12(11) 6_554 6 ?
Se2 Cu1 Cu2 125.56(8) . 5_554 ?
Cu2 Cu1 Cu2 63.99(10) 6 5_554 ?
Se1 Cu1 Cu2 56.12(7) 5_554 5_554 ?
Se1 Cu1 Cu2 52.58(7) 6_554 5_554 ?
Se1 Cu1 Cu2 120.69(12) 6 5_554 ?
Se2 Cu1 Cu2 125.56(8) . 5 ?
Cu2 Cu1 Cu2 63.99(10) 6 5 ?
Se1 Cu1 Cu2 56.12(7) 5_554 5 ?
Se1 Cu1 Cu2 120.69(12) 6_554 5 ?
Se1 Cu1 Cu2 52.58(7) 6 5 ?
Cu2 Cu1 Cu2 94.53(12) 5_554 5 ?
Se2 Cu1 Cu3 54.04(8) . 2 ?
Cu2 Cu1 Cu3 115.78(12) 6 2 ?
Se1 Cu1 Cu3 125.78(10) 5_554 2 ?
Se1 Cu1 Cu3 125.58(14) 6_554 2 ?
Se1 Cu1 Cu3 59.43(9) 6 2 ?
Cu2 Cu1 Cu3 178.09(13) 5_554 2 ?
Cu2 Cu1 Cu3 86.97(4) 5 2 ?
Se2 Cu1 Cu3 54.04(8) . 2_554 ?
Cu2 Cu1 Cu3 115.78(12) 6 2_554 ?
Se1 Cu1 Cu3 125.78(10) 5_554 2_554 ?
Se1 Cu1 Cu3 59.43(9) 6_554 2_554 ?
Se1 Cu1 Cu3 125.58(14) 6 2_554 ?
Cu2 Cu1 Cu3 86.97(4) 5_554 2_554 ?
Cu2 Cu1 Cu3 178.09(13) 5 2_554 ?
Cu3 Cu1 Cu3 91.51(8) 2 2_554 ?
Se2 Cu1 Cs1 62.93(8) . 10_666 ?
Cu2 Cu1 Cs1 131.80(9) 6 10_666 ?
Se1 Cu1 Cs1 61.16(7) 5_554 10_666 ?
Se1 Cu1 Cs1 160.29(8) 6_554 10_666 ?
Se1 Cu1 Cs1 99.99(4) 6 10_666 ?
Cu2 Cu1 Cs1 112.25(10) 5_554 10_666 ?
Cu2 Cu1 Cs1 68.75(7) 5 10_666 ?
Cu3 Cu1 Cs1 69.39(10) 2 10_666 ?
Cu3 Cu1 Cs1 111.77(12) 2_554 10_666 ?
Se2 Cu1 Cs1 62.93(8) . 10_665 ?
Cu2 Cu1 Cs1 131.80(9) 6 10_665 ?
Se1 Cu1 Cs1 61.16(7) 5_554 10_665 ?
Se1 Cu1 Cs1 99.99(4) 6_554 10_665 ?
Se1 Cu1 Cs1 160.29(8) 6 10_665 ?
Cu2 Cu1 Cs1 68.75(7) 5_554 10_665 ?
Cu2 Cu1 Cs1 112.25(10) 5 10_665 ?
Cu3 Cu1 Cs1 111.77(12) 2 10_665 ?
Cu3 Cu1 Cs1 69.39(10) 2_554 10_665 ?
Cs1 Cu1 Cs1 60.60(4) 10_666 10_665 ?
Se2 Cu1 Cs1 95.95(11) . . ?
Cu2 Cu1 Cs1 65.31(9) 6 . ?
Se1 Cu1 Cs1 149.82(10) 5_554 . ?
Se1 Cu1 Cs1 56.38(7) 6_554 . ?
Se1 Cu1 Cs1 56.38(7) 6 . ?
Cu2 Cu1 Cs1 106.70(8) 5_554 . ?
Cu2 Cu1 Cs1 106.70(8) 5 . ?
Cu3 Cu1 Cs1 71.70(11) 2 . ?
Cu3 Cu1 Cs1 71.70(11) 2_554 . ?
Cs1 Cu1 Cs1 140.99(5) 10_666 . ?
Cs1 Cu1 Cs1 140.99(5) 10_665 . ?
Se1 Cu2 Se1 118.89(7) 10_565 . ?
Se1 Cu2 Se1 118.89(7) 10_565 1_556 ?
Se1 Cu2 Se1 107.56(12) . 1_556 ?
Se1 Cu2 Cu1 174.66(15) 10_565 6 ?
Se1 Cu2 Cu1 63.30(7) . 6 ?
Se1 Cu2 Cu1 63.30(7) 1_556 6 ?
Se1 Cu2 Cu1 61.65(8) 10_565 5_454 ?
Se1 Cu2 Cu1 58.12(7) . 5_454 ?
Se1 Cu2 Cu1 131.07(12) 1_556 5_454 ?
Cu1 Cu2 Cu1 121.19(7) 6 5_454 ?
Se1 Cu2 Cu1 61.65(8) 10_565 5_455 ?
Se1 Cu2 Cu1 131.08(12) . 5_455 ?
Se1 Cu2 Cu1 58.12(7) 1_556 5_455 ?
Cu1 Cu2 Cu1 121.19(7) 6 5_455 ?
Cu1 Cu2 Cu1 94.53(12) 5_454 5_455 ?
Se1 Cu2 Cu2 83.08(12) 10_565 9_565 ?
Se1 Cu2 Cu2 113.32(9) . 9_565 ?
Se1 Cu2 Cu2 113.32(9) 1_556 9_565 ?
Cu1 Cu2 Cu2 91.58(14) 6 9_565 ?
Cu1 Cu2 Cu2 115.09(10) 5_454 9_565 ?
Cu1 Cu2 Cu2 115.09(10) 5_455 9_565 ?
Se1 Cu2 Cu2 56.75(9) 10_565 10_565 ?
Se1 Cu2 Cu2 80.34(5) . 10_565 ?
Se1 Cu2 Cu2 171.85(10) 1_556 10_565 ?
Cu1 Cu2 Cu2 120.39(7) 6 10_565 ?
Cu1 Cu2 Cu2 54.61(9) 5_454 10_565 ?
Cu1 Cu2 Cu2 118.36(12) 5_455 10_565 ?
Cu2 Cu2 Cu2 60.49(3) 9_565 10_565 ?
Se1 Cu2 Cu2 56.75(9) 10_565 10_566 ?
Se1 Cu2 Cu2 171.85(10) . 10_566 ?
Se1 Cu2 Cu2 80.34(5) 1_556 10_566 ?
Cu1 Cu2 Cu2 120.39(7) 6 10_566 ?
Cu1 Cu2 Cu2 118.36(12) 5_454 10_566 ?
Cu1 Cu2 Cu2 54.61(9) 5_455 10_566 ?
Cu2 Cu2 Cu2 60.49(3) 9_565 10_566 ?
Cu2 Cu2 Cu2 91.70(11) 10_565 10_566 ?
Se1 Cu2 Cu2 115.44(6) 10_565 2 ?
Se1 Cu2 Cu2 123.91(12) . 2 ?
Se1 Cu2 Cu2 53.14(8) 1_556 2 ?
Cu1 Cu2 Cu2 61.39(10) 6 2 ?
Cu1 Cu2 Cu2 175.43(12) 5_454 2 ?
Cu1 Cu2 Cu2 86.72(5) 5_455 2 ?
Cu2 Cu2 Cu2 60.49(3) 9_565 2 ?
Cu2 Cu2 Cu2 120.99(6) 10_565 2 ?
Cu2 Cu2 Cu2 59.01(6) 10_566 2 ?
Se1 Cu2 Cu2 115.44(6) 10_565 2_554 ?
Se1 Cu2 Cu2 53.14(8) . 2_554 ?
Se1 Cu2 Cu2 123.91(12) 1_556 2_554 ?
Cu1 Cu2 Cu2 61.39(10) 6 2_554 ?
Cu1 Cu2 Cu2 86.72(5) 5_454 2_554 ?
Cu1 Cu2 Cu2 175.43(12) 5_455 2_554 ?
Cu2 Cu2 Cu2 60.49(3) 9_565 2_554 ?
Cu2 Cu2 Cu2 59.01(6) 10_565 2_554 ?
Cu2 Cu2 Cu2 120.99(6) 10_566 2_554 ?
Cu2 Cu2 Cu2 91.70(11) 2 2_554 ?
Se1 Cu2 Cs1 106.61(10) 10_565 . ?
Se1 Cu2 Cs1 62.34(7) . . ?
Se1 Cu2 Cs1 62.34(7) 1_556 . ?
Cu1 Cu2 Cs1 78.72(9) 6 . ?
Cu1 Cu2 Cs1 70.81(8) 5_454 . ?
Cu1 Cu2 Cs1 70.81(8) 5_455 . ?
Cu2 Cu2 Cs1 170.30(14) 9_565 . ?
Cu2 Cu2 Cs1 124.64(8) 10_565 . ?
Cu2 Cu2 Cs1 124.64(8) 10_566 . ?
Cu2 Cu2 Cs1 113.74(9) 2 . ?
Cu2 Cu2 Cs1 113.74(9) 2_554 . ?
Se2 Cu3 Se2 115.5(2) 10_566 10_565 ?
Se2 Cu3 Se1 110.00(4) 10_566 5_454 ?
Se2 Cu3 Se1 110.00(4) 10_565 5_454 ?
Se2 Cu3 Se1 110.00(4) 10_566 10_565 ?
Se2 Cu3 Se1 110.00(4) 10_565 10_565 ?
Se1 Cu3 Se1 100.23(17) 5_454 10_565 ?
Se2 Cu3 Cu1 53.04(6) 10_566 5_455 ?
Se2 Cu3 Cu1 127.64(12) 10_565 5_455 ?
Se1 Cu3 Cu1 121.98(13) 5_454 5_455 ?
Se1 Cu3 Cu1 57.25(6) 10_565 5_455 ?
Se2 Cu3 Cu1 127.64(12) 10_566 10_565 ?
Se2 Cu3 Cu1 53.04(6) 10_565 10_565 ?
Se1 Cu3 Cu1 57.25(6) 5_454 10_565 ?
Se1 Cu3 Cu1 121.98(13) 10_565 10_565 ?
Cu1 Cu3 Cu1 179.0(2) 5_455 10_565 ?
Se2 Cu3 Cu1 53.04(6) 10_566 10_566 ?
Se2 Cu3 Cu1 127.64(12) 10_565 10_566 ?
Se1 Cu3 Cu1 57.25(6) 5_454 10_566 ?
Se1 Cu3 Cu1 121.98(13) 10_565 10_566 ?
Cu1 Cu3 Cu1 88.49(8) 5_455 10_566 ?
Cu1 Cu3 Cu1 91.50(8) 10_565 10_566 ?
Se2 Cu3 Cu1 127.64(12) 10_566 5_454 ?
Se2 Cu3 Cu1 53.04(6) 10_565 5_454 ?
Se1 Cu3 Cu1 121.98(13) 5_454 5_454 ?
Se1 Cu3 Cu1 57.25(6) 10_565 5_454 ?
Cu1 Cu3 Cu1 91.50(8) 5_455 5_454 ?
Cu1 Cu3 Cu1 88.49(8) 10_565 5_454 ?
Cu1 Cu3 Cu1 179.0(2) 10_566 5_454 ?
Se2 Cu3 Cs1 62.81(10) 10_566 . ?
Se2 Cu3 Cs1 62.81(10) 10_565 . ?
Se1 Cu3 Cs1 160.94(12) 5_454 . ?
Se1 Cu3 Cs1 98.83(6) 10_565 . ?
Cu1 Cu3 Cs1 69.37(9) 5_455 . ?
Cu1 Cu3 Cs1 111.56(12) 10_565 . ?
Cu1 Cu3 Cs1 111.56(12) 10_566 . ?
Cu1 Cu3 Cs1 69.37(9) 5_454 . ?
Se2 Cu3 Cs1 62.81(10) 10_566 9 ?
Se2 Cu3 Cs1 62.81(10) 10_565 9 ?
Se1 Cu3 Cs1 98.83(6) 5_454 9 ?
Se1 Cu3 Cs1 160.94(12) 10_565 9 ?
Cu1 Cu3 Cs1 111.56(12) 5_455 9 ?
Cu1 Cu3 Cs1 69.37(9) 10_565 9 ?
Cu1 Cu3 Cs1 69.37(9) 10_566 9 ?
Cu1 Cu3 Cs1 111.56(12) 5_454 9 ?
Cs1 Cu3 Cs1 62.11(8) . 9 ?
Se2 Cu3 Cs1 94.29(9) 10_566 10_566 ?
Se2 Cu3 Cs1 150.18(13) 10_565 10_566 ?
Se1 Cu3 Cs1 55.49(8) 5_454 10_566 ?
Se1 Cu3 Cs1 55.49(8) 10_565 10_566 ?
Cu1 Cu3 Cs1 69.91(9) 5_455 10_566 ?
Cu1 Cu3 Cs1 109.14(12) 10_565 10_566 ?
Cu1 Cu3 Cs1 69.91(9) 10_566 10_566 ?
Cu1 Cu3 Cs1 109.14(12) 5_454 10_566 ?
Cs1 Cu3 Cs1 139.18(2) . 10_566 ?
Cs1 Cu3 Cs1 139.18(2) 9 10_566 ?
Se2 Cu3 Cs1 150.18(13) 10_566 10_565 ?
Se2 Cu3 Cs1 94.29(9) 10_565 10_565 ?
Se1 Cu3 Cs1 55.49(8) 5_454 10_565 ?
Se1 Cu3 Cs1 55.49(8) 10_565 10_565 ?
Cu1 Cu3 Cs1 109.14(12) 5_455 10_565 ?
Cu1 Cu3 Cs1 69.91(9) 10_565 10_565 ?
Cu1 Cu3 Cs1 109.14(12) 10_566 10_565 ?
Cu1 Cu3 Cs1 69.91(9) 5_454 10_565 ?
Cs1 Cu3 Cs1 139.18(2) . 10_565 ?
Cs1 Cu3 Cs1 139.18(2) 9 10_565 ?
Cs1 Cu3 Cs1 55.88(6) 10_566 10_565 ?
Cu2 Se1 Cu2 70.11(10) 2_554 1_554 ?
Cu2 Se1 Cu2 70.11(10) 2_554 . ?
Cu2 Se1 Cu2 107.56(12) 1_554 . ?
Cu2 Se1 Cu1 100.83(11) 2_554 5_454 ?
Cu2 Se1 Cu1 65.76(7) 1_554 5_454 ?
Cu2 Se1 Cu1 65.76(7) . 5_454 ?
Cu2 Se1 Cu1 65.77(8) 2_554 6 ?
Cu2 Se1 Cu1 135.81(11) 1_554 6 ?
Cu2 Se1 Cu1 59.27(7) . 6 ?
Cu1 Se1 Cu1 124.78(8) 5_454 6 ?
Cu2 Se1 Cu1 65.77(8) 2_554 6_554 ?
Cu2 Se1 Cu1 59.27(7) 1_554 6_554 ?
Cu2 Se1 Cu1 135.81(11) . 6_554 ?
Cu1 Se1 Cu1 124.78(8) 5_454 6_554 ?
Cu1 Se1 Cu1 99.12(11) 6 6_554 ?
Cu2 Se1 Cu3 96.94(12) 2_554 2_554 ?
Cu2 Se1 Cu3 121.38(7) 1_554 2_554 ?
Cu2 Se1 Cu3 121.38(7) . 2_554 ?
Cu1 Se1 Cu3 162.23(13) 5_454 2_554 ?
Cu1 Se1 Cu3 63.32(8) 6 2_554 ?
Cu1 Se1 Cu3 63.32(8) 6_554 2_554 ?
Cu2 Se1 Cs1 145.43(2) 2_554 1_554 ?
Cu2 Se1 Cs1 79.16(6) 1_554 1_554 ?
Cu2 Se1 Cs1 136.61(9) . 1_554 ?
Cu1 Se1 Cs1 79.82(7) 5_454 1_554 ?
Cu1 Se1 Cs1 141.33(9) 6 1_554 ?
Cu1 Se1 Cs1 85.28(7) 6_554 1_554 ?
Cu3 Se1 Cs1 85.57(8) 2_554 1_554 ?
Cu2 Se1 Cs1 145.43(2) 2_554 . ?
Cu2 Se1 Cs1 136.61(9) 1_554 . ?
Cu2 Se1 Cs1 79.16(6) . . ?
Cu1 Se1 Cs1 79.82(7) 5_454 . ?
Cu1 Se1 Cs1 85.28(7) 6 . ?
Cu1 Se1 Cs1 141.33(9) 6_554 . ?
Cu3 Se1 Cs1 85.57(8) 2_554 . ?
Cs1 Se1 Cs1 69.07(4) 1_554 . ?
Cu1 Se2 Cu1 113.14(19) . 6 ?
Cu1 Se2 Cu3 72.91(8) . 2_554 ?
Cu1 Se2 Cu3 72.91(8) 6 2_554 ?
Cu1 Se2 Cu3 72.91(8) . 2 ?
Cu1 Se2 Cu3 72.91(8) 6 2 ?
Cu3 Se2 Cu3 115.5(2) 2_554 2 ?
Cu1 Se2 Cs1 143.87(3) . 2 ?
Cu1 Se2 Cs1 81.45(7) 6 2 ?
Cu3 Se2 Cs1 142.47(4) 2_554 2 ?
Cu3 Se2 Cs1 81.09(8) 2 2 ?
Cu1 Se2 Cs1 81.45(7) . 10_666 ?
Cu1 Se2 Cs1 143.87(3) 6 10_666 ?
Cu3 Se2 Cs1 142.47(4) 2_554 10_666 ?
Cu3 Se2 Cs1 81.09(8) 2 10_666 ?
Cs1 Se2 Cs1 69.91(6) 2 10_666 ?
Cu1 Se2 Cs1 81.45(7) . 10_665 ?
Cu1 Se2 Cs1 143.87(3) 6 10_665 ?
Cu3 Se2 Cs1 81.09(8) 2_554 10_665 ?
Cu3 Se2 Cs1 142.47(4) 2 10_665 ?
Cs1 Se2 Cs1 106.52(7) 2 10_665 ?
Cs1 Se2 Cs1 68.15(4) 10_666 10_665 ?
Cu1 Se2 Cs1 143.87(3) . 2_554 ?
Cu1 Se2 Cs1 81.45(7) 6 2_554 ?
Cu3 Se2 Cs1 81.09(8) 2_554 2_554 ?
Cu3 Se2 Cs1 142.47(4) 2 2_554 ?
Cs1 Se2 Cs1 68.15(4) 2 2_554 ?
Cs1 Se2 Cs1 106.52(7) 10_666 2_554 ?
Cs1 Se2 Cs1 69.91(6) 10_665 2_554 ?
loop_
_geom_bond_atom_site_label_1
_geom_bond_atom_site_label_2
_geom_bond_distance
_geom_bond_site_symmetry_2
_geom_bond_publ_flag
Cs1 Se1 3.585(2) 6 ?
Cs1 Se1 3.585(2) 1_556 ?
Cs1 Se1 3.585(2) 6_554 ?
Cs1 Se1 3.585(2) . ?
Cs1 Se2 3.627(2) 10_565 ?
Cs1 Se2 3.627(2) 2_544 ?
Cs1 Se2 3.627(2) 10_566 ?
Cs1 Se2 3.627(2) 2_545 ?
Cs1 Cu2 3.975(3) . ?
Cs1 Cu2 3.975(3) 6 ?
Cs1 Cu1 4.028(3) 2_544 ?
Cs1 Cu1 4.028(3) 2_545 ?
Cu1 Se2 2.372(3) . ?
Cu1 Cu2 2.569(4) 6 ?
Cu1 Se1 2.577(4) 5_554 ?
Cu1 Se1 2.670(2) 6_554 ?
Cu1 Se1 2.670(2) 6 ?
Cu1 Cu2 2.767(3) 5_554 ?
Cu1 Cu2 2.767(3) 5 ?
Cu1 Cu3 2.837(2) 2 ?
Cu1 Cu3 2.837(2) 2_554 ?
Cu1 Cs1 4.028(3) 10_666 ?
Cu1 Cs1 4.028(3) 10_665 ?
Cu2 Se1 2.410(3) 10_565 ?
Cu2 Se1 2.5190(19) . ?
Cu2 Se1 2.5191(19) 1_556 ?
Cu2 Cu1 2.569(4) 6 ?
Cu2 Cu1 2.767(3) 5_454 ?
Cu2 Cu1 2.767(3) 5_455 ?
Cu2 Cu2 2.790(5) 9_565 ?
Cu2 Cu2 2.832(3) 10_565 ?
Cu2 Cu2 2.832(3) 10_566 ?
Cu2 Cu2 2.832(3) 2 ?
Cu2 Cu2 2.832(3) 2_554 ?
Cu3 Se2 2.403(3) 10_566 ?
Cu3 Se2 2.403(3) 10_565 ?
Cu3 Se1 2.734(4) 5_454 ?
Cu3 Se1 2.734(4) 10_565 ?
Cu3 Cu1 2.837(2) 5_455 ?
Cu3 Cu1 2.837(2) 10_565 ?
Cu3 Cu1 2.837(2) 10_566 ?
Cu3 Cu1 2.837(2) 5_454 ?
Cu3 Cs1 4.028(4) 9 ?
Cu3 Cs1 4.337(4) 10_566 ?
Cu3 Cs1 4.337(4) 10_565 ?
Se1 Cu2 2.410(3) 2_554 ?
Se1 Cu2 2.5190(19) 1_554 ?
Se1 Cu1 2.577(4) 5_454 ?
Se1 Cu1 2.670(2) 6 ?
Se1 Cu1 2.670(2) 6_554 ?
Se1 Cu3 2.734(4) 2_554 ?
Se1 Cs1 3.585(2) 1_554 ?
Se2 Cu1 2.372(3) 6 ?
Se2 Cu3 2.403(3) 2_554 ?
Se2 Cu3 2.403(3) 2 ?
Se2 Cs1 3.627(2) 2 ?
Se2 Cs1 3.627(2) 10_666 ?
Se2 Cs1 3.627(2) 10_665 ?
Se2 Cs1 3.627(2) 2_554 ?
