#------------------------------------------------------------------------------
#$Date: 2020-04-04 07:10:10 +0300 (Sat, 04 Apr 2020) $
#$Revision: 250060 $
#$URL: file:///home/coder/svn-repositories/cod/cif/4/13/45/4134532.cif $
#------------------------------------------------------------------------------
#
# This file is available in the Crystallography Open Database (COD),
# http://www.crystallography.net/
#
# All data on this site have been placed in the public domain by the
# contributors.
#
data_4134532
loop_
_publ_author_name
'Khoury, Jason F.'
'Rettie, Alexander J. E.'
'Robredo, I\~nigo'
'Krogstad, Matthew J.'
'Malliakas, Christos D.'
'Bergara, Aitor'
'Vergniory, Maia G.'
'Osborn, Raymond'
'Rosenkranz, Stephan'
'Chung, Duck Young'
'Kanatzidis, Mercouri G.'
_publ_section_title
;
 The Subchalcogenides Ir<sub>2</sub>In<sub>8</sub>Q (Q = S, Se, Te): Dirac
 Semimetal Candidates with Re-entrant Structural Modulation.
;
_journal_issue                   13
_journal_name_full               'Journal of the American Chemical Society'
_journal_page_first              6312
_journal_page_last               6323
_journal_paper_doi               10.1021/jacs.0c00809
_journal_volume                  142
_journal_year                    2020
_chemical_formula_sum            'In8 Ir2 Se'
_chemical_formula_weight         1382
_space_group_IT_number           6
_space_group_name_Hall           'P -2'
_space_group_name_H-M_alt        'P 1 1 m'
_space_group_ssg_name            Pm(\a\b0)0
_symmetry_cell_setting           monoclinic
_cell_angle_alpha                90
_cell_angle_beta                 90
_cell_angle_gamma                89.9995
_cell_formula_units_Z            4
_cell_length_a                   9.9200(6)
_cell_length_b                   9.9262(6)
_cell_length_c                   10.1092(6)
_cell_measurement_temperature    120
_cell_modulation_dimension       1
_cell_volume                     995.43(10)
_computing_cell_refinement       'SAINT V8.34A (Bruker, 2013)'
_computing_data_collection       'APEX2 V2014.11-0 (Bruker, 2014)'
_computing_data_reduction        'Bruker SAINT'
_diffrn_ambient_temperature      120
_diffrn_detector_area_resol_mean 8
_diffrn_measured_fraction_theta_full 0.9
_diffrn_measured_fraction_theta_max 0.87
_diffrn_measurement_device       'four-circle diffractometer'
_diffrn_measurement_device_type  'Bruker CCD'
_diffrn_measurement_method       'Bruker CCD'
_diffrn_radiation_monochromator  graphite
_diffrn_radiation_probe          x-ray
_diffrn_radiation_source         'X-ray tube'
_diffrn_radiation_type           'Mo K\a'
_diffrn_radiation_wavelength     0.71073
_diffrn_reflns_av_R_equivalents  0.095
_diffrn_reflns_av_unetI/netI     0.0211
_diffrn_reflns_limit_h_max       12
_diffrn_reflns_limit_h_min       -14
_diffrn_reflns_limit_index_m_1_max 1
_diffrn_reflns_limit_index_m_1_min -1
_diffrn_reflns_limit_k_max       14
_diffrn_reflns_limit_k_min       -7
_diffrn_reflns_limit_l_max       11
_diffrn_reflns_limit_l_min       -14
_diffrn_reflns_number            13783
_diffrn_reflns_theta_full        22.14
_diffrn_reflns_theta_max         29.98
_diffrn_reflns_theta_min         3.78
_diffrn_source                   'sealed tube'
_exptl_absorpt_coefficient_mu    48.361
_exptl_absorpt_correction_T_max  0.5796
_exptl_absorpt_correction_T_min  0.0927
_exptl_absorpt_correction_type   gaussian
_exptl_absorpt_process_details   Jana2006
_exptl_crystal_colour            red
_exptl_crystal_density_diffrn    9.2213
_exptl_crystal_description       cube
_exptl_crystal_F_000             2320
_exptl_crystal_size_max          0.278
_exptl_crystal_size_mid          0.246
_exptl_crystal_size_min          0.225
_refine_diff_density_max         9.29
_refine_diff_density_min         -10.15
_refine_ls_abs_structure_details
'  1223 of Friedel pairs used in the refinement'
_refine_ls_abs_structure_Flack   0.182(11)
_refine_ls_extinction_method     none
_refine_ls_goodness_of_fit_gt    3.32
_refine_ls_goodness_of_fit_ref   2.45
_refine_ls_number_constraints    3
_refine_ls_number_parameters     669
_refine_ls_number_reflns         9179
_refine_ls_number_restraints     0
_refine_ls_R_factor_all          0.0749
_refine_ls_R_factor_gt           0.0513
_refine_ls_shift/su_max          0.0438
_refine_ls_shift/su_mean         0.0035
_refine_ls_structure_factor_coef Fsqd
_refine_ls_weighting_details     w=1/(\s^2^(I)+0.0004I^2^)
_refine_ls_weighting_scheme      sigma
_refine_ls_wR_factor_gt          0.1085
_refine_ls_wR_factor_ref         0.1101
_reflns_number_gt                5139
_reflns_number_total             9179
_reflns_threshold_expression     I>2\s(I)
_cod_data_source_file            ja0c00809_si_005.cif
_cod_data_source_block           I
_cod_depositor_comments
;
The following automatic conversions were performed:

data item '_diffrn_radiation_probe' value 'X-ray' was changed to
'x-ray' in accordance with the
/home/data/users/saulius/crontab/automatic-downloads/rss-feeds/ACS/lib/dictionaries/cif_core.dic
dictionary named 'cif_core.dic' version 2.4.2 last updated on
2011-04-26.

data item '_exptl_absorpt_correction_type' value 'Gaussian' was
changed to 'gaussian' in accordance with the
/home/data/users/saulius/crontab/automatic-downloads/rss-feeds/ACS/lib/dictionaries/cif_core.dic
dictionary named 'cif_core.dic' version 2.4.2 last updated on
2011-04-26.

Automatic conversion script
Id: cif_fix_values 7556 2019-12-06 15:28:31Z antanas 

 Adding full bibliography for 4134530--4134534.cif.
;
_cod_original_formula_sum        'Ir2 In8 Se'
_cod_database_code               4134532
_jana_cell_commen_supercell_matrix_1_1 6
_jana_cell_commen_supercell_matrix_1_2 0
_jana_cell_commen_supercell_matrix_1_3 0
_jana_cell_commen_supercell_matrix_2_1 0
_jana_cell_commen_supercell_matrix_2_2 6
_jana_cell_commen_supercell_matrix_2_3 0
_jana_cell_commen_supercell_matrix_3_1 0
_jana_cell_commen_supercell_matrix_3_2 0
_jana_cell_commen_supercell_matrix_3_3 1
_jana_cell_commen_t_section_1    0
loop_
_space_group_symop_id
_space_group_symop_operation_xyz
1 x,y,z
2 x,y,-z
loop_
_space_group_symop_ssg_id
_space_group_symop_ssg_operation_algebraic
1 x1,x2,x3,x4
2 x1,x2,-x3,x4
loop_
_atom_site_label
_atom_site_type_symbol
_atom_site_fract_x
_atom_site_fract_y
_atom_site_fract_z
_atom_site_adp_type
_atom_site_U_iso_or_equiv
_atom_site_site_symmetry_multiplicity
_atom_site_occupancy
_atom_site_calc_flag
_atom_site_refinement_flags
_atom_site_disorder_assembly
_atom_site_disorder_group
Ir1 Ir 0.1867(7) 0.1868(8) 0.23814(13) Uani 0.0035(3) 2 1 d . . .
Ir2 Ir -0.1865(7) -0.1868(8) -0.24180(12) Uani 0.0045(3) 2 1 d . . .
Ir3 Ir 0.6860(7) 0.3138(8) 0.25871(12) Uani 0.0050(3) 2 1 d . . .
Ir4 Ir -0.6871(7) -0.3141(8) -0.25965(13) Uani 0.0062(4) 2 1 d . . .
In1 In 0.5919(8) 0.4002(9) 0.5 Uani 0.0062(9) 1 1 d . . .
In2 In -0.5981(8) -0.4075(9) -0.5 Uani 0.0075(9) 1 1 d . . .
In3 In 0.0937(8) 0.0933(9) 0 Uani 0.0060(9) 1 1 d . . .
In4 In -0.0979(8) -0.0966(9) 0 Uani 0.0093(10) 1 1 d . . .
In5 In 0.4979(7) 0.5003(9) 0.1644(2) Uani 0.0090(7) 2 1 d . . .
In6 In 0.8169(8) 0.2156(9) 0.5 Uani 0.0115(10) 1 1 d . . .
In7 In -0.7814(8) -0.1861(9) -0.5 Uani 0.0096(9) 1 1 d . . .
In8 In 0.2032(7) 0.4467(9) 0.2991(3) Uani 0.0085(7) 2 1 d . . .
In9 In -0.2063(7) -0.4459(9) -0.2964(2) Uani 0.0071(7) 2 1 d . . .
In10 In 0.0016(7) 0.0010(9) 0.3405(2) Uani 0.0070(6) 2 1 d . . .
In11 In 0.2949(7) -0.0543(9) 0.1955(2) Uani 0.0085(6) 2 1 d . . .
In12 In -0.2935(7) 0.0538(8) -0.2063(2) Uani 0.0086(7) 2 1 d . . .
In13 In 0.4464(7) 0.2035(9) 0.2969(3) Uani 0.0094(7) 2 1 d . . .
In14 In -0.4458(7) -0.2061(9) -0.2998(3) Uani 0.0087(7) 2 1 d . . .
In15 In -0.0522(7) 0.2949(9) 0.1970(3) Uani 0.0079(6) 2 1 d . . .
In16 In 0.0535(7) -0.2949(9) -0.2073(3) Uani 0.0081(6) 2 1 d . . .
In17 In 0.1880(8) 0.1900(9) 0.5 Uani 0.0098(10) 1 1 d . . .
In18 In -0.1830(8) -0.1876(9) -0.5 Uani 0.0115(10) 1 1 d . . .
In19 In 0.6859(8) 0.3118(9) 0 Uani 0.0097(10) 1 1 d . . .
In20 In -0.6943(8) -0.3183(9) 0 Uani 0.0110(11) 1 1 d . . .
In21 In 0.2968(8) 0.3003(9) 0 Uani 0.0017(11) 1 1 d . . .
In22 In -0.3019(8) -0.2979(10) 0 Uani 0.0044(12) 1 1 d . . .
Se1 Se 0.5021(9) -0.0031(12) 0 Uani 0.0017(12) 1 1 d . . .
Se2 Se 0.4763(9) -0.0042(10) 0.5 Uani 0.0149(15) 1 1 d . . .
Se3 Se 0.0006(10) 0.5001(10) 0 Uani 0.0013(12) 1 1 d . . .
Se4 Se -0.0072(9) 0.4750(11) 0.5 Uani 0.0138(15) 1 1 d . . .
loop_
_atom_site_aniso_label
_atom_site_aniso_type_symbol
_atom_site_aniso_U_11
_atom_site_aniso_U_22
_atom_site_aniso_U_33
_atom_site_aniso_U_12
_atom_site_aniso_U_13
_atom_site_aniso_U_23
Ir1 Ir 0.0014(5) 0.0050(5) 0.0040(5) 0.0069(6) 0.0004(4) 0.0022(5)
Ir2 Ir 0.0017(6) 0.0099(6) 0.0020(6) 0.0070(6) -0.0008(4) 0.0006(5)
Ir3 Ir 0.0028(5) 0.0101(6) 0.0020(6) 0.0067(7) -0.0004(4) -0.0016(5)
Ir4 Ir 0.0039(6) 0.0105(6) 0.0040(6) 0.0082(7) 0.0000(4) -0.0011(5)
In1 In 0.0001(14) 0.0124(18) 0.0062(14) 0.0069(16) 0 0
In2 In 0.0015(14) 0.0122(17) 0.0088(15) 0.0038(15) 0 0
In3 In 0.0088(16) 0.0096(16) -0.0003(14) 0.0048(15) 0 0
In4 In 0.0081(16) 0.0175(19) 0.0023(15) -0.0019(17) 0 0
In5 In 0.0039(10) 0.0151(12) 0.0081(12) 0.0114(10) 0.0002(9) -0.0037(11)
In6 In 0.0097(15) 0.023(2) 0.0021(14) 0.0098(16) 0 0
In7 In 0.0091(15) 0.0206(19) -0.0009(13) 0.0081(16) 0 0
In8 In 0.0055(12) 0.0107(10) 0.0092(13) 0.0063(12) 0.0005(9) -0.0009(11)
In9 In 0.0067(12) 0.0108(11) 0.0037(12) 0.0020(11) 0.0008(10) 0.0006(10)
In10 In 0.0059(10) 0.0110(11) 0.0041(10) 0.0061(9) 0.0003(8) -0.0021(10)
In11 In 0.0066(11) 0.0079(10) 0.0109(11) 0.0075(11) 0.0014(9) 0.0017(10)
In12 In 0.0050(12) 0.0046(10) 0.0162(13) 0.0058(11) -0.0002(10) -0.0013(10)
In13 In 0.0011(9) 0.0167(14) 0.0103(14) 0.0050(11) -0.0018(9) 0.0024(12)
In14 In 0.0003(9) 0.0175(13) 0.0084(13) 0.0073(11) 0.0006(9) 0.0007(11)
In15 In 0.0029(10) 0.0107(12) 0.0099(11) 0.0103(10) 0.0006(8) 0.0015(10)
In16 In 0.0057(9) 0.0077(11) 0.0109(12) 0.0067(11) -0.0001(9) -0.0018(10)
In17 In 0.0104(16) 0.014(2) 0.0048(14) 0.0023(18) 0 0
In18 In 0.0057(17) 0.0121(18) 0.0166(18) -0.0084(18) 0 0
In19 In 0.0117(17) 0.022(2) -0.0051(14) 0.008(2) 0 0
In20 In 0.0082(17) 0.021(2) 0.0037(15) 0.0054(18) 0 0
In21 In -0.0100(18) 0.001(2) 0.0144(18) 0.0056(16) 0 0
In22 In -0.004(2) 0.008(3) 0.0101(17) 0.0052(19) 0 0
Se1 Se 0.000(2) -0.003(2) 0.008(2) -0.001(2) 0 0
Se2 Se 0.019(2) 0.019(3) 0.007(2) 0.012(2) 0 0
Se3 Se -0.0132(15) 0.009(2) 0.0077(19) 0.002(2) 0 0
Se4 Se 0.007(2) 0.028(3) 0.006(2) 0.001(2) 0 0
loop_
_atom_site_displace_Fourier_atom_site_label
_atom_site_displace_Fourier_axis
_atom_site_displace_Fourier_wave_vector_seq_id
_atom_site_displace_Fourier_param_cos
_atom_site_displace_Fourier_param_sin
Ir1 x 1 -0.0002(3) -0.0003
Ir1 y 1 0.0007(3) 0.0009(3)
Ir1 z 1 0.0000(3) 0.0004(3)
Ir2 x 1 -0.0005(2) -0.0004(2)
Ir2 y 1 -0.0003(3) 0.0001(3)
Ir2 z 1 -0.0004(3) 0.0003(3)
Ir3 x 1 0.0007(3) 0.0004(3)
Ir3 y 1 -0.0010(3) 0.0004(3)
Ir3 z 1 0.0027(4) 0.0016(4)
Ir4 x 1 0.0002(3) -0.0005(3)
Ir4 y 1 -0.0001(3) 0.0003(3)
Ir4 z 1 0.0021(4) 0.0014(4)
In1 x 1 -0.0053(7) 0.0020(8)
In1 y 1 -0.0005(9) 0.0058(9)
In1 z 1 0 0
In2 x 1 -0.0004(8) -0.0041(7)
In2 y 1 0.0043(9) -0.0006(9)
In2 z 1 0 0
In3 x 1 -0.0072(7) 0.0003(9)
In3 y 1 0.0071(9) -0.0007(10)
In3 z 1 0 0
In4 x 1 -0.0009(10) -0.0083(8)
In4 y 1 0.0009(11) 0.0065(9)
In4 z 1 0 0
In5 x 1 0.0026(4) 0.0021(6)
In5 y 1 -0.0026(5) -0.0015(8)
In5 z 1 0.0001(7) 0.0001(5)
In6 x 1 -0.0040(6) -0.0005(7)
In6 y 1 -0.0026(9) 0.0000(9)
In6 z 1 0 0
In7 x 1 0.0000(6) -0.0015(6)
In7 y 1 0.0037(9) 0.0002(9)
In7 z 1 0 0
In8 x 1 0.0017(5) -0.0023(5)
In8 y 1 -0.0006(6) 0.0000(6)
In8 z 1 -0.0070(9) -0.0076(8)
In9 x 1 0.0007(5) 0.0027(5)
In9 y 1 0.0016(6) 0.0000(6)
In9 z 1 -0.0095(6) -0.0012(9)
In10 x 1 -0.0014(4) 0.0009(6)
In10 y 1 0.0003(5) 0.0000(7)
In10 z 1 0.0009(7) 0.0004(5)
In11 x 1 -0.0034(5) 0.0009(6)
In11 y 1 0.0008(6) 0.0015(6)
In11 z 1 0.0001(6) 0.0019(6)
In12 x 1 -0.0003(6) -0.0032(5)
In12 y 1 0.0003(6) -0.0008(6)
In12 z 1 0.0006(7) -0.0036(6)
In13 x 1 0.0002(5) -0.0010(5)
In13 y 1 -0.0024(7) 0.0018(7)
In13 z 1 0.0070(8) 0.0066(8)
In14 x 1 -0.0004(5) 0.0003(5)
In14 y 1 0.0003(7) -0.0017(7)
In14 z 1 0.0105(6) 0.0005(10)
In15 x 1 -0.0001(5) -0.0009(5)
In15 y 1 0.0033(6) 0.0000(6)
In15 z 1 0.0011(6) -0.0021(6)
In16 x 1 -0.0014(5) 0.0001(5)
In16 y 1 -0.0009(6) 0.0031(6)
In16 z 1 -0.0008(7) 0.0026(6)
In17 x 1 -0.0066(9) -0.0056(9)
In17 y 1 0.0072(10) 0.0045(10)
In17 z 1 0 0
In18 x 1 -0.0077(8) -0.0034(10)
In18 y 1 0.0043(8) 0.0012(10)
In18 z 1 0 0
In19 x 1 0.0037(9) -0.0056(8)
In19 y 1 0.0016(11) -0.0061(10)
In19 z 1 0 0
In20 x 1 0.0002(9) 0.0048(8)
In20 y 1 -0.0033(10) 0.0038(10)
In20 z 1 0 0
In21 x 1 0.0243(12) 0.0139(18)
In21 y 1 -0.0233(14) -0.0170(18)
In21 z 1 0 0
In22 x 1 0.0268(10) 0.012(2)
In22 y 1 -0.0245(13) -0.015(2)
In22 z 1 0 0
Se1 x 1 -0.0066(10) -0.0079(15)
Se1 y 1 0.0348(19) 0.018(3)
Se1 z 1 0 0
Se2 x 1 0.0001(9) -0.0001(10)
Se2 y 1 -0.0033(11) -0.0020(15)
Se2 z 1 0 0
Se3 x 1 -0.0346(16) -0.019(3)
Se3 y 1 0.0050(12) 0.0076(16)
Se3 z 1 0 0
Se4 x 1 0.0027(8) 0.0009(13)
Se4 y 1 0.0009(12) 0.0017(12)
Se4 z 1 0 0
loop_
_atom_site_displace_special_func_atom_site_label
_atom_site_displace_special_func_sawtooth_ax
_atom_site_displace_special_func_sawtooth_ay
_atom_site_displace_special_func_sawtooth_az
_atom_site_displace_special_func_sawtooth_c
_atom_site_displace_special_func_sawtooth_w
? ? ? ? ? ?
loop_
_atom_site_Fourier_wave_vector_seq_id
_jana_atom_site_fourier_wave_vector_q1_coeff
1 1
loop_
_atom_site_occ_Fourier_atom_site_label
_atom_site_occ_Fourier_wave_vector_seq_id
_atom_site_occ_Fourier_param_cos
_atom_site_occ_Fourier_param_sin
? ? ? ?
loop_
_atom_site_occ_special_func_atom_site_label
_atom_site_occ_special_func_crenel_c
_atom_site_occ_special_func_crenel_w
? ? ?
loop_
_atom_site_U_Fourier_atom_site_label
_atom_site_U_Fourier_tens_elem
_atom_site_U_Fourier_wave_vector_seq_id
_atom_site_U_Fourier_param_cos
_atom_site_U_Fourier_param_sin
Ir1 U11 1 -0.0034(12) -0.0024(12)
Ir1 U22 1 -0.0050(13) -0.0043(13)
Ir1 U33 1 0.0008(17) 0.0006(15)
Ir1 U12 1 -0.0011(12) -0.0008(11)
Ir1 U13 1 0.0003(11) -0.0004(11)
Ir1 U23 1 -0.0036(12) -0.0010(13)
Ir2 U11 1 -0.0041(12) -0.0012(13)
Ir2 U22 1 -0.0046(14) -0.0032(15)
Ir2 U33 1 0.0011(16) 0.0005(16)
Ir2 U12 1 -0.0021(12) -0.0007(13)
Ir2 U13 1 -0.0002(11) 0.0006(11)
Ir2 U23 1 -0.0027(13) -0.0023(13)
Ir3 U11 1 -0.0064(12) -0.0029(13)
Ir3 U22 1 -0.0039(15) -0.0026(14)
Ir3 U33 1 0.0028(17) 0.0014(17)
Ir3 U12 1 -0.0024(13) -0.0001(12)
Ir3 U13 1 -0.0002(11) -0.0008(12)
Ir3 U23 1 0.0005(13) -0.0024(12)
Ir4 U11 1 -0.0054(12) -0.0034(13)
Ir4 U22 1 -0.0046(14) -0.0043(15)
Ir4 U33 1 0.0018(17) 0.0015(17)
Ir4 U12 1 -0.0013(12) -0.0007(13)
Ir4 U13 1 -0.0010(12) -0.0005(12)
Ir4 U23 1 -0.0009(13) 0.0024(13)
In1 U11 1 -0.009(3) 0.000(3)
In1 U22 1 -0.011(4) -0.006(4)
In1 U33 1 0.009(4) 0.000(4)
In1 U12 1 -0.008(3) 0.003(3)
In1 U13 1 0 0
In1 U23 1 0 0
In2 U11 1 -0.004(3) -0.005(3)
In2 U22 1 -0.007(4) -0.004(4)
In2 U33 1 0.005(5) 0.008(4)
In2 U12 1 0.001(3) -0.005(3)
In2 U13 1 0 0
In2 U23 1 0 0
In3 U11 1 -0.010(3) -0.002(4)
In3 U22 1 0.006(4) -0.001(4)
In3 U33 1 0.008(4) 0.000(4)
In3 U12 1 -0.001(3) 0.004(3)
In3 U13 1 0 0
In3 U23 1 0 0
In4 U11 1 -0.006(4) -0.006(3)
In4 U22 1 -0.002(4) 0.000(4)
In4 U33 1 0.004(4) 0.006(4)
In4 U12 1 0.007(4) -0.001(4)
In4 U13 1 0 0
In4 U23 1 0 0
In5 U11 1 -0.007(3) -0.0029(18)
In5 U22 1 -0.013(3) -0.007(2)
In5 U33 1 0.001(4) 0.000(2)
In5 U12 1 -0.003(3) -0.0017(19)
In5 U13 1 -0.0008(17) -0.001(3)
In5 U23 1 0.006(2) -0.005(3)
In6 U11 1 0.001(3) -0.003(3)
In6 U22 1 0.000(4) 0.000(4)
In6 U33 1 -0.002(3) -0.001(3)
In6 U12 1 0.003(3) 0.000(3)
In6 U13 1 0 0
In6 U23 1 0 0
In7 U11 1 0.001(3) 0.004(3)
In7 U22 1 -0.004(4) -0.003(4)
In7 U33 1 -0.005(3) -0.001(3)
In7 U12 1 0.001(3) 0.002(3)
In7 U13 1 0 0
In7 U23 1 0 0
In8 U11 1 -0.003(2) -0.006(2)
In8 U22 1 0.001(3) 0.000(3)
In8 U33 1 0.001(3) 0.003(3)
In8 U12 1 0.000(2) -0.001(2)
In8 U13 1 0.001(2) -0.001(2)
In8 U23 1 -0.005(2) -0.002(3)
In9 U11 1 -0.006(2) -0.001(3)
In9 U22 1 0.000(2) -0.001(3)
In9 U33 1 0.000(3) -0.002(3)
In9 U12 1 0.000(2) 0.000(2)
In9 U13 1 0.0008(19) 0.002(2)
In9 U23 1 -0.004(2) -0.002(3)
In10 U11 1 -0.003(3) -0.0022(18)
In10 U22 1 -0.009(3) -0.005(2)
In10 U33 1 -0.001(3) 0.000(2)
In10 U12 1 -0.008(2) -0.0043(19)
In10 U13 1 0.0017(16) -0.003(2)
In10 U23 1 0.004(2) -0.007(3)
In11 U11 1 -0.004(2) -0.001(2)
In11 U22 1 -0.007(2) -0.003(2)
In11 U33 1 0.006(3) 0.001(3)
In11 U12 1 -0.001(2) -0.002(2)
In11 U13 1 -0.002(2) 0.001(2)
In11 U23 1 -0.004(2) 0.003(2)
In12 U11 1 -0.002(2) -0.002(2)
In12 U22 1 -0.004(2) -0.004(2)
In12 U33 1 0.001(3) 0.000(3)
In12 U12 1 -0.004(2) 0.000(2)
In12 U13 1 0.000(2) -0.002(2)
In12 U23 1 0.000(2) -0.006(2)
In13 U11 1 -0.001(2) -0.003(2)
In13 U22 1 -0.007(3) -0.003(3)
In13 U33 1 -0.001(3) -0.001(3)
In13 U12 1 0.002(2) 0.005(2)
In13 U13 1 0.003(2) 0.002(2)
In13 U23 1 -0.004(3) -0.007(2)
In14 U11 1 -0.002(2) 0.001(2)
In14 U22 1 -0.004(3) -0.006(3)
In14 U33 1 0.003(2) 0.000(4)
In14 U12 1 0.005(2) 0.001(2)
In14 U13 1 0.0013(17) 0.002(2)
In14 U23 1 -0.008(2) 0.001(3)
In15 U11 1 -0.001(2) -0.001(2)
In15 U22 1 -0.006(3) -0.006(3)
In15 U33 1 0.000(3) 0.001(3)
In15 U12 1 0.004(2) 0.001(2)
In15 U13 1 0.001(2) -0.0001(19)
In15 U23 1 0.003(2) 0.000(2)
In16 U11 1 -0.002(2) 0.000(2)
In16 U22 1 -0.005(2) -0.004(2)
In16 U33 1 -0.001(3) -0.001(3)
In16 U12 1 0.003(2) 0.000(2)
In16 U13 1 0.000(2) 0.001(2)
In16 U23 1 0.001(2) 0.004(2)
In17 U11 1 0.004(4) -0.002(3)
In17 U22 1 -0.009(4) -0.014(4)
In17 U33 1 -0.007(4) 0.007(4)
In17 U12 1 -0.007(4) -0.018(3)
In17 U13 1 0 0
In17 U23 1 0 0
In18 U11 1 0.003(3) 0.007(4)
In18 U22 1 -0.011(3) 0.000(4)
In18 U33 1 0.003(4) -0.008(5)
In18 U12 1 -0.021(3) 0.001(4)
In18 U13 1 0 0
In18 U23 1 0 0
In19 U11 1 -0.002(4) 0.004(3)
In19 U22 1 -0.003(5) -0.001(4)
In19 U33 1 -0.008(4) -0.007(4)
In19 U12 1 -0.004(4) 0.000(4)
In19 U13 1 0 0
In19 U23 1 0 0
In20 U11 1 -0.002(3) 0.001(3)
In20 U22 1 -0.009(4) 0.000(5)
In20 U33 1 -0.010(4) -0.003(4)
In20 U12 1 -0.008(4) 0.002(4)
In20 U13 1 0 0
In20 U23 1 0 0
In21 U11 1 0.002(3) 0.007(3)
In21 U22 1 0.004(3) 0.004(4)
In21 U33 1 -0.007(4) -0.007(5)
In21 U12 1 -0.001(3) -0.014(3)
In21 U13 1 0 0
In21 U23 1 0 0
In22 U11 1 0.008(2) -0.001(4)
In22 U22 1 0.009(3) -0.001(5)
In22 U33 1 -0.005(3) 0.003(5)
In22 U12 1 -0.014(3) 0.004(4)
In22 U13 1 0 0
In22 U23 1 0 0
Se1 U11 1 -0.002(4) -0.001(3)
Se1 U22 1 -0.001(4) 0.006(6)
Se1 U33 1 -0.007(5) -0.004(4)
Se1 U12 1 -0.002(4) -0.002(4)
Se1 U13 1 0 0
Se1 U23 1 0 0
Se2 U11 1 0.002(4) -0.001(6)
Se2 U22 1 -0.022(6) -0.015(5)
Se2 U33 1 -0.005(5) 0.001(5)
Se2 U12 1 -0.001(5) 0.000(5)
Se2 U13 1 0 0
Se2 U23 1 0 0
Se3 U11 1 0.014(3) 0.000(4)
Se3 U22 1 0.014(5) 0.007(4)
Se3 U33 1 0.000(4) 0.002(4)
Se3 U12 1 -0.006(4) -0.008(4)
Se3 U13 1 0 0
Se3 U23 1 0 0
Se4 U11 1 -0.007(5) -0.003(4)
Se4 U22 1 -0.010(6) 0.011(7)
Se4 U33 1 -0.004(6) -0.003(4)
Se4 U12 1 0.001(5) 0.005(5)
Se4 U13 1 0 0
Se4 U23 1 0 0
loop_
_atom_type_symbol
_atom_type_scat_dispersion_real
_atom_type_scat_dispersion_imag
_atom_type_scat_source
In -0.7276 1.3100 'International Tables Vol C tables 4.2.6.8 and 6.1.1.1'
Ir -1.4442 7.9887 'International Tables Vol C tables 4.2.6.8 and 6.1.1.1'
Se -0.0929 2.2259 'International Tables Vol C tables 4.2.6.8 and 6.1.1.1'
loop_
_cell_wave_vector_seq_id
_cell_wave_vector_x
_cell_wave_vector_y
_cell_wave_vector_z
1 0.166667 0.166667 0.000000
loop_
_diffrn_standard_refln_index_h
_diffrn_standard_refln_index_k
_diffrn_standard_refln_index_l
? ? ?
loop_
_exptl_crystal_face_index_h
_exptl_crystal_face_index_k
_exptl_crystal_face_index_l
_exptl_crystal_face_perp_dist
-2 -5 30 0.02659
6 1 -30 0.02842
2 30 -7 0.0058
-2 -15 3 0.00595
30 1 0 0.03018
-15 -3 -1 0.03094
loop_
_geom_angle_atom_site_label_1
_geom_angle_atom_site_label_2
_geom_angle_atom_site_label_3
_geom_angle_site_ssg_symmetry_1
_geom_angle_site_ssg_symmetry_2
_geom_angle_site_ssg_symmetry_3
_geom_angle_av
_geom_angle_min
_geom_angle_max
_geom_angle_publ_flag
In3 Ir1 In8 . . . 124.4(4) 121.5(4) 127.2(4) ?
In3 Ir1 In10 . . . 81.9(4) 81.7(4) 82.2(4) ?
In3 Ir1 In11 . . . 72.5(4) 71.2(4) 73.7(4) ?
In3 Ir1 In13 . . . 122.4(4) 119.3(4) 125.5(4) ?
In3 Ir1 In15 . . . 72.6(4) 71.7(4) 73.4(4) ?
In3 Ir1 In17 . . . 150.8(6) 150.4(5) 151.1(6) ?
In3 Ir1 In21 . . . 62.7(4) 62.3(4) 63.3(4) ?
In8 Ir1 In10 . . . 126.7(4) 125.1(4) 128.2(4) ?
In8 Ir1 In11 . . . 152.0(5) 151.6(5) 152.3(5) ?
In8 Ir1 In13 . . . 79.6(4) 79.1(4) 80.1(4) ?
In8 Ir1 In15 . . . 72.6(4) 71.9(4) 73.3(4) ?
In8 Ir1 In17 . . . 76.6(4) 76.0(4) 77.3(4) ?
In8 Ir1 In21 . . . 77.3(5) 73.7(4) 81.0(5) ?
In10 Ir1 In11 . . . 74.1(4) 73.6(4) 74.5(4) ?
In10 Ir1 In13 . . . 128.2(4) 126.3(4) 130.2(5) ?
In10 Ir1 In15 . . . 74.1(4) 73.7(4) 74.5(4) ?
In10 Ir1 In17 . . . 69.0(4) 68.3(4) 69.7(4) ?
In10 Ir1 In21 . . . 143.9(4) 143.1(4) 144.4(4) ?
In11 Ir1 In13 . . . 72.4(4) 71.9(4) 73.0(4) ?
In11 Ir1 In15 . . . 135.2(5) 134.9(5) 135.5(5) ?
In11 Ir1 In17 . . . 97.9(4) 95.9(4) 99.9(4) ?
In11 Ir1 In21 . . . 95.5(5) 87.8(5) 103.1(4) ?
In13 Ir1 In15 . . . 151.8(6) 151.3(6) 152.3(6) ?
In13 Ir1 In17 . . . 77.9(4) 77.0(4) 78.8(4) ?
In13 Ir1 In21 . . . 77.3(4) 74.1(4) 80.6(5) ?
In15 Ir1 In17 . . . 99.2(4) 96.5(4) 101.8(4) ?
In15 Ir1 In21 . . . 92.4(5) 84.6(5) 100.4(5) ?
In17 Ir1 In21 . . . 146.5(6) 145.8(6) 147.0(6) ?
In4 Ir2 In9 . . . 121.6(5) 117.7(5) 125.5(5) ?
In4 Ir2 In10 . . 2_5555 83.0(4) 82.7(4) 83.2(4) ?
In4 Ir2 In12 . . . 73.2(4) 71.7(4) 74.6(4) ?
In4 Ir2 In14 . . . 123.3(4) 119.6(4) 126.9(4) ?
In4 Ir2 In16 . . . 73.3(4) 71.4(4) 75.2(4) ?
In4 Ir2 In18 . . . 153.1(6) 152.4(6) 153.8(6) ?
In4 Ir2 In22 . . . 60.5(4) 59.9(4) 61.1(4) ?
In9 Ir2 In10 . . 2_5555 128.8(4) 127.2(4) 130.4(4) ?
In9 Ir2 In12 . . . 151.3(5) 150.6(5) 151.9(5) ?
In9 Ir2 In14 . . . 79.3(4) 79.0(4) 79.6(4) ?
In9 Ir2 In16 . . . 72.4(4) 71.5(4) 73.3(4) ?
In9 Ir2 In18 . . . 76.9(4) 75.5(4) 78.3(4) ?
In9 Ir2 In22 . . . 78.0(5) 74.8(5) 81.2(5) ?
In10 Ir2 In12 2_5555 . . 74.0(4) 73.5(4) 74.5(4) ?
In10 Ir2 In14 2_5555 . . 127.1(4) 125.7(4) 128.4(4) ?
In10 Ir2 In16 2_5555 . . 74.1(4) 73.5(4) 74.8(4) ?
In10 Ir2 In18 2_5555 . . 70.3(4) 69.7(4) 71.0(4) ?
In10 Ir2 In22 2_5555 . . 142.6(5) 141.7(5) 143.4(4) ?
In12 Ir2 In14 . . . 72.5(4) 71.6(4) 73.4(4) ?
In12 Ir2 In16 . . . 135.8(5) 135.6(5) 136.1(5) ?
In12 Ir2 In18 . . . 99.8(4) 97.7(4) 101.8(4) ?
In12 Ir2 In22 . . . 92.1(5) 84.2(5) 100.0(5) ?
In14 Ir2 In16 . . . 151.5(6) 151.0(6) 152.0(6) ?
In14 Ir2 In18 . . . 76.5(4) 75.6(4) 77.4(4) ?
In14 Ir2 In22 . . . 77.7(5) 74.4(4) 81.1(5) ?
In16 Ir2 In18 . . . 97.4(4) 95.4(4) 99.5(4) ?
In16 Ir2 In22 . . . 95.4(5) 87.8(5) 103.0(5) ?
In18 Ir2 In22 . . . 146.4(6) 146.1(6) 147.0(6) ?
In1 Ir3 In5 . . . 82.9(4) 82.4(4) 83.5(4) ?
In1 Ir3 In6 . . . 61.3(3) 60.0(3) 62.7(3) ?
In1 Ir3 In9 . . 2_6565 74.4(4) 73.0(4) 75.9(4) ?
In1 Ir3 In12 . . 2_5565 120.8(4) 119.5(4) 122.1(4) ?
In1 Ir3 In13 . . . 72.8(4) 71.5(4) 74.1(4) ?
In1 Ir3 In15 . . 1_5565 122.8(4) 121.4(4) 124.1(4) ?
In1 Ir3 In19 . . . 152.0(6) 150.8(6) 153.2(6) ?
In5 Ir3 In6 . . . 144.1(4) 143.2(4) 144.9(4) ?
In5 Ir3 In9 . . 2_6565 73.5(4) 72.8(4) 74.2(4) ?
In5 Ir3 In12 . . 2_5565 128.3(4) 127.3(4) 129.3(4) ?
In5 Ir3 In13 . . . 73.3(4) 72.4(4) 74.2(4) ?
In5 Ir3 In15 . . 1_5565 128.5(4) 126.9(4) 130.1(4) ?
In5 Ir3 In19 . . . 69.1(4) 68.5(4) 69.7(4) ?
In6 Ir3 In9 . . 2_6565 92.0(4) 91.2(4) 92.7(4) ?
In6 Ir3 In12 . . 2_5565 78.2(4) 77.8(4) 78.5(4) ?
In6 Ir3 In13 . . . 97.9(4) 96.3(4) 99.6(4) ?
In6 Ir3 In15 . . 1_5565 74.3(4) 73.1(3) 75.6(4) ?
In6 Ir3 In19 . . . 146.6(5) 146.4(5) 146.7(5) ?
In9 Ir3 In12 2_6565 . 2_5565 152.1(5) 151.6(5) 152.5(5) ?
In9 Ir3 In13 2_6565 . . 135.4(5) 134.6(5) 136.1(5) ?
In9 Ir3 In15 2_6565 . 1_5565 72.9(4) 72.5(4) 73.3(4) ?
In9 Ir3 In19 2_6565 . . 97.1(5) 95.8(5) 98.4(5) ?
In12 Ir3 In13 2_5565 . . 72.3(4) 72.0(4) 72.6(4) ?
In12 Ir3 In15 2_5565 . 1_5565 79.3(4) 78.4(4) 80.2(4) ?
In12 Ir3 In19 2_5565 . . 78.9(4) 78.0(4) 79.8(4) ?
In13 Ir3 In15 . . 1_5565 151.6(6) 150.6(6) 152.5(6) ?
In13 Ir3 In19 . . . 97.9(4) 96.8(4) 99.1(4) ?
In15 Ir3 In19 1_5565 . . 77.8(4) 76.9(4) 78.7(4) ?
In2 Ir4 In5 . . 2_4545 83.7(4) 83.5(4) 83.9(4) ?
In2 Ir4 In7 . . . 59.7(4) 59.2(4) 60.3(4) ?
In2 Ir4 In8 . . 2_4545 71.7(4) 70.9(4) 72.5(4) ?
In2 Ir4 In11 . . 2_5545 123.5(4) 122.4(4) 124.6(4) ?
In2 Ir4 In14 . . . 73.1(4) 72.0(4) 74.3(4) ?
In2 Ir4 In16 . . 1_5545 121.9(4) 120.4(4) 123.3(4) ?
In2 Ir4 In20 . . . 154.0(6) 153.6(6) 154.5(6) ?
In5 Ir4 In7 2_4545 . . 143.1(4) 142.6(4) 143.7(4) ?
In5 Ir4 In8 2_4545 . 2_4545 74.7(4) 73.4(4) 75.9(4) ?
In5 Ir4 In11 2_4545 . 2_5545 126.9(4) 125.2(4) 128.5(4) ?
In5 Ir4 In14 2_4545 . . 74.7(4) 73.7(4) 75.7(4) ?
In5 Ir4 In16 2_4545 . 1_5545 127.2(4) 126.2(4) 128.2(4) ?
In5 Ir4 In20 2_4545 . . 70.4(4) 70.0(4) 70.8(4) ?
In7 Ir4 In8 . . 2_4545 95.9(4) 94.0(4) 97.7(4) ?
In7 Ir4 In11 . . 2_5545 76.7(4) 75.4(4) 77.9(4) ?
In7 Ir4 In14 . . . 89.6(4) 88.3(4) 90.9(4) ?
In7 Ir4 In16 . . 1_5545 80.6(4) 79.7(4) 81.4(4) ?
In7 Ir4 In20 . . . 146.2(6) 145.9(6) 146.5(6) ?
In8 Ir4 In11 2_4545 . 2_5545 151.9(5) 151.6(5) 152.1(5) ?
In8 Ir4 In14 2_4545 . . 135.1(5) 134.9(5) 135.4(5) ?
In8 Ir4 In16 2_4545 . 1_5545 72.4(4) 72.1(4) 72.7(4) ?
In8 Ir4 In20 2_4545 . . 99.5(5) 97.7(5) 101.3(5) ?
In11 Ir4 In14 2_5545 . . 72.6(4) 72.2(4) 72.9(4) ?
In11 Ir4 In16 2_5545 . 1_5545 79.6(4) 79.5(4) 79.7(4) ?
In11 Ir4 In20 2_5545 . . 75.6(4) 73.9(4) 77.4(4) ?
In14 Ir4 In16 . . 1_5545 151.9(6) 151.5(6) 152.4(6) ?
In14 Ir4 In20 . . . 100.1(4) 99.0(5) 101.2(4) ?
In16 Ir4 In20 1_5545 . . 75.8(4) 74.2(4) 77.4(4) ?
Ir3 In1 Ir3 . . 2_5655 125.6(6) 123.0(5) 128.3(6) ?
Ir3 In1 In2 . . 1_6665 117.1(3) 115.9(3) 118.4(3) ?
Ir3 In1 In6 . . . 62.8(3) 61.5(3) 64.2(3) ?
Ir3 In1 In9 . . 1_6665 120.7(5) 117.7(5) 123.8(5) ?
Ir3 In1 In9 . . 2_6565 51.2(3) 50.1(3) 52.3(3) ?
Ir3 In1 In13 . . . 52.2(3) 51.3(3) 53.1(3) ?
Ir3 In1 In13 . . 2_5655 123.1(5) 120.1(5) 126.2(5) ?
Ir3 In1 In2 2_5655 . 1_6665 117.1(3) 115.9(3) 118.4(3) ?
Ir3 In1 In6 2_5655 . . 62.8(3) 61.5(3) 64.2(3) ?
Ir3 In1 In9 2_5655 . 1_6665 51.2(3) 50.1(3) 52.3(3) ?
Ir3 In1 In9 2_5655 . 2_6565 120.7(5) 117.7(5) 123.8(5) ?
Ir3 In1 In13 2_5655 . . 123.1(5) 120.1(5) 126.2(5) ?
Ir3 In1 In13 2_5655 . 2_5655 52.2(3) 51.3(3) 53.1(3) ?
In2 In1 In6 1_6665 . . 175.7(7) 172.9(7) 178.6(7) ?
In2 In1 In9 1_6665 . 1_6665 95.5(5) 93.2(5) 97.7(5) ?
In2 In1 In9 1_6665 . 2_6565 95.5(5) 93.2(5) 97.7(5) ?
In2 In1 In13 1_6665 . . 95.8(4) 93.6(4) 98.0(4) ?
In2 In1 In13 1_6665 . 2_5655 95.8(4) 93.6(4) 98.0(4) ?
In6 In1 In9 . . 1_6665 81.2(4) 80.7(4) 81.8(4) ?
In6 In1 In9 . . 2_6565 81.2(4) 80.7(4) 81.8(4) ?
In6 In1 In13 . . . 87.4(4) 85.9(4) 88.9(4) ?
In6 In1 In13 . . 2_5655 87.4(4) 85.9(4) 88.9(4) ?
In9 In1 In9 1_6665 . 2_6565 79.5(4) 75.6(4) 83.4(4) ?
In9 In1 In13 1_6665 . . 168.4(5) 166.4(5) 170.7(5) ?
In9 In1 In13 1_6665 . 2_5655 98.4(3) 96.2(2) 100.6(3) ?
In9 In1 In13 2_6565 . . 98.4(3) 96.2(2) 100.6(3) ?
In9 In1 In13 2_6565 . 2_5655 168.4(5) 166.4(5) 170.7(5) ?
In13 In1 In13 . . 2_5655 81.3(4) 77.4(4) 85.2(4) ?
Ir4 In2 Ir4 . . 2_5455 124.8(6) 123.1(6) 126.6(6) ?
Ir4 In2 In1 . . 1_4445 117.5(3) 116.6(3) 118.4(3) ?
Ir4 In2 In7 . . . 62.5(3) 61.6(3) 63.4(3) ?
Ir4 In2 In8 . . 1_4445 121.2(5) 118.0(5) 124.5(5) ?
Ir4 In2 In8 . . 2_4545 53.1(3) 52.5(3) 53.8(3) ?
Ir4 In2 In14 . . . 52.5(3) 51.5(3) 53.5(3) ?
Ir4 In2 In14 . . 2_5455 119.4(5) 116.9(5) 122.0(5) ?
Ir4 In2 In1 2_5455 . 1_4445 117.5(3) 116.6(3) 118.4(3) ?
Ir4 In2 In7 2_5455 . . 62.5(3) 61.6(3) 63.4(3) ?
Ir4 In2 In8 2_5455 . 1_4445 53.1(3) 52.5(3) 53.8(3) ?
Ir4 In2 In8 2_5455 . 2_4545 121.2(5) 118.0(5) 124.5(5) ?
Ir4 In2 In14 2_5455 . . 119.4(5) 116.9(5) 122.0(5) ?
Ir4 In2 In14 2_5455 . 2_5455 52.5(3) 51.5(3) 53.5(3) ?
In1 In2 In7 1_4445 . . 175.9(7) 172.4(7) 179.3(7) ?
In1 In2 In8 1_4445 . 1_4445 96.1(5) 93.9(5) 98.3(5) ?
In1 In2 In8 1_4445 . 2_4545 96.1(5) 93.9(5) 98.3(5) ?
In1 In2 In14 1_4445 . . 96.2(4) 93.8(4) 98.4(4) ?
In1 In2 In14 1_4445 . 2_5455 96.2(4) 93.8(4) 98.4(4) ?
In7 In2 In8 . . 1_4445 87.0(4) 85.5(4) 88.6(4) ?
In7 In2 In8 . . 2_4545 87.0(4) 85.5(4) 88.6(4) ?
In7 In2 In14 . . . 80.6(4) 79.8(4) 81.4(4) ?
In7 In2 In14 . . 2_5455 80.6(4) 79.8(4) 81.4(4) ?
In8 In2 In8 1_4445 . 2_4545 78.2(4) 74.1(4) 82.3(4) ?
In8 In2 In14 1_4445 . . 167.4(6) 165.6(6) 169.6(6) ?
In8 In2 In14 1_4445 . 2_5455 101.2(3) 99.0(3) 103.3(3) ?
In8 In2 In14 2_4545 . . 101.2(3) 99.0(3) 103.3(3) ?
In8 In2 In14 2_4545 . 2_5455 167.4(6) 165.6(6) 169.6(6) ?
In14 In2 In14 . . 2_5455 76.7(4) 73.0(4) 80.4(4) ?
Ir1 In3 Ir1 . . 2_5555 122.2(5) 122.0(5) 122.4(6) ?
Ir1 In3 In4 . . . 118.8(3) 118.6(3) 118.9(3) ?
Ir1 In3 In11 . . . 52.0(3) 51.4(3) 52.6(3) ?
Ir1 In3 In11 . . 2_5555 119.5(5) 117.7(5) 121.3(5) ?
Ir1 In3 In15 . . . 51.9(3) 51.3(3) 52.4(3) ?
Ir1 In3 In15 . . 2_5555 119.5(5) 117.4(5) 121.5(5) ?
Ir1 In3 In21 . . . 61.2(3) 61.1(3) 61.4(3) ?
Ir1 In3 In4 2_5555 . . 118.8(3) 118.6(3) 118.9(3) ?
Ir1 In3 In11 2_5555 . . 119.5(5) 117.7(5) 121.3(5) ?
Ir1 In3 In11 2_5555 . 2_5555 52.0(3) 51.4(3) 52.6(3) ?
Ir1 In3 In15 2_5555 . . 119.5(5) 117.4(5) 121.5(5) ?
Ir1 In3 In15 2_5555 . 2_5555 51.9(3) 51.3(3) 52.4(3) ?
Ir1 In3 In21 2_5555 . . 61.2(3) 61.1(3) 61.4(3) ?
In4 In3 In11 . . . 97.4(5) 93.8(5) 100.8(5) ?
In4 In3 In11 . . 2_5555 97.4(5) 93.8(5) 100.8(5) ?
In4 In3 In15 . . . 97.3(4) 93.9(4) 100.7(4) ?
In4 In3 In15 . . 2_5555 97.3(4) 93.9(4) 100.7(4) ?
In4 In3 In21 . . . 171.9(7) 167.0(7) 178.3(7) ?
In11 In3 In11 . . 2_5555 78.5(4) 76.8(4) 80.3(4) ?
In11 In3 In15 . . . 99.5(2) 99.3(2) 99.7(2) ?
In11 In3 In15 . . 2_5555 165.2(5) 165.0(6) 165.3(5) ?
In11 In3 In21 . . . 83.9(4) 76.8(4) 90.9(4) ?
In11 In3 In15 2_5555 . . 165.2(5) 165.0(6) 165.3(5) ?
In11 In3 In15 2_5555 . 2_5555 99.5(2) 99.3(2) 99.7(2) ?
In11 In3 In21 2_5555 . . 83.9(4) 76.8(4) 90.9(4) ?
In15 In3 In15 . . 2_5555 78.6(4) 76.4(4) 80.8(4) ?
In15 In3 In21 . . . 81.3(5) 74.2(4) 88.5(5) ?
In15 In3 In21 2_5555 . . 81.3(5) 74.2(4) 88.5(5) ?
Ir2 In4 Ir2 . . 2_5555 124.8(6) 124.4(6) 125.2(6) ?
Ir2 In4 In3 . . . 117.4(3) 117.2(3) 117.6(3) ?
Ir2 In4 In12 . . . 52.0(3) 51.0(3) 53.0(3) ?
Ir2 In4 In12 . . 2_5555 121.1(5) 118.1(5) 124.0(5) ?
Ir2 In4 In16 . . . 51.7(3) 50.7(3) 52.7(3) ?
Ir2 In4 In16 . . 2_5555 121.0(5) 118.6(5) 123.5(6) ?
Ir2 In4 In22 . . . 62.5(3) 62.3(3) 62.6(3) ?
Ir2 In4 In3 2_5555 . . 117.4(3) 117.2(3) 117.6(3) ?
Ir2 In4 In12 2_5555 . . 121.1(5) 118.1(5) 124.0(5) ?
Ir2 In4 In12 2_5555 . 2_5555 52.0(3) 51.0(3) 53.0(3) ?
Ir2 In4 In16 2_5555 . . 121.0(5) 118.6(5) 123.5(6) ?
Ir2 In4 In16 2_5555 . 2_5555 51.7(3) 50.7(3) 52.7(3) ?
Ir2 In4 In22 2_5555 . . 62.5(3) 62.3(3) 62.6(3) ?
In3 In4 In12 . . . 96.1(5) 92.8(5) 99.4(5) ?
In3 In4 In12 . . 2_5555 96.1(5) 92.8(5) 99.4(5) ?
In3 In4 In16 . . . 96.4(4) 92.7(4) 100.1(4) ?
In3 In4 In16 . . 2_5555 96.4(4) 92.7(4) 100.1(4) ?
In3 In4 In22 . . . 171.3(7) 165.2(7) 177.9(8) ?
In12 In4 In12 . . 2_5555 79.3(4) 76.9(4) 81.7(4) ?
In12 In4 In16 . . . 99.1(2) 99.0(2) 99.2(2) ?
In12 In4 In16 . . 2_5555 167.3(5) 166.7(5) 167.6(5) ?
In12 In4 In22 . . . 82.4(5) 74.4(4) 90.3(5) ?
In12 In4 In16 2_5555 . . 167.3(5) 166.7(5) 167.6(5) ?
In12 In4 In16 2_5555 . 2_5555 99.1(2) 99.0(2) 99.2(2) ?
In12 In4 In22 2_5555 . . 82.4(5) 74.4(4) 90.3(5) ?
In16 In4 In16 . . 2_5555 79.6(4) 77.4(4) 81.9(4) ?
In16 In4 In22 . . . 84.9(5) 77.3(5) 92.4(5) ?
In16 In4 In22 2_5555 . . 84.9(5) 77.3(5) 92.4(5) ?
Ir3 In5 Ir4 . . 2_6565 138.6(3) 138.5(3) 138.8(3) ?
Ir3 In5 In5 . . 2_5555 110.1(4) 109.4(4) 110.8(4) ?
Ir3 In5 In8 . . . 109.3(4) 108.4(4) 110.2(4) ?
Ir3 In5 In9 . . 2_6565 50.8(3) 50.4(3) 51.1(3) ?
Ir3 In5 In13 . . . 51.1(3) 51.0(3) 51.2(3) ?
Ir3 In5 In14 . . 2_6565 109.0(4) 107.8(4) 110.1(4) ?
Ir3 In5 In19 . . . 52.2(3) 51.1(3) 53.3(3) ?
Ir3 In5 In20 . . 1_6565 168.6(4) 167.8(4) 169.5(4) ?
Ir3 In5 In21 . . . 101.1(5) 94.8(5) 107.5(5) ?
Ir3 In5 In22 . . 1_6565 100.7(5) 94.9(5) 106.4(5) ?
Ir4 In5 In5 2_6565 . 2_5555 111.2(4) 110.3(4) 112.2(4) ?
Ir4 In5 In8 2_6565 . . 50.8(3) 50.7(3) 51.0(3) ?
Ir4 In5 In9 2_6565 . 2_6565 109.8(4) 108.3(4) 111.3(4) ?
Ir4 In5 In13 2_6565 . . 110.0(4) 108.9(4) 111.1(4) ?
Ir4 In5 In14 2_6565 . 2_6565 50.9(3) 50.5(3) 51.2(3) ?
Ir4 In5 In19 2_6565 . . 169.1(4) 167.9(4) 170.5(4) ?
Ir4 In5 In20 2_6565 . 1_6565 52.7(3) 51.7(3) 53.7(3) ?
Ir4 In5 In21 2_6565 . . 99.6(5) 93.6(5) 105.7(5) ?
Ir4 In5 In22 2_6565 . 1_6565 99.3(5) 93.7(5) 105.0(5) ?
In5 In5 In8 2_5555 . . 115.8(4) 114.0(4) 117.6(4) ?
In5 In5 In9 2_5555 . 2_6565 114.0(4) 112.2(4) 115.9(4) ?
In5 In5 In13 2_5555 . . 113.9(4) 112.2(4) 115.6(4) ?
In5 In5 In14 2_5555 . 2_6565 115.8(4) 114.0(4) 117.5(4) ?
In5 In5 In19 2_5555 . . 58.0(3) 57.6(3) 58.3(3) ?
In5 In5 In20 2_5555 . 1_6565 58.5(3) 58.4(3) 58.7(3) ?
In5 In5 In21 2_5555 . . 59.8(3) 59.6(3) 59.9(3) ?
In5 In5 In22 2_5555 . 1_6565 60.4(3) 60.0(3) 60.6(3) ?
In8 In5 In9 . . 2_6565 130.2(3) 127.6(3) 132.8(3) ?
In8 In5 In13 . . . 62.2(3) 62.0(3) 62.5(3) ?
In8 In5 In14 . . 2_6565 96.0(4) 95.5(4) 96.5(4) ?
In8 In5 In19 . . . 132.1(5) 130.6(5) 133.6(5) ?
In8 In5 In20 . . 1_6565 77.9(4) 76.3(4) 79.4(4) ?
In8 In5 In21 . . . 64.7(4) 62.3(3) 67.3(4) ?
In8 In5 In22 . . 1_6565 148.3(6) 142.5(5) 154.2(6) ?
In9 In5 In13 2_6565 . . 97.1(4) 96.7(4) 97.4(4) ?
In9 In5 In14 2_6565 . 2_6565 62.1(3) 61.8(3) 62.4(3) ?
In9 In5 In19 2_6565 . . 76.4(4) 74.7(4) 78.2(4) ?
In9 In5 In20 2_6565 . 1_6565 131.4(5) 129.3(5) 133.4(5) ?
In9 In5 In21 2_6565 . . 149.5(6) 143.0(6) 156.0(6) ?
In9 In5 In22 2_6565 . 1_6565 64.1(4) 61.6(3) 66.9(4) ?
In13 In5 In14 . . 2_6565 130.3(3) 127.9(3) 132.8(3) ?
In13 In5 In19 . . . 77.3(4) 75.7(4) 78.8(4) ?
In13 In5 In20 . . 1_6565 130.9(5) 128.8(5) 132.9(5) ?
In13 In5 In21 . . . 64.5(4) 61.7(4) 67.6(4) ?
In13 In5 In22 . . 1_6565 149.5(5) 143.7(5) 155.2(5) ?
In14 In5 In19 2_6565 . . 130.7(5) 129.3(5) 132.2(5) ?
In14 In5 In20 2_6565 . 1_6565 78.3(4) 77.1(4) 79.5(4) ?
In14 In5 In21 2_6565 . . 148.5(5) 142.0(5) 154.9(5) ?
In14 In5 In22 2_6565 . 1_6565 64.1(4) 61.6(3) 66.8(4) ?
In19 In5 In20 . . 1_6565 116.5(3) 116.3(3) 116.7(3) ?
In19 In5 In21 . . . 75.9(4) 69.1(4) 82.7(4) ?
In19 In5 In22 . . 1_6565 75.1(4) 68.8(4) 81.4(4) ?
In20 In5 In21 1_6565 . . 73.6(5) 66.5(5) 80.7(4) ?
In20 In5 In22 1_6565 . 1_6565 74.3(5) 67.9(5) 80.8(5) ?
In21 In5 In22 . . 1_6565 119.4(3) 118.8(3) 120.0(3) ?
Ir3 In6 Ir3 . . 2_5655 111.6(5) 111.6(5) 111.7(5) ?
Ir3 In6 In1 . . . 55.8(3) 55.8(3) 55.9(3) ?
Ir3 In6 In10 . . 1_5565 93.1(2) 93.0(2) 93.3(2) ?
Ir3 In6 In10 . . 2_5665 154.1(4) 153.6(4) 154.5(4) ?
Ir3 In6 In15 . . 1_5565 48.7(3) 48.5(3) 48.9(2) ?
Ir3 In6 In15 . . 2_5665 144.3(6) 142.6(6) 145.9(6) ?
Ir3 In6 Se4 . . 1_5565 85.7(4) 85.1(4) 86.3(5) ?
Ir3 In6 In1 2_5655 . . 55.8(3) 55.8(3) 55.9(3) ?
Ir3 In6 In10 2_5655 . 1_5565 154.1(4) 153.6(4) 154.5(4) ?
Ir3 In6 In10 2_5655 . 2_5665 93.1(2) 93.0(2) 93.3(2) ?
Ir3 In6 In15 2_5655 . 1_5565 144.3(6) 142.6(6) 145.9(6) ?
Ir3 In6 In15 2_5655 . 2_5665 48.7(3) 48.5(3) 48.9(2) ?
Ir3 In6 Se4 2_5655 . 1_5565 85.7(4) 85.1(4) 86.3(5) ?
In1 In6 In10 . . 1_5565 148.5(2) 148.2(2) 148.8(2) ?
In1 In6 In10 . . 2_5665 148.5(2) 148.2(2) 148.8(2) ?
In1 In6 In15 . . 1_5565 97.1(4) 96.5(4) 97.7(4) ?
In1 In6 In15 . . 2_5665 97.1(4) 96.5(4) 97.7(4) ?
In1 In6 Se4 . . 1_5565 80.8(6) 79.1(6) 82.6(6) ?
In10 In6 In10 1_5565 . 2_5665 61.4(3) 61.2(3) 61.5(3) ?
In10 In6 In15 1_5565 . 1_5565 59.3(3) 59.0(3) 59.6(3) ?
In10 In6 In15 1_5565 . 2_5665 113.4(4) 113.2(4) 113.6(4) ?
In10 In6 Se4 1_5565 . 1_5565 104.2(5) 102.3(5) 106.2(5) ?
In10 In6 In15 2_5665 . 1_5565 113.4(4) 113.2(4) 113.6(4) ?
In10 In6 In15 2_5665 . 2_5665 59.3(3) 59.0(3) 59.6(3) ?
In10 In6 Se4 2_5665 . 1_5565 104.2(5) 102.3(5) 106.2(5) ?
In15 In6 In15 1_5565 . 2_5665 125.5(5) 123.2(5) 127.8(5) ?
In15 In6 Se4 1_5565 . 1_5565 65.5(3) 63.9(3) 67.1(3) ?
In15 In6 Se4 2_5665 . 1_5565 65.5(3) 63.9(3) 67.1(3) ?
Ir4 In7 Ir4 . . 2_5455 115.6(5) 114.8(5) 116.4(5) ?
Ir4 In7 In2 . . . 57.8(3) 57.4(3) 58.2(3) ?
Ir4 In7 In10 . . 1_5445 151.0(4) 150.6(4) 151.4(4) ?
Ir4 In7 In10 . . 2_5545 92.3(3) 92.1(3) 92.4(3) ?
Ir4 In7 In11 . . 1_5445 147.5(5) 146.7(5) 148.3(5) ?
Ir4 In7 In11 . . 2_5545 49.2(3) 49.1(3) 49.2(3) ?
Ir4 In7 Se2 . . 1_5445 88.8(4) 88.4(4) 89.2(4) ?
Ir4 In7 In2 2_5455 . . 57.8(3) 57.4(3) 58.2(3) ?
Ir4 In7 In10 2_5455 . 1_5445 92.3(3) 92.1(3) 92.4(3) ?
Ir4 In7 In10 2_5455 . 2_5545 151.0(4) 150.6(4) 151.4(4) ?
Ir4 In7 In11 2_5455 . 1_5445 49.2(3) 49.1(3) 49.2(3) ?
Ir4 In7 In11 2_5455 . 2_5545 147.5(5) 146.7(5) 148.3(5) ?
Ir4 In7 Se2 2_5455 . 1_5445 88.8(4) 88.4(4) 89.2(4) ?
In2 In7 In10 . . 1_5445 149.6(2) 149.1(3) 150.1(2) ?
In2 In7 In10 . . 2_5545 149.6(2) 149.1(3) 150.1(2) ?
In2 In7 In11 . . 1_5445 99.3(3) 99.1(3) 99.5(3) ?
In2 In7 In11 . . 2_5545 99.3(3) 99.1(3) 99.5(3) ?
In2 In7 Se2 . . 1_5445 85.6(5) 83.5(5) 87.6(5) ?
In10 In7 In10 1_5445 . 2_5545 59.1(3) 58.7(3) 59.6(3) ?
In10 In7 In11 1_5445 . 1_5445 58.1(3) 57.7(3) 58.6(3) ?
In10 In7 In11 1_5445 . 2_5545 110.2(5) 109.5(5) 110.9(5) ?
In10 In7 Se2 1_5445 . 1_5445 100.2(5) 98.8(5) 101.6(5) ?
In10 In7 In11 2_5545 . 1_5445 110.2(5) 109.5(5) 110.9(5) ?
In10 In7 In11 2_5545 . 2_5545 58.1(3) 57.7(3) 58.6(3) ?
In10 In7 Se2 2_5545 . 1_5445 100.2(5) 98.8(5) 101.6(5) ?
In11 In7 In11 1_5445 . 2_5545 124.5(5) 123.2(5) 125.8(5) ?
In11 In7 Se2 1_5445 . 1_5445 65.0(3) 64.0(3) 66.0(3) ?
In11 In7 Se2 2_5545 . 1_5445 65.0(3) 64.0(3) 66.0(3) ?
Ir1 In8 Ir4 . . 2_6565 148.9(5) 145.7(4) 152.1(5) ?
Ir1 In8 In2 . . 1_6665 130.0(5) 128.3(5) 131.7(5) ?
Ir1 In8 In5 . . . 96.4(4) 94.8(4) 97.9(4) ?
Ir1 In8 In13 . . . 49.6(3) 48.7(3) 50.5(3) ?
Ir1 In8 In15 . . . 53.3(4) 52.3(3) 54.2(4) ?
Ir1 In8 In16 . . 2_6555 132.8(4) 130.6(4) 135.0(4) ?
Ir1 In8 In17 . . . 51.1(3) 50.9(3) 51.4(3) ?
Ir1 In8 In21 . . . 54.6(4) 52.9(4) 56.5(4) ?
Ir1 In8 Se4 . . . 104.7(8) 101.6(8) 107.9(8) ?
Ir4 In8 In2 2_6565 . 1_6665 55.2(3) 54.9(3) 55.4(3) ?
Ir4 In8 In5 2_6565 . . 54.5(3) 53.3(3) 55.7(4) ?
Ir4 In8 In13 2_6565 . . 109.9(4) 108.4(4) 111.4(4) ?
Ir4 In8 In15 2_6565 . . 135.3(5) 133.7(4) 136.8(5) ?
Ir4 In8 In16 2_6565 . 2_6555 54.0(4) 53.6(4) 54.3(4) ?
Ir4 In8 In17 2_6565 . . 146.1(4) 144.1(4) 148.3(4) ?
Ir4 In8 In21 2_6565 . . 96.2(4) 91.8(4) 100.4(4) ?
Ir4 In8 Se4 2_6565 . . 106.1(8) 103.2(8) 109.0(8) ?
In2 In8 In5 1_6665 . . 69.4(3) 68.8(3) 70.0(3) ?
In2 In8 In13 1_6665 . . 84.9(4) 83.5(4) 86.4(4) ?
In2 In8 In15 1_6665 . . 159.5(4) 155.3(4) 163.7(4) ?
In2 In8 In16 1_6665 . 2_6555 96.9(4) 95.8(4) 98.0(4) ?
In2 In8 In17 1_6665 . . 91.1(4) 89.0(4) 93.2(4) ?
In2 In8 In21 1_6665 . . 125.3(5) 124.1(5) 126.4(5) ?
In2 In8 Se4 1_6665 . . 87.6(5) 83.9(5) 91.3(5) ?
In5 In8 In13 . . . 58.5(3) 57.4(3) 59.6(3) ?
In5 In8 In15 . . . 130.8(4) 127.4(4) 134.3(4) ?
In5 In8 In16 . . 2_6555 98.5(4) 96.4(4) 100.8(4) ?
In5 In8 In17 . . . 115.8(4) 114.4(4) 117.3(5) ?
In5 In8 In21 . . . 56.9(4) 56.3(4) 57.7(4) ?
In5 In8 Se4 . . . 155.6(7) 152.5(7) 158.8(7) ?
In13 In8 In15 . . . 102.8(4) 100.7(4) 104.7(4) ?
In13 In8 In16 . . 2_6555 154.8(4) 150.1(4) 159.3(4) ?
In13 In8 In17 . . . 59.3(3) 58.6(3) 60.0(3) ?
In13 In8 In21 . . . 60.6(4) 57.4(3) 64.0(4) ?
In13 In8 Se4 . . . 129.3(7) 125.3(6) 133.3(7) ?
In15 In8 In16 . . 2_6555 84.0(4) 82.9(4) 85.1(4) ?
In15 In8 In17 . . . 77.2(4) 75.8(4) 78.5(4) ?
In15 In8 In21 . . . 74.2(4) 69.7(4) 78.7(4) ?
In15 In8 Se4 . . . 72.8(5) 70.4(5) 75.1(5) ?
In16 In8 In17 2_6555 . . 145.2(5) 141.4(5) 149.1(5) ?
In16 In8 In21 2_6555 . . 99.3(4) 90.8(4) 107.7(4) ?
In16 In8 Se4 2_6555 . . 75.8(6) 74.7(6) 76.9(7) ?
In17 In8 In21 . . . 103.2(5) 100.7(4) 105.9(5) ?
In17 In8 Se4 . . . 70.8(7) 66.4(7) 75.3(7) ?
In21 In8 Se4 . . . 146.5(6) 141.8(6) 150.5(7) ?
Ir2 In9 Ir3 . . 2_4545 152.4(5) 149.5(4) 155.3(5) ?
Ir2 In9 In1 . . 1_4445 129.4(5) 126.6(5) 132.2(5) ?
Ir2 In9 In5 . . 2_4545 98.3(4) 97.2(4) 99.3(4) ?
Ir2 In9 In14 . . . 50.9(3) 50.6(3) 51.2(3) ?
Ir2 In9 In15 . . 2_4555 134.7(4) 131.8(4) 137.7(5) ?
Ir2 In9 In16 . . . 53.8(4) 52.8(4) 54.7(4) ?
Ir2 In9 In18 . . . 51.4(3) 50.9(3) 51.9(3) ?
Ir2 In9 In22 . . . 54.4(4) 53.2(4) 56.0(4) ?
Ir2 In9 Se4 . . 1_4455 108.0(8) 104.9(8) 111.1(8) ?
Ir3 In9 In1 2_4545 . 1_4445 54.4(3) 54.0(3) 54.8(3) ?
Ir3 In9 In5 2_4545 . 2_4545 55.7(4) 54.7(3) 56.8(4) ?
Ir3 In9 In14 2_4545 . . 111.1(4) 110.2(4) 112.2(4) ?
Ir3 In9 In15 2_4545 . 2_4555 53.8(4) 53.5(3) 54.1(4) ?
Ir3 In9 In16 2_4545 . . 136.4(5) 133.8(5) 139.1(5) ?
Ir3 In9 In18 2_4545 . . 143.9(4) 141.1(4) 146.6(4) ?
Ir3 In9 In22 2_4545 . . 99.8(4) 95.6(4) 103.8(4) ?
Ir3 In9 Se4 2_4545 . 1_4455 99.3(8) 96.9(8) 101.8(8) ?
In1 In9 In5 1_4445 . 2_4545 68.8(3) 68.2(3) 69.4(3) ?
In1 In9 In14 1_4445 . . 83.3(4) 80.7(4) 85.9(4) ?
In1 In9 In15 1_4445 . 2_4555 95.6(4) 94.2(4) 97.1(4) ?
In1 In9 In16 1_4445 . . 156.3(4) 152.1(4) 160.5(4) ?
In1 In9 In18 1_4445 . . 89.5(4) 87.0(3) 92.0(4) ?
In1 In9 In22 1_4445 . . 125.8(5) 124.1(5) 127.3(5) ?
In1 In9 Se4 1_4445 . 1_4455 80.9(5) 77.3(5) 84.7(5) ?
In5 In9 In14 2_4545 . . 59.4(3) 58.7(3) 60.1(3) ?
In5 In9 In15 2_4545 . 2_4555 100.5(4) 98.2(4) 102.7(4) ?
In5 In9 In16 2_4545 . . 134.5(4) 131.1(4) 137.9(4) ?
In5 In9 In18 2_4545 . . 116.3(5) 115.8(5) 116.9(5) ?
In5 In9 In22 2_4545 . . 58.4(4) 57.6(4) 59.4(4) ?
In5 In9 Se4 2_4545 . 1_4455 148.3(7) 146.0(6) 150.6(7) ?
In14 In9 In15 . . 2_4555 158.7(4) 154.5(4) 162.7(4) ?
In14 In9 In16 . . . 104.7(4) 103.3(4) 105.9(4) ?
In14 In9 In18 . . . 59.0(3) 58.1(3) 60.0(3) ?
In14 In9 In22 . . . 61.3(4) 58.0(3) 64.8(4) ?
In14 In9 Se4 . . 1_4455 127.3(6) 121.4(6) 133.2(6) ?
In15 In9 In16 2_4555 . . 84.5(4) 82.7(4) 86.3(4) ?
In15 In9 In18 2_4555 . . 141.9(5) 138.9(4) 144.9(5) ?
In15 In9 In22 2_4555 . . 104.0(4) 95.2(4) 112.5(4) ?
In15 In9 Se4 2_4555 . 1_4455 72.9(6) 70.2(6) 75.8(7) ?
In16 In9 In18 . . . 76.4(4) 75.1(4) 77.8(4) ?
In16 In9 In22 . . . 76.4(4) 71.8(4) 81.0(4) ?
In16 In9 Se4 . . 1_4455 76.4(5) 75.7(5) 77.2(5) ?
In18 In9 In22 . . . 103.1(5) 100.1(4) 106.2(5) ?
In18 In9 Se4 . . 1_4455 70.8(7) 65.6(7) 76.0(7) ?
In22 In9 Se4 . . 1_4455 152.3(7) 147.7(6) 156.0(7) ?
Ir1 In10 Ir2 . . 2_5555 138.7(3) 138.6(3) 138.8(3) ?
Ir1 In10 In6 . . 1_5545 97.7(5) 96.8(5) 98.6(5) ?
Ir1 In10 In7 . . 1_5665 97.7(4) 97.3(4) 98.0(4) ?
Ir1 In10 In10 . . 2_5655 110.8(4) 110.6(4) 111.0(4) ?
Ir1 In10 In11 . . . 50.9(3) 50.9(3) 51.0(3) ?
Ir1 In10 In12 . . 2_5555 109.7(4) 109.1(4) 110.2(4) ?
Ir1 In10 In15 . . . 50.9(3) 50.6(3) 51.1(3) ?
Ir1 In10 In16 . . 2_5555 110.2(4) 109.8(4) 110.6(4) ?
Ir1 In10 In17 . . . 53.1(3) 52.7(3) 53.5(3) ?
Ir1 In10 In18 . . 1_5655 169.1(4) 168.6(4) 169.7(3) ?
Ir2 In10 In6 2_5555 . 1_5545 102.9(4) 102.3(4) 103.5(4) ?
Ir2 In10 In7 2_5555 . 1_5665 102.5(5) 102.2(5) 102.8(5) ?
Ir2 In10 In10 2_5555 . 2_5655 110.5(4) 110.4(4) 110.6(4) ?
Ir2 In10 In11 2_5555 . . 109.5(4) 108.9(4) 110.1(4) ?
Ir2 In10 In12 2_5555 . 2_5555 50.8(3) 50.4(3) 51.1(3) ?
Ir2 In10 In15 2_5555 . . 109.4(4) 108.6(4) 110.2(4) ?
Ir2 In10 In16 2_5555 . 2_5555 50.4(3) 50.1(3) 50.8(3) ?
Ir2 In10 In17 2_5555 . . 168.2(4) 167.9(4) 168.6(4) ?
Ir2 In10 In18 2_5555 . 1_5655 52.1(3) 51.6(3) 52.5(3) ?
In6 In10 In7 1_5545 . 1_5665 119.4(3) 119.2(3) 119.7(3) ?
In6 In10 In10 1_5545 . 2_5655 59.3(3) 59.2(3) 59.4(3) ?
In6 In10 In11 1_5545 . . 146.3(5) 145.2(5) 147.4(5) ?
In6 In10 In12 1_5545 . 2_5555 66.2(3) 65.8(3) 66.7(3) ?
In6 In10 In15 1_5545 . . 63.3(3) 63.0(3) 63.5(3) ?
In6 In10 In16 1_5545 . 2_5555 151.1(5) 149.9(5) 152.3(5) ?
In6 In10 In17 1_5545 . . 72.2(4) 71.1(4) 73.3(4) ?
In6 In10 In18 1_5545 . 1_5655 77.9(4) 75.6(4) 80.1(4) ?
In7 In10 In10 1_5665 . 2_5655 60.4(3) 60.2(3) 60.7(3) ?
In7 In10 In11 1_5665 . . 62.5(3) 62.3(3) 62.7(3) ?
In7 In10 In12 1_5665 . 2_5555 151.3(5) 150.7(5) 152.0(5) ?
In7 In10 In15 1_5665 . . 146.5(5) 145.7(5) 147.2(5) ?
In7 In10 In16 1_5665 . 2_5555 65.4(3) 64.8(3) 66.0(3) ?
In7 In10 In17 1_5665 . . 71.9(4) 70.6(4) 73.3(4) ?
In7 In10 In18 1_5665 . 1_5655 76.5(4) 74.4(4) 78.5(4) ?
In10 In10 In11 2_5655 . . 115.1(4) 114.5(4) 115.7(4) ?
In10 In10 In12 2_5655 . 2_5555 114.6(4) 113.9(4) 115.2(4) ?
In10 In10 In15 2_5655 . . 115.0(4) 114.5(4) 115.6(4) ?
In10 In10 In16 2_5655 . 2_5555 114.5(4) 113.8(4) 115.3(4) ?
In10 In10 In17 2_5655 . . 57.8(3) 57.5(3) 58.0(3) ?
In10 In10 In18 2_5655 . 1_5655 58.5(3) 58.1(3) 58.8(3) ?
In11 In10 In12 . . 2_5555 130.3(3) 129.1(3) 131.6(3) ?
In11 In10 In15 . . . 96.5(4) 96.5(4) 96.6(4) ?
In11 In10 In16 . . 2_5555 62.6(3) 62.4(3) 62.9(3) ?
In11 In10 In17 . . . 77.6(4) 75.7(4) 79.4(4) ?
In11 In10 In18 . . 1_5655 130.3(5) 128.5(5) 132.1(5) ?
In12 In10 In15 2_5555 . . 62.2(3) 62.1(3) 62.3(3) ?
In12 In10 In16 2_5555 . 2_5555 96.3(4) 96.2(4) 96.3(4) ?
In12 In10 In17 2_5555 . . 131.9(5) 129.8(5) 134.0(5) ?
In12 In10 In18 2_5555 . 1_5655 77.8(4) 76.5(4) 79.1(4) ?
In15 In10 In16 . . 2_5555 130.4(3) 129.1(3) 131.7(3) ?
In15 In10 In17 . . . 78.3(4) 76.4(4) 80.3(4) ?
In15 In10 In18 . . 1_5655 132.2(5) 130.5(5) 134.0(5) ?
In16 In10 In17 2_5555 . . 131.2(5) 129.2(5) 133.3(5) ?
In16 In10 In18 2_5555 . 1_5655 75.9(4) 74.6(4) 77.2(4) ?
In17 In10 In18 . . 1_5655 116.1(3) 115.8(3) 116.4(3) ?
Ir1 In11 Ir4 . . 2_5565 150.1(4) 148.8(4) 151.4(4) ?
Ir1 In11 In3 . . . 55.5(3) 54.9(3) 56.2(3) ?
Ir1 In11 In7 . . 1_5665 98.2(4) 98.1(4) 98.3(4) ?
Ir1 In11 In10 . . . 55.0(3) 54.5(3) 55.5(3) ?
Ir1 In11 In13 . . . 53.5(4) 53.3(4) 53.7(4) ?
Ir1 In11 In14 . . 2_5565 135.3(5) 134.1(5) 136.5(5) ?
Ir1 In11 In16 . . 2_5555 110.3(4) 109.1(4) 111.5(4) ?
Ir1 In11 In20 . . 1_5565 144.2(4) 143.2(4) 145.3(4) ?
Ir1 In11 Se1 . . . 104.6(6) 97.5(6) 111.8(6) ?
Ir4 In11 In3 2_5565 . . 128.6(5) 126.9(5) 130.4(5) ?
Ir4 In11 In7 2_5565 . 1_5665 54.2(3) 53.0(3) 55.4(3) ?
Ir4 In11 In10 2_5565 . . 96.9(4) 96.0(4) 97.8(4) ?
Ir4 In11 In13 2_5565 . . 134.5(4) 132.1(4) 136.9(4) ?
Ir4 In11 In14 2_5565 . 2_5565 53.6(4) 53.0(4) 54.2(4) ?
Ir4 In11 In16 2_5565 . 2_5555 50.2(3) 50.0(3) 50.4(3) ?
Ir4 In11 In20 2_5565 . 1_5565 52.0(3) 50.7(3) 53.2(3) ?
Ir4 In11 Se1 2_5565 . . 105.2(6) 99.4(6) 110.9(6) ?
In3 In11 In7 . . 1_5665 126.9(4) 126.6(4) 127.2(4) ?
In3 In11 In10 . . . 68.5(3) 68.3(3) 68.6(3) ?
In3 In11 In13 . . . 96.9(4) 96.0(4) 97.8(4) ?
In3 In11 In14 . . 2_5565 159.6(4) 158.1(4) 161.0(4) ?
In3 In11 In16 . . 2_5555 82.8(4) 81.1(4) 84.5(4) ?
In3 In11 In20 . . 1_5565 88.7(3) 87.1(4) 90.3(3) ?
In3 In11 Se1 . . . 86.0(4) 82.3(4) 89.5(4) ?
In7 In11 In10 1_5665 . . 59.4(3) 59.2(3) 59.6(3) ?
In7 In11 In13 1_5665 . . 100.3(3) 97.8(3) 102.8(3) ?
In7 In11 In14 1_5665 . 2_5565 72.3(3) 70.8(3) 73.9(3) ?
In7 In11 In16 1_5665 . 2_5555 63.0(3) 62.6(3) 63.3(3) ?
In7 In11 In20 1_5665 . 1_5565 104.0(4) 103.0(4) 104.9(4) ?
In7 In11 Se1 1_5665 . . 146.7(5) 142.3(5) 150.5(5) ?
In10 In11 In13 . . . 99.4(4) 98.8(4) 99.9(4) ?
In10 In11 In14 . . 2_5565 131.5(4) 130.0(4) 133.1(4) ?
In10 In11 In16 . . 2_5555 58.8(3) 58.1(3) 59.4(3) ?
In10 In11 In20 . . 1_5565 115.0(4) 114.3(4) 115.7(4) ?
In10 In11 Se1 . . . 153.2(5) 148.0(6) 158.0(5) ?
In13 In11 In14 . . 2_5565 84.6(4) 83.3(4) 86.0(4) ?
In13 In11 In16 . . 2_5555 156.7(4) 155.6(4) 157.7(4) ?
In13 In11 In20 . . 1_5565 144.6(4) 143.0(4) 146.1(4) ?
In13 In11 Se1 . . . 75.7(5) 72.1(5) 79.4(5) ?
In14 In11 In16 2_5565 . 2_5555 103.8(4) 103.4(4) 104.2(4) ?
In14 In11 In20 2_5565 . 1_5565 78.8(4) 76.8(4) 80.9(4) ?
In14 In11 Se1 2_5565 . . 74.7(4) 72.0(4) 77.5(4) ?
In16 In11 In20 2_5555 . 1_5565 58.5(3) 57.4(3) 59.7(3) ?
In16 In11 Se1 2_5555 . . 127.3(5) 122.6(5) 132.0(5) ?
In20 In11 Se1 1_5565 . . 70.1(5) 64.3(5) 75.9(5) ?
Ir2 In12 Ir3 . . 2_5545 151.4(4) 150.6(4) 152.2(5) ?
Ir2 In12 In4 . . . 54.8(3) 54.4(3) 55.3(3) ?
Ir2 In12 In10 . . 2_5555 55.3(3) 55.0(3) 55.6(3) ?
Ir2 In12 In13 . . 2_5545 136.8(5) 135.5(5) 138.2(5) ?
Ir2 In12 In14 . . . 54.2(4) 54.0(4) 54.4(4) ?
Ir2 In12 In15 . . 2_5555 110.4(4) 109.4(4) 111.4(4) ?
Ir2 In12 In19 . . 1_5545 145.3(4) 144.0(4) 146.7(4) ?
Ir2 In12 Se1 . . 1_5545 101.1(6) 94.4(6) 107.8(6) ?
Ir3 In12 In4 2_5545 . . 128.9(5) 127.1(5) 130.7(5) ?
Ir3 In12 In10 2_5545 . 2_5555 97.6(4) 97.0(4) 98.2(4) ?
Ir3 In12 In13 2_5545 . 2_5545 53.9(4) 53.5(4) 54.4(4) ?
Ir3 In12 In14 2_5545 . . 133.9(4) 131.9(4) 135.9(4) ?
Ir3 In12 In15 2_5545 . 2_5555 50.4(3) 50.1(3) 50.7(3) ?
Ir3 In12 In19 2_5545 . 1_5545 49.9(3) 48.9(3) 50.9(3) ?
Ir3 In12 Se1 2_5545 . 1_5545 107.5(6) 101.5(6) 113.5(6) ?
In4 In12 In10 . . 2_5555 68.9(3) 68.4(3) 69.5(3) ?
In4 In12 In13 . . 2_5545 156.5(4) 155.3(4) 157.6(4) ?
In4 In12 In14 . . . 97.2(4) 96.1(4) 98.2(4) ?
In4 In12 In15 . . 2_5555 83.6(4) 82.2(4) 84.9(4) ?
In4 In12 In19 . . 1_5545 90.5(3) 88.7(3) 92.3(3) ?
In4 In12 Se1 . . 1_5545 83.5(4) 80.6(4) 86.3(4) ?
In10 In12 In13 2_5555 . 2_5545 134.1(4) 132.9(4) 135.4(4) ?
In10 In12 In14 2_5555 . . 99.5(4) 98.8(4) 100.3(4) ?
In10 In12 In15 2_5555 . 2_5555 58.8(3) 58.5(3) 59.1(3) ?
In10 In12 In19 2_5555 . 1_5545 115.7(4) 115.4(4) 116.0(4) ?
In10 In12 Se1 2_5555 . 1_5545 150.6(5) 145.5(6) 155.4(5) ?
In13 In12 In14 2_5545 . . 84.3(4) 83.1(4) 85.4(4) ?
In13 In12 In15 2_5545 . 2_5555 104.3(4) 104.1(4) 104.5(4) ?
In13 In12 In19 2_5545 . 1_5545 75.6(4) 73.8(4) 77.4(4) ?
In13 In12 Se1 2_5545 . 1_5545 74.4(4) 71.6(4) 77.4(5) ?
In14 In12 In15 . . 2_5555 156.6(4) 155.0(4) 158.2(4) ?
In14 In12 In19 . . 1_5545 144.2(4) 143.2(4) 145.1(4) ?
In14 In12 Se1 . . 1_5545 73.8(5) 70.4(4) 77.4(5) ?
In15 In12 In19 2_5555 . 1_5545 58.8(3) 58.4(3) 59.1(3) ?
In15 In12 Se1 2_5555 . 1_5545 129.3(5) 124.2(5) 134.2(5) ?
In19 In12 Se1 1_5545 . 1_5545 72.6(5) 66.6(5) 78.7(5) ?
Ir1 In13 Ir3 . . . 152.1(5) 148.9(5) 155.2(5) ?
Ir1 In13 In1 . . . 128.7(5) 127.2(5) 130.3(5) ?
Ir1 In13 In5 . . . 97.9(4) 96.5(4) 99.2(4) ?
Ir1 In13 In8 . . . 50.8(3) 50.0(3) 51.4(4) ?
Ir1 In13 In11 . . . 54.1(4) 53.3(4) 54.8(4) ?
Ir1 In13 In12 . . 2_5565 135.4(5) 133.0(5) 137.7(5) ?
Ir1 In13 In17 . . . 51.1(3) 50.7(2) 51.5(3) ?
Ir1 In13 In21 . . . 55.2(4) 54.0(4) 56.6(4) ?
Ir1 In13 Se2 . . . 102.1(5) 99.6(5) 104.6(5) ?
Ir3 In13 In1 . . . 55.0(3) 54.4(3) 55.6(3) ?
Ir3 In13 In5 . . . 55.6(4) 54.6(3) 56.7(4) ?
Ir3 In13 In8 . . . 110.8(5) 109.9(5) 111.7(5) ?
Ir3 In13 In11 . . . 136.5(5) 134.9(5) 138.1(5) ?
Ir3 In13 In12 . . 2_5565 53.8(4) 53.4(4) 54.2(4) ?
Ir3 In13 In17 . . . 143.9(4) 141.2(4) 146.4(5) ?
Ir3 In13 In21 . . . 98.8(4) 94.7(4) 102.7(4) ?
Ir3 In13 Se2 . . . 105.7(5) 103.3(5) 108.0(5) ?
In1 In13 In5 . . . 69.4(3) 68.7(3) 70.1(3) ?
In1 In13 In8 . . . 83.0(4) 81.4(4) 84.6(4) ?
In1 In13 In11 . . . 155.9(4) 151.9(4) 159.9(4) ?
In1 In13 In12 . . 2_5565 95.7(4) 94.3(4) 97.1(4) ?
In1 In13 In17 . . . 88.9(3) 86.7(3) 91.1(4) ?
In1 In13 In21 . . . 125.3(5) 123.5(5) 127.0(5) ?
In1 In13 Se2 . . . 84.4(4) 80.6(4) 88.2(4) ?
In5 In13 In8 . . . 59.3(3) 58.4(3) 60.1(3) ?
In5 In13 In11 . . . 134.3(4) 131.1(4) 137.5(4) ?
In5 In13 In12 . . 2_5565 100.6(4) 98.5(4) 102.6(4) ?
In5 In13 In17 . . . 116.0(5) 115.4(5) 116.6(5) ?
In5 In13 In21 . . . 57.4(4) 56.4(4) 58.5(4) ?
In5 In13 Se2 . . . 153.3(5) 150.5(5) 156.1(5) ?
In8 In13 In11 . . . 104.8(4) 103.2(4) 106.2(4) ?
In8 In13 In12 . . 2_5565 158.9(4) 154.9(4) 162.6(5) ?
In8 In13 In17 . . . 58.8(3) 58.4(3) 59.2(3) ?
In8 In13 In21 . . . 61.3(4) 58.0(3) 64.8(4) ?
In8 In13 Se2 . . . 123.5(5) 119.1(5) 127.8(5) ?
In11 In13 In12 . . 2_5565 84.8(4) 83.8(4) 85.8(4) ?
In11 In13 In17 . . . 76.5(4) 75.5(4) 77.5(4) ?
In11 In13 In21 . . . 77.2(4) 72.6(4) 81.8(4) ?
In11 In13 Se2 . . . 72.2(4) 70.5(4) 74.0(5) ?
In12 In13 In17 2_5565 . . 142.1(5) 138.5(5) 145.7(5) ?
In12 In13 In21 2_5565 . . 104.2(4) 95.7(4) 112.5(4) ?
In12 In13 Se2 2_5565 . . 76.9(5) 76.3(4) 77.6(5) ?
In17 In13 In21 . . . 103.3(4) 100.9(4) 105.9(4) ?
In17 In13 Se2 . . . 66.2(4) 62.6(4) 69.8(4) ?
In21 In13 Se2 . . . 148.7(6) 144.8(6) 151.8(6) ?
Ir2 In14 Ir4 . . . 149.2(5) 146.3(5) 152.1(5) ?
Ir2 In14 In2 . . . 130.3(5) 127.7(5) 132.9(5) ?
Ir2 In14 In5 . . 2_4545 96.7(4) 95.6(4) 97.7(4) ?
Ir2 In14 In9 . . . 49.8(3) 49.2(3) 50.4(3) ?
Ir2 In14 In11 . . 2_5545 132.8(5) 129.8(4) 135.7(5) ?
Ir2 In14 In12 . . . 53.3(4) 52.4(4) 54.2(4) ?
Ir2 In14 In18 . . . 51.0(2) 50.7(2) 51.4(3) ?
Ir2 In14 In22 . . . 54.0(4) 52.4(3) 56.0(4) ?
Ir2 In14 Se2 . . 1_5445 110.8(6) 108.6(5) 113.0(6) ?
Ir4 In14 In2 . . . 54.4(3) 54.3(3) 54.5(3) ?
Ir4 In14 In5 . . 2_4545 54.5(4) 53.2(3) 55.8(4) ?
Ir4 In14 In9 . . . 109.8(5) 108.5(5) 111.1(5) ?
Ir4 In14 In11 . . 2_5545 53.8(4) 53.5(4) 54.2(4) ?
Ir4 In14 In12 . . . 135.5(5) 133.1(4) 137.9(5) ?
Ir4 In14 In18 . . . 145.5(5) 142.6(4) 148.4(5) ?
Ir4 In14 In22 . . . 97.2(4) 93.1(4) 101.1(4) ?
Ir4 In14 Se2 . . 1_5445 99.7(5) 97.8(5) 101.6(5) ?
In2 In14 In5 . . 2_4545 68.8(3) 68.2(3) 69.3(3) ?
In2 In14 In9 . . . 84.9(4) 82.3(4) 87.4(4) ?
In2 In14 In11 . . 2_5545 96.7(4) 95.5(4) 97.7(4) ?
In2 In14 In12 . . . 159.6(4) 155.7(4) 163.7(4) ?
In2 In14 In18 . . . 91.2(4) 88.2(3) 94.3(4) ?
In2 In14 In22 . . . 125.8(5) 124.2(5) 127.2(5) ?
In2 In14 Se2 . . 1_5445 83.8(4) 80.5(4) 87.2(4) ?
In5 In14 In9 2_4545 . . 58.5(3) 57.6(3) 59.4(3) ?
In5 In14 In11 2_4545 . 2_5545 98.1(4) 95.7(4) 100.6(4) ?
In5 In14 In12 2_4545 . . 131.3(4) 128.0(3) 134.7(4) ?
In5 In14 In18 2_4545 . . 115.1(5) 114.9(5) 115.3(5) ?
In5 In14 In22 2_4545 . . 58.0(4) 57.1(4) 59.0(4) ?
In5 In14 Se2 2_4545 . 1_5445 149.8(5) 148.0(5) 151.5(6) ?
In9 In14 In11 . . 2_5545 154.3(4) 149.6(4) 159.0(4) ?
In9 In14 In12 . . . 103.0(4) 101.3(4) 104.6(4) ?
In9 In14 In18 . . . 58.7(3) 57.8(3) 59.5(3) ?
In9 In14 In22 . . . 60.8(4) 57.7(3) 64.2(4) ?
In9 In14 Se2 . . 1_5445 133.2(5) 128.0(4) 138.3(5) ?
In11 In14 In12 2_5545 . . 84.1(4) 82.6(4) 85.5(4) ?
In11 In14 In18 2_5545 . . 146.2(5) 143.2(5) 149.3(5) ?
In11 In14 In22 2_5545 . . 99.1(4) 90.4(4) 107.5(4) ?
In11 In14 Se2 2_5545 . 1_5445 72.1(4) 70.1(4) 74.3(4) ?
In12 In14 In18 . . . 77.6(4) 76.6(4) 78.6(4) ?
In12 In14 In22 . . . 73.6(4) 69.0(4) 78.2(4) ?
In12 In14 Se2 . . 1_5445 77.1(5) 76.4(5) 77.7(5) ?
In18 In14 In22 . . . 102.5(4) 99.5(4) 105.7(4) ?
In18 In14 Se2 . . 1_5445 76.3(4) 72.0(4) 80.6(4) ?
In22 In14 Se2 . . 1_5445 149.7(6) 144.1(6) 154.8(6) ?
Ir1 In15 Ir3 . . 1_5545 151.1(5) 149.9(5) 152.3(5) ?
Ir1 In15 In3 . . . 55.5(3) 55.2(3) 55.8(3) ?
Ir1 In15 In6 . . 1_5545 96.2(4) 95.7(4) 96.8(4) ?
Ir1 In15 In8 . . . 54.1(4) 53.9(4) 54.4(4) ?
Ir1 In15 In9 . . 2_6555 136.6(5) 135.4(5) 137.7(5) ?
Ir1 In15 In10 . . . 55.0(3) 54.8(3) 55.2(3) ?
Ir1 In15 In12 . . 2_5555 110.6(5) 109.5(5) 111.6(5) ?
Ir1 In15 In19 . . 1_5545 146.1(4) 144.6(4) 147.6(4) ?
Ir1 In15 Se3 . . . 102.3(6) 94.4(6) 110.2(6) ?
Ir3 In15 In3 1_5545 . . 128.4(5) 126.5(5) 130.3(5) ?
Ir3 In15 In6 1_5545 . 1_5545 56.9(3) 55.8(3) 58.0(3) ?
Ir3 In15 In8 1_5545 . . 133.1(5) 130.5(4) 135.7(5) ?
Ir3 In15 In9 1_5545 . 2_6555 53.3(4) 52.7(4) 54.0(4) ?
Ir3 In15 In10 1_5545 . . 97.7(4) 96.5(4) 99.0(4) ?
Ir3 In15 In12 1_5545 . 2_5555 50.3(3) 49.7(3) 50.9(3) ?
Ir3 In15 In19 1_5545 . 1_5545 50.4(2) 49.5(2) 51.3(2) ?
Ir3 In15 Se3 1_5545 . . 106.5(6) 99.9(6) 113.1(6) ?
In3 In15 In6 . . 1_5545 125.1(5) 124.5(5) 125.8(5) ?
In3 In15 In8 . . . 98.5(4) 97.4(4) 99.6(4) ?
In3 In15 In9 . . 2_6555 157.6(4) 156.3(4) 158.9(4) ?
In3 In15 In10 . . . 68.4(3) 68.2(3) 68.7(3) ?
In3 In15 In12 . . 2_5555 83.0(4) 81.5(4) 84.4(4) ?
In3 In15 In19 . . 1_5545 90.5(3) 88.8(3) 92.3(3) ?
In3 In15 Se3 . . . 84.9(4) 81.5(4) 88.3(4) ?
In6 In15 In8 1_5545 . . 97.9(3) 94.9(3) 100.8(3) ?
In6 In15 In9 1_5545 . 2_6555 76.0(4) 75.0(4) 76.9(4) ?
In6 In15 In10 1_5545 . . 57.4(3) 56.8(3) 58.0(3) ?
In6 In15 In12 1_5545 . 2_5555 63.0(3) 62.1(3) 63.9(3) ?
In6 In15 In19 1_5545 . 1_5545 105.3(4) 105.0(4) 105.7(4) ?
In6 In15 Se3 1_5545 . . 149.5(6) 146.3(6) 151.7(6) ?
In8 In15 In9 . . 2_6555 84.2(4) 82.7(4) 85.7(4) ?
In8 In15 In10 . . . 98.9(4) 98.3(4) 99.6(4) ?
In8 In15 In12 . . 2_5555 155.8(4) 154.6(4) 156.9(4) ?
In8 In15 In19 . . 1_5545 143.7(5) 143.1(5) 144.2(5) ?
In8 In15 Se3 . . . 75.1(5) 70.4(5) 80.1(5) ?
In9 In15 In10 2_6555 . . 133.3(3) 131.7(3) 135.0(3) ?
In9 In15 In12 2_6555 . 2_5555 103.6(4) 103.6(4) 103.6(4) ?
In9 In15 In19 2_6555 . 1_5545 75.1(4) 73.0(4) 77.2(4) ?
In9 In15 Se3 2_6555 . . 74.4(5) 71.5(5) 77.4(5) ?
In10 In15 In12 . . 2_5555 59.0(3) 58.6(3) 59.4(3) ?
In10 In15 In19 . . 1_5545 117.0(5) 116.1(5) 117.8(5) ?
In10 In15 Se3 . . . 151.4(5) 145.6(6) 156.8(5) ?
In12 In15 In19 2_5555 . 1_5545 59.9(3) 59.4(3) 60.4(3) ?
In12 In15 Se3 2_5555 . . 128.9(5) 122.9(5) 134.7(5) ?
In19 In15 Se3 1_5545 . . 71.0(5) 64.1(5) 77.8(5) ?
Ir2 In16 Ir4 . . 1_5565 150.6(5) 149.9(5) 151.3(5) ?
Ir2 In16 In4 . . . 55.0(3) 54.1(3) 55.9(3) ?
Ir2 In16 In8 . . 2_4555 136.1(5) 134.2(4) 138.1(5) ?
Ir2 In16 In9 . . . 53.9(4) 53.8(4) 54.0(4) ?
Ir2 In16 In10 . . 2_5555 55.4(3) 55.0(3) 55.8(4) ?
Ir2 In16 In11 . . 2_5555 110.4(5) 109.0(5) 111.7(5) ?
Ir2 In16 In20 . . 1_5565 143.7(4) 142.5(4) 144.8(4) ?
Ir2 In16 Se3 . . 1_4555 103.9(6) 96.0(6) 111.8(6) ?
Ir4 In16 In4 1_5565 . . 128.9(5) 126.5(5) 131.2(5) ?
Ir4 In16 In8 1_5565 . 2_4555 53.6(4) 53.3(4) 54.0(4) ?
Ir4 In16 In9 1_5565 . . 135.1(5) 132.9(5) 137.3(5) ?
Ir4 In16 In10 1_5565 . 2_5555 96.8(4) 96.3(4) 97.2(4) ?
Ir4 In16 In11 1_5565 . 2_5555 50.2(3) 50.0(3) 50.3(3) ?
Ir4 In16 In20 1_5565 . 1_5565 51.9(2) 50.7(2) 53.1(3) ?
Ir4 In16 Se3 1_5565 . 1_4555 105.5(6) 98.4(6) 112.6(6) ?
In4 In16 In8 . . 2_4555 158.4(4) 157.2(4) 159.6(4) ?
In4 In16 In9 . . . 96.0(4) 95.1(4) 96.8(4) ?
In4 In16 In10 . . 2_5555 69.0(3) 68.7(3) 69.4(3) ?
In4 In16 In11 . . 2_5555 83.3(4) 81.4(4) 85.3(4) ?
In4 In16 In20 . . 1_5565 88.7(3) 86.8(3) 90.5(3) ?
In4 In16 Se3 . . 1_4555 84.7(4) 81.1(4) 88.1(4) ?
In8 In16 In9 2_4555 . . 85.0(4) 83.4(4) 86.5(4) ?
In8 In16 In10 2_4555 . 2_5555 132.1(3) 130.8(3) 133.4(4) ?
In8 In16 In11 2_4555 . 2_5555 103.8(4) 103.3(4) 104.2(4) ?
In8 In16 In20 2_4555 . 1_5565 78.4(4) 76.4(4) 80.3(4) ?
In8 In16 Se3 2_4555 . 1_4555 74.8(5) 71.7(4) 78.1(5) ?
In9 In16 In10 . . 2_5555 100.4(4) 99.5(4) 101.2(4) ?
In9 In16 In11 . . 2_5555 157.8(4) 156.3(4) 159.2(4) ?
In9 In16 In20 . . 1_5565 143.7(5) 141.9(5) 145.5(5) ?
In9 In16 Se3 . . 1_4555 74.7(5) 70.4(5) 79.3(5) ?
In10 In16 In11 2_5555 . 2_5555 58.6(3) 58.0(3) 59.3(3) ?
In10 In16 In20 2_5555 . 1_5565 114.7(5) 114.2(5) 115.2(5) ?
In10 In16 Se3 2_5555 . 1_4555 152.5(5) 147.0(6) 157.5(5) ?
In11 In16 In20 2_5555 . 1_5565 58.4(4) 57.2(3) 59.5(4) ?
In11 In16 Se3 2_5555 . 1_4555 127.0(5) 121.1(5) 132.7(5) ?
In20 In16 Se3 1_5565 . 1_4555 70.1(5) 62.7(5) 77.5(5) ?
Ir1 In17 Ir1 . . 2_5655 176.7(7) 174.0(6) 179.6(7) ?
Ir1 In17 In8 . . . 52.2(3) 51.4(3) 53.1(3) ?
Ir1 In17 In8 . . 2_5655 126.5(5) 122.8(5) 130.0(5) ?
Ir1 In17 In10 . . . 57.9(3) 57.7(3) 58.2(3) ?
Ir1 In17 In10 . . 2_5655 122.3(5) 121.6(5) 123.1(5) ?
Ir1 In17 In13 . . . 51.0(3) 50.3(3) 51.6(3) ?
Ir1 In17 In13 . . 2_5655 129.5(5) 125.5(5) 133.4(5) ?
Ir1 In17 Se2 . . . 90.6(4) 88.3(4) 92.9(4) ?
Ir1 In17 Se4 . . . 89.3(4) 87.1(4) 91.5(4) ?
Ir1 In17 In8 2_5655 . . 126.5(5) 122.8(5) 130.0(5) ?
Ir1 In17 In8 2_5655 . 2_5655 52.2(3) 51.4(3) 53.1(3) ?
Ir1 In17 In10 2_5655 . . 122.3(5) 121.6(5) 123.1(5) ?
Ir1 In17 In10 2_5655 . 2_5655 57.9(3) 57.7(3) 58.2(3) ?
Ir1 In17 In13 2_5655 . . 129.5(5) 125.5(5) 133.4(5) ?
Ir1 In17 In13 2_5655 . 2_5655 51.0(3) 50.3(3) 51.6(3) ?
Ir1 In17 Se2 2_5655 . . 90.6(4) 88.3(4) 92.9(4) ?
Ir1 In17 Se4 2_5655 . . 89.3(4) 87.1(4) 91.5(4) ?
In8 In17 In8 . . 2_5655 74.3(4) 69.8(4) 78.7(4) ?
In8 In17 In10 . . . 100.1(3) 99.4(3) 100.9(3) ?
In8 In17 In10 . . 2_5655 145.2(5) 141.2(5) 149.0(5) ?
In8 In17 In13 . . . 61.9(3) 61.4(3) 62.4(3) ?
In8 In17 In13 . . 2_5655 107.0(5) 106.2(5) 107.8(5) ?
In8 In17 Se2 . . . 112.7(4) 110.0(4) 115.4(5) ?
In8 In17 Se4 . . . 50.2(4) 47.8(3) 52.5(4) ?
In8 In17 In10 2_5655 . . 145.2(5) 141.2(5) 149.0(5) ?
In8 In17 In10 2_5655 . 2_5655 100.1(3) 99.4(3) 100.9(3) ?
In8 In17 In13 2_5655 . . 107.0(5) 106.2(5) 107.8(5) ?
In8 In17 In13 2_5655 . 2_5655 61.9(3) 61.4(3) 62.4(3) ?
In8 In17 Se2 2_5655 . . 112.7(4) 110.0(4) 115.4(5) ?
In8 In17 Se4 2_5655 . . 50.2(4) 47.8(3) 52.5(4) ?
In10 In17 In10 . . 2_5655 64.4(3) 64.0(3) 64.9(4) ?
In10 In17 In13 . . . 99.6(3) 99.3(3) 99.9(3) ?
In10 In17 In13 . . 2_5655 147.3(6) 143.8(5) 150.7(5) ?
In10 In17 Se2 . . . 101.2(5) 98.3(5) 104.1(5) ?
In10 In17 Se4 . . . 99.6(5) 96.7(5) 102.5(5) ?
In10 In17 In13 2_5655 . . 147.3(6) 143.8(5) 150.7(5) ?
In10 In17 In13 2_5655 . 2_5655 99.6(3) 99.3(3) 99.9(3) ?
In10 In17 Se2 2_5655 . . 101.2(5) 98.3(5) 104.1(5) ?
In10 In17 Se4 2_5655 . . 99.6(5) 96.7(5) 102.5(5) ?
In13 In17 In13 . . 2_5655 78.6(4) 73.9(4) 83.2(4) ?
In13 In17 Se2 . . . 52.0(3) 49.6(3) 54.3(3) ?
In13 In17 Se4 . . . 111.4(5) 109.7(5) 113.2(5) ?
In13 In17 Se2 2_5655 . . 52.0(3) 49.6(3) 54.3(3) ?
In13 In17 Se4 2_5655 . . 111.4(5) 109.7(5) 113.2(5) ?
Se2 In17 Se4 . . . 155.4(7) 155.0(7) 155.9(7) ?
Ir2 In18 Ir2 . . 2_5455 175.7(7) 172.7(7) 178.3(7) ?
Ir2 In18 In9 . . . 51.7(3) 50.8(3) 52.6(3) ?
Ir2 In18 In9 . . 2_5455 131.1(6) 128.0(5) 134.2(6) ?
Ir2 In18 In10 . . 1_5455 120.6(5) 119.9(5) 121.5(5) ?
Ir2 In18 In10 . . 2_5555 57.6(3) 57.4(3) 57.8(3) ?
Ir2 In18 In14 . . . 52.5(3) 51.7(3) 53.3(3) ?
Ir2 In18 In14 . . 2_5455 127.0(5) 122.7(5) 131.2(5) ?
Ir2 In18 Se4 . . 1_4455 91.4(4) 89.3(4) 93.6(4) ?
Ir2 In18 In9 2_5455 . . 131.1(6) 128.0(5) 134.2(6) ?
Ir2 In18 In9 2_5455 . 2_5455 51.7(3) 50.8(3) 52.6(3) ?
Ir2 In18 In10 2_5455 . 1_5455 57.6(3) 57.4(3) 57.8(3) ?
Ir2 In18 In10 2_5455 . 2_5555 120.6(5) 119.9(5) 121.5(5) ?
Ir2 In18 In14 2_5455 . . 127.0(5) 122.7(5) 131.2(5) ?
Ir2 In18 In14 2_5455 . 2_5455 52.5(3) 51.7(3) 53.3(3) ?
Ir2 In18 Se4 2_5455 . 1_4455 91.4(4) 89.3(4) 93.6(4) ?
In9 In18 In9 . . 2_5455 79.4(4) 75.4(4) 83.4(4) ?
In9 In18 In10 . . 1_5455 147.6(5) 144.6(5) 150.6(5) ?
In9 In18 In10 . . 2_5555 100.1(3) 99.7(3) 100.5(3) ?
In9 In18 In14 . . . 62.3(3) 61.9(3) 62.6(3) ?
In9 In18 In14 . . 2_5455 107.9(5) 107.0(5) 108.8(5) ?
In9 In18 Se4 . . 1_4455 50.2(3) 48.1(3) 52.2(3) ?
In9 In18 In10 2_5455 . 1_5455 100.1(3) 99.7(3) 100.5(3) ?
In9 In18 In10 2_5455 . 2_5555 147.6(5) 144.6(5) 150.6(5) ?
In9 In18 In14 2_5455 . . 107.9(5) 107.0(5) 108.8(5) ?
In9 In18 In14 2_5455 . 2_5455 62.3(3) 61.9(3) 62.6(3) ?
In9 In18 Se4 2_5455 . 1_4455 50.2(3) 48.1(3) 52.2(3) ?
In10 In18 In10 1_5455 . 2_5555 63.1(3) 62.5(3) 63.7(4) ?
In10 In18 In14 1_5455 . . 143.7(6) 141.1(6) 146.2(6) ?
In10 In18 In14 1_5455 . 2_5455 99.9(3) 99.8(3) 100.0(3) ?
In10 In18 Se4 1_5455 . 1_4455 104.9(5) 102.8(5) 106.9(5) ?
In10 In18 In14 2_5555 . . 99.9(3) 99.8(3) 100.0(3) ?
In10 In18 In14 2_5555 . 2_5455 143.7(6) 141.1(6) 146.2(6) ?
In10 In18 Se4 2_5555 . 1_4455 104.9(5) 102.8(5) 106.9(5) ?
In14 In18 In14 . . 2_5455 74.5(4) 70.2(4) 79.0(4) ?
In14 In18 Se4 . . 1_4455 110.6(5) 109.5(5) 111.8(5) ?
In14 In18 Se4 2_5455 . 1_4455 110.6(5) 109.5(5) 111.8(5) ?
Ir3 In19 Ir3 . . 2_5555 177.5(7) 176.0(7) 178.8(6) ?
Ir3 In19 In5 . . . 58.7(3) 58.3(3) 59.2(3) ?
Ir3 In19 In5 . . 2_5555 122.8(5) 122.6(5) 123.0(5) ?
Ir3 In19 In12 . . 1_5565 126.9(6) 125.4(5) 128.4(6) ?
Ir3 In19 In12 . . 2_5565 51.2(3) 50.9(3) 51.5(3) ?
Ir3 In19 In15 . . 1_5565 51.8(3) 51.8(3) 51.9(3) ?
Ir3 In19 In15 . . 2_5565 127.6(5) 126.2(5) 129.0(5) ?
Ir3 In19 Se1 . . . 89.3(4) 88.0(4) 90.6(4) ?
Ir3 In19 Se3 . . 1_5565 90.3(4) 89.1(4) 91.5(4) ?
Ir3 In19 In5 2_5555 . . 122.8(5) 122.6(5) 123.0(5) ?
Ir3 In19 In5 2_5555 . 2_5555 58.7(3) 58.3(3) 59.2(3) ?
Ir3 In19 In12 2_5555 . 1_5565 51.2(3) 50.9(3) 51.5(3) ?
Ir3 In19 In12 2_5555 . 2_5565 126.9(6) 125.4(5) 128.4(6) ?
Ir3 In19 In15 2_5555 . 1_5565 127.6(5) 126.2(5) 129.0(5) ?
Ir3 In19 In15 2_5555 . 2_5565 51.8(3) 51.8(3) 51.9(3) ?
Ir3 In19 Se1 2_5555 . . 89.3(4) 88.0(4) 90.6(4) ?
Ir3 In19 Se3 2_5555 . 1_5565 90.3(4) 89.1(4) 91.5(4) ?
In5 In19 In5 . . 2_5555 64.1(3) 63.4(3) 64.8(4) ?
In5 In19 In12 . . 1_5565 145.8(5) 144.6(5) 147.0(5) ?
In5 In19 In12 . . 2_5565 100.1(3) 99.4(3) 100.9(3) ?
In5 In19 In15 . . 1_5565 101.2(3) 100.3(3) 102.0(3) ?
In5 In19 In15 . . 2_5565 147.7(6) 146.4(6) 149.0(6) ?
In5 In19 Se1 . . . 102.2(4) 99.4(5) 104.9(4) ?
In5 In19 Se3 . . 1_5565 103.5(5) 100.0(5) 106.7(5) ?
In5 In19 In12 2_5555 . 1_5565 100.1(3) 99.4(3) 100.9(3) ?
In5 In19 In12 2_5555 . 2_5565 145.8(5) 144.6(5) 147.0(5) ?
In5 In19 In15 2_5555 . 1_5565 147.7(6) 146.4(6) 149.0(6) ?
In5 In19 In15 2_5555 . 2_5565 101.2(3) 100.3(3) 102.0(3) ?
In5 In19 Se1 2_5555 . . 102.2(4) 99.4(5) 104.9(4) ?
In5 In19 Se3 2_5555 . 1_5565 103.5(5) 100.0(5) 106.7(5) ?
In12 In19 In12 1_5565 . 2_5565 75.7(4) 74.4(4) 77.0(4) ?
In12 In19 In15 1_5565 . 1_5565 105.9(5) 104.8(5) 107.1(5) ?
In12 In19 In15 1_5565 . 2_5565 61.3(3) 60.6(3) 62.0(3) ?
In12 In19 Se1 1_5565 . . 49.2(3) 46.7(3) 51.9(3) ?
In12 In19 Se3 1_5565 . 1_5565 109.8(4) 106.3(4) 113.7(4) ?
In12 In19 In15 2_5565 . 1_5565 61.3(3) 60.6(3) 62.0(3) ?
In12 In19 In15 2_5565 . 2_5565 105.9(5) 104.8(5) 107.1(5) ?
In12 In19 Se1 2_5565 . . 49.2(3) 46.7(3) 51.9(3) ?
In12 In19 Se3 2_5565 . 1_5565 109.8(4) 106.3(4) 113.7(4) ?
In15 In19 In15 1_5565 . 2_5565 75.8(3) 74.4(3) 77.2(3) ?
In15 In19 Se1 1_5565 . . 109.2(4) 105.5(4) 113.1(5) ?
In15 In19 Se3 1_5565 . 1_5565 49.7(3) 47.4(3) 52.3(3) ?
In15 In19 Se1 2_5565 . . 109.2(4) 105.5(4) 113.1(5) ?
In15 In19 Se3 2_5565 . 1_5565 49.7(3) 47.4(3) 52.3(3) ?
Se1 In19 Se3 . . 1_5565 149.6(6) 142.7(5) 156.8(6) ?
Ir4 In20 Ir4 . . 2_5555 175.2(7) 173.5(7) 176.9(8) ?
Ir4 In20 In5 . . 1_4545 119.8(5) 119.4(5) 120.2(5) ?
Ir4 In20 In5 . . 2_4545 56.9(3) 56.2(3) 57.6(3) ?
Ir4 In20 In11 . . 1_5545 129.5(6) 126.5(6) 132.4(6) ?
Ir4 In20 In11 . . 2_5545 52.4(3) 51.9(3) 52.9(3) ?
Ir4 In20 In16 . . 1_5545 52.4(3) 51.9(3) 52.9(3) ?
Ir4 In20 In16 . . 2_5545 130.5(5) 127.7(5) 133.2(5) ?
Ir4 In20 In21 . . 1_4545 89.2(4) 87.3(4) 91.0(4) ?
Ir4 In20 Se1 . . 1_5545 90.0(4) 87.6(4) 92.4(4) ?
Ir4 In20 Se3 . . 1_4545 90.7(4) 88.4(4) 93.1(4) ?
Ir4 In20 In5 2_5555 . 1_4545 56.9(3) 56.2(3) 57.6(3) ?
Ir4 In20 In5 2_5555 . 2_4545 119.8(5) 119.4(5) 120.2(5) ?
Ir4 In20 In11 2_5555 . 1_5545 52.4(3) 51.9(3) 52.9(3) ?
Ir4 In20 In11 2_5555 . 2_5545 129.5(6) 126.5(6) 132.4(6) ?
Ir4 In20 In16 2_5555 . 1_5545 130.5(5) 127.7(5) 133.2(5) ?
Ir4 In20 In16 2_5555 . 2_5545 52.4(3) 51.9(3) 52.9(3) ?
Ir4 In20 In21 2_5555 . 1_4545 89.2(4) 87.3(4) 91.0(4) ?
Ir4 In20 Se1 2_5555 . 1_5545 90.0(4) 87.6(4) 92.4(4) ?
Ir4 In20 Se3 2_5555 . 1_4545 90.7(4) 88.4(4) 93.1(4) ?
In5 In20 In5 1_4545 . 2_4545 62.9(4) 62.7(4) 63.2(4) ?
In5 In20 In11 1_4545 . 1_5545 99.4(3) 98.6(3) 100.2(3) ?
In5 In20 In11 1_4545 . 2_5545 144.6(5) 142.0(5) 147.0(5) ?
In5 In20 In16 1_4545 . 1_5545 145.5(6) 142.9(6) 148.0(6) ?
In5 In20 In16 1_4545 . 2_5545 99.5(3) 98.9(3) 100.2(3) ?
In5 In20 In21 1_4545 . 1_4545 54.6(4) 50.9(4) 58.6(4) ?
In5 In20 Se1 1_4545 . 1_5545 100.0(5) 96.7(5) 103.2(5) ?
In5 In20 Se3 1_4545 . 1_4545 100.8(5) 97.3(5) 104.3(5) ?
In5 In20 In11 2_4545 . 1_5545 144.6(5) 142.0(5) 147.0(5) ?
In5 In20 In11 2_4545 . 2_5545 99.4(3) 98.6(3) 100.2(3) ?
In5 In20 In16 2_4545 . 1_5545 99.5(3) 98.9(3) 100.2(3) ?
In5 In20 In16 2_4545 . 2_5545 145.5(6) 142.9(6) 148.0(6) ?
In5 In20 In21 2_4545 . 1_4545 54.6(4) 50.9(4) 58.6(4) ?
In5 In20 Se1 2_4545 . 1_5545 100.0(5) 96.7(5) 103.2(5) ?
In5 In20 Se3 2_4545 . 1_4545 100.8(5) 97.3(5) 104.3(5) ?
In11 In20 In11 1_5545 . 2_5545 77.1(4) 74.8(4) 79.4(4) ?
In11 In20 In16 1_5545 . 1_5545 109.5(5) 108.5(5) 110.4(5) ?
In11 In20 In16 1_5545 . 2_5545 63.1(3) 62.6(3) 63.7(3) ?
In11 In20 In21 1_5545 . 1_4545 141.2(3) 140.0(3) 142.5(2) ?
In11 In20 Se1 1_5545 . 1_5545 50.4(3) 47.6(3) 53.5(4) ?
In11 In20 Se3 1_5545 . 1_4545 113.1(4) 108.8(4) 117.8(5) ?
In11 In20 In16 2_5545 . 1_5545 63.1(3) 62.6(3) 63.7(3) ?
In11 In20 In16 2_5545 . 2_5545 109.5(5) 108.5(5) 110.4(5) ?
In11 In20 In21 2_5545 . 1_4545 141.2(3) 140.0(3) 142.5(2) ?
In11 In20 Se1 2_5545 . 1_5545 50.4(3) 47.6(3) 53.5(4) ?
In11 In20 Se3 2_5545 . 1_4545 113.1(4) 108.8(4) 117.8(5) ?
In16 In20 In16 1_5545 . 2_5545 78.2(4) 76.0(4) 80.3(4) ?
In16 In20 In21 1_5545 . 1_4545 90.9(4) 87.6(4) 94.2(4) ?
In16 In20 Se1 1_5545 . 1_5545 112.7(5) 108.8(5) 116.8(5) ?
In16 In20 Se3 1_5545 . 1_4545 51.0(3) 47.7(3) 54.6(4) ?
In16 In20 In21 2_5545 . 1_4545 90.9(4) 87.6(4) 94.2(4) ?
In16 In20 Se1 2_5545 . 1_5545 112.7(5) 108.8(5) 116.8(5) ?
In16 In20 Se3 2_5545 . 1_4545 51.0(3) 47.7(3) 54.6(4) ?
In21 In20 Se1 1_4545 . 1_5545 149.0(6) 146.2(6) 151.5(6) ?
In21 In20 Se3 1_4545 . 1_4545 55.4(5) 46.7(5) 63.4(4) ?
Se1 In20 Se3 1_5545 . 1_4545 155.6(6) 147.8(6) 163.5(7) ?
Ir1 In21 Ir1 . . 2_5555 111.8(7) 110.0(7) 113.3(7) ?
Ir1 In21 In3 . . . 56.0(4) 55.3(4) 56.7(4) ?
Ir1 In21 In5 . . . 92.6(3) 91.8(3) 93.1(3) ?
Ir1 In21 In5 . . 2_5555 151.6(6) 148.4(6) 153.5(5) ?
Ir1 In21 In8 . . . 48.1(3) 46.0(3) 49.7(3) ?
Ir1 In21 In8 . . 2_5555 142.4(7) 131.7(7) 151.4(7) ?
Ir1 In21 In13 . . . 47.5(3) 45.3(3) 49.3(3) ?
Ir1 In21 In13 . . 2_5555 138.1(7) 126.2(7) 149.1(8) ?
Ir1 In21 In20 . . 1_6565 114.7(4) 106.7(5) 122.3(4) ?
Ir1 In21 Se1 . . . 81.7(5) 73.1(4) 90.4(5) ?
Ir1 In21 Se3 . . . 85.3(5) 76.2(4) 94.4(5) ?
Ir1 In21 In3 2_5555 . . 56.0(4) 55.3(4) 56.7(4) ?
Ir1 In21 In5 2_5555 . . 151.6(6) 148.4(6) 153.5(5) ?
Ir1 In21 In5 2_5555 . 2_5555 92.6(3) 91.8(3) 93.1(3) ?
Ir1 In21 In8 2_5555 . . 142.4(7) 131.7(7) 151.4(7) ?
Ir1 In21 In8 2_5555 . 2_5555 48.1(3) 46.0(3) 49.7(3) ?
Ir1 In21 In13 2_5555 . . 138.1(7) 126.2(7) 149.1(8) ?
Ir1 In21 In13 2_5555 . 2_5555 47.5(3) 45.3(3) 49.3(3) ?
Ir1 In21 In20 2_5555 . 1_6565 114.7(4) 106.7(5) 122.3(4) ?
Ir1 In21 Se1 2_5555 . . 81.7(5) 73.1(4) 90.4(5) ?
Ir1 In21 Se3 2_5555 . . 85.3(5) 76.2(4) 94.4(5) ?
In3 In21 In5 . . . 147.3(3) 144.1(5) 149.7(2) ?
In3 In21 In5 . . 2_5555 147.3(3) 144.1(5) 149.7(2) ?
In3 In21 In8 . . . 95.8(4) 91.0(4) 99.5(4) ?
In3 In21 In8 . . 2_5555 95.8(4) 91.0(4) 99.5(4) ?
In3 In21 In13 . . . 94.2(5) 88.4(5) 99.0(4) ?
In3 In21 In13 . . 2_5555 94.2(5) 88.4(5) 99.0(4) ?
In3 In21 In20 . . 1_6565 138.6(7) 125.2(6) 152.2(7) ?
In3 In21 Se1 . . . 76.1(6) 66.1(5) 86.4(7) ?
In3 In21 Se3 . . . 80.1(6) 69.2(5) 91.2(7) ?
In5 In21 In5 . . 2_5555 60.4(4) 60.1(4) 60.8(4) ?
In5 In21 In8 . . . 58.4(3) 56.4(3) 60.0(3) ?
In5 In21 In8 . . 2_5555 111.1(6) 105.7(6) 115.6(6) ?
In5 In21 In13 . . . 58.1(3) 56.0(3) 59.8(3) ?
In5 In21 In13 . . 2_5555 109.3(5) 103.4(5) 114.3(6) ?
In5 In21 In20 . . 1_6565 51.8(4) 48.4(4) 54.9(4) ?
In5 In21 Se1 . . . 99.5(5) 92.9(5) 106.0(6) ?
In5 In21 Se3 . . . 101.0(6) 95.1(5) 106.7(7) ?
In5 In21 In8 2_5555 . . 111.1(6) 105.7(6) 115.6(6) ?
In5 In21 In8 2_5555 . 2_5555 58.4(3) 56.4(3) 60.0(3) ?
In5 In21 In13 2_5555 . . 109.3(5) 103.4(5) 114.3(6) ?
In5 In21 In13 2_5555 . 2_5555 58.1(3) 56.0(3) 59.8(3) ?
In5 In21 In20 2_5555 . 1_6565 51.8(4) 48.4(4) 54.9(4) ?
In5 In21 Se1 2_5555 . . 99.5(5) 92.9(5) 106.0(6) ?
In5 In21 Se3 2_5555 . . 101.0(6) 95.1(5) 106.7(7) ?
In8 In21 In8 . . 2_5555 123.5(6) 110.2(6) 137.0(7) ?
In8 In21 In13 . . . 58.1(3) 57.8(3) 58.4(3) ?
In8 In21 In13 . . 2_5555 165.0(7) 160.0(6) 168.6(7) ?
In8 In21 In20 . . 1_6565 67.1(4) 61.5(3) 72.6(4) ?
In8 In21 Se1 . . . 118.3(3) 111.5(4) 124.9(3) ?
In8 In21 Se3 . . . 64.3(3) 58.1(3) 70.7(4) ?
In8 In21 In13 2_5555 . . 165.0(7) 160.0(6) 168.6(7) ?
In8 In21 In13 2_5555 . 2_5555 58.1(3) 57.8(3) 58.4(3) ?
In8 In21 In20 2_5555 . 1_6565 67.1(4) 61.5(3) 72.6(4) ?
In8 In21 Se1 2_5555 . . 118.3(3) 111.5(4) 124.9(3) ?
In8 In21 Se3 2_5555 . . 64.3(3) 58.1(3) 70.7(4) ?
In13 In21 In13 . . 2_5555 117.6(6) 104.3(5) 131.4(6) ?
In13 In21 In20 . . 1_6565 105.8(4) 102.8(4) 108.1(4) ?
In13 In21 Se1 . . . 61.6(3) 55.1(3) 68.3(4) ?
In13 In21 Se3 . . . 121.2(3) 114.3(3) 127.8(3) ?
In13 In21 In20 2_5555 . 1_6565 105.8(4) 102.8(4) 108.1(4) ?
In13 In21 Se1 2_5555 . . 61.6(3) 55.1(3) 68.3(4) ?
In13 In21 Se3 2_5555 . . 121.2(3) 114.3(3) 127.8(3) ?
In20 In21 Se1 1_6565 . . 145.3(7) 141.7(6) 148.4(7) ?
In20 In21 Se3 1_6565 . . 58.5(5) 55.9(4) 61.1(6) ?
Se1 In21 Se3 . . . 156.2(8) 155.5(8) 157.3(8) ?
Ir2 In22 Ir2 . . 2_5555 113.9(7) 112.4(6) 115.0(7) ?
Ir2 In22 In4 . . . 57.0(4) 56.4(3) 57.5(4) ?
Ir2 In22 In5 . . 1_4545 150.3(6) 147.0(6) 152.6(5) ?
Ir2 In22 In5 . . 2_4545 92.3(3) 91.4(3) 92.8(3) ?
Ir2 In22 In9 . . . 47.6(3) 45.6(3) 49.2(3) ?
Ir2 In22 In9 . . 2_5555 139.5(7) 127.6(6) 150.4(7) ?
Ir2 In22 In14 . . . 48.3(3) 46.5(3) 49.6(2) ?
Ir2 In22 In14 . . 2_5555 144.1(7) 133.1(7) 153.6(7) ?
Ir2 In22 Se1 . . 1_5545 86.6(5) 77.9(5) 95.4(5) ?
Ir2 In22 Se3 . . 1_4555 82.7(5) 73.9(4) 91.7(5) ?
Ir2 In22 In4 2_5555 . . 57.0(4) 56.4(3) 57.5(4) ?
Ir2 In22 In5 2_5555 . 1_4545 92.3(3) 91.4(3) 92.8(3) ?
Ir2 In22 In5 2_5555 . 2_4545 150.3(6) 147.0(6) 152.6(5) ?
Ir2 In22 In9 2_5555 . . 139.5(7) 127.6(6) 150.4(7) ?
Ir2 In22 In9 2_5555 . 2_5555 47.6(3) 45.6(3) 49.2(3) ?
Ir2 In22 In14 2_5555 . . 144.1(7) 133.1(7) 153.6(7) ?
Ir2 In22 In14 2_5555 . 2_5555 48.3(3) 46.5(3) 49.6(2) ?
Ir2 In22 Se1 2_5555 . 1_5545 86.6(5) 77.9(5) 95.4(5) ?
Ir2 In22 Se3 2_5555 . 1_4555 82.7(5) 73.9(4) 91.7(5) ?
In4 In22 In5 . . 1_4545 147.8(3) 144.4(4) 149.7(3) ?
In4 In22 In5 . . 2_4545 147.8(3) 144.4(4) 149.7(3) ?
In4 In22 In9 . . . 95.2(4) 89.0(4) 100.2(4) ?
In4 In22 In9 . . 2_5555 95.2(4) 89.0(4) 100.2(4) ?
In4 In22 In14 . . . 96.9(4) 91.5(5) 101.0(4) ?
In4 In22 In14 . . 2_5555 96.9(4) 91.5(5) 101.0(4) ?
In4 In22 Se1 . . 1_5545 82.1(6) 70.6(5) 93.7(8) ?
In4 In22 Se3 . . 1_4555 77.9(6) 66.0(5) 90.1(7) ?
In5 In22 In5 1_4545 . 2_4545 59.3(4) 58.7(4) 59.9(4) ?
In5 In22 In9 1_4545 . . 107.7(6) 101.9(5) 112.8(6) ?
In5 In22 In9 1_4545 . 2_5555 57.5(3) 55.5(3) 59.0(3) ?
In5 In22 In14 1_4545 . . 109.6(5) 104.8(5) 113.6(5) ?
In5 In22 In14 1_4545 . 2_5555 57.9(3) 56.1(3) 59.3(3) ?
In5 In22 Se1 1_4545 . 1_5545 99.5(6) 93.7(5) 105.1(6) ?
In5 In22 Se3 1_4545 . 1_4555 97.8(6) 92.4(5) 103.0(7) ?
In5 In22 In9 2_4545 . . 57.5(3) 55.5(3) 59.0(3) ?
In5 In22 In9 2_4545 . 2_5555 107.7(6) 101.9(5) 112.8(6) ?
In5 In22 In14 2_4545 . . 57.9(3) 56.1(3) 59.3(3) ?
In5 In22 In14 2_4545 . 2_5555 109.6(5) 104.8(5) 113.6(5) ?
In5 In22 Se1 2_4545 . 1_5545 99.5(6) 93.7(5) 105.1(6) ?
In5 In22 Se3 2_4545 . 1_4555 97.8(6) 92.4(5) 103.0(7) ?
In9 In22 In9 . . 2_5555 117.3(6) 104.0(5) 131.1(6) ?
In9 In22 In14 . . . 57.9(3) 57.6(3) 58.1(3) ?
In9 In22 In14 . . 2_5555 163.3(6) 158.5(6) 166.8(7) ?
In9 In22 Se1 . . 1_5545 121.3(3) 114.3(3) 128.0(3) ?
In9 In22 Se3 . . 1_4555 61.5(3) 55.3(3) 68.0(4) ?
In9 In22 In14 2_5555 . . 163.3(6) 158.5(6) 166.8(7) ?
In9 In22 In14 2_5555 . 2_5555 57.9(3) 57.6(3) 58.1(3) ?
In9 In22 Se1 2_5555 . 1_5545 121.3(3) 114.3(3) 128.0(3) ?
In9 In22 Se3 2_5555 . 1_4555 61.5(3) 55.3(3) 68.0(4) ?
In14 In22 In14 . . 2_5555 123.2(6) 110.1(5) 136.5(6) ?
In14 In22 Se1 . . 1_5545 64.3(3) 57.9(3) 70.8(4) ?
In14 In22 Se3 . . 1_4555 118.3(3) 111.6(3) 124.9(3) ?
In14 In22 Se1 2_5555 . 1_5545 64.3(3) 57.9(3) 70.8(4) ?
In14 In22 Se3 2_5555 . 1_4555 118.3(3) 111.6(3) 124.9(3) ?
Se1 In22 Se3 1_5545 . 1_4555 160.0(8) 159.5(8) 160.7(8) ?
In11 Se1 In11 . . 2_5555 88.3(5) 86.9(5) 90.0(5) ?
In11 Se1 In12 . . 1_5565 171.0(9) 163.2(9) 178.3(9) ?
In11 Se1 In12 . . 2_5565 91.4(3) 90.3(3) 92.7(3) ?
In11 Se1 In19 . . . 118.5(6) 110.3(6) 126.5(5) ?
In11 Se1 In20 . . 1_5565 59.5(4) 56.5(4) 62.2(4) ?
In11 Se1 In21 . . . 75.4(5) 69.1(5) 81.6(5) ?
In11 Se1 In22 . . 1_5565 106.2(6) 99.2(6) 113.3(7) ?
In11 Se1 In12 2_5555 . 1_5565 91.4(3) 90.3(3) 92.7(3) ?
In11 Se1 In12 2_5555 . 2_5565 171.0(9) 163.2(9) 178.3(9) ?
In11 Se1 In19 2_5555 . . 118.5(6) 110.3(6) 126.5(5) ?
In11 Se1 In20 2_5555 . 1_5565 59.5(4) 56.5(4) 62.2(4) ?
In11 Se1 In21 2_5555 . . 75.4(5) 69.1(5) 81.6(5) ?
In11 Se1 In22 2_5555 . 1_5565 106.2(6) 99.2(6) 113.3(7) ?
In12 Se1 In12 1_5565 . 2_5565 87.1(5) 85.3(5) 88.5(5) ?
In12 Se1 In19 1_5565 . . 58.2(4) 54.6(4) 61.5(4) ?
In12 Se1 In20 1_5565 . 1_5565 123.3(6) 115.0(6) 131.2(5) ?
In12 Se1 In21 1_5565 . . 101.5(6) 94.8(6) 108.1(7) ?
In12 Se1 In22 1_5565 . 1_5565 76.9(5) 71.1(5) 82.5(5) ?
In12 Se1 In19 2_5565 . . 58.2(4) 54.6(4) 61.5(4) ?
In12 Se1 In20 2_5565 . 1_5565 123.3(6) 115.0(6) 131.2(5) ?
In12 Se1 In21 2_5565 . . 101.5(6) 94.8(6) 108.1(7) ?
In12 Se1 In22 2_5565 . 1_5565 76.9(5) 71.1(5) 82.5(5) ?
In19 Se1 In20 . . 1_5565 174.2(6) 168.3(6) 179.4(7) ?
In19 Se1 In21 . . . 62.7(5) 58.5(4) 67.3(6) ?
In19 Se1 In22 . . 1_5565 114.9(6) 111.6(5) 117.8(7) ?
In20 Se1 In21 1_5565 . . 114.3(6) 109.8(5) 118.3(6) ?
In20 Se1 In22 1_5565 . 1_5565 68.1(6) 62.9(5) 73.9(7) ?
In21 Se1 In22 . . 1_5565 177.6(8) 176.3(8) 178.8(7) ?
In7 Se2 In13 1_5665 . . 108.4(5) 106.6(5) 110.4(5) ?
In7 Se2 In13 1_5665 . 2_5655 108.4(5) 106.6(5) 110.4(5) ?
In7 Se2 In14 1_5665 . 1_5665 77.9(5) 76.3(5) 79.4(5) ?
In7 Se2 In14 1_5665 . 2_5565 77.9(5) 76.3(5) 79.4(5) ?
In7 Se2 In17 1_5665 . . 68.7(5) 67.1(5) 70.3(5) ?
In13 Se2 In13 . . 2_5655 90.3(6) 86.5(6) 94.1(6) ?
In13 Se2 In14 . . 1_5665 171.9(7) 168.8(7) 175.3(8) ?
In13 Se2 In14 . . 2_5565 91.6(3) 90.6(3) 92.4(3) ?
In13 Se2 In17 . . . 61.9(4) 60.6(4) 63.2(4) ?
In13 Se2 In14 2_5655 . 1_5665 91.6(3) 90.6(3) 92.4(3) ?
In13 Se2 In14 2_5655 . 2_5565 171.9(7) 168.8(7) 175.3(8) ?
In13 Se2 In17 2_5655 . . 61.9(4) 60.6(4) 63.2(4) ?
In14 Se2 In14 1_5665 . 2_5565 85.5(6) 81.3(6) 89.6(6) ?
In14 Se2 In17 1_5665 . . 125.4(5) 122.9(5) 128.0(5) ?
In14 Se2 In17 2_5565 . . 125.4(5) 122.9(5) 128.0(5) ?
In15 Se3 In15 . . 2_5555 87.5(6) 84.8(6) 90.3(6) ?
In15 Se3 In16 . . 1_6555 169.6(10) 163.0(10) 175.7(10) ?
In15 Se3 In16 . . 2_6555 91.1(3) 90.0(3) 92.7(3) ?
In15 Se3 In19 . . 1_5545 59.3(4) 54.8(4) 63.6(5) ?
In15 Se3 In20 . . 1_6565 122.1(6) 112.6(6) 131.3(5) ?
In15 Se3 In21 . . . 77.2(5) 70.6(5) 83.4(6) ?
In15 Se3 In22 . . 1_6555 103.8(7) 95.7(6) 112.1(7) ?
In15 Se3 In16 2_5555 . 1_6555 91.1(3) 90.0(3) 92.7(3) ?
In15 Se3 In16 2_5555 . 2_6555 169.6(10) 163.0(10) 175.7(10) ?
In15 Se3 In19 2_5555 . 1_5545 59.3(4) 54.8(4) 63.6(5) ?
In15 Se3 In20 2_5555 . 1_6565 122.1(6) 112.6(6) 131.3(5) ?
In15 Se3 In21 2_5555 . . 77.2(5) 70.6(5) 83.4(6) ?
In15 Se3 In22 2_5555 . 1_6555 103.8(7) 95.7(6) 112.1(7) ?
In16 Se3 In16 1_6555 . 2_6555 88.0(5) 86.3(6) 90.1(5) ?
In16 Se3 In19 1_6555 . 1_5545 119.0(6) 109.6(6) 128.3(6) ?
In16 Se3 In20 1_6555 . 1_6565 59.0(4) 54.8(4) 62.7(4) ?
In16 Se3 In21 1_6555 . . 104.2(7) 96.2(6) 112.4(7) ?
In16 Se3 In22 1_6555 . 1_6555 74.8(5) 68.4(5) 80.9(5) ?
In16 Se3 In19 2_6555 . 1_5545 119.0(6) 109.6(6) 128.3(6) ?
In16 Se3 In20 2_6555 . 1_6565 59.0(4) 54.8(4) 62.7(4) ?
In16 Se3 In21 2_6555 . . 104.2(7) 96.2(6) 112.4(7) ?
In16 Se3 In22 2_6555 . 1_6555 74.8(5) 68.4(5) 80.9(5) ?
In19 Se3 In20 1_5545 . 1_6565 174.0(7) 168.0(7) 179.4(7) ?
In19 Se3 In21 1_5545 . . 116.9(6) 113.4(6) 119.8(7) ?
In19 Se3 In22 1_5545 . 1_6555 64.5(6) 59.0(5) 70.6(7) ?
In20 Se3 In21 1_6565 . . 66.0(6) 60.6(5) 72.3(8) ?
In20 Se3 In22 1_6565 . 1_6555 112.6(6) 108.9(6) 115.4(7) ?
In21 Se3 In22 . . 1_6555 178.0(8) 176.0(8) 179.4(8) ?
In6 Se4 In8 1_5545 . . 105.0(9) 101.9(9) 108.1(9) ?
In6 Se4 In8 1_5545 . 2_5655 105.0(9) 101.9(9) 108.1(9) ?
In6 Se4 In9 1_5545 . 1_6655 80.8(6) 79.1(6) 82.5(6) ?
In6 Se4 In9 1_5545 . 2_6555 80.8(6) 79.1(6) 82.5(6) ?
In6 Se4 In17 1_5545 . . 64.7(7) 62.9(7) 66.6(7) ?
In6 Se4 In18 1_5545 . 1_6655 119.7(6) 118.0(6) 121.4(6) ?
In8 Se4 In8 . . 2_5655 84.8(5) 81.4(5) 88.2(5) ?
In8 Se4 In9 . . 1_6655 172.8(10) 169.3(13) 177.2(6) ?
In8 Se4 In9 . . 2_6555 91.8(3) 90.6(3) 93.0(3) ?
In8 Se4 In17 . . . 59.0(5) 56.9(5) 61.1(5) ?
In8 Se4 In18 . . 1_6655 118.2(9) 116.1(9) 120.2(8) ?
In8 Se4 In9 2_5655 . 1_6655 91.8(3) 90.6(3) 93.0(3) ?
In8 Se4 In9 2_5655 . 2_6555 172.8(10) 169.3(13) 177.2(6) ?
In8 Se4 In17 2_5655 . . 59.0(5) 56.9(5) 61.1(5) ?
In8 Se4 In18 2_5655 . 1_6655 118.2(9) 116.1(9) 120.2(8) ?
In9 Se4 In9 1_6655 . 2_6555 90.9(6) 86.1(6) 95.7(6) ?
In9 Se4 In17 1_6655 . . 123.3(8) 120.3(8) 126.4(8) ?
In9 Se4 In18 1_6655 . 1_6655 59.0(6) 55.8(6) 62.2(6) ?
In9 Se4 In17 2_6555 . . 123.3(8) 120.3(8) 126.4(8) ?
In9 Se4 In18 2_6555 . 1_6655 59.0(6) 55.8(6) 62.2(6) ?
In17 Se4 In18 . . 1_6655 175.6(8) 173.7(8) 177.6(8) ?
loop_
_geom_bond_atom_site_label_1
_geom_bond_atom_site_label_2
_geom_bond_site_ssg_symmetry_1
_geom_bond_site_ssg_symmetry_2
_geom_bond_distance_av
_geom_bond_distance_min
_geom_bond_distance_max
_geom_bond_publ_flag
Ir1 In3 . . 2.768(9) 2.759(9) 2.777(9) ?
Ir1 In8 . . 2.671(16) 2.635(16) 2.708(16) ?
Ir1 In10 . . 2.790(14) 2.781(14) 2.800(14) ?
Ir1 In11 . . 2.646(15) 2.635(16) 2.656(16) ?
Ir1 In13 . . 2.627(14) 2.603(14) 2.653(14) ?
Ir1 In15 . . 2.641(14) 2.634(14) 2.648(14) ?
Ir1 In17 . . 2.631(4) 2.627(4) 2.636(4) ?
Ir1 In21 . . 2.925(13) 2.903(13) 2.962(13) ?
Ir2 In4 . . 2.744(8) 2.733(9) 2.755(9) ?
Ir2 In9 . . 2.633(16) 2.617(16) 2.651(16) ?
Ir2 In10 . 2_5555 2.808(14) 2.806(14) 2.809(14) ?
Ir2 In12 . . 2.646(16) 2.630(16) 2.661(16) ?
Ir2 In14 . . 2.676(14) 2.658(14) 2.696(14) ?
Ir2 In16 . . 2.629(14) 2.613(14) 2.645(14) ?
Ir2 In18 . . 2.623(4) 2.615(4) 2.629(4) ?
Ir2 In22 . . 2.902(12) 2.887(12) 2.933(12) ?
Ir3 In1 . . 2.755(8) 2.754(9) 2.757(9) ?
Ir3 In5 . . 2.818(15) 2.794(15) 2.842(15) ?
Ir3 In6 . . 2.962(10) 2.925(10) 2.998(10) ?
Ir3 In9 . 2_6565 2.641(16) 2.616(16) 2.667(16) ?
Ir3 In12 . 2_5565 2.653(16) 2.636(16) 2.669(16) ?
Ir3 In13 . . 2.657(14) 2.638(14) 2.678(14) ?
Ir3 In15 . 1_5565 2.656(14) 2.650(14) 2.663(14) ?
Ir3 In19 . . 2.603(4) 2.573(4) 2.633(4) ?
Ir4 In2 . . 2.721(8) 2.714(9) 2.728(9) ?
Ir4 In5 . 2_4545 2.783(15) 2.752(15) 2.815(15) ?
Ir4 In7 . . 2.850(10) 2.808(10) 2.893(10) ?
Ir4 In8 . 2_4545 2.652(16) 2.638(16) 2.667(16) ?
Ir4 In11 . 2_5545 2.660(16) 2.655(16) 2.666(16) ?
Ir4 In14 . . 2.653(14) 2.627(14) 2.680(14) ?
Ir4 In16 . 1_5545 2.662(14) 2.652(14) 2.673(14) ?
Ir4 In20 . . 2.644(4) 2.617(4) 2.669(4) ?
In1 In2 . 1_6665 2.725(19) 2.714(19) 2.735(19) ?
In1 In6 . . 2.921(19) 2.884(19) 2.959(19) ?
In1 In9 . 1_6665 3.264(14) 3.224(15) 3.306(15) ?
In1 In9 . 2_6565 3.264(14) 3.224(15) 3.306(15) ?
In1 In13 . . 3.212(15) 3.165(15) 3.259(15) ?
In1 In13 . 2_5655 3.212(15) 3.165(15) 3.259(15) ?
In2 In7 . . 2.776(19) 2.768(19) 2.785(19) ?
In2 In8 . 1_4445 3.146(14) 3.115(15) 3.177(15) ?
In2 In8 . 2_4545 3.146(14) 3.115(15) 3.177(15) ?
In2 In14 . . 3.201(15) 3.169(15) 3.233(15) ?
In2 In14 . 2_5455 3.201(15) 3.169(15) 3.233(15) ?
In3 In4 . . 2.638(19) 2.619(19) 2.655(19) ?
In3 In11 . . 3.201(14) 3.159(14) 3.243(14) ?
In3 In11 . 2_5555 3.201(14) 3.159(14) 3.243(14) ?
In3 In15 . . 3.203(15) 3.170(15) 3.236(15) ?
In3 In15 . 2_5555 3.203(15) 3.170(15) 3.236(15) ?
In3 In21 . . 2.97(2) 2.94(2) 3.01(2) ?
In4 In12 . . 3.213(14) 3.158(14) 3.268(14) ?
In4 In12 . 2_5555 3.213(14) 3.158(14) 3.268(14) ?
In4 In16 . . 3.208(15) 3.151(15) 3.265(15) ?
In4 In16 . 2_5555 3.208(15) 3.151(15) 3.265(15) ?
In4 In22 . . 2.85(2) 2.82(2) 2.90(2) ?
In5 In5 . 2_5555 3.267(10) 3.258(10) 3.276(10) ?
In5 In8 . . 3.298(15) 3.265(15) 3.332(15) ?
In5 In9 . 2_6565 3.270(15) 3.245(15) 3.296(15) ?
In5 In13 . . 3.271(17) 3.237(17) 3.306(17) ?
In5 In14 . 2_6565 3.300(16) 3.269(17) 3.331(17) ?
In5 In19 . . 3.080(16) 3.057(16) 3.102(16) ?
In5 In20 . 1_6565 3.130(17) 3.110(17) 3.149(17) ?
In5 In21 . . 3.25(2) 3.23(2) 3.26(2) ?
In5 In22 . 1_6565 3.30(2) 3.28(2) 3.32(2) ?
In6 In10 . 1_5565 3.211(16) 3.198(16) 3.223(16) ?
In6 In10 . 2_5665 3.211(16) 3.198(16) 3.223(16) ?
In6 In15 . 1_5565 3.402(10) 3.380(10) 3.425(10) ?
In6 In15 . 2_5665 3.402(10) 3.380(10) 3.425(10) ?
In6 Se4 . 1_5565 3.28(3) 3.16(4) 3.40(4) ?
In7 In10 . 1_5445 3.320(16) 3.297(16) 3.343(16) ?
In7 In10 . 2_5545 3.320(16) 3.297(16) 3.343(16) ?
In7 In11 . 1_5445 3.420(11) 3.398(11) 3.443(11) ?
In7 In11 . 2_5545 3.420(11) 3.398(11) 3.443(11) ?
In7 Se2 . 1_5445 3.23(2) 3.14(2) 3.32(2) ?
In8 In13 . . 3.392(16) 3.377(16) 3.409(16) ?
In8 In15 . . 3.145(15) 3.101(15) 3.191(15) ?
In8 In16 . 2_6555 3.139(16) 3.134(16) 3.144(16) ?
In8 In17 . . 3.288(15) 3.279(16) 3.292(16) ?
In8 In21 . . 3.500(13) 3.408(15) 3.616(15) ?
In8 Se4 . . 2.943(17) 2.885(17) 3.000(17) ?
In9 In14 . . 3.386(16) 3.376(16) 3.401(16) ?
In9 In15 . 2_4555 3.146(16) 3.131(16) 3.160(16) ?
In9 In16 . . 3.107(15) 3.074(15) 3.143(15) ?
In9 In18 . . 3.268(15) 3.231(16) 3.307(16) ?
In9 In22 . . 3.489(14) 3.381(15) 3.621(15) ?
In9 Se4 . 1_4455 2.931(17) 2.866(18) 2.993(18) ?
In10 In10 . 2_5655 3.277(10) 3.272(10) 3.282(10) ?
In10 In11 . . 3.276(14) 3.258(14) 3.293(14) ?
In10 In12 . 2_5555 3.283(14) 3.268(14) 3.298(14) ?
In10 In15 . . 3.275(16) 3.251(16) 3.299(16) ?
In10 In16 . 2_5555 3.280(16) 3.253(16) 3.308(16) ?
In10 In17 . . 3.073(15) 3.048(16) 3.099(16) ?
In10 In18 . 1_5655 3.132(16) 3.108(16) 3.154(16) ?
In11 In13 . . 3.115(16) 3.085(16) 3.147(16) ?
In11 In14 . 2_5565 3.145(15) 3.137(15) 3.153(15) ?
In11 In16 . 2_5555 3.407(16) 3.399(16) 3.416(16) ?
In11 In20 . 1_5565 3.252(16) 3.202(17) 3.303(17) ?
In11 Se1 . . 2.908(15) 2.896(15) 2.923(15) ?
In12 In13 . 2_5545 3.132(15) 3.128(15) 3.136(15) ?
In12 In14 . . 3.146(16) 3.108(16) 3.185(16) ?
In12 In15 . 2_5555 3.388(16) 3.371(16) 3.404(16) ?
In12 In19 . 1_5545 3.340(16) 3.318(16) 3.361(16) ?
In12 Se1 . 1_5545 2.976(15) 2.956(16) 2.999(16) ?
In13 In17 . . 3.307(14) 3.275(15) 3.335(15) ?
In13 In21 . . 3.476(14) 3.366(15) 3.611(15) ?
In13 Se2 . . 2.952(18) 2.896(18) 3.008(18) ?
In14 In18 . . 3.280(15) 3.241(15) 3.316(15) ?
In14 In22 . . 3.503(13) 3.409(14) 3.620(14) ?
In14 Se2 . 1_5445 2.926(18) 2.874(19) 2.978(19) ?
In15 In19 . 1_5545 3.302(14) 3.284(14) 3.319(14) ?
In15 Se3 . . 2.933(16) 2.901(17) 2.991(17) ?
In16 In20 . 1_5565 3.258(14) 3.209(14) 3.307(14) ?
In16 Se3 . 1_4555 2.955(16) 2.931(17) 2.991(17) ?
In17 Se2 . . 3.43(2) 3.27(2) 3.59(2) ?
In17 Se4 . . 3.62(3) 3.44(3) 3.80(3) ?
In18 Se4 . 1_4455 3.60(4) 3.40(4) 3.80(4) ?
In19 Se1 . . 3.75(3) 3.47(3) 4.04(3) ?
In19 Se3 . 1_5565 3.63(3) 3.30(3) 3.97(3) ?
In20 In21 . 1_4545 3.82(3) 3.49(3) 4.15(3) ?
In20 Se1 . 1_5545 3.55(3) 3.27(3) 3.84(3) ?
In20 Se3 . 1_4545 3.57(3) 3.21(3) 3.95(3) ?
In21 Se1 . . 3.74(3) 2.98(3) 4.50(3) ?
In21 Se3 . . 3.46(3) 2.67(3) 4.26(3) ?
In22 Se1 . 1_5545 3.41(3) 2.66(3) 4.17(3) ?
In22 Se3 . 1_4555 3.70(3) 2.91(3) 4.49(3) ?
loop_
_geom_hbond_atom_site_label_D
_geom_hbond_atom_site_label_H
_geom_hbond_atom_site_label_A
_geom_hbond_site_symmetry_D
_geom_hbond_site_symmetry_H
_geom_hbond_site_symmetry_A
_geom_hbond_distance_DH
_geom_hbond_distance_HA
_geom_hbond_distance_DA
_geom_hbond_angle_DHA
_geom_hbond_publ_flag
? ? ? ? ? ? ? ? ? ? ?
loop_
_geom_torsion_atom_site_label_1
_geom_torsion_atom_site_label_2
_geom_torsion_atom_site_label_3
_geom_torsion_atom_site_label_4
_geom_torsion_site_ssg_symmetry_1
_geom_torsion_site_ssg_symmetry_2
_geom_torsion_site_ssg_symmetry_3
_geom_torsion_site_ssg_symmetry_4
_geom_torsion_av
_geom_torsion_min
_geom_torsion_max
? ? ? ? ? ? ? ? ? ? ?
loop_
_refln_index_h
_refln_index_k
_refln_index_l
_refln_index_m_1
_refln_F_squared_calc
_refln_F_squared_meas
_refln_F_squared_sigma
_refln_observed_status
? ? ? ? ? ? ? ?
loop_
_restr_angle_atom_site_label_1
_restr_angle_site_symmetry_1
_restr_angle_atom_site_label_2
_restr_angle_site_symmetry_2
_restr_angle_atom_site_label_3
_restr_angle_site_symmetry_3
_restr_angle_target
_restr_angle_target_weight_param
? ? ? ? ? ? ? ?
loop_
_restr_distance_atom_site_label_1
_restr_distance_site_symmetry_1
_restr_distance_atom_site_label_2
_restr_distance_site_symmetry_2
_restr_distance_target
_restr_distance_target_weight_param
? ? ? ? ? ?
loop_
_restr_equal_angle_atom_site_label_1
_restr_equal_angle_site_symmetry_1
_restr_equal_angle_atom_site_label_2
_restr_equal_angle_site_symmetry_2
_restr_equal_angle_atom_site_label_3
_restr_equal_angle_site_symmetry_3
_restr_equal_angle_class_class_id
_restr_equal_angle_class_target_weight_param
? ? ? ? ? ? ? ?
loop_
_restr_equal_distance_atom_site_label_1
_restr_equal_distance_site_symmetry_1
_restr_equal_distance_atom_site_label_2
_restr_equal_distance_site_symmetry_2
_restr_equal_distance_class_class_id
_restr_equal_distance_class_target_weight_param
? ? ? ? ? ?
loop_
_restr_equal_torsion_atom_site_label_1
_restr_equal_torsion_site_symmetry_1
_restr_equal_torsion_atom_site_label_2
_restr_equal_torsion_site_symmetry_2
_restr_equal_torsion_atom_site_label_3
_restr_equal_torsion_site_symmetry_3
_restr_equal_torsion_atom_site_label_4
_restr_equal_torsion_site_symmetry_4
_restr_equal_torsion_class_class_id
_restr_equal_torsion_class_target_weight_param
? ? ? ? ? ? ? ? ? ?
loop_
_restr_torsion_atom_site_label_1
_restr_torsion_site_symmetry_1
_restr_torsion_atom_site_label_2
_restr_torsion_site_symmetry_2
_restr_torsion_atom_site_label_3
_restr_torsion_site_symmetry_3
_restr_torsion_atom_site_label_4
_restr_torsion_site_symmetry_4
_restr_torsion_angle_target
_restr_torsion_weight_param
? ? ? ? ? ? ? ? ? ?
loop_
_twin_individual_id
_twin_individual_mass_fraction_refined
_twin_individual_twin_matrix_11
_twin_individual_twin_matrix_12
_twin_individual_twin_matrix_13
_twin_individual_twin_matrix_21
_twin_individual_twin_matrix_22
_twin_individual_twin_matrix_23
_twin_individual_twin_matrix_31
_twin_individual_twin_matrix_32
_twin_individual_twin_matrix_33
1 0.29(2) 1 0 0 0 1 0 0 0 1
2 0.178(13) 1 0 0 0 -1 0 0 0 -1
3 0.182(11) -1 0 0 0 -1 0 0 0 -1
4 0.351(13) -1 0 0 0 1 0 0 0 1
loop_
_twin_refln_datum_id
_twin_refln_individual_id
_twin_refln_index_h
_twin_refln_index_k
_twin_refln_index_l
_twin_refln_index_m_1
_twin_refln_F_squared_calc
_twin_refln_F_squared_meas
_twin_refln_F_squared_sigma
_twin_refln_include_status
1 4 2 0 0 0 105964. 112796. 562. o
1 3 2 0 0 0 105964. 112796. 562. o
1 2 -2 0 0 0 105964. 112796. 562. o
1 1 -2 0 0 0 105964. 112796. 562. o
2 3 2 0 0 1 151. 186. 19. o
2 1 -2 0 0 -1 151. 186. 19. o
3 3 3 0 0 -1 113. 145. 21. o
3 1 -3 0 0 1 113. 145. 21. o
4 4 3 0 0 0 382. 533. 30. o
4 3 3 0 0 0 382. 533. 30. o
4 2 -3 0 0 0 382. 533. 30. o
4 1 -3 0 0 0 382. 533. 30. o
5 3 3 0 0 1 88. 94. 21. o
5 1 -3 0 0 -1 88. 94. 21. o
6 3 4 0 0 -1 308. 373. 31. o
6 1 -4 0 0 1 308. 373. 31. o
7 4 4 0 0 0 138285. 142595. 748. o
7 3 4 0 0 0 138285. 142595. 748. o
7 2 -4 0 0 0 138285. 142595. 748. o
7 1 -4 0 0 0 138285. 142595. 748. o
8 3 4 0 0 1 298. 318. 32. o
8 1 -4 0 0 -1 298. 318. 32. o
9 3 5 0 0 -1 1205. 1227. 41. o
9 1 -5 0 0 1 1205. 1227. 41. o
10 4 5 0 0 0 4181. 3955. 63. o
10 3 5 0 0 0 4181. 3955. 63. o
10 2 -5 0 0 0 4181. 3955. 63. o
10 1 -5 0 0 0 4181. 3955. 63. o
11 3 5 0 0 1 1054. 1051. 42. o
11 1 -5 0 0 -1 1054. 1051. 42. o
12 3 6 0 0 -1 335. 340. 37. o
12 1 -6 0 0 1 335. 340. 37. o
13 4 6 0 0 0 193120. 194851. 1059. o
13 3 6 0 0 0 193120. 194851. 1059. o
13 2 -6 0 0 0 193120. 194851. 1059. o
13 1 -6 0 0 0 193120. 194851. 1059. o
14 3 6 0 0 1 178. 191. 29. o
14 1 -6 0 0 -1 178. 191. 29. o
15 3 7 0 0 -1 177. 190. 33. o
15 1 -7 0 0 1 177. 190. 33. o
16 4 7 0 0 0 949. 1113. 51. o
16 3 7 0 0 0 949. 1113. 51. o
16 2 -7 0 0 0 949. 1113. 51. o
16 1 -7 0 0 0 949. 1113. 51. o
17 3 7 0 0 1 83. 95. 32. o
17 1 -7 0 0 -1 83. 95. 32. o
18 3 8 0 0 -1 440. 334. 40. o
18 1 -8 0 0 1 440. 334. 40. o
19 4 8 0 0 0 493783. 471960. 2061. o
19 3 8 0 0 0 493783. 471960. 2061. o
19 2 -8 0 0 0 493783. 471960. 2061. o
19 1 -8 0 0 0 493783. 471960. 2061. o
20 3 8 0 0 1 588. 453. 53. o
20 1 -8 0 0 -1 588. 453. 53. o
21 3 9 0 0 -1 145. 168. 41. o
21 1 -9 0 0 1 145. 168. 41. o
22 4 9 0 0 0 631. 641. 62. o
22 3 9 0 0 0 631. 641. 62. o
22 2 -9 0 0 0 631. 641. 62. o
22 1 -9 0 0 0 631. 641. 62. o
23 3 9 0 0 1 62. 20. 40. <
23 1 -9 0 0 -1 62. 20. 40. <
24 4 10 0 0 0 247306. 244663. 1226. o
24 3 10 0 0 0 247306. 244663. 1226. o
24 2 -10 0 0 0 247306. 244663. 1226. o
24 1 -10 0 0 0 247306. 244663. 1226. o
25 3 11 0 0 -1 627. 360. 144. o
25 1 -11 0 0 1 627. 360. 144. o
26 4 11 0 0 0 2735. 2575. 145. o
26 3 11 0 0 0 2735. 2575. 145. o
26 2 -11 0 0 0 2735. 2575. 145. o
26 1 -11 0 0 0 2735. 2575. 145. o
27 3 11 0 0 1 760. 549. 145. o
27 1 -11 0 0 -1 760. 549. 145. o
28 3 12 0 0 -1 865. 705. 214. o
28 1 -12 0 0 1 865. 705. 214. o
29 4 12 0 0 0 11794. 11631. 215. o
29 3 12 0 0 0 11794. 11631. 215. o
29 2 -12 0 0 0 11794. 11631. 215. o
29 1 -12 0 0 0 11794. 11631. 215. o
30 3 12 0 0 1 606. 522. 216. o
30 1 -12 0 0 -1 606. 522. 216. o
31 3 12 -1 0 1 351. 3913. 966. o
31 1 -12 1 0 -1 351. 3913. 966. o
32 4 12 1 0 0 228874. 226464. 965. o
32 3 12 -1 0 0 228874. 226464. 965. o
32 2 -12 -1 0 0 228874. 226464. 965. o
32 1 -12 1 0 0 228874. 226464. 965. o
33 3 12 -1 0 -1 446. 1144. 965. <
33 1 -12 1 0 1 446. 1144. 965. <
34 3 11 -1 0 1 368. 1426. 448. o
34 1 -11 1 0 -1 368. 1426. 448. o
35 4 11 1 0 0 91958. 93589. 448. o
35 3 11 -1 0 0 91958. 93589. 448. o
35 2 -11 -1 0 0 91958. 93589. 448. o
35 1 -11 1 0 0 91958. 93589. 448. o
36 3 11 -1 0 -1 1087. 642. 448. <
36 1 -11 1 0 1 1087. 642. 448. <
37 4 10 1 0 0 60586. 64743. 344. o
37 3 10 -1 0 0 60586. 64743. 344. o
37 2 -10 -1 0 0 60586. 64743. 344. o
37 1 -10 1 0 0 60586. 64743. 344. o
38 3 10 -1 0 -1 487. 540. 57. o
38 1 -10 1 0 1 487. 540. 57. o
39 3 9 -1 0 1 160. 178. 44. o
39 1 -9 1 0 -1 160. 178. 44. o
40 4 9 1 0 0 981. 937. 63. o
40 3 9 -1 0 0 981. 937. 63. o
40 2 -9 -1 0 0 981. 937. 63. o
40 1 -9 1 0 0 981. 937. 63. o
41 3 9 -1 0 -1 61. 55. 38. <
41 1 -9 1 0 1 61. 55. 38. <
42 3 8 -1 0 1 1856. 1851. 67. o
42 1 -8 1 0 -1 1856. 1851. 67. o
43 4 8 1 0 0 25817. 27898. 195. o
43 3 8 -1 0 0 25817. 27898. 195. o
43 2 -8 -1 0 0 25817. 27898. 195. o
43 1 -8 1 0 0 25817. 27898. 195. o
44 3 8 -1 0 -1 730. 753. 54. o
44 1 -8 1 0 1 730. 753. 54. o
45 3 7 -1 0 1 549. 547. 49. o
45 1 -7 1 0 -1 549. 547. 49. o
46 4 7 1 0 0 25388. 27571. 179. o
46 3 7 -1 0 0 25388. 27571. 179. o
46 2 -7 -1 0 0 25388. 27571. 179. o
46 1 -7 1 0 0 25388. 27571. 179. o
47 3 7 -1 0 -1 300. 329. 36. o
47 1 -7 1 0 1 300. 329. 36. o
48 3 6 -1 0 1 996. 948. 35. o
48 1 -6 1 0 -1 996. 948. 35. o
49 4 6 1 0 0 10968. 10727. 79. o
49 3 6 -1 0 0 10968. 10727. 79. o
49 2 -6 -1 0 0 10968. 10727. 79. o
49 1 -6 1 0 0 10968. 10727. 79. o
50 3 6 -1 0 -1 484. 485. 30. o
50 1 -6 1 0 1 484. 485. 30. o
51 3 5 -1 0 1 981. 1018. 34. o
51 1 -5 1 0 -1 981. 1018. 34. o
52 4 5 1 0 0 4714. 4331. 50. o
52 3 5 -1 0 0 4714. 4331. 50. o
52 2 -5 -1 0 0 4714. 4331. 50. o
52 1 -5 1 0 0 4714. 4331. 50. o
53 3 5 -1 0 -1 1368. 1470. 36. o
53 1 -5 1 0 1 1368. 1470. 36. o
54 3 4 -1 0 1 329. 342. 34. o
54 1 -4 1 0 -1 329. 342. 34. o
55 4 4 1 0 0 630717. 574758. 5852. o
55 3 4 -1 0 0 630717. 574758. 5852. o
55 2 -4 -1 0 0 630717. 574758. 5852. o
55 1 -4 1 0 0 630717. 574758. 5852. o
56 3 4 -1 0 -1 649. 707. 34. o
56 1 -4 1 0 1 649. 707. 34. o
57 3 3 -1 0 1 2. 4. 18. <
57 1 -3 1 0 -1 2. 4. 18. <
58 4 3 1 0 0 6580. 7023. 63. o
58 3 3 -1 0 0 6580. 7023. 63. o
58 2 -3 -1 0 0 6580. 7023. 63. o
58 1 -3 1 0 0 6580. 7023. 63. o
59 3 3 -1 0 -1 25. -2. 18. <
59 1 -3 1 0 1 25. -2. 18. <
60 3 2 -1 0 1 34. 41. 16. o
60 1 -2 1 0 -1 34. 41. 16. o
61 4 2 1 0 0 112182. 119614. 593. o
61 3 2 -1 0 0 112182. 119614. 593. o
61 2 -2 -1 0 0 112182. 119614. 593. o
61 1 -2 1 0 0 112182. 119614. 593. o
62 3 2 -1 0 -1 23. 29. 16. <
62 1 -2 1 0 1 23. 29. 16. <
63 3 2 1 0 -1 185. 205. 20. o
63 1 -2 -1 0 1 185. 205. 20. o
64 4 2 -1 0 0 112295. 111388. 563. o
64 3 2 1 0 0 112295. 111388. 563. o
64 2 -2 1 0 0 112295. 111388. 563. o
64 1 -2 -1 0 0 112295. 111388. 563. o
65 3 2 1 0 1 156. 128. 19. o
65 1 -2 -1 0 -1 156. 128. 19. o
66 3 3 1 0 -1 85. 109. 21. o
66 1 -3 -1 0 1 85. 109. 21. o
67 4 3 -1 0 0 6239. 6634. 64. o
67 3 3 1 0 0 6239. 6634. 64. o
67 2 -3 1 0 0 6239. 6634. 64. o
67 1 -3 -1 0 0 6239. 6634. 64. o
68 3 3 1 0 1 210. 272. 26. o
68 1 -3 -1 0 -1 210. 272. 26. o
69 3 4 1 0 -1 280. 281. 33. o
69 1 -4 -1 0 1 280. 281. 33. o
70 4 4 -1 0 0 632352. 496065. 5962. o
70 3 4 1 0 0 632352. 496065. 5962. o
70 2 -4 1 0 0 632352. 496065. 5962. o
70 1 -4 -1 0 0 632352. 496065. 5962. o
71 3 4 1 0 1 77. 67. 24. o
71 1 -4 -1 0 -1 77. 67. 24. o
72 3 5 1 0 -1 536. 592. 38. o
72 1 -5 -1 0 1 536. 592. 38. o
73 4 5 -1 0 0 4503. 4605. 69. o
73 3 5 1 0 0 4503. 4605. 69. o
73 2 -5 1 0 0 4503. 4605. 69. o
73 1 -5 -1 0 0 4503. 4605. 69. o
74 3 5 1 0 1 121. 116. 26. o
74 1 -5 -1 0 -1 121. 116. 26. o
75 3 6 1 0 -1 198. 212. 30. o
75 1 -6 -1 0 1 198. 212. 30. o
76 4 6 -1 0 0 11300. 12256. 115. o
76 3 6 1 0 0 11300. 12256. 115. o
76 2 -6 1 0 0 11300. 12256. 115. o
76 1 -6 -1 0 0 11300. 12256. 115. o
77 3 6 1 0 1 698. 726. 46. o
77 1 -6 -1 0 -1 698. 726. 46. o
78 3 7 1 0 -1 18. -1. 29. <
78 1 -7 -1 0 1 18. -1. 29. <
79 4 7 -1 0 0 26090. 27559. 183. o
79 3 7 1 0 0 26090. 27559. 183. o
79 2 -7 1 0 0 26090. 27559. 183. o
79 1 -7 -1 0 0 26090. 27559. 183. o
80 3 7 1 0 1 57. 58. 31. <
80 1 -7 -1 0 -1 57. 58. 31. <
81 3 8 1 0 -1 43. 17. 35. <
81 1 -8 -1 0 1 43. 17. 35. <
82 4 8 -1 0 0 25410. 27008. 196. o
82 3 8 1 0 0 25410. 27008. 196. o
82 2 -8 1 0 0 25410. 27008. 196. o
82 1 -8 -1 0 0 25410. 27008. 196. o
83 3 8 1 0 1 111. 105. 38. o
83 1 -8 -1 0 -1 111. 105. 38. o
84 3 9 1 0 -1 301. 255. 44. o
84 1 -9 -1 0 1 301. 255. 44. o
85 4 9 -1 0 0 822. 624. 61. o
85 3 9 1 0 0 822. 624. 61. o
85 2 -9 1 0 0 822. 624. 61. o
85 1 -9 -1 0 0 822. 624. 61. o
86 3 9 1 0 1 1285. 1131. 69. o
86 1 -9 -1 0 -1 1285. 1131. 69. o
87 3 10 1 0 -1 153. 214. 49. o
87 1 -10 -1 0 1 153. 214. 49. o
88 4 10 -1 0 0 60119. 61763. 344. o
88 3 10 1 0 0 60119. 61763. 344. o
88 2 -10 1 0 0 60119. 61763. 344. o
88 1 -10 -1 0 0 60119. 61763. 344. o
89 3 10 1 0 1 510. 441. 346. <
89 1 -10 -1 0 -1 510. 441. 346. <
90 3 11 1 0 -1 233. 633. 444. <
90 1 -11 -1 0 1 233. 633. 444. <
91 4 11 -1 0 0 90939. 89405. 447. o
91 3 11 1 0 0 90939. 89405. 447. o
91 2 -11 1 0 0 90939. 89405. 447. o
91 1 -11 -1 0 0 90939. 89405. 447. o
92 3 11 1 0 1 892. 1406. 450. o
92 1 -11 -1 0 -1 892. 1406. 450. o
93 3 12 1 0 -1 1695. 2716. 810. o
93 1 -12 -1 0 1 1695. 2716. 810. o
94 4 12 -1 0 0 230487. 218295. 814. o
94 3 12 1 0 0 230487. 218295. 814. o
94 2 -12 1 0 0 230487. 218295. 814. o
94 1 -12 -1 0 0 230487. 218295. 814. o
95 3 12 1 0 1 1089. 3286. 820. o
95 1 -12 -1 0 -1 1089. 3286. 820. o
96 3 13 1 0 -1 524. 316. 165. <
96 1 -13 -1 0 1 524. 316. 165. <
97 4 13 -1 0 0 1960. 2187. 166. o
97 3 13 1 0 0 1960. 2187. 166. o
97 2 -13 1 0 0 1960. 2187. 166. o
97 1 -13 -1 0 0 1960. 2187. 166. o
98 3 13 1 0 1 718. 483. 167. o
98 1 -13 -1 0 -1 718. 483. 167. o
99 3 12 -2 0 1 170. 135. 167. <
99 1 -12 2 0 -1 170. 135. 167. <
100 4 12 2 0 0 4406. 4703. 167. o
100 3 12 -2 0 0 4406. 4703. 167. o
100 2 -12 -2 0 0 4406. 4703. 167. o
100 1 -12 2 0 0 4406. 4703. 167. o
101 3 12 -2 0 -1 172. 121. 167. <
101 1 -12 2 0 1 172. 121. 167. <
102 3 11 -2 0 1 5. 2. 49. <
102 1 -11 2 0 -1 5. 2. 49. <
103 4 11 2 0 0 2768. 2806. 106. o
103 3 11 -2 0 0 2768. 2806. 106. o
103 2 -11 -2 0 0 2768. 2806. 106. o
103 1 -11 2 0 0 2768. 2806. 106. o
104 3 11 -2 0 -1 164. 188. 55. o
104 1 -11 2 0 1 164. 188. 55. o
105 3 10 -2 0 1 302. 314. 291. <
105 1 -10 2 0 -1 302. 314. 291. <
106 4 10 2 0 0 42265. 43339. 292. o
106 3 10 -2 0 0 42265. 43339. 292. o
106 2 -10 -2 0 0 42265. 43339. 292. o
106 1 -10 2 0 0 42265. 43339. 292. o
107 3 10 -2 0 -1 1183. 1201. 75. o
107 1 -10 2 0 1 1183. 1201. 75. o
108 3 9 -2 0 1 761. 737. 64. o
108 1 -9 2 0 -1 761. 737. 64. o
109 4 9 2 0 0 52018. 57759. 308. o
109 3 9 -2 0 0 52018. 57759. 308. o
109 2 -9 -2 0 0 52018. 57759. 308. o
109 1 -9 2 0 0 52018. 57759. 308. o
110 3 9 -2 0 -1 136. 170. 44. o
110 1 -9 2 0 1 136. 170. 44. o
111 3 8 -2 0 1 207. 124. 38. o
111 1 -8 2 0 -1 207. 124. 38. o
112 4 8 2 0 0 348662. 373903. 6975. o
112 3 8 -2 0 0 348662. 373903. 6975. o
112 2 -8 -2 0 0 348662. 373903. 6975. o
112 1 -8 2 0 0 348662. 373903. 6975. o
113 3 8 -2 0 -1 255. 167. 39. o
113 1 -8 2 0 1 255. 167. 39. o
114 3 7 -2 0 1 2423. 2570. 70. o
114 1 -7 2 0 -1 2423. 2570. 70. o
115 4 7 2 0 0 79683. 90626. 566. o
115 3 7 -2 0 0 79683. 90626. 566. o
115 2 -7 -2 0 0 79683. 90626. 566. o
115 1 -7 2 0 0 79683. 90626. 566. o
116 3 7 -2 0 -1 1025. 1114. 56. o
116 1 -7 2 0 1 1025. 1114. 56. o
117 3 6 -2 0 1 39. 2. 24. <
117 1 -6 2 0 -1 39. 2. 24. <
118 4 6 2 0 0 2761. 3034. 52. o
118 3 6 -2 0 0 2761. 3034. 52. o
118 2 -6 -2 0 0 2761. 3034. 52. o
118 1 -6 2 0 0 2761. 3034. 52. o
119 3 6 -2 0 -1 113. 155. 27. o
119 1 -6 2 0 1 113. 155. 27. o
120 3 5 -2 0 1 466. 497. 32. o
120 1 -5 2 0 -1 466. 497. 32. o
121 4 5 2 0 0 3508. 3386. 51. o
121 3 5 -2 0 0 3508. 3386. 51. o
121 2 -5 -2 0 0 3508. 3386. 51. o
121 1 -5 2 0 0 3508. 3386. 51. o
122 3 5 -2 0 -1 1022. 1120. 38. o
122 1 -5 2 0 1 1022. 1120. 38. o
123 3 4 -2 0 1 694. 717. 34. o
123 1 -4 2 0 -1 694. 717. 34. o
124 4 4 2 0 0 49329. 46269. 157. o
124 3 4 -2 0 0 49329. 46269. 157. o
124 2 -4 -2 0 0 49329. 46269. 157. o
124 1 -4 2 0 0 49329. 46269. 157. o
125 3 4 -2 0 -1 362. 344. 31. o
125 1 -4 2 0 1 362. 344. 31. o
126 3 3 -2 0 1 1138. 1187. 38. o
126 1 -3 2 0 -1 1138. 1187. 38. o
127 4 3 2 0 0 88291. 91761. 573. o
127 3 3 -2 0 0 88291. 91761. 573. o
127 2 -3 -2 0 0 88291. 91761. 573. o
127 1 -3 2 0 0 88291. 91761. 573. o
128 3 3 -2 0 -1 352. 390. 33. o
128 1 -3 2 0 1 352. 390. 33. o
129 3 2 -2 0 1 4. 2. 20. <
129 1 -2 2 0 -1 4. 2. 20. <
130 4 2 2 0 0 93287. 96041. 538. o
130 3 2 -2 0 0 93287. 96041. 538. o
130 2 -2 -2 0 0 93287. 96041. 538. o
130 1 -2 2 0 0 93287. 96041. 538. o
131 3 2 -2 0 -1 5. 43. 24. <
131 1 -2 2 0 1 5. 43. 24. <
132 3 1 -2 0 1 21. 33. 25. <
132 1 -1 2 0 -1 21. 33. 25. <
133 3 1 -2 0 -1 53. 57. 30. <
133 1 -1 2 0 1 53. 57. 30. <
134 3 0 -2 0 1 190. 104. 45. o
134 1 0 2 0 -1 190. 104. 45. o
135 3 2 2 0 -1 29. 1. 25. <
135 1 -2 -2 0 1 29. 1. 25. <
136 4 2 -2 0 0 93016. 92505. 598. o
136 3 2 2 0 0 93016. 92505. 598. o
136 2 -2 2 0 0 93016. 92505. 598. o
136 1 -2 -2 0 0 93016. 92505. 598. o
137 3 3 2 0 -1 435. 486. 36. o
137 1 -3 -2 0 1 435. 486. 36. o
138 4 3 -2 0 0 87817. 86442. 531. o
138 3 3 2 0 0 87817. 86442. 531. o
138 2 -3 2 0 0 87817. 86442. 531. o
138 1 -3 -2 0 0 87817. 86442. 531. o
139 3 3 2 0 1 212. 306. 37. o
139 1 -3 -2 0 -1 212. 306. 37. o
140 3 4 2 0 -1 26. 65. 25. o
140 1 -4 -2 0 1 26. 65. 25. o
141 4 4 -2 0 0 49386. 50880. 377. o
141 3 4 2 0 0 49386. 50880. 377. o
141 2 -4 2 0 0 49386. 50880. 377. o
141 1 -4 -2 0 0 49386. 50880. 377. o
142 3 4 2 0 1 60. 52. 26. o
142 1 -4 -2 0 -1 60. 52. 26. o
143 3 5 2 0 -1 19. 31. 25. <
143 1 -5 -2 0 1 19. 31. 25. <
144 4 5 -2 0 0 3912. 4209. 71. o
144 3 5 2 0 0 3912. 4209. 71. o
144 2 -5 2 0 0 3912. 4209. 71. o
144 1 -5 -2 0 0 3912. 4209. 71. o
145 3 5 2 0 1 154. 193. 31. o
145 1 -5 -2 0 -1 154. 193. 31. o
146 3 6 2 0 -1 149. 128. 30. o
146 1 -6 -2 0 1 149. 128. 30. o
147 4 6 -2 0 0 2829. 2795. 64. o
147 3 6 2 0 0 2829. 2795. 64. o
147 2 -6 2 0 0 2829. 2795. 64. o
147 1 -6 -2 0 0 2829. 2795. 64. o
148 3 6 2 0 1 45. 42. 31. <
148 1 -6 -2 0 -1 45. 42. 31. <
149 3 7 2 0 -1 1450. 1551. 61. o
149 1 -7 -2 0 1 1450. 1551. 61. o
150 4 7 -2 0 0 81835. 87603. 579. o
150 3 7 2 0 0 81835. 87603. 579. o
150 2 -7 2 0 0 81835. 87603. 579. o
150 1 -7 -2 0 0 81835. 87603. 579. o
151 3 7 2 0 1 177. 170. 38. o
151 1 -7 -2 0 -1 177. 170. 38. o
152 3 8 2 0 -1 63. 36. 37. <
152 1 -8 -2 0 1 63. 36. 37. <
153 4 8 -2 0 0 353316. 345931. 1784. o
153 3 8 2 0 0 353316. 345931. 1784. o
153 2 -8 2 0 0 353316. 345931. 1784. o
153 1 -8 -2 0 0 353316. 345931. 1784. o
154 3 9 2 0 -1 257. 135. 310. <
154 1 -9 -2 0 1 257. 135. 310. <
155 4 9 -2 0 0 52820. 52315. 313. o
155 3 9 2 0 0 52820. 52315. 313. o
155 2 -9 2 0 0 52820. 52315. 313. o
155 1 -9 -2 0 0 52820. 52315. 313. o
156 3 9 2 0 1 1139. 814. 315. o
156 1 -9 -2 0 -1 1139. 814. 315. o
157 3 10 2 0 -1 1217. 1001. 302. o
157 1 -10 -2 0 1 1217. 1001. 302. o
158 4 10 -2 0 0 43290. 40997. 304. o
158 3 10 2 0 0 43290. 40997. 304. o
158 2 -10 2 0 0 43290. 40997. 304. o
158 1 -10 -2 0 0 43290. 40997. 304. o
159 3 10 2 0 1 502. 470. 306. <
159 1 -10 -2 0 -1 502. 470. 306. <
160 3 11 2 0 -1 433. 169. 148. <
160 1 -11 -2 0 1 433. 169. 148. <
161 4 11 -2 0 0 2889. 2849. 149. o
161 3 11 2 0 0 2889. 2849. 149. o
161 2 -11 2 0 0 2889. 2849. 149. o
161 1 -11 -2 0 0 2889. 2849. 149. o
162 3 11 2 0 1 176. 145. 150. <
162 1 -11 -2 0 -1 176. 145. 150. <
163 3 12 2 0 -1 352. 100. 168. <
163 1 -12 -2 0 1 352. 100. 168. <
164 4 12 -2 0 0 4373. 4339. 169. o
164 3 12 2 0 0 4373. 4339. 169. o
164 2 -12 2 0 0 4373. 4339. 169. o
164 1 -12 -2 0 0 4373. 4339. 169. o
165 3 12 2 0 1 93. 25. 170. <
165 1 -12 -2 0 -1 93. 25. 170. <
166 3 13 2 0 -1 808. 890. 333. o
166 1 -13 -2 0 1 808. 890. 333. o
167 4 13 -2 0 0 32265. 30695. 335. o
167 3 13 2 0 0 32265. 30695. 335. o
167 2 -13 2 0 0 32265. 30695. 335. o
167 1 -13 -2 0 0 32265. 30695. 335. o
168 3 13 2 0 1 800. 1027. 337. o
168 1 -13 -2 0 -1 800. 1027. 337. o
169 4 11 3 0 0 141869. 161933. 603. o
169 3 11 -3 0 0 141869. 161933. 603. o
169 2 -11 -3 0 0 141869. 161933. 603. o
169 1 -11 3 0 0 141869. 161933. 603. o
170 3 11 -3 0 -1 628. 555. 66. o
170 1 -11 3 0 1 628. 555. 66. o
171 3 10 -3 0 1 508. 460. 60. o
171 1 -10 3 0 -1 508. 460. 60. o
172 4 10 3 0 0 9616. 10847. 157. o
172 3 10 -3 0 0 9616. 10847. 157. o
172 2 -10 -3 0 0 9616. 10847. 157. o
172 1 -10 3 0 0 9616. 10847. 157. o
173 3 10 -3 0 -1 755. 886. 76. o
173 1 -10 3 0 1 755. 886. 76. o
174 3 9 -3 0 1 1060. 1102. 73. o
174 1 -9 3 0 -1 1060. 1102. 73. o
175 4 9 3 0 0 1235. 1339. 79. o
175 3 9 -3 0 0 1235. 1339. 79. o
175 2 -9 -3 0 0 1235. 1339. 79. o
175 1 -9 3 0 0 1235. 1339. 79. o
176 3 9 -3 0 -1 66. 60. 45. <
176 1 -9 3 0 1 66. 60. 45. <
177 3 8 -3 0 1 749. 639. 61. o
177 1 -8 3 0 -1 749. 639. 61. o
178 4 8 3 0 0 37334. 42928. 263. o
178 3 8 -3 0 0 37334. 42928. 263. o
178 2 -8 -3 0 0 37334. 42928. 263. o
178 1 -8 3 0 0 37334. 42928. 263. o
179 3 8 -3 0 -1 1080. 1187. 67. o
179 1 -8 3 0 1 1080. 1187. 67. o
180 3 7 -3 0 1 384. 391. 182. o
180 1 -7 3 0 -1 384. 391. 182. o
181 4 7 3 0 0 82220. 78431. 820. o
181 3 7 -3 0 0 82220. 78431. 820. o
181 2 -7 -3 0 0 82220. 78431. 820. o
181 1 -7 3 0 0 82220. 78431. 820. o
182 3 7 -3 0 -1 1432. 1378. 193. o
182 1 -7 3 0 1 1432. 1378. 193. o
183 3 6 -3 0 1 685. 553. 133. o
183 1 -6 3 0 -1 685. 553. 133. o
184 4 6 3 0 0 43107. 42186. 182. o
184 3 6 -3 0 0 43107. 42186. 182. o
184 2 -6 -3 0 0 43107. 42186. 182. o
184 1 -6 3 0 0 43107. 42186. 182. o
185 3 6 -3 0 -1 1187. 771. 140. o
185 1 -6 3 0 1 1187. 771. 140. o
186 3 5 -3 0 1 173. 71. 766. <
186 1 -5 3 0 -1 173. 71. 766. <
187 4 5 3 0 0 400082. 342741. 3449. o
187 3 5 -3 0 0 400082. 342741. 3449. o
187 2 -5 -3 0 0 400082. 342741. 3449. o
187 1 -5 3 0 0 400082. 342741. 3449. o
188 3 5 -3 0 -1 34. 222. 800. <
188 1 -5 3 0 1 34. 222. 800. <
189 3 4 -3 0 1 540. 530. 36. o
189 1 -4 3 0 -1 540. 530. 36. o
190 4 4 3 0 0 41712. 39562. 159. o
190 3 4 -3 0 0 41712. 39562. 159. o
190 2 -4 -3 0 0 41712. 39562. 159. o
190 1 -4 3 0 0 41712. 39562. 159. o
191 3 4 -3 0 -1 322. 320. 35. o
191 1 -4 3 0 1 322. 320. 35. o
192 3 3 -3 0 1 738. 743. 41. o
192 1 -3 3 0 -1 738. 743. 41. o
193 4 3 3 0 0 862894. 661078. 4193. o
193 3 3 -3 0 0 862894. 661078. 4193. o
193 2 -3 -3 0 0 862894. 661078. 4193. o
193 1 -3 3 0 0 862894. 661078. 4193. o
194 3 3 -3 0 -1 725. 747. 40. o
194 1 -3 3 0 1 725. 747. 40. o
195 3 2 -3 0 1 353. 413. 42. o
195 1 -2 3 0 -1 353. 413. 42. o
196 4 2 3 0 0 86428. 87799. 553. o
196 3 2 -3 0 0 86428. 87799. 553. o
196 2 -2 -3 0 0 86428. 87799. 553. o
196 1 -2 3 0 0 86428. 87799. 553. o
197 3 2 -3 0 -1 989. 1069. 52. o
197 1 -2 3 0 1 989. 1069. 52. o
198 3 1 -3 0 1 4. 22. 32. <
198 1 -1 3 0 -1 4. 22. 32. <
199 4 1 3 0 0 5807. 6647. 94. o
199 3 1 -3 0 0 5807. 6647. 94. o
199 2 -1 -3 0 0 5807. 6647. 94. o
199 1 -1 3 0 0 5807. 6647. 94. o
200 3 1 -3 0 -1 3. -27. 40. <
200 1 -1 3 0 1 3. -27. 40. <
201 3 0 -3 0 1 102. 91. 48. <
201 1 0 3 0 -1 102. 91. 48. <
202 4 0 3 0 0 158. 252. 49. o
202 3 0 -3 0 0 158. 252. 49. o
202 2 0 -3 0 0 158. 252. 49. o
202 1 0 3 0 0 158. 252. 49. o
203 3 0 -3 0 -1 88. 53. 48. <
203 1 0 3 0 1 88. 53. 48. <
204 3 4 3 0 -1 182. 265. 35. o
204 1 -4 -3 0 1 182. 265. 35. o
205 4 4 -3 0 0 42853. 42940. 212. o
205 3 4 3 0 0 42853. 42940. 212. o
205 2 -4 3 0 0 42853. 42940. 212. o
205 1 -4 -3 0 0 42853. 42940. 212. o
206 3 5 3 0 -1 3. 26. 29. <
206 1 -5 -3 0 1 3. 26. 29. <
207 4 5 -3 0 0 401630. 376806. 1716. o
207 3 5 3 0 0 401630. 376806. 1716. o
207 2 -5 3 0 0 401630. 376806. 1716. o
207 1 -5 -3 0 0 401630. 376806. 1716. o
208 3 6 3 0 -1 39. 18. 30. <
208 1 -6 -3 0 1 39. 18. 30. <
209 4 6 -3 0 0 43621. 46472. 248. o
209 3 6 3 0 0 43621. 46472. 248. o
209 2 -6 3 0 0 43621. 46472. 248. o
209 1 -6 -3 0 0 43621. 46472. 248. o
210 3 7 3 0 -1 752. 777. 57. o
210 1 -7 -3 0 1 752. 777. 57. o
211 4 7 -3 0 0 82860. 85258. 360. o
211 3 7 3 0 0 82860. 85258. 360. o
211 2 -7 3 0 0 82860. 85258. 360. o
211 1 -7 -3 0 0 82860. 85258. 360. o
212 3 8 3 0 -1 26. 54. 42. <
212 1 -8 -3 0 1 26. 54. 42. <
213 4 8 -3 0 0 36926. 38342. 261. o
213 3 8 3 0 0 36926. 38342. 261. o
213 2 -8 3 0 0 36926. 38342. 261. o
213 1 -8 -3 0 0 36926. 38342. 261. o
214 3 10 3 0 -1 624. 327. 182. <
214 1 -10 -3 0 1 624. 327. 182. <
215 4 10 -3 0 0 9514. 8930. 184. o
215 3 10 3 0 0 9514. 8930. 184. o
215 2 -10 3 0 0 9514. 8930. 184. o
215 1 -10 -3 0 0 9514. 8930. 184. o
216 3 10 3 0 1 512. 343. 185. <
216 1 -10 -3 0 -1 512. 343. 185. <
217 3 11 3 0 -1 724. 518. 587. <
217 1 -11 -3 0 1 724. 518. 587. <
218 4 11 -3 0 0 143524. 142291. 592. o
218 3 11 3 0 0 143524. 142291. 592. o
218 2 -11 3 0 0 143524. 142291. 592. o
218 1 -11 -3 0 0 143524. 142291. 592. o
219 3 11 3 0 1 694. 741. 596. <
219 1 -11 -3 0 -1 694. 741. 596. <
220 3 12 3 0 -1 145. 62. 240. <
220 1 -12 -3 0 1 145. 62. 240. <
221 4 12 -3 0 0 14771. 13605. 242. o
221 3 12 3 0 0 14771. 13605. 242. o
221 2 -12 3 0 0 14771. 13605. 242. o
221 1 -12 -3 0 0 14771. 13605. 242. o
222 3 12 3 0 1 316. 400. 244. <
222 1 -12 -3 0 -1 316. 400. 244. <
223 3 13 3 0 -1 1139. 783. 561. <
223 1 -13 -3 0 1 1139. 783. 561. <
224 4 13 -3 0 0 102489. 99764. 565. o
224 3 13 3 0 0 102489. 99764. 565. o
224 2 -13 3 0 0 102489. 99764. 565. o
224 1 -13 -3 0 0 102489. 99764. 565. o
225 3 13 3 0 1 777. 1689. 570. o
225 1 -13 -3 0 -1 777. 1689. 570. o
226 3 11 -4 0 1 587. 692. 74. o
226 1 -11 4 0 -1 587. 692. 74. o
227 4 11 4 0 0 24645. 28484. 272. o
227 3 11 -4 0 0 24645. 28484. 272. o
227 2 -11 -4 0 0 24645. 28484. 272. o
227 1 -11 4 0 0 24645. 28484. 272. o
228 3 11 -4 0 -1 43. 76. 59. <
228 1 -11 4 0 1 43. 76. 59. <
229 3 10 -4 0 1 67. 87. 55. <
229 1 -10 4 0 -1 67. 87. 55. <
230 4 10 4 0 0 846. 909. 87. o
230 3 10 -4 0 0 846. 909. 87. o
230 2 -10 -4 0 0 846. 909. 87. o
230 1 -10 4 0 0 846. 909. 87. o
231 3 10 -4 0 -1 149. 56. 52. <
231 1 -10 4 0 1 149. 56. 52. <
232 3 9 -4 0 1 357. 499. 61. o
232 1 -9 4 0 -1 357. 499. 61. o
233 4 9 4 0 0 176714. 222590. 1257. o
233 3 9 -4 0 0 176714. 222590. 1257. o
233 2 -9 -4 0 0 176714. 222590. 1257. o
233 1 -9 4 0 0 176714. 222590. 1257. o
234 3 9 -4 0 -1 1334. 1490. 88. o
234 1 -9 4 0 1 1334. 1490. 88. o
235 3 8 -4 0 1 29. 42. 75. <
235 1 -8 4 0 -1 29. 42. 75. <
236 4 8 4 0 0 950. 1100. 83. o
236 3 8 -4 0 0 950. 1100. 83. o
236 2 -8 -4 0 0 950. 1100. 83. o
236 1 -8 4 0 0 950. 1100. 83. o
237 3 8 -4 0 -1 290. 268. 80. o
237 1 -8 4 0 1 290. 268. 80. o
238 3 7 -4 0 1 737. 594. 948. <
238 1 -7 4 0 -1 737. 594. 948. <
239 4 7 4 0 0 481543. 455577. 1548. o
239 3 7 -4 0 0 481543. 455577. 1548. o
239 2 -7 -4 0 0 481543. 455577. 1548. o
239 1 -7 4 0 0 481543. 455577. 1548. o
240 3 7 -4 0 -1 1547. 1808. 988. <
240 1 -7 4 0 1 1547. 1808. 988. <
241 3 6 -4 0 1 1506. 1236. 174. o
241 1 -6 4 0 -1 1506. 1236. 174. o
242 4 6 4 0 0 58518. 57045. 232. o
242 3 6 -4 0 0 58518. 57045. 232. o
242 2 -6 -4 0 0 58518. 57045. 232. o
242 1 -6 4 0 0 58518. 57045. 232. o
243 3 6 -4 0 -1 986. 710. 181. o
243 1 -6 4 0 1 986. 710. 181. o
244 3 5 -4 0 1 213. 115. 73. <
244 1 -5 4 0 -1 213. 115. 73. <
245 4 5 4 0 0 1442. 1817. 80. o
245 3 5 -4 0 0 1442. 1817. 80. o
245 2 -5 -4 0 0 1442. 1817. 80. o
245 1 -5 4 0 0 1442. 1817. 80. o
246 3 5 -4 0 -1 563. 322. 78. o
246 1 -5 4 0 1 563. 322. 78. o
247 3 4 -4 0 1 38. 35. 189. <
247 1 -4 4 0 -1 38. 35. 189. <
248 4 4 4 0 0 86305. 80537. 342. o
248 3 4 -4 0 0 86305. 80537. 342. o
248 2 -4 -4 0 0 86305. 80537. 342. o
248 1 -4 4 0 0 86305. 80537. 342. o
249 3 4 -4 0 -1 16. 35. 201. <
249 1 -4 4 0 1 16. 35. 201. <
250 3 3 -4 0 1 361. 256. 145. <
250 1 -3 4 0 -1 361. 256. 145. <
251 4 3 4 0 0 43873. 40677. 188. o
251 3 3 -4 0 0 43873. 40677. 188. o
251 2 -3 -4 0 0 43873. 40677. 188. o
251 1 -3 4 0 0 43873. 40677. 188. o
252 3 3 -4 0 -1 502. 382. 157. o
252 1 -3 4 0 1 502. 382. 157. o
253 3 2 -4 0 1 364. 304. 165. <
253 1 -2 4 0 -1 364. 304. 165. <
254 4 2 4 0 0 49372. 46027. 211. o
254 3 2 -4 0 0 49372. 46027. 211. o
254 2 -2 -4 0 0 49372. 46027. 211. o
254 1 -2 4 0 0 49372. 46027. 211. o
255 3 2 -4 0 -1 674. 544. 185. o
255 1 -2 4 0 1 674. 544. 185. o
256 3 1 -4 0 1 637. 659. 65. o
256 1 -1 4 0 -1 637. 659. 65. o
257 4 1 4 0 0 609889. 520366. 9198. o
257 3 1 -4 0 0 609889. 520366. 9198. o
257 2 -1 -4 0 0 609889. 520366. 9198. o
257 1 -1 4 0 0 609889. 520366. 9198. o
258 3 1 -4 0 -1 386. 271. 58. o
258 1 -1 4 0 1 386. 271. 58. o
259 3 0 -4 0 1 302. 279. 48. o
259 1 0 4 0 -1 302. 279. 48. o
260 4 0 4 0 0 124020. 95369. 742. o
260 3 0 -4 0 0 124020. 95369. 742. o
260 2 0 -4 0 0 124020. 95369. 742. o
260 1 0 4 0 0 124020. 95369. 742. o
261 3 0 -4 0 -1 203. 175. 44. o
261 1 0 4 0 1 203. 175. 44. o
262 3 5 4 0 -1 58. 46. 33. <
262 1 -5 -4 0 1 58. 46. 33. <
263 3 6 4 0 -1 52. 83. 37. o
263 1 -6 -4 0 1 52. 83. 37. o
264 4 6 -4 0 0 58924. 60560. 307. o
264 3 6 4 0 0 58924. 60560. 307. o
264 2 -6 4 0 0 58924. 60560. 307. o
264 1 -6 -4 0 0 58924. 60560. 307. o
265 3 11 -5 0 1 1614. 6268. 800. o
265 1 -11 5 0 -1 1614. 6268. 800. o
266 4 11 5 0 0 186341. 223212. 811. o
266 3 11 -5 0 0 186341. 223212. 811. o
266 2 -11 -5 0 0 186341. 223212. 811. o
266 1 -11 5 0 0 186341. 223212. 811. o
267 3 11 -5 0 -1 621. 7293. 824. o
267 1 -11 5 0 1 621. 7293. 824. o
268 3 10 -5 0 1 2333. 2567. 115. o
268 1 -10 5 0 -1 2333. 2567. 115. o
269 4 10 5 0 0 41910. 53455. 371. o
269 3 10 -5 0 0 41910. 53455. 371. o
269 2 -10 -5 0 0 41910. 53455. 371. o
269 1 -10 5 0 0 41910. 53455. 371. o
270 3 10 -5 0 -1 1168. 1387. 102. o
270 1 -10 5 0 1 1168. 1387. 102. o
271 3 9 -5 0 1 103. 107. 56. <
271 1 -9 5 0 -1 103. 107. 56. <
272 4 9 5 0 0 4496. 5748. 132. o
272 3 9 -5 0 0 4496. 5748. 132. o
272 2 -9 -5 0 0 4496. 5748. 132. o
272 1 -9 5 0 0 4496. 5748. 132. o
273 3 9 -5 0 -1 1210. 1396. 91. o
273 1 -9 5 0 1 1210. 1396. 91. o
274 3 8 -5 0 1 717. 655. 178. o
274 1 -8 5 0 -1 717. 655. 178. o
275 4 8 5 0 0 40293. 41784. 239. o
275 3 8 -5 0 0 40293. 41784. 239. o
275 2 -8 -5 0 0 40293. 41784. 239. o
275 1 -8 5 0 0 40293. 41784. 239. o
276 3 8 -5 0 -1 896. 811. 185. o
276 1 -8 5 0 1 896. 811. 185. o
277 3 7 -5 0 1 29. 29. 91. <
277 1 -7 5 0 -1 29. 29. 91. <
278 4 7 5 0 0 1570. 1779. 99. o
278 3 7 -5 0 0 1570. 1779. 99. o
278 2 -7 -5 0 0 1570. 1779. 99. o
278 1 -7 5 0 0 1570. 1779. 99. o
279 3 7 -5 0 -1 119. 39. 95. <
279 1 -7 5 0 1 119. 39. 95. <
280 3 6 -5 0 1 1266. 995. 96. o
280 1 -6 5 0 -1 1266. 995. 96. o
281 4 6 5 0 0 2176. 2550. 100. o
281 3 6 -5 0 0 2176. 2550. 100. o
281 2 -6 -5 0 0 2176. 2550. 100. o
281 1 -6 5 0 0 2176. 2550. 100. o
282 3 6 -5 0 -1 232. 214. 97. o
282 1 -6 5 0 1 232. 214. 97. o
283 3 5 -5 0 1 846. 891. 1088. <
283 1 -5 5 0 -1 846. 891. 1088. <
284 4 5 5 0 0 511984. 478389. 1635. o
284 3 5 -5 0 0 511984. 478389. 1635. o
284 2 -5 -5 0 0 511984. 478389. 1635. o
284 1 -5 5 0 0 511984. 478389. 1635. o
285 3 5 -5 0 -1 855. 985. 1146. <
285 1 -5 5 0 1 855. 985. 1146. <
286 3 4 -5 0 1 384. 358. 88. o
286 1 -4 5 0 -1 384. 358. 88. o
287 4 4 5 0 0 1154. 1097. 92. o
287 3 4 -5 0 0 1154. 1097. 92. o
287 2 -4 -5 0 0 1154. 1097. 92. o
287 1 -4 5 0 0 1154. 1097. 92. o
288 3 4 -5 0 -1 112. 77. 91. <
288 1 -4 5 0 1 112. 77. 91. <
289 3 3 -5 0 1 163. 76. 1200. <
289 1 -3 5 0 -1 163. 76. 1200. <
290 4 3 5 0 0 385434. 394415. 1571. o
290 3 3 -5 0 0 385434. 394415. 1571. o
290 2 -3 -5 0 0 385434. 394415. 1571. o
290 1 -3 5 0 0 385434. 394415. 1571. o
291 3 3 -5 0 -1 54. 93. 1281. <
291 1 -3 5 0 1 54. 93. 1281. <
292 3 2 -5 0 1 1015. 902. 98. o
292 1 -2 5 0 -1 1015. 902. 98. o
293 4 2 5 0 0 3291. 3262. 97. o
293 3 2 -5 0 0 3291. 3262. 97. o
293 2 -2 -5 0 0 3291. 3262. 97. o
293 1 -2 5 0 0 3291. 3262. 97. o
294 3 2 -5 0 -1 407. 378. 85. o
294 1 -2 5 0 1 407. 378. 85. o
295 3 1 -5 0 1 1180. 1006. 89. o
295 1 -1 5 0 -1 1180. 1006. 89. o
296 4 1 5 0 0 5388. 4789. 97. o
296 3 1 -5 0 0 5388. 4789. 97. o
296 2 -1 -5 0 0 5388. 4789. 97. o
296 1 -1 5 0 0 5388. 4789. 97. o
297 3 1 -5 0 -1 883. 599. 82. o
297 1 -1 5 0 1 883. 599. 82. o
298 3 0 -5 0 1 912. 769. 73. o
298 1 0 5 0 -1 912. 769. 73. o
299 4 0 5 0 0 1610. 1688. 73. o
299 3 0 -5 0 0 1610. 1688. 73. o
299 2 0 -5 0 0 1610. 1688. 73. o
299 1 0 5 0 0 1610. 1688. 73. o
300 3 0 -5 0 -1 874. 685. 69. o
300 1 0 5 0 1 874. 685. 69. o
301 3 10 -6 0 1 162. 75. 66. <
301 1 -10 6 0 -1 162. 75. 66. <
302 4 10 6 0 0 19404. 24748. 273. o
302 3 10 -6 0 0 19404. 24748. 273. o
302 2 -10 -6 0 0 19404. 24748. 273. o
302 1 -10 6 0 0 19404. 24748. 273. o
303 3 10 -6 0 -1 239. 176. 70. o
303 1 -10 6 0 1 239. 176. 70. o
304 3 9 -6 0 1 74. 156. 63. o
304 1 -9 6 0 -1 74. 156. 63. o
305 4 9 6 0 0 2819. 2781. 114. o
305 3 9 -6 0 0 2819. 2781. 114. o
305 2 -9 -6 0 0 2819. 2781. 114. o
305 1 -9 6 0 0 2819. 2781. 114. o
306 3 9 -6 0 -1 106. 219. 65. o
306 1 -9 6 0 1 106. 219. 65. o
307 3 8 -6 0 1 500. 510. 173. o
307 1 -8 6 0 -1 500. 510. 173. o
308 4 8 6 0 0 23708. 25753. 218. o
308 3 8 -6 0 0 23708. 25753. 218. o
308 2 -8 -6 0 0 23708. 25753. 218. o
308 1 -8 6 0 0 23708. 25753. 218. o
309 3 8 -6 0 -1 593. 667. 182. o
309 1 -8 6 0 1 593. 667. 182. o
310 3 7 -6 0 1 899. 678. 306. o
310 1 -7 6 0 -1 899. 678. 306. o
311 4 7 6 0 0 110706. 120210. 410. o
311 3 7 -6 0 0 110706. 120210. 410. o
311 2 -7 -6 0 0 110706. 120210. 410. o
311 1 -7 6 0 0 110706. 120210. 410. o
312 3 7 -6 0 -1 67. 196. 318. <
312 1 -7 6 0 1 67. 196. 318. <
313 3 6 -6 0 1 431. 367. 357. <
313 1 -6 6 0 -1 431. 367. 357. <
314 4 6 6 0 0 157703. 169173. 705. o
314 3 6 -6 0 0 157703. 169173. 705. o
314 2 -6 -6 0 0 157703. 169173. 705. o
314 1 -6 6 0 0 157703. 169173. 705. o
315 3 6 -6 0 -1 296. 415. 374. <
315 1 -6 6 0 1 296. 415. 374. <
316 3 5 -6 0 1 354. 227. 115. <
316 1 -5 6 0 -1 354. 227. 115. <
317 4 5 6 0 0 3141. 3285. 126. o
317 3 5 -6 0 0 3141. 3285. 126. o
317 2 -5 -6 0 0 3141. 3285. 126. o
317 1 -5 6 0 0 3141. 3285. 126. o
318 3 5 -6 0 -1 1108. 1095. 125. o
318 1 -5 6 0 1 1108. 1095. 125. o
319 3 4 -6 0 1 825. 796. 250. o
319 1 -4 6 0 -1 825. 796. 250. o
320 4 4 6 0 0 54847. 60927. 290. o
320 3 4 -6 0 0 54847. 60927. 290. o
320 2 -4 -6 0 0 54847. 60927. 290. o
320 1 -4 6 0 0 54847. 60927. 290. o
321 3 4 -6 0 -1 1326. 1307. 222. o
321 1 -4 6 0 1 1326. 1307. 222. o
322 3 3 -6 0 1 1159. 1046. 185. o
322 1 -3 6 0 -1 1159. 1046. 185. o
323 4 3 6 0 0 40164. 40813. 223. o
323 3 3 -6 0 0 40164. 40813. 223. o
323 2 -3 -6 0 0 40164. 40813. 223. o
323 1 -3 6 0 0 40164. 40813. 223. o
324 3 3 -6 0 -1 577. 541. 169. o
324 1 -3 6 0 1 577. 541. 169. o
325 3 2 -6 0 1 140. 106. 45. o
325 1 -2 6 0 -1 140. 106. 45. o
326 4 2 6 0 0 3147. 3524. 109. o
326 3 2 -6 0 0 3147. 3524. 109. o
326 2 -2 -6 0 0 3147. 3524. 109. o
326 1 -2 6 0 0 3147. 3524. 109. o
327 3 2 -6 0 -1 90. 10. 54. <
327 1 -2 6 0 1 90. 10. 54. <
328 3 1 -6 0 1 388. 295. 92. o
328 1 -1 6 0 -1 388. 295. 92. o
329 4 1 6 0 0 9163. 8398. 108. o
329 3 1 -6 0 0 9163. 8398. 108. o
329 2 -1 -6 0 0 9163. 8398. 108. o
329 1 -1 6 0 0 9163. 8398. 108. o
330 3 1 -6 0 -1 746. 599. 91. o
330 1 -1 6 0 1 746. 599. 91. o
331 3 0 -6 0 1 331. 260. 47. o
331 1 0 6 0 -1 331. 260. 47. o
332 4 0 6 0 0 177247. 127456. 796. o
332 3 0 -6 0 0 177247. 127456. 796. o
332 2 0 -6 0 0 177247. 127456. 796. o
332 1 0 6 0 0 177247. 127456. 796. o
333 3 0 -6 0 -1 192. 118. 44. o
333 1 0 6 0 1 192. 118. 44. o
334 3 -1 -6 0 1 192. 170. 53. o
334 1 1 6 0 -1 192. 170. 53. o
335 4 -1 6 0 0 9276. 12455. 166. o
335 3 -1 -6 0 0 9276. 12455. 166. o
335 2 1 -6 0 0 9276. 12455. 166. o
335 1 1 6 0 0 9276. 12455. 166. o
336 3 -1 -6 0 -1 627. 582. 66. o
336 1 1 6 0 1 627. 582. 66. o
337 3 10 -7 0 1 133. 2165. 489. o
337 1 -10 7 0 -1 133. 2165. 489. o
338 4 10 7 0 0 52822. 65865. 489. o
338 3 10 -7 0 0 52822. 65865. 489. o
338 2 -10 -7 0 0 52822. 65865. 489. o
338 1 -10 7 0 0 52822. 65865. 489. o
339 3 10 -7 0 -1 998. 1342. 491. o
339 1 -10 7 0 1 998. 1342. 491. o
340 3 9 -7 0 1 162. -14. 128. <
340 1 -9 7 0 -1 162. -14. 128. <
341 4 9 7 0 0 1456. 1807. 139. o
341 3 9 -7 0 0 1456. 1807. 139. o
341 2 -9 -7 0 0 1456. 1807. 139. o
341 1 -9 7 0 0 1456. 1807. 139. o
342 3 9 -7 0 -1 708. 570. 136. o
342 1 -9 7 0 1 708. 570. 136. o
343 3 8 -7 0 1 585. 566. 130. o
343 1 -8 7 0 -1 585. 566. 130. o
344 4 8 7 0 0 1244. 1347. 136. o
344 3 8 -7 0 0 1244. 1347. 136. o
344 2 -8 -7 0 0 1244. 1347. 136. o
344 1 -8 7 0 0 1244. 1347. 136. o
345 3 8 -7 0 -1 660. 591. 137. o
345 1 -8 7 0 1 660. 591. 137. o
346 3 7 -7 0 1 718. 705. 165. o
346 1 -7 7 0 -1 718. 705. 165. o
347 4 7 7 0 0 10593. 12001. 188. o
347 3 7 -7 0 0 10593. 12001. 188. o
347 2 -7 -7 0 0 10593. 12001. 188. o
347 1 -7 7 0 0 10593. 12001. 188. o
348 3 7 -7 0 -1 714. 708. 173. o
348 1 -7 7 0 1 714. 708. 173. o
349 3 6 -7 0 1 12. 193. 364. <
349 1 -6 7 0 -1 12. 193. 364. <
350 4 6 7 0 0 105397. 124900. 451. o
350 3 6 -7 0 0 105397. 124900. 451. o
350 2 -6 -7 0 0 105397. 124900. 451. o
350 1 -6 7 0 0 105397. 124900. 451. o
351 3 6 -7 0 -1 732. 780. 338. o
351 1 -6 7 0 1 732. 780. 338. o
352 3 5 -7 0 1 145. 40. 114. <
352 1 -5 7 0 -1 145. 40. 114. <
353 4 5 7 0 0 1586. 2133. 117. o
353 3 5 -7 0 0 1586. 2133. 117. o
353 2 -5 -7 0 0 1586. 2133. 117. o
353 1 -5 7 0 0 1586. 2133. 117. o
354 3 5 -7 0 -1 77. 41. 104. <
354 1 -5 7 0 1 77. 41. 104. <
355 3 4 -7 0 1 1476. 1738. 1236. <
355 1 -4 7 0 -1 1476. 1738. 1236. <
356 4 4 7 0 0 445171. 461996. 1703. o
356 3 4 -7 0 0 445171. 461996. 1703. o
356 2 -4 -7 0 0 445171. 461996. 1703. o
356 1 -4 7 0 0 445171. 461996. 1703. o
357 3 4 -7 0 -1 486. 622. 1152. <
357 1 -4 7 0 1 486. 622. 1152. <
358 3 3 -7 0 1 1614. 1390. 222. o
358 1 -3 7 0 -1 1614. 1390. 222. o
359 4 3 7 0 0 70890. 74881. 305. o
359 3 3 -7 0 0 70890. 74881. 305. o
359 2 -3 -7 0 0 70890. 74881. 305. o
359 1 -3 7 0 0 70890. 74881. 305. o
360 3 3 -7 0 -1 532. 470. 208. o
360 1 -3 7 0 1 532. 470. 208. o
361 3 2 -7 0 1 806. 763. 204. o
361 1 -2 7 0 -1 806. 763. 204. o
362 4 2 7 0 0 67873. 69052. 287. o
362 3 2 -7 0 0 67873. 69052. 287. o
362 2 -2 -7 0 0 67873. 69052. 287. o
362 1 -2 7 0 0 67873. 69052. 287. o
363 3 2 -7 0 -1 1894. 1564. 195. o
363 1 -2 7 0 1 1894. 1564. 195. o
364 3 1 -7 0 1 192. 196. 117. <
364 1 -1 7 0 -1 192. 196. 117. <
365 4 1 7 0 0 23086. 20214. 150. o
365 3 1 -7 0 0 23086. 20214. 150. o
365 2 -1 -7 0 0 23086. 20214. 150. o
365 1 -1 7 0 0 23086. 20214. 150. o
366 3 1 -7 0 -1 293. 325. 113. o
366 1 -1 7 0 1 293. 325. 113. o
367 3 0 -7 0 1 171. 108. 55. <
367 1 0 7 0 -1 171. 108. 55. <
368 4 0 7 0 0 303. 266. 55. o
368 3 0 -7 0 0 303. 266. 55. o
368 2 0 -7 0 0 303. 266. 55. o
368 1 0 7 0 0 303. 266. 55. o
369 3 0 -7 0 -1 77. 61. 55. <
369 1 0 7 0 1 77. 61. 55. <
370 3 -1 -7 0 1 114. -6. 97. <
370 1 1 7 0 -1 114. -6. 97. <
371 4 -1 7 0 0 23263. 19585. 141. o
371 3 -1 -7 0 0 23263. 19585. 141. o
371 2 1 -7 0 0 23263. 19585. 141. o
371 1 1 7 0 0 23263. 19585. 141. o
372 3 -1 -7 0 -1 55. 84. 96. <
372 1 1 7 0 1 55. 84. 96. <
373 3 -2 -7 0 1 936. 680. 292. o
373 1 2 7 0 -1 936. 680. 292. o
374 4 -2 7 0 0 70128. 60317. 290. o
374 3 -2 -7 0 0 70128. 60317. 290. o
374 2 2 -7 0 0 70128. 60317. 290. o
374 1 2 7 0 0 70128. 60317. 290. o
375 3 -2 -7 0 -1 118. 248. 287. <
375 1 2 7 0 1 118. 248. 287. <
376 3 9 -8 0 1 943. 704. 188. o
376 1 -9 8 0 -1 943. 704. 188. o
377 4 9 8 0 0 3902. 4287. 192. o
377 3 9 -8 0 0 3902. 4287. 192. o
377 2 -9 -8 0 0 3902. 4287. 192. o
377 1 -9 8 0 0 3902. 4287. 192. o
378 3 9 -8 0 -1 623. 474. 194. o
378 1 -9 8 0 1 623. 474. 194. o
379 3 8 -8 0 1 1398. 4169. 1753. o
379 1 -8 8 0 -1 1398. 4169. 1753. o
380 4 8 8 0 0 368870. 422938. 1722. o
380 3 8 -8 0 0 368870. 422938. 1722. o
380 2 -8 -8 0 0 368870. 422938. 1722. o
380 1 -8 8 0 0 368870. 422938. 1722. o
381 3 8 -8 0 -1 974. 730. 1700. <
381 1 -8 8 0 1 974. 730. 1700. <
382 3 7 -8 0 1 882. 632. 137. o
382 1 -7 8 0 -1 882. 632. 137. o
383 4 7 8 0 0 1151. 1316. 134. o
383 3 7 -8 0 0 1151. 1316. 134. o
383 2 -7 -8 0 0 1151. 1316. 134. o
383 1 -7 8 0 0 1151. 1316. 134. o
384 3 7 -8 0 -1 563. 466. 126. o
384 1 -7 8 0 1 563. 466. 126. o
385 3 6 -8 0 1 429. 623. 184. o
385 1 -6 8 0 -1 429. 623. 184. o
386 4 6 8 0 0 21862. 24973. 221. o
386 3 6 -8 0 0 21862. 24973. 221. o
386 2 -6 -8 0 0 21862. 24973. 221. o
386 1 -6 8 0 0 21862. 24973. 221. o
387 3 6 -8 0 -1 208. 465. 171. o
387 1 -6 8 0 1 208. 465. 171. o
388 3 5 -8 0 1 837. 907. 194. o
388 1 -5 8 0 -1 837. 907. 194. o
389 4 5 8 0 0 34568. 39089. 251. o
389 3 5 -8 0 0 34568. 39089. 251. o
389 2 -5 -8 0 0 34568. 39089. 251. o
389 1 -5 8 0 0 34568. 39089. 251. o
390 3 5 -8 0 -1 773. 691. 183. o
390 1 -5 8 0 1 773. 691. 183. o
391 3 4 -8 0 1 377. 374. 69. o
391 1 -4 8 0 -1 377. 374. 69. o
392 4 4 8 0 0 500. 656. 80. o
392 3 4 -8 0 0 500. 656. 80. o
392 2 -4 -8 0 0 500. 656. 80. o
392 1 -4 8 0 0 500. 656. 80. o
393 3 4 -8 0 -1 78. 58. 67. <
393 1 -4 8 0 1 78. 58. 67. <
394 3 3 -8 0 1 979. 1085. 102. o
394 1 -3 8 0 -1 979. 1085. 102. o
395 4 3 8 0 0 31246. 37212. 339. o
395 3 3 -8 0 0 31246. 37212. 339. o
395 2 -3 -8 0 0 31246. 37212. 339. o
395 1 -3 8 0 0 31246. 37212. 339. o
396 3 3 -8 0 -1 530. 516. 80. o
396 1 -3 8 0 1 530. 516. 80. o
397 3 2 -8 0 1 256. 272. 776. <
397 1 -2 8 0 -1 256. 272. 776. <
398 4 2 8 0 0 300388. 276465. 1208. o
398 3 2 -8 0 0 300388. 276465. 1208. o
398 2 -2 -8 0 0 300388. 276465. 1208. o
398 1 -2 8 0 0 300388. 276465. 1208. o
399 3 2 -8 0 -1 144. 256. 749. <
399 1 -2 8 0 1 144. 256. 749. <
400 3 1 -8 0 1 658. 460. 118. o
400 1 -1 8 0 -1 658. 460. 118. o
401 4 1 8 0 0 18701. 17752. 147. o
401 3 1 -8 0 0 18701. 17752. 147. o
401 2 -1 -8 0 0 18701. 17752. 147. o
401 1 -1 8 0 0 18701. 17752. 147. o
402 3 1 -8 0 -1 1423. 1203. 118. o
402 1 -1 8 0 1 1423. 1203. 118. o
403 3 0 -8 0 1 450. 463. 979. <
403 1 0 8 0 -1 450. 463. 979. <
404 4 0 8 0 0 429809. 362581. 1416. o
404 3 0 -8 0 0 429809. 362581. 1416. o
404 2 0 -8 0 0 429809. 362581. 1416. o
404 1 0 8 0 0 429809. 362581. 1416. o
405 3 0 -8 0 -1 381. 547. 955. <
405 1 0 8 0 1 381. 547. 955. <
406 3 -1 -8 0 1 52. 33. 98. <
406 1 1 8 0 -1 52. 33. 98. <
407 4 -1 8 0 0 18891. 17795. 138. o
407 3 -1 -8 0 0 18891. 17795. 138. o
407 2 1 -8 0 0 18891. 17795. 138. o
407 1 1 8 0 0 18891. 17795. 138. o
408 3 -1 -8 0 -1 79. 107. 97. <
408 1 1 8 0 1 79. 107. 97. <
409 4 -2 8 0 0 300769. 269777. 1421. o
409 3 -2 -8 0 0 300769. 269777. 1421. o
409 2 2 -8 0 0 300769. 269777. 1421. o
409 1 2 8 0 0 300769. 269777. 1421. o
410 4 9 9 0 0 59702. 80542. 574. o
410 3 9 -9 0 0 59702. 80542. 574. o
410 2 -9 -9 0 0 59702. 80542. 574. o
410 1 -9 9 0 0 59702. 80542. 574. o
411 3 9 -9 0 -1 215. 212. 85. o
411 1 -9 9 0 1 215. 212. 85. o
412 3 8 -9 0 1 862. 1000. 103. o
412 1 -8 9 0 -1 862. 1000. 103. o
413 4 8 9 0 0 3295. 3803. 153. o
413 3 8 -9 0 0 3295. 3803. 153. o
413 2 -8 -9 0 0 3295. 3803. 153. o
413 1 -8 9 0 0 3295. 3803. 153. o
414 3 8 -9 0 -1 838. 1093. 134. o
414 1 -8 9 0 1 838. 1093. 134. o
415 3 7 -9 0 1 692. 425. 150. o
415 1 -7 9 0 -1 692. 425. 150. o
416 4 7 9 0 0 1428. 1904. 149. o
416 3 7 -9 0 0 1428. 1904. 149. o
416 2 -7 -9 0 0 1428. 1904. 149. o
416 1 -7 9 0 0 1428. 1904. 149. o
417 3 7 -9 0 -1 69. 41. 147. <
417 1 -7 9 0 1 69. 41. 147. <
418 3 6 -9 0 1 353. 149. 185. <
418 1 -6 9 0 -1 353. 149. 185. <
419 4 6 9 0 0 1906. 2821. 188. o
419 3 6 -9 0 0 1906. 2821. 188. o
419 2 -6 -9 0 0 1906. 2821. 188. o
419 1 -6 9 0 0 1906. 2821. 188. o
420 3 6 -9 0 -1 145. 61. 191. <
420 1 -6 9 0 1 145. 61. 191. <
421 3 5 -9 0 1 854. 990. 116. o
421 1 -5 9 0 -1 854. 990. 116. o
422 4 5 9 0 0 3654. 4352. 126. o
422 3 5 -9 0 0 3654. 4352. 126. o
422 2 -5 -9 0 0 3654. 4352. 126. o
422 1 -5 9 0 0 3654. 4352. 126. o
423 3 5 -9 0 -1 234. 110. 106. <
423 1 -5 9 0 1 234. 110. 106. <
424 3 4 -9 0 1 926. 1031. 334. o
424 1 -4 9 0 -1 926. 1031. 334. o
425 4 4 9 0 0 149954. 174187. 520. o
425 3 4 -9 0 0 149954. 174187. 520. o
425 2 -4 -9 0 0 149954. 174187. 520. o
425 1 -4 9 0 0 149954. 174187. 520. o
426 3 4 -9 0 -1 462. 531. 320. <
426 1 -4 9 0 1 462. 531. 320. <
427 3 3 -9 0 1 36. 41. 78. <
427 1 -3 9 0 -1 36. 41. 78. <
428 4 3 9 0 0 864. 944. 85. o
428 3 3 -9 0 0 864. 944. 85. o
428 2 -3 -9 0 0 864. 944. 85. o
428 1 -3 9 0 0 864. 944. 85. o
429 3 3 -9 0 -1 649. 687. 83. o
429 1 -3 9 0 1 649. 687. 83. o
430 3 2 -9 0 1 96. 133. 166. <
430 1 -2 9 0 -1 96. 133. 166. <
431 4 2 9 0 0 41422. 40121. 223. o
431 3 2 -9 0 0 41422. 40121. 223. o
431 2 -2 -9 0 0 41422. 40121. 223. o
431 1 -2 9 0 0 41422. 40121. 223. o
432 3 2 -9 0 -1 638. 616. 164. o
432 1 -2 9 0 1 638. 616. 164. o
433 3 1 -9 0 1 94. 15. 64. <
433 1 -1 9 0 -1 94. 15. 64. <
434 4 1 9 0 0 555. 433. 64. o
434 3 1 -9 0 0 555. 433. 64. o
434 2 -1 -9 0 0 555. 433. 64. o
434 1 -1 9 0 0 555. 433. 64. o
435 3 1 -9 0 -1 110. 116. 64. <
435 1 -1 9 0 1 110. 116. 64. <
436 3 0 -9 0 1 137. 110. 57. <
436 1 0 9 0 -1 137. 110. 57. <
437 4 0 9 0 0 145. 118. 57. o
437 3 0 -9 0 0 145. 118. 57. o
437 2 0 -9 0 0 145. 118. 57. o
437 1 0 9 0 0 145. 118. 57. o
438 3 0 -9 0 -1 13. 17. 56. <
438 1 0 9 0 1 13. 17. 56. <
439 3 -1 -9 0 1 167. 140. 152. <
439 1 1 9 0 -1 167. 140. 152. <
440 4 -1 9 0 0 554. 456. 151. o
440 3 -1 -9 0 0 554. 456. 151. o
440 2 1 -9 0 0 554. 456. 151. o
440 1 1 9 0 0 554. 456. 151. o
441 3 -1 -9 0 -1 1043. 948. 150. o
441 1 1 9 0 1 1043. 948. 150. o
442 3 -2 -9 0 1 287. 232. 63. o
442 1 2 9 0 -1 287. 232. 63. o
443 4 -2 9 0 0 42164. 40225. 323. o
443 3 -2 -9 0 0 42164. 40225. 323. o
443 2 2 -9 0 0 42164. 40225. 323. o
443 1 2 9 0 0 42164. 40225. 323. o
444 3 -2 -9 0 -1 814. 978. 91. o
444 1 2 9 0 1 814. 978. 91. o
445 3 -3 -9 0 1 289. 142. 65. o
445 1 3 9 0 -1 289. 142. 65. o
446 4 -3 9 0 0 813. 643. 83. o
446 3 -3 -9 0 0 813. 643. 83. o
446 2 3 -9 0 0 813. 643. 83. o
446 1 3 9 0 0 813. 643. 83. o
447 3 -3 -9 0 -1 34. 80. 67. <
447 1 3 9 0 1 34. 80. 67. <
448 3 8 -10 0 1 813. 134. 308. <
448 1 -8 10 0 -1 813. 134. 308. <
449 4 8 10 0 0 30559. 37261. 307. o
449 3 8 -10 0 0 30559. 37261. 307. o
449 2 -8 -10 0 0 30559. 37261. 307. o
449 1 -8 10 0 0 30559. 37261. 307. o
450 3 8 -10 0 -1 844. 504. 306. <
450 1 -8 10 0 1 844. 504. 306. <
451 3 7 -10 0 1 1019. 1485. 507. o
451 1 -7 10 0 -1 1019. 1485. 507. o
452 4 7 10 0 0 46824. 58386. 513. o
452 3 7 -10 0 0 46824. 58386. 513. o
452 2 -7 -10 0 0 46824. 58386. 513. o
452 1 -7 10 0 0 46824. 58386. 513. o
453 3 7 -10 0 -1 104. 100. 519. <
453 1 -7 10 0 1 104. 100. 519. <
454 3 6 -10 0 1 543. 85. 316. <
454 1 -6 10 0 -1 543. 85. 316. <
455 4 6 10 0 0 16602. 20388. 321. o
455 3 6 -10 0 0 16602. 20388. 321. o
455 2 -6 -10 0 0 16602. 20388. 321. o
455 1 -6 10 0 0 16602. 20388. 321. o
456 3 6 -10 0 -1 107. 46. 86. <
456 1 -6 10 0 1 107. 46. 86. <
457 3 5 -10 0 1 805. 878. 442. <
457 1 -5 10 0 -1 805. 878. 442. <
458 4 5 10 0 0 35585. 42169. 451. o
458 3 5 -10 0 0 35585. 42169. 451. o
458 2 -5 -10 0 0 35585. 42169. 451. o
458 1 -5 10 0 0 35585. 42169. 451. o
459 3 5 -10 0 -1 1651. 1644. 452. o
459 1 -5 10 0 1 1651. 1644. 452. o
460 3 4 -10 0 1 95. 33. 81. <
460 1 -4 10 0 -1 95. 33. 81. <
461 4 4 10 0 0 296. 572. 85. o
461 3 4 -10 0 0 296. 572. 85. o
461 2 -4 -10 0 0 296. 572. 85. o
461 1 -4 10 0 0 296. 572. 85. o
462 3 4 -10 0 -1 93. 50. 77. <
462 1 -4 10 0 1 93. 50. 77. <
463 3 3 -10 0 1 481. 747. 193. o
463 1 -3 10 0 -1 481. 747. 193. o
464 4 3 10 0 0 6224. 6154. 183. o
464 3 3 -10 0 0 6224. 6154. 183. o
464 2 -3 -10 0 0 6224. 6154. 183. o
464 1 -3 10 0 0 6224. 6154. 183. o
465 3 3 -10 0 -1 266. 348. 67. o
465 1 -3 10 0 1 266. 348. 67. o
466 3 2 -10 0 1 978. 823. 159. o
466 1 -2 10 0 -1 978. 823. 159. o
467 4 2 10 0 0 33321. 32693. 208. o
467 3 2 -10 0 0 33321. 32693. 208. o
467 2 -2 -10 0 0 33321. 32693. 208. o
467 1 -2 10 0 0 33321. 32693. 208. o
468 3 2 -10 0 -1 324. 239. 152. <
468 1 -2 10 0 1 324. 239. 152. <
469 3 1 -10 0 1 473. 370. 169. o
469 1 -1 10 0 -1 473. 370. 169. o
470 4 1 10 0 0 46045. 44543. 226. o
470 3 1 -10 0 0 46045. 44543. 226. o
470 2 -1 -10 0 0 46045. 44543. 226. o
470 1 -1 10 0 0 46045. 44543. 226. o
471 3 1 -10 0 -1 134. 231. 165. <
471 1 -1 10 0 1 134. 231. 165. <
472 3 0 -10 0 1 1205. 189. 793. <
472 1 0 10 0 -1 1205. 189. 793. <
473 4 0 10 0 0 186132. 161260. 784. o
473 3 0 -10 0 0 186132. 161260. 784. o
473 2 0 -10 0 0 186132. 161260. 784. o
473 1 0 10 0 0 186132. 161260. 784. o
474 3 0 -10 0 -1 802. 128. 775. <
474 1 0 10 0 1 802. 128. 775. <
475 3 -1 -10 0 1 200. 201. 340. <
475 1 1 10 0 -1 200. 201. 340. <
476 4 -1 10 0 0 44884. 43065. 338. o
476 3 -1 -10 0 0 44884. 43065. 338. o
476 2 1 -10 0 0 44884. 43065. 338. o
476 1 1 10 0 0 44884. 43065. 338. o
477 3 -1 -10 0 -1 294. 247. 336. <
477 1 1 10 0 1 294. 247. 336. <
478 3 -2 -10 0 1 865. 930. 85. o
478 1 2 10 0 -1 865. 930. 85. o
479 4 -2 10 0 0 33856. 31732. 301. o
479 3 -2 -10 0 0 33856. 31732. 301. o
479 2 2 -10 0 0 33856. 31732. 301. o
479 1 2 10 0 0 33856. 31732. 301. o
480 3 -2 -10 0 -1 255. 250. 300. <
480 1 2 10 0 1 255. 250. 300. <
481 3 -3 -10 0 1 576. 406. 66. o
481 1 3 10 0 -1 576. 406. 66. o
482 4 -3 10 0 0 5984. 6548. 164. o
482 3 -3 -10 0 0 5984. 6548. 164. o
482 2 3 -10 0 0 5984. 6548. 164. o
482 1 3 10 0 0 5984. 6548. 164. o
483 3 -3 -10 0 -1 431. 379. 74. o
483 1 3 10 0 1 431. 379. 74. o
484 3 -4 -10 0 1 101. 50. 68. <
484 1 4 10 0 -1 101. 50. 68. <
485 4 -4 10 0 0 322. 435. 83. o
485 3 -4 -10 0 0 322. 435. 83. o
485 2 4 -10 0 0 322. 435. 83. o
485 1 4 10 0 0 322. 435. 83. o
486 3 -4 -10 0 -1 129. 30. 70. <
486 1 4 10 0 1 129. 30. 70. <
487 3 8 -11 0 1 408. 209. 258. <
487 1 -8 11 0 -1 408. 209. 258. <
488 4 8 11 0 0 1385. 1002. 261. o
488 3 8 -11 0 0 1385. 1002. 261. o
488 2 -8 -11 0 0 1385. 1002. 261. o
488 1 -8 11 0 0 1385. 1002. 261. o
489 3 8 -11 0 -1 183. 208. 264. <
489 1 -8 11 0 1 183. 208. 264. <
490 3 7 -11 0 1 772. 1074. 552. <
490 1 -7 11 0 -1 772. 1074. 552. <
491 4 7 11 0 0 41347. 57003. 559. o
491 3 7 -11 0 0 41347. 57003. 559. o
491 2 -7 -11 0 0 41347. 57003. 559. o
491 1 -7 11 0 0 41347. 57003. 559. o
492 3 7 -11 0 -1 751. 682. 568. <
492 1 -7 11 0 1 751. 682. 568. <
493 3 6 -11 0 1 473. 219. 256. <
493 1 -6 11 0 -1 473. 219. 256. <
494 4 6 11 0 0 20704. 25741. 258. o
494 3 6 -11 0 0 20704. 25741. 258. o
494 2 -6 -11 0 0 20704. 25741. 258. o
494 1 -6 11 0 0 20704. 25741. 258. o
495 3 6 -11 0 -1 404. 544. 162. o
495 1 -6 11 0 1 404. 544. 162. o
496 3 5 -11 0 1 486. 528. 834. <
496 1 -5 11 0 -1 486. 528. 834. <
497 4 5 11 0 0 146576. 165823. 790. o
497 3 5 -11 0 0 146576. 165823. 790. o
497 2 -5 -11 0 0 146576. 165823. 790. o
497 1 -5 11 0 0 146576. 165823. 790. o
498 3 5 -11 0 -1 667. 1099. 760. <
498 1 -5 11 0 1 667. 1099. 760. <
499 3 4 -11 0 1 287. 54. 200. <
499 1 -4 11 0 -1 287. 54. 200. <
500 4 4 11 0 0 16858. 17651. 194. o
500 3 4 -11 0 0 16858. 17651. 194. o
500 2 -4 -11 0 0 16858. 17651. 194. o
500 1 -4 11 0 0 16858. 17651. 194. o
501 3 4 -11 0 -1 314. 417. 188. o
501 1 -4 11 0 1 314. 417. 188. o
502 3 3 -11 0 1 790. 471. 553. <
502 1 -3 11 0 -1 790. 471. 553. <
503 4 3 11 0 0 111148. 110046. 383. o
503 3 3 -11 0 0 111148. 110046. 383. o
503 2 -3 -11 0 0 111148. 110046. 383. o
503 1 -3 11 0 0 111148. 110046. 383. o
504 3 3 -11 0 -1 329. 324. 272. <
504 1 -3 11 0 1 329. 324. 272. <
505 3 2 -11 0 1 92. 135. 75. <
505 1 -2 11 0 -1 92. 135. 75. <
506 4 2 11 0 0 2184. 2134. 95. o
506 3 2 -11 0 0 2184. 2134. 95. o
506 2 -2 -11 0 0 2184. 2134. 95. o
506 1 -2 11 0 0 2184. 2134. 95. o
507 3 2 -11 0 -1 24. 20. 93. <
507 1 -2 11 0 1 24. 20. 93. <
508 3 1 -11 0 1 722. 628. 283. o
508 1 -1 11 0 -1 722. 628. 283. o
509 4 1 11 0 0 64704. 65356. 279. o
509 3 1 -11 0 0 64704. 65356. 279. o
509 2 -1 -11 0 0 64704. 65356. 279. o
509 1 -1 11 0 0 64704. 65356. 279. o
510 3 1 -11 0 -1 417. 313. 276. <
510 1 -1 11 0 1 417. 313. 276. <
511 3 0 -11 0 1 468. 377. 150. o
511 1 0 11 0 -1 468. 377. 150. o
512 4 0 11 0 0 1034. 918. 148. o
512 3 0 -11 0 0 1034. 918. 148. o
512 2 0 -11 0 0 1034. 918. 148. o
512 1 0 11 0 0 1034. 918. 148. o
513 3 0 -11 0 -1 517. 547. 147. o
513 1 0 11 0 1 517. 547. 147. o
514 3 -2 -11 0 1 263. 163. 132. <
514 1 2 11 0 -1 263. 163. 132. <
515 4 -2 11 0 0 2231. 2064. 131. o
515 3 -2 -11 0 0 2231. 2064. 131. o
515 2 2 -11 0 0 2231. 2064. 131. o
515 1 2 11 0 0 2231. 2064. 131. o
516 3 -2 -11 0 -1 97. 99. 57. <
516 1 2 11 0 1 97. 99. 57. <
517 3 -3 -11 0 1 320. 499. 556. <
517 1 3 11 0 -1 320. 499. 556. <
518 4 -3 11 0 0 114473. 107411. 553. o
518 3 -3 -11 0 0 114473. 107411. 553. o
518 2 3 -11 0 0 114473. 107411. 553. o
518 1 3 11 0 0 114473. 107411. 553. o
519 3 -4 -11 0 1 227. 256. 267. <
519 1 4 11 0 -1 227. 256. 267. <
520 4 -4 11 0 0 17782. 17409. 265. o
520 3 -4 -11 0 0 17782. 17409. 265. o
520 2 4 -11 0 0 17782. 17409. 265. o
520 1 4 11 0 0 17782. 17409. 265. o
521 3 -4 -11 0 -1 1205. 1154. 105. o
521 1 4 11 0 1 1205. 1154. 105. o
522 3 -5 -11 0 1 830. 690. 790. <
522 1 5 11 0 -1 830. 690. 790. <
523 4 -5 11 0 0 149259. 163562. 781. o
523 3 -5 -11 0 0 149259. 163562. 781. o
523 2 5 -11 0 0 149259. 163562. 781. o
523 1 5 11 0 0 149259. 163562. 781. o
524 3 -5 -11 0 -1 1217. 1068. 771. <
524 1 5 11 0 1 1217. 1068. 771. <
525 3 7 -12 0 1 247. 471. 844. <
525 1 -7 12 0 -1 247. 471. 844. <
526 4 7 12 0 0 89689. 121580. 778. o
526 3 7 -12 0 0 89689. 121580. 778. o
526 2 -7 -12 0 0 89689. 121580. 778. o
526 1 -7 12 0 0 89689. 121580. 778. o
527 3 7 -12 0 -1 429. 362. 733. <
527 1 -7 12 0 1 429. 362. 733. <
528 3 6 -12 0 1 337. 122. 164. <
528 1 -6 12 0 -1 337. 122. 164. <
529 4 6 12 0 0 3773. 3851. 159. o
529 3 6 -12 0 0 3773. 3851. 159. o
529 2 -6 -12 0 0 3773. 3851. 159. o
529 1 -6 12 0 0 3773. 3851. 159. o
530 3 6 -12 0 -1 114. 63. 155. <
530 1 -6 12 0 1 114. 63. 155. <
531 3 5 -12 0 1 92. 86. 175. <
531 1 -5 12 0 -1 92. 86. 175. <
532 4 5 12 0 0 9103. 9721. 170. o
532 3 5 -12 0 0 9103. 9721. 170. o
532 2 -5 -12 0 0 9103. 9721. 170. o
532 1 -5 12 0 0 9103. 9721. 170. o
533 3 5 -12 0 -1 235. 252. 165. <
533 1 -5 12 0 1 235. 252. 165. <
534 3 4 -12 0 1 84. 103. 79. <
534 1 -4 12 0 -1 84. 103. 79. <
535 4 4 12 0 0 248. 103. 78. <
535 3 4 -12 0 0 248. 103. 78. <
535 2 -4 -12 0 0 248. 103. 78. <
535 1 -4 12 0 0 248. 103. 78. <
536 3 4 -12 0 -1 62. 35. 77. <
536 1 -4 12 0 1 62. 35. 77. <
537 3 3 -12 0 1 549. 535. 112. o
537 1 -3 12 0 -1 549. 535. 112. o
538 4 3 12 0 0 10400. 10391. 145. o
538 3 3 -12 0 0 10400. 10391. 145. o
538 2 -3 -12 0 0 10400. 10391. 145. o
538 1 -3 12 0 0 10400. 10391. 145. o
539 3 3 -12 0 -1 138. 60. 142. <
539 1 -3 12 0 1 138. 60. 142. <
540 3 2 -12 0 1 68. 476. 114. o
540 1 -2 12 0 -1 68. 476. 114. o
541 4 2 12 0 0 2884. 2113. 112. o
541 3 2 -12 0 0 2884. 2113. 112. o
541 2 -2 -12 0 0 2884. 2113. 112. o
541 1 -2 12 0 0 2884. 2113. 112. o
542 3 2 -12 0 -1 147. 458. 110. o
542 1 -2 12 0 1 147. 458. 110. o
543 3 1 -12 0 1 458. 372. 639. <
543 1 -1 12 0 -1 458. 372. 639. <
544 4 1 12 0 0 160779. 156809. 630. o
544 3 1 -12 0 0 160779. 156809. 630. o
544 2 -1 -12 0 0 160779. 156809. 630. o
544 1 -1 12 0 0 160779. 156809. 630. o
545 3 1 -12 0 -1 212. 237. 621. <
545 1 -1 12 0 1 212. 237. 621. <
546 3 0 -12 0 1 510. 581. 199. o
546 1 0 12 0 -1 510. 581. 199. o
547 4 0 12 0 0 7288. 7859. 197. o
547 3 0 -12 0 0 7288. 7859. 197. o
547 2 0 -12 0 0 7288. 7859. 197. o
547 1 0 12 0 0 7288. 7859. 197. o
548 3 0 -12 0 -1 243. 334. 195. <
548 1 0 12 0 1 243. 334. 195. <
549 3 -1 -12 0 1 1611. 923. 638. <
549 1 1 12 0 -1 1611. 923. 638. <
550 4 -1 12 0 0 160844. 155235. 633. o
550 3 -1 -12 0 0 160844. 155235. 633. o
550 2 1 -12 0 0 160844. 155235. 633. o
550 1 1 12 0 0 160844. 155235. 633. o
551 3 -1 -12 0 -1 1240. 369. 628. <
551 1 1 12 0 1 1240. 369. 628. <
552 3 -2 -12 0 1 332. 147. 161. <
552 1 2 12 0 -1 332. 147. 161. <
553 4 -2 12 0 0 2967. 3141. 160. o
553 3 -2 -12 0 0 2967. 3141. 160. o
553 2 2 -12 0 0 2967. 3141. 160. o
553 1 2 12 0 0 2967. 3141. 160. o
554 3 -2 -12 0 -1 258. 34. 159. <
554 1 2 12 0 1 258. 34. 159. <
555 3 -3 -12 0 1 21. 39. 219. <
555 1 3 12 0 -1 21. 39. 219. <
556 4 -3 12 0 0 10366. 9928. 217. o
556 3 -3 -12 0 0 10366. 9928. 217. o
556 2 3 -12 0 0 10366. 9928. 217. o
556 1 3 12 0 0 10366. 9928. 217. o
557 3 -3 -12 0 -1 195. 155. 216. <
557 1 3 12 0 1 195. 155. 216. <
558 3 -4 -12 0 1 111. -7. 153. <
558 1 4 12 0 -1 111. -7. 153. <
559 4 -4 12 0 0 258. 365. 152. o
559 3 -4 -12 0 0 258. 365. 152. o
559 2 4 -12 0 0 258. 365. 152. o
559 1 4 12 0 0 258. 365. 152. o
560 3 -4 -12 0 -1 97. 16. 150. <
560 1 4 12 0 1 97. 16. 150. <
561 3 -5 -12 0 1 1266. 1195. 258. o
561 1 5 12 0 -1 1266. 1195. 258. o
562 4 -5 12 0 0 9587. 9326. 256. o
562 3 -5 -12 0 0 9587. 9326. 256. o
562 2 5 -12 0 0 9587. 9326. 256. o
562 1 5 12 0 0 9587. 9326. 256. o
563 3 -5 -12 0 -1 12. 143. 254. <
563 1 5 12 0 1 12. 143. 254. <
564 3 -6 -12 0 1 288. 203. 232. <
564 1 6 12 0 -1 288. 203. 232. <
565 4 -6 12 0 0 4095. 3578. 229. o
565 3 -6 -12 0 0 4095. 3578. 229. o
565 2 6 -12 0 0 4095. 3578. 229. o
565 1 6 12 0 0 4095. 3578. 229. o
566 3 -6 -12 0 -1 83. 80. 226. <
566 1 6 12 0 1 83. 80. 226. <
567 3 5 -13 0 1 196. 28. 202. <
567 1 -5 13 0 -1 196. 28. 202. <
568 4 5 13 0 0 18702. 20074. 197. o
568 3 5 -13 0 0 18702. 20074. 197. o
568 2 -5 -13 0 0 18702. 20074. 197. o
568 1 -5 13 0 0 18702. 20074. 197. o
569 3 4 -13 0 1 117. 103. 171. <
569 1 -4 13 0 -1 117. 103. 171. <
570 4 4 13 0 0 10462. 10992. 168. o
570 3 4 -13 0 0 10462. 10992. 168. o
570 2 -4 -13 0 0 10462. 10992. 168. o
570 1 -4 13 0 0 10462. 10992. 168. o
571 3 4 -13 0 -1 444. 252. 166. <
571 1 -4 13 0 1 444. 252. 166. <
572 3 3 -13 0 1 549. 220. 335. <
572 1 -3 13 0 -1 549. 220. 335. <
573 4 3 13 0 0 70265. 75693. 330. o
573 3 3 -13 0 0 70265. 75693. 330. o
573 2 -3 -13 0 0 70265. 75693. 330. o
573 1 -3 13 0 0 70265. 75693. 330. o
574 3 3 -13 0 -1 946. 786. 326. o
574 1 -3 13 0 1 946. 786. 326. o
575 3 2 -13 0 1 842. 489. 277. <
575 1 -2 13 0 -1 842. 489. 277. <
576 4 2 13 0 0 19855. 20103. 272. o
576 3 2 -13 0 0 19855. 20103. 272. o
576 2 -2 -13 0 0 19855. 20103. 272. o
576 1 -2 13 0 0 19855. 20103. 272. o
577 3 2 -13 0 -1 807. 445. 268. <
577 1 -2 13 0 1 807. 445. 268. <
578 3 1 -13 0 1 142. 77. 152. <
578 1 -1 13 0 -1 142. 77. 152. <
579 4 1 13 0 0 1086. 1345. 150. o
579 3 1 -13 0 0 1086. 1345. 150. o
579 2 -1 -13 0 0 1086. 1345. 150. o
579 1 -1 13 0 0 1086. 1345. 150. o
580 3 1 -13 0 -1 80. 66. 148. <
580 1 -1 13 0 1 80. 66. 148. <
581 3 0 -13 0 1 223. 433. 147. o
581 1 0 13 0 -1 223. 433. 147. o
582 4 0 13 0 0 551. 405. 146. o
582 3 0 -13 0 0 551. 405. 146. o
582 2 0 -13 0 0 551. 405. 146. o
582 1 0 13 0 0 551. 405. 146. o
583 3 0 -13 0 -1 304. 229. 144. <
583 1 0 13 0 1 304. 229. 144. <
584 3 -1 -13 0 1 218. 304. 158. <
584 1 1 13 0 -1 218. 304. 158. <
585 4 -1 13 0 0 1117. 1199. 157. o
585 3 -1 -13 0 0 1117. 1199. 157. o
585 2 1 -13 0 0 1117. 1199. 157. o
585 1 1 13 0 0 1117. 1199. 157. o
586 3 -1 -13 0 -1 373. 375. 156. o
586 1 1 13 0 1 373. 375. 156. o
587 3 -2 -13 0 1 472. 521. 276. <
587 1 2 13 0 -1 472. 521. 276. <
588 4 -2 13 0 0 21010. 20987. 274. o
588 3 -2 -13 0 0 21010. 20987. 274. o
588 2 2 -13 0 0 21010. 20987. 274. o
588 1 2 13 0 0 21010. 20987. 274. o
589 3 -2 -13 0 -1 469. 360. 272. <
589 1 2 13 0 1 469. 360. 272. <
590 3 -3 -13 0 1 1094. 233. 484. <
590 1 3 13 0 -1 1094. 233. 484. <
591 4 -3 13 0 0 71699. 75855. 481. o
591 3 -3 -13 0 0 71699. 75855. 481. o
591 2 3 -13 0 0 71699. 75855. 481. o
591 1 3 13 0 0 71699. 75855. 481. o
592 3 -3 -13 0 -1 1384. 472. 478. <
592 1 3 13 0 1 1384. 472. 478. <
593 3 -4 -13 0 1 2. 67. 236. <
593 1 4 13 0 -1 2. 67. 236. <
594 4 -4 13 0 0 10786. 10951. 234. o
594 3 -4 -13 0 0 10786. 10951. 234. o
594 2 4 -13 0 0 10786. 10951. 234. o
594 1 4 13 0 0 10786. 10951. 234. o
595 3 -4 -13 0 -1 219. 250. 232. <
595 1 4 13 0 1 219. 250. 232. <
596 3 1 -14 0 1 111. 40. 56. <
596 1 -1 14 0 -1 111. 40. 56. <
597 3 0 -14 0 1 550. 548. 69. o
597 1 0 14 0 -1 550. 548. 69. o
598 3 -1 -14 0 1 240. 255. 62. o
598 1 1 14 0 -1 240. 255. 62. o
599 3 2 0 -1 -1 222. 243. 25. o
599 1 -2 0 1 1 222. 243. 25. o
600 4 2 0 1 0 871. 891. 28. o
600 3 2 0 -1 0 871. 891. 28. o
600 2 -2 0 -1 0 871. 891. 28. o
600 1 -2 0 1 0 871. 891. 28. o
601 3 2 0 -1 1 209. 184. 21. o
601 1 -2 0 1 -1 209. 184. 21. o
602 3 3 0 -1 -1 1. 9. 13. <
602 1 -3 0 1 1 1. 9. 13. <
603 4 3 0 1 0 56931. 61449. 259. o
603 3 3 0 -1 0 56931. 61449. 259. o
603 2 -3 0 -1 0 56931. 61449. 259. o
603 1 -3 0 1 0 56931. 61449. 259. o
604 3 3 0 -1 1 44. 51. 15. o
604 1 -3 0 1 -1 44. 51. 15. o
605 3 4 0 -1 -1 3. 10. 14. <
605 1 -4 0 1 1 3. 10. 14. <
606 4 4 0 1 0 131. 267. 20. o
606 3 4 0 -1 0 131. 267. 20. o
606 2 -4 0 -1 0 131. 267. 20. o
606 1 -4 0 1 0 131. 267. 20. o
607 3 4 0 -1 1 28. 24. 15. <
607 1 -4 0 1 -1 28. 24. 15. <
608 3 5 0 -1 -1 424. 457. 25. o
608 1 -5 0 1 1 424. 457. 25. o
609 4 5 0 1 0 279181. 274248. 1943. o
609 3 5 0 -1 0 279181. 274248. 1943. o
609 2 -5 0 -1 0 279181. 274248. 1943. o
609 1 -5 0 1 0 279181. 274248. 1943. o
610 3 5 0 -1 1 346. 365. 25. o
610 1 -5 0 1 -1 346. 365. 25. o
611 3 6 0 -1 -1 13. 18. 15. <
611 1 -6 0 1 1 13. 18. 15. <
612 4 6 0 1 0 223. 364. 25. o
612 3 6 0 -1 0 223. 364. 25. o
612 2 -6 0 -1 0 223. 364. 25. o
612 1 -6 0 1 0 223. 364. 25. o
613 3 6 0 -1 1 113. 105. 17. o
613 1 -6 0 1 -1 113. 105. 17. o
614 3 7 0 -1 -1 241. 259. 20. o
614 1 -7 0 1 1 241. 259. 20. o
615 4 7 0 1 0 1205. 1287. 38. o
615 3 7 0 -1 0 1205. 1287. 38. o
615 2 -7 0 -1 0 1205. 1287. 38. o
615 1 -7 0 1 0 1205. 1287. 38. o
616 3 7 0 -1 1 76. 46. 21. o
616 1 -7 0 1 -1 76. 46. 21. o
617 3 8 0 -1 -1 1762. 1848. 47. o
617 1 -8 0 1 1 1762. 1848. 47. o
618 4 8 0 1 0 5289. 5075. 65. o
618 3 8 0 -1 0 5289. 5075. 65. o
618 2 -8 0 -1 0 5289. 5075. 65. o
618 1 -8 0 1 0 5289. 5075. 65. o
619 3 8 0 -1 1 1411. 1410. 45. o
619 1 -8 0 1 -1 1411. 1410. 45. o
620 3 9 0 -1 -1 1801. 1932. 52. o
620 1 -9 0 1 1 1801. 1932. 52. o
621 4 9 0 1 0 13014. 13651. 108. o
621 3 9 0 -1 0 13014. 13651. 108. o
621 2 -9 0 -1 0 13014. 13651. 108. o
621 1 -9 0 1 0 13014. 13651. 108. o
622 3 9 0 -1 1 162. 197. 32. o
622 1 -9 0 1 -1 162. 197. 32. o
623 3 10 0 -1 -1 384. 217. 60. o
623 1 -10 0 1 1 384. 217. 60. o
624 4 10 0 1 0 1207. 1234. 75. o
624 3 10 0 -1 0 1207. 1234. 75. o
624 2 -10 0 -1 0 1207. 1234. 75. o
624 1 -10 0 1 0 1207. 1234. 75. o
625 3 10 0 -1 1 257. 166. 75. o
625 1 -10 0 1 -1 257. 166. 75. o
626 3 11 0 -1 -1 14. 12. 166. <
626 1 -11 0 1 1 14. 12. 166. <
627 4 11 0 1 0 8296. 8667. 166. o
627 3 11 0 -1 0 8296. 8667. 166. o
627 2 -11 0 -1 0 8296. 8667. 166. o
627 1 -11 0 1 0 8296. 8667. 166. o
628 3 11 0 -1 1 327. 279. 167. <
628 1 -11 0 1 -1 327. 279. 167. <
629 3 12 0 -1 -1 973. 803. 161. o
629 1 -12 0 1 1 973. 803. 161. o
630 4 12 0 1 0 2992. 2664. 162. o
630 3 12 0 -1 0 2992. 2664. 162. o
630 2 -12 0 -1 0 2992. 2664. 162. o
630 1 -12 0 1 0 2992. 2664. 162. o
631 3 12 0 -1 1 527. 508. 162. o
631 1 -12 0 1 -1 527. 508. 162. o
632 3 13 0 -1 -1 254. 90. 143. <
632 1 -13 0 1 1 254. 90. 143. <
633 4 13 0 1 0 813. 658. 143. o
633 3 13 0 -1 0 813. 658. 143. o
633 2 -13 0 -1 0 813. 658. 143. o
633 1 -13 0 1 0 813. 658. 143. o
634 3 13 0 -1 1 41. 34. 144. <
634 1 -13 0 1 -1 41. 34. 144. <
635 3 14 0 -1 -1 43. 50. 66. <
635 1 -14 0 1 1 43. 50. 66. <
636 3 14 -1 -1 -1 134. 102. 71. <
636 1 -14 1 1 1 134. 102. 71. <
637 3 13 -1 -1 1 124. 265. 192. <
637 1 -13 1 1 -1 124. 265. 192. <
638 4 13 1 1 0 6760. 6338. 192. o
638 3 13 -1 -1 0 6760. 6338. 192. o
638 2 -13 -1 -1 0 6760. 6338. 192. o
638 1 -13 1 1 0 6760. 6338. 192. o
639 3 13 -1 -1 -1 62. 187. 192. <
639 1 -13 1 1 1 62. 187. 192. <
640 3 12 -1 -1 1 134. 135. 127. <
640 1 -12 1 1 -1 134. 135. 127. <
641 4 12 1 1 0 329. 531. 127. o
641 3 12 -1 -1 0 329. 531. 127. o
641 2 -12 -1 -1 0 329. 531. 127. o
641 1 -12 1 1 0 329. 531. 127. o
642 3 12 -1 -1 -1 38. 14. 127. <
642 1 -12 1 1 1 38. 14. 127. <
643 3 11 -1 -1 1 2032. 1880. 102. o
643 1 -11 1 1 -1 2032. 1880. 102. o
644 4 11 1 1 0 2517. 2552. 102. o
644 3 11 -1 -1 0 2517. 2552. 102. o
644 2 -11 -1 -1 0 2517. 2552. 102. o
644 1 -11 1 1 0 2517. 2552. 102. o
645 3 11 -1 -1 -1 830. 657. 83. o
645 1 -11 1 1 1 830. 657. 83. o
646 3 10 -1 -1 1 300. 243. 36. o
646 1 -10 1 1 -1 300. 243. 36. o
647 4 10 1 1 0 7549. 8723. 97. o
647 3 10 -1 -1 0 7549. 8723. 97. o
647 2 -10 -1 -1 0 7549. 8723. 97. o
647 1 -10 1 1 0 7549. 8723. 97. o
648 3 10 -1 -1 -1 464. 525. 40. o
648 1 -10 1 1 1 464. 525. 40. o
649 3 9 -1 -1 1 45. 10. 27. <
649 1 -9 1 1 -1 45. 10. 27. <
650 4 9 1 1 0 1786. 1924. 53. o
650 3 9 -1 -1 0 1786. 1924. 53. o
650 2 -9 -1 -1 0 1786. 1924. 53. o
650 1 -9 1 1 0 1786. 1924. 53. o
651 3 9 -1 -1 -1 78. 1. 26. <
651 1 -9 1 1 1 78. 1. 26. <
652 3 8 -1 -1 1 957. 973. 41. o
652 1 -8 1 1 -1 957. 973. 41. o
653 4 8 1 1 0 835. 1028. 41. o
653 3 8 -1 -1 0 835. 1028. 41. o
653 2 -8 -1 -1 0 835. 1028. 41. o
653 1 -8 1 1 0 835. 1028. 41. o
654 3 8 -1 -1 -1 204. 177. 26. o
654 1 -8 1 1 1 204. 177. 26. o
655 3 7 -1 -1 1 959. 936. 31. o
655 1 -7 1 1 -1 959. 936. 31. o
656 4 7 1 1 0 18412. 18616. 90. o
656 3 7 -1 -1 0 18412. 18616. 90. o
656 2 -7 -1 -1 0 18412. 18616. 90. o
656 1 -7 1 1 0 18412. 18616. 90. o
657 3 7 -1 -1 -1 1136. 1155. 31. o
657 1 -7 1 1 1 1136. 1155. 31. o
658 3 6 -1 -1 1 63. 50. 18. o
658 1 -6 1 1 -1 63. 50. 18. o
659 4 6 1 1 0 22725. 24639. 111. o
659 3 6 -1 -1 0 22725. 24639. 111. o
659 2 -6 -1 -1 0 22725. 24639. 111. o
659 1 -6 1 1 0 22725. 24639. 111. o
660 3 6 -1 -1 -1 112. 95. 19. o
660 1 -6 1 1 1 112. 95. 19. o
661 3 5 -1 -1 1 461. 440. 22. o
661 1 -5 1 1 -1 461. 440. 22. o
662 4 5 1 1 0 3160. 3105. 36. o
662 3 5 -1 -1 0 3160. 3105. 36. o
662 2 -5 -1 -1 0 3160. 3105. 36. o
662 1 -5 1 1 0 3160. 3105. 36. o
663 3 5 -1 -1 -1 916. 996. 27. o
663 1 -5 1 1 1 916. 996. 27. o
664 3 4 -1 -1 1 352. 365. 24. o
664 1 -4 1 1 -1 352. 365. 24. o
665 4 4 1 1 0 23868. 26422. 96. o
665 3 4 -1 -1 0 23868. 26422. 96. o
665 2 -4 -1 -1 0 23868. 26422. 96. o
665 1 -4 1 1 0 23868. 26422. 96. o
666 3 4 -1 -1 -1 712. 809. 25. o
666 1 -4 1 1 1 712. 809. 25. o
667 3 3 -1 -1 1 190. 191. 17. o
667 1 -3 1 1 -1 190. 191. 17. o
668 4 3 1 1 0 306. 357. 21. o
668 3 3 -1 -1 0 306. 357. 21. o
668 2 -3 -1 -1 0 306. 357. 21. o
668 1 -3 1 1 0 306. 357. 21. o
669 3 3 -1 -1 -1 1. 4. 12. <
669 1 -3 1 1 1 1. 4. 12. <
670 3 2 -1 -1 1 10. 5. 17. <
670 1 -2 1 1 -1 10. 5. 17. <
671 4 2 1 1 0 3598. 3740. 46. o
671 3 2 -1 -1 0 3598. 3740. 46. o
671 2 -2 -1 -1 0 3598. 3740. 46. o
671 1 -2 1 1 0 3598. 3740. 46. o
672 3 2 -1 -1 -1 8. 16. 18. <
672 1 -2 1 1 1 8. 16. 18. <
673 3 1 1 -1 1 0. 0. 16. <
673 1 -1 -1 1 -1 0. 0. 16. <
674 3 2 1 -1 -1 87. 110. 20. o
674 1 -2 -1 1 1 87. 110. 20. o
675 4 2 -1 1 0 3686. 3982. 34. o
675 3 2 1 -1 0 3686. 3982. 34. o
675 2 -2 1 -1 0 3686. 3982. 34. o
675 1 -2 -1 1 0 3686. 3982. 34. o
676 3 2 1 -1 1 17. 5. 14. <
676 1 -2 -1 1 -1 17. 5. 14. <
677 3 3 1 -1 -1 30. 35. 13. o
677 1 -3 -1 1 1 30. 35. 13. o
678 4 3 -1 1 0 338. 506. 23. o
678 3 3 1 -1 0 338. 506. 23. o
678 2 -3 1 -1 0 338. 506. 23. o
678 1 -3 -1 1 0 338. 506. 23. o
679 3 3 1 -1 1 300. 354. 22. o
679 1 -3 -1 1 -1 300. 354. 22. o
680 3 4 1 -1 -1 32. 51. 16. o
680 1 -4 -1 1 1 32. 51. 16. o
681 4 4 -1 1 0 23860. 25791. 97. o
681 3 4 1 -1 0 23860. 25791. 97. o
681 2 -4 1 -1 0 23860. 25791. 97. o
681 1 -4 -1 1 0 23860. 25791. 97. o
682 3 4 1 -1 1 6. 0. 16. <
682 1 -4 -1 1 -1 6. 0. 16. <
683 3 5 1 -1 -1 479. 504. 27. o
683 1 -5 -1 1 1 479. 504. 27. o
684 4 5 -1 1 0 3135. 3166. 43. o
684 3 5 1 -1 0 3135. 3166. 43. o
684 2 -5 1 -1 0 3135. 3166. 43. o
684 1 -5 -1 1 0 3135. 3166. 43. o
685 3 5 1 -1 1 547. 551. 28. o
685 1 -5 -1 1 -1 547. 551. 28. o
686 3 6 1 -1 -1 445. 429. 27. o
686 1 -6 -1 1 1 445. 429. 27. o
687 4 6 -1 1 0 22739. 23929. 112. o
687 3 6 1 -1 0 22739. 23929. 112. o
687 2 -6 1 -1 0 22739. 23929. 112. o
687 1 -6 -1 1 0 22739. 23929. 112. o
688 3 6 1 -1 1 970. 951. 34. o
688 1 -6 -1 1 -1 970. 951. 34. o
689 3 7 1 -1 -1 420. 450. 32. o
689 1 -7 -1 1 1 420. 450. 32. o
690 4 7 -1 1 0 18228. 19208. 109. o
690 3 7 1 -1 0 18228. 19208. 109. o
690 2 -7 1 -1 0 18228. 19208. 109. o
690 1 -7 -1 1 0 18228. 19208. 109. o
691 3 7 1 -1 1 155. 138. 24. o
691 1 -7 -1 1 -1 155. 138. 24. o
692 3 8 1 -1 -1 5. -6. 23. <
692 1 -8 -1 1 1 5. -6. 23. <
693 4 8 -1 1 0 779. 707. 39. o
693 3 8 1 -1 0 779. 707. 39. o
693 2 -8 1 -1 0 779. 707. 39. o
693 1 -8 -1 1 0 779. 707. 39. o
694 3 8 1 -1 1 6. 15. 25. <
694 1 -8 -1 1 -1 6. 15. 25. <
695 3 9 1 -1 -1 1401. 1419. 49. o
695 1 -9 -1 1 1 1401. 1419. 49. o
696 4 9 -1 1 0 1963. 1829. 63. o
696 3 9 1 -1 0 1963. 1829. 63. o
696 2 -9 1 -1 0 1963. 1829. 63. o
696 1 -9 -1 1 0 1963. 1829. 63. o
697 3 9 1 -1 1 839. 941. 60. o
697 1 -9 -1 1 -1 839. 941. 60. o
698 3 10 1 -1 -1 80. 32. 78. <
698 1 -10 -1 1 1 80. 32. 78. <
699 4 10 -1 1 0 7742. 7311. 101. o
699 3 10 1 -1 0 7742. 7311. 101. o
699 2 -10 1 -1 0 7742. 7311. 101. o
699 1 -10 -1 1 0 7742. 7311. 101. o
700 3 10 1 -1 1 37. 20. 80. <
700 1 -10 -1 1 -1 37. 20. 80. <
701 3 11 1 -1 -1 47. 30. 95. <
701 1 -11 -1 1 1 47. 30. 95. <
702 4 11 -1 1 0 2327. 2775. 95. o
702 3 11 1 -1 0 2327. 2775. 95. o
702 2 -11 1 -1 0 2327. 2775. 95. o
702 1 -11 -1 1 0 2327. 2775. 95. o
703 3 11 1 -1 1 239. 200. 96. o
703 1 -11 -1 1 -1 239. 200. 96. o
704 3 12 1 -1 -1 349. 306. 136. o
704 1 -12 -1 1 1 349. 306. 136. o
705 4 12 -1 1 0 359. 343. 137. o
705 3 12 1 -1 0 359. 343. 137. o
705 2 -12 1 -1 0 359. 343. 137. o
705 1 -12 -1 1 0 359. 343. 137. o
706 3 12 1 -1 1 64. 12. 138. <
706 1 -12 -1 1 -1 64. 12. 138. <
707 3 13 1 -1 -1 216. 161. 195. <
707 1 -13 -1 1 1 216. 161. 195. <
708 4 13 -1 1 0 6968. 6625. 196. o
708 3 13 1 -1 0 6968. 6625. 196. o
708 2 -13 1 -1 0 6968. 6625. 196. o
708 1 -13 -1 1 0 6968. 6625. 196. o
709 3 13 1 -1 1 310. 364. 197. <
709 1 -13 -1 1 -1 310. 364. 197. <
710 3 14 1 -1 -1 49. 3. 72. <
710 1 -14 -1 1 1 49. 3. 72. <
711 3 13 -2 -1 1 21. 268. 183. <
711 1 -13 2 1 -1 21. 268. 183. <
712 4 13 2 1 0 5421. 5297. 183. o
712 3 13 -2 -1 0 5421. 5297. 183. o
712 2 -13 -2 -1 0 5421. 5297. 183. o
712 1 -13 2 1 0 5421. 5297. 183. o
713 3 13 -2 -1 -1 42. 90. 184. <
713 1 -13 2 1 1 42. 90. 184. <
714 3 12 -2 -1 1 265. 136. 132. <
714 1 -12 2 1 -1 265. 136. 132. <
715 4 12 2 1 0 480. 587. 132. o
715 3 12 -2 -1 0 480. 587. 132. o
715 2 -12 -2 -1 0 480. 587. 132. o
715 1 -12 2 1 0 480. 587. 132. o
716 3 12 -2 -1 -1 159. 4. 133. <
716 1 -12 2 1 1 159. 4. 133. <
717 3 11 -2 -1 1 249. 228. 58. o
717 1 -11 2 1 -1 249. 228. 58. o
718 4 11 2 1 0 1592. 2106. 97. o
718 3 11 -2 -1 0 1592. 2106. 97. o
718 2 -11 -2 -1 0 1592. 2106. 97. o
718 1 -11 2 1 0 1592. 2106. 97. o
719 3 11 -2 -1 -1 286. 375. 61. o
719 1 -11 2 1 1 286. 375. 61. o
720 3 10 -2 -1 1 992. 1004. 53. o
720 1 -10 2 1 -1 992. 1004. 53. o
721 4 10 2 1 0 4256. 4442. 77. o
721 3 10 -2 -1 0 4256. 4442. 77. o
721 2 -10 -2 -1 0 4256. 4442. 77. o
721 1 -10 2 1 0 4256. 4442. 77. o
722 3 10 -2 -1 -1 2278. 2530. 64. o
722 1 -10 2 1 1 2278. 2530. 64. o
723 3 9 -2 -1 1 191. 195. 32. o
723 1 -9 2 1 -1 191. 195. 32. o
724 4 9 2 1 0 2316. 2430. 58. o
724 3 9 -2 -1 0 2316. 2430. 58. o
724 2 -9 -2 -1 0 2316. 2430. 58. o
724 1 -9 2 1 0 2316. 2430. 58. o
725 3 9 -2 -1 -1 57. 36. 27. <
725 1 -9 2 1 1 57. 36. 27. <
726 3 8 -2 -1 1 118. 83. 67. <
726 1 -8 2 1 -1 118. 83. 67. <
727 4 8 2 1 0 20973. 23117. 131. o
727 3 8 -2 -1 0 20973. 23117. 131. o
727 2 -8 -2 -1 0 20973. 23117. 131. o
727 1 -8 2 1 0 20973. 23117. 131. o
728 3 8 -2 -1 -1 48. 54. 70. <
728 1 -8 2 1 1 48. 54. 70. <
729 3 7 -2 -1 1 247. 239. 47. o
729 1 -7 2 1 -1 247. 239. 47. o
730 4 7 2 1 0 5882. 6077. 63. o
730 3 7 -2 -1 0 5882. 6077. 63. o
730 2 -7 -2 -1 0 5882. 6077. 63. o
730 1 -7 2 1 0 5882. 6077. 63. o
731 3 7 -2 -1 -1 709. 486. 51. o
731 1 -7 2 1 1 709. 486. 51. o
732 3 6 -2 -1 1 185. 151. 38. o
732 1 -6 2 1 -1 185. 151. 38. o
733 4 6 2 1 0 2357. 3123. 49. o
733 3 6 -2 -1 0 2357. 3123. 49. o
733 2 -6 -2 -1 0 2357. 3123. 49. o
733 1 -6 2 1 0 2357. 3123. 49. o
734 3 6 -2 -1 -1 5. 7. 39. <
734 1 -6 2 1 1 5. 7. 39. <
735 3 5 -2 -1 1 163. 150. 18. o
735 1 -5 2 1 -1 163. 150. 18. o
736 4 5 2 1 0 1481. 1477. 29. o
736 3 5 -2 -1 0 1481. 1477. 29. o
736 2 -5 -2 -1 0 1481. 1477. 29. o
736 1 -5 2 1 0 1481. 1477. 29. o
737 3 5 -2 -1 -1 407. 386. 23. o
737 1 -5 2 1 1 407. 386. 23. o
738 3 4 -2 -1 1 2383. 2425. 31. o
738 1 -4 2 1 -1 2383. 2425. 31. o
739 4 4 2 1 0 12672. 10594. 91. o
739 3 4 -2 -1 0 12672. 10594. 91. o
739 2 -4 -2 -1 0 12672. 10594. 91. o
739 1 -4 2 1 0 12672. 10594. 91. o
740 3 4 -2 -1 -1 1844. 1801. 30. o
740 1 -4 2 1 1 1844. 1801. 30. o
741 3 3 -2 -1 1 275. 352. 21. o
741 1 -3 2 1 -1 275. 352. 21. o
742 4 3 2 1 0 69097. 69583. 275. o
742 3 3 -2 -1 0 69097. 69583. 275. o
742 2 -3 -2 -1 0 69097. 69583. 275. o
742 1 -3 2 1 0 69097. 69583. 275. o
743 3 3 -2 -1 -1 37. 28. 19. <
743 1 -3 2 1 1 37. 28. 19. <
744 3 2 -2 -1 1 124. 145. 16. o
744 1 -2 2 1 -1 124. 145. 16. o
745 4 2 2 1 0 35216. 36097. 167. o
745 3 2 -2 -1 0 35216. 36097. 167. o
745 2 -2 -2 -1 0 35216. 36097. 167. o
745 1 -2 2 1 0 35216. 36097. 167. o
746 3 2 -2 -1 -1 110. 142. 19. o
746 1 -2 2 1 1 110. 142. 19. o
747 3 1 -2 -1 1 3. 6. 23. <
747 1 -1 2 1 -1 3. 6. 23. <
748 4 1 2 1 0 3643. 4093. 43. o
748 3 1 -2 -1 0 3643. 4093. 43. o
748 2 -1 -2 -1 0 3643. 4093. 43. o
748 1 -1 2 1 0 3643. 4093. 43. o
749 3 1 -2 -1 -1 1. 0. 24. <
749 1 -1 2 1 1 1. 0. 24. <
750 3 0 -2 -1 1 199. 199. 32. o
750 1 0 2 1 -1 199. 199. 32. o
751 4 0 2 1 0 504. 374. 42. o
751 3 0 -2 -1 0 504. 374. 42. o
751 2 0 -2 -1 0 504. 374. 42. o
751 1 0 2 1 0 504. 374. 42. o
752 3 0 -2 -1 -1 159. 218. 48. o
752 1 0 2 1 1 159. 218. 48. o
753 3 2 2 -1 -1 3. 5. 22. <
753 1 -2 -2 1 1 3. 5. 22. <
754 4 2 -2 1 0 35080. 35612. 199. o
754 3 2 2 -1 0 35080. 35612. 199. o
754 2 -2 2 -1 0 35080. 35612. 199. o
754 1 -2 -2 1 0 35080. 35612. 199. o
755 3 2 2 -1 1 6. 30. 25. <
755 1 -2 -2 1 -1 6. 30. 25. <
756 3 3 2 -1 -1 3. -4. 17. <
756 1 -3 -2 1 1 3. -4. 17. <
757 4 3 -2 1 0 69541. 68363. 331. o
757 3 3 2 -1 0 69541. 68363. 331. o
757 2 -3 2 -1 0 69541. 68363. 331. o
757 1 -3 -2 1 0 69541. 68363. 331. o
758 3 3 2 -1 1 243. 305. 36. o
758 1 -3 -2 1 -1 243. 305. 36. o
759 3 4 2 -1 -1 153. 159. 19. o
759 1 -4 -2 1 1 153. 159. 19. o
760 4 4 -2 1 0 12004. 12742. 74. o
760 3 4 2 -1 0 12004. 12742. 74. o
760 2 -4 2 -1 0 12004. 12742. 74. o
760 1 -4 -2 1 0 12004. 12742. 74. o
761 3 4 2 -1 1 4. 10. 18. <
761 1 -4 -2 1 -1 4. 10. 18. <
762 3 5 2 -1 -1 20. 27. 17. <
762 1 -5 -2 1 1 20. 27. 17. <
763 4 5 -2 1 0 1439. 1397. 35. o
763 3 5 2 -1 0 1439. 1397. 35. o
763 2 -5 2 -1 0 1439. 1397. 35. o
763 1 -5 -2 1 0 1439. 1397. 35. o
764 3 5 2 -1 1 3. 12. 18. <
764 1 -5 -2 1 -1 3. 12. 18. <
765 3 6 2 -1 -1 789. 790. 32. o
765 1 -6 -2 1 1 789. 790. 32. o
766 4 6 -2 1 0 2492. 2198. 43. o
766 3 6 2 -1 0 2492. 2198. 43. o
766 2 -6 2 -1 0 2492. 2198. 43. o
766 1 -6 -2 1 0 2492. 2198. 43. o
767 3 6 2 -1 1 469. 479. 33. o
767 1 -6 -2 1 -1 469. 479. 33. o
768 3 7 2 -1 -1 637. 656. 36. o
768 1 -7 -2 1 1 637. 656. 36. o
769 4 7 -2 1 0 5777. 6132. 71. o
769 3 7 2 -1 0 5777. 6132. 71. o
769 2 -7 2 -1 0 5777. 6132. 71. o
769 1 -7 -2 1 0 5777. 6132. 71. o
770 3 7 2 -1 1 198. 173. 26. o
770 1 -7 -2 1 -1 198. 173. 26. o
771 3 8 2 -1 -1 87. 77. 26. o
771 1 -8 -2 1 1 87. 77. 26. o
772 4 8 -2 1 0 21294. 22480. 135. o
772 3 8 2 -1 0 21294. 22480. 135. o
772 2 -8 2 -1 0 21294. 22480. 135. o
772 1 -8 -2 1 0 21294. 22480. 135. o
773 3 8 2 -1 1 156. 144. 42. o
773 1 -8 -2 1 -1 156. 144. 42. o
774 3 9 2 -1 -1 165. 111. 31. o
774 1 -9 -2 1 1 165. 111. 31. o
775 4 9 -2 1 0 2297. 2272. 59. o
775 3 9 2 -1 0 2297. 2272. 59. o
775 2 -9 2 -1 0 2297. 2272. 59. o
775 1 -9 -2 1 0 2297. 2272. 59. o
776 3 9 2 -1 1 173. 148. 32. o
776 1 -9 -2 1 -1 173. 148. 32. o
777 3 10 2 -1 -1 642. 147. 100. <
777 1 -10 -2 1 1 642. 147. 100. <
778 4 10 -2 1 0 4054. 3867. 101. o
778 3 10 2 -1 0 4054. 3867. 101. o
778 2 -10 2 -1 0 4054. 3867. 101. o
778 1 -10 -2 1 0 4054. 3867. 101. o
779 3 10 2 -1 1 1010. 857. 102. o
779 1 -10 -2 1 -1 1010. 857. 102. o
780 3 11 2 -1 -1 61. 74. 95. <
780 1 -11 -2 1 1 61. 74. 95. <
781 4 11 -2 1 0 1638. 1690. 96. o
781 3 11 2 -1 0 1638. 1690. 96. o
781 2 -11 2 -1 0 1638. 1690. 96. o
781 1 -11 -2 1 0 1638. 1690. 96. o
782 3 11 2 -1 1 21. 23. 97. <
782 1 -11 -2 1 -1 21. 23. 97. <
783 3 12 2 -1 -1 346. 172. 98. <
783 1 -12 -2 1 1 346. 172. 98. <
784 4 12 -2 1 0 516. 351. 99. o
784 3 12 2 -1 0 516. 351. 99. o
784 2 -12 2 -1 0 516. 351. 99. o
784 1 -12 -2 1 0 516. 351. 99. o
785 3 12 2 -1 1 4. 132. 100. <
785 1 -12 -2 1 -1 4. 132. 100. <
786 3 13 2 -1 -1 337. 251. 194. <
786 1 -13 -2 1 1 337. 251. 194. <
787 4 13 -2 1 0 5708. 5274. 194. o
787 3 13 2 -1 0 5708. 5274. 194. o
787 2 -13 2 -1 0 5708. 5274. 194. o
787 1 -13 -2 1 0 5708. 5274. 194. o
788 3 13 2 -1 1 765. 361. 196. <
788 1 -13 -2 1 -1 765. 361. 196. <
789 3 13 -3 -1 1 549. 948. 208. o
789 1 -13 3 1 -1 549. 948. 208. o
790 4 13 3 1 0 7232. 7332. 209. o
790 3 13 -3 -1 0 7232. 7332. 209. o
790 2 -13 -3 -1 0 7232. 7332. 209. o
790 1 -13 3 1 0 7232. 7332. 209. o
791 3 13 -3 -1 -1 839. 307. 210. <
791 1 -13 3 1 1 839. 307. 210. <
792 3 12 -3 -1 1 34. 383. 196. <
792 1 -12 3 1 -1 34. 383. 196. <
793 4 12 3 1 0 7998. 8211. 198. o
793 3 12 -3 -1 0 7998. 8211. 198. o
793 2 -12 -3 -1 0 7998. 8211. 198. o
793 1 -12 3 1 0 7998. 8211. 198. o
794 3 12 -3 -1 -1 453. 478. 200. o
794 1 -12 3 1 1 453. 478. 200. o
795 3 11 -3 -1 1 177. 53. 58. <
795 1 -11 3 1 -1 177. 53. 58. <
796 4 11 3 1 0 1352. 1575. 100. o
796 3 11 -3 -1 0 1352. 1575. 100. o
796 2 -11 -3 -1 0 1352. 1575. 100. o
796 1 -11 3 1 0 1352. 1575. 100. o
797 3 11 -3 -1 -1 406. 254. 60. o
797 1 -11 3 1 1 406. 254. 60. o
798 3 10 -3 -1 1 300. 289. 39. o
798 1 -10 3 1 -1 300. 289. 39. o
799 4 10 3 1 0 1081. 879. 56. o
799 3 10 -3 -1 0 1081. 879. 56. o
799 2 -10 -3 -1 0 1081. 879. 56. o
799 1 -10 3 1 0 1081. 879. 56. o
800 3 10 -3 -1 -1 401. 388. 41. o
800 1 -10 3 1 1 401. 388. 41. o
801 3 9 -3 -1 1 1974. 2142. 59. o
801 1 -9 3 1 -1 1974. 2142. 59. o
802 4 9 3 1 0 1846. 1690. 57. o
802 3 9 -3 -1 0 1846. 1690. 57. o
802 2 -9 -3 -1 0 1846. 1690. 57. o
802 1 -9 3 1 0 1846. 1690. 57. o
803 3 9 -3 -1 -1 830. 936. 49. o
803 1 -9 3 1 1 830. 936. 49. o
804 3 8 -3 -1 1 187. 219. 89. o
804 1 -8 3 1 -1 187. 219. 89. o
805 4 8 3 1 0 32393. 37915. 174. o
805 3 8 -3 -1 0 32393. 37915. 174. o
805 2 -8 -3 -1 0 32393. 37915. 174. o
805 1 -8 3 1 0 32393. 37915. 174. o
806 3 8 -3 -1 -1 48. 72. 92. <
806 1 -8 3 1 1 48. 72. 92. <
807 3 7 -3 -1 1 1159. 1063. 66. o
807 1 -7 3 1 -1 1159. 1063. 66. o
808 4 7 3 1 0 11050. 11296. 88. o
808 3 7 -3 -1 0 11050. 11296. 88. o
808 2 -7 -3 -1 0 11050. 11296. 88. o
808 1 -7 3 1 0 11050. 11296. 88. o
809 3 7 -3 -1 -1 2246. 1972. 72. o
809 1 -7 3 1 1 2246. 1972. 72. o
810 3 6 -3 -1 1 92. 100. 42. o
810 1 -6 3 1 -1 92. 100. 42. o
811 4 6 3 1 0 334. 372. 45. o
811 3 6 -3 -1 0 334. 372. 45. o
811 2 -6 -3 -1 0 334. 372. 45. o
811 1 -6 3 1 0 334. 372. 45. o
812 3 6 -3 -1 -1 101. 95. 44. o
812 1 -6 3 1 1 101. 95. 44. o
813 3 5 -3 -1 1 232. 231. 45. o
813 1 -5 3 1 -1 232. 231. 45. o
814 4 5 3 1 0 4795. 4885. 58. o
814 3 5 -3 -1 0 4795. 4885. 58. o
814 2 -5 -3 -1 0 4795. 4885. 58. o
814 1 -5 3 1 0 4795. 4885. 58. o
815 3 5 -3 -1 -1 126. 112. 22. o
815 1 -5 3 1 1 126. 112. 22. o
816 3 4 -3 -1 1 293. 258. 34. o
816 1 -4 3 1 -1 293. 258. 34. o
817 4 4 3 1 0 1737. 1654. 39. o
817 3 4 -3 -1 0 1737. 1654. 39. o
817 2 -4 -3 -1 0 1737. 1654. 39. o
817 1 -4 3 1 0 1737. 1654. 39. o
818 3 4 -3 -1 -1 11. 14. 34. <
818 1 -4 3 1 1 11. 14. 34. <
819 3 3 -3 -1 1 2145. 1939. 80. o
819 1 -3 3 1 -1 2145. 1939. 80. o
820 4 3 3 1 0 73690. 71963. 260. o
820 3 3 -3 -1 0 73690. 71963. 260. o
820 2 -3 -3 -1 0 73690. 71963. 260. o
820 1 -3 3 1 0 73690. 71963. 260. o
821 3 3 -3 -1 -1 2058. 1979. 85. o
821 1 -3 3 1 1 2058. 1979. 85. o
822 3 2 -3 -1 1 46. 54. 25. o
822 1 -2 3 1 -1 46. 54. 25. o
823 4 2 3 1 0 69417. 69390. 325. o
823 3 2 -3 -1 0 69417. 69390. 325. o
823 2 -2 -3 -1 0 69417. 69390. 325. o
823 1 -2 3 1 0 69417. 69390. 325. o
824 3 2 -3 -1 -1 281. 243. 26. o
824 1 -2 3 1 1 281. 243. 26. o
825 3 1 -3 -1 1 17. 5. 24. <
825 1 -1 3 1 -1 17. 5. 24. <
826 4 1 3 1 0 273. 729. 40. o
826 3 1 -3 -1 0 273. 729. 40. o
826 2 -1 -3 -1 0 273. 729. 40. o
826 1 -1 3 1 0 273. 729. 40. o
827 3 1 -3 -1 -1 161. 199. 33. o
827 1 -1 3 1 1 161. 199. 33. o
828 3 0 -3 -1 1 4. -16. 39. <
828 1 0 3 1 -1 4. -16. 39. <
829 3 0 -3 -1 -1 41. 28. 46. <
829 1 0 3 1 1 41. 28. 46. <
830 3 3 3 -1 -1 15. 15. 28. <
830 1 -3 -3 1 1 15. 15. 28. <
831 4 3 -3 1 0 73591. 70753. 387. o
831 3 3 3 -1 0 73591. 70753. 387. o
831 2 -3 3 -1 0 73591. 70753. 387. o
831 1 -3 -3 1 0 73591. 70753. 387. o
832 3 4 3 -1 -1 685. 773. 46. o
832 1 -4 -3 1 1 685. 773. 46. o
833 4 4 -3 1 0 1694. 1657. 56. o
833 3 4 3 -1 0 1694. 1657. 56. o
833 2 -4 3 -1 0 1694. 1657. 56. o
833 1 -4 -3 1 0 1694. 1657. 56. o
834 3 4 3 -1 1 108. 106. 32. o
834 1 -4 -3 1 -1 108. 106. 32. o
835 3 5 3 -1 -1 42. 33. 21. <
835 1 -5 -3 1 1 42. 33. 21. <
836 4 5 -3 1 0 4747. 5431. 62. o
836 3 5 3 -1 0 4747. 5431. 62. o
836 2 -5 3 -1 0 4747. 5431. 62. o
836 1 -5 -3 1 0 4747. 5431. 62. o
837 3 5 3 -1 1 7. 42. 22. <
837 1 -5 -3 1 -1 7. 42. 22. <
838 3 6 3 -1 -1 1. -3. 23. <
838 1 -6 -3 1 1 1. -3. 23. <
839 4 6 -3 1 0 309. 409. 35. o
839 3 6 3 -1 0 309. 409. 35. o
839 2 -6 3 -1 0 309. 409. 35. o
839 1 -6 -3 1 0 309. 409. 35. o
840 3 6 3 -1 1 5. 25. 24. <
840 1 -6 -3 1 -1 5. 25. 24. <
841 3 7 3 -1 -1 426. 423. 82. o
841 1 -7 -3 1 1 426. 423. 82. o
842 4 7 -3 1 0 10563. 10483. 104. o
842 3 7 3 -1 0 10563. 10483. 104. o
842 2 -7 3 -1 0 10563. 10483. 104. o
842 1 -7 -3 1 0 10563. 10483. 104. o
843 3 7 3 -1 1 351. 383. 83. o
843 1 -7 -3 1 -1 351. 383. 83. o
844 3 8 3 -1 -1 196. 42. 254. <
844 1 -8 -3 1 1 196. 42. 254. <
845 4 8 -3 1 0 32416. 33155. 256. o
845 3 8 3 -1 0 32416. 33155. 256. o
845 2 -8 3 -1 0 32416. 33155. 256. o
845 1 -8 -3 1 0 32416. 33155. 256. o
846 3 8 3 -1 1 59. 122. 258. <
846 1 -8 -3 1 -1 59. 122. 258. <
847 3 9 3 -1 -1 11. 1. 87. <
847 1 -9 -3 1 1 11. 1. 87. <
848 4 9 -3 1 0 1617. 1501. 87. o
848 3 9 3 -1 0 1617. 1501. 87. o
848 2 -9 3 -1 0 1617. 1501. 87. o
848 1 -9 -3 1 0 1617. 1501. 87. o
849 3 9 3 -1 1 99. 36. 88. <
849 1 -9 -3 1 -1 99. 36. 88. <
850 3 10 3 -1 -1 722. 626. 97. o
850 1 -10 -3 1 1 722. 626. 97. o
851 4 10 -3 1 0 1046. 825. 97. o
851 3 10 3 -1 0 1046. 825. 97. o
851 2 -10 3 -1 0 1046. 825. 97. o
851 1 -10 -3 1 0 1046. 825. 97. o
852 3 10 3 -1 1 356. 224. 98. o
852 1 -10 -3 1 -1 356. 224. 98. o
853 3 11 3 -1 -1 391. 444. 104. o
853 1 -11 -3 1 1 391. 444. 104. o
854 4 11 -3 1 0 1235. 933. 105. o
854 3 11 3 -1 0 1235. 933. 105. o
854 2 -11 3 -1 0 1235. 933. 105. o
854 1 -11 -3 1 0 1235. 933. 105. o
855 3 11 3 -1 1 1. 298. 106. o
855 1 -11 -3 1 -1 1. 298. 106. o
856 3 12 3 -1 -1 488. 311. 201. <
856 1 -12 -3 1 1 488. 311. 201. <
857 4 12 -3 1 0 8197. 7824. 203. o
857 3 12 3 -1 0 8197. 7824. 203. o
857 2 -12 3 -1 0 8197. 7824. 203. o
857 1 -12 -3 1 0 8197. 7824. 203. o
858 3 12 3 -1 1 233. 121. 204. <
858 1 -12 -3 1 -1 233. 121. 204. <
859 3 13 3 -1 -1 630. 537. 217. o
859 1 -13 -3 1 1 630. 537. 217. o
860 4 13 -3 1 0 7515. 7081. 219. o
860 3 13 3 -1 0 7515. 7081. 219. o
860 2 -13 3 -1 0 7515. 7081. 219. o
860 1 -13 -3 1 0 7515. 7081. 219. o
861 3 13 3 -1 1 636. 545. 220. o
861 1 -13 -3 1 -1 636. 545. 220. o
862 3 12 -4 -1 1 711. 1106. 251. o
862 1 -12 4 1 -1 711. 1106. 251. o
863 4 12 4 1 0 12808. 14491. 254. o
863 3 12 -4 -1 0 12808. 14491. 254. o
863 2 -12 -4 -1 0 12808. 14491. 254. o
863 1 -12 4 1 0 12808. 14491. 254. o
864 3 12 -4 -1 -1 1480. 1463. 257. o
864 1 -12 4 1 1 1480. 1463. 257. o
865 3 11 -4 -1 1 370. 476. 71. o
865 1 -11 4 1 -1 370. 476. 71. o
866 4 11 4 1 0 29290. 33687. 304. o
866 3 11 -4 -1 0 29290. 33687. 304. o
866 2 -11 -4 -1 0 29290. 33687. 304. o
866 1 -11 4 1 0 29290. 33687. 304. o
867 3 11 -4 -1 -1 222. 287. 67. o
867 1 -11 4 1 1 222. 287. 67. o
868 3 10 -4 -1 1 140. 86. 38. o
868 1 -10 4 1 -1 140. 86. 38. o
869 4 10 4 1 0 1985. 2423. 70. o
869 3 10 -4 -1 0 1985. 2423. 70. o
869 2 -10 -4 -1 0 1985. 2423. 70. o
869 1 -10 4 1 0 1985. 2423. 70. o
870 3 10 -4 -1 -1 101. 24. 36. <
870 1 -10 4 1 1 101. 24. 36. <
871 3 9 -4 -1 1 354. 310. 74. o
871 1 -9 4 1 -1 354. 310. 74. o
872 4 9 4 1 0 9520. 10770. 105. o
872 3 9 -4 -1 0 9520. 10770. 105. o
872 2 -9 -4 -1 0 9520. 10770. 105. o
872 1 -9 4 1 0 9520. 10770. 105. o
873 3 9 -4 -1 -1 160. 115. 76. <
873 1 -9 4 1 1 160. 115. 76. <
874 3 8 -4 -1 1 13. 2. 71. <
874 1 -8 4 1 -1 13. 2. 71. <
875 4 8 4 1 0 10587. 11520. 102. o
875 3 8 -4 -1 0 10587. 11520. 102. o
875 2 -8 -4 -1 0 10587. 11520. 102. o
875 1 -8 4 1 0 10587. 11520. 102. o
876 3 8 -4 -1 -1 11. 32. 74. <
876 1 -8 4 1 1 11. 32. 74. <
877 3 7 -4 -1 1 24. 40. 56. <
877 1 -7 4 1 -1 24. 40. 56. <
878 4 7 4 1 0 2081. 2251. 66. o
878 3 7 -4 -1 0 2081. 2251. 66. o
878 2 -7 -4 -1 0 2081. 2251. 66. o
878 1 -7 4 1 0 2081. 2251. 66. o
879 3 7 -4 -1 -1 117. 123. 59. o
879 1 -7 4 1 1 117. 123. 59. o
880 3 6 -4 -1 1 1930. 1734. 64. o
880 1 -6 4 1 -1 1930. 1734. 64. o
881 4 6 4 1 0 4165. 4164. 68. o
881 3 6 -4 -1 0 4165. 4164. 68. o
881 2 -6 -4 -1 0 4165. 4164. 68. o
881 1 -6 4 1 0 4165. 4164. 68. o
882 3 6 -4 -1 -1 747. 619. 65. o
882 1 -6 4 1 1 747. 619. 65. o
883 3 5 -4 -1 1 314. 264. 53. o
883 1 -5 4 1 -1 314. 264. 53. o
884 4 5 4 1 0 1417. 1241. 55. o
884 3 5 -4 -1 0 1417. 1241. 55. o
884 2 -5 -4 -1 0 1417. 1241. 55. o
884 1 -5 4 1 0 1417. 1241. 55. o
885 3 5 -4 -1 -1 71. 62. 55. <
885 1 -5 4 1 1 71. 62. 55. <
886 3 4 -4 -1 1 203. 145. 67. o
886 1 -4 4 1 -1 203. 145. 67. o
887 4 4 4 1 0 8737. 8943. 78. o
887 3 4 -4 -1 0 8737. 8943. 78. o
887 2 -4 -4 -1 0 8737. 8943. 78. o
887 1 -4 4 1 0 8737. 8943. 78. o
888 3 4 -4 -1 -1 211. 140. 72. <
888 1 -4 4 1 1 211. 140. 72. <
889 3 3 -4 -1 1 9. 11. 48. <
889 1 -3 4 1 -1 9. 11. 48. <
890 4 3 4 1 0 1104. 1350. 49. o
890 3 3 -4 -1 0 1104. 1350. 49. o
890 2 -3 -4 -1 0 1104. 1350. 49. o
890 1 -3 4 1 0 1104. 1350. 49. o
891 3 3 -4 -1 -1 263. 252. 40. o
891 1 -3 4 1 1 263. 252. 40. o
892 3 2 -4 -1 1 1796. 1535. 54. o
892 1 -2 4 1 -1 1796. 1535. 54. o
893 4 2 4 1 0 11193. 10313. 72. o
893 3 2 -4 -1 0 11193. 10313. 72. o
893 2 -2 -4 -1 0 11193. 10313. 72. o
893 1 -2 4 1 0 11193. 10313. 72. o
894 3 2 -4 -1 -1 2210. 1903. 58. o
894 1 -2 4 1 1 2210. 1903. 58. o
895 3 1 -4 -1 1 746. 538. 74. o
895 1 -1 4 1 -1 746. 538. 74. o
896 4 1 4 1 0 22499. 19252. 141. o
896 3 1 -4 -1 0 22499. 19252. 141. o
896 2 -1 -4 -1 0 22499. 19252. 141. o
896 1 -1 4 1 0 22499. 19252. 141. o
897 3 1 -4 -1 -1 362. 265. 73. o
897 1 -1 4 1 1 362. 265. 73. o
898 3 0 -4 -1 1 11. 26. 34. <
898 1 0 4 1 -1 11. 26. 34. <
899 4 0 4 1 0 58. 97. 43. o
899 3 0 -4 -1 0 58. 97. 43. o
899 2 0 -4 -1 0 58. 97. 43. o
899 1 0 4 1 0 58. 97. 43. o
900 3 0 -4 -1 -1 27. 42. 45. <
900 1 0 4 1 1 27. 42. 45. <
901 3 -1 -4 -1 1 31. 43. 40. <
901 1 1 4 1 -1 31. 43. 40. <
902 3 4 4 -1 -1 5. 26. 32. <
902 1 -4 -4 1 1 5. 26. 32. <
903 3 5 4 -1 -1 82. 61. 32. <
903 1 -5 -4 1 1 82. 61. 32. <
904 4 5 -4 1 0 1493. 1426. 63. o
904 3 5 4 -1 0 1493. 1426. 63. o
904 2 -5 4 -1 0 1493. 1426. 63. o
904 1 -5 -4 1 0 1493. 1426. 63. o
905 3 5 4 -1 1 580. 615. 56. o
905 1 -5 -4 1 -1 580. 615. 56. o
906 3 7 4 -1 -1 143. 100. 42. o
906 1 -7 -4 1 1 143. 100. 42. o
907 3 8 4 -1 -1 169. 214. 51. o
907 1 -8 -4 1 1 169. 214. 51. o
908 4 8 -4 1 0 10972. 11463. 178. o
908 3 8 4 -1 0 10972. 11463. 178. o
908 2 -8 4 -1 0 10972. 11463. 178. o
908 1 -8 -4 1 0 10972. 11463. 178. o
909 3 8 4 -1 1 446. 665. 180. o
909 1 -8 -4 1 -1 446. 665. 180. o
910 3 9 4 -1 -1 74. 62. 192. <
910 1 -9 -4 1 1 74. 62. 192. <
911 4 9 -4 1 0 9494. 10223. 193. o
911 3 9 4 -1 0 9494. 10223. 193. o
911 2 -9 4 -1 0 9494. 10223. 193. o
911 1 -9 -4 1 0 9494. 10223. 193. o
912 3 9 4 -1 1 14. 75. 194. <
912 1 -9 -4 1 -1 14. 75. 194. <
913 3 10 4 -1 -1 39. 26. 146. <
913 1 -10 -4 1 1 39. 26. 146. <
914 4 10 -4 1 0 2006. 1824. 146. o
914 3 10 4 -1 0 2006. 1824. 146. o
914 2 -10 4 -1 0 2006. 1824. 146. o
914 1 -10 -4 1 0 2006. 1824. 146. o
915 3 10 4 -1 1 48. 55. 148. <
915 1 -10 -4 1 -1 48. 55. 148. <
916 3 11 4 -1 -1 258. 180. 303. <
916 1 -11 -4 1 1 258. 180. 303. <
917 4 11 -4 1 0 30306. 28410. 305. o
917 3 11 4 -1 0 30306. 28410. 305. o
917 2 -11 4 -1 0 30306. 28410. 305. o
917 1 -11 -4 1 0 30306. 28410. 305. o
918 3 11 4 -1 1 739. 435. 307. <
918 1 -11 -4 1 -1 739. 435. 307. <
919 3 13 -5 -1 -1 187. 198. 107. <
919 1 -13 5 1 1 187. 198. 107. <
920 3 12 -5 -1 1 134. 253. 154. <
920 1 -12 5 1 -1 134. 253. 154. <
921 4 12 5 1 0 1306. 904. 156. o
921 3 12 -5 -1 0 1306. 904. 156. o
921 2 -12 -5 -1 0 1306. 904. 156. o
921 1 -12 5 1 0 1306. 904. 156. o
922 3 12 -5 -1 -1 135. 75. 158. <
922 1 -12 5 1 1 135. 75. 158. <
923 3 11 -5 -1 1 1220. 1639. 168. o
923 1 -11 5 1 -1 1220. 1639. 168. o
924 4 11 5 1 0 2429. 2576. 169. o
924 3 11 -5 -1 0 2429. 2576. 169. o
924 2 -11 -5 -1 0 2429. 2576. 169. o
924 1 -11 5 1 0 2429. 2576. 169. o
925 3 11 -5 -1 -1 714. 1008. 107. o
925 1 -11 5 1 1 714. 1008. 107. o
926 3 10 -5 -1 1 40. 36. 59. <
926 1 -10 5 1 -1 40. 36. 59. <
927 4 10 5 1 0 11677. 14067. 205. o
927 3 10 -5 -1 0 11677. 14067. 205. o
927 2 -10 -5 -1 0 11677. 14067. 205. o
927 1 -10 5 1 0 11677. 14067. 205. o
928 3 10 -5 -1 -1 123. 58. 61. <
928 1 -10 5 1 1 123. 58. 61. <
929 3 9 -5 -1 1 349. 500. 73. o
929 1 -9 5 1 -1 349. 500. 73. o
930 4 9 5 1 0 1425. 1659. 80. o
930 3 9 -5 -1 0 1425. 1659. 80. o
930 2 -9 -5 -1 0 1425. 1659. 80. o
930 1 -9 5 1 0 1425. 1659. 80. o
931 3 9 -5 -1 -1 756. 880. 79. o
931 1 -9 5 1 1 756. 880. 79. o
932 3 8 -5 -1 1 112. 50. 82. <
932 1 -8 5 1 -1 112. 50. 82. <
933 4 8 5 1 0 10866. 11722. 113. o
933 3 8 -5 -1 0 10866. 11722. 113. o
933 2 -8 -5 -1 0 10866. 11722. 113. o
933 1 -8 5 1 0 10866. 11722. 113. o
934 3 8 -5 -1 -1 391. 360. 87. o
934 1 -8 5 1 1 391. 360. 87. o
935 3 7 -5 -1 1 215. 233. 67. o
935 1 -7 5 1 -1 215. 233. 67. o
936 4 7 5 1 0 1296. 1168. 73. o
936 3 7 -5 -1 0 1296. 1168. 73. o
936 2 -7 -5 -1 0 1296. 1168. 73. o
936 1 -7 5 1 0 1296. 1168. 73. o
937 3 7 -5 -1 -1 1. -13. 69. <
937 1 -7 5 1 1 1. -13. 69. <
938 3 6 -5 -1 1 410. 386. 65. o
938 1 -6 5 1 -1 410. 386. 65. o
939 4 6 5 1 0 1043. 1412. 68. o
939 3 6 -5 -1 0 1043. 1412. 68. o
939 2 -6 -5 -1 0 1043. 1412. 68. o
939 1 -6 5 1 0 1043. 1412. 68. o
940 3 6 -5 -1 -1 71. 73. 66. <
940 1 -6 5 1 1 71. 73. 66. <
941 3 5 -5 -1 1 2715. 2603. 87. o
941 1 -5 5 1 -1 2715. 2603. 87. o
942 4 5 5 1 0 6391. 6681. 93. o
942 3 5 -5 -1 0 6391. 6681. 93. o
942 2 -5 -5 -1 0 6391. 6681. 93. o
942 1 -5 5 1 0 6391. 6681. 93. o
943 3 5 -5 -1 -1 2584. 2468. 92. o
943 1 -5 5 1 1 2584. 2468. 92. o
944 3 4 -5 -1 1 58. 41. 60. <
944 1 -4 5 1 -1 58. 41. 60. <
945 4 4 5 1 0 1677. 1844. 63. o
945 3 4 -5 -1 0 1677. 1844. 63. o
945 2 -4 -5 -1 0 1677. 1844. 63. o
945 1 -4 5 1 0 1677. 1844. 63. o
946 3 4 -5 -1 -1 238. 237. 58. o
946 1 -4 5 1 1 238. 237. 58. o
947 3 3 -5 -1 1 104. 107. 58. <
947 1 -3 5 1 -1 104. 107. 58. <
948 4 3 5 1 0 4238. 4032. 65. o
948 3 3 -5 -1 0 4238. 4032. 65. o
948 2 -3 -5 -1 0 4238. 4032. 65. o
948 1 -3 5 1 0 4238. 4032. 65. o
949 3 3 -5 -1 -1 169. 194. 59. o
949 1 -3 5 1 1 169. 194. 59. o
950 3 2 -5 -1 1 400. 284. 52. o
950 1 -2 5 1 -1 400. 284. 52. o
951 4 2 5 1 0 1230. 1166. 56. o
951 3 2 -5 -1 0 1230. 1166. 56. o
951 2 -2 -5 -1 0 1230. 1166. 56. o
951 1 -2 5 1 0 1230. 1166. 56. o
952 3 2 -5 -1 -1 191. 107. 53. <
952 1 -2 5 1 1 191. 107. 53. <
953 3 1 -5 -1 1 817. 599. 59. o
953 1 -1 5 1 -1 817. 599. 59. o
954 4 1 5 1 0 1866. 1686. 61. o
954 3 1 -5 -1 0 1866. 1686. 61. o
954 2 -1 -5 -1 0 1866. 1686. 61. o
954 1 -1 5 1 0 1866. 1686. 61. o
955 3 1 -5 -1 -1 412. 339. 59. o
955 1 -1 5 1 1 412. 339. 59. o
956 3 0 -5 -1 1 572. 296. 441. <
956 1 0 5 1 -1 572. 296. 441. <
957 4 0 5 1 0 260718. 203592. 782. o
957 3 0 -5 -1 0 260718. 203592. 782. o
957 2 0 -5 -1 0 260718. 203592. 782. o
957 1 0 5 1 0 260718. 203592. 782. o
958 3 0 -5 -1 -1 404. 298. 459. <
958 1 0 5 1 1 404. 298. 459. <
959 3 -1 -5 -1 1 360. 487. 59. o
959 1 1 5 1 -1 360. 487. 59. o
960 4 -1 5 1 0 1887. 1517. 81. o
960 3 -1 -5 -1 0 1887. 1517. 81. o
960 2 1 -5 -1 0 1887. 1517. 81. o
960 1 1 5 1 0 1887. 1517. 81. o
961 3 -1 -5 -1 -1 415. 386. 57. o
961 1 1 5 1 1 415. 386. 57. o
962 3 13 5 -1 -1 61. 5. 76. <
962 1 -13 -5 1 1 61. 5. 76. <
963 3 12 -6 -1 1 149. 359. 223. <
963 1 -12 6 1 -1 149. 359. 223. <
964 4 12 6 1 0 4153. 4707. 225. o
964 3 12 -6 -1 0 4153. 4707. 225. o
964 2 -12 -6 -1 0 4153. 4707. 225. o
964 1 -12 6 1 0 4153. 4707. 225. o
965 3 12 -6 -1 -1 179. 135. 228. <
965 1 -12 6 1 1 179. 135. 228. <
966 3 11 -6 -1 1 159. 391. 255. <
966 1 -11 6 1 -1 159. 391. 255. <
967 4 11 6 1 0 9738. 11946. 256. o
967 3 11 -6 -1 0 9738. 11946. 256. o
967 2 -11 -6 -1 0 9738. 11946. 256. o
967 1 -11 6 1 0 9738. 11946. 256. o
968 3 11 -6 -1 -1 82. 368. 255. <
968 1 -11 6 1 1 82. 368. 255. <
969 3 10 -6 -1 1 243. 119. 131. <
969 1 -10 6 1 -1 243. 119. 131. <
970 4 10 6 1 0 527. 661. 133. o
970 3 10 -6 -1 0 527. 661. 133. o
970 2 -10 -6 -1 0 527. 661. 133. o
970 1 -10 6 1 0 527. 661. 133. o
971 3 10 -6 -1 -1 37. 24. 135. <
971 1 -10 6 1 1 37. 24. 135. <
972 3 9 -6 -1 1 36. 275. 137. o
972 1 -9 6 1 -1 36. 275. 137. o
973 4 9 6 1 0 17215. 19777. 161. o
973 3 9 -6 -1 0 17215. 19777. 161. o
973 2 -9 -6 -1 0 17215. 19777. 161. o
973 1 -9 6 1 0 17215. 19777. 161. o
974 3 9 -6 -1 -1 136. 311. 141. o
974 1 -9 6 1 1 136. 311. 141. o
975 3 8 -6 -1 1 1984. 2303. 98. o
975 1 -8 6 1 -1 1984. 2303. 98. o
976 4 8 6 1 0 2406. 2965. 101. o
976 3 8 -6 -1 0 2406. 2965. 101. o
976 2 -8 -6 -1 0 2406. 2965. 101. o
976 1 -8 6 1 0 2406. 2965. 101. o
977 3 8 -6 -1 -1 1484. 1774. 101. o
977 1 -8 6 1 1 1484. 1774. 101. o
978 3 7 -6 -1 1 315. 285. 78. o
978 1 -7 6 1 -1 315. 285. 78. o
979 4 7 6 1 0 742. 685. 82. o
979 3 7 -6 -1 0 742. 685. 82. o
979 2 -7 -6 -1 0 742. 685. 82. o
979 1 -7 6 1 0 742. 685. 82. o
980 3 7 -6 -1 -1 93. 52. 81. <
980 1 -7 6 1 1 93. 52. 81. <
981 3 6 -6 -1 1 299. 96. 110. <
981 1 -6 6 1 -1 299. 96. 110. <
982 4 6 6 1 0 17083. 18720. 131. o
982 3 6 -6 -1 0 17083. 18720. 131. o
982 2 -6 -6 -1 0 17083. 18720. 131. o
982 1 -6 6 1 0 17083. 18720. 131. o
983 3 6 -6 -1 -1 158. 84. 108. <
983 1 -6 6 1 1 158. 84. 108. <
984 3 5 -6 -1 1 129. 66. 70. <
984 1 -5 6 1 -1 129. 66. 70. <
985 4 5 6 1 0 631. 790. 71. o
985 3 5 -6 -1 0 631. 790. 71. o
985 2 -5 -6 -1 0 631. 790. 71. o
985 1 -5 6 1 0 631. 790. 71. o
986 3 5 -6 -1 -1 472. 401. 69. o
986 1 -5 6 1 1 472. 401. 69. o
987 3 4 -6 -1 1 647. 708. 76. o
987 1 -4 6 1 -1 647. 708. 76. o
988 4 4 6 1 0 4189. 4501. 82. o
988 3 4 -6 -1 0 4189. 4501. 82. o
988 2 -4 -6 -1 0 4189. 4501. 82. o
988 1 -4 6 1 0 4189. 4501. 82. o
989 3 4 -6 -1 -1 1730. 1712. 79. o
989 1 -4 6 1 1 1730. 1712. 79. o
990 3 3 -6 -1 1 115. 84. 58. <
990 1 -3 6 1 -1 115. 84. 58. <
991 4 3 6 1 0 443. 454. 60. o
991 3 3 -6 -1 0 443. 454. 60. o
991 2 -3 -6 -1 0 443. 454. 60. o
991 1 -3 6 1 0 443. 454. 60. o
992 3 3 -6 -1 -1 103. 80. 59. <
992 1 -3 6 1 1 103. 80. 59. <
993 3 2 -6 -1 1 13. 142. 59. o
993 1 -2 6 1 -1 13. 142. 59. o
994 4 2 6 1 0 1655. 1668. 67. o
994 3 2 -6 -1 0 1655. 1668. 67. o
994 2 -2 -6 -1 0 1655. 1668. 67. o
994 1 -2 6 1 0 1655. 1668. 67. o
995 3 2 -6 -1 -1 113. 224. 62. o
995 1 -2 6 1 1 113. 224. 62. o
996 3 1 -6 -1 1 102. 67. 91. <
996 1 -1 6 1 -1 102. 67. 91. <
997 4 1 6 1 0 19276. 18366. 111. o
997 3 1 -6 -1 0 19276. 18366. 111. o
997 2 -1 -6 -1 0 19276. 18366. 111. o
997 1 -1 6 1 0 19276. 18366. 111. o
998 3 1 -6 -1 -1 127. 46. 84. <
998 1 -1 6 1 1 127. 46. 84. <
999 3 0 -6 -1 1 7. 12. 29. <
999 1 0 6 1 -1 7. 12. 29. <
1000 4 0 6 1 0 33. 183. 33. o
1000 3 0 -6 -1 0 33. 183. 33. o
1000 2 0 -6 -1 0 33. 183. 33. o
1000 1 0 6 1 0 33. 183. 33. o
1001 3 0 -6 -1 -1 67. 47. 30. <
1001 1 0 6 1 1 67. 47. 30. <
1002 3 -1 -6 -1 1 414. 346. 118. o
1002 1 1 6 1 -1 414. 346. 118. o
1003 4 -1 6 1 0 19562. 19095. 142. o
1003 3 -1 -6 -1 0 19562. 19095. 142. o
1003 2 1 -6 -1 0 19562. 19095. 142. o
1003 1 1 6 1 0 19562. 19095. 142. o
1004 3 -1 -6 -1 -1 785. 687. 111. o
1004 1 1 6 1 1 785. 687. 111. o
1005 3 -2 -6 -1 1 643. 508. 128. o
1005 1 2 6 1 -1 643. 508. 128. o
1006 4 -2 6 1 0 1682. 2216. 126. o
1006 3 -2 -6 -1 0 1682. 2216. 126. o
1006 2 2 -6 -1 0 1682. 2216. 126. o
1006 1 2 6 1 0 1682. 2216. 126. o
1007 3 -2 -6 -1 -1 382. 283. 125. o
1007 1 2 6 1 1 382. 283. 125. o
1008 3 -3 -6 -1 1 18. 18. 92. <
1008 1 3 6 1 -1 18. 18. 92. <
1009 4 -3 6 1 0 431. 449. 92. o
1009 3 -3 -6 -1 0 431. 449. 92. o
1009 2 3 -6 -1 0 431. 449. 92. o
1009 1 3 6 1 0 431. 449. 92. o
1010 3 -3 -6 -1 -1 58. 7. 92. <
1010 1 3 6 1 1 58. 7. 92. <
1011 3 11 -7 -1 1 180. 390. 199. <
1011 1 -11 7 1 -1 180. 390. 199. <
1012 4 11 7 1 0 465. 961. 198. o
1012 3 11 -7 -1 0 465. 961. 198. o
1012 2 -11 -7 -1 0 465. 961. 198. o
1012 1 -11 7 1 0 465. 961. 198. o
1013 3 11 -7 -1 -1 647. 557. 198. o
1013 1 -11 7 1 1 647. 557. 198. o
1014 3 10 -7 -1 1 3. 297. 206. <
1014 1 -10 7 1 -1 3. 297. 206. <
1015 4 10 7 1 0 12256. 11662. 209. o
1015 3 10 -7 -1 0 12256. 11662. 209. o
1015 2 -10 -7 -1 0 12256. 11662. 209. o
1015 1 -10 7 1 0 12256. 11662. 209. o
1016 3 10 -7 -1 -1 160. 144. 213. <
1016 1 -10 7 1 1 160. 144. 213. <
1017 3 9 -7 -1 1 180. 165. 182. <
1017 1 -9 7 1 -1 180. 165. 182. <
1018 4 9 7 1 0 16868. 20146. 202. o
1018 3 9 -7 -1 0 16868. 20146. 202. o
1018 2 -9 -7 -1 0 16868. 20146. 202. o
1018 1 -9 7 1 0 16868. 20146. 202. o
1019 3 9 -7 -1 -1 32. 25. 129. <
1019 1 -9 7 1 1 32. 25. 129. <
1020 3 8 -7 -1 1 178. 233. 125. <
1020 1 -8 7 1 -1 178. 233. 125. <
1021 4 8 7 1 0 15875. 18937. 168. o
1021 3 8 -7 -1 0 15875. 18937. 168. o
1021 2 -8 -7 -1 0 15875. 18937. 168. o
1021 1 -8 7 1 0 15875. 18937. 168. o
1022 3 8 -7 -1 -1 74. -4. 123. <
1022 1 -8 7 1 1 74. -4. 123. <
1023 3 7 -7 -1 1 2156. 2280. 104. o
1023 1 -7 7 1 -1 2156. 2280. 104. o
1024 4 7 7 1 0 2512. 3059. 104. o
1024 3 7 -7 -1 0 2512. 3059. 104. o
1024 2 -7 -7 -1 0 2512. 3059. 104. o
1024 1 -7 7 1 0 2512. 3059. 104. o
1025 3 7 -7 -1 -1 1995. 2173. 102. o
1025 1 -7 7 1 1 1995. 2173. 102. o
1026 3 6 -7 -1 1 23. 64. 79. <
1026 1 -6 7 1 -1 23. 64. 79. <
1027 4 6 7 1 0 514. 975. 83. o
1027 3 6 -7 -1 0 514. 975. 83. o
1027 2 -6 -7 -1 0 514. 975. 83. o
1027 1 -6 7 1 0 514. 975. 83. o
1028 3 6 -7 -1 -1 176. 232. 80. o
1028 1 -6 7 1 1 176. 232. 80. o
1029 3 5 -7 -1 1 21. 69. 72. <
1029 1 -5 7 1 -1 21. 69. 72. <
1030 4 5 7 1 0 714. 647. 75. o
1030 3 5 -7 -1 0 714. 647. 75. o
1030 2 -5 -7 -1 0 714. 647. 75. o
1030 1 -5 7 1 0 714. 647. 75. o
1031 3 5 -7 -1 -1 284. 216. 73. o
1031 1 -5 7 1 1 284. 216. 73. o
1032 3 4 -7 -1 1 144. 151. 62. o
1032 1 -4 7 1 -1 144. 151. 62. o
1033 4 4 7 1 0 1917. 2267. 73. o
1033 3 4 -7 -1 0 1917. 2267. 73. o
1033 2 -4 -7 -1 0 1917. 2267. 73. o
1033 1 -4 7 1 0 1917. 2267. 73. o
1034 3 4 -7 -1 -1 19. -8. 60. <
1034 1 -4 7 1 1 19. -8. 60. <
1035 3 3 -7 -1 1 2004. 2252. 81. o
1035 1 -3 7 1 -1 2004. 2252. 81. o
1036 4 3 7 1 0 7992. 8068. 98. o
1036 3 3 -7 -1 0 7992. 8068. 98. o
1036 2 -3 -7 -1 0 7992. 8068. 98. o
1036 1 -3 7 1 0 7992. 8068. 98. o
1037 3 3 -7 -1 -1 895. 1050. 77. o
1037 1 -3 7 1 1 895. 1050. 77. o
1038 3 2 -7 -1 1 604. 438. 71. o
1038 1 -2 7 1 -1 604. 438. 71. o
1039 4 2 7 1 0 5448. 5475. 80. o
1039 3 2 -7 -1 0 5448. 5475. 80. o
1039 2 -2 -7 -1 0 5448. 5475. 80. o
1039 1 -2 7 1 0 5448. 5475. 80. o
1040 3 2 -7 -1 -1 211. 157. 65. o
1040 1 -2 7 1 1 211. 157. 65. o
1041 3 1 -7 -1 1 859. 752. 73. o
1041 1 -1 7 1 -1 859. 752. 73. o
1042 4 1 7 1 0 16432. 13554. 104. o
1042 3 1 -7 -1 0 16432. 13554. 104. o
1042 2 -1 -7 -1 0 16432. 13554. 104. o
1042 1 -1 7 1 0 16432. 13554. 104. o
1043 3 1 -7 -1 -1 707. 675. 72. o
1043 1 -1 7 1 1 707. 675. 72. o
1044 3 0 -7 -1 1 174. 181. 33. o
1044 1 0 7 1 -1 174. 181. 33. o
1045 4 0 7 1 0 1100. 1081. 51. o
1045 3 0 -7 -1 0 1100. 1081. 51. o
1045 2 0 -7 -1 0 1100. 1081. 51. o
1045 1 0 7 1 0 1100. 1081. 51. o
1046 3 0 -7 -1 -1 48. 59. 31. <
1046 1 0 7 1 1 48. 59. 31. <
1047 3 -1 -7 -1 1 366. 383. 52. o
1047 1 1 7 1 -1 366. 383. 52. o
1048 4 -1 7 1 0 16346. 13129. 85. o
1048 3 -1 -7 -1 0 16346. 13129. 85. o
1048 2 1 -7 -1 0 16346. 13129. 85. o
1048 1 1 7 1 0 16346. 13129. 85. o
1049 3 -1 -7 -1 -1 74. 82. 59. <
1049 1 1 7 1 1 74. 82. 59. <
1050 3 -2 -7 -1 1 609. 437. 82. o
1050 1 2 7 1 -1 609. 437. 82. o
1051 4 -2 7 1 0 5423. 5027. 99. o
1051 3 -2 -7 -1 0 5423. 5027. 99. o
1051 2 2 -7 -1 0 5423. 5027. 99. o
1051 1 2 7 1 0 5423. 5027. 99. o
1052 3 -2 -7 -1 -1 257. 163. 79. o
1052 1 2 7 1 1 257. 163. 79. o
1053 3 11 -8 -1 1 217. 42. 210. <
1053 1 -11 8 1 -1 217. 42. 210. <
1054 4 11 8 1 0 378. 840. 211. o
1054 3 11 -8 -1 0 378. 840. 211. o
1054 2 -11 -8 -1 0 378. 840. 211. o
1054 1 -11 8 1 0 378. 840. 211. o
1055 3 11 -8 -1 -1 104. 21. 212. <
1055 1 -11 8 1 1 104. 21. 212. <
1056 3 10 -8 -1 1 879. 1160. 206. o
1056 1 -10 8 1 -1 879. 1160. 206. o
1057 4 10 8 1 0 4125. 4008. 210. o
1057 3 10 -8 -1 0 4125. 4008. 210. o
1057 2 -10 -8 -1 0 4125. 4008. 210. o
1057 1 -10 8 1 0 4125. 4008. 210. o
1058 3 10 -8 -1 -1 439. 600. 203. o
1058 1 -10 8 1 1 439. 600. 203. o
1059 3 9 -8 -1 1 380. 178. 164. <
1059 1 -9 8 1 -1 380. 178. 164. <
1060 4 9 8 1 0 927. 1205. 160. o
1060 3 9 -8 -1 0 927. 1205. 160. o
1060 2 -9 -8 -1 0 927. 1205. 160. o
1060 1 -9 8 1 0 927. 1205. 160. o
1061 3 9 -8 -1 -1 17. 12. 156. <
1061 1 -9 8 1 1 17. 12. 156. <
1062 3 8 -8 -1 1 243. 95. 111. <
1062 1 -8 8 1 -1 243. 95. 111. <
1063 4 8 8 1 0 817. 843. 109. o
1063 3 8 -8 -1 0 817. 843. 109. o
1063 2 -8 -8 -1 0 817. 843. 109. o
1063 1 -8 8 1 0 817. 843. 109. o
1064 3 8 -8 -1 -1 150. 2. 98. <
1064 1 -8 8 1 1 150. 2. 98. <
1065 3 7 -8 -1 1 1. 21. 121. <
1065 1 -7 8 1 -1 1. 21. 121. <
1066 4 7 8 1 0 15644. 17874. 149. o
1066 3 7 -8 -1 0 15644. 17874. 149. o
1066 2 -7 -8 -1 0 15644. 17874. 149. o
1066 1 -7 8 1 0 15644. 17874. 149. o
1067 3 7 -8 -1 -1 240. 152. 121. <
1067 1 -7 8 1 1 240. 152. 121. <
1068 3 6 -8 -1 1 1334. 1763. 104. o
1068 1 -6 8 1 -1 1334. 1763. 104. o
1069 4 6 8 1 0 2232. 2556. 101. o
1069 3 6 -8 -1 0 2232. 2556. 101. o
1069 2 -6 -8 -1 0 2232. 2556. 101. o
1069 1 -6 8 1 0 2232. 2556. 101. o
1070 3 6 -8 -1 -1 1643. 2069. 97. o
1070 1 -6 8 1 1 1643. 2069. 97. o
1071 3 5 -8 -1 1 272. 313. 98. o
1071 1 -5 8 1 -1 272. 313. 98. o
1072 4 5 8 1 0 10713. 11399. 115. o
1072 3 5 -8 -1 0 10713. 11399. 115. o
1072 2 -5 -8 -1 0 10713. 11399. 115. o
1072 1 -5 8 1 0 10713. 11399. 115. o
1073 3 5 -8 -1 -1 36. 62. 92. <
1073 1 -5 8 1 1 36. 62. 92. <
1074 3 4 -8 -1 1 14. 7. 89. <
1074 1 -4 8 1 -1 14. 7. 89. <
1075 4 4 8 1 0 8322. 10022. 120. o
1075 3 4 -8 -1 0 8322. 10022. 120. o
1075 2 -4 -8 -1 0 8322. 10022. 120. o
1075 1 -4 8 1 0 8322. 10022. 120. o
1076 3 4 -8 -1 -1 24. 12. 84. <
1076 1 -4 8 1 1 24. 12. 84. <
1077 3 3 -8 -1 1 51. 61. 95. <
1077 1 -3 8 1 -1 51. 61. 95. <
1078 4 3 8 1 0 27960. 32839. 221. o
1078 3 3 -8 -1 0 27960. 32839. 221. o
1078 2 -3 -8 -1 0 27960. 32839. 221. o
1078 1 -3 8 1 0 27960. 32839. 221. o
1079 3 3 -8 -1 -1 241. 163. 93. <
1079 1 -3 8 1 1 241. 163. 93. <
1080 3 2 -8 -1 1 36. 13. 40. <
1080 1 -2 8 1 -1 36. 13. 40. <
1081 4 2 8 1 0 17615. 17177. 151. o
1081 3 2 -8 -1 0 17615. 17177. 151. o
1081 2 -2 -8 -1 0 17615. 17177. 151. o
1081 1 -2 8 1 0 17615. 17177. 151. o
1082 3 2 -8 -1 -1 58. 39. 37. <
1082 1 -2 8 1 1 58. 39. 37. <
1083 3 1 -8 -1 1 146. 115. 49. o
1083 1 -1 8 1 -1 146. 115. 49. o
1084 4 1 8 1 0 515. 586. 51. o
1084 3 1 -8 -1 0 515. 586. 51. o
1084 2 -1 -8 -1 0 515. 586. 51. o
1084 1 -1 8 1 0 515. 586. 51. o
1085 3 1 -8 -1 -1 697. 648. 52. o
1085 1 -1 8 1 1 697. 648. 52. o
1086 3 0 -8 -1 1 1273. 1220. 57. o
1086 1 0 8 1 -1 1273. 1220. 57. o
1087 4 0 8 1 0 2161. 1991. 56. o
1087 3 0 -8 -1 0 2161. 1991. 56. o
1087 2 0 -8 -1 0 2161. 1991. 56. o
1087 1 0 8 1 0 2161. 1991. 56. o
1088 3 0 -8 -1 -1 1050. 973. 55. o
1088 1 0 8 1 1 1050. 973. 55. o
1089 3 -1 -8 -1 1 8. 3. 40. <
1089 1 1 8 1 -1 8. 3. 40. <
1090 4 -1 8 1 0 464. 311. 52. o
1090 3 -1 -8 -1 0 464. 311. 52. o
1090 2 1 -8 -1 0 464. 311. 52. o
1090 1 1 8 1 0 464. 311. 52. o
1091 3 -1 -8 -1 -1 88. 21. 51. <
1091 1 1 8 1 1 88. 21. 51. <
1092 3 -2 -8 -1 1 71. 124. 58. o
1092 1 2 8 1 -1 71. 124. 58. o
1093 4 -2 8 1 0 17842. 16485. 206. o
1093 3 -2 -8 -1 0 17842. 16485. 206. o
1093 2 2 -8 -1 0 17842. 16485. 206. o
1093 1 2 8 1 0 17842. 16485. 206. o
1094 3 -2 -8 -1 -1 117. 141. 58. o
1094 1 2 8 1 1 117. 141. 58. o
1095 3 10 -9 -1 1 54. 89. 172. <
1095 1 -10 9 1 -1 54. 89. 172. <
1096 4 10 9 1 0 338. 249. 169. <
1096 3 10 -9 -1 0 338. 249. 169. <
1096 2 -10 -9 -1 0 338. 249. 169. <
1096 1 -10 9 1 0 338. 249. 169. <
1097 3 10 -9 -1 -1 44. 2. 166. <
1097 1 -10 9 1 1 44. 2. 166. <
1098 3 9 -9 -1 1 552. 388. 223. <
1098 1 -9 9 1 -1 552. 388. 223. <
1099 4 9 9 1 0 1892. 3382. 225. o
1099 3 9 -9 -1 0 1892. 3382. 225. o
1099 2 -9 -9 -1 0 1892. 3382. 225. o
1099 1 -9 9 1 0 1892. 3382. 225. o
1100 3 9 -9 -1 -1 595. 346. 226. <
1100 1 -9 9 1 1 595. 346. 226. <
1101 3 8 -9 -1 1 24. 2. 150. <
1101 1 -8 9 1 -1 24. 2. 150. <
1102 4 8 9 1 0 656. 933. 108. o
1102 3 8 -9 -1 0 656. 933. 108. o
1102 2 -8 -9 -1 0 656. 933. 108. o
1102 1 -8 9 1 0 656. 933. 108. o
1103 3 8 -9 -1 -1 228. 252. 103. o
1103 1 -8 9 1 1 228. 252. 103. o
1104 3 7 -9 -1 1 19. 1358. 136. o
1104 1 -7 9 1 -1 19. 1358. 136. o
1105 4 7 9 1 0 15124. 17899. 171. o
1105 3 7 -9 -1 0 15124. 17899. 171. o
1105 2 -7 -9 -1 0 15124. 17899. 171. o
1105 1 -7 9 1 0 15124. 17899. 171. o
1106 3 7 -9 -1 -1 206. 1371. 152. o
1106 1 -7 9 1 1 206. 1371. 152. o
1107 3 6 -9 -1 1 276. 271. 164. <
1107 1 -6 9 1 -1 276. 271. 164. <
1108 4 6 9 1 0 14616. 17418. 165. o
1108 3 6 -9 -1 0 14616. 17418. 165. o
1108 2 -6 -9 -1 0 14616. 17418. 165. o
1108 1 -6 9 1 0 14616. 17418. 165. o
1109 3 6 -9 -1 -1 184. 56. 166. <
1109 1 -6 9 1 1 184. 56. 166. <
1110 3 5 -9 -1 1 814. 895. 87. o
1110 1 -5 9 1 -1 814. 895. 87. o
1111 4 5 9 1 0 765. 1070. 86. o
1111 3 5 -9 -1 0 765. 1070. 86. o
1111 2 -5 -9 -1 0 765. 1070. 86. o
1111 1 -5 9 1 0 765. 1070. 86. o
1112 3 5 -9 -1 -1 440. 429. 78. o
1112 1 -5 9 1 1 440. 429. 78. o
1113 3 4 -9 -1 1 112. 91. 76. <
1113 1 -4 9 1 -1 112. 91. 76. <
1114 4 4 9 1 0 8198. 9733. 120. o
1114 3 4 -9 -1 0 8198. 9733. 120. o
1114 2 -4 -9 -1 0 8198. 9733. 120. o
1114 1 -4 9 1 0 8198. 9733. 120. o
1115 3 4 -9 -1 -1 223. 241. 75. o
1115 1 -4 9 1 1 223. 241. 75. o
1116 3 3 -9 -1 1 611. 695. 68. o
1116 1 -3 9 1 -1 611. 695. 68. o
1117 4 3 9 1 0 930. 1219. 84. o
1117 3 3 -9 -1 0 930. 1219. 84. o
1117 2 -3 -9 -1 0 930. 1219. 84. o
1117 1 -3 9 1 0 930. 1219. 84. o
1118 3 3 -9 -1 -1 1298. 1535. 82. o
1118 1 -3 9 1 1 1298. 1535. 82. o
1119 3 2 -9 -1 1 47. 27. 57. <
1119 1 -2 9 1 -1 47. 27. 57. <
1120 4 2 9 1 0 1718. 1607. 66. o
1120 3 2 -9 -1 0 1718. 1607. 66. o
1120 2 -2 -9 -1 0 1718. 1607. 66. o
1120 1 -2 9 1 0 1718. 1607. 66. o
1121 3 2 -9 -1 -1 189. 144. 56. o
1121 1 -2 9 1 1 189. 144. 56. o
1122 3 1 -9 -1 1 5. 2. 46. <
1122 1 -1 9 1 -1 5. 2. 46. <
1123 4 1 9 1 0 1074. 948. 49. o
1123 3 1 -9 -1 0 1074. 948. 49. o
1123 2 -1 -9 -1 0 1074. 948. 49. o
1123 1 -1 9 1 0 1074. 948. 49. o
1124 3 1 -9 -1 -1 14. -5. 45. <
1124 1 -1 9 1 1 14. -5. 45. <
1125 3 0 -9 -1 1 1326. 1329. 71. o
1125 1 0 9 1 -1 1326. 1329. 71. o
1126 4 0 9 1 0 10608. 9776. 85. o
1126 3 0 -9 -1 0 10608. 9776. 85. o
1126 2 0 -9 -1 0 10608. 9776. 85. o
1126 1 0 9 1 0 10608. 9776. 85. o
1127 3 0 -9 -1 -1 93. 115. 76. <
1127 1 0 9 1 1 93. 115. 76. <
1128 3 -1 -9 -1 1 1100. 1022. 70. o
1128 1 1 9 1 -1 1100. 1022. 70. o
1129 4 -1 9 1 0 1200. 1072. 69. o
1129 3 -1 -9 -1 0 1200. 1072. 69. o
1129 2 1 -9 -1 0 1200. 1072. 69. o
1129 1 1 9 1 0 1200. 1072. 69. o
1130 3 -1 -9 -1 -1 636. 642. 69. o
1130 1 1 9 1 1 636. 642. 69. o
1131 3 -2 -9 -1 1 255. 145. 73. <
1131 1 2 9 1 -1 255. 145. 73. <
1132 4 -2 9 1 0 1699. 1761. 84. o
1132 3 -2 -9 -1 0 1699. 1761. 84. o
1132 2 2 -9 -1 0 1699. 1761. 84. o
1132 1 2 9 1 0 1699. 1761. 84. o
1133 3 -2 -9 -1 -1 162. 127. 42. o
1133 1 2 9 1 1 162. 127. 42. o
1134 3 -3 -9 -1 1 5. 39. 58. <
1134 1 3 9 1 -1 5. 39. 58. <
1135 4 -3 9 1 0 843. 945. 97. o
1135 3 -3 -9 -1 0 843. 945. 97. o
1135 2 3 -9 -1 0 843. 945. 97. o
1135 1 3 9 1 0 843. 945. 97. o
1136 3 -3 -9 -1 -1 5. 21. 62. <
1136 1 3 9 1 1 5. 21. 62. <
1137 3 9 -10 -1 1 53. 1. 160. <
1137 1 -9 10 1 -1 53. 1. 160. <
1138 4 9 10 1 0 248. 217. 159. <
1138 3 9 -10 -1 0 248. 217. 159. <
1138 2 -9 -10 -1 0 248. 217. 159. <
1138 1 -9 10 1 0 248. 217. 159. <
1139 3 9 -10 -1 -1 294. 42. 158. <
1139 1 -9 10 1 1 294. 42. 158. <
1140 3 8 -10 -1 1 417. 630. 172. o
1140 1 -8 10 1 -1 417. 630. 172. o
1141 4 8 10 1 0 3142. 3164. 172. o
1141 3 8 -10 -1 0 3142. 3164. 172. o
1141 2 -8 -10 -1 0 3142. 3164. 172. o
1141 1 -8 10 1 0 3142. 3164. 172. o
1142 3 8 -10 -1 -1 701. 713. 171. o
1142 1 -8 10 1 1 701. 713. 171. o
1143 3 7 -10 -1 1 41. 181. 165. <
1143 1 -7 10 1 -1 41. 181. 165. <
1144 4 7 10 1 0 10077. 11720. 165. o
1144 3 7 -10 -1 0 10077. 11720. 165. o
1144 2 -7 -10 -1 0 10077. 11720. 165. o
1144 1 -7 10 1 0 10077. 11720. 165. o
1145 3 7 -10 -1 -1 80. 40. 166. <
1145 1 -7 10 1 1 80. 40. 166. <
1146 3 6 -10 -1 1 86. 48. 118. <
1146 1 -6 10 1 -1 86. 48. 118. <
1147 4 6 10 1 0 540. 598. 118. o
1147 3 6 -10 -1 0 540. 598. 118. o
1147 2 -6 -10 -1 0 540. 598. 118. o
1147 1 -6 10 1 0 540. 598. 118. o
1148 3 6 -10 -1 -1 103. 91. 104. <
1148 1 -6 10 1 1 103. 91. 104. <
1149 3 5 -10 -1 1 184. 89. 150. <
1149 1 -5 10 1 -1 184. 89. 150. <
1150 4 5 10 1 0 9061. 10592. 152. o
1150 3 5 -10 -1 0 9061. 10592. 152. o
1150 2 -5 -10 -1 0 9061. 10592. 152. o
1150 1 -5 10 1 0 9061. 10592. 152. o
1151 3 5 -10 -1 -1 125. 33. 149. <
1151 1 -5 10 1 1 125. 33. 149. <
1152 3 4 -10 -1 1 48. -3. 95. <
1152 1 -4 10 1 -1 48. -3. 95. <
1153 4 4 10 1 0 1539. 1773. 96. o
1153 3 4 -10 -1 0 1539. 1773. 96. o
1153 2 -4 -10 -1 0 1539. 1773. 96. o
1153 1 -4 10 1 0 1539. 1773. 96. o
1154 3 4 -10 -1 -1 35. 20. 87. <
1154 1 -4 10 1 1 35. 20. 87. <
1155 3 3 -10 -1 1 237. 292. 62. o
1155 1 -3 10 1 -1 237. 292. 62. o
1156 4 3 10 1 0 1091. 911. 71. o
1156 3 3 -10 -1 0 1091. 911. 71. o
1156 2 -3 -10 -1 0 1091. 911. 71. o
1156 1 -3 10 1 0 1091. 911. 71. o
1157 3 3 -10 -1 -1 199. 217. 61. o
1157 1 -3 10 1 1 199. 217. 61. o
1158 3 2 -10 -1 1 1679. 1849. 69. o
1158 1 -2 10 1 -1 1679. 1849. 69. o
1159 4 2 10 1 0 1635. 1805. 66. o
1159 3 2 -10 -1 0 1635. 1805. 66. o
1159 2 -2 -10 -1 0 1635. 1805. 66. o
1159 1 -2 10 1 0 1635. 1805. 66. o
1160 3 2 -10 -1 -1 649. 707. 65. o
1160 1 -2 10 1 1 649. 707. 65. o
1161 3 1 -10 -1 1 261. 274. 61. o
1161 1 -1 10 1 -1 261. 274. 61. o
1162 4 1 10 1 0 5724. 5577. 73. o
1162 3 1 -10 -1 0 5724. 5577. 73. o
1162 2 -1 -10 -1 0 5724. 5577. 73. o
1162 1 -1 10 1 0 5724. 5577. 73. o
1163 3 1 -10 -1 -1 204. 162. 60. o
1163 1 -1 10 1 1 204. 162. 60. o
1164 3 0 -10 -1 1 202. 196. 76. o
1164 1 0 10 1 -1 202. 196. 76. o
1165 4 0 10 1 0 549. 501. 75. o
1165 3 0 -10 -1 0 549. 501. 75. o
1165 2 0 -10 -1 0 549. 501. 75. o
1165 1 0 10 1 0 549. 501. 75. o
1166 3 0 -10 -1 -1 163. 124. 74. <
1166 1 0 10 1 1 163. 124. 74. <
1167 3 -1 -10 -1 1 11. 39. 122. <
1167 1 1 10 1 -1 11. 39. 122. <
1168 4 -1 10 1 0 5661. 5122. 122. o
1168 3 -1 -10 -1 0 5661. 5122. 122. o
1168 2 1 -10 -1 0 5661. 5122. 122. o
1168 1 1 10 1 0 5661. 5122. 122. o
1169 3 -1 -10 -1 -1 27. 30. 121. <
1169 1 1 10 1 1 27. 30. 121. <
1170 3 -2 -10 -1 1 510. 529. 88. o
1170 1 2 10 1 -1 510. 529. 88. o
1171 4 -2 10 1 0 1561. 1774. 94. o
1171 3 -2 -10 -1 0 1561. 1774. 94. o
1171 2 2 -10 -1 0 1561. 1774. 94. o
1171 1 2 10 1 0 1561. 1774. 94. o
1172 3 -2 -10 -1 -1 783. 720. 92. o
1172 1 2 10 1 1 783. 720. 92. o
1173 3 -3 -10 -1 1 611. 662. 57. o
1173 1 3 10 1 -1 611. 662. 57. o
1174 4 -3 10 1 0 1044. 757. 85. o
1174 3 -3 -10 -1 0 1044. 757. 85. o
1174 2 3 -10 -1 0 1044. 757. 85. o
1174 1 3 10 1 0 1044. 757. 85. o
1175 3 -3 -10 -1 -1 251. 207. 75. o
1175 1 3 10 1 1 251. 207. 75. o
1176 3 -4 -10 -1 1 91. 13. 66. <
1176 1 4 10 1 -1 91. 13. 66. <
1177 4 -4 10 1 0 1525. 1699. 116. o
1177 3 -4 -10 -1 0 1525. 1699. 116. o
1177 2 4 -10 -1 0 1525. 1699. 116. o
1177 1 4 10 1 0 1525. 1699. 116. o
1178 3 -4 -10 -1 -1 2. 8. 67. <
1178 1 4 10 1 1 2. 8. 67. <
1179 3 8 -11 -1 1 2. 47. 155. <
1179 1 -8 11 1 -1 2. 47. 155. <
1180 4 8 11 1 0 334. 276. 154. <
1180 3 8 -11 -1 0 334. 276. 154. <
1180 2 -8 -11 -1 0 334. 276. 154. <
1180 1 -8 11 1 0 334. 276. 154. <
1181 3 8 -11 -1 -1 38. 57. 154. <
1181 1 -8 11 1 1 38. 57. 154. <
1182 3 7 -11 -1 1 545. 624. 250. o
1182 1 -7 11 1 -1 545. 624. 250. o
1183 4 7 11 1 0 558. 1027. 253. o
1183 3 7 -11 -1 0 558. 1027. 253. o
1183 2 -7 -11 -1 0 558. 1027. 253. o
1183 1 -7 11 1 0 558. 1027. 253. o
1184 3 7 -11 -1 -1 193. 132. 256. <
1184 1 -7 11 1 1 193. 132. 256. <
1185 3 6 -11 -1 1 168. 1115. 166. o
1185 1 -6 11 1 -1 168. 1115. 166. o
1186 4 6 11 1 0 7885. 7530. 166. o
1186 3 6 -11 -1 0 7885. 7530. 166. o
1186 2 -6 -11 -1 0 7885. 7530. 166. o
1186 1 -6 11 1 0 7885. 7530. 166. o
1187 3 6 -11 -1 -1 244. 1081. 134. o
1187 1 -6 11 1 1 244. 1081. 134. o
1188 3 5 -11 -1 1 475. 646. 128. o
1188 1 -5 11 1 -1 475. 646. 128. o
1189 4 5 11 1 0 1107. 965. 123. o
1189 3 5 -11 -1 0 1107. 965. 123. o
1189 2 -5 -11 -1 0 1107. 965. 123. o
1189 1 -5 11 1 0 1107. 965. 123. o
1190 3 5 -11 -1 -1 814. 842. 119. o
1190 1 -5 11 1 1 814. 842. 119. o
1191 3 4 -11 -1 1 178. 179. 152. <
1191 1 -4 11 1 -1 178. 179. 152. <
1192 4 4 11 1 0 21176. 21938. 147. o
1192 3 4 -11 -1 0 21176. 21938. 147. o
1192 2 -4 -11 -1 0 21176. 21938. 147. o
1192 1 -4 11 1 0 21176. 21938. 147. o
1193 3 4 -11 -1 -1 302. 281. 143. <
1193 1 -4 11 1 1 302. 281. 143. <
1194 3 3 -11 -1 1 190. 204. 56. o
1194 1 -3 11 1 -1 190. 204. 56. o
1195 4 3 11 1 0 1183. 1053. 64. o
1195 3 3 -11 -1 0 1183. 1053. 64. o
1195 2 -3 -11 -1 0 1183. 1053. 64. o
1195 1 -3 11 1 0 1183. 1053. 64. o
1196 3 3 -11 -1 -1 34. 24. 54. <
1196 1 -3 11 1 1 34. 24. 54. <
1197 3 2 -11 -1 1 159. 212. 52. o
1197 1 -2 11 1 -1 159. 212. 52. o
1198 4 2 11 1 0 1387. 1220. 56. o
1198 3 2 -11 -1 0 1387. 1220. 56. o
1198 2 -2 -11 -1 0 1387. 1220. 56. o
1198 1 -2 11 1 0 1387. 1220. 56. o
1199 3 2 -11 -1 -1 143. 149. 51. o
1199 1 -2 11 1 1 143. 149. 51. o
1200 3 1 -11 -1 1 440. 522. 91. o
1200 1 -1 11 1 -1 440. 522. 91. o
1201 4 1 11 1 0 1684. 1878. 90. o
1201 3 1 -11 -1 0 1684. 1878. 90. o
1201 2 -1 -11 -1 0 1684. 1878. 90. o
1201 1 -1 11 1 0 1684. 1878. 90. o
1202 3 1 -11 -1 -1 1188. 1219. 89. o
1202 1 -1 11 1 1 1188. 1219. 89. o
1203 3 0 -11 -1 1 7. 15. 124. <
1203 1 0 11 1 -1 7. 15. 124. <
1204 4 0 11 1 0 6886. 5988. 123. o
1204 3 0 -11 -1 0 6886. 5988. 123. o
1204 2 0 -11 -1 0 6886. 5988. 123. o
1204 1 0 11 1 0 6886. 5988. 123. o
1205 3 0 -11 -1 -1 247. 223. 122. <
1205 1 0 11 1 1 247. 223. 122. <
1206 3 -1 -11 -1 1 30. 16. 145. <
1206 1 1 11 1 -1 30. 16. 145. <
1207 4 -1 11 1 0 1592. 1471. 144. o
1207 3 -1 -11 -1 0 1592. 1471. 144. o
1207 2 1 -11 -1 0 1592. 1471. 144. o
1207 1 1 11 1 0 1592. 1471. 144. o
1208 3 -1 -11 -1 -1 147. 89. 143. <
1208 1 1 11 1 1 147. 89. 143. <
1209 3 -2 -11 -1 1 44. 170. 128. <
1209 1 2 11 1 -1 44. 170. 128. <
1210 4 -2 11 1 0 1274. 1258. 128. o
1210 3 -2 -11 -1 0 1274. 1258. 128. o
1210 2 2 -11 -1 0 1274. 1258. 128. o
1210 1 2 11 1 0 1274. 1258. 128. o
1211 3 -2 -11 -1 -1 49. 14. 56. <
1211 1 2 11 1 1 49. 14. 56. <
1212 3 -3 -11 -1 1 301. 357. 97. o
1212 1 3 11 1 -1 301. 357. 97. o
1213 4 -3 11 1 0 1182. 1089. 96. o
1213 3 -3 -11 -1 0 1182. 1089. 96. o
1213 2 3 -11 -1 0 1182. 1089. 96. o
1213 1 3 11 1 0 1182. 1089. 96. o
1214 3 -3 -11 -1 -1 20. 23. 43. <
1214 1 3 11 1 1 20. 23. 43. <
1215 3 -4 -11 -1 1 251. 170. 207. <
1215 1 4 11 1 -1 251. 170. 207. <
1216 4 -4 11 1 0 21463. 21852. 205. o
1216 3 -4 -11 -1 0 21463. 21852. 205. o
1216 2 4 -11 -1 0 21463. 21852. 205. o
1216 1 4 11 1 0 21463. 21852. 205. o
1217 3 -4 -11 -1 -1 460. 433. 56. o
1217 1 4 11 1 1 460. 433. 56. o
1218 3 -5 -11 -1 1 312. 208. 151. <
1218 1 5 11 1 -1 312. 208. 151. <
1219 4 -5 11 1 0 1004. 855. 150. o
1219 3 -5 -11 -1 0 1004. 855. 150. o
1219 2 5 -11 -1 0 1004. 855. 150. o
1219 1 5 11 1 0 1004. 855. 150. o
1220 3 -5 -11 -1 -1 227. 162. 72. o
1220 1 5 11 1 1 227. 162. 72. o
1221 3 -6 -11 -1 1 267. 39. 267. <
1221 1 6 11 1 -1 267. 39. 267. <
1222 4 -6 11 1 0 8116. 8213. 263. o
1222 3 -6 -11 -1 0 8116. 8213. 263. o
1222 2 6 -11 -1 0 8116. 8213. 263. o
1222 1 6 11 1 0 8116. 8213. 263. o
1223 3 -6 -11 -1 -1 19. 147. 259. <
1223 1 6 11 1 1 19. 147. 259. <
1224 3 7 -12 -1 1 1. -7. 134. <
1224 1 -7 12 1 -1 1. -7. 134. <
1225 4 7 12 1 0 58. 295. 127. o
1225 3 7 -12 -1 0 58. 295. 127. o
1225 2 -7 -12 -1 0 58. 295. 127. o
1225 1 -7 12 1 0 58. 295. 127. o
1226 3 6 -12 -1 1 59. 697. 130. o
1226 1 -6 12 1 -1 59. 697. 130. o
1227 4 6 12 1 0 2805. 1644. 125. o
1227 3 6 -12 -1 0 2805. 1644. 125. o
1227 2 -6 -12 -1 0 2805. 1644. 125. o
1227 1 -6 12 1 0 2805. 1644. 125. o
1228 3 6 -12 -1 -1 77. 638. 122. o
1228 1 -6 12 1 1 77. 638. 122. o
1229 3 5 -12 -1 1 24. 63. 96. <
1229 1 -5 12 1 -1 24. 63. 96. <
1230 4 5 12 1 0 518. 721. 93. o
1230 3 5 -12 -1 0 518. 721. 93. o
1230 2 -5 -12 -1 0 518. 721. 93. o
1230 1 -5 12 1 0 518. 721. 93. o
1231 3 5 -12 -1 -1 21. 98. 90. <
1231 1 -5 12 1 1 21. 98. 90. <
1232 3 4 -12 -1 1 984. 1212. 102. o
1232 1 -4 12 1 -1 984. 1212. 102. o
1233 4 4 12 1 0 8939. 9942. 110. o
1233 3 4 -12 -1 0 8939. 9942. 110. o
1233 2 -4 -12 -1 0 8939. 9942. 110. o
1233 1 -4 12 1 0 8939. 9942. 110. o
1234 3 4 -12 -1 -1 360. 520. 84. o
1234 1 -4 12 1 1 360. 520. 84. o
1235 3 3 -12 -1 1 376. 277. 70. o
1235 1 -3 12 1 -1 376. 277. 70. o
1236 4 3 12 1 0 5565. 5575. 85. o
1236 3 3 -12 -1 0 5565. 5575. 85. o
1236 2 -3 -12 -1 0 5565. 5575. 85. o
1236 1 -3 12 1 0 5565. 5575. 85. o
1237 3 3 -12 -1 -1 122. 46. 78. <
1237 1 -3 12 1 1 122. 46. 78. <
1238 3 2 -12 -1 1 66. 20. 83. <
1238 1 -2 12 1 -1 66. 20. 83. <
1239 4 2 12 1 0 253. 164. 81. o
1239 3 2 -12 -1 0 253. 164. 81. o
1239 2 -2 -12 -1 0 253. 164. 81. o
1239 1 -2 12 1 0 253. 164. 81. o
1240 3 2 -12 -1 -1 107. 86. 80. <
1240 1 -2 12 1 1 107. 86. 80. <
1241 3 1 -12 -1 1 82. 20. 100. <
1241 1 -1 12 1 -1 82. 20. 100. <
1242 4 1 12 1 0 82. 263. 98. o
1242 3 1 -12 -1 0 82. 263. 98. o
1242 2 -1 -12 -1 0 82. 263. 98. o
1242 1 -1 12 1 0 82. 263. 98. o
1243 3 1 -12 -1 -1 62. 79. 97. <
1243 1 -1 12 1 1 62. 79. 97. <
1244 3 0 -12 -1 1 768. 769. 106. o
1244 1 0 12 1 -1 768. 769. 106. o
1245 4 0 12 1 0 921. 908. 105. o
1245 3 0 -12 -1 0 921. 908. 105. o
1245 2 0 -12 -1 0 921. 908. 105. o
1245 1 0 12 1 0 921. 908. 105. o
1246 3 0 -12 -1 -1 420. 435. 104. o
1246 1 0 12 1 1 420. 435. 104. o
1247 3 -1 -12 -1 1 313. 251. 139. <
1247 1 1 12 1 -1 313. 251. 139. <
1248 4 -1 12 1 0 77. 165. 138. <
1248 3 -1 -12 -1 0 77. 165. 138. <
1248 2 1 -12 -1 0 77. 165. 138. <
1248 1 1 12 1 0 77. 165. 138. <
1249 3 -1 -12 -1 -1 50. 57. 137. <
1249 1 1 12 1 1 50. 57. 137. <
1250 3 -2 -12 -1 1 98. 231. 104. o
1250 1 2 12 1 -1 98. 231. 104. o
1251 4 -2 12 1 0 271. 268. 103. o
1251 3 -2 -12 -1 0 271. 268. 103. o
1251 2 2 -12 -1 0 271. 268. 103. o
1251 1 2 12 1 0 271. 268. 103. o
1252 3 -2 -12 -1 -1 8. 22. 102. <
1252 1 2 12 1 1 8. 22. 102. <
1253 3 -3 -12 -1 1 186. 246. 135. <
1253 1 3 12 1 -1 186. 246. 135. <
1254 4 -3 12 1 0 5735. 5712. 134. o
1254 3 -3 -12 -1 0 5735. 5712. 134. o
1254 2 3 -12 -1 0 5735. 5712. 134. o
1254 1 3 12 1 0 5735. 5712. 134. o
1255 3 -3 -12 -1 -1 134. 27. 134. <
1255 1 3 12 1 1 134. 27. 134. <
1256 3 -4 -12 -1 1 239. 127. 159. <
1256 1 4 12 1 -1 239. 127. 159. <
1257 4 -4 12 1 0 8895. 9218. 158. o
1257 3 -4 -12 -1 0 8895. 9218. 158. o
1257 2 4 -12 -1 0 8895. 9218. 158. o
1257 1 4 12 1 0 8895. 9218. 158. o
1258 3 -4 -12 -1 -1 176. 50. 157. <
1258 1 4 12 1 1 176. 50. 157. <
1259 3 -5 -12 -1 1 659. 479. 133. o
1259 1 5 12 1 -1 659. 479. 133. o
1260 4 -5 12 1 0 516. 812. 132. o
1260 3 -5 -12 -1 0 516. 812. 132. o
1260 2 5 -12 -1 0 516. 812. 132. o
1260 1 5 12 1 0 516. 812. 132. o
1261 3 -5 -12 -1 -1 322. 423. 130. o
1261 1 5 12 1 1 322. 423. 130. o
1262 3 -6 -12 -1 1 344. 213. 208. <
1262 1 6 12 1 -1 344. 213. 208. <
1263 4 -6 12 1 0 2825. 3156. 206. o
1263 3 -6 -12 -1 0 2825. 3156. 206. o
1263 2 6 -12 -1 0 2825. 3156. 206. o
1263 1 6 12 1 0 2825. 3156. 206. o
1264 3 -6 -12 -1 -1 161. 83. 203. <
1264 1 6 12 1 1 161. 83. 203. <
1265 3 -7 -12 -1 1 7. -12. 167. <
1265 1 7 12 1 -1 7. -12. 167. <
1266 4 -7 12 1 0 59. 42. 164. <
1266 3 -7 -12 -1 0 59. 42. 164. <
1266 2 7 -12 -1 0 59. 42. 164. <
1266 1 7 12 1 0 59. 42. 164. <
1267 3 5 -13 -1 1 85. 120. 44. o
1267 1 -5 13 1 -1 85. 120. 44. o
1268 3 4 -13 -1 1 290. 220. 89. o
1268 1 -4 13 1 -1 290. 220. 89. o
1269 4 4 13 1 0 1767. 1967. 87. o
1269 3 4 -13 -1 0 1767. 1967. 87. o
1269 2 -4 -13 -1 0 1767. 1967. 87. o
1269 1 -4 13 1 0 1767. 1967. 87. o
1270 3 4 -13 -1 -1 75. 35. 86. <
1270 1 -4 13 1 1 75. 35. 86. <
1271 3 3 -13 -1 1 685. 678. 112. o
1271 1 -3 13 1 -1 685. 678. 112. o
1272 4 3 13 1 0 3974. 4239. 110. o
1272 3 3 -13 -1 0 3974. 4239. 110. o
1272 2 -3 -13 -1 0 3974. 4239. 110. o
1272 1 -3 13 1 0 3974. 4239. 110. o
1273 3 3 -13 -1 -1 326. 381. 109. o
1273 1 -3 13 1 1 326. 381. 109. o
1274 3 2 -13 -1 1 47. 23. 124. <
1274 1 -2 13 1 -1 47. 23. 124. <
1275 4 2 13 1 0 3723. 3568. 122. o
1275 3 2 -13 -1 0 3723. 3568. 122. o
1275 2 -2 -13 -1 0 3723. 3568. 122. o
1275 1 -2 13 1 0 3723. 3568. 122. o
1276 3 2 -13 -1 -1 33. 22. 120. <
1276 1 -2 13 1 1 33. 22. 120. <
1277 3 1 -13 -1 1 50. 8. 122. <
1277 1 -1 13 1 -1 50. 8. 122. <
1278 4 1 13 1 0 3916. 4037. 121. o
1278 3 1 -13 -1 0 3916. 4037. 121. o
1278 2 -1 -13 -1 0 3916. 4037. 121. o
1278 1 -1 13 1 0 3916. 4037. 121. o
1279 3 1 -13 -1 -1 91. 92. 120. <
1279 1 -1 13 1 1 91. 92. 120. <
1280 3 0 -13 -1 1 93. 64. 102. <
1280 1 0 13 1 -1 93. 64. 102. <
1281 4 0 13 1 0 674. 430. 101. o
1281 3 0 -13 -1 0 674. 430. 101. o
1281 2 0 -13 -1 0 674. 430. 101. o
1281 1 0 13 1 0 674. 430. 101. o
1282 3 0 -13 -1 -1 17. -21. 100. <
1282 1 0 13 1 1 17. -21. 100. <
1283 3 -1 -13 -1 1 139. 121. 125. <
1283 1 1 13 1 -1 139. 121. 125. <
1284 4 -1 13 1 0 4096. 4330. 124. o
1284 3 -1 -13 -1 0 4096. 4330. 124. o
1284 2 1 -13 -1 0 4096. 4330. 124. o
1284 1 1 13 1 0 4096. 4330. 124. o
1285 3 -1 -13 -1 -1 215. 170. 123. <
1285 1 1 13 1 1 215. 170. 123. <
1286 3 -3 -13 -1 1 452. 420. 129. o
1286 1 3 13 1 -1 452. 420. 129. o
1287 4 -3 13 1 0 3789. 4222. 128. o
1287 3 -3 -13 -1 0 3789. 4222. 128. o
1287 2 3 -13 -1 0 3789. 4222. 128. o
1287 1 3 13 1 0 3789. 4222. 128. o
1288 3 -3 -13 -1 -1 370. 419. 127. o
1288 1 3 13 1 1 370. 419. 127. o
1289 3 -4 -13 -1 1 12. 35. 124. <
1289 1 4 13 1 -1 12. 35. 124. <
1290 4 -4 13 1 0 1805. 2060. 123. o
1290 3 -4 -13 -1 0 1805. 2060. 123. o
1290 2 4 -13 -1 0 1805. 2060. 123. o
1290 1 4 13 1 0 1805. 2060. 123. o
1291 3 -4 -13 -1 -1 128. 147. 122. <
1291 1 4 13 1 1 128. 147. 122. <
1292 3 -5 -13 -1 1 38. 45. 44. <
1292 1 5 13 1 -1 38. 45. 44. <
1293 3 1 -14 -1 1 83. 77. 40. <
1293 1 -1 14 1 -1 83. 77. 40. <
1294 3 0 -14 -1 1 39. -14. 36. <
1294 1 0 14 1 -1 39. -14. 36. <
1295 3 -1 -14 -1 1 44. 9. 36. <
1295 1 1 14 1 -1 44. 9. 36. <
1296 4 1 0 2 0 222. 406. 24. o
1296 3 1 0 -2 0 222. 406. 24. o
1296 2 -1 0 -2 0 222. 406. 24. o
1296 1 -1 0 2 0 222. 406. 24. o
1297 3 1 0 -2 1 83. 106. 17. o
1297 1 -1 0 2 -1 83. 106. 17. o
1298 3 2 0 -2 -1 413. 497. 30. o
1298 1 -2 0 2 1 413. 497. 30. o
1299 4 2 0 2 0 60888. 68100. 412. o
1299 3 2 0 -2 0 60888. 68100. 412. o
1299 2 -2 0 -2 0 60888. 68100. 412. o
1299 1 -2 0 2 0 60888. 68100. 412. o
1300 3 2 0 -2 1 224. 247. 30. o
1300 1 -2 0 2 -1 224. 247. 30. o
1301 3 3 0 -2 -1 426. 497. 35. o
1301 1 -3 0 2 1 426. 497. 35. o
1302 4 3 0 2 0 1737. 1723. 27. o
1302 3 3 0 -2 0 1737. 1723. 27. o
1302 2 -3 0 -2 0 1737. 1723. 27. o
1302 1 -3 0 2 0 1737. 1723. 27. o
1303 3 3 0 -2 1 425. 425. 22. o
1303 1 -3 0 2 -1 425. 425. 22. o
1304 3 4 0 -2 -1 17. 14. 13. <
1304 1 -4 0 2 1 17. 14. 13. <
1305 4 4 0 2 0 34131. 36773. 138. o
1305 3 4 0 -2 0 34131. 36773. 138. o
1305 2 -4 0 -2 0 34131. 36773. 138. o
1305 1 -4 0 2 0 34131. 36773. 138. o
1306 3 4 0 -2 1 19. 30. 16. <
1306 1 -4 0 2 -1 19. 30. 16. <
1307 3 5 0 -2 -1 995. 1028. 30. o
1307 1 -5 0 2 1 995. 1028. 30. o
1308 4 5 0 2 0 3190. 3358. 42. o
1308 3 5 0 -2 0 3190. 3358. 42. o
1308 2 -5 0 -2 0 3190. 3358. 42. o
1308 1 -5 0 2 0 3190. 3358. 42. o
1309 3 5 0 -2 1 838. 826. 29. o
1309 1 -5 0 2 -1 838. 826. 29. o
1310 3 6 0 -2 -1 262. 261. 20. o
1310 1 -6 0 2 1 262. 261. 20. o
1311 4 6 0 2 0 58208. 63515. 250. o
1311 3 6 0 -2 0 58208. 63515. 250. o
1311 2 -6 0 -2 0 58208. 63515. 250. o
1311 1 -6 0 2 0 58208. 63515. 250. o
1312 3 6 0 -2 1 58. 73. 17. o
1312 1 -6 0 2 -1 58. 73. 17. o
1313 3 7 0 -2 -1 635. 666. 28. o
1313 1 -7 0 2 1 635. 666. 28. o
1314 4 7 0 2 0 2037. 2073. 37. o
1314 3 7 0 -2 0 2037. 2073. 37. o
1314 2 -7 0 -2 0 2037. 2073. 37. o
1314 1 -7 0 2 0 2037. 2073. 37. o
1315 3 7 0 -2 1 368. 397. 30. o
1315 1 -7 0 2 -1 368. 397. 30. o
1316 3 8 0 -2 -1 1693. 1743. 47. o
1316 1 -8 0 2 1 1693. 1743. 47. o
1317 4 8 0 2 0 258189. 269709. 1037. o
1317 3 8 0 -2 0 258189. 269709. 1037. o
1317 2 -8 0 -2 0 258189. 269709. 1037. o
1317 1 -8 0 2 0 258189. 269709. 1037. o
1318 3 8 0 -2 1 266. 208. 28. o
1318 1 -8 0 2 -1 266. 208. 28. o
1319 3 9 0 -2 -1 291. 207. 51. o
1319 1 -9 0 2 1 291. 207. 51. o
1320 4 9 0 2 0 448. 558. 56. o
1320 3 9 0 -2 0 448. 558. 56. o
1320 2 -9 0 -2 0 448. 558. 56. o
1320 1 -9 0 2 0 448. 558. 56. o
1321 3 9 0 -2 1 75. 25. 51. <
1321 1 -9 0 2 -1 75. 25. 51. <
1322 3 12 0 -2 -1 1145. 792. 331. o
1322 1 -12 0 2 1 1145. 792. 331. o
1323 4 12 0 2 0 38285. 35842. 330. o
1323 3 12 0 -2 0 38285. 35842. 330. o
1323 2 -12 0 -2 0 38285. 35842. 330. o
1323 1 -12 0 2 0 38285. 35842. 330. o
1324 3 12 0 -2 1 1677. 2161. 331. o
1324 1 -12 0 2 -1 1677. 2161. 331. o
1325 3 13 0 -2 -1 779. 289. 161. <
1325 1 -13 0 2 1 779. 289. 161. <
1326 4 13 0 2 0 2166. 1939. 161. o
1326 3 13 0 -2 0 2166. 1939. 161. o
1326 2 -13 0 -2 0 2166. 1939. 161. o
1326 1 -13 0 2 0 2166. 1939. 161. o
1327 3 13 0 -2 1 464. 281. 161. <
1327 1 -13 0 2 -1 464. 281. 161. <
1328 3 13 -1 -2 1 520. 462. 166. o
1328 1 -13 1 2 -1 520. 462. 166. o
1329 4 13 1 2 0 1080. 1275. 167. o
1329 3 13 -1 -2 0 1080. 1275. 167. o
1329 2 -13 -1 -2 0 1080. 1275. 167. o
1329 1 -13 1 2 0 1080. 1275. 167. o
1330 3 13 -1 -2 -1 133. 174. 167. <
1330 1 -13 1 2 1 133. 174. 167. <
1331 3 12 -1 -2 1 660. 4438. 517. o
1331 1 -12 1 2 -1 660. 4438. 517. o
1332 4 12 1 2 0 90951. 92023. 518. o
1332 3 12 -1 -2 0 90951. 92023. 518. o
1332 2 -12 -1 -2 0 90951. 92023. 518. o
1332 1 -12 1 2 0 90951. 92023. 518. o
1333 3 12 -1 -2 -1 890. 3798. 518. o
1333 1 -12 1 2 1 890. 3798. 518. o
1334 3 11 -1 -2 1 862. 904. 86. o
1334 1 -11 1 2 -1 862. 904. 86. o
1335 4 11 1 2 0 18759. 20151. 221. o
1335 3 11 -1 -2 0 18759. 20151. 221. o
1335 2 -11 -1 -2 0 18759. 20151. 221. o
1335 1 -11 1 2 0 18759. 20151. 221. o
1336 3 11 -1 -2 -1 63. 19. 51. <
1336 1 -11 1 2 1 63. 19. 51. <
1337 3 10 -1 -2 1 248. 143. 52. o
1337 1 -10 1 2 -1 248. 143. 52. o
1338 4 10 1 2 0 15028. 17407. 194. o
1338 3 10 -1 -2 0 15028. 17407. 194. o
1338 2 -10 -1 -2 0 15028. 17407. 194. o
1338 1 -10 1 2 0 15028. 17407. 194. o
1339 3 10 -1 -2 -1 28. -12. 43. <
1339 1 -10 1 2 1 28. -12. 43. <
1340 3 9 -1 -2 1 145. 105. 30. o
1340 1 -9 1 2 -1 145. 105. 30. o
1341 4 9 1 2 0 5528. 5826. 76. o
1341 3 9 -1 -2 0 5528. 5826. 76. o
1341 2 -9 -1 -2 0 5528. 5826. 76. o
1341 1 -9 1 2 0 5528. 5826. 76. o
1342 3 9 -1 -2 -1 45. 40. 28. <
1342 1 -9 1 2 1 45. 40. 28. <
1343 3 8 -1 -2 1 943. 919. 42. o
1343 1 -8 1 2 -1 943. 919. 42. o
1344 4 8 1 2 0 7203. 7384. 76. o
1344 3 8 -1 -2 0 7203. 7384. 76. o
1344 2 -8 -1 -2 0 7203. 7384. 76. o
1344 1 -8 1 2 0 7203. 7384. 76. o
1345 3 8 -1 -2 -1 784. 818. 40. o
1345 1 -8 1 2 1 784. 818. 40. o
1346 3 7 -1 -2 1 851. 874. 37. o
1346 1 -7 1 2 -1 851. 874. 37. o
1347 4 7 1 2 0 112678. 121147. 470. o
1347 3 7 -1 -2 0 112678. 121147. 470. o
1347 2 -7 -1 -2 0 112678. 121147. 470. o
1347 1 -7 1 2 0 112678. 121147. 470. o
1348 3 7 -1 -2 -1 159. 192. 24. o
1348 1 -7 1 2 1 159. 192. 24. o
1349 3 6 -1 -2 1 628. 648. 28. o
1349 1 -6 1 2 -1 628. 648. 28. o
1350 4 6 1 2 0 40122. 43532. 148. o
1350 3 6 -1 -2 0 40122. 43532. 148. o
1350 2 -6 -1 -2 0 40122. 43532. 148. o
1350 1 -6 1 2 0 40122. 43532. 148. o
1351 3 6 -1 -2 -1 72. 84. 20. o
1351 1 -6 1 2 1 72. 84. 20. o
1352 3 5 -1 -2 1 657. 692. 26. o
1352 1 -5 1 2 -1 657. 692. 26. o
1353 4 5 1 2 0 18598. 19918. 92. o
1353 3 5 -1 -2 0 18598. 19918. 92. o
1353 2 -5 -1 -2 0 18598. 19918. 92. o
1353 1 -5 1 2 0 18598. 19918. 92. o
1354 3 5 -1 -2 -1 502. 484. 25. o
1354 1 -5 1 2 1 502. 484. 25. o
1355 3 4 -1 -2 1 359. 372. 24. o
1355 1 -4 1 2 -1 359. 372. 24. o
1356 4 4 1 2 0 614350. 544199. 5388. o
1356 3 4 -1 -2 0 614350. 544199. 5388. o
1356 2 -4 -1 -2 0 614350. 544199. 5388. o
1356 1 -4 1 2 0 614350. 544199. 5388. o
1357 3 4 -1 -2 -1 516. 625. 24. o
1357 1 -4 1 2 1 516. 625. 24. o
1358 3 3 -1 -2 1 209. 192. 16. o
1358 1 -3 1 2 -1 209. 192. 16. o
1359 4 3 1 2 0 58576. 65604. 354. o
1359 3 3 -1 -2 0 58576. 65604. 354. o
1359 2 -3 -1 -2 0 58576. 65604. 354. o
1359 1 -3 1 2 0 58576. 65604. 354. o
1360 3 3 -1 -2 -1 56. 78. 13. o
1360 1 -3 1 2 1 56. 78. 13. o
1361 3 2 -1 -2 1 151. 120. 19. o
1361 1 -2 1 2 -1 151. 120. 19. o
1362 4 2 1 2 0 19259. 20398. 106. o
1362 3 2 -1 -2 0 19259. 20398. 106. o
1362 2 -2 -1 -2 0 19259. 20398. 106. o
1362 1 -2 1 2 0 19259. 20398. 106. o
1363 3 2 -1 -2 -1 55. 69. 21. o
1363 1 -2 1 2 1 55. 69. 21. o
1364 3 1 -1 -2 1 384. 413. 25. o
1364 1 -1 1 2 -1 384. 413. 25. o
1365 4 1 1 2 0 1227. 1304. 32. o
1365 3 1 -1 -2 0 1227. 1304. 32. o
1365 2 -1 -1 -2 0 1227. 1304. 32. o
1365 1 -1 1 2 0 1227. 1304. 32. o
1366 3 1 -1 -2 -1 379. 381. 26. o
1366 1 -1 1 2 1 379. 381. 26. o
1367 4 1 -1 2 0 1424. 1654. 33. o
1367 3 1 1 -2 0 1424. 1654. 33. o
1367 2 -1 1 -2 0 1424. 1654. 33. o
1367 1 -1 -1 2 0 1424. 1654. 33. o
1368 3 1 1 -2 1 0. -1. 17. <
1368 1 -1 -1 2 -1 0. -1. 17. <
1369 3 2 1 -2 -1 225. 297. 29. o
1369 1 -2 -1 2 1 225. 297. 29. o
1370 4 2 -1 2 0 19297. 21784. 109. o
1370 3 2 1 -2 0 19297. 21784. 109. o
1370 2 -2 1 -2 0 19297. 21784. 109. o
1370 1 -2 -1 2 0 19297. 21784. 109. o
1371 3 2 1 -2 1 195. 238. 24. o
1371 1 -2 -1 2 -1 195. 238. 24. o
1372 3 3 1 -2 -1 198. 234. 17. o
1372 1 -3 -1 2 1 198. 234. 17. o
1373 4 3 -1 2 0 58503. 61128. 759. o
1373 3 3 1 -2 0 58503. 61128. 759. o
1373 2 -3 1 -2 0 58503. 61128. 759. o
1373 1 -3 -1 2 0 58503. 61128. 759. o
1374 3 3 1 -2 1 1. 10. 16. <
1374 1 -3 -1 2 -1 1. 10. 16. <
1375 3 4 1 -2 -1 132. 165. 18. o
1375 1 -4 -1 2 1 132. 165. 18. o
1376 4 4 -1 2 0 615691. 486305. 4393. o
1376 3 4 1 -2 0 615691. 486305. 4393. o
1376 2 -4 1 -2 0 615691. 486305. 4393. o
1376 1 -4 -1 2 0 615691. 486305. 4393. o
1377 3 4 1 -2 1 9. 10. 24. <
1377 1 -4 -1 2 -1 9. 10. 24. <
1378 3 5 1 -2 -1 353. 402. 24. o
1378 1 -5 -1 2 1 353. 402. 24. o
1379 4 5 -1 2 0 19083. 19350. 94. o
1379 3 5 1 -2 0 19083. 19350. 94. o
1379 2 -5 1 -2 0 19083. 19350. 94. o
1379 1 -5 -1 2 0 19083. 19350. 94. o
1380 3 5 1 -2 1 106. 94. 19. o
1380 1 -5 -1 2 -1 106. 94. 19. o
1381 3 6 1 -2 -1 360. 377. 29. o
1381 1 -6 -1 2 1 360. 377. 29. o
1382 4 6 -1 2 0 39731. 42442. 150. o
1382 3 6 1 -2 0 39731. 42442. 150. o
1382 2 -6 1 -2 0 39731. 42442. 150. o
1382 1 -6 -1 2 0 39731. 42442. 150. o
1383 3 6 1 -2 1 1171. 1195. 36. o
1383 1 -6 -1 2 -1 1171. 1195. 36. o
1384 3 7 1 -2 -1 87. 52. 21. o
1384 1 -7 -1 2 1 87. 52. 21. o
1385 4 7 -1 2 0 112243. 116506. 490. o
1385 3 7 1 -2 0 112243. 116506. 490. o
1385 2 -7 1 -2 0 112243. 116506. 490. o
1385 1 -7 -1 2 0 112243. 116506. 490. o
1386 3 7 1 -2 1 316. 337. 31. o
1386 1 -7 -1 2 -1 316. 337. 31. o
1387 3 8 1 -2 -1 54. 35. 25. <
1387 1 -8 -1 2 1 54. 35. 25. <
1388 4 8 -1 2 0 7289. 7496. 81. o
1388 3 8 1 -2 0 7289. 7496. 81. o
1388 2 -8 1 -2 0 7289. 7496. 81. o
1388 1 -8 -1 2 0 7289. 7496. 81. o
1389 3 8 1 -2 1 63. 73. 28. o
1389 1 -8 -1 2 -1 63. 73. 28. o
1390 3 9 1 -2 -1 539. 533. 39. o
1390 1 -9 -1 2 1 539. 533. 39. o
1391 4 9 -1 2 0 5896. 5749. 79. o
1391 3 9 1 -2 0 5896. 5749. 79. o
1391 2 -9 1 -2 0 5896. 5749. 79. o
1391 1 -9 -1 2 0 5896. 5749. 79. o
1392 3 9 1 -2 1 522. 471. 37. o
1392 1 -9 -1 2 -1 522. 471. 37. o
1393 3 10 1 -2 -1 101. 133. 204. <
1393 1 -10 -1 2 1 101. 133. 204. <
1394 4 10 -1 2 0 15150. 15796. 204. o
1394 3 10 1 -2 0 15150. 15796. 204. o
1394 2 -10 1 -2 0 15150. 15796. 204. o
1394 1 -10 -1 2 0 15150. 15796. 204. o
1395 3 10 1 -2 1 27. 212. 205. <
1395 1 -10 -1 2 -1 27. 212. 205. <
1396 3 11 1 -2 -1 230. 123. 231. <
1396 1 -11 -1 2 1 230. 123. 231. <
1397 4 11 -1 2 0 19557. 18315. 231. o
1397 3 11 1 -2 0 19557. 18315. 231. o
1397 2 -11 1 -2 0 19557. 18315. 231. o
1397 1 -11 -1 2 0 19557. 18315. 231. o
1398 3 11 1 -2 1 245. 346. 231. <
1398 1 -11 -1 2 -1 245. 346. 231. <
1399 3 12 1 -2 -1 740. 2364. 500. o
1399 1 -12 -1 2 1 740. 2364. 500. o
1400 4 12 -1 2 0 91376. 90879. 502. o
1400 3 12 1 -2 0 91376. 90879. 502. o
1400 2 -12 1 -2 0 91376. 90879. 502. o
1400 1 -12 -1 2 0 91376. 90879. 502. o
1401 3 12 1 -2 1 689. 2791. 503. o
1401 1 -12 -1 2 -1 689. 2791. 503. o
1402 3 13 1 -2 -1 571. 173. 152. <
1402 1 -13 -1 2 1 571. 173. 152. <
1403 4 13 -1 2 0 1337. 1172. 152. o
1403 3 13 1 -2 0 1337. 1172. 152. o
1403 2 -13 1 -2 0 1337. 1172. 152. o
1403 1 -13 -1 2 0 1337. 1172. 152. o
1404 3 13 1 -2 1 52. 76. 153. <
1404 1 -13 -1 2 -1 52. 76. 153. <
1405 3 13 -2 -2 1 145. 122. 156. <
1405 1 -13 2 2 -1 145. 122. 156. <
1406 4 13 2 2 0 1188. 959. 156. o
1406 3 13 -2 -2 0 1188. 959. 156. o
1406 2 -13 -2 -2 0 1188. 959. 156. o
1406 1 -13 2 2 0 1188. 959. 156. o
1407 3 13 -2 -2 -1 301. 169. 156. <
1407 1 -13 2 2 1 301. 169. 156. <
1408 3 12 -2 -2 1 323. 52. 150. <
1408 1 -12 2 2 -1 323. 52. 150. <
1409 4 12 2 2 0 1179. 1320. 150. o
1409 3 12 -2 -2 0 1179. 1320. 150. o
1409 2 -12 -2 -2 0 1179. 1320. 150. o
1409 1 -12 2 2 0 1179. 1320. 150. o
1410 3 12 -2 -2 -1 194. 61. 150. <
1410 1 -12 2 2 1 194. 61. 150. <
1411 3 11 -2 -2 1 3. 14. 55. <
1411 1 -11 2 2 -1 3. 14. 55. <
1412 4 11 2 2 0 5558. 5757. 136. o
1412 3 11 -2 -2 0 5558. 5757. 136. o
1412 2 -11 -2 -2 0 5558. 5757. 136. o
1412 1 -11 2 2 0 5558. 5757. 136. o
1413 3 11 -2 -2 -1 171. 304. 62. o
1413 1 -11 2 2 1 171. 304. 62. o
1414 3 10 -2 -2 1 384. 370. 58. o
1414 1 -10 2 2 -1 384. 370. 58. o
1415 4 10 2 2 0 15716. 15801. 191. o
1415 3 10 -2 -2 0 15716. 15801. 191. o
1415 2 -10 -2 -2 0 15716. 15801. 191. o
1415 1 -10 2 2 0 15716. 15801. 191. o
1416 3 10 -2 -2 -1 1006. 1031. 80. o
1416 1 -10 2 2 1 1006. 1031. 80. o
1417 3 9 -2 -2 1 916. 909. 58. o
1417 1 -9 2 2 -1 916. 909. 58. o
1418 4 9 2 2 0 3837. 3755. 70. o
1418 3 9 -2 -2 0 3837. 3755. 70. o
1418 2 -9 -2 -2 0 3837. 3755. 70. o
1418 1 -9 2 2 0 3837. 3755. 70. o
1419 3 9 -2 -2 -1 554. 585. 44. o
1419 1 -9 2 2 1 554. 585. 44. o
1420 3 8 -2 -2 1 35. 42. 92. <
1420 1 -8 2 2 -1 35. 42. 92. <
1421 4 8 2 2 0 39148. 46162. 183. o
1421 3 8 -2 -2 0 39148. 46162. 183. o
1421 2 -8 -2 -2 0 39148. 46162. 183. o
1421 1 -8 2 2 0 39148. 46162. 183. o
1422 3 8 -2 -2 -1 338. 363. 97. o
1422 1 -8 2 2 1 338. 363. 97. o
1423 3 7 -2 -2 1 294. 273. 134. o
1423 1 -7 2 2 -1 294. 273. 134. o
1424 4 7 2 2 0 107880. 121167. 492. o
1424 3 7 -2 -2 0 107880. 121167. 492. o
1424 2 -7 -2 -2 0 107880. 121167. 492. o
1424 1 -7 2 2 0 107880. 121167. 492. o
1425 3 7 -2 -2 -1 845. 732. 141. o
1425 1 -7 2 2 1 845. 732. 141. o
1426 3 6 -2 -2 1 87. 61. 40. <
1426 1 -6 2 2 -1 87. 61. 40. <
1427 4 6 2 2 0 1645. 1731. 47. o
1427 3 6 -2 -2 0 1645. 1731. 47. o
1427 2 -6 -2 -2 0 1645. 1731. 47. o
1427 1 -6 2 2 0 1645. 1731. 47. o
1428 3 6 -2 -2 -1 151. 114. 43. o
1428 1 -6 2 2 1 151. 114. 43. o
1429 3 5 -2 -2 1 83. 97. 21. o
1429 1 -5 2 2 -1 83. 97. 21. o
1430 4 5 2 2 0 1085. 1090. 31. o
1430 3 5 -2 -2 0 1085. 1090. 31. o
1430 2 -5 -2 -2 0 1085. 1090. 31. o
1430 1 -5 2 2 0 1085. 1090. 31. o
1431 3 5 -2 -2 -1 702. 716. 30. o
1431 1 -5 2 2 1 702. 716. 30. o
1432 3 4 -2 -2 1 682. 648. 30. o
1432 1 -4 2 2 -1 682. 648. 30. o
1433 4 4 2 2 0 7661. 7426. 60. o
1433 3 4 -2 -2 0 7661. 7426. 60. o
1433 2 -4 -2 -2 0 7661. 7426. 60. o
1433 1 -4 2 2 0 7661. 7426. 60. o
1434 3 4 -2 -2 -1 727. 640. 31. o
1434 1 -4 2 2 1 727. 640. 31. o
1435 3 3 -2 -2 1 128. 116. 26. o
1435 1 -3 2 2 -1 128. 116. 26. o
1436 4 3 2 2 0 5112. 4671. 46. o
1436 3 3 -2 -2 0 5112. 4671. 46. o
1436 2 -3 -2 -2 0 5112. 4671. 46. o
1436 1 -3 2 2 0 5112. 4671. 46. o
1437 3 3 -2 -2 -1 185. 219. 26. o
1437 1 -3 2 2 1 185. 219. 26. o
1438 3 2 -2 -2 1 8. -3. 22. <
1438 1 -2 2 2 -1 8. -3. 22. <
1439 4 2 2 2 0 101318. 105719. 438. o
1439 3 2 -2 -2 0 101318. 105719. 438. o
1439 2 -2 -2 -2 0 101318. 105719. 438. o
1439 1 -2 2 2 0 101318. 105719. 438. o
1440 3 2 -2 -2 -1 4. 6. 15. <
1440 1 -2 2 2 1 4. 6. 15. <
1441 3 1 -2 -2 1 64. 77. 24. o
1441 1 -1 2 2 -1 64. 77. 24. o
1442 4 1 2 2 0 19045. 20181. 116. o
1442 3 1 -2 -2 0 19045. 20181. 116. o
1442 2 -1 -2 -2 0 19045. 20181. 116. o
1442 1 -1 2 2 0 19045. 20181. 116. o
1443 3 1 -2 -2 -1 138. 146. 24. o
1443 1 -1 2 2 1 138. 146. 24. o
1444 3 0 -2 -2 1 418. 408. 37. o
1444 1 0 2 2 -1 418. 408. 37. o
1445 4 0 2 2 0 60725. 56305. 424. o
1445 3 0 -2 -2 0 60725. 56305. 424. o
1445 2 0 -2 -2 0 60725. 56305. 424. o
1445 1 0 2 2 0 60725. 56305. 424. o
1446 3 0 -2 -2 -1 235. 166. 32. o
1446 1 0 2 2 1 235. 166. 32. o
1447 3 -1 -2 -2 1 201. 196. 43. o
1447 1 1 2 2 -1 201. 196. 43. o
1448 3 1 2 -2 -1 202. 262. 24. o
1448 1 -1 -2 2 1 202. 262. 24. o
1449 4 -1 2 2 0 19000. 18296. 157. o
1449 3 -1 -2 -2 0 19000. 18296. 157. o
1449 2 1 -2 -2 0 19000. 18296. 157. o
1449 1 1 2 2 0 19000. 18296. 157. o
1450 4 1 -2 2 0 18339. 19342. 109. o
1450 3 1 2 -2 0 18339. 19342. 109. o
1450 2 -1 2 -2 0 18339. 19342. 109. o
1450 1 -1 -2 2 0 18339. 19342. 109. o
1451 3 -1 -2 -2 -1 168. 167. 46. o
1451 1 1 2 2 1 168. 167. 46. o
1452 3 1 2 -2 1 167. 219. 26. o
1452 1 -1 -2 2 -1 167. 219. 26. o
1453 3 2 2 -2 -1 0. 5. 20. <
1453 1 -2 -2 2 1 0. 5. 20. <
1454 4 2 -2 2 0 101443. 104341. 610. o
1454 3 2 2 -2 0 101443. 104341. 610. o
1454 2 -2 2 -2 0 101443. 104341. 610. o
1454 1 -2 -2 2 0 101443. 104341. 610. o
1455 3 2 2 -2 1 6. 0. 20. <
1455 1 -2 -2 2 -1 6. 0. 20. <
1456 3 3 2 -2 -1 85. 109. 25. o
1456 1 -3 -2 2 1 85. 109. 25. o
1457 4 3 -2 2 0 5576. 5488. 67. o
1457 3 3 2 -2 0 5576. 5488. 67. o
1457 2 -3 2 -2 0 5576. 5488. 67. o
1457 1 -3 -2 2 0 5576. 5488. 67. o
1458 3 3 2 -2 1 412. 417. 33. o
1458 1 -3 -2 2 -1 412. 417. 33. o
1459 3 4 2 -2 -1 2. -1. 17. <
1459 1 -4 -2 2 1 2. -1. 17. <
1460 4 4 -2 2 0 7813. 8054. 89. o
1460 3 4 2 -2 0 7813. 8054. 89. o
1460 2 -4 2 -2 0 7813. 8054. 89. o
1460 1 -4 -2 2 0 7813. 8054. 89. o
1461 3 -4 -2 -2 -1 111. 149. 35. o
1461 1 4 2 2 1 111. 149. 35. o
1462 3 4 2 -2 1 109. 119. 27. o
1462 1 -4 -2 2 -1 109. 119. 27. o
1463 3 5 2 -2 -1 45. 13. 18. <
1463 1 -5 -2 2 1 45. 13. 18. <
1464 4 -5 2 2 0 1052. 1205. 60. o
1464 3 -5 -2 -2 0 1052. 1205. 60. o
1464 2 5 -2 -2 0 1052. 1205. 60. o
1464 1 5 2 2 0 1052. 1205. 60. o
1465 4 5 -2 2 0 755. 844. 34. o
1465 3 5 2 -2 0 755. 844. 34. o
1465 2 -5 2 -2 0 755. 844. 34. o
1465 1 -5 -2 2 0 755. 844. 34. o
1466 3 -5 -2 -2 -1 76. 102. 60. <
1466 1 5 2 2 1 76. 102. 60. <
1467 3 5 2 -2 1 77. 77. 21. o
1467 1 -5 -2 2 -1 77. 77. 21. o
1468 3 6 2 -2 -1 12. 12. 18. <
1468 1 -6 -2 2 1 12. 12. 18. <
1469 4 6 -2 2 0 1111. 1047. 36. o
1469 3 6 2 -2 0 1111. 1047. 36. o
1469 2 -6 2 -2 0 1111. 1047. 36. o
1469 1 -6 -2 2 0 1111. 1047. 36. o
1470 3 6 2 -2 1 889. 958. 37. o
1470 1 -6 -2 2 -1 889. 958. 37. o
1471 3 7 2 -2 -1 349. 326. 27. o
1471 1 -7 -2 2 1 349. 326. 27. o
1472 4 7 -2 2 0 108098. 112928. 476. o
1472 3 7 2 -2 0 108098. 112928. 476. o
1472 2 -7 2 -2 0 108098. 112928. 476. o
1472 1 -7 -2 2 0 108098. 112928. 476. o
1473 3 7 2 -2 1 412. 408. 47. o
1473 1 -7 -2 2 -1 412. 408. 47. o
1474 3 8 2 -2 -1 130. 77. 134. <
1474 1 -8 -2 2 1 130. 77. 134. <
1475 4 8 -2 2 0 38996. 42525. 188. o
1475 3 8 2 -2 0 38996. 42525. 188. o
1475 2 -8 2 -2 0 38996. 42525. 188. o
1475 1 -8 -2 2 0 38996. 42525. 188. o
1476 3 8 2 -2 1 369. 241. 137. <
1476 1 -8 -2 2 -1 369. 241. 137. <
1477 3 9 2 -2 -1 111. 73. 71. <
1477 1 -9 -2 2 1 111. 73. 71. <
1478 4 9 -2 2 0 3740. 3438. 83. o
1478 3 9 2 -2 0 3740. 3438. 83. o
1478 2 -9 2 -2 0 3740. 3438. 83. o
1478 1 -9 -2 2 0 3740. 3438. 83. o
1479 3 9 2 -2 1 877. 724. 77. o
1479 1 -9 -2 2 -1 877. 724. 77. o
1480 3 10 2 -2 -1 739. 615. 111. o
1480 1 -10 -2 2 1 739. 615. 111. o
1481 4 10 -2 2 0 15988. 14884. 146. o
1481 3 10 2 -2 0 15988. 14884. 146. o
1481 2 -10 2 -2 0 15988. 14884. 146. o
1481 1 -10 -2 2 0 15988. 14884. 146. o
1482 3 10 2 -2 1 687. 682. 147. o
1482 1 -10 -2 2 -1 687. 682. 147. o
1483 3 11 2 -2 -1 505. 379. 168. o
1483 1 -11 -2 2 1 505. 379. 168. o
1484 4 11 -2 2 0 5650. 5626. 169. o
1484 3 11 2 -2 0 5650. 5626. 169. o
1484 2 -11 2 -2 0 5650. 5626. 169. o
1484 1 -11 -2 2 0 5650. 5626. 169. o
1485 3 11 2 -2 1 232. 296. 170. <
1485 1 -11 -2 2 -1 232. 296. 170. <
1486 3 12 2 -2 -1 25. 1. 140. <
1486 1 -12 -2 2 1 25. 1. 140. <
1487 4 12 -2 2 0 1055. 953. 141. o
1487 3 12 2 -2 0 1055. 953. 141. o
1487 2 -12 2 -2 0 1055. 953. 141. o
1487 1 -12 -2 2 0 1055. 953. 141. o
1488 3 12 2 -2 1 76. 10. 141. <
1488 1 -12 -2 2 -1 76. 10. 141. <
1489 3 13 2 -2 -1 207. 10. 152. <
1489 1 -13 -2 2 1 207. 10. 152. <
1490 4 13 -2 2 0 850. 569. 153. o
1490 3 13 2 -2 0 850. 569. 153. o
1490 2 -13 2 -2 0 850. 569. 153. o
1490 1 -13 -2 2 0 850. 569. 153. o
1491 3 13 2 -2 1 279. 218. 154. <
1491 1 -13 -2 2 -1 279. 218. 154. <
1492 3 13 -3 -2 1 351. 3978. 447. o
1492 1 -13 3 2 -1 351. 3978. 447. o
1493 4 13 3 2 0 52909. 51639. 448. o
1493 3 13 -3 -2 0 52909. 51639. 448. o
1493 2 -13 -3 -2 0 52909. 51639. 448. o
1493 1 -13 3 2 0 52909. 51639. 448. o
1494 3 13 -3 -2 -1 1013. 2923. 450. o
1494 1 -13 3 2 1 1013. 2923. 450. o
1495 3 12 -3 -2 1 387. 1928. 364. o
1495 1 -12 3 2 -1 387. 1928. 364. o
1496 4 12 3 2 0 38620. 38931. 366. o
1496 3 12 -3 -2 0 38620. 38931. 366. o
1496 2 -12 -3 -2 0 38620. 38931. 366. o
1496 1 -12 3 2 0 38620. 38931. 366. o
1497 3 12 -3 -2 -1 589. 2333. 368. o
1497 1 -12 3 2 1 589. 2333. 368. o
1498 4 11 3 2 0 59201. 69032. 418. o
1498 3 11 -3 -2 0 59201. 69032. 418. o
1498 2 -11 -3 -2 0 59201. 69032. 418. o
1498 1 -11 3 2 0 59201. 69032. 418. o
1499 3 11 -3 -2 -1 12. 3. 56. <
1499 1 -11 3 2 1 12. 3. 56. <
1500 3 10 -3 -2 1 1681. 1713. 94. o
1500 1 -10 3 2 -1 1681. 1713. 94. o
1501 4 10 3 2 0 18624. 21277. 228. o
1501 3 10 -3 -2 0 18624. 21277. 228. o
1501 2 -10 -3 -2 0 18624. 21277. 228. o
1501 1 -10 3 2 0 18624. 21277. 228. o
1502 3 10 -3 -2 -1 311. 396. 64. o
1502 1 -10 3 2 1 311. 396. 64. o
1503 3 9 -3 -2 1 519. 489. 94. o
1503 1 -9 3 2 -1 519. 489. 94. o
1504 4 9 3 2 0 5456. 5564. 111. o
1504 3 9 -3 -2 0 5456. 5564. 111. o
1504 2 -9 -3 -2 0 5456. 5564. 111. o
1504 1 -9 3 2 0 5456. 5564. 111. o
1505 3 9 -3 -2 -1 358. 356. 97. o
1505 1 -9 3 2 1 358. 356. 97. o
1506 3 8 -3 -2 1 771. 737. 59. o
1506 1 -8 3 2 -1 771. 737. 59. o
1507 4 8 3 2 0 2352. 2469. 64. o
1507 3 8 -3 -2 0 2352. 2469. 64. o
1507 2 -8 -3 -2 0 2352. 2469. 64. o
1507 1 -8 3 2 0 2352. 2469. 64. o
1508 3 8 -3 -2 -1 475. 379. 59. o
1508 1 -8 3 2 1 475. 379. 59. o
1509 3 7 -3 -2 1 198. 125. 66. <
1509 1 -7 3 2 -1 198. 125. 66. <
1510 4 7 3 2 0 12296. 11926. 92. o
1510 3 7 -3 -2 0 12296. 11926. 92. o
1510 2 -7 -3 -2 0 12296. 11926. 92. o
1510 1 -7 3 2 0 12296. 11926. 92. o
1511 3 7 -3 -2 -1 917. 826. 73. o
1511 1 -7 3 2 1 917. 826. 73. o
1512 3 6 -3 -2 1 1190. 960. 105. o
1512 1 -6 3 2 -1 1190. 960. 105. o
1513 4 6 3 2 0 43255. 49188. 170. o
1513 3 6 -3 -2 0 43255. 49188. 170. o
1513 2 -6 -3 -2 0 43255. 49188. 170. o
1513 1 -6 3 2 0 43255. 49188. 170. o
1514 3 6 -3 -2 -1 2061. 1649. 113. o
1514 1 -6 3 2 1 2061. 1649. 113. o
1515 3 5 -3 -2 1 64. 8. 24. <
1515 1 -5 3 2 -1 64. 8. 24. <
1516 4 5 3 2 0 45046. 43518. 207. o
1516 3 5 -3 -2 0 45046. 43518. 207. o
1516 2 -5 -3 -2 0 45046. 43518. 207. o
1516 1 -5 3 2 0 45046. 43518. 207. o
1517 3 5 -3 -2 -1 37. 22. 26. <
1517 1 -5 3 2 1 37. 22. 26. <
1518 3 4 -3 -2 1 148. 173. 30. o
1518 1 -4 3 2 -1 148. 173. 30. o
1519 4 4 3 2 0 6420. 6405. 62. o
1519 3 4 -3 -2 0 6420. 6405. 62. o
1519 2 -4 -3 -2 0 6420. 6405. 62. o
1519 1 -4 3 2 0 6420. 6405. 62. o
1520 3 4 -3 -2 -1 53. 39. 22. <
1520 1 -4 3 2 1 53. 39. 22. <
1521 3 3 -3 -2 1 776. 764. 32. o
1521 1 -3 3 2 -1 776. 764. 32. o
1522 4 3 3 2 0 305249. 320176. 2143. o
1522 3 3 -3 -2 0 305249. 320176. 2143. o
1522 2 -3 -3 -2 0 305249. 320176. 2143. o
1522 1 -3 3 2 0 305249. 320176. 2143. o
1523 3 3 -3 -2 -1 799. 884. 30. o
1523 1 -3 3 2 1 799. 884. 30. o
1524 3 2 -3 -2 1 162. 209. 26. o
1524 1 -2 3 2 -1 162. 209. 26. o
1525 4 2 3 2 0 5162. 4862. 47. o
1525 3 2 -3 -2 0 5162. 4862. 47. o
1525 2 -2 -3 -2 0 5162. 4862. 47. o
1525 1 -2 3 2 0 5162. 4862. 47. o
1526 3 2 -3 -2 -1 99. 121. 24. o
1526 1 -2 3 2 1 99. 121. 24. o
1527 3 1 -3 -2 1 67. 63. 26. o
1527 1 -1 3 2 -1 67. 63. 26. o
1528 4 1 3 2 0 58137. 56099. 243. o
1528 3 1 -3 -2 0 58137. 56099. 243. o
1528 2 -1 -3 -2 0 58137. 56099. 243. o
1528 1 -1 3 2 0 58137. 56099. 243. o
1529 3 1 -3 -2 -1 220. 142. 25. o
1529 1 -1 3 2 1 220. 142. 25. o
1530 3 0 -3 -2 1 350. 340. 39. o
1530 1 0 3 2 -1 350. 340. 39. o
1531 4 0 3 2 0 542. 570. 57. o
1531 3 0 -3 -2 0 542. 570. 57. o
1531 2 0 -3 -2 0 542. 570. 57. o
1531 1 0 3 2 0 542. 570. 57. o
1532 3 0 -3 -2 -1 339. 333. 48. o
1532 1 0 3 2 1 339. 333. 48. o
1533 3 -1 -3 -2 1 142. 169. 49. o
1533 1 1 3 2 -1 142. 169. 49. o
1534 4 -1 3 2 0 58233. 47301. 261. o
1534 3 -1 -3 -2 0 58233. 47301. 261. o
1534 2 1 -3 -2 0 58233. 47301. 261. o
1534 1 1 3 2 0 58233. 47301. 261. o
1535 3 -1 -3 -2 -1 3. 10. 45. <
1535 1 1 3 2 1 3. 10. 45. <
1536 3 2 3 -2 -1 76. 98. 28. o
1536 1 -2 -3 2 1 76. 98. 28. o
1537 4 2 -3 2 0 5177. 5391. 75. o
1537 3 2 3 -2 0 5177. 5391. 75. o
1537 2 -2 3 -2 0 5177. 5391. 75. o
1537 1 -2 -3 2 0 5177. 5391. 75. o
1538 3 2 3 -2 1 410. 425. 43. o
1538 1 -2 -3 2 -1 410. 425. 43. o
1539 3 3 3 -2 -1 23. 24. 26. <
1539 1 -3 -3 2 1 23. 24. 26. <
1540 4 3 -3 2 0 308647. 298334. 1337. o
1540 3 3 3 -2 0 308647. 298334. 1337. o
1540 2 -3 3 -2 0 308647. 298334. 1337. o
1540 1 -3 -3 2 0 308647. 298334. 1337. o
1541 3 4 3 -2 -1 281. 263. 33. o
1541 1 -4 -3 2 1 281. 263. 33. o
1542 4 4 -3 2 0 6510. 7350. 93. o
1542 3 4 3 -2 0 6510. 7350. 93. o
1542 2 -4 3 -2 0 6510. 7350. 93. o
1542 1 -4 -3 2 0 6510. 7350. 93. o
1543 3 4 3 -2 1 135. 134. 32. o
1543 1 -4 -3 2 -1 135. 134. 32. o
1544 3 -5 -3 -2 1 111. 26. 213. <
1544 1 5 3 2 -1 111. 26. 213. <
1545 3 5 3 -2 -1 117. 147. 30. o
1545 1 -5 -3 2 1 117. 147. 30. o
1546 4 -5 3 2 0 46150. 49143. 210. o
1546 3 -5 -3 -2 0 46150. 49143. 210. o
1546 2 5 -3 -2 0 46150. 49143. 210. o
1546 1 5 3 2 0 46150. 49143. 210. o
1547 4 5 -3 2 0 46087. 49984. 244. o
1547 3 5 3 -2 0 46087. 49984. 244. o
1547 2 -5 3 -2 0 46087. 49984. 244. o
1547 1 -5 -3 2 0 46087. 49984. 244. o
1548 3 -5 -3 -2 -1 21. 82. 208. <
1548 1 5 3 2 1 21. 82. 208. <
1549 3 -6 -3 -2 1 49. 18. 211. <
1549 1 6 3 2 -1 49. 18. 211. <
1550 3 6 3 -2 -1 46. 5. 24. <
1550 1 -6 -3 2 1 46. 5. 24. <
1551 4 -6 3 2 0 43672. 46305. 213. o
1551 3 -6 -3 -2 0 43672. 46305. 213. o
1551 2 6 -3 -2 0 43672. 46305. 213. o
1551 1 6 3 2 0 43672. 46305. 213. o
1552 4 6 -3 2 0 43107. 46387. 252. o
1552 3 6 3 -2 0 43107. 46387. 252. o
1552 2 -6 3 -2 0 43107. 46387. 252. o
1552 1 -6 -3 2 0 43107. 46387. 252. o
1553 3 -6 -3 -2 -1 383. 295. 215. <
1553 1 6 3 2 1 383. 295. 215. <
1554 3 6 3 -2 1 393. 437. 46. o
1554 1 -6 -3 2 -1 393. 437. 46. o
1555 3 7 3 -2 -1 997. 1090. 46. o
1555 1 -7 -3 2 1 997. 1090. 46. o
1556 4 7 -3 2 0 12545. 12284. 104. o
1556 3 7 3 -2 0 12545. 12284. 104. o
1556 2 -7 3 -2 0 12545. 12284. 104. o
1556 1 -7 -3 2 0 12545. 12284. 104. o
1557 3 7 3 -2 1 66. 91. 30. o
1557 1 -7 -3 2 -1 66. 91. 30. o
1558 3 8 3 -2 -1 32. -5. 42. <
1558 1 -8 -3 2 1 32. -5. 42. <
1559 4 8 -3 2 0 2260. 2284. 109. o
1559 3 8 3 -2 0 2260. 2284. 109. o
1559 2 -8 3 -2 0 2260. 2284. 109. o
1559 1 -8 -3 2 0 2260. 2284. 109. o
1560 3 8 3 -2 1 22. 53. 109. <
1560 1 -8 -3 2 -1 22. 53. 109. <
1561 3 9 3 -2 -1 386. 90. 153. <
1561 1 -9 -3 2 1 386. 90. 153. <
1562 4 9 -3 2 0 5986. 6024. 154. o
1562 3 9 3 -2 0 5986. 6024. 154. o
1562 2 -9 3 -2 0 5986. 6024. 154. o
1562 1 -9 -3 2 0 5986. 6024. 154. o
1563 3 9 3 -2 1 345. 231. 155. <
1563 1 -9 -3 2 -1 345. 231. 155. <
1564 3 10 3 -2 -1 2284. 1818. 241. o
1564 1 -10 -3 2 1 2284. 1818. 241. o
1565 4 10 -3 2 0 19064. 18481. 243. o
1565 3 10 3 -2 0 19064. 18481. 243. o
1565 2 -10 3 -2 0 19064. 18481. 243. o
1565 1 -10 -3 2 0 19064. 18481. 243. o
1566 3 10 3 -2 1 160. 134. 244. <
1566 1 -10 -3 2 -1 160. 134. 244. <
1567 3 11 3 -2 -1 469. 433. 404. <
1567 1 -11 -3 2 1 469. 433. 404. <
1568 4 11 -3 2 0 62068. 61161. 407. o
1568 3 11 3 -2 0 62068. 61161. 407. o
1568 2 -11 3 -2 0 62068. 61161. 407. o
1568 1 -11 -3 2 0 62068. 61161. 407. o
1569 3 11 3 -2 1 647. 1063. 409. o
1569 1 -11 -3 2 -1 647. 1063. 409. o
1570 3 12 3 -2 -1 277. 461. 348. <
1570 1 -12 -3 2 1 277. 461. 348. <
1571 4 12 -3 2 0 39832. 37739. 350. o
1571 3 12 3 -2 0 39832. 37739. 350. o
1571 2 -12 3 -2 0 39832. 37739. 350. o
1571 1 -12 -3 2 0 39832. 37739. 350. o
1572 3 12 3 -2 1 12. 890. 352. o
1572 1 -12 -3 2 -1 12. 890. 352. o
1573 3 13 3 -2 -1 296. 529. 420. <
1573 1 -13 -3 2 1 296. 529. 420. <
1574 4 13 -3 2 0 55872. 50691. 423. o
1574 3 13 3 -2 0 55872. 50691. 423. o
1574 2 -13 3 -2 0 55872. 50691. 423. o
1574 1 -13 -3 2 0 55872. 50691. 423. o
1575 3 13 3 -2 1 250. 1485. 425. o
1575 1 -13 -3 2 -1 250. 1485. 425. o
1576 3 13 -4 -2 1 60. 220. 189. <
1576 1 -13 4 2 -1 60. 220. 189. <
1577 4 13 4 2 0 3216. 2881. 191. o
1577 3 13 -4 -2 0 3216. 2881. 191. o
1577 2 -13 -4 -2 0 3216. 2881. 191. o
1577 1 -13 4 2 0 3216. 2881. 191. o
1578 3 13 -4 -2 -1 50. 254. 192. <
1578 1 -13 4 2 1 50. 254. 192. <
1579 3 12 -4 -2 1 35. 91. 155. <
1579 1 -12 4 2 -1 35. 91. 155. <
1580 4 12 4 2 0 749. 771. 157. o
1580 3 12 -4 -2 0 749. 771. 157. o
1580 2 -12 -4 -2 0 749. 771. 157. o
1580 1 -12 4 2 0 749. 771. 157. o
1581 3 12 -4 -2 -1 356. 396. 159. o
1581 1 -12 4 2 1 356. 396. 159. o
1582 3 11 -4 -2 1 997. 821. 94. o
1582 1 -11 4 2 -1 997. 821. 94. o
1583 4 11 4 2 0 30437. 35136. 321. o
1583 3 11 -4 -2 0 30437. 35136. 321. o
1583 2 -11 -4 -2 0 30437. 35136. 321. o
1583 1 -11 4 2 0 30437. 35136. 321. o
1584 3 11 -4 -2 -1 170. 146. 64. o
1584 1 -11 4 2 1 170. 146. 64. o
1585 3 10 -4 -2 1 60. 40. 92. <
1585 1 -10 4 2 -1 60. 40. 92. <
1586 4 10 4 2 0 1012. 931. 100. o
1586 3 10 -4 -2 0 1012. 931. 100. o
1586 2 -10 -4 -2 0 1012. 931. 100. o
1586 1 -10 4 2 0 1012. 931. 100. o
1587 3 10 -4 -2 -1 115. 94. 96. <
1587 1 -10 4 2 1 115. 94. 96. <
1588 3 9 -4 -2 1 1160. 1043. 314. o
1588 1 -9 4 2 -1 1160. 1043. 314. o
1589 4 9 4 2 0 154296. 156796. 662. o
1589 3 9 -4 -2 0 154296. 156796. 662. o
1589 2 -9 -4 -2 0 154296. 156796. 662. o
1589 1 -9 4 2 0 154296. 156796. 662. o
1590 3 9 -4 -2 -1 589. 836. 327. o
1590 1 -9 4 2 1 589. 836. 327. o
1591 3 8 -4 -2 1 209. 165. 61. o
1591 1 -8 4 2 -1 209. 165. 61. o
1592 4 8 4 2 0 1352. 1472. 68. o
1592 3 8 -4 -2 0 1352. 1472. 68. o
1592 2 -8 -4 -2 0 1352. 1472. 68. o
1592 1 -8 4 2 0 1352. 1472. 68. o
1593 3 8 -4 -2 -1 169. 129. 63. o
1593 1 -8 4 2 1 169. 129. 63. o
1594 3 7 -4 -2 1 1223. 1187. 213. o
1594 1 -7 4 2 -1 1223. 1187. 213. o
1595 4 7 4 2 0 166744. 197270. 800. o
1595 3 7 -4 -2 0 166744. 197270. 800. o
1595 2 -7 -4 -2 0 166744. 197270. 800. o
1595 1 -7 4 2 0 166744. 197270. 800. o
1596 3 7 -4 -2 -1 1341. 1543. 226. o
1596 1 -7 4 2 1 1341. 1543. 226. o
1597 3 6 -4 -2 1 2275. 2191. 109. o
1597 1 -6 4 2 -1 2275. 2191. 109. o
1598 4 6 4 2 0 25084. 27482. 143. o
1598 3 6 -4 -2 0 25084. 27482. 143. o
1598 2 -6 -4 -2 0 25084. 27482. 143. o
1598 1 -6 4 2 0 25084. 27482. 143. o
1599 3 6 -4 -2 -1 1561. 1616. 116. o
1599 1 -6 4 2 1 1561. 1616. 116. o
1600 3 5 -4 -2 1 898. 759. 70. o
1600 1 -5 4 2 -1 898. 759. 70. o
1601 4 5 4 2 0 11592. 11822. 88. o
1601 3 5 -4 -2 0 11592. 11822. 88. o
1601 2 -5 -4 -2 0 11592. 11822. 88. o
1601 1 -5 4 2 0 11592. 11822. 88. o
1602 3 5 -4 -2 -1 25. 31. 63. <
1602 1 -5 4 2 1 25. 31. 63. <
1603 3 4 -4 -2 1 84. 80. 39. o
1603 1 -4 4 2 -1 84. 80. 39. o
1604 4 4 4 2 0 762. 789. 41. o
1604 3 4 -4 -2 0 762. 789. 41. o
1604 2 -4 -4 -2 0 762. 789. 41. o
1604 1 -4 4 2 0 762. 789. 41. o
1605 3 4 -4 -2 -1 50. 90. 37. o
1605 1 -4 4 2 1 50. 90. 37. o
1606 3 3 -4 -2 1 47. 41. 21. <
1606 1 -3 4 2 -1 47. 41. 21. <
1607 4 3 4 2 0 6193. 5864. 57. o
1607 3 3 -4 -2 0 6193. 5864. 57. o
1607 2 -3 -4 -2 0 6193. 5864. 57. o
1607 1 -3 4 2 0 6193. 5864. 57. o
1608 3 3 -4 -2 -1 130. 158. 27. o
1608 1 -3 4 2 1 130. 158. 27. o
1609 3 2 -4 -2 1 653. 500. 59. o
1609 1 -2 4 2 -1 653. 500. 59. o
1610 4 2 4 2 0 7065. 6567. 69. o
1610 3 2 -4 -2 0 7065. 6567. 69. o
1610 2 -2 -4 -2 0 7065. 6567. 69. o
1610 1 -2 4 2 0 7065. 6567. 69. o
1611 3 2 -4 -2 -1 559. 494. 64. o
1611 1 -2 4 2 1 559. 494. 64. o
1612 3 1 -4 -2 1 517. 442. 772. <
1612 1 -1 4 2 -1 517. 442. 772. <
1613 4 1 4 2 0 591490. 464233. 2067. o
1613 3 1 -4 -2 0 591490. 464233. 2067. o
1613 2 -1 -4 -2 0 591490. 464233. 2067. o
1613 1 -1 4 2 0 591490. 464233. 2067. o
1614 3 1 -4 -2 -1 269. 335. 761. <
1614 1 -1 4 2 1 269. 335. 761. <
1615 3 0 -4 -2 1 29. 23. 115. <
1615 1 0 4 2 -1 29. 23. 115. <
1616 4 0 4 2 0 31600. 29837. 158. o
1616 3 0 -4 -2 0 31600. 29837. 158. o
1616 2 0 -4 -2 0 31600. 29837. 158. o
1616 1 0 4 2 0 31600. 29837. 158. o
1617 3 0 -4 -2 -1 15. 32. 112. <
1617 1 0 4 2 1 15. 32. 112. <
1618 3 -1 -4 -2 1 151. 318. 3483. <
1618 1 1 4 2 -1 151. 318. 3483. <
1619 4 -1 4 2 0 593151. 448256. 3605. o
1619 3 -1 -4 -2 0 593151. 448256. 3605. o
1619 2 1 -4 -2 0 593151. 448256. 3605. o
1619 1 1 4 2 0 593151. 448256. 3605. o
1620 3 -1 -4 -2 -1 7. 357. 3420. <
1620 1 1 4 2 1 7. 357. 3420. <
1621 3 -4 -4 -2 1 0. 5. 71. <
1621 1 4 4 2 -1 0. 5. 71. <
1622 3 4 4 -2 -1 0. -10. 26. <
1622 1 -4 -4 2 1 0. -10. 26. <
1623 4 -4 4 2 0 722. 869. 71. o
1623 3 -4 -4 -2 0 722. 869. 71. o
1623 2 4 -4 -2 0 722. 869. 71. o
1623 1 4 4 2 0 722. 869. 71. o
1624 4 4 -4 2 0 733. 912. 54. o
1624 3 4 4 -2 0 733. 912. 54. o
1624 2 -4 4 -2 0 733. 912. 54. o
1624 1 -4 -4 2 0 733. 912. 54. o
1625 3 -4 -4 -2 -1 16. -1. 71. <
1625 1 4 4 2 1 16. -1. 71. <
1626 3 4 4 -2 1 16. -4. 33. <
1626 1 -4 -4 2 -1 16. -4. 33. <
1627 3 -5 -4 -2 1 244. 207. 121. <
1627 1 5 4 2 -1 244. 207. 121. <
1628 3 5 4 -2 -1 249. 163. 153. <
1628 1 -5 -4 2 1 249. 163. 153. <
1629 4 -5 4 2 0 11689. 12244. 121. o
1629 3 -5 -4 -2 0 11689. 12244. 121. o
1629 2 5 -4 -2 0 11689. 12244. 121. o
1629 1 5 4 2 0 11689. 12244. 121. o
1630 4 5 -4 2 0 11038. 11497. 154. o
1630 3 5 4 -2 0 11038. 11497. 154. o
1630 2 -5 4 -2 0 11038. 11497. 154. o
1630 1 -5 -4 2 0 11038. 11497. 154. o
1631 3 -5 -4 -2 -1 14. 100. 121. <
1631 1 5 4 2 1 14. 100. 121. <
1632 3 5 4 -2 1 15. 19. 155. <
1632 1 -5 -4 2 -1 15. 19. 155. <
1633 3 6 4 -2 -1 52. 114. 40. o
1633 1 -6 -4 2 1 52. 114. 40. o
1634 4 6 -4 2 0 25142. 27096. 211. o
1634 3 6 4 -2 0 25142. 27096. 211. o
1634 2 -6 4 -2 0 25142. 27096. 211. o
1634 1 -6 -4 2 0 25142. 27096. 211. o
1635 3 6 4 -2 1 56. 122. 43. o
1635 1 -6 -4 2 -1 56. 122. 43. o
1636 3 7 4 -2 -1 516. 523. 55. o
1636 1 -7 -4 2 1 516. 523. 55. o
1637 4 7 -4 2 0 168946. 177840. 1022. o
1637 3 7 4 -2 0 168946. 177840. 1022. o
1637 2 -7 4 -2 0 168946. 177840. 1022. o
1637 1 -7 -4 2 0 168946. 177840. 1022. o
1638 3 8 4 -2 -1 39. 47. 45. <
1638 1 -8 -4 2 1 39. 47. 45. <
1639 4 8 -4 2 0 1315. 1537. 84. o
1639 3 8 4 -2 0 1315. 1537. 84. o
1639 2 -8 4 -2 0 1315. 1537. 84. o
1639 1 -8 -4 2 0 1315. 1537. 84. o
1640 3 8 4 -2 1 358. 316. 58. o
1640 1 -8 -4 2 -1 358. 316. 58. o
1641 3 9 4 -2 -1 491. 494. 880. <
1641 1 -9 -4 2 1 491. 494. 880. <
1642 4 9 -4 2 0 157056. 156320. 887. o
1642 3 9 4 -2 0 157056. 156320. 887. o
1642 2 -9 4 -2 0 157056. 156320. 887. o
1642 1 -9 -4 2 0 157056. 156320. 887. o
1643 3 9 4 -2 1 367. 1131. 893. <
1643 1 -9 -4 2 -1 367. 1131. 893. <
1644 3 10 4 -2 -1 52. -1. 141. <
1644 1 -10 -4 2 1 52. -1. 141. <
1645 4 10 -4 2 0 1046. 1041. 143. o
1645 3 10 4 -2 0 1046. 1041. 143. o
1645 2 -10 4 -2 0 1046. 1041. 143. o
1645 1 -10 -4 2 0 1046. 1041. 143. o
1646 3 10 4 -2 1 114. 92. 144. <
1646 1 -10 -4 2 -1 114. 92. 144. <
1647 3 11 4 -2 -1 222. 301. 317. <
1647 1 -11 -4 2 1 222. 301. 317. <
1648 4 11 -4 2 0 30792. 30546. 320. o
1648 3 11 4 -2 0 30792. 30546. 320. o
1648 2 -11 4 -2 0 30792. 30546. 320. o
1648 1 -11 -4 2 0 30792. 30546. 320. o
1649 3 11 4 -2 1 1361. 1145. 322. o
1649 1 -11 -4 2 -1 1361. 1145. 322. o
1650 3 12 4 -2 -1 95. 56. 159. <
1650 1 -12 -4 2 1 95. 56. 159. <
1651 4 12 -4 2 0 794. 922. 161. o
1651 3 12 4 -2 0 794. 922. 161. o
1651 2 -12 4 -2 0 794. 922. 161. o
1651 1 -12 -4 2 0 794. 922. 161. o
1652 3 12 4 -2 1 50. 47. 162. <
1652 1 -12 -4 2 -1 50. 47. 162. <
1653 3 13 4 -2 -1 92. 46. 188. <
1653 1 -13 -4 2 1 92. 46. 188. <
1654 4 13 -4 2 0 2940. 2929. 190. o
1654 3 13 4 -2 0 2940. 2929. 190. o
1654 2 -13 4 -2 0 2940. 2929. 190. o
1654 1 -13 -4 2 0 2940. 2929. 190. o
1655 3 13 4 -2 1 53. 120. 191. <
1655 1 -13 -4 2 -1 53. 120. 191. <
1656 3 12 -5 -2 1 189. 314. 188. <
1656 1 -12 5 2 -1 189. 314. 188. <
1657 4 12 5 2 0 3966. 3613. 189. o
1657 3 12 -5 -2 0 3966. 3613. 189. o
1657 2 -12 -5 -2 0 3966. 3613. 189. o
1657 1 -12 5 2 0 3966. 3613. 189. o
1658 3 12 -5 -2 -1 665. 223. 189. <
1658 1 -12 5 2 1 665. 223. 189. <
1659 3 11 -5 -2 1 1596. 1598. 763. o
1659 1 -11 5 2 -1 1596. 1598. 763. o
1660 4 11 5 2 0 164421. 194767. 763. o
1660 3 11 -5 -2 0 164421. 194767. 763. o
1660 2 -11 -5 -2 0 164421. 194767. 763. o
1660 1 -11 5 2 0 164421. 194767. 763. o
1661 3 10 -5 -2 1 147. 160. 128. <
1661 1 -10 5 2 -1 147. 160. 128. <
1662 4 10 5 2 0 8924. 9373. 156. o
1662 3 10 -5 -2 0 8924. 9373. 156. o
1662 2 -10 -5 -2 0 8924. 9373. 156. o
1662 1 -10 5 2 0 8924. 9373. 156. o
1663 3 10 -5 -2 -1 567. 494. 134. o
1663 1 -10 5 2 1 567. 494. 134. o
1664 3 9 -5 -2 1 751. 564. 167. o
1664 1 -9 5 2 -1 751. 564. 167. o
1665 4 9 5 2 0 23203. 22833. 208. o
1665 3 9 -5 -2 0 23203. 22833. 208. o
1665 2 -9 -5 -2 0 23203. 22833. 208. o
1665 1 -9 5 2 0 23203. 22833. 208. o
1666 3 9 -5 -2 -1 1562. 1430. 177. o
1666 1 -9 5 2 1 1562. 1430. 177. o
1667 3 8 -5 -2 1 636. 441. 140. o
1667 1 -8 5 2 -1 636. 441. 140. o
1668 4 8 5 2 0 11616. 11496. 164. o
1668 3 8 -5 -2 0 11616. 11496. 164. o
1668 2 -8 -5 -2 0 11616. 11496. 164. o
1668 1 -8 5 2 0 11616. 11496. 164. o
1669 3 8 -5 -2 -1 1283. 1284. 106. o
1669 1 -8 5 2 1 1283. 1284. 106. o
1670 3 7 -5 -2 1 138. 61. 89. <
1670 1 -7 5 2 -1 138. 61. 89. <
1671 4 7 5 2 0 8915. 9701. 112. o
1671 3 7 -5 -2 0 8915. 9701. 112. o
1671 2 -7 -5 -2 0 8915. 9701. 112. o
1671 1 -7 5 2 0 8915. 9701. 112. o
1672 3 7 -5 -2 -1 30. -12. 94. <
1672 1 -7 5 2 1 30. -12. 94. <
1673 3 6 -5 -2 1 131. 119. 85. <
1673 1 -6 5 2 -1 131. 119. 85. <
1674 4 6 5 2 0 5844. 6379. 97. o
1674 3 6 -5 -2 0 5844. 6379. 97. o
1674 2 -6 -5 -2 0 5844. 6379. 97. o
1674 1 -6 5 2 0 5844. 6379. 97. o
1675 3 6 -5 -2 -1 58. 48. 77. <
1675 1 -6 5 2 1 58. 48. 77. <
1676 3 5 -5 -2 1 663. 703. 122. o
1676 1 -5 5 2 -1 663. 703. 122. o
1677 4 5 5 2 0 41124. 48909. 191. o
1677 3 5 -5 -2 0 41124. 48909. 191. o
1677 2 -5 -5 -2 0 41124. 48909. 191. o
1677 1 -5 5 2 0 41124. 48909. 191. o
1678 3 5 -5 -2 -1 776. 675. 113. o
1678 1 -5 5 2 1 776. 675. 113. o
1679 3 4 -5 -2 1 22. 33. 66. <
1679 1 -4 5 2 -1 22. 33. 66. <
1680 4 4 5 2 0 10259. 9097. 115. o
1680 3 4 -5 -2 0 10259. 9097. 115. o
1680 2 -4 -5 -2 0 10259. 9097. 115. o
1680 1 -4 5 2 0 10259. 9097. 115. o
1681 3 4 -5 -2 -1 755. 707. 68. o
1681 1 -4 5 2 1 755. 707. 68. o
1682 3 3 -5 -2 1 18. 29. 101. <
1682 1 -3 5 2 -1 18. 29. 101. <
1683 4 3 5 2 0 45018. 42358. 199. o
1683 3 3 -5 -2 0 45018. 42358. 199. o
1683 2 -3 -5 -2 0 45018. 42358. 199. o
1683 1 -3 5 2 0 45018. 42358. 199. o
1684 3 3 -5 -2 -1 71. 10. 102. <
1684 1 -3 5 2 1 71. 10. 102. <
1685 3 2 -5 -2 1 654. 545. 53. o
1685 1 -2 5 2 -1 654. 545. 53. o
1686 4 2 5 2 0 815. 939. 54. o
1686 3 2 -5 -2 0 815. 939. 54. o
1686 2 -2 -5 -2 0 815. 939. 54. o
1686 1 -2 5 2 0 815. 939. 54. o
1687 3 2 -5 -2 -1 100. 76. 52. <
1687 1 -2 5 2 1 100. 76. 52. <
1688 3 1 -5 -2 1 444. 362. 84. o
1688 1 -1 5 2 -1 444. 362. 84. o
1689 4 1 5 2 0 17123. 15848. 100. o
1689 3 1 -5 -2 0 17123. 15848. 100. o
1689 2 -1 -5 -2 0 17123. 15848. 100. o
1689 1 -1 5 2 0 17123. 15848. 100. o
1690 3 1 -5 -2 -1 632. 468. 84. o
1690 1 -1 5 2 1 632. 468. 84. o
1691 3 0 -5 -2 1 778. 764. 68. o
1691 1 0 5 2 -1 778. 764. 68. o
1692 4 0 5 2 0 1634. 1532. 68. o
1692 3 0 -5 -2 0 1634. 1532. 68. o
1692 2 0 -5 -2 0 1634. 1532. 68. o
1692 1 0 5 2 0 1634. 1532. 68. o
1693 3 0 -5 -2 -1 614. 524. 67. o
1693 1 0 5 2 1 614. 524. 67. o
1694 3 -1 -5 -2 1 364. 323. 51. o
1694 1 1 5 2 -1 364. 323. 51. o
1695 4 -1 5 2 0 16964. 12151. 151. o
1695 3 -1 -5 -2 0 16964. 12151. 151. o
1695 2 1 -5 -2 0 16964. 12151. 151. o
1695 1 1 5 2 0 16964. 12151. 151. o
1696 3 -1 -5 -2 -1 74. 55. 44. <
1696 1 1 5 2 1 74. 55. 44. <
1697 3 -2 -5 -2 1 26. 17. 50. <
1697 1 2 5 2 -1 26. 17. 50. <
1698 4 -2 5 2 0 781. 679. 87. o
1698 3 -2 -5 -2 0 781. 679. 87. o
1698 2 2 -5 -2 0 781. 679. 87. o
1698 1 2 5 2 0 781. 679. 87. o
1699 3 -2 -5 -2 -1 97. 40. 86. <
1699 1 2 5 2 1 97. 40. 86. <
1700 3 -3 -5 -2 1 190. 210. 234. <
1700 1 3 5 2 -1 190. 210. 234. <
1701 4 -3 5 2 0 45838. 47179. 233. o
1701 3 -3 -5 -2 0 45838. 47179. 233. o
1701 2 3 -5 -2 0 45838. 47179. 233. o
1701 1 3 5 2 0 45838. 47179. 233. o
1702 3 -3 -5 -2 -1 4. 182. 233. <
1702 1 3 5 2 1 4. 182. 233. <
1703 3 -4 -5 -2 1 314. 227. 126. <
1703 1 4 5 2 -1 314. 227. 126. <
1704 4 -4 5 2 0 10159. 11176. 127. o
1704 3 -4 -5 -2 0 10159. 11176. 127. o
1704 2 4 -5 -2 0 10159. 11176. 127. o
1704 1 4 5 2 0 10159. 11176. 127. o
1705 3 -4 -5 -2 -1 82. 63. 127. <
1705 1 4 5 2 1 82. 63. 127. <
1706 3 13 5 -2 -1 475. 471. 88. o
1706 1 -13 -5 2 1 475. 471. 88. o
1707 3 12 -6 -2 1 210. 1382. 322. o
1707 1 -12 6 2 -1 210. 1382. 322. o
1708 4 12 6 2 0 19139. 19799. 323. o
1708 3 12 -6 -2 0 19139. 19799. 323. o
1708 2 -12 -6 -2 0 19139. 19799. 323. o
1708 1 -12 6 2 0 19139. 19799. 323. o
1709 3 12 -6 -2 -1 107. 645. 323. <
1709 1 -12 6 2 1 107. 645. 323. <
1710 3 11 -6 -2 1 249. 598. 193. o
1710 1 -11 6 2 -1 249. 598. 193. o
1711 4 11 6 2 0 10423. 10354. 195. o
1711 3 11 -6 -2 0 10423. 10354. 195. o
1711 2 -11 -6 -2 0 10423. 10354. 195. o
1711 1 -11 6 2 0 10423. 10354. 195. o
1712 3 11 -6 -2 -1 227. 323. 198. <
1712 1 -11 6 2 1 227. 323. 198. <
1713 3 10 -6 -2 1 88. 127. 159. <
1713 1 -10 6 2 -1 88. 127. 159. <
1714 4 10 6 2 0 14636. 14612. 196. o
1714 3 10 -6 -2 0 14636. 14612. 196. o
1714 2 -10 -6 -2 0 14636. 14612. 196. o
1714 1 -10 6 2 0 14636. 14612. 196. o
1715 3 10 -6 -2 -1 137. 67. 165. <
1715 1 -10 6 2 1 137. 67. 165. <
1716 3 9 -6 -2 1 496. 193. 189. <
1716 1 -9 6 2 -1 496. 193. 189. <
1717 4 9 6 2 0 12090. 12821. 192. o
1717 3 9 -6 -2 0 12090. 12821. 192. o
1717 2 -9 -6 -2 0 12090. 12821. 192. o
1717 1 -9 6 2 0 12090. 12821. 192. o
1718 3 9 -6 -2 -1 1118. 569. 166. o
1718 1 -9 6 2 1 1118. 569. 166. o
1719 3 8 -6 -2 1 1650. 1680. 217. o
1719 1 -8 6 2 -1 1650. 1680. 217. o
1720 4 8 6 2 0 26240. 31370. 259. o
1720 3 8 -6 -2 0 26240. 31370. 259. o
1720 2 -8 -6 -2 0 26240. 31370. 259. o
1720 1 -8 6 2 0 26240. 31370. 259. o
1721 3 8 -6 -2 -1 390. 366. 224. <
1721 1 -8 6 2 1 390. 366. 224. <
1722 3 7 -6 -2 1 337. 131. 167. <
1722 1 -7 6 2 -1 337. 131. 167. <
1723 4 7 6 2 0 47350. 52591. 295. o
1723 3 7 -6 -2 0 47350. 52591. 295. o
1723 2 -7 -6 -2 0 47350. 52591. 295. o
1723 1 -7 6 2 0 47350. 52591. 295. o
1724 3 7 -6 -2 -1 358. 241. 151. <
1724 1 -7 6 2 1 358. 241. 151. <
1725 3 6 -6 -2 1 65. -11. 89. <
1725 1 -6 6 2 -1 65. -11. 89. <
1726 4 6 6 2 0 11771. 12770. 117. o
1726 3 6 -6 -2 0 11771. 12770. 117. o
1726 2 -6 -6 -2 0 11771. 12770. 117. o
1726 1 -6 6 2 0 11771. 12770. 117. o
1727 3 6 -6 -2 -1 29. 18. 83. <
1727 1 -6 6 2 1 29. 18. 83. <
1728 3 5 -6 -2 1 100. 65. 68. <
1728 1 -5 6 2 -1 100. 65. 68. <
1729 4 5 6 2 0 4749. 5419. 83. o
1729 3 5 -6 -2 0 4749. 5419. 83. o
1729 2 -5 -6 -2 0 4749. 5419. 83. o
1729 1 -5 6 2 0 4749. 5419. 83. o
1730 3 5 -6 -2 -1 88. 101. 65. <
1730 1 -5 6 2 1 88. 101. 65. <
1731 3 4 -6 -2 1 1372. 1350. 100. o
1731 1 -4 6 2 -1 1372. 1350. 100. o
1732 4 4 6 2 0 23786. 21801. 148. o
1732 3 4 -6 -2 0 23786. 21801. 148. o
1732 2 -4 -6 -2 0 23786. 21801. 148. o
1732 1 -4 6 2 0 23786. 21801. 148. o
1733 3 4 -6 -2 -1 1967. 1780. 102. o
1733 1 -4 6 2 1 1967. 1780. 102. o
1734 3 3 -6 -2 1 1765. 1497. 112. o
1734 1 -3 6 2 -1 1765. 1497. 112. o
1735 4 3 6 2 0 38750. 41234. 177. o
1735 3 3 -6 -2 0 38750. 41234. 177. o
1735 2 -3 -6 -2 0 38750. 41234. 177. o
1735 1 -3 6 2 0 38750. 41234. 177. o
1736 3 3 -6 -2 -1 1037. 850. 114. o
1736 1 -3 6 2 1 1037. 850. 114. o
1737 3 2 -6 -2 1 133. 138. 50. o
1737 1 -2 6 2 -1 133. 138. 50. o
1738 4 2 6 2 0 685. 894. 57. o
1738 3 2 -6 -2 0 685. 894. 57. o
1738 2 -2 -6 -2 0 685. 894. 57. o
1738 1 -2 6 2 0 685. 894. 57. o
1739 3 2 -6 -2 -1 62. 63. 49. <
1739 1 -2 6 2 1 62. 63. 49. <
1740 3 1 -6 -2 1 115. 55. 105. <
1740 1 -1 6 2 -1 115. 55. 105. <
1741 4 1 6 2 0 37092. 35976. 173. o
1741 3 1 -6 -2 0 37092. 35976. 173. o
1741 2 -1 -6 -2 0 37092. 35976. 173. o
1741 1 -1 6 2 0 37092. 35976. 173. o
1742 3 1 -6 -2 -1 591. 478. 109. o
1742 1 -1 6 2 1 591. 478. 109. o
1743 3 0 -6 -2 1 172. 211. 115. <
1743 1 0 6 2 -1 172. 211. 115. <
1744 4 0 6 2 0 52961. 48119. 182. o
1744 3 0 -6 -2 0 52961. 48119. 182. o
1744 2 0 -6 -2 0 52961. 48119. 182. o
1744 1 0 6 2 0 52961. 48119. 182. o
1745 3 0 -6 -2 -1 13. 71. 120. <
1745 1 0 6 2 1 13. 71. 120. <
1746 3 -1 -6 -2 1 346. 272. 127. o
1746 1 1 6 2 -1 346. 272. 127. o
1747 4 -1 6 2 0 37233. 36364. 188. o
1747 3 -1 -6 -2 0 37233. 36364. 188. o
1747 2 1 -6 -2 0 37233. 36364. 188. o
1747 1 1 6 2 0 37233. 36364. 188. o
1748 3 -1 -6 -2 -1 825. 657. 128. o
1748 1 1 6 2 1 825. 657. 128. o
1749 3 -2 -6 -2 1 6. 9. 60. <
1749 1 2 6 2 -1 6. 9. 60. <
1750 4 -2 6 2 0 664. 789. 66. o
1750 3 -2 -6 -2 0 664. 789. 66. o
1750 2 2 -6 -2 0 664. 789. 66. o
1750 1 2 6 2 0 664. 789. 66. o
1751 3 -2 -6 -2 -1 815. 687. 68. o
1751 1 2 6 2 1 815. 687. 68. o
1752 3 -3 -6 -2 1 4. 129. 242. <
1752 1 3 6 2 -1 4. 129. 242. <
1753 4 -3 6 2 0 38737. 39361. 241. o
1753 3 -3 -6 -2 0 38737. 39361. 241. o
1753 2 3 -6 -2 0 38737. 39361. 241. o
1753 1 3 6 2 0 38737. 39361. 241. o
1754 3 -3 -6 -2 -1 291. 315. 241. <
1754 1 3 6 2 1 291. 315. 241. <
1755 3 -4 -6 -2 1 26. 139. 190. <
1755 1 4 6 2 -1 26. 139. 190. <
1756 4 -4 6 2 0 23613. 25052. 191. o
1756 3 -4 -6 -2 0 23613. 25052. 191. o
1756 2 4 -6 -2 0 23613. 25052. 191. o
1756 1 4 6 2 0 23613. 25052. 191. o
1757 3 -4 -6 -2 -1 23. 136. 191. <
1757 1 4 6 2 1 23. 136. 191. <
1758 3 11 -7 -2 1 98. 140. 188. <
1758 1 -11 7 2 -1 98. 140. 188. <
1759 4 11 7 2 0 5634. 5912. 191. o
1759 3 11 -7 -2 0 5634. 5912. 191. o
1759 2 -11 -7 -2 0 5634. 5912. 191. o
1759 1 -11 7 2 0 5634. 5912. 191. o
1760 3 11 -7 -2 -1 607. 400. 194. o
1760 1 -11 7 2 1 607. 400. 194. o
1761 3 10 -7 -2 1 187. 455. 232. <
1761 1 -10 7 2 -1 187. 455. 232. <
1762 4 10 7 2 0 15517. 15645. 236. o
1762 3 10 -7 -2 0 15517. 15645. 236. o
1762 2 -10 -7 -2 0 15517. 15645. 236. o
1762 1 -10 7 2 0 15517. 15645. 236. o
1763 3 10 -7 -2 -1 483. 338. 240. <
1763 1 -10 7 2 1 483. 338. 240. <
1764 3 9 -7 -2 1 69. 60. 145. <
1764 1 -9 7 2 -1 69. 60. 145. <
1765 4 9 7 2 0 567. 359. 145. o
1765 3 9 -7 -2 0 567. 359. 145. o
1765 2 -9 -7 -2 0 567. 359. 145. o
1765 1 -9 7 2 0 567. 359. 145. o
1766 3 9 -7 -2 -1 23. 39. 135. <
1766 1 -9 7 2 1 23. 39. 135. <
1767 3 8 -7 -2 1 1056. 718. 227. o
1767 1 -8 7 2 -1 1056. 718. 227. o
1768 4 8 7 2 0 34783. 37144. 272. o
1768 3 8 -7 -2 0 34783. 37144. 272. o
1768 2 -8 -7 -2 0 34783. 37144. 272. o
1768 1 -8 7 2 0 34783. 37144. 272. o
1769 3 8 -7 -2 -1 104. 121. 205. <
1769 1 -8 7 2 1 104. 121. 205. <
1770 3 7 -7 -2 1 139. 233. 103. o
1770 1 -7 7 2 -1 139. 233. 103. o
1771 4 7 7 2 0 12781. 15409. 142. o
1771 3 7 -7 -2 0 12781. 15409. 142. o
1771 2 -7 -7 -2 0 12781. 15409. 142. o
1771 1 -7 7 2 0 12781. 15409. 142. o
1772 3 7 -7 -2 -1 227. 219. 96. o
1772 1 -7 7 2 1 227. 219. 96. o
1773 3 6 -7 -2 1 236. 240. 134. <
1773 1 -6 7 2 -1 236. 240. 134. <
1774 4 6 7 2 0 45078. 57766. 257. o
1774 3 6 -7 -2 0 45078. 57766. 257. o
1774 2 -6 -7 -2 0 45078. 57766. 257. o
1774 1 -6 7 2 0 45078. 57766. 257. o
1775 3 6 -7 -2 -1 28. 131. 128. <
1775 1 -6 7 2 1 28. 131. 128. <
1776 3 5 -7 -2 1 1. -9. 74. <
1776 1 -5 7 2 -1 1. -9. 74. <
1777 4 5 7 2 0 8668. 9403. 104. o
1777 3 5 -7 -2 0 8668. 9403. 104. o
1777 2 -5 -7 -2 0 8668. 9403. 104. o
1777 1 -5 7 2 0 8668. 9403. 104. o
1778 3 5 -7 -2 -1 33. 73. 73. <
1778 1 -5 7 2 1 33. 73. 73. <
1779 3 4 -7 -2 1 1669. 1177. 193. o
1779 1 -4 7 2 -1 1669. 1177. 193. o
1780 4 4 7 2 0 153409. 178717. 761. o
1780 3 4 -7 -2 0 153409. 178717. 761. o
1780 2 -4 -7 -2 0 153409. 178717. 761. o
1780 1 -4 7 2 0 153409. 178717. 761. o
1781 3 4 -7 -2 -1 891. 1074. 189. o
1781 1 -4 7 2 1 891. 1074. 189. o
1782 3 3 -7 -2 1 769. 692. 85. o
1782 1 -3 7 2 -1 769. 692. 85. o
1783 4 3 7 2 0 10634. 11135. 104. o
1783 3 3 -7 -2 0 10634. 11135. 104. o
1783 2 -3 -7 -2 0 10634. 11135. 104. o
1783 1 -3 7 2 0 10634. 11135. 104. o
1784 3 3 -7 -2 -1 99. 112. 84. <
1784 1 -3 7 2 1 99. 112. 84. <
1785 3 2 -7 -2 1 676. 715. 172. o
1785 1 -2 7 2 -1 676. 715. 172. o
1786 4 2 7 2 0 94701. 97035. 291. o
1786 3 2 -7 -2 0 94701. 97035. 291. o
1786 2 -2 -7 -2 0 94701. 97035. 291. o
1786 1 -2 7 2 0 94701. 97035. 291. o
1787 3 2 -7 -2 -1 135. 248. 175. <
1787 1 -2 7 2 1 135. 248. 175. <
1788 3 1 -7 -2 1 148. 116. 188. <
1788 1 -1 7 2 -1 148. 116. 188. <
1789 4 1 7 2 0 96781. 103765. 377. o
1789 3 1 -7 -2 0 96781. 103765. 377. o
1789 2 -1 -7 -2 0 96781. 103765. 377. o
1789 1 -1 7 2 0 96781. 103765. 377. o
1790 3 1 -7 -2 -1 596. 654. 201. o
1790 1 -1 7 2 1 596. 654. 201. o
1791 3 0 -7 -2 1 502. 448. 61. o
1791 1 0 7 2 -1 502. 448. 61. o
1792 4 0 7 2 0 1141. 1042. 63. o
1792 3 0 -7 -2 0 1141. 1042. 63. o
1792 2 0 -7 -2 0 1141. 1042. 63. o
1792 1 0 7 2 0 1141. 1042. 63. o
1793 3 0 -7 -2 -1 378. 283. 62. o
1793 1 0 7 2 1 378. 283. 62. o
1794 3 -1 -7 -2 1 285. 19848. 258. o
1794 1 1 7 2 -1 285. 19848. 258. o
1795 4 -1 7 2 0 97143. 59047. 326. o
1795 3 -1 -7 -2 0 97143. 59047. 326. o
1795 2 1 -7 -2 0 97143. 59047. 326. o
1795 1 1 7 2 0 97143. 59047. 326. o
1796 3 -1 -7 -2 -1 150. 20122. 261. o
1796 1 1 7 2 1 150. 20122. 261. o
1797 3 -2 -7 -2 1 251. 308. 442. <
1797 1 2 7 2 -1 251. 308. 442. <
1798 4 -2 7 2 0 95733. 88139. 304. o
1798 3 -2 -7 -2 0 95733. 88139. 304. o
1798 2 2 -7 -2 0 95733. 88139. 304. o
1798 1 2 7 2 0 95733. 88139. 304. o
1799 3 -2 -7 -2 -1 396. 361. 221. <
1799 1 2 7 2 1 396. 361. 221. <
1800 3 -3 -7 -2 1 961. 699. 97. o
1800 1 3 7 2 -1 961. 699. 97. o
1801 4 -3 7 2 0 10722. 11007. 126. o
1801 3 -3 -7 -2 0 10722. 11007. 126. o
1801 2 3 -7 -2 0 10722. 11007. 126. o
1801 1 3 7 2 0 10722. 11007. 126. o
1802 3 -3 -7 -2 -1 26. 88. 176. <
1802 1 3 7 2 1 26. 88. 176. <
1803 3 11 -8 -2 1 517. 315. 195. <
1803 1 -11 8 2 -1 517. 315. 195. <
1804 4 11 8 2 0 1442. 937. 195. o
1804 3 11 -8 -2 0 1442. 937. 195. o
1804 2 -11 -8 -2 0 1442. 937. 195. o
1804 1 -11 8 2 0 1442. 937. 195. o
1805 3 11 -8 -2 -1 771. 690. 188. o
1805 1 -11 8 2 1 771. 690. 188. o
1806 3 10 -8 -2 1 291. 684. 253. o
1806 1 -10 8 2 -1 291. 684. 253. o
1807 4 10 8 2 0 17293. 18020. 249. o
1807 3 10 -8 -2 0 17293. 18020. 249. o
1807 2 -10 -8 -2 0 17293. 18020. 249. o
1807 1 -10 8 2 0 17293. 18020. 249. o
1808 3 10 -8 -2 -1 800. 302. 244. <
1808 1 -10 8 2 1 800. 302. 244. <
1809 3 9 -8 -2 1 247. 125. 149. <
1809 1 -9 8 2 -1 247. 125. 149. <
1810 4 9 8 2 0 228. 448. 146. o
1810 3 9 -8 -2 0 228. 448. 146. o
1810 2 -9 -8 -2 0 228. 448. 146. o
1810 1 -9 8 2 0 228. 448. 146. o
1811 3 9 -8 -2 -1 28. -1. 143. <
1811 1 -9 8 2 1 28. -1. 143. <
1812 3 8 -8 -2 1 255. 863. 535. <
1812 1 -8 8 2 -1 255. 863. 535. <
1813 4 8 8 2 0 152427. 159802. 529. o
1813 3 8 -8 -2 0 152427. 159802. 529. o
1813 2 -8 -8 -2 0 152427. 159802. 529. o
1813 1 -8 8 2 0 152427. 159802. 529. o
1814 3 8 -8 -2 -1 92. 1365. 524. o
1814 1 -8 8 2 1 92. 1365. 524. o
1815 3 7 -8 -2 1 175. 156. 184. <
1815 1 -7 8 2 -1 175. 156. 184. <
1816 4 7 8 2 0 34221. 34318. 252. o
1816 3 7 -8 -2 0 34221. 34318. 252. o
1816 2 -7 -8 -2 0 34221. 34318. 252. o
1816 1 -7 8 2 0 34221. 34318. 252. o
1817 3 7 -8 -2 -1 608. 591. 251. o
1817 1 -7 8 2 1 608. 591. 251. o
1818 3 6 -8 -2 1 264. 333. 111. o
1818 1 -6 8 2 -1 264. 333. 111. o
1819 4 6 8 2 0 24483. 28909. 176. o
1819 3 6 -8 -2 0 24483. 28909. 176. o
1819 2 -6 -8 -2 0 24483. 28909. 176. o
1819 1 -6 8 2 0 24483. 28909. 176. o
1820 3 6 -8 -2 -1 1551. 1694. 115. o
1820 1 -6 8 2 1 1551. 1694. 115. o
1821 3 5 -8 -2 1 1097. 1123. 105. o
1821 1 -5 8 2 -1 1097. 1123. 105. o
1822 4 5 8 2 0 9359. 10149. 120. o
1822 3 5 -8 -2 0 9359. 10149. 120. o
1822 2 -5 -8 -2 0 9359. 10149. 120. o
1822 1 -5 8 2 0 9359. 10149. 120. o
1823 3 5 -8 -2 -1 338. 430. 105. o
1823 1 -5 8 2 1 338. 430. 105. o
1824 3 4 -8 -2 1 201. 154. 78. <
1824 1 -4 8 2 -1 201. 154. 78. <
1825 4 4 8 2 0 1459. 1671. 85. o
1825 3 4 -8 -2 0 1459. 1671. 85. o
1825 2 -4 -8 -2 0 1459. 1671. 85. o
1825 1 -4 8 2 0 1459. 1671. 85. o
1826 3 4 -8 -2 -1 122. 126. 79. <
1826 1 -4 8 2 1 122. 126. 79. <
1827 3 3 -8 -2 1 417. 492. 95. o
1827 1 -3 8 2 -1 417. 492. 95. o
1828 4 3 8 2 0 2211. 2830. 102. o
1828 3 3 -8 -2 0 2211. 2830. 102. o
1828 2 -3 -8 -2 0 2211. 2830. 102. o
1828 1 -3 8 2 0 2211. 2830. 102. o
1829 3 3 -8 -2 -1 597. 688. 91. o
1829 1 -3 8 2 1 597. 688. 91. o
1830 3 2 -8 -2 1 193. 273. 131. o
1830 1 -2 8 2 -1 193. 273. 131. o
1831 4 2 8 2 0 33259. 40597. 265. o
1831 3 2 -8 -2 0 33259. 40597. 265. o
1831 2 -2 -8 -2 0 33259. 40597. 265. o
1831 1 -2 8 2 0 33259. 40597. 265. o
1832 3 2 -8 -2 -1 21. 58. 120. <
1832 1 -2 8 2 1 21. 58. 120. <
1833 3 1 -8 -2 1 585. 563. 53. o
1833 1 -1 8 2 -1 585. 563. 53. o
1834 4 1 8 2 0 5944. 5136. 70. o
1834 3 1 -8 -2 0 5944. 5136. 70. o
1834 2 -1 -8 -2 0 5944. 5136. 70. o
1834 1 -1 8 2 0 5944. 5136. 70. o
1835 3 1 -8 -2 -1 682. 576. 60. o
1835 1 -1 8 2 1 682. 576. 60. o
1836 3 0 -8 -2 1 1558. 49376. 882. o
1836 1 0 8 2 -1 1558. 49376. 882. o
1837 4 0 8 2 0 222344. 177746. 684. o
1837 3 0 -8 -2 0 222344. 177746. 684. o
1837 2 0 -8 -2 0 222344. 177746. 684. o
1837 1 0 8 2 0 222344. 177746. 684. o
1838 3 0 -8 -2 -1 219. 44443. 822. o
1838 1 0 8 2 1 219. 44443. 822. o
1839 3 -1 -8 -2 1 38. 35. 57. <
1839 1 1 8 2 -1 38. 35. 57. <
1840 4 -1 8 2 0 5920. 5217. 79. o
1840 3 -1 -8 -2 0 5920. 5217. 79. o
1840 2 1 -8 -2 0 5920. 5217. 79. o
1840 1 1 8 2 0 5920. 5217. 79. o
1841 3 -1 -8 -2 -1 60. 53. 56. <
1841 1 1 8 2 1 60. 53. 56. <
1842 3 -2 -8 -2 1 68. 101. 217. <
1842 1 2 8 2 -1 68. 101. 217. <
1843 4 -2 8 2 0 33692. 33312. 216. o
1843 3 -2 -8 -2 0 33692. 33312. 216. o
1843 2 2 -8 -2 0 33692. 33312. 216. o
1843 1 2 8 2 0 33692. 33312. 216. o
1844 3 -2 -8 -2 -1 319. 243. 214. <
1844 1 2 8 2 1 319. 243. 214. <
1845 3 -3 -8 -2 1 94. -20. 57. <
1845 1 3 8 2 -1 94. -20. 57. <
1846 4 -3 8 2 0 2057. 1567. 99. o
1846 3 -3 -8 -2 0 2057. 1567. 99. o
1846 2 3 -8 -2 0 2057. 1567. 99. o
1846 1 3 8 2 0 2057. 1567. 99. o
1847 3 -3 -8 -2 -1 42. 50. 62. <
1847 1 3 8 2 1 42. 50. 62. <
1848 3 10 -9 -2 1 595. 1459. 212. o
1848 1 -10 9 2 -1 595. 1459. 212. o
1849 4 10 9 2 0 9131. 8797. 209. o
1849 3 10 -9 -2 0 9131. 8797. 209. o
1849 2 -10 -9 -2 0 9131. 8797. 209. o
1849 1 -10 9 2 0 9131. 8797. 209. o
1850 3 10 -9 -2 -1 7. -27. 207. <
1850 1 -10 9 2 1 7. -27. 207. <
1851 3 9 -9 -2 1 319. 1069. 361. o
1851 1 -9 9 2 -1 319. 1069. 361. o
1852 4 9 9 2 0 55699. 56362. 358. o
1852 3 9 -9 -2 0 55699. 56362. 358. o
1852 2 -9 -9 -2 0 55699. 56362. 358. o
1852 1 -9 9 2 0 55699. 56362. 358. o
1853 3 9 -9 -2 -1 395. 386. 355. <
1853 1 -9 9 2 1 395. 386. 355. <
1854 3 8 -9 -2 1 50. -4. 134. <
1854 1 -8 9 2 -1 50. -4. 134. <
1855 4 8 9 2 0 538. 397. 134. o
1855 3 8 -9 -2 0 538. 397. 134. o
1855 2 -8 -9 -2 0 538. 397. 134. o
1855 1 -8 9 2 0 538. 397. 134. o
1856 3 8 -9 -2 -1 167. 104. 133. <
1856 1 -8 9 2 1 167. 104. 133. <
1857 3 7 -9 -2 1 317. 12. 170. <
1857 1 -7 9 2 -1 317. 12. 170. <
1858 4 7 9 2 0 420. 695. 172. o
1858 3 7 -9 -2 0 420. 695. 172. o
1858 2 -7 -9 -2 0 420. 695. 172. o
1858 1 -7 9 2 0 420. 695. 172. o
1859 3 7 -9 -2 -1 357. 10. 174. <
1859 1 -7 9 2 1 357. 10. 174. <
1860 3 6 -9 -2 1 631. 462. 123. o
1860 1 -6 9 2 -1 631. 462. 123. o
1861 4 6 9 2 0 11238. 13031. 145. o
1861 3 6 -9 -2 0 11238. 13031. 145. o
1861 2 -6 -9 -2 0 11238. 13031. 145. o
1861 1 -6 9 2 0 11238. 13031. 145. o
1862 3 6 -9 -2 -1 282. 182. 122. <
1862 1 -6 9 2 1 282. 182. 122. <
1863 3 5 -9 -2 1 1344. 1732. 109. o
1863 1 -5 9 2 -1 1344. 1732. 109. o
1864 4 5 9 2 0 20801. 23210. 170. o
1864 3 5 -9 -2 0 20801. 23210. 170. o
1864 2 -5 -9 -2 0 20801. 23210. 170. o
1864 1 -5 9 2 0 20801. 23210. 170. o
1865 3 5 -9 -2 -1 489. 649. 100. o
1865 1 -5 9 2 1 489. 649. 100. o
1866 3 4 -9 -2 1 535. 200. 260. <
1866 1 -4 9 2 -1 535. 200. 260. <
1867 4 4 9 2 0 134602. 160207. 524. o
1867 3 4 -9 -2 0 134602. 160207. 524. o
1867 2 -4 -9 -2 0 134602. 160207. 524. o
1867 1 -4 9 2 0 134602. 160207. 524. o
1868 3 4 -9 -2 -1 487. 762. 245. o
1868 1 -4 9 2 1 487. 762. 245. o
1869 3 3 -9 -2 1 371. 337. 90. o
1869 1 -3 9 2 -1 371. 337. 90. o
1870 4 3 9 2 0 4241. 4986. 113. o
1870 3 3 -9 -2 0 4241. 4986. 113. o
1870 2 -3 -9 -2 0 4241. 4986. 113. o
1870 1 -3 9 2 0 4241. 4986. 113. o
1871 3 3 -9 -2 -1 397. 449. 102. o
1871 1 -3 9 2 1 397. 449. 102. o
1872 3 2 -9 -2 1 412. 530. 55. o
1872 1 -2 9 2 -1 412. 530. 55. o
1873 4 2 9 2 0 3328. 2863. 65. o
1873 3 2 -9 -2 0 3328. 2863. 65. o
1873 2 -2 -9 -2 0 3328. 2863. 65. o
1873 1 -2 9 2 0 3328. 2863. 65. o
1874 3 2 -9 -2 -1 622. 553. 56. o
1874 1 -2 9 2 1 622. 553. 56. o
1875 3 1 -9 -2 1 46. 451. 52. o
1875 1 -1 9 2 -1 46. 451. 52. o
1876 4 1 9 2 0 3749. 2975. 62. o
1876 3 1 -9 -2 0 3749. 2975. 62. o
1876 2 -1 -9 -2 0 3749. 2975. 62. o
1876 1 -1 9 2 0 3749. 2975. 62. o
1877 3 1 -9 -2 -1 149. 453. 51. o
1877 1 -1 9 2 1 149. 453. 51. o
1878 3 0 -9 -2 1 205. 237. 61. o
1878 1 0 9 2 -1 205. 237. 61. o
1879 4 0 9 2 0 319. 310. 61. o
1879 3 0 -9 -2 0 319. 310. 61. o
1879 2 0 -9 -2 0 319. 310. 61. o
1879 1 0 9 2 0 319. 310. 61. o
1880 3 0 -9 -2 -1 67. 9. 60. <
1880 1 0 9 2 1 67. 9. 60. <
1881 3 -1 -9 -2 1 320. 318. 76. o
1881 1 1 9 2 -1 320. 318. 76. o
1882 4 -1 9 2 0 3816. 3668. 83. o
1882 3 -1 -9 -2 0 3816. 3668. 83. o
1882 2 1 -9 -2 0 3816. 3668. 83. o
1882 1 1 9 2 0 3816. 3668. 83. o
1883 3 -1 -9 -2 -1 273. 335. 75. o
1883 1 1 9 2 1 273. 335. 75. o
1884 3 -2 -9 -2 1 80. 73. 89. <
1884 1 2 9 2 -1 80. 73. 89. <
1885 4 -2 9 2 0 3342. 3068. 105. o
1885 3 -2 -9 -2 0 3342. 3068. 105. o
1885 2 2 -9 -2 0 3342. 3068. 105. o
1885 1 2 9 2 0 3342. 3068. 105. o
1886 3 -2 -9 -2 -1 601. 427. 165. o
1886 1 2 9 2 1 601. 427. 165. o
1887 3 -3 -9 -2 1 298. 361. 65. o
1887 1 3 9 2 -1 298. 361. 65. o
1888 4 -3 9 2 0 4542. 4176. 128. o
1888 3 -3 -9 -2 0 4542. 4176. 128. o
1888 2 3 -9 -2 0 4542. 4176. 128. o
1888 1 3 9 2 0 4542. 4176. 128. o
1889 3 -3 -9 -2 -1 206. 338. 66. o
1889 1 3 9 2 1 206. 338. 66. o
1890 4 -4 9 2 0 136826. 134860. 639. o
1890 3 -4 -9 -2 0 136826. 134860. 639. o
1890 2 4 -9 -2 0 136826. 134860. 639. o
1890 1 4 9 2 0 136826. 134860. 639. o
1891 3 9 -10 -2 1 320. 61. 210. <
1891 1 -9 10 2 -1 320. 61. 210. <
1892 4 9 10 2 0 9373. 10079. 209. o
1892 3 9 -10 -2 0 9373. 10079. 209. o
1892 2 -9 -10 -2 0 9373. 10079. 209. o
1892 1 -9 10 2 0 9373. 10079. 209. o
1893 3 9 -10 -2 -1 107. 215. 208. <
1893 1 -9 10 2 1 107. 215. 208. <
1894 3 8 -10 -2 1 829. 479. 227. o
1894 1 -8 10 2 -1 829. 479. 227. o
1895 4 8 10 2 0 16150. 16815. 226. o
1895 3 8 -10 -2 0 16150. 16815. 226. o
1895 2 -8 -10 -2 0 16150. 16815. 226. o
1895 1 -8 10 2 0 16150. 16815. 226. o
1896 3 8 -10 -2 -1 150. 251. 226. <
1896 1 -8 10 2 1 150. 251. 226. <
1897 3 7 -10 -2 1 446. 315. 201. <
1897 1 -7 10 2 -1 446. 315. 201. <
1898 4 7 10 2 0 13944. 13328. 201. o
1898 3 7 -10 -2 0 13944. 13328. 201. o
1898 2 -7 -10 -2 0 13944. 13328. 201. o
1898 1 -7 10 2 0 13944. 13328. 201. o
1899 3 7 -10 -2 -1 103. 118. 201. <
1899 1 -7 10 2 1 103. 118. 201. <
1900 3 6 -10 -2 1 54. 42. 190. <
1900 1 -6 10 2 -1 54. 42. 190. <
1901 4 6 10 2 0 11434. 12489. 191. o
1901 3 6 -10 -2 0 11434. 12489. 191. o
1901 2 -6 -10 -2 0 11434. 12489. 191. o
1901 1 -6 10 2 0 11434. 12489. 191. o
1902 3 6 -10 -2 -1 94. 72. 191. <
1902 1 -6 10 2 1 94. 72. 191. <
1903 3 5 -10 -2 1 547. 411. 145. o
1903 1 -5 10 2 -1 547. 411. 145. o
1904 4 5 10 2 0 7236. 8056. 146. o
1904 3 5 -10 -2 0 7236. 8056. 146. o
1904 2 -5 -10 -2 0 7236. 8056. 146. o
1904 1 -5 10 2 0 7236. 8056. 146. o
1905 3 5 -10 -2 -1 204. 70. 141. <
1905 1 -5 10 2 1 204. 70. 141. <
1906 3 4 -10 -2 1 28. 49. 83. <
1906 1 -4 10 2 -1 28. 49. 83. <
1907 4 4 10 2 0 823. 819. 85. o
1907 3 4 -10 -2 0 823. 819. 85. o
1907 2 -4 -10 -2 0 823. 819. 85. o
1907 1 -4 10 2 0 823. 819. 85. o
1908 3 4 -10 -2 -1 27. 0. 79. <
1908 1 -4 10 2 1 27. 0. 79. <
1909 3 3 -10 -2 1 170. 202. 128. <
1909 1 -3 10 2 -1 170. 202. 128. <
1910 4 3 10 2 0 12476. 13235. 138. o
1910 3 3 -10 -2 0 12476. 13235. 138. o
1910 2 -3 -10 -2 0 12476. 13235. 138. o
1910 1 -3 10 2 0 12476. 13235. 138. o
1911 3 3 -10 -2 -1 1045. 1048. 123. o
1911 1 -3 10 2 1 1045. 1048. 123. o
1912 3 2 -10 -2 1 571. 732. 87. o
1912 1 -2 10 2 -1 571. 732. 87. o
1913 4 2 10 2 0 13206. 11565. 102. o
1913 3 2 -10 -2 0 13206. 11565. 102. o
1913 2 -2 -10 -2 0 13206. 11565. 102. o
1913 1 -2 10 2 0 13206. 11565. 102. o
1914 3 2 -10 -2 -1 164. 251. 82. o
1914 1 -2 10 2 1 164. 251. 82. o
1915 3 1 -10 -2 1 6. 24. 67. <
1915 1 -1 10 2 -1 6. 24. 67. <
1916 4 1 10 2 0 11527. 10998. 106. o
1916 3 1 -10 -2 0 11527. 10998. 106. o
1916 2 -1 -10 -2 0 11527. 10998. 106. o
1916 1 -1 10 2 0 11527. 10998. 106. o
1917 3 1 -10 -2 -1 45. 85. 89. <
1917 1 -1 10 2 1 45. 85. 89. <
1918 3 0 -10 -2 1 80. 315. 85. o
1918 1 0 10 2 -1 80. 315. 85. o
1919 4 0 10 2 0 2229. 1938. 85. o
1919 3 0 -10 -2 0 2229. 1938. 85. o
1919 2 0 -10 -2 0 2229. 1938. 85. o
1919 1 0 10 2 0 2229. 1938. 85. o
1920 3 0 -10 -2 -1 39. 344. 84. o
1920 1 0 10 2 1 39. 344. 84. o
1921 3 -1 -10 -2 1 165. 10. 148. <
1921 1 1 10 2 -1 165. 10. 148. <
1922 4 -1 10 2 0 11459. 11176. 147. o
1922 3 -1 -10 -2 0 11459. 11176. 147. o
1922 2 1 -10 -2 0 11459. 11176. 147. o
1922 1 1 10 2 0 11459. 11176. 147. o
1923 3 -1 -10 -2 -1 138. 41. 146. <
1923 1 1 10 2 1 138. 41. 146. <
1924 3 -2 -10 -2 1 387. 513. 119. o
1924 1 2 10 2 -1 387. 513. 119. o
1925 4 -2 10 2 0 13316. 12062. 149. o
1925 3 -2 -10 -2 0 13316. 12062. 149. o
1925 2 2 -10 -2 0 13316. 12062. 149. o
1925 1 2 10 2 0 13316. 12062. 149. o
1926 3 -2 -10 -2 -1 473. 503. 117. o
1926 1 2 10 2 1 473. 503. 117. o
1927 3 -4 -10 -2 1 122. 20. 58. <
1927 1 4 10 2 -1 122. 20. 58. <
1928 4 -4 10 2 0 910. 947. 97. o
1928 3 -4 -10 -2 0 910. 947. 97. o
1928 2 4 -10 -2 0 910. 947. 97. o
1928 1 4 10 2 0 910. 947. 97. o
1929 3 -4 -10 -2 -1 65. 71. 64. <
1929 1 4 10 2 1 65. 71. 64. <
1930 3 -5 -10 -2 1 54. -4. 63. <
1930 1 5 10 2 -1 54. -4. 63. <
1931 4 -5 10 2 0 7457. 6946. 201. o
1931 3 -5 -10 -2 0 7457. 6946. 201. o
1931 2 5 -10 -2 0 7457. 6946. 201. o
1931 1 5 10 2 0 7457. 6946. 201. o
1932 3 -5 -10 -2 -1 80. 118. 200. <
1932 1 5 10 2 1 80. 118. 200. <
1933 3 8 -11 -2 1 581. 598. 167. o
1933 1 -8 11 2 -1 581. 598. 167. o
1934 4 8 11 2 0 1144. 1332. 167. o
1934 3 8 -11 -2 0 1144. 1332. 167. o
1934 2 -8 -11 -2 0 1144. 1332. 167. o
1934 1 -8 11 2 0 1144. 1332. 167. o
1935 3 8 -11 -2 -1 255. 265. 168. <
1935 1 -8 11 2 1 255. 265. 168. <
1936 3 7 -11 -2 1 437. 436. 176. o
1936 1 -7 11 2 -1 437. 436. 176. o
1937 4 7 11 2 0 4594. 5178. 177. o
1937 3 7 -11 -2 0 4594. 5178. 177. o
1937 2 -7 -11 -2 0 4594. 5178. 177. o
1937 1 -7 11 2 0 4594. 5178. 177. o
1938 3 7 -11 -2 -1 30. 56. 177. <
1938 1 -7 11 2 1 30. 56. 177. <
1939 3 6 -11 -2 1 145. 117. 302. <
1939 1 -6 11 2 -1 145. 117. 302. <
1940 4 6 11 2 0 8181. 10219. 307. o
1940 3 6 -11 -2 0 8181. 10219. 307. o
1940 2 -6 -11 -2 0 8181. 10219. 307. o
1940 1 -6 11 2 0 8181. 10219. 307. o
1941 3 6 -11 -2 -1 223. 251. 311. <
1941 1 -6 11 2 1 223. 251. 311. <
1942 3 5 -11 -2 1 888. 251. 522. <
1942 1 -5 11 2 -1 888. 251. 522. <
1943 4 5 11 2 0 123928. 138463. 496. o
1943 3 5 -11 -2 0 123928. 138463. 496. o
1943 2 -5 -11 -2 0 123928. 138463. 496. o
1943 1 -5 11 2 0 123928. 138463. 496. o
1944 3 5 -11 -2 -1 716. 604. 478. <
1944 1 -5 11 2 1 716. 604. 478. <
1945 3 4 -11 -2 1 1110. 2954. 185. o
1945 1 -4 11 2 -1 1110. 2954. 185. o
1946 4 4 11 2 0 22522. 23881. 220. o
1946 3 4 -11 -2 0 22522. 23881. 220. o
1946 2 -4 -11 -2 0 22522. 23881. 220. o
1946 1 -4 11 2 0 22522. 23881. 220. o
1947 3 4 -11 -2 -1 1411. 2921. 173. o
1947 1 -4 11 2 1 1411. 2921. 173. o
1948 3 3 -11 -2 1 28. 71. 169. <
1948 1 -3 11 2 -1 28. 71. 169. <
1949 4 3 11 2 0 45105. 46651. 186. o
1949 3 3 -11 -2 0 45105. 46651. 186. o
1949 2 -3 -11 -2 0 45105. 46651. 186. o
1949 1 -3 11 2 0 45105. 46651. 186. o
1950 3 3 -11 -2 -1 57. 119. 134. <
1950 1 -3 11 2 1 57. 119. 134. <
1951 3 2 -11 -2 1 203. 186. 66. o
1951 1 -2 11 2 -1 203. 186. 66. o
1952 4 2 11 2 0 4072. 4083. 78. o
1952 3 2 -11 -2 0 4072. 4083. 78. o
1952 2 -2 -11 -2 0 4072. 4083. 78. o
1952 1 -2 11 2 0 4072. 4083. 78. o
1953 3 2 -11 -2 -1 71. 16. 71. <
1953 1 -2 11 2 1 71. 16. 71. <
1954 3 1 -11 -2 1 109. 53. 127. <
1954 1 -1 11 2 -1 109. 53. 127. <
1955 4 1 11 2 0 13024. 12860. 125. o
1955 3 1 -11 -2 0 13024. 12860. 125. o
1955 2 -1 -11 -2 0 13024. 12860. 125. o
1955 1 -1 11 2 0 13024. 12860. 125. o
1956 3 1 -11 -2 -1 548. 453. 124. o
1956 1 -1 11 2 1 548. 453. 124. o
1957 3 0 -11 -2 1 202. 220. 79. o
1957 1 0 11 2 -1 202. 220. 79. o
1958 4 0 11 2 0 471. 424. 79. o
1958 3 0 -11 -2 0 471. 424. 79. o
1958 2 0 -11 -2 0 471. 424. 79. o
1958 1 0 11 2 0 471. 424. 79. o
1959 3 0 -11 -2 -1 343. 306. 78. o
1959 1 0 11 2 1 343. 306. 78. o
1960 3 -1 -11 -2 1 210. 120. 218. <
1960 1 1 11 2 -1 210. 120. 218. <
1961 4 -1 11 2 0 13360. 12773. 216. o
1961 3 -1 -11 -2 0 13360. 12773. 216. o
1961 2 1 -11 -2 0 13360. 12773. 216. o
1961 1 1 11 2 0 13360. 12773. 216. o
1962 3 -1 -11 -2 -1 61. 49. 214. <
1962 1 1 11 2 1 61. 49. 214. <
1963 3 -2 -11 -2 1 414. 299. 127. o
1963 1 2 11 2 -1 414. 299. 127. o
1964 4 -2 11 2 0 4025. 4010. 126. o
1964 3 -2 -11 -2 0 4025. 4010. 126. o
1964 2 2 -11 -2 0 4025. 4010. 126. o
1964 1 2 11 2 0 4025. 4010. 126. o
1965 3 -2 -11 -2 -1 263. 182. 125. <
1965 1 2 11 2 1 263. 182. 125. <
1966 3 -3 -11 -2 1 179. 471. 269. <
1966 1 3 11 2 -1 179. 471. 269. <
1967 4 -3 11 2 0 46850. 45034. 267. o
1967 3 -3 -11 -2 0 46850. 45034. 267. o
1967 2 3 -11 -2 0 46850. 45034. 267. o
1967 1 3 11 2 0 46850. 45034. 267. o
1968 3 -3 -11 -2 -1 213. 490. 184. o
1968 1 3 11 2 1 213. 490. 184. o
1969 3 -4 -11 -2 1 188. 187. 292. <
1969 1 4 11 2 -1 188. 187. 292. <
1970 4 -4 11 2 0 23055. 21945. 291. o
1970 3 -4 -11 -2 0 23055. 21945. 291. o
1970 2 4 -11 -2 0 23055. 21945. 291. o
1970 1 4 11 2 0 23055. 21945. 291. o
1971 3 -4 -11 -2 -1 723. 704. 289. o
1971 1 4 11 2 1 723. 704. 289. o
1972 3 -6 -11 -2 1 15. 84. 237. <
1972 1 6 11 2 -1 15. 84. 237. <
1973 4 -6 11 2 0 8659. 8248. 234. o
1973 3 -6 -11 -2 0 8659. 8248. 234. o
1973 2 6 -11 -2 0 8659. 8248. 234. o
1973 1 6 11 2 0 8659. 8248. 234. o
1974 3 -6 -11 -2 -1 77. 86. 231. <
1974 1 6 11 2 1 77. 86. 231. <
1975 3 -7 -11 -2 1 99. 236. 245. <
1975 1 7 11 2 -1 99. 236. 245. <
1976 4 -7 11 2 0 5048. 4624. 241. o
1976 3 -7 -11 -2 0 5048. 4624. 241. o
1976 2 7 -11 -2 0 5048. 4624. 241. o
1976 1 7 11 2 0 5048. 4624. 241. o
1977 3 -7 -11 -2 -1 223. 52. 237. <
1977 1 7 11 2 1 223. 52. 237. <
1978 3 6 -12 -2 1 47. 51. 220. <
1978 1 -6 12 2 -1 47. 51. 220. <
1979 4 6 12 2 0 13751. 15077. 213. o
1979 3 6 -12 -2 0 13751. 15077. 213. o
1979 2 -6 -12 -2 0 13751. 15077. 213. o
1979 1 -6 12 2 0 13751. 15077. 213. o
1980 3 6 -12 -2 -1 75. 43. 208. <
1980 1 -6 12 2 1 75. 43. 208. <
1981 3 5 -12 -2 1 516. 559. 145. o
1981 1 -5 12 2 -1 516. 559. 145. o
1982 4 5 12 2 0 1651. 1545. 141. o
1982 3 5 -12 -2 0 1651. 1545. 141. o
1982 2 -5 -12 -2 0 1651. 1545. 141. o
1982 1 -5 12 2 0 1651. 1545. 141. o
1983 3 5 -12 -2 -1 57. 48. 137. <
1983 1 -5 12 2 1 57. 48. 137. <
1984 3 4 -12 -2 1 220. 311. 85. o
1984 1 -4 12 2 -1 220. 311. 85. o
1985 4 4 12 2 0 481. 530. 84. o
1985 3 4 -12 -2 0 481. 530. 84. o
1985 2 -4 -12 -2 0 481. 530. 84. o
1985 1 -4 12 2 0 481. 530. 84. o
1986 3 4 -12 -2 -1 82. 47. 80. <
1986 1 -4 12 2 1 82. 47. 80. <
1987 3 3 -12 -2 1 468. 482. 107. o
1987 1 -3 12 2 -1 468. 482. 107. o
1988 4 3 12 2 0 28112. 27204. 170. o
1988 3 3 -12 -2 0 28112. 27204. 170. o
1988 2 -3 -12 -2 0 28112. 27204. 170. o
1988 1 -3 12 2 0 28112. 27204. 170. o
1989 3 3 -12 -2 -1 185. 152. 137. <
1989 1 -3 12 2 1 185. 152. 137. <
1990 3 2 -12 -2 1 50. 84. 84. <
1990 1 -2 12 2 -1 50. 84. 84. <
1991 4 2 12 2 0 788. 560. 83. o
1991 3 2 -12 -2 0 788. 560. 83. o
1991 2 -2 -12 -2 0 788. 560. 83. o
1991 1 -2 12 2 0 788. 560. 83. o
1992 3 2 -12 -2 -1 31. 77. 81. <
1992 1 -2 12 2 1 31. 77. 81. <
1993 3 1 -12 -2 1 447. 155. 244. <
1993 1 -1 12 2 -1 447. 155. 244. <
1994 4 1 12 2 0 67050. 66462. 241. o
1994 3 1 -12 -2 0 67050. 66462. 241. o
1994 2 -1 -12 -2 0 67050. 66462. 241. o
1994 1 -1 12 2 0 67050. 66462. 241. o
1995 3 1 -12 -2 -1 466. 349. 238. <
1995 1 -1 12 2 1 466. 349. 238. <
1996 3 0 -12 -2 1 414. 525. 206. o
1996 1 0 12 2 -1 414. 525. 206. o
1997 4 0 12 2 0 25405. 25664. 204. o
1997 3 0 -12 -2 0 25405. 25664. 204. o
1997 2 0 -12 -2 0 25405. 25664. 204. o
1997 1 0 12 2 0 25405. 25664. 204. o
1998 3 0 -12 -2 -1 554. 705. 202. o
1998 1 0 12 2 1 554. 705. 202. o
1999 3 -2 -12 -2 1 97. 31. 108. <
1999 1 2 12 2 -1 97. 31. 108. <
2000 4 -2 12 2 0 756. 752. 108. o
2000 3 -2 -12 -2 0 756. 752. 108. o
2000 2 2 -12 -2 0 756. 752. 108. o
2000 1 2 12 2 0 756. 752. 108. o
2001 3 -2 -12 -2 -1 20. 33. 107. <
2001 1 2 12 2 1 20. 33. 107. <
2002 3 -3 -12 -2 1 162. 176. 225. <
2002 1 3 12 2 -1 162. 176. 225. <
2003 4 -3 12 2 0 29134. 28768. 223. o
2003 3 -3 -12 -2 0 29134. 28768. 223. o
2003 2 3 -12 -2 0 29134. 28768. 223. o
2003 1 3 12 2 0 29134. 28768. 223. o
2004 3 -3 -12 -2 -1 49. 110. 222. <
2004 1 3 12 2 1 49. 110. 222. <
2005 3 -4 -12 -2 1 107. 25. 115. <
2005 1 4 12 2 -1 107. 25. 115. <
2006 4 -4 12 2 0 480. 1030. 114. o
2006 3 -4 -12 -2 0 480. 1030. 114. o
2006 2 4 -12 -2 0 480. 1030. 114. o
2006 1 4 12 2 0 480. 1030. 114. o
2007 3 -4 -12 -2 -1 45. -18. 113. <
2007 1 4 12 2 1 45. -18. 113. <
2008 3 -5 -12 -2 1 410. 355. 141. o
2008 1 5 12 2 -1 410. 355. 141. o
2009 4 -5 12 2 0 1618. 1516. 140. o
2009 3 -5 -12 -2 0 1618. 1516. 140. o
2009 2 5 -12 -2 0 1618. 1516. 140. o
2009 1 5 12 2 0 1618. 1516. 140. o
2010 3 -5 -12 -2 -1 391. 408. 138. o
2010 1 5 12 2 1 391. 408. 138. o
2011 3 -6 -12 -2 1 249. 370. 273. <
2011 1 6 12 2 -1 249. 370. 273. <
2012 4 -6 12 2 0 14302. 14603. 270. o
2012 3 -6 -12 -2 0 14302. 14603. 270. o
2012 2 6 -12 -2 0 14302. 14603. 270. o
2012 1 6 12 2 0 14302. 14603. 270. o
2013 3 -6 -12 -2 -1 268. 139. 268. <
2013 1 6 12 2 1 268. 139. 268. <
2014 3 -7 -12 -2 1 270. 271. 75. o
2014 1 7 12 2 -1 270. 271. 75. o
2015 3 4 -13 -2 1 23. 24. 128. <
2015 1 -4 13 2 -1 23. 24. 128. <
2016 4 4 13 2 0 2185. 2099. 126. o
2016 3 4 -13 -2 0 2185. 2099. 126. o
2016 2 -4 -13 -2 0 2185. 2099. 126. o
2016 1 -4 13 2 0 2185. 2099. 126. o
2017 3 4 -13 -2 -1 37. 25. 123. <
2017 1 -4 13 2 1 37. 25. 123. <
2018 3 3 -13 -2 1 518. 401. 204. <
2018 1 -3 13 2 -1 518. 401. 204. <
2019 4 3 13 2 0 34870. 36703. 200. o
2019 3 3 -13 -2 0 34870. 36703. 200. o
2019 2 -3 -13 -2 0 34870. 36703. 200. o
2019 1 -3 13 2 0 34870. 36703. 200. o
2020 3 3 -13 -2 -1 195. 268. 197. <
2020 1 -3 13 2 1 195. 268. 197. <
2021 3 2 -13 -2 1 104. 149. 87. <
2021 1 -2 13 2 -1 104. 149. 87. <
2022 4 2 13 2 0 488. 589. 86. o
2022 3 2 -13 -2 0 488. 589. 86. o
2022 2 -2 -13 -2 0 488. 589. 86. o
2022 1 -2 13 2 0 488. 589. 86. o
2023 3 2 -13 -2 -1 33. 10. 85. <
2023 1 -2 13 2 1 33. 10. 85. <
2024 3 1 -13 -2 1 377. 74. 106. <
2024 1 -1 13 2 -1 377. 74. 106. <
2025 4 1 13 2 0 648. 668. 105. o
2025 3 1 -13 -2 0 648. 668. 105. o
2025 2 -1 -13 -2 0 648. 668. 105. o
2025 1 -1 13 2 0 648. 668. 105. o
2026 3 1 -13 -2 -1 532. 274. 103. o
2026 1 -1 13 2 1 532. 274. 103. o
2027 3 0 -13 -2 1 470. 440. 110. o
2027 1 0 13 2 -1 470. 440. 110. o
2028 4 0 13 2 0 526. 717. 109. o
2028 3 0 -13 -2 0 526. 717. 109. o
2028 2 0 -13 -2 0 526. 717. 109. o
2028 1 0 13 2 0 526. 717. 109. o
2029 3 0 -13 -2 -1 282. 268. 108. o
2029 1 0 13 2 1 282. 268. 108. o
2030 3 -1 -13 -2 1 260. 456. 108. o
2030 1 1 13 2 -1 260. 456. 108. o
2031 4 -1 13 2 0 714. 965. 107. o
2031 3 -1 -13 -2 0 714. 965. 107. o
2031 2 1 -13 -2 0 714. 965. 107. o
2031 1 1 13 2 0 714. 965. 107. o
2032 3 -1 -13 -2 -1 56. 30. 106. <
2032 1 1 13 2 1 56. 30. 106. <
2033 3 -2 -13 -2 1 128. 60. 99. <
2033 1 2 13 2 -1 128. 60. 99. <
2034 4 -2 13 2 0 452. 417. 98. o
2034 3 -2 -13 -2 0 452. 417. 98. o
2034 2 2 -13 -2 0 452. 417. 98. o
2034 1 2 13 2 0 452. 417. 98. o
2035 3 -2 -13 -2 -1 211. 162. 98. <
2035 1 2 13 2 1 211. 162. 98. <
2036 3 -3 -13 -2 1 279. 191. 368. <
2036 1 3 13 2 -1 279. 191. 368. <
2037 4 -3 13 2 0 36330. 38769. 366. o
2037 3 -3 -13 -2 0 36330. 38769. 366. o
2037 2 3 -13 -2 0 36330. 38769. 366. o
2037 1 3 13 2 0 36330. 38769. 366. o
2038 3 -3 -13 -2 -1 88. 197. 364. <
2038 1 3 13 2 1 88. 197. 364. <
2039 3 -4 -13 -2 1 130. 54. 124. <
2039 1 4 13 2 -1 130. 54. 124. <
2040 4 -4 13 2 0 2269. 2085. 124. o
2040 3 -4 -13 -2 0 2269. 2085. 124. o
2040 2 4 -13 -2 0 2269. 2085. 124. o
2040 1 4 13 2 0 2269. 2085. 124. o
2041 3 -4 -13 -2 -1 118. 51. 123. <
2041 1 4 13 2 1 118. 51. 123. <
2042 3 -5 -13 -2 1 327. 288. 53. o
2042 1 5 13 2 -1 327. 288. 53. o
2043 3 1 0 -3 -1 33. 23. 15. <
2043 1 -1 0 3 1 33. 23. 15. <
2044 4 1 0 3 0 953. 1159. 31. o
2044 3 1 0 -3 0 953. 1159. 31. o
2044 2 -1 0 -3 0 953. 1159. 31. o
2044 1 -1 0 3 0 953. 1159. 31. o
2045 3 1 0 -3 1 354. 455. 28. o
2045 1 -1 0 3 -1 354. 455. 28. o
2046 3 2 0 -3 -1 622. 653. 32. o
2046 1 -2 0 3 1 622. 653. 32. o
2047 4 2 0 3 0 1980. 2086. 42. o
2047 3 2 0 -3 0 1980. 2086. 42. o
2047 2 -2 0 -3 0 1980. 2086. 42. o
2047 1 -2 0 3 0 1980. 2086. 42. o
2048 3 2 0 -3 1 472. 525. 32. o
2048 1 -2 0 3 -1 472. 525. 32. o
2049 3 3 0 -3 -1 365. 412. 35. o
2049 1 -3 0 3 1 365. 412. 35. o
2050 4 3 0 3 0 21274. 23969. 133. o
2050 3 3 0 -3 0 21274. 23969. 133. o
2050 2 -3 0 -3 0 21274. 23969. 133. o
2050 1 -3 0 3 0 21274. 23969. 133. o
2051 3 3 0 -3 1 111. 136. 25. o
2051 1 -3 0 3 -1 111. 136. 25. o
2052 3 4 0 -3 -1 54. 59. 15. o
2052 1 -4 0 3 1 54. 59. 15. o
2053 4 4 0 3 0 537. 762. 24. o
2053 3 4 0 -3 0 537. 762. 24. o
2053 2 -4 0 -3 0 537. 762. 24. o
2053 1 -4 0 3 0 537. 762. 24. o
2054 3 4 0 -3 1 137. 160. 18. o
2054 1 -4 0 3 -1 137. 160. 18. o
2055 3 5 0 -3 -1 86. 93. 18. o
2055 1 -5 0 3 1 86. 93. 18. o
2056 4 5 0 3 0 8529. 8706. 63. o
2056 3 5 0 -3 0 8529. 8706. 63. o
2056 2 -5 0 -3 0 8529. 8706. 63. o
2056 1 -5 0 3 0 8529. 8706. 63. o
2057 3 5 0 -3 1 98. 80. 18. o
2057 1 -5 0 3 -1 98. 80. 18. o
2058 3 6 0 -3 -1 125. 114. 19. o
2058 1 -6 0 3 1 125. 114. 19. o
2059 4 6 0 3 0 345. 373. 26. o
2059 3 6 0 -3 0 345. 373. 26. o
2059 2 -6 0 -3 0 345. 373. 26. o
2059 1 -6 0 3 0 345. 373. 26. o
2060 3 6 0 -3 1 32. 44. 18. o
2060 1 -6 0 3 -1 32. 44. 18. o
2061 3 7 0 -3 -1 34. 20. 21. <
2061 1 -7 0 3 1 34. 20. 21. <
2062 4 7 0 3 0 17702. 19004. 109. o
2062 3 7 0 -3 0 17702. 19004. 109. o
2062 2 -7 0 -3 0 17702. 19004. 109. o
2062 1 -7 0 3 0 17702. 19004. 109. o
2063 3 7 0 -3 1 428. 460. 33. o
2063 1 -7 0 3 -1 428. 460. 33. o
2064 3 8 0 -3 -1 2392. 2638. 82. o
2064 1 -8 0 3 1 2392. 2638. 82. o
2065 4 8 0 3 0 8283. 7663. 121. o
2065 3 8 0 -3 0 8283. 7663. 121. o
2065 2 -8 0 -3 0 8283. 7663. 121. o
2065 1 -8 0 3 0 8283. 7663. 121. o
2066 3 8 0 -3 1 1973. 1931. 76. o
2066 1 -8 0 3 -1 1973. 1931. 76. o
2067 3 9 0 -3 -1 735. 741. 62. o
2067 1 -9 0 3 1 735. 741. 62. o
2068 4 9 0 3 0 154940. 156871. 899. o
2068 3 9 0 -3 0 154940. 156871. 899. o
2068 2 -9 0 -3 0 154940. 156871. 899. o
2068 1 -9 0 3 0 154940. 156871. 899. o
2069 3 9 0 -3 1 91. 101. 47. o
2069 1 -9 0 3 -1 91. 101. 47. o
2070 3 10 0 -3 -1 267. 100. 113. <
2070 1 -10 0 3 1 267. 100. 113. <
2071 4 10 0 3 0 460. 677. 113. o
2071 3 10 0 -3 0 460. 677. 113. o
2071 2 -10 0 -3 0 460. 677. 113. o
2071 1 -10 0 3 0 460. 677. 113. o
2072 3 10 0 -3 1 131. 78. 113. <
2072 1 -10 0 3 -1 131. 78. 113. <
2073 3 11 0 -3 -1 278. 488. 207. o
2073 1 -11 0 3 1 278. 488. 207. o
2074 4 11 0 3 0 12287. 11439. 207. o
2074 3 11 0 -3 0 12287. 11439. 207. o
2074 2 -11 0 -3 0 12287. 11439. 207. o
2074 1 -11 0 3 0 12287. 11439. 207. o
2075 3 11 0 -3 1 177. 476. 207. o
2075 1 -11 0 3 -1 177. 476. 207. o
2076 3 12 0 -3 -1 1215. 380. 177. o
2076 1 -12 0 3 1 1215. 380. 177. o
2077 4 12 0 3 0 3999. 4972. 177. o
2077 3 12 0 -3 0 3999. 4972. 177. o
2077 2 -12 0 -3 0 3999. 4972. 177. o
2077 1 -12 0 3 0 3999. 4972. 177. o
2078 3 12 0 -3 1 704. 692. 177. o
2078 1 -12 0 3 -1 704. 692. 177. o
2079 3 13 0 -3 -1 919. 648. 263. o
2079 1 -13 0 3 1 919. 648. 263. o
2080 4 13 0 3 0 15669. 15709. 263. o
2080 3 13 0 -3 0 15669. 15709. 263. o
2080 2 -13 0 -3 0 15669. 15709. 263. o
2080 1 -13 0 3 0 15669. 15709. 263. o
2081 3 13 0 -3 1 364. 833. 264. o
2081 1 -13 0 3 -1 364. 833. 264. o
2082 3 13 -1 -3 1 650. 1858. 280. o
2082 1 -13 1 3 -1 650. 1858. 280. o
2083 4 13 1 3 0 19224. 18082. 280. o
2083 3 13 -1 -3 0 19224. 18082. 280. o
2083 2 -13 -1 -3 0 19224. 18082. 280. o
2083 1 -13 1 3 0 19224. 18082. 280. o
2084 3 13 -1 -3 -1 289. 732. 280. o
2084 1 -13 1 3 1 289. 732. 280. o
2085 3 12 -1 -3 1 242. 2752. 389. o
2085 1 -12 1 3 -1 242. 2752. 389. o
2086 4 12 1 3 0 50771. 48406. 389. o
2086 3 12 -1 -3 0 50771. 48406. 389. o
2086 2 -12 -1 -3 0 50771. 48406. 389. o
2086 1 -12 1 3 0 50771. 48406. 389. o
2087 3 12 -1 -3 -1 248. 1360. 389. o
2087 1 -12 1 3 1 248. 1360. 389. o
2088 3 11 -1 -3 1 1411. 1274. 150. o
2088 1 -11 1 3 -1 1411. 1274. 150. o
2089 4 11 1 3 0 2270. 2576. 150. o
2089 3 11 -1 -3 0 2270. 2576. 150. o
2089 2 -11 -1 -3 0 2270. 2576. 150. o
2089 1 -11 1 3 0 2270. 2576. 150. o
2090 3 11 -1 -3 -1 845. 126. 150. <
2090 1 -11 1 3 1 845. 126. 150. <
2091 3 10 -1 -3 1 26. 8. 103. <
2091 1 -10 1 3 -1 26. 8. 103. <
2092 4 10 1 3 0 1043. 1084. 103. o
2092 3 10 -1 -3 0 1043. 1084. 103. o
2092 2 -10 -1 -3 0 1043. 1084. 103. o
2092 1 -10 1 3 0 1043. 1084. 103. o
2093 3 10 -1 -3 -1 28. 16. 49. <
2093 1 -10 1 3 1 28. 16. 49. <
2094 3 9 -1 -3 1 567. 514. 61. o
2094 1 -9 1 3 -1 567. 514. 61. o
2095 4 9 1 3 0 1179. 1126. 75. o
2095 3 9 -1 -3 0 1179. 1126. 75. o
2095 2 -9 -1 -3 0 1179. 1126. 75. o
2095 1 -9 1 3 0 1179. 1126. 75. o
2096 3 9 -1 -3 -1 365. 355. 51. o
2096 1 -9 1 3 1 365. 355. 51. o
2097 3 8 -1 -3 1 1352. 1472. 68. o
2097 1 -8 1 3 -1 1352. 1472. 68. o
2098 4 8 1 3 0 63879. 69905. 340. o
2098 3 8 -1 -3 0 63879. 69905. 340. o
2098 2 -8 -1 -3 0 63879. 69905. 340. o
2098 1 -8 1 3 0 63879. 69905. 340. o
2099 3 8 -1 -3 -1 175. 212. 45. o
2099 1 -8 1 3 1 175. 212. 45. o
2100 3 7 -1 -3 1 779. 688. 42. o
2100 1 -7 1 3 -1 779. 688. 42. o
2101 4 7 1 3 0 1107. 1004. 43. o
2101 3 7 -1 -3 0 1107. 1004. 43. o
2101 2 -7 -1 -3 0 1107. 1004. 43. o
2101 1 -7 1 3 0 1107. 1004. 43. o
2102 3 7 -1 -3 -1 549. 411. 42. o
2102 1 -7 1 3 1 549. 411. 42. o
2103 3 6 -1 -3 1 67. 46. 21. o
2103 1 -6 1 3 -1 67. 46. 21. o
2104 4 6 1 3 0 2991. 3095. 44. o
2104 3 6 -1 -3 0 2991. 3095. 44. o
2104 2 -6 -1 -3 0 2991. 3095. 44. o
2104 1 -6 1 3 0 2991. 3095. 44. o
2105 3 6 -1 -3 -1 62. 63. 22. o
2105 1 -6 1 3 1 62. 63. 22. o
2106 3 5 -1 -3 1 411. 406. 28. o
2106 1 -5 1 3 -1 411. 406. 28. o
2107 4 5 1 3 0 86399. 93228. 680. o
2107 3 5 -1 -3 0 86399. 93228. 680. o
2107 2 -5 -1 -3 0 86399. 93228. 680. o
2107 1 -5 1 3 0 86399. 93228. 680. o
2108 3 5 -1 -3 -1 541. 586. 29. o
2108 1 -5 1 3 1 541. 586. 29. o
2109 3 4 -1 -3 1 278. 309. 32. o
2109 1 -4 1 3 -1 278. 309. 32. o
2110 4 4 1 3 0 1309. 1711. 39. o
2110 3 4 -1 -3 0 1309. 1711. 39. o
2110 2 -4 -1 -3 0 1309. 1711. 39. o
2110 1 -4 1 3 0 1309. 1711. 39. o
2111 3 4 -1 -3 -1 125. 133. 28. o
2111 1 -4 1 3 1 125. 133. 28. o
2112 3 3 -1 -3 1 223. 245. 27. o
2112 1 -3 1 3 -1 223. 245. 27. o
2113 4 3 1 3 0 50595. 53282. 366. o
2113 3 3 -1 -3 0 50595. 53282. 366. o
2113 2 -3 -1 -3 0 50595. 53282. 366. o
2113 1 -3 1 3 0 50595. 53282. 366. o
2114 3 3 -1 -3 -1 318. 362. 33. o
2114 1 -3 1 3 1 318. 362. 33. o
2115 3 2 -1 -3 1 152. 135. 21. o
2115 1 -2 1 3 -1 152. 135. 21. o
2116 4 2 1 3 0 313818. 280210. 4190. o
2116 3 2 -1 -3 0 313818. 280210. 4190. o
2116 2 -2 -1 -3 0 313818. 280210. 4190. o
2116 1 -2 1 3 0 313818. 280210. 4190. o
2117 3 2 -1 -3 -1 21. 31. 20. <
2117 1 -2 1 3 1 21. 31. 20. <
2118 3 1 -1 -3 1 892. 966. 32. o
2118 1 -1 1 3 -1 892. 966. 32. o
2119 4 1 1 3 0 20333. 20039. 101. o
2119 3 1 -1 -3 0 20333. 20039. 101. o
2119 2 -1 -1 -3 0 20333. 20039. 101. o
2119 1 -1 1 3 0 20333. 20039. 101. o
2120 3 1 -1 -3 -1 913. 990. 32. o
2120 1 -1 1 3 1 913. 990. 32. o
2121 3 0 -1 -3 1 48. 45. 16. o
2121 1 0 1 3 -1 48. 45. 16. o
2122 4 0 1 3 0 1257. 1371. 31. o
2122 3 0 -1 -3 0 1257. 1371. 31. o
2122 2 0 -1 -3 0 1257. 1371. 31. o
2122 1 0 1 3 0 1257. 1371. 31. o
2123 3 0 -1 -3 -1 358. 376. 27. o
2123 1 0 1 3 1 358. 376. 27. o
2124 3 1 1 -3 -1 3. 4. 16. <
2124 1 -1 -1 3 1 3. 4. 16. <
2125 4 1 -1 3 0 20490. 22258. 104. o
2125 3 1 1 -3 0 20490. 22258. 104. o
2125 2 -1 1 -3 0 20490. 22258. 104. o
2125 1 -1 -1 3 0 20490. 22258. 104. o
2126 3 1 1 -3 1 1. -1. 18. <
2126 1 -1 -1 3 -1 1. -1. 18. <
2127 3 2 1 -3 -1 380. 460. 30. o
2127 1 -2 -1 3 1 380. 460. 30. o
2128 4 2 -1 3 0 313599. 278021. 3545. o
2128 3 2 1 -3 0 313599. 278021. 3545. o
2128 2 -2 1 -3 0 313599. 278021. 3545. o
2128 1 -2 -1 3 0 313599. 278021. 3545. o
2129 3 2 1 -3 1 12. -3. 20. <
2129 1 -2 -1 3 -1 12. -3. 20. <
2130 3 3 1 -3 -1 190. 239. 26. o
2130 1 -3 -1 3 1 190. 239. 26. o
2131 4 -3 1 3 0 50672. 52530. 381. o
2131 3 -3 -1 -3 0 50672. 52530. 381. o
2131 2 3 -1 -3 0 50672. 52530. 381. o
2131 1 3 1 3 0 50672. 52530. 381. o
2132 4 3 -1 3 0 50861. 54258. 304. o
2132 3 3 1 -3 0 50861. 54258. 304. o
2132 2 -3 1 -3 0 50861. 54258. 304. o
2132 1 -3 -1 3 0 50861. 54258. 304. o
2133 3 -3 -1 -3 -1 43. 84. 31. o
2133 1 3 1 3 1 43. 84. 31. o
2134 3 3 1 -3 1 42. 84. 25. o
2134 1 -3 -1 3 -1 42. 84. 25. o
2135 3 4 1 -3 -1 39. 21. 16. <
2135 1 -4 -1 3 1 39. 21. 16. <
2136 4 4 -1 3 0 1281. 1396. 49. o
2136 3 4 1 -3 0 1281. 1396. 49. o
2136 2 -4 1 -3 0 1281. 1396. 49. o
2136 1 -4 -1 3 0 1281. 1396. 49. o
2137 3 4 1 -3 1 23. -7. 25. <
2137 1 -4 -1 3 -1 23. -7. 25. <
2138 3 5 1 -3 -1 140. 151. 20. o
2138 1 -5 -1 3 1 140. 151. 20. o
2139 4 5 -1 3 0 86943. 88992. 346. o
2139 3 5 1 -3 0 86943. 88992. 346. o
2139 2 -5 1 -3 0 86943. 88992. 346. o
2139 1 -5 -1 3 0 86943. 88992. 346. o
2140 3 5 1 -3 1 148. 121. 31. o
2140 1 -5 -1 3 -1 148. 121. 31. o
2141 3 6 1 -3 -1 934. 1034. 34. o
2141 1 -6 -1 3 1 934. 1034. 34. o
2142 4 6 -1 3 0 3068. 3184. 49. o
2142 3 6 1 -3 0 3068. 3184. 49. o
2142 2 -6 1 -3 0 3068. 3184. 49. o
2142 1 -6 -1 3 0 3068. 3184. 49. o
2143 3 6 1 -3 1 678. 723. 33. o
2143 1 -6 -1 3 -1 678. 723. 33. o
2144 3 7 1 -3 -1 5. 5. 22. <
2144 1 -7 -1 3 1 5. 5. 22. <
2145 4 7 -1 3 0 1143. 1227. 41. o
2145 3 7 1 -3 0 1143. 1227. 41. o
2145 2 -7 1 -3 0 1143. 1227. 41. o
2145 1 -7 -1 3 0 1143. 1227. 41. o
2146 3 7 1 -3 1 8. -16. 23. <
2146 1 -7 -1 3 -1 8. -16. 23. <
2147 3 8 1 -3 -1 280. 255. 45. o
2147 1 -8 -1 3 1 280. 255. 45. o
2148 4 8 -1 3 0 63906. 66044. 328. o
2148 3 8 1 -3 0 63906. 66044. 328. o
2148 2 -8 1 -3 0 63906. 66044. 328. o
2148 1 -8 -1 3 0 63906. 66044. 328. o
2149 3 8 1 -3 1 47. -14. 35. <
2149 1 -8 -1 3 -1 47. -14. 35. <
2150 3 9 1 -3 -1 647. 572. 66. o
2150 1 -9 -1 3 1 647. 572. 66. o
2151 4 9 -1 3 0 1242. 1045. 101. o
2151 3 9 1 -3 0 1242. 1045. 101. o
2151 2 -9 1 -3 0 1242. 1045. 101. o
2151 1 -9 -1 3 0 1242. 1045. 101. o
2152 3 9 1 -3 1 577. 623. 102. o
2152 1 -9 -1 3 -1 577. 623. 102. o
2153 3 10 1 -3 -1 12. 21. 119. <
2153 1 -10 -1 3 1 12. 21. 119. <
2154 4 10 -1 3 0 942. 1188. 120. o
2154 3 10 1 -3 0 942. 1188. 120. o
2154 2 -10 1 -3 0 942. 1188. 120. o
2154 1 -10 -1 3 0 942. 1188. 120. o
2155 3 10 1 -3 1 48. 65. 120. <
2155 1 -10 -1 3 -1 48. 65. 120. <
2156 3 11 1 -3 -1 44. 48. 138. <
2156 1 -11 -1 3 1 44. 48. 138. <
2157 4 11 -1 3 0 2282. 2387. 139. o
2157 3 11 1 -3 0 2282. 2387. 139. o
2157 2 -11 1 -3 0 2282. 2387. 139. o
2157 1 -11 -1 3 0 2282. 2387. 139. o
2158 3 11 1 -3 1 115. 122. 139. <
2158 1 -11 -1 3 -1 115. 122. 139. <
2159 3 12 1 -3 -1 549. 962. 384. o
2159 1 -12 -1 3 1 549. 962. 384. o
2160 4 12 -1 3 0 51178. 49414. 386. o
2160 3 12 1 -3 0 51178. 49414. 386. o
2160 2 -12 1 -3 0 51178. 49414. 386. o
2160 1 -12 -1 3 0 51178. 49414. 386. o
2161 3 12 1 -3 1 231. 1239. 387. o
2161 1 -12 -1 3 -1 231. 1239. 387. o
2162 3 13 1 -3 -1 76. 606. 268. o
2162 1 -13 -1 3 1 76. 606. 268. o
2163 4 13 -1 3 0 18917. 16874. 270. o
2163 3 13 1 -3 0 18917. 16874. 270. o
2163 2 -13 1 -3 0 18917. 16874. 270. o
2163 1 -13 -1 3 0 18917. 16874. 270. o
2164 3 13 1 -3 1 213. 1199. 271. o
2164 1 -13 -1 3 -1 213. 1199. 271. o
2165 3 13 -2 -3 1 89. 996. 248. o
2165 1 -13 2 3 -1 89. 996. 248. o
2166 4 13 2 3 0 11820. 12588. 248. o
2166 3 13 -2 -3 0 11820. 12588. 248. o
2166 2 -13 -2 -3 0 11820. 12588. 248. o
2166 1 -13 2 3 0 11820. 12588. 248. o
2167 3 13 -2 -3 -1 451. 431. 249. <
2167 1 -13 2 3 1 451. 431. 249. <
2168 3 12 -2 -3 1 32. 39. 134. <
2168 1 -12 2 3 -1 32. 39. 134. <
2169 4 12 2 3 0 516. 591. 134. o
2169 3 12 -2 -3 0 516. 591. 134. o
2169 2 -12 -2 -3 0 516. 591. 134. o
2169 1 -12 2 3 0 516. 591. 134. o
2170 3 12 -2 -3 -1 64. 32. 134. <
2170 1 -12 2 3 1 64. 32. 134. <
2171 3 11 -2 -3 1 162. 143. 157. <
2171 1 -11 2 3 -1 162. 143. 157. <
2172 4 11 2 3 0 5524. 5623. 158. o
2172 3 11 -2 -3 0 5524. 5623. 158. o
2172 2 -11 -2 -3 0 5524. 5623. 158. o
2172 1 -11 2 3 0 5524. 5623. 158. o
2173 3 11 -2 -3 -1 695. 820. 79. o
2173 1 -11 2 3 1 695. 820. 79. o
2174 3 10 -2 -3 1 368. 416. 60. o
2174 1 -10 2 3 -1 368. 416. 60. o
2175 4 10 2 3 0 5375. 5433. 128. o
2175 3 10 -2 -3 0 5375. 5433. 128. o
2175 2 -10 -2 -3 0 5375. 5433. 128. o
2175 1 -10 2 3 0 5375. 5433. 128. o
2176 3 10 -2 -3 -1 2841. 2896. 104. o
2176 1 -10 2 3 1 2841. 2896. 104. o
2177 3 9 -2 -3 1 29. 42. 46. <
2177 1 -9 2 3 -1 29. 42. 46. <
2178 4 9 2 3 0 685. 676. 73. o
2178 3 9 -2 -3 0 685. 676. 73. o
2178 2 -9 -2 -3 0 685. 676. 73. o
2178 1 -9 2 3 0 685. 676. 73. o
2179 3 9 -2 -3 -1 553. 602. 70. o
2179 1 -9 2 3 1 553. 602. 70. o
2180 3 8 -2 -3 1 82. 48. 87. <
2180 1 -8 2 3 -1 82. 48. 87. <
2181 4 8 2 3 0 8606. 8204. 110. o
2181 3 8 -2 -3 0 8606. 8204. 110. o
2181 2 -8 -2 -3 0 8606. 8204. 110. o
2181 1 -8 2 3 0 8606. 8204. 110. o
2182 3 8 -2 -3 -1 103. 133. 92. <
2182 1 -8 2 3 1 103. 133. 92. <
2183 3 7 -2 -3 1 94. 86. 155. <
2183 1 -7 2 3 -1 94. 86. 155. <
2184 4 7 2 3 0 55360. 52435. 221. o
2184 3 7 -2 -3 0 55360. 52435. 221. o
2184 2 -7 -2 -3 0 55360. 52435. 221. o
2184 1 -7 2 3 0 55360. 52435. 221. o
2185 3 7 -2 -3 -1 335. 283. 166. <
2185 1 -7 2 3 1 335. 283. 166. <
2186 3 6 -2 -3 1 91. 93. 131. <
2186 1 -6 2 3 -1 91. 93. 131. <
2187 4 6 2 3 0 89981. 94315. 306. o
2187 3 6 -2 -3 0 89981. 94315. 306. o
2187 2 -6 -2 -3 0 89981. 94315. 306. o
2187 1 -6 2 3 0 89981. 94315. 306. o
2188 3 6 -2 -3 -1 32. 59. 144. <
2188 1 -6 2 3 1 32. 59. 144. <
2189 3 5 -2 -3 1 46. 102. 188. <
2189 1 -5 2 3 -1 46. 102. 188. <
2190 4 5 2 3 0 170215. 185183. 682. o
2190 3 5 -2 -3 0 170215. 185183. 682. o
2190 2 -5 -2 -3 0 170215. 185183. 682. o
2190 1 -5 2 3 0 170215. 185183. 682. o
2191 3 5 -2 -3 -1 93. 205. 216. <
2191 1 -5 2 3 1 93. 205. 216. <
2192 3 4 -2 -3 1 1595. 1547. 37. o
2192 1 -4 2 3 -1 1595. 1547. 37. o
2193 4 4 2 3 0 34033. 36994. 128. o
2193 3 4 -2 -3 0 34033. 36994. 128. o
2193 2 -4 -2 -3 0 34033. 36994. 128. o
2193 1 -4 2 3 0 34033. 36994. 128. o
2194 3 4 -2 -3 -1 889. 855. 33. o
2194 1 -4 2 3 1 889. 855. 33. o
2195 3 3 -2 -3 1 3. 1. 27. <
2195 1 -3 2 3 -1 3. 1. 27. <
2196 4 3 2 3 0 20698. 18686. 125. o
2196 3 3 -2 -3 0 20698. 18686. 125. o
2196 2 -3 -2 -3 0 20698. 18686. 125. o
2196 1 -3 2 3 0 20698. 18686. 125. o
2197 3 3 -2 -3 -1 27. 29. 24. <
2197 1 -3 2 3 1 27. 29. 24. <
2198 3 2 -2 -3 1 2. 7. 27. <
2198 1 -2 2 3 -1 2. 7. 27. <
2199 4 2 2 3 0 11302. 10709. 84. o
2199 3 2 -2 -3 0 11302. 10709. 84. o
2199 2 -2 -2 -3 0 11302. 10709. 84. o
2199 1 -2 2 3 0 11302. 10709. 84. o
2200 3 2 -2 -3 -1 1. 3. 28. <
2200 1 -2 2 3 1 1. 3. 28. <
2201 3 1 -2 -3 1 9. 3. 21. <
2201 1 -1 2 3 -1 9. 3. 21. <
2202 4 1 2 3 0 307905. 263525. 3906. o
2202 3 1 -2 -3 0 307905. 263525. 3906. o
2202 2 -1 -2 -3 0 307905. 263525. 3906. o
2202 1 -1 2 3 0 307905. 263525. 3906. o
2203 3 1 -2 -3 -1 115. 150. 25. o
2203 1 -1 2 3 1 115. 150. 25. o
2204 3 0 -2 -3 1 536. 531. 34. o
2204 1 0 2 3 -1 536. 531. 34. o
2205 4 0 2 3 0 950. 1008. 42. o
2205 3 0 -2 -3 0 950. 1008. 42. o
2205 2 0 -2 -3 0 950. 1008. 42. o
2205 1 0 2 3 0 950. 1008. 42. o
2206 3 0 -2 -3 -1 388. 389. 41. o
2206 1 0 2 3 1 388. 389. 41. o
2207 3 -1 -2 -3 1 430. 321. 31. o
2207 1 1 2 3 -1 430. 321. 31. o
2208 3 1 2 -3 -1 429. 406. 29. o
2208 1 -1 -2 3 1 429. 406. 29. o
2209 4 -1 2 3 0 308800. 233234. 1150. o
2209 3 -1 -2 -3 0 308800. 233234. 1150. o
2209 2 1 -2 -3 0 308800. 233234. 1150. o
2209 1 1 2 3 0 308800. 233234. 1150. o
2210 4 1 -2 3 0 308801. 274442. 3171. o
2210 3 1 2 -3 0 308801. 274442. 3171. o
2210 2 -1 2 -3 0 308801. 274442. 3171. o
2210 1 -1 -2 3 0 308801. 274442. 3171. o
2211 3 -1 -2 -3 -1 9. 50. 35. <
2211 1 1 2 3 1 9. 50. 35. <
2212 3 1 2 -3 1 9. 27. 20. <
2212 1 -1 -2 3 -1 9. 27. 20. <
2213 3 -2 -2 -3 1 0. 21. 43. <
2213 1 2 2 3 -1 0. 21. 43. <
2214 3 2 2 -3 -1 0. 5. 20. <
2214 1 -2 -2 3 1 0. 5. 20. <
2215 4 2 -2 3 0 11413. 12231. 91. o
2215 3 2 2 -3 0 11413. 12231. 91. o
2215 2 -2 2 -3 0 11413. 12231. 91. o
2215 1 -2 -2 3 0 11413. 12231. 91. o
2216 3 2 2 -3 1 10. 8. 22. <
2216 1 -2 -2 3 -1 10. 8. 22. <
2217 3 -3 -2 -3 1 230. 285. 35. o
2217 1 3 2 3 -1 230. 285. 35. o
2218 3 3 2 -3 -1 225. 256. 28. o
2218 1 -3 -2 3 1 225. 256. 28. o
2219 4 -3 2 3 0 20922. 22620. 148. o
2219 3 -3 -2 -3 0 20922. 22620. 148. o
2219 2 3 -2 -3 0 20922. 22620. 148. o
2219 1 3 2 3 0 20922. 22620. 148. o
2220 4 3 -2 3 0 20904. 21833. 133. o
2220 3 3 2 -3 0 20904. 21833. 133. o
2220 2 -3 2 -3 0 20904. 21833. 133. o
2220 1 -3 -2 3 0 20904. 21833. 133. o
2221 3 -3 -2 -3 -1 688. 858. 43. o
2221 1 3 2 3 1 688. 858. 43. o
2222 3 3 2 -3 1 691. 714. 40. o
2222 1 -3 -2 3 -1 691. 714. 40. o
2223 3 -4 -2 -3 1 29. 68. 31. o
2223 1 4 2 3 -1 29. 68. 31. o
2224 3 4 2 -3 -1 29. 50. 25. <
2224 1 -4 -2 3 1 29. 50. 25. <
2225 4 -4 2 3 0 33831. 36579. 191. o
2225 3 -4 -2 -3 0 33831. 36579. 191. o
2225 2 4 -2 -3 0 33831. 36579. 191. o
2225 1 4 2 3 0 33831. 36579. 191. o
2226 4 4 -2 3 0 33830. 35984. 186. o
2226 3 4 2 -3 0 33830. 35984. 186. o
2226 2 -4 2 -3 0 33830. 35984. 186. o
2226 1 -4 -2 3 0 33830. 35984. 186. o
2227 3 -4 -2 -3 -1 446. 508. 39. o
2227 1 4 2 3 1 446. 508. 39. o
2228 3 4 2 -3 1 447. 496. 41. o
2228 1 -4 -2 3 -1 447. 496. 41. o
2229 3 -5 -2 -3 1 54. 66. 33. <
2229 1 5 2 3 -1 54. 66. 33. <
2230 3 5 2 -3 -1 50. 27. 29. <
2230 1 -5 -2 3 1 50. 27. 29. <
2231 4 -5 2 3 0 171673. 174232. 957. o
2231 3 -5 -2 -3 0 171673. 174232. 957. o
2231 2 5 -2 -3 0 171673. 174232. 957. o
2231 1 5 2 3 0 171673. 174232. 957. o
2232 4 5 -2 3 0 171641. 180745. 1111. o
2232 3 5 2 -3 0 171641. 180745. 1111. o
2232 2 -5 2 -3 0 171641. 180745. 1111. o
2232 1 -5 -2 3 0 171641. 180745. 1111. o
2233 3 -5 -2 -3 -1 95. 57. 958. <
2233 1 5 2 3 1 95. 57. 958. <
2234 3 5 2 -3 1 92. 45. 31. <
2234 1 -5 -2 3 -1 92. 45. 31. <
2235 3 -6 -2 -3 1 1061. 89. 597. <
2235 1 6 2 3 -1 1061. 89. 597. <
2236 3 6 2 -3 -1 1056. 1108. 39. o
2236 1 -6 -2 3 1 1056. 1108. 39. o
2237 4 -6 2 3 0 89834. 91882. 596. o
2237 3 -6 -2 -3 0 89834. 91882. 596. o
2237 2 6 -2 -3 0 89834. 91882. 596. o
2237 1 6 2 3 0 89834. 91882. 596. o
2238 4 6 -2 3 0 90199. 94420. 403. o
2238 3 6 2 -3 0 90199. 94420. 403. o
2238 2 -6 2 -3 0 90199. 94420. 403. o
2238 1 -6 -2 3 0 90199. 94420. 403. o
2239 3 -6 -2 -3 -1 1102. 754. 596. <
2239 1 6 2 3 1 1102. 754. 596. <
2240 3 6 2 -3 1 1103. 1294. 61. o
2240 1 -6 -2 3 -1 1103. 1294. 61. o
2241 3 7 2 -3 -1 518. 600. 37. o
2241 1 -7 -2 3 1 518. 600. 37. o
2242 4 7 -2 3 0 55652. 59476. 208. o
2242 3 7 2 -3 0 55652. 59476. 208. o
2242 2 -7 2 -3 0 55652. 59476. 208. o
2242 1 -7 -2 3 0 55652. 59476. 208. o
2243 3 7 2 -3 1 203. 256. 44. o
2243 1 -7 -2 3 -1 203. 256. 44. o
2244 3 8 2 -3 -1 7. 3. 34. <
2244 1 -8 -2 3 1 7. 3. 34. <
2245 4 8 -2 3 0 8778. 9141. 134. o
2245 3 8 2 -3 0 8778. 9141. 134. o
2245 2 -8 2 -3 0 8778. 9141. 134. o
2245 1 -8 -2 3 0 8778. 9141. 134. o
2246 3 8 2 -3 1 200. 211. 46. o
2246 1 -8 -2 3 -1 200. 211. 46. o
2247 3 9 2 -3 -1 20. 6. 110. <
2247 1 -9 -2 3 1 20. 6. 110. <
2248 4 9 -2 3 0 788. 801. 111. o
2248 3 9 2 -3 0 788. 801. 111. o
2248 2 -9 2 -3 0 788. 801. 111. o
2248 1 -9 -2 3 0 788. 801. 111. o
2249 3 9 2 -3 1 333. 280. 111. o
2249 1 -9 -2 3 -1 333. 280. 111. o
2250 3 10 2 -3 -1 356. 379. 59. o
2250 1 -10 -2 3 1 356. 379. 59. o
2251 4 10 -2 3 0 5642. 4944. 156. o
2251 3 10 2 -3 0 5642. 4944. 156. o
2251 2 -10 2 -3 0 5642. 4944. 156. o
2251 1 -10 -2 3 0 5642. 4944. 156. o
2252 3 10 2 -3 1 1563. 1828. 157. o
2252 1 -10 -2 3 -1 1563. 1828. 157. o
2253 3 11 2 -3 -1 218. 36. 170. <
2253 1 -11 -2 3 1 218. 36. 170. <
2254 4 11 -2 3 0 5629. 5654. 171. o
2254 3 11 2 -3 0 5629. 5654. 171. o
2254 2 -11 2 -3 0 5629. 5654. 171. o
2254 1 -11 -2 3 0 5629. 5654. 171. o
2255 3 11 2 -3 1 437. 273. 172. <
2255 1 -11 -2 3 -1 437. 273. 172. <
2256 3 12 2 -3 -1 24. 69. 154. <
2256 1 -12 -2 3 1 24. 69. 154. <
2257 4 12 -2 3 0 426. 601. 155. o
2257 3 12 2 -3 0 426. 601. 155. o
2257 2 -12 2 -3 0 426. 601. 155. o
2257 1 -12 -2 3 0 426. 601. 155. o
2258 3 12 2 -3 1 185. 210. 155. <
2258 1 -12 -2 3 -1 185. 210. 155. <
2259 3 13 2 -3 -1 48. 437. 243. <
2259 1 -13 -2 3 1 48. 437. 243. <
2260 4 13 -2 3 0 12566. 10946. 245. o
2260 3 13 2 -3 0 12566. 10946. 245. o
2260 2 -13 2 -3 0 12566. 10946. 245. o
2260 1 -13 -2 3 0 12566. 10946. 245. o
2261 3 13 2 -3 1 759. 809. 246. o
2261 1 -13 -2 3 -1 759. 809. 246. o
2262 3 13 -3 -3 1 677. 1098. 215. o
2262 1 -13 3 3 -1 677. 1098. 215. o
2263 4 13 3 3 0 6201. 6505. 216. o
2263 3 13 -3 -3 0 6201. 6505. 216. o
2263 2 -13 -3 -3 0 6201. 6505. 216. o
2263 1 -13 3 3 0 6201. 6505. 216. o
2264 3 13 -3 -3 -1 240. 566. 217. o
2264 1 -13 3 3 1 240. 566. 217. o
2265 3 12 -3 -3 1 148. 1156. 337. o
2265 1 -12 3 3 -1 148. 1156. 337. o
2266 4 12 3 3 0 31788. 31646. 337. o
2266 3 12 -3 -3 0 31788. 31646. 337. o
2266 2 -12 -3 -3 0 31788. 31646. 337. o
2266 1 -12 3 3 0 31788. 31646. 337. o
2267 3 12 -3 -3 -1 282. 1757. 337. o
2267 1 -12 3 3 1 282. 1757. 337. o
2268 4 11 3 3 0 29919. 32868. 298. o
2268 3 11 -3 -3 0 29919. 32868. 298. o
2268 2 -11 -3 -3 0 29919. 32868. 298. o
2268 1 -11 3 3 0 29919. 32868. 298. o
2269 3 11 -3 -3 -1 852. 714. 76. o
2269 1 -11 3 3 1 852. 714. 76. o
2270 3 10 -3 -3 1 463. 516. 68. o
2270 1 -10 3 3 -1 463. 516. 68. o
2271 4 10 3 3 0 54740. 61631. 379. o
2271 3 10 -3 -3 0 54740. 61631. 379. o
2271 2 -10 -3 -3 0 54740. 61631. 379. o
2271 1 -10 3 3 0 54740. 61631. 379. o
2272 3 10 -3 -3 -1 664. 706. 80. o
2272 1 -10 3 3 1 664. 706. 80. o
2273 3 9 -3 -3 1 1689. 1299. 158. o
2273 1 -9 3 3 -1 1689. 1299. 158. o
2274 4 9 3 3 0 31829. 30612. 205. o
2274 3 9 -3 -3 0 31829. 30612. 205. o
2274 2 -9 -3 -3 0 31829. 30612. 205. o
2274 1 -9 3 3 0 31829. 30612. 205. o
2275 3 9 -3 -3 -1 824. 722. 161. o
2275 1 -9 3 3 1 824. 722. 161. o
2276 3 8 -3 -3 1 287. 267. 112. o
2276 1 -8 3 3 -1 287. 267. 112. o
2277 4 8 3 3 0 12512. 12807. 141. o
2277 3 8 -3 -3 0 12512. 12807. 141. o
2277 2 -8 -3 -3 0 12512. 12807. 141. o
2277 1 -8 3 3 0 12512. 12807. 141. o
2278 3 8 -3 -3 -1 383. 291. 119. o
2278 1 -8 3 3 1 383. 291. 119. o
2279 3 7 -3 -3 1 482. 386. 108. o
2279 1 -7 3 3 -1 482. 386. 108. o
2280 4 7 3 3 0 8917. 8540. 127. o
2280 3 7 -3 -3 0 8917. 8540. 127. o
2280 2 -7 -3 -3 0 8917. 8540. 127. o
2280 1 -7 3 3 0 8917. 8540. 127. o
2281 3 7 -3 -3 -1 943. 893. 117. o
2281 1 -7 3 3 1 943. 893. 117. o
2282 3 6 -3 -3 1 903. 764. 168. o
2282 1 -6 3 3 -1 903. 764. 168. o
2283 4 6 3 3 0 96240. 107068. 1092. o
2283 3 6 -3 -3 0 96240. 107068. 1092. o
2283 2 -6 -3 -3 0 96240. 107068. 1092. o
2283 1 -6 3 3 0 96240. 107068. 1092. o
2284 3 6 -3 -3 -1 1162. 985. 185. o
2284 1 -6 3 3 1 1162. 985. 185. o
2285 3 5 -3 -3 1 1149. 1208. 35. o
2285 1 -5 3 3 -1 1149. 1208. 35. o
2286 4 5 3 3 0 9058. 10346. 74. o
2286 3 5 -3 -3 0 9058. 10346. 74. o
2286 2 -5 -3 -3 0 9058. 10346. 74. o
2286 1 -5 3 3 0 9058. 10346. 74. o
2287 3 5 -3 -3 -1 22. 39. 19. o
2287 1 -5 3 3 1 22. 39. 19. o
2288 3 4 -3 -3 1 40. 25. 24. <
2288 1 -4 3 3 -1 40. 25. 24. <
2289 4 4 3 3 0 12924. 10666. 107. o
2289 3 4 -3 -3 0 12924. 10666. 107. o
2289 2 -4 -3 -3 0 12924. 10666. 107. o
2289 1 -4 3 3 0 12924. 10666. 107. o
2290 3 4 -3 -3 -1 12. 23. 59. <
2290 1 -4 3 3 1 12. 23. 59. <
2291 3 3 -3 -3 1 994. 996. 88. o
2291 1 -3 3 3 -1 994. 996. 88. o
2292 4 3 3 3 0 11655. 12035. 96. o
2292 3 3 -3 -3 0 11655. 12035. 96. o
2292 2 -3 -3 -3 0 11655. 12035. 96. o
2292 1 -3 3 3 0 11655. 12035. 96. o
2293 3 3 -3 -3 -1 968. 950. 81. o
2293 1 -3 3 3 1 968. 950. 81. o
2294 3 2 -3 -3 1 17. 23. 24. <
2294 1 -2 3 3 -1 17. 23. 24. <
2295 4 2 3 3 0 21115. 20815. 94. o
2295 3 2 -3 -3 0 21115. 20815. 94. o
2295 2 -2 -3 -3 0 21115. 20815. 94. o
2295 1 -2 3 3 0 21115. 20815. 94. o
2296 3 2 -3 -3 -1 1. 2. 24. <
2296 1 -2 3 3 1 1. 2. 24. <
2297 3 1 -3 -3 1 289. 231. 90. o
2297 1 -1 3 3 -1 289. 231. 90. o
2298 4 1 3 3 0 49795. 45076. 142. o
2298 3 1 -3 -3 0 49795. 45076. 142. o
2298 2 -1 -3 -3 0 49795. 45076. 142. o
2298 1 -1 3 3 0 49795. 45076. 142. o
2299 3 1 -3 -3 -1 179. 174. 129. <
2299 1 -1 3 3 1 179. 174. 129. <
2300 3 0 -3 -3 1 358. 216. 90. o
2300 1 0 3 3 -1 358. 216. 90. o
2301 4 0 3 3 0 21624. 20657. 113. o
2301 3 0 -3 -3 0 21624. 20657. 113. o
2301 2 0 -3 -3 0 21624. 20657. 113. o
2301 1 0 3 3 0 21624. 20657. 113. o
2302 3 0 -3 -3 -1 171. 98. 89. <
2302 1 0 3 3 1 171. 98. 89. <
2303 3 -1 -3 -3 1 182. 137. 119. <
2303 1 1 3 3 -1 182. 137. 119. <
2304 4 -1 3 3 0 50031. 47614. 171. o
2304 3 -1 -3 -3 0 50031. 47614. 171. o
2304 2 1 -3 -3 0 50031. 47614. 171. o
2304 1 1 3 3 0 50031. 47614. 171. o
2305 3 -1 -3 -3 -1 55. 64. 118. <
2305 1 1 3 3 1 55. 64. 118. <
2306 3 -2 -3 -3 1 259. 201. 84. o
2306 1 2 3 3 -1 259. 201. 84. o
2307 3 2 3 -3 -1 258. 266. 30. o
2307 1 -2 -3 3 1 258. 266. 30. o
2308 4 -2 3 3 0 20964. 19181. 114. o
2308 3 -2 -3 -3 0 20964. 19181. 114. o
2308 2 2 -3 -3 0 20964. 19181. 114. o
2308 1 2 3 3 0 20964. 19181. 114. o
2309 4 2 -3 3 0 20985. 21871. 138. o
2309 3 2 3 -3 0 20985. 21871. 138. o
2309 2 -2 3 -3 0 20985. 21871. 138. o
2309 1 -2 -3 3 0 20985. 21871. 138. o
2310 3 -2 -3 -3 -1 703. 563. 85. o
2310 1 2 3 3 1 703. 563. 85. o
2311 3 2 3 -3 1 699. 738. 43. o
2311 1 -2 -3 3 -1 699. 738. 43. o
2312 3 -3 -3 -3 1 5. 12. 125. <
2312 1 3 3 3 -1 5. 12. 125. <
2313 3 3 3 -3 -1 5. -18. 24. <
2313 1 -3 -3 3 1 5. -18. 24. <
2314 4 -3 3 3 0 11779. 12047. 125. o
2314 3 -3 -3 -3 0 11779. 12047. 125. o
2314 2 3 -3 -3 0 11779. 12047. 125. o
2314 1 3 3 3 0 11779. 12047. 125. o
2315 4 3 -3 3 0 11694. 12116. 110. o
2315 3 3 3 -3 0 11694. 12116. 110. o
2315 2 -3 3 -3 0 11694. 12116. 110. o
2315 1 -3 -3 3 0 11694. 12116. 110. o
2316 3 -3 -3 -3 -1 7. 33. 124. <
2316 1 3 3 3 1 7. 33. 124. <
2317 3 3 3 -3 1 7. 11. 25. <
2317 1 -3 -3 3 -1 7. 11. 25. <
2318 3 -4 -3 -3 1 414. 219. 139. <
2318 1 4 3 3 -1 414. 219. 139. <
2319 3 4 3 -3 -1 415. 348. 41. o
2319 1 -4 -3 3 1 415. 348. 41. o
2320 4 -4 3 3 0 12863. 14830. 139. o
2320 3 -4 -3 -3 0 12863. 14830. 139. o
2320 2 4 -3 -3 0 12863. 14830. 139. o
2320 1 4 3 3 0 12863. 14830. 139. o
2321 4 4 -3 3 0 12801. 13854. 124. o
2321 3 4 3 -3 0 12801. 13854. 124. o
2321 2 -4 3 -3 0 12801. 13854. 124. o
2321 1 -4 -3 3 0 12801. 13854. 124. o
2322 3 -4 -3 -3 -1 175. 66. 138. <
2322 1 4 3 3 1 175. 66. 138. <
2323 3 4 3 -3 1 176. 90. 31. o
2323 1 -4 -3 3 -1 176. 90. 31. o
2324 3 5 3 -3 -1 917. 876. 50. o
2324 1 -5 -3 3 1 917. 876. 50. o
2325 4 5 -3 3 0 9081. 10101. 115. o
2325 3 5 3 -3 0 9081. 10101. 115. o
2325 2 -5 3 -3 0 9081. 10101. 115. o
2325 1 -5 -3 3 0 9081. 10101. 115. o
2326 3 5 3 -3 1 23. 45. 34. <
2326 1 -5 -3 3 -1 23. 45. 34. <
2327 3 -6 -3 -3 1 145. 113. 639. <
2327 1 6 3 3 -1 145. 113. 639. <
2328 3 6 3 -3 -1 150. 186. 38. o
2328 1 -6 -3 3 1 150. 186. 38. o
2329 4 -6 3 3 0 96911. 105508. 643. o
2329 3 -6 -3 -3 0 96911. 105508. 643. o
2329 2 6 -3 -3 0 96911. 105508. 643. o
2329 1 6 3 3 0 96911. 105508. 643. o
2330 4 6 -3 3 0 96660. 101725. 383. o
2330 3 6 3 -3 0 96660. 101725. 383. o
2330 2 -6 3 -3 0 96660. 101725. 383. o
2330 1 -6 -3 3 0 96660. 101725. 383. o
2331 3 -6 -3 -3 -1 106. 201. 646. <
2331 1 6 3 3 1 106. 201. 646. <
2332 3 -7 -3 -3 1 326. 179. 129. <
2332 1 7 3 3 -1 326. 179. 129. <
2333 3 7 3 -3 -1 328. 315. 42. o
2333 1 -7 -3 3 1 328. 315. 42. o
2334 4 -7 3 3 0 8903. 9339. 129. o
2334 3 -7 -3 -3 0 8903. 9339. 129. o
2334 2 7 -3 -3 0 8903. 9339. 129. o
2334 1 7 3 3 0 8903. 9339. 129. o
2335 4 7 -3 3 0 8733. 9367. 134. o
2335 3 7 3 -3 0 8733. 9367. 134. o
2335 2 -7 3 -3 0 8733. 9367. 134. o
2335 1 -7 -3 3 0 8733. 9367. 134. o
2336 3 -7 -3 -3 -1 218. 99. 131. <
2336 1 7 3 3 1 218. 99. 131. <
2337 3 7 3 -3 1 220. 186. 46. o
2337 1 -7 -3 3 -1 220. 186. 46. o
2338 3 8 3 -3 -1 285. 312. 51. o
2338 1 -8 -3 3 1 285. 312. 51. o
2339 4 8 -3 3 0 12742. 13766. 181. o
2339 3 8 3 -3 0 12742. 13766. 181. o
2339 2 -8 3 -3 0 12742. 13766. 181. o
2339 1 -8 -3 3 0 12742. 13766. 181. o
2340 3 8 3 -3 1 461. 471. 182. o
2340 1 -8 -3 3 -1 461. 471. 182. o
2341 3 9 3 -3 -1 217. 119. 270. <
2341 1 -9 -3 3 1 217. 119. 270. <
2342 4 9 -3 3 0 32243. 31019. 272. o
2342 3 9 3 -3 0 32243. 31019. 272. o
2342 2 -9 3 -3 0 32243. 31019. 272. o
2342 1 -9 -3 3 0 32243. 31019. 272. o
2343 3 9 3 -3 1 450. 341. 274. <
2343 1 -9 -3 3 -1 450. 341. 274. <
2344 3 10 3 -3 -1 639. 479. 370. <
2344 1 -10 -3 3 1 639. 479. 370. <
2345 4 10 -3 3 0 54818. 54953. 372. o
2345 3 10 3 -3 0 54818. 54953. 372. o
2345 2 -10 3 -3 0 54818. 54953. 372. o
2345 1 -10 -3 3 0 54818. 54953. 372. o
2346 3 10 3 -3 1 319. 694. 374. <
2346 1 -10 -3 3 -1 319. 694. 374. <
2347 3 11 3 -3 -1 426. 583. 304. <
2347 1 -11 -3 3 1 426. 583. 304. <
2348 4 11 -3 3 0 31010. 29898. 306. o
2348 3 11 3 -3 0 31010. 29898. 306. o
2348 2 -11 3 -3 0 31010. 29898. 306. o
2348 1 -11 -3 3 0 31010. 29898. 306. o
2349 3 11 3 -3 1 116. 337. 308. <
2349 1 -11 -3 3 -1 116. 337. 308. <
2350 3 12 3 -3 -1 211. 533. 332. <
2350 1 -12 -3 3 1 211. 533. 332. <
2351 4 12 -3 3 0 32435. 31730. 334. o
2351 3 12 3 -3 0 32435. 31730. 334. o
2351 2 -12 3 -3 0 32435. 31730. 334. o
2351 1 -12 -3 3 0 32435. 31730. 334. o
2352 3 12 3 -3 1 5. 641. 336. <
2352 1 -12 -3 3 -1 5. 641. 336. <
2353 3 13 3 -3 -1 1010. 944. 218. o
2353 1 -13 -3 3 1 1010. 944. 218. o
2354 4 13 -3 3 0 6343. 6347. 219. o
2354 3 13 3 -3 0 6343. 6347. 219. o
2354 2 -13 3 -3 0 6343. 6347. 219. o
2354 1 -13 -3 3 0 6343. 6347. 219. o
2355 3 13 3 -3 1 154. 368. 219. <
2355 1 -13 -3 3 -1 154. 368. 219. <
2356 4 13 4 3 0 2503. 2404. 170. o
2356 3 13 -4 -3 0 2503. 2404. 170. o
2356 2 -13 -4 -3 0 2503. 2404. 170. o
2356 1 -13 4 3 0 2503. 2404. 170. o
2357 3 13 -4 -3 -1 66. 15. 170. <
2357 1 -13 4 3 1 66. 15. 170. <
2358 3 12 -4 -3 1 1905. 1602. 171. o
2358 1 -12 4 3 -1 1905. 1602. 171. o
2359 4 12 4 3 0 2129. 2443. 172. o
2359 3 12 -4 -3 0 2129. 2443. 172. o
2359 2 -12 -4 -3 0 2129. 2443. 172. o
2359 1 -12 4 3 0 2129. 2443. 172. o
2360 3 12 -4 -3 -1 1163. 319. 173. <
2360 1 -12 4 3 1 1163. 319. 173. <
2361 3 11 -4 -3 1 806. 999. 101. o
2361 1 -11 4 3 -1 806. 999. 101. o
2362 4 11 4 3 0 1714. 1553. 103. o
2362 3 11 -4 -3 0 1714. 1553. 103. o
2362 2 -11 -4 -3 0 1714. 1553. 103. o
2362 1 -11 4 3 0 1714. 1553. 103. o
2363 3 11 -4 -3 -1 184. 173. 62. o
2363 1 -11 4 3 1 184. 173. 62. o
2364 3 10 -4 -3 1 86. 89. 175. <
2364 1 -10 4 3 -1 86. 89. 175. <
2365 4 10 4 3 0 36182. 34738. 237. o
2365 3 10 -4 -3 0 36182. 34738. 237. o
2365 2 -10 -4 -3 0 36182. 34738. 237. o
2365 1 -10 4 3 0 36182. 34738. 237. o
2366 3 10 -4 -3 -1 494. 488. 184. o
2366 1 -10 4 3 1 494. 488. 184. o
2367 3 9 -4 -3 1 6. 15. 141. <
2367 1 -9 4 3 -1 6. 15. 141. <
2368 4 9 4 3 0 18771. 18262. 179. o
2368 3 9 -4 -3 0 18771. 18262. 179. o
2368 2 -9 -4 -3 0 18771. 18262. 179. o
2368 1 -9 4 3 0 18771. 18262. 179. o
2369 3 9 -4 -3 -1 37. 45. 147. <
2369 1 -9 4 3 1 37. 45. 147. <
2370 3 8 -4 -3 1 470. 292. 144. o
2370 1 -8 4 3 -1 470. 292. 144. o
2371 4 8 4 3 0 19592. 18679. 178. o
2371 3 8 -4 -3 0 19592. 18679. 178. o
2371 2 -8 -4 -3 0 19592. 18679. 178. o
2371 1 -8 4 3 0 19592. 18679. 178. o
2372 3 8 -4 -3 -1 10. 66. 151. <
2372 1 -8 4 3 1 10. 66. 151. <
2373 3 7 -4 -3 1 62. 103. 151. <
2373 1 -7 4 3 -1 62. 103. 151. <
2374 4 7 4 3 0 18621. 19185. 182. o
2374 3 7 -4 -3 0 18621. 19185. 182. o
2374 2 -7 -4 -3 0 18621. 19185. 182. o
2374 1 -7 4 3 0 18621. 19185. 182. o
2375 3 7 -4 -3 -1 198. 169. 163. <
2375 1 -7 4 3 1 198. 169. 163. <
2376 3 6 -4 -3 1 2886. 2935. 137. o
2376 1 -6 4 3 -1 2886. 2935. 137. o
2377 4 6 4 3 0 3479. 3495. 90. o
2377 3 6 -4 -3 0 3479. 3495. 90. o
2377 2 -6 -4 -3 0 3479. 3495. 90. o
2377 1 -6 4 3 0 3479. 3495. 90. o
2378 3 6 -4 -3 -1 2381. 2410. 84. o
2378 1 -6 4 3 1 2381. 2410. 84. o
2379 3 5 -4 -3 1 209. 198. 111. <
2379 1 -5 4 3 -1 209. 198. 111. <
2380 4 5 4 3 0 46464. 53780. 180. o
2380 3 5 -4 -3 0 46464. 53780. 180. o
2380 2 -5 -4 -3 0 46464. 53780. 180. o
2380 1 -5 4 3 0 46464. 53780. 180. o
2381 3 5 -4 -3 -1 52. 49. 103. <
2381 1 -5 4 3 1 52. 49. 103. <
2382 3 4 -4 -3 1 34. 39. 25. <
2382 1 -4 4 3 -1 34. 39. 25. <
2383 4 4 4 3 0 71970. 81768. 352. o
2383 3 4 -4 -3 0 71970. 81768. 352. o
2383 2 -4 -4 -3 0 71970. 81768. 352. o
2383 1 -4 4 3 0 71970. 81768. 352. o
2384 3 4 -4 -3 -1 13. 66. 111. <
2384 1 -4 4 3 1 13. 66. 111. <
2385 3 3 -4 -3 1 37. 20. 73. <
2385 1 -3 4 3 -1 37. 20. 73. <
2386 4 3 4 3 0 12478. 11241. 130. o
2386 3 3 -4 -3 0 12478. 11241. 130. o
2386 2 -3 -4 -3 0 12478. 11241. 130. o
2386 1 -3 4 3 0 12478. 11241. 130. o
2387 3 3 -4 -3 -1 18. 22. 79. <
2387 1 -3 4 3 1 18. 22. 79. <
2388 3 2 -4 -3 1 741. 803. 101. o
2388 1 -2 4 3 -1 741. 803. 101. o
2389 4 2 4 3 0 31926. 29802. 173. o
2389 3 2 -4 -3 0 31926. 29802. 173. o
2389 2 -2 -4 -3 0 31926. 29802. 173. o
2389 1 -2 4 3 0 31926. 29802. 173. o
2390 3 2 -4 -3 -1 1352. 1434. 97. o
2390 1 -2 4 3 1 1352. 1434. 97. o
2391 3 1 -4 -3 1 167. 97. 46. o
2391 1 -1 4 3 -1 167. 97. 46. o
2392 4 1 4 3 0 1262. 1184. 50. o
2392 3 1 -4 -3 0 1262. 1184. 50. o
2392 2 -1 -4 -3 0 1262. 1184. 50. o
2392 1 -1 4 3 0 1262. 1184. 50. o
2393 3 1 -4 -3 -1 290. 236. 46. o
2393 1 -1 4 3 1 290. 236. 46. o
2394 3 0 -4 -3 1 63. 71. 37. <
2394 1 0 4 3 -1 63. 71. 37. <
2395 4 0 4 3 0 227. 258. 45. o
2395 3 0 -4 -3 0 227. 258. 45. o
2395 2 0 -4 -3 0 227. 258. 45. o
2395 1 0 4 3 0 227. 258. 45. o
2396 3 0 -4 -3 -1 172. 119. 44. o
2396 1 0 4 3 1 172. 119. 44. o
2397 3 -1 -4 -3 1 31. 21. 54. <
2397 1 1 4 3 -1 31. 21. 54. <
2398 4 -1 4 3 0 1182. 1117. 64. o
2398 3 -1 -4 -3 0 1182. 1117. 64. o
2398 2 1 -4 -3 0 1182. 1117. 64. o
2398 1 1 4 3 0 1182. 1117. 64. o
2399 3 -1 -4 -3 -1 24. 6. 53. <
2399 1 1 4 3 1 24. 6. 53. <
2400 3 -2 -4 -3 1 33. 60. 104. <
2400 1 2 4 3 -1 33. 60. 104. <
2401 4 -2 4 3 0 32160. 28845. 144. o
2401 3 -2 -4 -3 0 32160. 28845. 144. o
2401 2 2 -4 -3 0 32160. 28845. 144. o
2401 1 2 4 3 0 32160. 28845. 144. o
2402 3 -2 -4 -3 -1 373. 359. 104. o
2402 1 2 4 3 1 373. 359. 104. o
2403 3 -3 -4 -3 1 422. 215. 139. <
2403 1 3 4 3 -1 422. 215. 139. <
2404 3 3 4 -3 -1 424. 379. 45. o
2404 1 -3 -4 3 1 424. 379. 45. o
2405 4 -3 4 3 0 12622. 13950. 139. o
2405 3 -3 -4 -3 0 12622. 13950. 139. o
2405 2 3 -4 -3 0 12622. 13950. 139. o
2405 1 3 4 3 0 12622. 13950. 139. o
2406 4 3 -4 3 0 12606. 13319. 129. o
2406 3 3 4 -3 0 12606. 13319. 129. o
2406 2 -3 4 -3 0 12606. 13319. 129. o
2406 1 -3 -4 3 0 12606. 13319. 129. o
2407 3 -3 -4 -3 -1 130. 73. 139. <
2407 1 3 4 3 1 130. 73. 139. <
2408 3 3 4 -3 1 128. 100. 30. o
2408 1 -3 -4 3 -1 128. 100. 30. o
2409 3 -4 -4 -3 1 1. 275. 339. <
2409 1 4 4 3 -1 1. 275. 339. <
2410 3 4 4 -3 -1 1. 24. 31. <
2410 1 -4 -4 3 1 1. 24. 31. <
2411 4 -4 4 3 0 72464. 79548. 339. o
2411 3 -4 -4 -3 0 72464. 79548. 339. o
2411 2 4 -4 -3 0 72464. 79548. 339. o
2411 1 4 4 3 0 72464. 79548. 339. o
2412 4 4 -4 3 0 72199. 75604. 474. o
2412 3 4 4 -3 0 72199. 75604. 474. o
2412 2 -4 4 -3 0 72199. 75604. 474. o
2412 1 -4 -4 3 0 72199. 75604. 474. o
2413 3 -4 -4 -3 -1 2. 237. 338. <
2413 1 4 4 3 1 2. 237. 338. <
2414 3 -5 -4 -3 1 73. 307. 242. <
2414 1 5 4 3 -1 73. 307. 242. <
2415 3 5 4 -3 -1 69. 58. 35. <
2415 1 -5 -4 3 1 69. 58. 35. <
2416 4 -5 4 3 0 46755. 49975. 242. o
2416 3 -5 -4 -3 0 46755. 49975. 242. o
2416 2 5 -4 -3 0 46755. 49975. 242. o
2416 1 5 4 3 0 46755. 49975. 242. o
2417 4 5 -4 3 0 47154. 49646. 272. o
2417 3 5 4 -3 0 47154. 49646. 272. o
2417 2 -5 4 -3 0 47154. 49646. 272. o
2417 1 -5 -4 3 0 47154. 49646. 272. o
2418 3 -5 -4 -3 -1 286. 375. 242. <
2418 1 5 4 3 1 286. 375. 242. <
2419 3 5 4 -3 1 281. 266. 274. <
2419 1 -5 -4 3 -1 281. 266. 274. <
2420 3 -6 -4 -3 1 22. 7. 98. <
2420 1 6 4 3 -1 22. 7. 98. <
2421 3 6 4 -3 -1 22. 18. 37. <
2421 1 -6 -4 3 1 22. 18. 37. <
2422 4 -6 4 3 0 3196. 3309. 99. o
2422 3 -6 -4 -3 0 3196. 3309. 99. o
2422 2 6 -4 -3 0 3196. 3309. 99. o
2422 1 6 4 3 0 3196. 3309. 99. o
2423 4 6 -4 3 0 3411. 3510. 90. o
2423 3 6 4 -3 0 3411. 3510. 90. o
2423 2 -6 4 -3 0 3411. 3510. 90. o
2423 1 -6 -4 3 0 3411. 3510. 90. o
2424 3 -6 -4 -3 -1 113. 68. 99. <
2424 1 6 4 3 1 113. 68. 99. <
2425 3 6 4 -3 1 115. 113. 43. o
2425 1 -6 -4 3 -1 115. 113. 43. o
2426 3 7 4 -3 -1 362. 450. 53. o
2426 1 -7 -4 3 1 362. 450. 53. o
2427 4 7 -4 3 0 19353. 20255. 200. o
2427 3 7 4 -3 0 19353. 20255. 200. o
2427 2 -7 4 -3 0 19353. 20255. 200. o
2427 1 -7 -4 3 0 19353. 20255. 200. o
2428 3 7 4 -3 1 322. 365. 54. o
2428 1 -7 -4 3 -1 322. 365. 54. o
2429 3 8 4 -3 -1 621. 613. 229. o
2429 1 -8 -4 3 1 621. 613. 229. o
2430 4 8 -4 3 0 19722. 19259. 230. o
2430 3 8 4 -3 0 19722. 19259. 230. o
2430 2 -8 4 -3 0 19722. 19259. 230. o
2430 1 -8 -4 3 0 19722. 19259. 230. o
2431 3 8 4 -3 1 247. 287. 232. <
2431 1 -8 -4 3 -1 247. 287. 232. <
2432 3 9 4 -3 -1 43. 123. 244. <
2432 1 -9 -4 3 1 43. 123. 244. <
2433 4 9 -4 3 0 19593. 20415. 245. o
2433 3 9 4 -3 0 19593. 20415. 245. o
2433 2 -9 4 -3 0 19593. 20415. 245. o
2433 1 -9 -4 3 0 19593. 20415. 245. o
2434 3 9 4 -3 1 49. 161. 247. <
2434 1 -9 -4 3 -1 49. 161. 247. <
2435 3 10 4 -3 -1 138. 210. 321. <
2435 1 -10 -4 3 1 138. 210. 321. <
2436 4 10 -4 3 0 36900. 35973. 323. o
2436 3 10 4 -3 0 36900. 35973. 323. o
2436 2 -10 4 -3 0 36900. 35973. 323. o
2436 1 -10 -4 3 0 36900. 35973. 323. o
2437 3 10 4 -3 1 92. 328. 325. <
2437 1 -10 -4 3 -1 92. 328. 325. <
2438 3 11 4 -3 -1 520. 287. 161. <
2438 1 -11 -4 3 1 520. 287. 161. <
2439 4 11 -4 3 0 1869. 1533. 162. o
2439 3 11 4 -3 0 1869. 1533. 162. o
2439 2 -11 4 -3 0 1869. 1533. 162. o
2439 1 -11 -4 3 0 1869. 1533. 162. o
2440 3 11 4 -3 1 419. 196. 163. <
2440 1 -11 -4 3 -1 419. 196. 163. <
2441 3 12 4 -3 -1 2. -3. 176. <
2441 1 -12 -4 3 1 2. -3. 176. <
2442 4 12 -4 3 0 2127. 2454. 177. o
2442 3 12 4 -3 0 2127. 2454. 177. o
2442 2 -12 4 -3 0 2127. 2454. 177. o
2442 1 -12 -4 3 0 2127. 2454. 177. o
2443 3 12 4 -3 1 117. 99. 178. <
2443 1 -12 -4 3 -1 117. 99. 178. <
2444 3 13 4 -3 -1 134. 34. 168. <
2444 1 -13 -4 3 1 134. 34. 168. <
2445 4 13 -4 3 0 2704. 2580. 169. o
2445 3 13 4 -3 0 2704. 2580. 169. o
2445 2 -13 4 -3 0 2704. 2580. 169. o
2445 1 -13 -4 3 0 2704. 2580. 169. o
2446 3 12 -5 -3 1 499. 341. 170. o
2446 1 -12 5 3 -1 499. 341. 170. o
2447 4 12 5 3 0 1637. 1914. 171. o
2447 3 12 -5 -3 0 1637. 1914. 171. o
2447 2 -12 -5 -3 0 1637. 1914. 171. o
2447 1 -12 5 3 0 1637. 1914. 171. o
2448 3 12 -5 -3 -1 274. 145. 172. <
2448 1 -12 5 3 1 274. 145. 172. <
2449 3 11 -5 -3 1 366. 858. 210. o
2449 1 -11 5 3 -1 366. 858. 210. o
2450 4 11 5 3 0 17313. 17254. 212. o
2450 3 11 -5 -3 0 17313. 17254. 212. o
2450 2 -11 -5 -3 0 17313. 17254. 212. o
2450 1 -11 5 3 0 17313. 17254. 212. o
2451 3 11 -5 -3 -1 311. 342. 216. <
2451 1 -11 5 3 1 311. 342. 216. <
2452 3 10 -5 -3 1 540. 306. 193. <
2452 1 -10 5 3 -1 540. 306. 193. <
2453 4 10 5 3 0 32972. 32630. 251. o
2453 3 10 -5 -3 0 32972. 32630. 251. o
2453 2 -10 -5 -3 0 32972. 32630. 251. o
2453 1 -10 5 3 0 32972. 32630. 251. o
2454 3 10 -5 -3 -1 427. 340. 201. <
2454 1 -10 5 3 1 427. 340. 201. <
2455 3 9 -5 -3 1 325. 320. 187. <
2455 1 -9 5 3 -1 325. 320. 187. <
2456 4 9 5 3 0 27164. 27875. 233. o
2456 3 9 -5 -3 0 27164. 27875. 233. o
2456 2 -9 -5 -3 0 27164. 27875. 233. o
2456 1 -9 5 3 0 27164. 27875. 233. o
2457 3 9 -5 -3 -1 751. 872. 198. o
2457 1 -9 5 3 1 751. 872. 198. o
2458 3 8 -5 -3 1 10. 61. 156. <
2458 1 -8 5 3 -1 10. 61. 156. <
2459 4 8 5 3 0 15272. 15755. 188. o
2459 3 8 -5 -3 0 15272. 15755. 188. o
2459 2 -8 -5 -3 0 15272. 15755. 188. o
2459 1 -8 5 3 0 15272. 15755. 188. o
2460 3 8 -5 -3 -1 394. 225. 166. <
2460 1 -8 5 3 1 394. 225. 166. <
2461 3 7 -5 -3 1 254. 100. 186. <
2461 1 -7 5 3 -1 254. 100. 186. <
2462 4 7 5 3 0 23256. 23795. 207. o
2462 3 7 -5 -3 0 23256. 23795. 207. o
2462 2 -7 -5 -3 0 23256. 23795. 207. o
2462 1 -7 5 3 0 23256. 23795. 207. o
2463 3 7 -5 -3 -1 300. 216. 166. <
2463 1 -7 5 3 1 300. 216. 166. <
2464 3 6 -5 -3 1 389. 285. 95. o
2464 1 -6 5 3 -1 389. 285. 95. o
2465 4 6 5 3 0 501. 434. 92. o
2465 3 6 -5 -3 0 501. 434. 92. o
2465 2 -6 -5 -3 0 501. 434. 92. o
2465 1 -6 5 3 0 501. 434. 92. o
2466 3 6 -5 -3 -1 13. 3. 86. <
2466 1 -6 5 3 1 13. 3. 86. <
2467 3 5 -5 -3 1 2725. 2971. 76. o
2467 1 -5 5 3 -1 2725. 2971. 76. o
2468 4 5 5 3 0 3697. 3483. 76. o
2468 3 5 -5 -3 0 3697. 3483. 76. o
2468 2 -5 -5 -3 0 3697. 3483. 76. o
2468 1 -5 5 3 0 3697. 3483. 76. o
2469 3 5 -5 -3 -1 2584. 2704. 74. o
2469 1 -5 5 3 1 2584. 2704. 74. o
2470 3 4 -5 -3 1 141. 54. 98. <
2470 1 -4 5 3 -1 141. 54. 98. <
2471 4 4 5 3 0 44981. 42559. 197. o
2471 3 4 -5 -3 0 44981. 42559. 197. o
2471 2 -4 -5 -3 0 44981. 42559. 197. o
2471 1 -4 5 3 0 44981. 42559. 197. o
2472 3 4 -5 -3 -1 228. 159. 98. <
2472 1 -4 5 3 1 228. 159. 98. <
2473 3 3 -5 -3 1 21. 30. 67. <
2473 1 -3 5 3 -1 21. 30. 67. <
2474 4 3 5 3 0 9173. 8923. 89. o
2474 3 3 -5 -3 0 9173. 8923. 89. o
2474 2 -3 -5 -3 0 9173. 8923. 89. o
2474 1 -3 5 3 0 9173. 8923. 89. o
2475 3 3 -5 -3 -1 940. 951. 73. o
2475 1 -3 5 3 1 940. 951. 73. o
2476 3 2 -5 -3 1 99. 105. 290. <
2476 1 -2 5 3 -1 99. 105. 290. <
2477 4 2 5 3 0 158330. 148952. 662. o
2477 3 2 -5 -3 0 158330. 148952. 662. o
2477 2 -2 -5 -3 0 158330. 148952. 662. o
2477 1 -2 5 3 0 158330. 148952. 662. o
2478 3 2 -5 -3 -1 63. 103. 32. o
2478 1 -2 5 3 1 63. 103. 32. o
2479 3 1 -5 -3 1 517. 581. 137. o
2479 1 -1 5 3 -1 517. 581. 137. o
2480 4 1 5 3 0 83120. 74049. 267. o
2480 3 1 -5 -3 0 83120. 74049. 267. o
2480 2 -1 -5 -3 0 83120. 74049. 267. o
2480 1 -1 5 3 0 83120. 74049. 267. o
2481 3 1 -5 -3 -1 352. 393. 132. o
2481 1 -1 5 3 1 352. 393. 132. o
2482 3 0 -5 -3 1 142. 41. 82. <
2482 1 0 5 3 -1 142. 41. 82. <
2483 4 0 5 3 0 7426. 7299. 102. o
2483 3 0 -5 -3 0 7426. 7299. 102. o
2483 2 0 -5 -3 0 7426. 7299. 102. o
2483 1 0 5 3 0 7426. 7299. 102. o
2484 3 0 -5 -3 -1 93. 41. 81. <
2484 1 0 5 3 1 93. 41. 81. <
2485 3 -1 -5 -3 1 181. 143. 255. <
2485 1 1 5 3 -1 181. 143. 255. <
2486 4 -1 5 3 0 83143. 75416. 312. o
2486 3 -1 -5 -3 0 83143. 75416. 312. o
2486 2 1 -5 -3 0 83143. 75416. 312. o
2486 1 1 5 3 0 83143. 75416. 312. o
2487 3 -1 -5 -3 -1 113. 138. 252. <
2487 1 1 5 3 1 113. 138. 252. <
2488 3 -2 -5 -3 1 75. 149. 462. <
2488 1 2 5 3 -1 75. 149. 462. <
2489 4 -2 5 3 0 159151. 138415. 641. o
2489 3 -2 -5 -3 0 159151. 138415. 641. o
2489 2 2 -5 -3 0 159151. 138415. 641. o
2489 1 2 5 3 0 159151. 138415. 641. o
2490 3 -2 -5 -3 -1 307. 219. 459. <
2490 1 2 5 3 1 307. 219. 459. <
2491 3 -3 -5 -3 1 640. 403. 138. o
2491 1 3 5 3 -1 640. 403. 138. o
2492 4 -3 5 3 0 8911. 10232. 138. o
2492 3 -3 -5 -3 0 8911. 10232. 138. o
2492 2 3 -5 -3 0 8911. 10232. 138. o
2492 1 3 5 3 0 8911. 10232. 138. o
2493 3 -3 -5 -3 -1 44. 74. 138. <
2493 1 3 5 3 1 44. 74. 138. <
2494 3 -4 -5 -3 1 93. 228. 252. <
2494 1 4 5 3 -1 93. 228. 252. <
2495 4 -4 5 3 0 45852. 49832. 252. o
2495 3 -4 -5 -3 0 45852. 49832. 252. o
2495 2 4 -5 -3 0 45852. 49832. 252. o
2495 1 4 5 3 0 45852. 49832. 252. o
2496 3 -4 -5 -3 -1 311. 362. 252. <
2496 1 4 5 3 1 311. 362. 252. <
2497 3 -5 -5 -3 1 7. 60. 104. <
2497 1 5 5 3 -1 7. 60. 104. <
2498 4 -5 5 3 0 3368. 3524. 104. o
2498 3 -5 -5 -3 0 3368. 3524. 104. o
2498 2 5 -5 -3 0 3368. 3524. 104. o
2498 1 5 5 3 0 3368. 3524. 104. o
2499 3 -5 -5 -3 -1 11. 27. 104. <
2499 1 5 5 3 1 11. 27. 104. <
2500 3 12 -6 -3 1 146. -3. 170. <
2500 1 -12 6 3 -1 146. -3. 170. <
2501 4 12 6 3 0 1421. 985. 171. o
2501 3 12 -6 -3 0 1421. 985. 171. o
2501 2 -12 -6 -3 0 1421. 985. 171. o
2501 1 -12 6 3 0 1421. 985. 171. o
2502 3 12 -6 -3 -1 139. 32. 172. <
2502 1 -12 6 3 1 139. 32. 172. <
2503 3 11 -6 -3 1 148. 196. 145. <
2503 1 -11 6 3 -1 148. 196. 145. <
2504 4 11 6 3 0 905. 684. 147. o
2504 3 11 -6 -3 0 905. 684. 147. o
2504 2 -11 -6 -3 0 905. 684. 147. o
2504 1 -11 6 3 0 905. 684. 147. o
2505 3 11 -6 -3 -1 19. 19. 149. <
2505 1 -11 6 3 1 19. 19. 149. <
2506 3 10 -6 -3 1 78. 107. 134. <
2506 1 -10 6 3 -1 78. 107. 134. <
2507 4 10 6 3 0 2202. 2391. 146. o
2507 3 10 -6 -3 0 2202. 2391. 146. o
2507 2 -10 -6 -3 0 2202. 2391. 146. o
2507 1 -10 6 3 0 2202. 2391. 146. o
2508 3 10 -6 -3 -1 227. 157. 141. <
2508 1 -10 6 3 1 227. 157. 141. <
2509 3 9 -6 -3 1 177. 232. 134. <
2509 1 -9 6 3 -1 177. 232. 134. <
2510 4 9 6 3 0 607. 1016. 143. o
2510 3 9 -6 -3 0 607. 1016. 143. o
2510 2 -9 -6 -3 0 607. 1016. 143. o
2510 1 -9 6 3 0 607. 1016. 143. o
2511 3 9 -6 -3 -1 455. 470. 142. o
2511 1 -9 6 3 1 455. 470. 142. o
2512 3 8 -6 -3 1 3079. 3186. 157. o
2512 1 -8 6 3 -1 3079. 3186. 157. o
2513 4 8 6 3 0 3752. 3684. 153. o
2513 3 8 -6 -3 0 3752. 3684. 153. o
2513 2 -8 -6 -3 0 3752. 3684. 153. o
2513 1 -8 6 3 0 3752. 3684. 153. o
2514 3 8 -6 -3 -1 1323. 1458. 142. o
2514 1 -8 6 3 1 1323. 1458. 142. o
2515 3 7 -6 -3 1 311. 376. 248. <
2515 1 -7 6 3 -1 311. 376. 248. <
2516 4 7 6 3 0 69595. 69016. 318. o
2516 3 7 -6 -3 0 69595. 69016. 318. o
2516 2 -7 -6 -3 0 69595. 69016. 318. o
2516 1 -7 6 3 0 69595. 69016. 318. o
2517 3 7 -6 -3 -1 81. 135. 229. <
2517 1 -7 6 3 1 81. 135. 229. <
2518 3 6 -6 -3 1 211. 253. 232. <
2518 1 -6 6 3 -1 211. 253. 232. <
2519 4 6 6 3 0 78689. 76011. 313. o
2519 3 6 -6 -3 0 78689. 76011. 313. o
2519 2 -6 -6 -3 0 78689. 76011. 313. o
2519 1 -6 6 3 0 78689. 76011. 313. o
2520 3 6 -6 -3 -1 251. 311. 221. <
2520 1 -6 6 3 1 251. 311. 221. <
2521 3 5 -6 -3 1 18. -9. 57. <
2521 1 -5 6 3 -1 18. -9. 57. <
2522 4 5 6 3 0 435. 430. 60. o
2522 3 5 -6 -3 0 435. 430. 60. o
2522 2 -5 -6 -3 0 435. 430. 60. o
2522 1 -5 6 3 0 435. 430. 60. o
2523 3 5 -6 -3 -1 364. 349. 58. o
2523 1 -5 6 3 1 364. 349. 58. o
2524 3 4 -6 -3 1 2321. 2272. 74. o
2524 1 -4 6 3 -1 2321. 2272. 74. o
2525 4 4 6 3 0 3317. 3610. 77. o
2525 3 4 -6 -3 0 3317. 3610. 77. o
2525 2 -4 -6 -3 0 3317. 3610. 77. o
2525 1 -4 6 3 0 3317. 3610. 77. o
2526 3 4 -6 -3 -1 2688. 2766. 76. o
2526 1 -4 6 3 1 2688. 2766. 76. o
2527 3 3 -6 -3 1 1033. 911. 142. o
2527 1 -3 6 3 -1 1033. 911. 142. o
2528 4 3 6 3 0 92344. 105646. 351. o
2528 3 3 -6 -3 0 92344. 105646. 351. o
2528 2 -3 -6 -3 0 92344. 105646. 351. o
2528 1 -3 6 3 0 92344. 105646. 351. o
2529 3 3 -6 -3 -1 677. 692. 142. o
2529 1 -3 6 3 1 677. 692. 142. o
2530 3 2 -6 -3 1 108. 79. 147. <
2530 1 -2 6 3 -1 108. 79. 147. <
2531 4 2 6 3 0 78941. 75874. 238. o
2531 3 2 -6 -3 0 78941. 75874. 238. o
2531 2 -2 -6 -3 0 78941. 75874. 238. o
2531 1 -2 6 3 0 78941. 75874. 238. o
2532 3 2 -6 -3 -1 69. 79. 151. <
2532 1 -2 6 3 1 69. 79. 151. <
2533 3 1 -6 -3 1 47. 59. 61. <
2533 1 -1 6 3 -1 47. 59. 61. <
2534 4 1 6 3 0 2621. 2330. 70. o
2534 3 1 -6 -3 0 2621. 2330. 70. o
2534 2 -1 -6 -3 0 2621. 2330. 70. o
2534 1 -1 6 3 0 2621. 2330. 70. o
2535 3 1 -6 -3 -1 59. 43. 60. <
2535 1 -1 6 3 1 59. 43. 60. <
2536 3 0 -6 -3 1 112. 115. 37. o
2536 1 0 6 3 -1 112. 115. 37. o
2537 4 0 6 3 0 15. 195. 59. o
2537 3 0 -6 -3 0 15. 195. 59. o
2537 2 0 -6 -3 0 15. 195. 59. o
2537 1 0 6 3 0 15. 195. 59. o
2538 3 0 -6 -3 -1 25. -2. 52. <
2538 1 0 6 3 1 25. -2. 52. <
2539 3 -1 -6 -3 1 784. 563. 74. o
2539 1 1 6 3 -1 784. 563. 74. o
2540 4 -1 6 3 0 2711. 2661. 79. o
2540 3 -1 -6 -3 0 2711. 2661. 79. o
2540 2 1 -6 -3 0 2711. 2661. 79. o
2540 1 1 6 3 0 2711. 2661. 79. o
2541 3 -1 -6 -3 -1 539. 474. 72. o
2541 1 1 6 3 1 539. 474. 72. o
2542 3 -2 -6 -3 1 815. 835. 187. o
2542 1 2 6 3 -1 815. 835. 187. o
2543 4 -2 6 3 0 79594. 71985. 255. o
2543 3 -2 -6 -3 0 79594. 71985. 255. o
2543 2 2 -6 -3 0 79594. 71985. 255. o
2543 1 2 6 3 0 79594. 71985. 255. o
2544 3 -2 -6 -3 -1 1185. 1066. 186. o
2544 1 2 6 3 1 1185. 1066. 186. o
2545 3 -3 -6 -3 1 288. 341. 192. <
2545 1 3 6 3 -1 288. 341. 192. <
2546 4 -3 6 3 0 92944. 88395. 289. o
2546 3 -3 -6 -3 0 92944. 88395. 289. o
2546 2 3 -6 -3 0 92944. 88395. 289. o
2546 1 3 6 3 0 92944. 88395. 289. o
2547 3 -3 -6 -3 -1 139. 261. 192. <
2547 1 3 6 3 1 139. 261. 192. <
2548 3 -4 -6 -3 1 36. 1252. 115. o
2548 1 4 6 3 -1 36. 1252. 115. o
2549 4 -4 6 3 0 3038. 1254. 116. o
2549 3 -4 -6 -3 0 3038. 1254. 116. o
2549 2 4 -6 -3 0 3038. 1254. 116. o
2549 1 4 6 3 0 3038. 1254. 116. o
2550 3 -4 -6 -3 -1 232. 1255. 116. o
2550 1 4 6 3 1 232. 1255. 116. o
2551 3 11 -7 -3 1 40. -20. 168. <
2551 1 -11 7 3 -1 40. -20. 168. <
2552 4 11 7 3 0 1192. 1173. 170. o
2552 3 11 -7 -3 0 1192. 1173. 170. o
2552 2 -11 -7 -3 0 1192. 1173. 170. o
2552 1 -11 7 3 0 1192. 1173. 170. o
2553 3 11 -7 -3 -1 76. 101. 173. <
2553 1 -11 7 3 1 76. 101. 173. <
2554 3 10 -7 -3 1 220. 450. 412. <
2554 1 -10 7 3 -1 220. 450. 412. <
2555 4 10 7 3 0 66360. 70820. 406. o
2555 3 10 -7 -3 0 66360. 70820. 406. o
2555 2 -10 -7 -3 0 66360. 70820. 406. o
2555 1 -10 7 3 0 66360. 70820. 406. o
2556 3 10 -7 -3 -1 414. 1132. 395. o
2556 1 -10 7 3 1 414. 1132. 395. o
2557 3 9 -7 -3 1 712. 1362. 194. o
2557 1 -9 7 3 -1 712. 1362. 194. o
2558 4 9 7 3 0 9962. 9127. 189. o
2558 3 9 -7 -3 0 9962. 9127. 189. o
2558 2 -9 -7 -3 0 9962. 9127. 189. o
2558 1 -9 7 3 0 9962. 9127. 189. o
2559 3 9 -7 -3 -1 110. 32. 185. <
2559 1 -9 7 3 1 110. 32. 185. <
2560 3 8 -7 -3 1 4. -16. 123. <
2560 1 -8 7 3 -1 4. -16. 123. <
2561 4 8 7 3 0 1951. 1969. 129. o
2561 3 8 -7 -3 0 1951. 1969. 129. o
2561 2 -8 -7 -3 0 1951. 1969. 129. o
2561 1 -8 7 3 0 1951. 1969. 129. o
2562 3 8 -7 -3 -1 143. 82. 117. <
2562 1 -8 7 3 1 143. 82. 117. <
2563 3 7 -7 -3 1 239. 314. 107. o
2563 1 -7 7 3 -1 239. 314. 107. o
2564 4 7 7 3 0 632. 704. 107. o
2564 3 7 -7 -3 0 632. 704. 107. o
2564 2 -7 -7 -3 0 632. 704. 107. o
2564 1 -7 7 3 0 632. 704. 107. o
2565 3 7 -7 -3 -1 230. 284. 102. o
2565 1 -7 7 3 1 230. 284. 102. o
2566 3 6 -7 -3 1 137. 150. 215. <
2566 1 -6 7 3 -1 137. 150. 215. <
2567 4 6 7 3 0 63281. 62061. 295. o
2567 3 6 -7 -3 0 63281. 62061. 295. o
2567 2 -6 -7 -3 0 63281. 62061. 295. o
2567 1 -6 7 3 0 63281. 62061. 295. o
2568 3 6 -7 -3 -1 252. 288. 207. <
2568 1 -6 7 3 1 252. 288. 207. <
2569 3 5 -7 -3 1 220. 203. 94. o
2569 1 -5 7 3 -1 220. 203. 94. o
2570 4 5 7 3 0 21538. 26720. 181. o
2570 3 5 -7 -3 0 21538. 26720. 181. o
2570 2 -5 -7 -3 0 21538. 26720. 181. o
2570 1 -5 7 3 0 21538. 26720. 181. o
2571 3 5 -7 -3 -1 47. 105. 90. <
2571 1 -5 7 3 1 47. 105. 90. <
2572 3 4 -7 -3 1 200. 177. 37. o
2572 1 -4 7 3 -1 200. 177. 37. o
2573 4 4 7 3 0 16653. 19870. 155. o
2573 3 4 -7 -3 0 16653. 19870. 155. o
2573 2 -4 -7 -3 0 16653. 19870. 155. o
2573 1 -4 7 3 0 16653. 19870. 155. o
2574 3 4 -7 -3 -1 139. 82. 40. o
2574 1 -4 7 3 1 139. 82. 40. o
2575 3 3 -7 -3 1 955. 1119. 61. o
2575 1 -3 7 3 -1 955. 1119. 61. o
2576 4 3 7 3 0 7094. 7951. 111. o
2576 3 3 -7 -3 0 7094. 7951. 111. o
2576 2 -3 -7 -3 0 7094. 7951. 111. o
2576 1 -3 7 3 0 7094. 7951. 111. o
2577 3 3 -7 -3 -1 411. 569. 52. o
2577 1 -3 7 3 1 411. 569. 52. o
2578 3 2 -7 -3 1 299. 298. 42. o
2578 1 -2 7 3 -1 299. 298. 42. o
2579 4 2 7 3 0 49998. 48390. 233. o
2579 3 2 -7 -3 0 49998. 48390. 233. o
2579 2 -2 -7 -3 0 49998. 48390. 233. o
2579 1 -2 7 3 0 49998. 48390. 233. o
2580 3 2 -7 -3 -1 36. 44. 37. <
2580 1 -2 7 3 1 36. 44. 37. <
2581 3 1 -7 -3 1 498. 507. 42. o
2581 1 -1 7 3 -1 498. 507. 42. o
2582 4 1 7 3 0 856. 769. 55. o
2582 3 1 -7 -3 0 856. 769. 55. o
2582 2 -1 -7 -3 0 856. 769. 55. o
2582 1 -1 7 3 0 856. 769. 55. o
2583 3 1 -7 -3 -1 652. 693. 59. o
2583 1 -1 7 3 1 652. 693. 59. o
2584 3 0 -7 -3 1 25. 2417. 152. o
2584 1 0 7 3 -1 25. 2417. 152. o
2585 4 0 7 3 0 15987. 14559. 119. o
2585 3 0 -7 -3 0 15987. 14559. 119. o
2585 2 0 -7 -3 0 15987. 14559. 119. o
2585 1 0 7 3 0 15987. 14559. 119. o
2586 3 0 -7 -3 -1 568. 1463. 78. o
2586 1 0 7 3 1 568. 1463. 78. o
2587 3 -1 -7 -3 1 40. -9. 63. <
2587 1 1 7 3 -1 40. -9. 63. <
2588 4 -1 7 3 0 824. 797. 69. o
2588 3 -1 -7 -3 0 824. 797. 69. o
2588 2 1 -7 -3 0 824. 797. 69. o
2588 1 1 7 3 0 824. 797. 69. o
2589 3 -1 -7 -3 -1 19. 18. 64. <
2589 1 1 7 3 1 19. 18. 64. <
2590 3 -2 -7 -3 1 527. 522. 166. o
2590 1 2 7 3 -1 527. 522. 166. o
2591 4 -2 7 3 0 50344. 45720. 218. o
2591 3 -2 -7 -3 0 50344. 45720. 218. o
2591 2 2 -7 -3 0 50344. 45720. 218. o
2591 1 2 7 3 0 50344. 45720. 218. o
2592 3 -2 -7 -3 -1 185. 253. 164. <
2592 1 2 7 3 1 185. 253. 164. <
2593 3 -3 -7 -3 1 321. 234. 84. o
2593 1 3 7 3 -1 321. 234. 84. o
2594 4 -3 7 3 0 7142. 6636. 104. o
2594 3 -3 -7 -3 0 7142. 6636. 104. o
2594 2 3 -7 -3 0 7142. 6636. 104. o
2594 1 3 7 3 0 7142. 6636. 104. o
2595 3 -3 -7 -3 -1 159. 137. 83. <
2595 1 3 7 3 1 159. 137. 83. <
2596 3 -4 -7 -3 1 409. 304. 67. o
2596 1 4 7 3 -1 409. 304. 67. o
2597 4 11 8 3 0 5634. 5976. 180. o
2597 3 11 -8 -3 0 5634. 5976. 180. o
2597 2 -11 -8 -3 0 5634. 5976. 180. o
2597 1 -11 8 3 0 5634. 5976. 180. o
2598 3 11 -8 -3 -1 288. 309. 178. <
2598 1 -11 8 3 1 288. 309. 178. <
2599 3 10 -8 -3 1 1942. 1709. 189. o
2599 1 -10 8 3 -1 1942. 1709. 189. o
2600 4 10 8 3 0 2963. 2672. 185. o
2600 3 10 -8 -3 0 2963. 2672. 185. o
2600 2 -10 -8 -3 0 2963. 2672. 185. o
2600 1 -10 8 3 0 2963. 2672. 185. o
2601 3 10 -8 -3 -1 1256. 1041. 182. o
2601 1 -10 8 3 1 1256. 1041. 182. o
2602 3 9 -8 -3 1 364. 445. 168. o
2602 1 -9 8 3 -1 364. 445. 168. o
2603 4 9 8 3 0 5299. 5004. 166. o
2603 3 9 -8 -3 0 5299. 5004. 166. o
2603 2 -9 -8 -3 0 5299. 5004. 166. o
2603 1 -9 8 3 0 5299. 5004. 166. o
2604 3 9 -8 -3 -1 96. 5. 164. <
2604 1 -9 8 3 1 96. 5. 164. <
2605 3 8 -8 -3 1 291. 44. 196. <
2605 1 -8 8 3 -1 291. 44. 196. <
2606 4 8 8 3 0 13408. 13564. 194. o
2606 3 8 -8 -3 0 13408. 13564. 194. o
2606 2 -8 -8 -3 0 13408. 13564. 194. o
2606 1 -8 8 3 0 13408. 13564. 194. o
2607 3 8 -8 -3 -1 148. 92. 193. <
2607 1 -8 8 3 1 148. 92. 193. <
2608 3 7 -8 -3 1 13. 41. 130. <
2608 1 -7 8 3 -1 13. 41. 130. <
2609 4 7 8 3 0 2261. 1806. 129. o
2609 3 7 -8 -3 0 2261. 1806. 129. o
2609 2 -7 -8 -3 0 2261. 1806. 129. o
2609 1 -7 8 3 0 2261. 1806. 129. o
2610 3 7 -8 -3 -1 20. 15. 129. <
2610 1 -7 8 3 1 20. 15. 129. <
2611 3 6 -8 -3 1 1200. 1463. 103. o
2611 1 -6 8 3 -1 1200. 1463. 103. o
2612 4 6 8 3 0 3415. 3683. 182. o
2612 3 6 -8 -3 0 3415. 3683. 182. o
2612 2 -6 -8 -3 0 3415. 3683. 182. o
2612 1 -6 8 3 0 3415. 3683. 182. o
2613 3 6 -8 -3 -1 2643. 2663. 184. o
2613 1 -6 8 3 1 2643. 2663. 184. o
2614 3 5 -8 -3 1 216. 211. 120. <
2614 1 -5 8 3 -1 216. 211. 120. <
2615 4 5 8 3 0 14483. 13464. 159. o
2615 3 5 -8 -3 0 14483. 13464. 159. o
2615 2 -5 -8 -3 0 14483. 13464. 159. o
2615 1 -5 8 3 0 14483. 13464. 159. o
2616 3 5 -8 -3 -1 27. -11. 117. <
2616 1 -5 8 3 1 27. -11. 117. <
2617 3 4 -8 -3 1 44. 10. 84. <
2617 1 -4 8 3 -1 44. 10. 84. <
2618 4 4 8 3 0 16354. 20746. 178. o
2618 3 4 -8 -3 0 16354. 20746. 178. o
2618 2 -4 -8 -3 0 16354. 20746. 178. o
2618 1 -4 8 3 0 16354. 20746. 178. o
2619 3 4 -8 -3 -1 279. 284. 85. o
2619 1 -4 8 3 1 279. 284. 85. o
2620 3 3 -8 -3 1 393. 301. 76. o
2620 1 -3 8 3 -1 393. 301. 76. o
2621 4 3 8 3 0 10258. 10766. 112. o
2621 3 3 -8 -3 0 10258. 10766. 112. o
2621 2 -3 -8 -3 0 10258. 10766. 112. o
2621 1 -3 8 3 0 10258. 10766. 112. o
2622 3 3 -8 -3 -1 320. 282. 74. o
2622 1 -3 8 3 1 320. 282. 74. o
2623 3 2 -8 -3 1 65. 47. 37. <
2623 1 -2 8 3 -1 65. 47. 37. <
2624 4 2 8 3 0 7346. 7545. 110. o
2624 3 2 -8 -3 0 7346. 7545. 110. o
2624 2 -2 -8 -3 0 7346. 7545. 110. o
2624 1 -2 8 3 0 7346. 7545. 110. o
2625 3 2 -8 -3 -1 24. 32. 40. <
2625 1 -2 8 3 1 24. 32. 40. <
2626 3 1 -8 -3 1 646. 10042. 276. o
2626 1 -1 8 3 -1 646. 10042. 276. o
2627 4 1 8 3 0 53981. 48181. 201. o
2627 3 1 -8 -3 0 53981. 48181. 201. o
2627 2 -1 -8 -3 0 53981. 48181. 201. o
2627 1 -1 8 3 0 53981. 48181. 201. o
2628 3 1 -8 -3 -1 1697. 10535. 279. o
2628 1 -1 8 3 1 1697. 10535. 279. o
2629 3 0 -8 -3 1 1712. 1673. 69. o
2629 1 0 8 3 -1 1712. 1673. 69. o
2630 4 0 8 3 0 2368. 2334. 69. o
2630 3 0 -8 -3 0 2368. 2334. 69. o
2630 2 0 -8 -3 0 2368. 2334. 69. o
2630 1 0 8 3 0 2368. 2334. 69. o
2631 3 0 -8 -3 -1 1402. 1424. 67. o
2631 1 0 8 3 1 1402. 1424. 67. o
2632 3 -1 -8 -3 1 151. 207. 137. <
2632 1 1 8 3 -1 151. 207. 137. <
2633 4 -1 8 3 0 54538. 50262. 255. o
2633 3 -1 -8 -3 0 54538. 50262. 255. o
2633 2 1 -8 -3 0 54538. 50262. 255. o
2633 1 1 8 3 0 54538. 50262. 255. o
2634 3 -1 -8 -3 -1 5. 78. 201. <
2634 1 1 8 3 1 5. 78. 201. <
2635 3 -2 -8 -3 1 33. 20. 133. <
2635 1 2 8 3 -1 33. 20. 133. <
2636 4 -2 8 3 0 7466. 7192. 132. o
2636 3 -2 -8 -3 0 7466. 7192. 132. o
2636 2 2 -8 -3 0 7466. 7192. 132. o
2636 1 2 8 3 0 7466. 7192. 132. o
2637 3 -2 -8 -3 -1 161. 94. 131. <
2637 1 2 8 3 1 161. 94. 131. <
2638 3 -3 -8 -3 1 203. 260. 101. o
2638 1 3 8 3 -1 203. 260. 101. o
2639 4 -3 8 3 0 10560. 10344. 128. o
2639 3 -3 -8 -3 0 10560. 10344. 128. o
2639 2 3 -8 -3 0 10560. 10344. 128. o
2639 1 3 8 3 0 10560. 10344. 128. o
2640 3 -3 -8 -3 -1 324. 326. 102. o
2640 1 3 8 3 1 324. 326. 102. o
2641 3 -4 -8 -3 1 621. 753. 89. o
2641 1 4 8 3 -1 621. 753. 89. o
2642 4 -4 8 3 0 16868. 15576. 220. o
2642 3 -4 -8 -3 0 16868. 15576. 220. o
2642 2 4 -8 -3 0 16868. 15576. 220. o
2642 1 4 8 3 0 16868. 15576. 220. o
2643 3 -4 -8 -3 -1 305. 318. 68. o
2643 1 4 8 3 1 305. 318. 68. o
2644 3 10 -9 -3 1 195. 830. 276. o
2644 1 -10 9 3 -1 195. 830. 276. o
2645 4 10 9 3 0 26649. 25472. 274. o
2645 3 10 -9 -3 0 26649. 25472. 274. o
2645 2 -10 -9 -3 0 26649. 25472. 274. o
2645 1 -10 9 3 0 26649. 25472. 274. o
2646 3 10 -9 -3 -1 193. 88. 273. <
2646 1 -10 9 3 1 193. 88. 273. <
2647 3 9 -9 -3 1 682. 716. 171. o
2647 1 -9 9 3 -1 682. 716. 171. o
2648 4 9 9 3 0 3458. 3362. 170. o
2648 3 9 -9 -3 0 3458. 3362. 170. o
2648 2 -9 -9 -3 0 3458. 3362. 170. o
2648 1 -9 9 3 0 3458. 3362. 170. o
2649 3 9 -9 -3 -1 684. 640. 169. o
2649 1 -9 9 3 1 684. 640. 169. o
2650 3 8 -9 -3 1 30. 77. 166. <
2650 1 -8 9 3 -1 30. 77. 166. <
2651 4 8 9 3 0 5268. 5156. 166. o
2651 3 8 -9 -3 0 5268. 5156. 166. o
2651 2 -8 -9 -3 0 5268. 5156. 166. o
2651 1 -8 9 3 0 5268. 5156. 166. o
2652 3 8 -9 -3 -1 57. 7. 165. <
2652 1 -8 9 3 1 57. 7. 165. <
2653 3 7 -9 -3 1 281. 134. 176. <
2653 1 -7 9 3 -1 281. 134. 176. <
2654 4 7 9 3 0 8367. 8542. 175. o
2654 3 7 -9 -3 0 8367. 8542. 175. o
2654 2 -7 -9 -3 0 8367. 8542. 175. o
2654 1 -7 9 3 0 8367. 8542. 175. o
2655 3 7 -9 -3 -1 598. 368. 175. o
2655 1 -7 9 3 1 598. 368. 175. o
2656 3 6 -9 -3 1 505. 331. 173. <
2656 1 -6 9 3 -1 505. 331. 173. <
2657 4 6 9 3 0 235. 558. 175. o
2657 3 6 -9 -3 0 235. 558. 175. o
2657 2 -6 -9 -3 0 235. 558. 175. o
2657 1 -6 9 3 0 235. 558. 175. o
2658 3 6 -9 -3 -1 190. 137. 178. <
2658 1 -6 9 3 1 190. 137. 178. <
2659 3 5 -9 -3 1 851. 776. 86. o
2659 1 -5 9 3 -1 851. 776. 86. o
2660 4 5 9 3 0 23669. 26162. 303. o
2660 3 5 -9 -3 0 23669. 26162. 303. o
2660 2 -5 -9 -3 0 23669. 26162. 303. o
2660 1 -5 9 3 0 23669. 26162. 303. o
2661 3 5 -9 -3 -1 391. 289. 76. o
2661 1 -5 9 3 1 391. 289. 76. o
2662 3 4 -9 -3 1 6. 34. 49. <
2662 1 -4 9 3 -1 6. 34. 49. <
2663 4 4 9 3 0 15610. 20079. 191. o
2663 3 4 -9 -3 0 15610. 20079. 191. o
2663 2 -4 -9 -3 0 15610. 20079. 191. o
2663 1 -4 9 3 0 15610. 20079. 191. o
2664 3 4 -9 -3 -1 82. -5. 45. <
2664 1 -4 9 3 1 82. -5. 45. <
2665 3 3 -9 -3 1 468. 493. 148. o
2665 1 -3 9 3 -1 468. 493. 148. o
2666 4 3 9 3 0 24972. 25369. 173. o
2666 3 3 -9 -3 0 24972. 25369. 173. o
2666 2 -3 -9 -3 0 24972. 25369. 173. o
2666 1 -3 9 3 0 24972. 25369. 173. o
2667 3 3 -9 -3 -1 1146. 1030. 152. o
2667 1 -3 9 3 1 1146. 1030. 152. o
2668 3 2 -9 -3 1 501. 419. 62. o
2668 1 -2 9 3 -1 501. 419. 62. o
2669 4 2 9 3 0 553. 423. 61. o
2669 3 2 -9 -3 0 553. 423. 61. o
2669 2 -2 -9 -3 0 553. 423. 61. o
2669 1 -2 9 3 0 553. 423. 61. o
2670 3 2 -9 -3 -1 105. 89. 57. <
2670 1 -2 9 3 1 105. 89. 57. <
2671 3 1 -9 -3 1 233. 363. 61. o
2671 1 -1 9 3 -1 233. 363. 61. o
2672 4 1 9 3 0 1021. 755. 67. o
2672 3 1 -9 -3 0 1021. 755. 67. o
2672 2 -1 -9 -3 0 1021. 755. 67. o
2672 1 -1 9 3 0 1021. 755. 67. o
2673 3 1 -9 -3 -1 412. 415. 57. o
2673 1 -1 9 3 1 412. 415. 57. o
2674 3 0 -9 -3 1 589. 608. 246. o
2674 1 0 9 3 -1 589. 608. 246. o
2675 4 0 9 3 0 125791. 112822. 366. o
2675 3 0 -9 -3 0 125791. 112822. 366. o
2675 2 0 -9 -3 0 125791. 112822. 366. o
2675 1 0 9 3 0 125791. 112822. 366. o
2676 3 0 -9 -3 -1 171. 234. 243. <
2676 1 0 9 3 1 171. 234. 243. <
2677 3 -1 -9 -3 1 487. 370. 77. o
2677 1 1 9 3 -1 487. 370. 77. o
2678 4 -1 9 3 0 1058. 1034. 78. o
2678 3 -1 -9 -3 0 1058. 1034. 78. o
2678 2 1 -9 -3 0 1058. 1034. 78. o
2678 1 1 9 3 0 1058. 1034. 78. o
2679 3 -1 -9 -3 -1 404. 430. 75. o
2679 1 1 9 3 1 404. 430. 75. o
2680 3 -2 -9 -3 1 68. 18. 112. <
2680 1 2 9 3 -1 68. 18. 112. <
2681 4 -2 9 3 0 550. 628. 112. o
2681 3 -2 -9 -3 0 550. 628. 112. o
2681 2 2 -9 -3 0 550. 628. 112. o
2681 1 2 9 3 0 550. 628. 112. o
2682 3 -2 -9 -3 -1 307. 194. 111. <
2682 1 2 9 3 1 307. 194. 111. <
2683 3 -3 -9 -3 1 145. 136. 280. <
2683 1 3 9 3 -1 145. 136. 280. <
2684 4 -3 9 3 0 24947. 23851. 278. o
2684 3 -3 -9 -3 0 24947. 23851. 278. o
2684 2 3 -9 -3 0 24947. 23851. 278. o
2684 1 3 9 3 0 24947. 23851. 278. o
2685 3 -3 -9 -3 -1 297. 150. 276. <
2685 1 3 9 3 1 297. 150. 276. <
2686 3 -4 -9 -3 1 126. 48. 58. <
2686 1 4 9 3 -1 126. 48. 58. <
2687 4 -4 9 3 0 15632. 14608. 210. o
2687 3 -4 -9 -3 0 15632. 14608. 210. o
2687 2 4 -9 -3 0 15632. 14608. 210. o
2687 1 4 9 3 0 15632. 14608. 210. o
2688 3 -4 -9 -3 -1 141. 94. 61. <
2688 1 4 9 3 1 141. 94. 61. <
2689 3 -5 -9 -3 1 143. 53. 68. <
2689 1 5 9 3 -1 143. 53. 68. <
2690 4 -5 9 3 0 24257. 22099. 277. o
2690 3 -5 -9 -3 0 24257. 22099. 277. o
2690 2 5 -9 -3 0 24257. 22099. 277. o
2690 1 5 9 3 0 24257. 22099. 277. o
2691 3 -5 -9 -3 -1 44. 135. 69. <
2691 1 5 9 3 1 44. 135. 69. <
2692 3 9 -10 -3 1 638. 462. 268. <
2692 1 -9 10 3 -1 638. 462. 268. <
2693 4 9 10 3 0 24622. 24086. 267. o
2693 3 9 -10 -3 0 24622. 24086. 267. o
2693 2 -9 -10 -3 0 24622. 24086. 267. o
2693 1 -9 10 3 0 24622. 24086. 267. o
2694 3 9 -10 -3 -1 626. 222. 266. <
2694 1 -9 10 3 1 626. 222. 266. <
2695 3 8 -10 -3 1 1016. 1261. 241. o
2695 1 -8 10 3 -1 1016. 1261. 241. o
2696 4 8 10 3 0 2050. 2474. 243. o
2696 3 8 -10 -3 0 2050. 2474. 243. o
2696 2 -8 -10 -3 0 2050. 2474. 243. o
2696 1 -8 10 3 0 2050. 2474. 243. o
2697 3 8 -10 -3 -1 1324. 1284. 245. o
2697 1 -8 10 3 1 1324. 1284. 245. o
2698 3 7 -10 -3 1 218. 65. 535. <
2698 1 -7 10 3 -1 218. 65. 535. <
2699 4 7 10 3 0 58731. 66789. 541. o
2699 3 7 -10 -3 0 58731. 66789. 541. o
2699 2 -7 -10 -3 0 58731. 66789. 541. o
2699 1 -7 10 3 0 58731. 66789. 541. o
2700 3 7 -10 -3 -1 193. 418. 547. <
2700 1 -7 10 3 1 193. 418. 547. <
2701 3 6 -10 -3 1 184. 86. 141. <
2701 1 -6 10 3 -1 184. 86. 141. <
2702 4 6 10 3 0 2050. 2073. 142. o
2702 3 6 -10 -3 0 2050. 2073. 142. o
2702 2 -6 -10 -3 0 2050. 2073. 142. o
2702 1 -6 10 3 0 2050. 2073. 142. o
2703 3 6 -10 -3 -1 54. 58. 142. <
2703 1 -6 10 3 1 54. 58. 142. <
2704 3 5 -10 -3 1 258. 165. 241. <
2704 1 -5 10 3 -1 258. 165. 241. <
2705 4 5 10 3 0 27318. 27792. 243. o
2705 3 5 -10 -3 0 27318. 27792. 243. o
2705 2 -5 -10 -3 0 27318. 27792. 243. o
2705 1 -5 10 3 0 27318. 27792. 243. o
2706 3 5 -10 -3 -1 198. 126. 244. <
2706 1 -5 10 3 1 198. 126. 244. <
2707 3 4 -10 -3 1 333. 364. 380. <
2707 1 -4 10 3 -1 333. 364. 380. <
2708 4 4 10 3 0 29541. 31673. 388. o
2708 3 4 -10 -3 0 29541. 31673. 388. o
2708 2 -4 -10 -3 0 29541. 31673. 388. o
2708 1 -4 10 3 0 29541. 31673. 388. o
2709 3 4 -10 -3 -1 10. 23. 200. <
2709 1 -4 10 3 1 10. 23. 200. <
2710 3 3 -10 -3 1 327. 465. 223. o
2710 1 -3 10 3 -1 327. 465. 223. o
2711 4 3 10 3 0 43211. 42918. 267. o
2711 3 3 -10 -3 0 43211. 42918. 267. o
2711 2 -3 -10 -3 0 43211. 42918. 267. o
2711 1 -3 10 3 0 43211. 42918. 267. o
2712 3 3 -10 -3 -1 528. 297. 204. <
2712 1 -3 10 3 1 528. 297. 204. <
2713 3 2 -10 -3 1 2095. 1986. 74. o
2713 1 -2 10 3 -1 2095. 1986. 74. o
2714 4 2 10 3 0 2597. 2451. 75. o
2714 3 2 -10 -3 0 2597. 2451. 75. o
2714 2 -2 -10 -3 0 2597. 2451. 75. o
2714 1 -2 10 3 0 2597. 2451. 75. o
2715 3 2 -10 -3 -1 292. 303. 62. o
2715 1 -2 10 3 1 292. 303. 62. o
2716 3 1 -10 -3 1 22. 11. 71. <
2716 1 -1 10 3 -1 22. 11. 71. <
2717 4 1 10 3 0 583. 445. 73. o
2717 3 1 -10 -3 0 583. 445. 73. o
2717 2 -1 -10 -3 0 583. 445. 73. o
2717 1 -1 10 3 0 583. 445. 73. o
2718 3 1 -10 -3 -1 56. -31. 69. <
2718 1 -1 10 3 1 56. -31. 69. <
2719 3 0 -10 -3 1 226. 115. 98. <
2719 1 0 10 3 -1 226. 115. 98. <
2720 4 0 10 3 0 390. 340. 98. o
2720 3 0 -10 -3 0 390. 340. 98. o
2720 2 0 -10 -3 0 390. 340. 98. o
2720 1 0 10 3 0 390. 340. 98. o
2721 3 0 -10 -3 -1 67. 59. 97. <
2721 1 0 10 3 1 67. 59. 97. <
2722 3 -1 -10 -3 1 8. 10. 69. <
2722 1 1 10 3 -1 8. 10. 69. <
2723 4 -1 10 3 0 597. 619. 71. o
2723 3 -1 -10 -3 0 597. 619. 71. o
2723 2 1 -10 -3 0 597. 619. 71. o
2723 1 1 10 3 0 597. 619. 71. o
2724 3 -1 -10 -3 -1 93. 46. 68. <
2724 1 1 10 3 1 93. 46. 68. <
2725 3 -2 -10 -3 1 357. 327. 90. o
2725 1 2 10 3 -1 357. 327. 90. o
2726 4 -2 10 3 0 2574. 2674. 102. o
2726 3 -2 -10 -3 0 2574. 2674. 102. o
2726 2 2 -10 -3 0 2574. 2674. 102. o
2726 1 2 10 3 0 2574. 2674. 102. o
2727 3 -2 -10 -3 -1 1284. 1436. 97. o
2727 1 2 10 3 1 1284. 1436. 97. o
2728 3 -3 -10 -3 1 524. 422. 342. <
2728 1 3 10 3 -1 524. 422. 342. <
2729 4 -3 10 3 0 43449. 39766. 340. o
2729 3 -3 -10 -3 0 43449. 39766. 340. o
2729 2 3 -10 -3 0 43449. 39766. 340. o
2729 1 3 10 3 0 43449. 39766. 340. o
2730 3 -3 -10 -3 -1 495. 75. 338. <
2730 1 3 10 3 1 495. 75. 338. <
2731 3 -4 -10 -3 1 250. 125. 293. <
2731 1 4 10 3 -1 250. 125. 293. <
2732 4 -4 10 3 0 29833. 27755. 291. o
2732 3 -4 -10 -3 0 29833. 27755. 291. o
2732 2 4 -10 -3 0 29833. 27755. 291. o
2732 1 4 10 3 0 29833. 27755. 291. o
2733 3 -5 -10 -3 1 1. 85. 61. <
2733 1 5 10 3 -1 1. 85. 61. <
2734 4 -5 10 3 0 27645. 26730. 300. o
2734 3 -5 -10 -3 0 27645. 26730. 300. o
2734 2 5 -10 -3 0 27645. 26730. 300. o
2734 1 5 10 3 0 27645. 26730. 300. o
2735 3 -5 -10 -3 -1 326. 153. 298. <
2735 1 5 10 3 1 326. 153. 298. <
2736 3 8 -11 -3 1 383. 393. 172. o
2736 1 -8 11 3 -1 383. 393. 172. o
2737 4 8 11 3 0 5327. 4903. 172. o
2737 3 8 -11 -3 0 5327. 4903. 172. o
2737 2 -8 -11 -3 0 5327. 4903. 172. o
2737 1 -8 11 3 0 5327. 4903. 172. o
2738 3 8 -11 -3 -1 122. 59. 231. <
2738 1 -8 11 3 1 122. 59. 231. <
2739 3 7 -11 -3 1 130. 97. 154. <
2739 1 -7 11 3 -1 130. 97. 154. <
2740 4 7 11 3 0 1162. 1349. 154. o
2740 3 7 -11 -3 0 1162. 1349. 154. o
2740 2 -7 -11 -3 0 1162. 1349. 154. o
2740 1 -7 11 3 0 1162. 1349. 154. o
2741 3 7 -11 -3 -1 47. 4. 155. <
2741 1 -7 11 3 1 47. 4. 155. <
2742 3 6 -11 -3 1 128. 61. 146. <
2742 1 -6 11 3 -1 128. 61. 146. <
2743 4 6 11 3 0 582. 303. 146. o
2743 3 6 -11 -3 0 582. 303. 146. o
2743 2 -6 -11 -3 0 582. 303. 146. o
2743 1 -6 11 3 0 582. 303. 146. o
2744 3 6 -11 -3 -1 165. 126. 147. <
2744 1 -6 11 3 1 165. 126. 147. <
2745 3 5 -11 -3 1 474. 350. 209. <
2745 1 -5 11 3 -1 474. 350. 209. <
2746 4 5 11 3 0 12869. 13659. 208. o
2746 3 5 -11 -3 0 12869. 13659. 208. o
2746 2 -5 -11 -3 0 12869. 13659. 208. o
2746 1 -5 11 3 0 12869. 13659. 208. o
2747 3 5 -11 -3 -1 224. 292. 199. <
2747 1 -5 11 3 1 224. 292. 199. <
2748 3 4 -11 -3 1 346. 139. 128. <
2748 1 -4 11 3 -1 346. 139. 128. <
2749 4 4 11 3 0 602. 601. 124. o
2749 3 4 -11 -3 0 602. 601. 124. o
2749 2 -4 -11 -3 0 602. 601. 124. o
2749 1 -4 11 3 0 602. 601. 124. o
2750 3 4 -11 -3 -1 902. 596. 122. o
2750 1 -4 11 3 1 902. 596. 122. o
2751 3 3 -11 -3 1 577. 448. 143. o
2751 1 -3 11 3 -1 577. 448. 143. o
2752 4 3 11 3 0 22836. 21937. 163. o
2752 3 3 -11 -3 0 22836. 21937. 163. o
2752 2 -3 -11 -3 0 22836. 21937. 163. o
2752 1 -3 11 3 0 22836. 21937. 163. o
2753 3 3 -11 -3 -1 339. 150. 135. <
2753 1 -3 11 3 1 339. 150. 135. <
2754 3 2 -11 -3 1 450. 478. 64. o
2754 1 -2 11 3 -1 450. 478. 64. o
2755 4 2 11 3 0 4058. 3864. 85. o
2755 3 2 -11 -3 0 4058. 3864. 85. o
2755 2 -2 -11 -3 0 4058. 3864. 85. o
2755 1 -2 11 3 0 4058. 3864. 85. o
2756 3 2 -11 -3 -1 132. 88. 75. <
2756 1 -2 11 3 1 132. 88. 75. <
2757 3 1 -11 -3 1 579. 559. 94. o
2757 1 -1 11 3 -1 579. 559. 94. o
2758 4 1 11 3 0 1473. 1616. 92. o
2758 3 1 -11 -3 0 1473. 1616. 92. o
2758 2 -1 -11 -3 0 1473. 1616. 92. o
2758 1 -1 11 3 0 1473. 1616. 92. o
2759 3 1 -11 -3 -1 876. 828. 91. o
2759 1 -1 11 3 1 876. 828. 91. o
2760 3 0 -11 -3 1 251. 174. 114. <
2760 1 0 11 3 -1 251. 174. 114. <
2761 4 0 11 3 0 8277. 8238. 112. o
2761 3 0 -11 -3 0 8277. 8238. 112. o
2761 2 0 -11 -3 0 8277. 8238. 112. o
2761 1 0 11 3 0 8277. 8238. 112. o
2762 3 0 -11 -3 -1 184. 115. 111. <
2762 1 0 11 3 1 184. 115. 111. <
2763 3 -1 -11 -3 1 4. -8. 111. <
2763 1 1 11 3 -1 4. -8. 111. <
2764 4 -1 11 3 0 1434. 1537. 110. o
2764 3 -1 -11 -3 0 1434. 1537. 110. o
2764 2 1 -11 -3 0 1434. 1537. 110. o
2764 1 1 11 3 0 1434. 1537. 110. o
2765 3 -1 -11 -3 -1 35. 36. 109. <
2765 1 1 11 3 1 35. 36. 109. <
2766 3 -2 -11 -3 1 235. 1353. 166. o
2766 1 2 11 3 -1 235. 1353. 166. o
2767 4 -2 11 3 0 4067. 1340. 164. o
2767 3 -2 -11 -3 0 4067. 1340. 164. o
2767 2 2 -11 -3 0 4067. 1340. 164. o
2767 1 2 11 3 0 4067. 1340. 164. o
2768 3 -2 -11 -3 -1 632. 1328. 163. o
2768 1 2 11 3 1 632. 1328. 163. o
2769 3 -3 -11 -3 1 281. 386. 204. <
2769 1 3 11 3 -1 281. 386. 204. <
2770 4 -3 11 3 0 23844. 21921. 202. o
2770 3 -3 -11 -3 0 23844. 21921. 202. o
2770 2 3 -11 -3 0 23844. 21921. 202. o
2770 1 3 11 3 0 23844. 21921. 202. o
2771 3 -3 -11 -3 -1 17. 38. 136. <
2771 1 3 11 3 1 17. 38. 136. <
2772 3 -5 -11 -3 1 143. 93. 228. <
2772 1 5 11 3 -1 143. 93. 228. <
2773 4 -5 11 3 0 13008. 12579. 227. o
2773 3 -5 -11 -3 0 13008. 12579. 227. o
2773 2 5 -11 -3 0 13008. 12579. 227. o
2773 1 5 11 3 0 13008. 12579. 227. o
2774 3 -5 -11 -3 -1 385. 362. 69. o
2774 1 5 11 3 1 385. 362. 69. o
2775 3 -6 -11 -3 1 34. 200. 175. <
2775 1 6 11 3 -1 34. 200. 175. <
2776 4 -6 11 3 0 534. 278. 174. <
2776 3 -6 -11 -3 0 534. 278. 174. <
2776 2 6 -11 -3 0 534. 278. 174. <
2776 1 6 11 3 0 534. 278. 174. <
2777 3 -6 -11 -3 -1 73. 47. 172. <
2777 1 6 11 3 1 73. 47. 172. <
2778 3 -7 -11 -3 1 252. 13. 187. <
2778 1 7 11 3 -1 252. 13. 187. <
2779 4 -7 11 3 0 1275. 1007. 185. o
2779 3 -7 -11 -3 0 1275. 1007. 185. o
2779 2 7 -11 -3 0 1275. 1007. 185. o
2779 1 7 11 3 0 1275. 1007. 185. o
2780 3 -7 -11 -3 -1 457. 44. 183. <
2780 1 7 11 3 1 457. 44. 183. <
2781 3 -8 -11 -3 1 362. -13. 213. <
2781 1 8 11 3 -1 362. -13. 213. <
2782 4 -8 11 3 0 5533. 4578. 210. o
2782 3 -8 -11 -3 0 5533. 4578. 210. o
2782 2 8 -11 -3 0 5533. 4578. 210. o
2782 1 8 11 3 0 5533. 4578. 210. o
2783 3 6 -12 -3 1 48. 248. 240. <
2783 1 -6 12 3 -1 48. 248. 240. <
2784 4 6 12 3 0 608. 234. 226. <
2784 3 6 -12 -3 0 608. 234. 226. <
2784 2 -6 -12 -3 0 608. 234. 226. <
2784 1 -6 12 3 0 608. 234. 226. <
2785 3 6 -12 -3 -1 12. 224. 217. <
2785 1 -6 12 3 1 12. 224. 217. <
2786 3 5 -12 -3 1 183. 132. 143. <
2786 1 -5 12 3 -1 183. 132. 143. <
2787 4 5 12 3 0 978. 1456. 140. o
2787 3 5 -12 -3 0 978. 1456. 140. o
2787 2 -5 -12 -3 0 978. 1456. 140. o
2787 1 -5 12 3 0 978. 1456. 140. o
2788 3 5 -12 -3 -1 250. 217. 136. <
2788 1 -5 12 3 1 250. 217. 136. <
2789 3 4 -12 -3 1 613. 778. 141. o
2789 1 -4 12 3 -1 613. 778. 141. o
2790 4 4 12 3 0 1141. 1434. 137. o
2790 3 4 -12 -3 0 1141. 1434. 137. o
2790 2 -4 -12 -3 0 1141. 1434. 137. o
2790 1 -4 12 3 0 1141. 1434. 137. o
2791 3 4 -12 -3 -1 1101. 1090. 134. o
2791 1 -4 12 3 1 1101. 1090. 134. o
2792 3 3 -12 -3 1 220. 150. 212. <
2792 1 -3 12 3 -1 220. 150. 212. <
2793 4 3 12 3 0 22573. 22732. 207. o
2793 3 3 -12 -3 0 22573. 22732. 207. o
2793 2 -3 -12 -3 0 22573. 22732. 207. o
2793 1 -3 12 3 0 22573. 22732. 207. o
2794 3 3 -12 -3 -1 90. 57. 204. <
2794 1 -3 12 3 1 90. 57. 204. <
2795 3 2 -12 -3 1 91. 19. 86. <
2795 1 -2 12 3 -1 91. 19. 86. <
2796 4 2 12 3 0 269. 166. 85. <
2796 3 2 -12 -3 0 269. 166. 85. <
2796 2 -2 -12 -3 0 269. 166. 85. <
2796 1 -2 12 3 0 269. 166. 85. <
2797 3 2 -12 -3 -1 178. 9. 84. <
2797 1 -2 12 3 1 178. 9. 84. <
2798 3 1 -12 -3 1 314. 154. 186. <
2798 1 -1 12 3 -1 314. 154. 186. <
2799 4 1 12 3 0 34163. 34068. 184. o
2799 3 1 -12 -3 0 34163. 34068. 184. o
2799 2 -1 -12 -3 0 34163. 34068. 184. o
2799 1 -1 12 3 0 34163. 34068. 184. o
2800 3 1 -12 -3 -1 245. 85. 182. <
2800 1 -1 12 3 1 245. 85. 182. <
2801 3 0 -12 -3 1 746. 872. 119. o
2801 1 0 12 3 -1 746. 872. 119. o
2802 4 0 12 3 0 1475. 1829. 117. o
2802 3 0 -12 -3 0 1475. 1829. 117. o
2802 2 0 -12 -3 0 1475. 1829. 117. o
2802 1 0 12 3 0 1475. 1829. 117. o
2803 3 0 -12 -3 -1 489. 555. 116. o
2803 1 0 12 3 1 489. 555. 116. o
2804 3 -1 -12 -3 1 678. 329. 234. <
2804 1 1 12 3 -1 678. 329. 234. <
2805 4 -1 12 3 0 33794. 35314. 232. o
2805 3 -1 -12 -3 0 33794. 35314. 232. o
2805 2 1 -12 -3 0 33794. 35314. 232. o
2805 1 1 12 3 0 33794. 35314. 232. o
2806 3 -1 -12 -3 -1 176. 65. 231. <
2806 1 1 12 3 1 176. 65. 231. <
2807 3 -2 -12 -3 1 89. 44. 104. <
2807 1 2 12 3 -1 89. 44. 104. <
2808 4 -2 12 3 0 254. 283. 104. o
2808 3 -2 -12 -3 0 254. 283. 104. o
2808 2 2 -12 -3 0 254. 283. 104. o
2808 1 2 12 3 0 254. 283. 104. o
2809 3 -2 -12 -3 -1 209. 193. 103. <
2809 1 2 12 3 1 209. 193. 103. <
2810 3 -3 -12 -3 1 207. 87. 318. <
2810 1 3 12 3 -1 207. 87. 318. <
2811 4 -3 12 3 0 23185. 25072. 316. o
2811 3 -3 -12 -3 0 23185. 25072. 316. o
2811 2 3 -12 -3 0 23185. 25072. 316. o
2811 1 3 12 3 0 23185. 25072. 316. o
2812 3 -3 -12 -3 -1 7. 72. 313. <
2812 1 3 12 3 1 7. 72. 313. <
2813 3 -4 -12 -3 1 50. 29. 123. <
2813 1 4 12 3 -1 50. 29. 123. <
2814 4 -4 12 3 0 1109. 1350. 122. o
2814 3 -4 -12 -3 0 1109. 1350. 122. o
2814 2 4 -12 -3 0 1109. 1350. 122. o
2814 1 4 12 3 0 1109. 1350. 122. o
2815 3 -4 -12 -3 -1 12. 45. 121. <
2815 1 4 12 3 1 12. 45. 121. <
2816 3 -5 -12 -3 1 489. 512. 175. o
2816 1 5 12 3 -1 489. 512. 175. o
2817 4 -5 12 3 0 1013. 1503. 174. o
2817 3 -5 -12 -3 0 1013. 1503. 174. o
2817 2 5 -12 -3 0 1013. 1503. 174. o
2817 1 5 12 3 0 1013. 1503. 174. o
2818 3 -5 -12 -3 -1 685. 881. 173. o
2818 1 5 12 3 1 685. 881. 173. o
2819 3 -6 -12 -3 1 472. 320. 170. <
2819 1 6 12 3 -1 472. 320. 170. <
2820 4 -6 12 3 0 608. 685. 168. o
2820 3 -6 -12 -3 0 608. 685. 168. o
2820 2 6 -12 -3 0 608. 685. 168. o
2820 1 6 12 3 0 608. 685. 168. o
2821 3 -6 -12 -3 -1 279. 70. 167. <
2821 1 6 12 3 1 279. 70. 167. <
2822 3 4 -13 -3 1 86. 101. 156. <
2822 1 -4 13 3 -1 86. 101. 156. <
2823 4 4 13 3 0 1665. 1755. 155. o
2823 3 4 -13 -3 0 1665. 1755. 155. o
2823 2 -4 -13 -3 0 1665. 1755. 155. o
2823 1 -4 13 3 0 1665. 1755. 155. o
2824 3 3 -13 -3 1 141. 120. 138. <
2824 1 -3 13 3 -1 141. 120. 138. <
2825 4 3 13 3 0 4321. 4215. 136. o
2825 3 3 -13 -3 0 4321. 4215. 136. o
2825 2 -3 -13 -3 0 4321. 4215. 136. o
2825 1 -3 13 3 0 4321. 4215. 136. o
2826 3 3 -13 -3 -1 532. 469. 134. o
2826 1 -3 13 3 1 532. 469. 134. o
2827 3 2 -13 -3 1 196. 155. 151. <
2827 1 -2 13 3 -1 196. 155. 151. <
2828 4 2 13 3 0 7775. 8073. 149. o
2828 3 2 -13 -3 0 7775. 8073. 149. o
2828 2 -2 -13 -3 0 7775. 8073. 149. o
2828 1 -2 13 3 0 7775. 8073. 149. o
2829 3 2 -13 -3 -1 79. 63. 148. <
2829 1 -2 13 3 1 79. 63. 148. <
2830 3 1 -13 -3 1 67. 117. 167. <
2830 1 -1 13 3 -1 67. 117. 167. <
2831 4 1 13 3 0 13794. 13623. 165. o
2831 3 1 -13 -3 0 13794. 13623. 165. o
2831 2 -1 -13 -3 0 13794. 13623. 165. o
2831 1 -1 13 3 0 13794. 13623. 165. o
2832 3 1 -13 -3 -1 197. 268. 162. <
2832 1 -1 13 3 1 197. 268. 162. <
2833 3 0 -13 -3 1 377. 407. 220. <
2833 1 0 13 3 -1 377. 407. 220. <
2834 4 0 13 3 0 10548. 11088. 219. o
2834 3 0 -13 -3 0 10548. 11088. 219. o
2834 2 0 -13 -3 0 10548. 11088. 219. o
2834 1 0 13 3 0 10548. 11088. 219. o
2835 3 0 -13 -3 -1 286. 77. 217. <
2835 1 0 13 3 1 286. 77. 217. <
2836 3 -1 -13 -3 1 69. 110. 171. <
2836 1 1 13 3 -1 69. 110. 171. <
2837 4 -1 13 3 0 13588. 14373. 170. o
2837 3 -1 -13 -3 0 13588. 14373. 170. o
2837 2 1 -13 -3 0 13588. 14373. 170. o
2837 1 1 13 3 0 13588. 14373. 170. o
2838 3 -1 -13 -3 -1 122. 140. 168. <
2838 1 1 13 3 1 122. 140. 168. <
2839 3 -2 -13 -3 1 90. 51. 197. <
2839 1 2 13 3 -1 90. 51. 197. <
2840 4 -2 13 3 0 7913. 8289. 196. o
2840 3 -2 -13 -3 0 7913. 8289. 196. o
2840 2 2 -13 -3 0 7913. 8289. 196. o
2840 1 2 13 3 0 7913. 8289. 196. o
2841 3 -2 -13 -3 -1 332. 240. 194. <
2841 1 2 13 3 1 332. 240. 194. <
2842 3 -3 -13 -3 1 688. 635. 208. o
2842 1 3 13 3 -1 688. 635. 208. o
2843 4 -3 13 3 0 4088. 4435. 207. o
2843 3 -3 -13 -3 0 4088. 4435. 207. o
2843 2 3 -13 -3 0 4088. 4435. 207. o
2843 1 3 13 3 0 4088. 4435. 207. o
2844 3 -3 -13 -3 -1 78. 101. 206. <
2844 1 3 13 3 1 78. 101. 206. <
2845 3 -4 -13 -3 1 223. 13. 106. <
2845 1 4 13 3 -1 223. 13. 106. <
2846 4 -4 13 3 0 1605. 2094. 105. o
2846 3 -4 -13 -3 0 1605. 2094. 105. o
2846 2 4 -13 -3 0 1605. 2094. 105. o
2846 1 4 13 3 0 1605. 2094. 105. o
2847 4 0 0 4 0 1388980. 941641. 6330. o
2847 3 0 0 -4 0 1388980. 941641. 6330. o
2847 2 0 0 -4 0 1388980. 941641. 6330. o
2847 1 0 0 4 0 1388980. 941641. 6330. o
2848 3 0 0 -4 -1 2. 795. 45. o
2848 1 0 0 4 1 2. 795. 45. o
2849 3 0 0 -4 1 2. -22. 14. <
2849 1 0 0 4 -1 2. -22. 14. <
2850 3 -1 0 -4 1 25. 42. 30. <
2850 1 1 0 4 -1 25. 42. 30. <
2851 3 1 0 -4 -1 25. 33. 16. <
2851 1 -1 0 4 1 25. 33. 16. <
2852 4 -1 0 4 0 195. 437. 41. o
2852 3 -1 0 -4 0 195. 437. 41. o
2852 2 1 0 -4 0 195. 437. 41. o
2852 1 1 0 4 0 195. 437. 41. o
2853 4 1 0 4 0 195. 324. 26. o
2853 3 1 0 -4 0 195. 324. 26. o
2853 2 -1 0 -4 0 195. 324. 26. o
2853 1 -1 0 4 0 195. 324. 26. o
2854 3 -1 0 -4 -1 29. 12. 34. <
2854 1 1 0 4 1 29. 12. 34. <
2855 3 1 0 -4 1 29. 28. 18. <
2855 1 -1 0 4 -1 29. 28. 18. <
2856 3 -2 0 -4 1 144. 111. 1156. <
2856 1 2 0 4 -1 144. 111. 1156. <
2857 3 2 0 -4 -1 145. 160. 23. o
2857 1 -2 0 4 1 145. 160. 23. o
2858 4 -2 0 4 0 244976. 233486. 1151. o
2858 3 -2 0 -4 0 244976. 233486. 1151. o
2858 2 2 0 -4 0 244976. 233486. 1151. o
2858 1 2 0 4 0 244976. 233486. 1151. o
2859 4 2 0 4 0 244934. 235371. 3521. o
2859 3 2 0 -4 0 244934. 235371. 3521. o
2859 2 -2 0 -4 0 244934. 235371. 3521. o
2859 1 -2 0 4 0 244934. 235371. 3521. o
2860 3 -2 0 -4 -1 152. 118. 1146. <
2860 1 2 0 4 1 152. 118. 1146. <
2861 3 2 0 -4 1 153. 206. 24. o
2861 1 -2 0 4 -1 153. 206. 24. o
2862 3 3 0 -4 -1 14. 30. 21. <
2862 1 -3 0 4 1 14. 30. 21. <
2863 4 3 0 4 0 201. 213. 27. o
2863 3 3 0 -4 0 201. 213. 27. o
2863 2 -3 0 -4 0 201. 213. 27. o
2863 1 -3 0 4 0 201. 213. 27. o
2864 3 3 0 -4 1 20. 29. 24. <
2864 1 -3 0 4 -1 20. 29. 24. <
2865 3 4 0 -4 -1 101. 81. 36. o
2865 1 -4 0 4 1 101. 81. 36. o
2866 4 4 0 4 0 41. 304. 52. o
2866 3 4 0 -4 0 41. 304. 52. o
2866 2 -4 0 -4 0 41. 304. 52. o
2866 1 -4 0 4 0 41. 304. 52. o
2867 3 4 0 -4 1 99. 90. 28. o
2867 1 -4 0 4 -1 99. 90. 28. o
2868 3 5 0 -4 -1 1398. 1412. 43. o
2868 1 -5 0 4 1 1398. 1412. 43. o
2869 4 5 0 4 0 4660. 5170. 61. o
2869 3 5 0 -4 0 4660. 5170. 61. o
2869 2 -5 0 -4 0 4660. 5170. 61. o
2869 1 -5 0 4 0 4660. 5170. 61. o
2870 3 5 0 -4 1 1180. 1080. 37. o
2870 1 -5 0 4 -1 1180. 1080. 37. o
2871 3 6 0 -4 -1 10. 19. 31. <
2871 1 -6 0 4 1 10. 19. 31. <
2872 4 6 0 4 0 68843. 74122. 459. o
2872 3 6 0 -4 0 68843. 74122. 459. o
2872 2 -6 0 -4 0 68843. 74122. 459. o
2872 1 -6 0 4 0 68843. 74122. 459. o
2873 3 6 0 -4 1 516. 572. 52. o
2873 1 -6 0 4 -1 516. 572. 52. o
2874 3 7 0 -4 -1 348. 386. 48. o
2874 1 -7 0 4 1 348. 386. 48. o
2875 4 7 0 4 0 1141. 1097. 63. o
2875 3 7 0 -4 0 1141. 1097. 63. o
2875 2 -7 0 -4 0 1141. 1097. 63. o
2875 1 -7 0 4 0 1141. 1097. 63. o
2876 3 7 0 -4 1 133. 180. 41. o
2876 1 -7 0 4 -1 133. 180. 41. o
2877 3 8 0 -4 -1 1204. 1209. 69. o
2877 1 -8 0 4 1 1204. 1209. 69. o
2878 4 8 0 4 0 360034. 351566. 1802. o
2878 3 8 0 -4 0 360034. 351566. 1802. o
2878 2 -8 0 -4 0 360034. 351566. 1802. o
2878 1 -8 0 4 0 360034. 351566. 1802. o
2879 3 8 0 -4 1 532. 464. 57. o
2879 1 -8 0 4 -1 532. 464. 57. o
2880 3 9 0 -4 -1 197. 312. 53. o
2880 1 -9 0 4 1 197. 312. 53. o
2881 4 9 0 4 0 801. 780. 64. o
2881 3 9 0 -4 0 801. 780. 64. o
2881 2 -9 0 -4 0 801. 780. 64. o
2881 1 -9 0 4 0 801. 780. 64. o
2882 3 9 0 -4 1 113. 75. 48. <
2882 1 -9 0 4 -1 113. 75. 48. <
2883 3 10 0 -4 -1 349. 2959. 509. o
2883 1 -10 0 4 1 349. 2959. 509. o
2884 4 10 0 4 0 116788. 110657. 509. o
2884 3 10 0 -4 0 116788. 110657. 509. o
2884 2 -10 0 -4 0 116788. 110657. 509. o
2884 1 -10 0 4 0 116788. 110657. 509. o
2885 3 10 0 -4 1 590. 2831. 509. o
2885 1 -10 0 4 -1 590. 2831. 509. o
2886 3 11 0 -4 -1 75. 49. 137. <
2886 1 -11 0 4 1 75. 49. 137. <
2887 4 11 0 4 0 350. 483. 137. o
2887 3 11 0 -4 0 350. 483. 137. o
2887 2 -11 0 -4 0 350. 483. 137. o
2887 1 -11 0 4 0 350. 483. 137. o
2888 3 11 0 -4 1 151. 173. 137. <
2888 1 -11 0 4 -1 151. 173. 137. <
2889 3 12 0 -4 -1 1230. 1126. 202. o
2889 1 -12 0 4 1 1230. 1126. 202. o
2890 4 12 0 4 0 5384. 5546. 202. o
2890 3 12 0 -4 0 5384. 5546. 202. o
2890 2 -12 0 -4 0 5384. 5546. 202. o
2890 1 -12 0 4 0 5384. 5546. 202. o
2891 3 12 0 -4 1 1260. 1248. 202. o
2891 1 -12 0 4 -1 1260. 1248. 202. o
2892 3 13 0 -4 -1 870. 376. 178. o
2892 1 -13 0 4 1 870. 376. 178. o
2893 4 13 0 4 0 2955. 2536. 178. o
2893 3 13 0 -4 0 2955. 2536. 178. o
2893 2 -13 0 -4 0 2955. 2536. 178. o
2893 1 -13 0 4 0 2955. 2536. 178. o
2894 3 13 0 -4 1 568. 816. 178. o
2894 1 -13 0 4 -1 568. 816. 178. o
2895 3 13 -1 -4 1 424. 1373. 263. o
2895 1 -13 1 4 -1 424. 1373. 263. o
2896 4 13 1 4 0 16269. 14287. 263. o
2896 3 13 -1 -4 0 16269. 14287. 263. o
2896 2 -13 -1 -4 0 16269. 14287. 263. o
2896 1 -13 1 4 0 16269. 14287. 263. o
2897 3 13 -1 -4 -1 117. 792. 263. o
2897 1 -13 1 4 1 117. 792. 263. o
2898 3 12 -1 -4 1 499. 7492. 634. o
2898 1 -12 1 4 -1 499. 7492. 634. o
2899 4 12 1 4 0 136501. 132847. 634. o
2899 3 12 -1 -4 0 136501. 132847. 634. o
2899 2 -12 -1 -4 0 136501. 132847. 634. o
2899 1 -12 1 4 0 136501. 132847. 634. o
2900 3 12 -1 -4 -1 221. 1656. 634. o
2900 1 -12 1 4 1 221. 1656. 634. o
2901 3 11 -1 -4 1 171. 519. 248. o
2901 1 -11 1 4 -1 171. 519. 248. o
2902 4 11 1 4 0 18461. 18628. 248. o
2902 3 11 -1 -4 0 18461. 18628. 248. o
2902 2 -11 -1 -4 0 18461. 18628. 248. o
2902 1 -11 1 4 0 18461. 18628. 248. o
2903 3 11 -1 -4 -1 419. 533. 247. o
2903 1 -11 1 4 1 419. 533. 247. o
2904 3 10 -1 -4 1 201. 1259. 407. o
2904 1 -10 1 4 -1 201. 1259. 407. o
2905 4 10 1 4 0 67565. 68627. 406. o
2905 3 10 -1 -4 0 67565. 68627. 406. o
2905 2 -10 -1 -4 0 67565. 68627. 406. o
2905 1 -10 1 4 0 67565. 68627. 406. o
2906 3 10 -1 -4 -1 358. 1713. 405. o
2906 1 -10 1 4 1 358. 1713. 405. o
2907 3 9 -1 -4 1 159. 134. 51. o
2907 1 -9 1 4 -1 159. 134. 51. o
2908 4 9 1 4 0 11979. 13060. 168. o
2908 3 9 -1 -4 0 11979. 13060. 168. o
2908 2 -9 -1 -4 0 11979. 13060. 168. o
2908 1 -9 1 4 0 11979. 13060. 168. o
2909 3 9 -1 -4 -1 114. 122. 44. o
2909 1 -9 1 4 1 114. 122. 44. o
2910 3 8 -1 -4 1 1727. 1744. 78. o
2910 1 -8 1 4 -1 1727. 1744. 78. o
2911 4 8 1 4 0 5812. 5795. 112. o
2911 3 8 -1 -4 0 5812. 5795. 112. o
2911 2 -8 -1 -4 0 5812. 5795. 112. o
2911 1 -8 1 4 0 5812. 5795. 112. o
2912 3 8 -1 -4 -1 803. 859. 67. o
2912 1 -8 1 4 1 803. 859. 67. o
2913 3 7 -1 -4 1 738. 744. 61. o
2913 1 -7 1 4 -1 738. 744. 61. o
2914 4 7 1 4 0 30530. 32909. 225. o
2914 3 7 -1 -4 0 30530. 32909. 225. o
2914 2 -7 -1 -4 0 30530. 32909. 225. o
2914 1 -7 1 4 0 30530. 32909. 225. o
2915 3 7 -1 -4 -1 124. 145. 38. o
2915 1 -7 1 4 1 124. 145. 38. o
2916 3 6 -1 -4 1 583. 472. 125. o
2916 1 -6 1 4 -1 583. 472. 125. o
2917 4 6 1 4 0 29925. 28048. 166. o
2917 3 6 -1 -4 0 29925. 28048. 166. o
2917 2 -6 -1 -4 0 29925. 28048. 166. o
2917 1 -6 1 4 0 29925. 28048. 166. o
2918 3 6 -1 -4 -1 794. 595. 141. o
2918 1 -6 1 4 1 794. 595. 141. o
2919 3 5 -1 -4 1 92. 100. 106. <
2919 1 -5 1 4 -1 92. 100. 106. <
2920 4 5 1 4 0 10287. 9316. 120. o
2920 3 5 -1 -4 0 10287. 9316. 120. o
2920 2 -5 -1 -4 0 10287. 9316. 120. o
2920 1 -5 1 4 0 10287. 9316. 120. o
2921 3 5 -1 -4 -1 680. 390. 103. o
2921 1 -5 1 4 1 680. 390. 103. o
2922 3 4 -1 -4 1 1175. 1200. 62. o
2922 1 -4 1 4 -1 1175. 1200. 62. o
2923 4 4 1 4 0 228311. 198393. 2365. o
2923 3 4 -1 -4 0 228311. 198393. 2365. o
2923 2 -4 -1 -4 0 228311. 198393. 2365. o
2923 1 -4 1 4 0 228311. 198393. 2365. o
2924 3 4 -1 -4 -1 1042. 1039. 53. o
2924 1 -4 1 4 1 1042. 1039. 53. o
2925 3 3 -1 -4 1 8. 13. 31. <
2925 1 -3 1 4 -1 8. 13. 31. <
2926 4 3 1 4 0 152699. 136499. 571. o
2926 3 3 -1 -4 0 152699. 136499. 571. o
2926 2 -3 -1 -4 0 152699. 136499. 571. o
2926 1 -3 1 4 0 152699. 136499. 571. o
2927 3 3 -1 -4 -1 34. 18. 28. <
2927 1 -3 1 4 1 34. 18. 28. <
2928 3 2 -1 -4 1 108. 80. 341. <
2928 1 -2 1 4 -1 108. 80. 341. <
2929 4 2 1 4 0 131910. 122513. 501. o
2929 3 2 -1 -4 0 131910. 122513. 501. o
2929 2 -2 -1 -4 0 131910. 122513. 501. o
2929 1 -2 1 4 0 131910. 122513. 501. o
2930 3 2 -1 -4 -1 15. 19. 328. <
2930 1 -2 1 4 1 15. 19. 328. <
2931 3 1 -1 -4 1 229. 154. 52. o
2931 1 -1 1 4 -1 229. 154. 52. o
2932 4 1 1 4 0 1624. 2059. 54. o
2932 3 1 -1 -4 0 1624. 2059. 54. o
2932 2 -1 -1 -4 0 1624. 2059. 54. o
2932 1 -1 1 4 0 1624. 2059. 54. o
2933 3 1 -1 -4 -1 218. 173. 50. o
2933 1 -1 1 4 1 218. 173. 50. o
2934 3 0 -1 -4 1 22. 30. 44. <
2934 1 0 1 4 -1 22. 30. 44. <
2935 4 0 1 4 0 244. 410. 45. o
2935 3 0 -1 -4 0 244. 410. 45. o
2935 2 0 -1 -4 0 244. 410. 45. o
2935 1 0 1 4 0 244. 410. 45. o
2936 4 0 -1 4 0 244. 386. 33. o
2936 3 0 1 -4 0 244. 386. 33. o
2936 2 0 1 -4 0 244. 386. 33. o
2936 1 0 -1 4 0 244. 386. 33. o
2937 3 0 -1 -4 -1 32. 36. 44. <
2937 1 0 1 4 1 32. 36. 44. <
2938 3 0 1 -4 1 32. 36. 14. o
2938 1 0 -1 4 -1 32. 36. 14. o
2939 3 -1 -1 -4 1 20. 4. 47. <
2939 1 1 1 4 -1 20. 4. 47. <
2940 3 1 1 -4 -1 20. -10. 15. <
2940 1 -1 -1 4 1 20. -10. 15. <
2941 4 -1 1 4 0 1634. 2444. 49. o
2941 3 -1 -1 -4 0 1634. 2444. 49. o
2941 2 1 -1 -4 0 1634. 2444. 49. o
2941 1 1 1 4 0 1634. 2444. 49. o
2942 4 1 -1 4 0 1662. 2261. 39. o
2942 3 1 1 -4 0 1662. 2261. 39. o
2942 2 -1 1 -4 0 1662. 2261. 39. o
2942 1 -1 -1 4 0 1662. 2261. 39. o
2943 3 -1 -1 -4 -1 1. 11. 46. <
2943 1 1 1 4 1 1. 11. 46. <
2944 3 1 1 -4 1 1. 3. 17. <
2944 1 -1 -1 4 -1 1. 3. 17. <
2945 3 -2 -1 -4 1 11. 41. 31. <
2945 1 2 1 4 -1 11. 41. 31. <
2946 3 2 1 -4 -1 11. -3. 19. <
2946 1 -2 -1 4 1 11. -3. 19. <
2947 4 -2 1 4 0 131963. 131444. 840. o
2947 3 -2 -1 -4 0 131963. 131444. 840. o
2947 2 2 -1 -4 0 131963. 131444. 840. o
2947 1 2 1 4 0 131963. 131444. 840. o
2948 4 2 -1 4 0 132083. 135670. 709. o
2948 3 2 1 -4 0 132083. 135670. 709. o
2948 2 -2 1 -4 0 132083. 135670. 709. o
2948 1 -2 -1 4 0 132083. 135670. 709. o
2949 3 -2 -1 -4 -1 77. 91. 23. o
2949 1 2 1 4 1 77. 91. 23. o
2950 3 2 1 -4 1 76. 89. 23. o
2950 1 -2 -1 4 -1 76. 89. 23. o
2951 3 -3 -1 -4 1 65. 49. 929. <
2951 1 3 1 4 -1 65. 49. 929. <
2952 3 3 1 -4 -1 65. 59. 24. o
2952 1 -3 -1 4 1 65. 59. 24. o
2953 4 -3 1 4 0 152571. 151849. 928. o
2953 3 -3 -1 -4 0 152571. 151849. 928. o
2953 2 3 -1 -4 0 152571. 151849. 928. o
2953 1 3 1 4 0 152571. 151849. 928. o
2954 4 3 -1 4 0 152021. 156682. 868. o
2954 3 3 1 -4 0 152021. 156682. 868. o
2954 2 -3 1 -4 0 152021. 156682. 868. o
2954 1 -3 -1 4 0 152021. 156682. 868. o
2955 3 -3 -1 -4 -1 456. 229. 926. <
2955 1 3 1 4 1 456. 229. 926. <
2956 3 3 1 -4 1 456. 463. 37. o
2956 1 -3 -1 4 -1 456. 463. 37. o
2957 3 -4 -1 -4 1 35. 85. 1158. <
2957 1 4 1 4 -1 35. 85. 1158. <
2958 3 4 1 -4 -1 35. 27. 25. <
2958 1 -4 -1 4 1 35. 27. 25. <
2959 4 -4 1 4 0 230247. 220781. 1155. o
2959 3 -4 -1 -4 0 230247. 220781. 1155. o
2959 2 4 -1 -4 0 230247. 220781. 1155. o
2959 1 4 1 4 0 230247. 220781. 1155. o
2960 4 4 -1 4 0 231443. 231742. 1167. o
2960 3 4 1 -4 0 231443. 231742. 1167. o
2960 2 -4 1 -4 0 231443. 231742. 1167. o
2960 1 -4 -1 4 0 231443. 231742. 1167. o
2961 3 -4 -1 -4 -1 28. 75. 1153. <
2961 1 4 1 4 1 28. 75. 1153. <
2962 3 4 1 -4 1 29. -8. 25. <
2962 1 -4 -1 4 -1 29. -8. 25. <
2963 3 5 1 -4 -1 399. 471. 44. o
2963 1 -5 -1 4 1 399. 471. 44. o
2964 4 5 -1 4 0 10491. 11215. 114. o
2964 3 5 1 -4 0 10491. 11215. 114. o
2964 2 -5 1 -4 0 10491. 11215. 114. o
2964 1 -5 -1 4 0 10491. 11215. 114. o
2965 3 5 1 -4 1 7. -2. 29. <
2965 1 -5 -1 4 -1 7. -2. 29. <
2966 3 6 1 -4 -1 474. 463. 49. o
2966 1 -6 -1 4 1 474. 463. 49. o
2967 4 6 -1 4 0 30174. 33080. 208. o
2967 3 6 1 -4 0 30174. 33080. 208. o
2967 2 -6 1 -4 0 30174. 33080. 208. o
2967 1 -6 -1 4 0 30174. 33080. 208. o
2968 3 6 1 -4 1 387. 352. 43. o
2968 1 -6 -1 4 -1 387. 352. 43. o
2969 3 7 1 -4 -1 495. 560. 57. o
2969 1 -7 -1 4 1 495. 560. 57. o
2970 4 7 -1 4 0 30501. 32688. 222. o
2970 3 7 1 -4 0 30501. 32688. 222. o
2970 2 -7 1 -4 0 30501. 32688. 222. o
2970 1 -7 -1 4 0 30501. 32688. 222. o
2971 3 7 1 -4 1 42. 28. 38. <
2971 1 -7 -1 4 -1 42. 28. 38. <
2972 3 8 1 -4 -1 360. 353. 48. o
2972 1 -8 -1 4 1 360. 353. 48. o
2973 4 8 -1 4 0 5449. 5455. 109. o
2973 3 8 1 -4 0 5449. 5455. 109. o
2973 2 -8 1 -4 0 5449. 5455. 109. o
2973 1 -8 -1 4 0 5449. 5455. 109. o
2974 3 8 1 -4 1 110. 112. 44. o
2974 1 -8 -1 4 -1 110. 112. 44. o
2975 3 9 1 -4 -1 312. 144. 185. <
2975 1 -9 -1 4 1 312. 144. 185. <
2976 4 9 -1 4 0 11854. 12544. 185. o
2976 3 9 1 -4 0 11854. 12544. 185. o
2976 2 -9 1 -4 0 11854. 12544. 185. o
2976 1 -9 -1 4 0 11854. 12544. 185. o
2977 3 9 1 -4 1 465. 269. 185. <
2977 1 -9 -1 4 -1 465. 269. 185. <
2978 3 10 1 -4 -1 5. 636. 397. <
2978 1 -10 -1 4 1 5. 636. 397. <
2979 4 10 -1 4 0 67937. 67793. 398. o
2979 3 10 1 -4 0 67937. 67793. 398. o
2979 2 -10 1 -4 0 67937. 67793. 398. o
2979 1 -10 -1 4 0 67937. 67793. 398. o
2980 3 10 1 -4 1 197. 583. 399. <
2980 1 -10 -1 4 -1 197. 583. 399. <
2981 3 11 1 -4 -1 298. 518. 245. o
2981 1 -11 -1 4 1 298. 518. 245. o
2982 4 11 -1 4 0 17791. 17879. 246. o
2982 3 11 1 -4 0 17791. 17879. 246. o
2982 2 -11 1 -4 0 17791. 17879. 246. o
2982 1 -11 -1 4 0 17791. 17879. 246. o
2983 3 11 1 -4 1 1098. 936. 247. o
2983 1 -11 -1 4 -1 1098. 936. 247. o
2984 3 12 1 -4 -1 1081. 3902. 616. o
2984 1 -12 -1 4 1 1081. 3902. 616. o
2985 4 12 -1 4 0 137341. 126025. 618. o
2985 3 12 1 -4 0 137341. 126025. 618. o
2985 2 -12 1 -4 0 137341. 126025. 618. o
2985 1 -12 -1 4 0 137341. 126025. 618. o
2986 3 12 1 -4 1 1201. 6453. 620. o
2986 1 -12 -1 4 -1 1201. 6453. 620. o
2987 3 13 1 -4 -1 643. 903. 268. o
2987 1 -13 -1 4 1 643. 903. 268. o
2988 4 13 -1 4 0 15812. 15414. 269. o
2988 3 13 1 -4 0 15812. 15414. 269. o
2988 2 -13 1 -4 0 15812. 15414. 269. o
2988 1 -13 -1 4 0 15812. 15414. 269. o
2989 3 13 1 -4 1 475. 978. 271. o
2989 1 -13 -1 4 -1 475. 978. 271. o
2990 3 13 -2 -4 1 829. 2307. 340. o
2990 1 -13 2 4 -1 829. 2307. 340. o
2991 4 13 2 4 0 29239. 27607. 339. o
2991 3 13 -2 -4 0 29239. 27607. 339. o
2991 2 -13 -2 -4 0 29239. 27607. 339. o
2991 1 -13 2 4 0 29239. 27607. 339. o
2992 3 13 -2 -4 -1 1047. 1310. 338. o
2992 1 -13 2 4 1 1047. 1310. 338. o
2993 3 12 -2 -4 1 276. 226. 160. <
2993 1 -12 2 4 -1 276. 226. 160. <
2994 4 12 2 4 0 1730. 1824. 159. o
2994 3 12 -2 -4 0 1730. 1824. 159. o
2994 2 -12 -2 -4 0 1730. 1824. 159. o
2994 1 -12 2 4 0 1730. 1824. 159. o
2995 3 12 -2 -4 -1 69. 148. 158. <
2995 1 -12 2 4 1 69. 148. 158. <
2996 3 11 -2 -4 1 147. 74. 146. <
2996 1 -11 2 4 -1 147. 74. 146. <
2997 4 11 2 4 0 3739. 2953. 146. o
2997 3 11 -2 -4 0 3739. 2953. 146. o
2997 2 -11 -2 -4 0 3739. 2953. 146. o
2997 1 -11 2 4 0 3739. 2953. 146. o
2998 3 11 -2 -4 -1 21. 97. 146. <
2998 1 -11 2 4 1 21. 97. 146. <
2999 3 10 -2 -4 1 249. 304. 61. o
2999 1 -10 2 4 -1 249. 304. 61. o
3000 4 10 2 4 0 13214. 14010. 184. o
3000 3 10 -2 -4 0 13214. 14010. 184. o
3000 2 -10 -2 -4 0 13214. 14010. 184. o
3000 1 -10 2 4 0 13214. 14010. 184. o
3001 3 10 -2 -4 -1 840. 793. 80. o
3001 1 -10 2 4 1 840. 793. 80. o
3002 3 9 -2 -4 1 1398. 1446. 83. o
3002 1 -9 2 4 -1 1398. 1446. 83. o
3003 4 9 2 4 0 74748. 79717. 401. o
3003 3 9 -2 -4 0 74748. 79717. 401. o
3003 2 -9 -2 -4 0 74748. 79717. 401. o
3003 1 -9 2 4 0 74748. 79717. 401. o
3004 3 9 -2 -4 -1 382. 437. 58. o
3004 1 -9 2 4 1 382. 437. 58. o
3005 3 8 -2 -4 1 885. 918. 71. o
3005 1 -8 2 4 -1 885. 918. 71. o
3006 4 8 2 4 0 124248. 128953. 612. o
3006 3 8 -2 -4 0 124248. 128953. 612. o
3006 2 -8 -2 -4 0 124248. 128953. 612. o
3006 1 -8 2 4 0 124248. 128953. 612. o
3007 3 8 -2 -4 -1 541. 657. 65. o
3007 1 -8 2 4 1 541. 657. 65. o
3008 3 7 -2 -4 1 791. 891. 58. o
3008 1 -7 2 4 -1 791. 891. 58. o
3009 4 7 2 4 0 53891. 59573. 307. o
3009 3 7 -2 -4 0 53891. 59573. 307. o
3009 2 -7 -2 -4 0 53891. 59573. 307. o
3009 1 -7 2 4 0 53891. 59573. 307. o
3010 3 7 -2 -4 -1 267. 262. 45. o
3010 1 -7 2 4 1 267. 262. 45. o
3011 3 6 -2 -4 1 117. 126. 225. <
3011 1 -6 2 4 -1 117. 126. 225. <
3012 4 6 2 4 0 82332. 79866. 1108. o
3012 3 6 -2 -4 0 82332. 79866. 1108. o
3012 2 -6 -2 -4 0 82332. 79866. 1108. o
3012 1 -6 2 4 0 82332. 79866. 1108. o
3013 3 6 -2 -4 -1 36. 17. 47. <
3013 1 -6 2 4 1 36. 17. 47. <
3014 3 5 -2 -4 1 1201. 1090. 56. o
3014 1 -5 2 4 -1 1201. 1090. 56. o
3015 4 5 2 4 0 14790. 12473. 123. o
3015 3 5 -2 -4 0 14790. 12473. 123. o
3015 2 -5 -2 -4 0 14790. 12473. 123. o
3015 1 -5 2 4 0 14790. 12473. 123. o
3016 3 5 -2 -4 -1 2747. 2439. 68. o
3016 1 -5 2 4 1 2747. 2439. 68. o
3017 3 4 -2 -4 1 1045. 1052. 64. o
3017 1 -4 2 4 -1 1045. 1052. 64. o
3018 4 4 2 4 0 2933. 2353. 74. o
3018 3 4 -2 -4 0 2933. 2353. 74. o
3018 2 -4 -2 -4 0 2933. 2353. 74. o
3018 1 -4 2 4 0 2933. 2353. 74. o
3019 3 4 -2 -4 -1 1474. 1521. 42. o
3019 1 -4 2 4 1 1474. 1521. 42. o
3020 3 3 -2 -4 1 737. 540. 97. o
3020 1 -3 2 4 -1 737. 540. 97. o
3021 4 3 2 4 0 10668. 10107. 105. o
3021 3 3 -2 -4 0 10668. 10107. 105. o
3021 2 -3 -2 -4 0 10668. 10107. 105. o
3021 1 -3 2 4 0 10668. 10107. 105. o
3022 3 3 -2 -4 -1 315. 239. 89. o
3022 1 -3 2 4 1 315. 239. 89. o
3023 3 2 -2 -4 1 5. 8. 167. <
3023 1 -2 2 4 -1 5. 8. 167. <
3024 4 2 2 4 0 78418. 73729. 335. o
3024 3 2 -2 -4 0 78418. 73729. 335. o
3024 2 -2 -2 -4 0 78418. 73729. 335. o
3024 1 -2 2 4 0 78418. 73729. 335. o
3025 3 2 -2 -4 -1 6. 27. 160. <
3025 1 -2 2 4 1 6. 27. 160. <
3026 3 1 -2 -4 1 5. 13. 437. <
3026 1 -1 2 4 -1 5. 13. 437. <
3027 4 1 2 4 0 134322. 128334. 565. o
3027 3 1 -2 -4 0 134322. 128334. 565. o
3027 2 -1 -2 -4 0 134322. 128334. 565. o
3027 1 -1 2 4 0 134322. 128334. 565. o
3028 3 1 -2 -4 -1 140. 103. 426. <
3028 1 -1 2 4 1 140. 103. 426. <
3029 3 0 -2 -4 1 131. 138. 23. o
3029 1 0 2 4 -1 131. 138. 23. o
3030 3 0 2 -4 -1 131. 180. 21. o
3030 1 0 -2 4 1 131. 180. 21. o
3031 4 0 2 4 0 244367. 228915. 1036. o
3031 3 0 -2 -4 0 244367. 228915. 1036. o
3031 2 0 -2 -4 0 244367. 228915. 1036. o
3031 1 0 2 4 0 244367. 228915. 1036. o
3032 4 0 -2 4 0 244836. 228266. 964. o
3032 3 0 2 -4 0 244836. 228266. 964. o
3032 2 0 2 -4 0 244836. 228266. 964. o
3032 1 0 -2 4 0 244836. 228266. 964. o
3033 3 0 -2 -4 -1 157. 159. 25. o
3033 1 0 2 4 1 157. 159. 25. o
3034 3 0 2 -4 1 155. 241. 29. o
3034 1 0 -2 4 -1 155. 241. 29. o
3035 3 -1 -2 -4 1 6. 81. 447. <
3035 1 1 2 4 -1 6. 81. 447. <
3036 3 1 2 -4 -1 5. 26. 18. <
3036 1 -1 -2 4 1 5. 26. 18. <
3037 4 -1 2 4 0 133658. 130881. 547. o
3037 3 -1 -2 -4 0 133658. 130881. 547. o
3037 2 1 -2 -4 0 133658. 130881. 547. o
3037 1 1 2 4 0 133658. 130881. 547. o
3038 4 1 -2 4 0 133126. 131644. 666. o
3038 3 1 2 -4 0 133126. 131644. 666. o
3038 2 -1 2 -4 0 133126. 131644. 666. o
3038 1 -1 -2 4 0 133126. 131644. 666. o
3039 3 -1 -2 -4 -1 76. 137. 442. <
3039 1 1 2 4 1 76. 137. 442. <
3040 3 1 2 -4 1 75. 65. 21. o
3040 1 -1 -2 4 -1 75. 65. 21. o
3041 3 -2 -2 -4 1 3. 20. 220. <
3041 1 2 2 4 -1 3. 20. 220. <
3042 3 2 2 -4 -1 3. 21. 20. <
3042 1 -2 -2 4 1 3. 21. 20. <
3043 4 -2 2 4 0 78208. 72565. 266. o
3043 3 -2 -2 -4 0 78208. 72565. 266. o
3043 2 2 -2 -4 0 78208. 72565. 266. o
3043 1 2 2 4 0 78208. 72565. 266. o
3044 4 2 -2 4 0 78193. 81261. 522. o
3044 3 2 2 -4 0 78193. 81261. 522. o
3044 2 -2 2 -4 0 78193. 81261. 522. o
3044 1 -2 -2 4 0 78193. 81261. 522. o
3045 3 -2 -2 -4 -1 1. 11. 219. <
3045 1 2 2 4 1 1. 11. 219. <
3046 3 2 2 -4 1 1. -5. 21. <
3046 1 -2 -2 4 -1 1. -5. 21. <
3047 3 -3 -2 -4 1 6. -9. 26. <
3047 1 3 2 4 -1 6. -9. 26. <
3048 3 3 2 -4 -1 5. 17. 23. <
3048 1 -3 -2 4 1 5. 17. 23. <
3049 4 -3 2 4 0 10412. 11363. 116. o
3049 3 -3 -2 -4 0 10412. 11363. 116. o
3049 2 3 -2 -4 0 10412. 11363. 116. o
3049 1 3 2 4 0 10412. 11363. 116. o
3050 4 3 -2 4 0 10090. 11188. 100. o
3050 3 3 2 -4 0 10090. 11188. 100. o
3050 2 -3 2 -4 0 10090. 11188. 100. o
3050 1 -3 -2 4 0 10090. 11188. 100. o
3051 3 -3 -2 -4 -1 26. 33. 34. <
3051 1 3 2 4 1 26. 33. 34. <
3052 3 3 2 -4 1 27. -4. 23. <
3052 1 -3 -2 4 -1 27. -4. 23. <
3053 3 -4 -2 -4 1 736. 437. 104. o
3053 1 4 2 4 -1 736. 437. 104. o
3054 3 4 2 -4 -1 735. 861. 45. o
3054 1 -4 -2 4 1 735. 861. 45. o
3055 4 -4 2 4 0 2879. 3557. 104. o
3055 3 -4 -2 -4 0 2879. 3557. 104. o
3055 2 4 -2 -4 0 2879. 3557. 104. o
3055 1 4 2 4 0 2879. 3557. 104. o
3056 4 4 -2 4 0 2870. 2693. 62. o
3056 3 4 2 -4 0 2870. 2693. 62. o
3056 2 -4 2 -4 0 2870. 2693. 62. o
3056 1 -4 -2 4 0 2870. 2693. 62. o
3057 3 -4 -2 -4 -1 434. 285. 105. o
3057 1 4 2 4 1 434. 285. 105. o
3058 3 4 2 -4 1 435. 536. 44. o
3058 1 -4 -2 4 -1 435. 536. 44. o
3059 3 -5 -2 -4 1 0. 16. 156. <
3059 1 5 2 4 -1 0. 16. 156. <
3060 3 5 2 -4 -1 0. -8. 28. <
3060 1 -5 -2 4 1 0. -8. 28. <
3061 4 -5 2 4 0 14746. 15130. 156. o
3061 3 -5 -2 -4 0 14746. 15130. 156. o
3061 2 5 -2 -4 0 14746. 15130. 156. o
3061 1 5 2 4 0 14746. 15130. 156. o
3062 4 5 -2 4 0 15476. 16562. 144. o
3062 3 5 2 -4 0 15476. 16562. 144. o
3062 2 -5 2 -4 0 15476. 16562. 144. o
3062 1 -5 -2 4 0 15476. 16562. 144. o
3063 3 -5 -2 -4 -1 341. 267. 156. <
3063 1 5 2 4 1 341. 267. 156. <
3064 3 5 2 -4 1 342. 410. 47. o
3064 1 -5 -2 4 -1 342. 410. 47. o
3065 3 -6 -2 -4 1 24. 54. 438. <
3065 1 6 2 4 -1 24. 54. 438. <
3066 3 6 2 -4 -1 25. 6. 32. <
3066 1 -6 -2 4 1 25. 6. 32. <
3067 4 -6 2 4 0 83529. 84952. 438. o
3067 3 -6 -2 -4 0 83529. 84952. 438. o
3067 2 6 -2 -4 0 83529. 84952. 438. o
3067 1 6 2 4 0 83529. 84952. 438. o
3068 4 6 -2 4 0 83780. 92991. 615. o
3068 3 6 2 -4 0 83780. 92991. 615. o
3068 2 -6 2 -4 0 83780. 92991. 615. o
3068 1 -6 -2 4 0 83780. 92991. 615. o
3069 3 -6 -2 -4 -1 199. 146. 438. <
3069 1 6 2 4 1 199. 146. 438. <
3070 3 6 2 -4 1 198. 148. 38. o
3070 1 -6 -2 4 -1 198. 148. 38. o
3071 3 -7 -2 -4 1 409. 274. 295. <
3071 1 7 2 4 -1 409. 274. 295. <
3072 3 7 2 -4 -1 402. 435. 48. o
3072 1 -7 -2 4 1 402. 435. 48. o
3073 4 -7 2 4 0 53776. 57707. 295. o
3073 3 -7 -2 -4 0 53776. 57707. 295. o
3073 2 7 -2 -4 0 53776. 57707. 295. o
3073 1 7 2 4 0 53776. 57707. 295. o
3074 4 7 -2 4 0 54386. 58909. 303. o
3074 3 7 2 -4 0 54386. 58909. 303. o
3074 2 -7 2 -4 0 54386. 58909. 303. o
3074 1 -7 -2 4 0 54386. 58909. 303. o
3075 3 -7 -2 -4 -1 32. 70. 295. <
3075 1 7 2 4 1 32. 70. 295. <
3076 3 7 2 -4 1 35. 41. 39. <
3076 1 -7 -2 4 -1 35. 41. 39. <
3077 3 -8 -2 -4 1 1. 57. 695. <
3077 1 8 2 4 -1 1. 57. 695. <
3078 3 8 2 -4 -1 2. -5. 41. <
3078 1 -8 -2 4 1 2. -5. 41. <
3079 4 -8 2 4 0 125966. 133677. 694. o
3079 3 -8 -2 -4 0 125966. 133677. 694. o
3079 2 8 -2 -4 0 125966. 133677. 694. o
3079 1 8 2 4 0 125966. 133677. 694. o
3080 4 8 -2 4 0 126776. 128932. 608. o
3080 3 8 2 -4 0 126776. 128932. 608. o
3080 2 -8 2 -4 0 126776. 128932. 608. o
3080 1 -8 -2 4 0 126776. 128932. 608. o
3081 3 -8 -2 -4 -1 243. 191. 694. <
3081 1 8 2 4 1 243. 191. 694. <
3082 3 9 2 -4 -1 424. 265. 47. o
3082 1 -9 -2 4 1 424. 265. 47. o
3083 4 9 -2 4 0 75682. 76811. 395. o
3083 3 9 2 -4 0 75682. 76811. 395. o
3083 2 -9 2 -4 0 75682. 76811. 395. o
3083 1 -9 -2 4 0 75682. 76811. 395. o
3084 3 10 2 -4 -1 881. 337. 211. <
3084 1 -10 -2 4 1 881. 337. 211. <
3085 4 10 -2 4 0 13532. 13439. 212. o
3085 3 10 2 -4 0 13532. 13439. 212. o
3085 2 -10 2 -4 0 13532. 13439. 212. o
3085 1 -10 -2 4 0 13532. 13439. 212. o
3086 3 10 2 -4 1 666. 438. 213. o
3086 1 -10 -2 4 -1 666. 438. 213. o
3087 3 11 2 -4 -1 418. 295. 156. <
3087 1 -11 -2 4 1 418. 295. 156. <
3088 4 11 -2 4 0 3421. 2994. 157. o
3088 3 11 2 -4 0 3421. 2994. 157. o
3088 2 -11 2 -4 0 3421. 2994. 157. o
3088 1 -11 -2 4 0 3421. 2994. 157. o
3089 3 11 2 -4 1 239. 207. 158. <
3089 1 -11 -2 4 -1 239. 207. 158. <
3090 3 12 2 -4 -1 526. 386. 160. o
3090 1 -12 -2 4 1 526. 386. 160. o
3091 4 12 -2 4 0 1870. 2037. 161. o
3091 3 12 2 -4 0 1870. 2037. 161. o
3091 2 -12 2 -4 0 1870. 2037. 161. o
3091 1 -12 -2 4 0 1870. 2037. 161. o
3092 3 12 2 -4 1 58. 71. 162. <
3092 1 -12 -2 4 -1 58. 71. 162. <
3093 3 13 2 -4 -1 495. 575. 335. <
3093 1 -13 -2 4 1 495. 575. 335. <
3094 4 13 -2 4 0 29604. 27319. 337. o
3094 3 13 2 -4 0 29604. 27319. 337. o
3094 2 -13 2 -4 0 29604. 27319. 337. o
3094 1 -13 -2 4 0 29604. 27319. 337. o
3095 3 13 2 -4 1 887. 2317. 339. o
3095 1 -13 -2 4 -1 887. 2317. 339. o
3096 4 13 3 4 0 39719. 41005. 385. o
3096 3 13 -3 -4 0 39719. 41005. 385. o
3096 2 -13 -3 -4 0 39719. 41005. 385. o
3096 1 -13 3 4 0 39719. 41005. 385. o
3097 3 13 -3 -4 -1 257. 713. 385. <
3097 1 -13 3 4 1 257. 713. 385. <
3098 3 12 -3 -4 1 189. 471. 179. o
3098 1 -12 3 4 -1 189. 471. 179. o
3099 4 12 3 4 0 5072. 5107. 179. o
3099 3 12 -3 -4 0 5072. 5107. 179. o
3099 2 -12 -3 -4 0 5072. 5107. 179. o
3099 1 -12 3 4 0 5072. 5107. 179. o
3100 3 12 -3 -4 -1 157. 88. 179. <
3100 1 -12 3 4 1 157. 88. 179. <
3101 4 11 3 4 0 164011. 175088. 675. o
3101 3 11 -3 -4 0 164011. 175088. 675. o
3101 2 -11 -3 -4 0 164011. 175088. 675. o
3101 1 -11 3 4 0 164011. 175088. 675. o
3102 3 11 -3 -4 -1 209. 121. 59. o
3102 1 -11 3 4 1 209. 121. 59. o
3103 3 10 -3 -4 1 1246. 1152. 185. o
3103 1 -10 3 4 -1 1246. 1152. 185. o
3104 4 10 3 4 0 8426. 8512. 186. o
3104 3 10 -3 -4 0 8426. 8512. 186. o
3104 2 -10 -3 -4 0 8426. 8512. 186. o
3104 1 -10 3 4 0 8426. 8512. 186. o
3105 3 10 -3 -4 -1 741. 375. 186. o
3105 1 -10 3 4 1 741. 375. 186. o
3106 3 9 -3 -4 1 348. 346. 59. o
3106 1 -9 3 4 -1 348. 346. 59. o
3107 4 9 3 4 0 1244. 1537. 87. o
3107 3 9 -3 -4 0 1244. 1537. 87. o
3107 2 -9 -3 -4 0 1244. 1537. 87. o
3107 1 -9 3 4 0 1244. 1537. 87. o
3108 3 9 -3 -4 -1 4. -33. 47. <
3108 1 -9 3 4 1 4. -33. 47. <
3109 3 8 -3 -4 1 284. 327. 133. o
3109 1 -8 3 4 -1 284. 327. 133. o
3110 4 8 3 4 0 16345. 15416. 164. o
3110 3 8 -3 -4 0 16345. 15416. 164. o
3110 2 -8 -3 -4 0 16345. 15416. 164. o
3110 1 -8 3 4 0 16345. 15416. 164. o
3111 3 8 -3 -4 -1 80. 122. 142. <
3111 1 -8 3 4 1 80. 122. 142. <
3112 3 7 -3 -4 1 628. 533. 136. o
3112 1 -7 3 4 -1 628. 533. 136. o
3113 4 7 3 4 0 12848. 12579. 158. o
3113 3 7 -3 -4 0 12848. 12579. 158. o
3113 2 -7 -3 -4 0 12848. 12579. 158. o
3113 1 -7 3 4 0 12848. 12579. 158. o
3114 3 7 -3 -4 -1 829. 721. 148. o
3114 1 -7 3 4 1 829. 721. 148. o
3115 3 6 -3 -4 1 540. 442. 107. o
3115 1 -6 3 4 -1 540. 442. 107. o
3116 4 6 3 4 0 1177. 1140. 101. o
3116 3 6 -3 -4 0 1177. 1140. 101. o
3116 2 -6 -3 -4 0 1177. 1140. 101. o
3116 1 -6 3 4 0 1177. 1140. 101. o
3117 3 6 -3 -4 -1 945. 697. 97. o
3117 1 -6 3 4 1 945. 697. 97. o
3118 3 5 -3 -4 1 304. 338. 679. <
3118 1 -5 3 4 -1 304. 338. 679. <
3119 4 5 3 4 0 433110. 340370. 1191. o
3119 3 5 -3 -4 0 433110. 340370. 1191. o
3119 2 -5 -3 -4 0 433110. 340370. 1191. o
3119 1 -5 3 4 0 433110. 340370. 1191. o
3120 3 5 -3 -4 -1 36. 189. 661. <
3120 1 -5 3 4 1 36. 189. 661. <
3121 3 4 -3 -4 1 858. 650. 185. o
3121 1 -4 3 4 -1 858. 650. 185. o
3122 4 4 3 4 0 41076. 38376. 219. o
3122 3 4 -3 -4 0 41076. 38376. 219. o
3122 2 -4 -3 -4 0 41076. 38376. 219. o
3122 1 -4 3 4 0 41076. 38376. 219. o
3123 3 4 -3 -4 -1 28. 20. 182. <
3123 1 -4 3 4 1 28. 20. 182. <
3124 3 3 -3 -4 1 1714. 1689. 326. o
3124 1 -3 3 4 -1 1714. 1689. 326. o
3125 4 3 3 4 0 224457. 243666. 1235. o
3125 3 3 -3 -4 0 224457. 243666. 1235. o
3125 2 -3 -3 -4 0 224457. 243666. 1235. o
3125 1 -3 3 4 0 224457. 243666. 1235. o
3126 3 3 -3 -4 -1 1649. 1657. 303. o
3126 1 -3 3 4 1 1649. 1657. 303. o
3127 3 2 -3 -4 1 307. 256. 62. o
3127 1 -2 3 4 -1 307. 256. 62. o
3128 4 2 3 4 0 11165. 11167. 76. o
3128 3 2 -3 -4 0 11165. 11167. 76. o
3128 2 -2 -3 -4 0 11165. 11167. 76. o
3128 1 -2 3 4 0 11165. 11167. 76. o
3129 3 2 -3 -4 -1 668. 656. 61. o
3129 1 -2 3 4 1 668. 656. 61. o
3130 3 1 -3 -4 1 42. 17. 318. <
3130 1 -1 3 4 -1 42. 17. 318. <
3131 4 1 3 4 0 146381. 137695. 618. o
3131 3 1 -3 -4 0 146381. 137695. 618. o
3131 2 -1 -3 -4 0 146381. 137695. 618. o
3131 1 -1 3 4 0 146381. 137695. 618. o
3132 3 1 -3 -4 -1 65. 52. 465. <
3132 1 -1 3 4 1 65. 52. 465. <
3133 3 0 -3 -4 1 13. -1. 25. <
3133 1 0 3 4 -1 13. -1. 25. <
3134 4 0 3 4 0 107. 268. 33. o
3134 3 0 -3 -4 0 107. 268. 33. o
3134 2 0 -3 -4 0 107. 268. 33. o
3134 1 0 3 4 0 107. 268. 33. o
3135 3 0 -3 -4 -1 22. 10. 28. <
3135 1 0 3 4 1 22. 10. 28. <
3136 3 -1 -3 -4 1 44. 70. 425. <
3136 1 1 3 4 -1 44. 70. 425. <
3137 3 1 3 -4 -1 44. 53. 24. o
3137 1 -1 -3 4 1 44. 53. 24. o
3138 4 -1 3 4 0 146537. 137297. 567. o
3138 3 -1 -3 -4 0 146537. 137297. 567. o
3138 2 1 -3 -4 0 146537. 137297. 567. o
3138 1 1 3 4 0 146537. 137297. 567. o
3139 4 1 -3 4 0 146646. 145866. 794. o
3139 3 1 3 -4 0 146646. 145866. 794. o
3139 2 -1 3 -4 0 146646. 145866. 794. o
3139 1 -1 -3 4 0 146646. 145866. 794. o
3140 3 -1 -3 -4 -1 356. 420. 420. <
3140 1 1 3 4 1 356. 420. 420. <
3141 3 -2 -3 -4 1 3. 6. 72. <
3141 1 2 3 4 -1 3. 6. 72. <
3142 3 2 3 -4 -1 3. 7. 23. <
3142 1 -2 -3 4 1 3. 7. 23. <
3143 4 -2 3 4 0 10817. 10712. 97. o
3143 3 -2 -3 -4 0 10817. 10712. 97. o
3143 2 2 -3 -4 0 10817. 10712. 97. o
3143 1 2 3 4 0 10817. 10712. 97. o
3144 4 2 -3 4 0 10589. 11069. 101. o
3144 3 2 3 -4 0 10589. 11069. 101. o
3144 2 -2 3 -4 0 10589. 11069. 101. o
3144 1 -2 -3 4 0 10589. 11069. 101. o
3145 3 -2 -3 -4 -1 32. -9. 73. <
3145 1 2 3 4 1 32. -9. 73. <
3146 3 2 3 -4 1 33. 2. 25. <
3146 1 -2 -3 4 -1 33. 2. 25. <
3147 3 -3 -3 -4 1 27. 251. 619. <
3147 1 3 3 4 -1 27. 251. 619. <
3148 3 3 3 -4 -1 27. 0. 24. <
3148 1 -3 -3 4 1 27. 0. 24. <
3149 4 -3 3 4 0 225019. 199016. 773. o
3149 3 -3 -3 -4 0 225019. 199016. 773. o
3149 2 3 -3 -4 0 225019. 199016. 773. o
3149 1 3 3 4 0 225019. 199016. 773. o
3150 4 3 -3 4 0 223988. 223357. 1194. o
3150 3 3 3 -4 0 223988. 223357. 1194. o
3150 2 -3 3 -4 0 223988. 223357. 1194. o
3150 1 -3 -3 4 0 223988. 223357. 1194. o
3151 3 -3 -3 -4 -1 6. 280. 1235. <
3151 1 3 3 4 1 6. 280. 1235. <
3152 3 3 3 -4 1 6. 11. 25. <
3152 1 -3 -3 4 -1 6. 11. 25. <
3153 3 -4 -3 -4 1 59. 56. 241. <
3153 1 4 3 4 -1 59. 56. 241. <
3154 3 4 3 -4 -1 60. 50. 27. <
3154 1 -4 -3 4 1 60. 50. 27. <
3155 4 -4 3 4 0 41407. 44980. 239. o
3155 3 -4 -3 -4 0 41407. 44980. 239. o
3155 2 4 -3 -4 0 41407. 44980. 239. o
3155 1 4 3 4 0 41407. 44980. 239. o
3156 4 4 -3 4 0 41471. 45241. 229. o
3156 3 4 3 -4 0 41471. 45241. 229. o
3156 2 -4 3 -4 0 41471. 45241. 229. o
3156 1 -4 -3 4 0 41471. 45241. 229. o
3157 3 -4 -3 -4 -1 587. 334. 238. <
3157 1 4 3 4 1 587. 334. 238. <
3158 3 4 3 -4 1 588. 650. 48. o
3158 1 -4 -3 4 -1 588. 650. 48. o
3159 3 -5 -3 -4 1 290. 491. 49. o
3159 1 5 3 4 -1 290. 491. 49. o
3160 3 5 3 -4 -1 296. 262. 38. o
3160 1 -5 -3 4 1 296. 262. 38. o
3161 4 -5 3 4 0 435085. 455329. 2056. o
3161 3 -5 -3 -4 0 435085. 455329. 2056. o
3161 2 5 -3 -4 0 435085. 455329. 2056. o
3161 1 5 3 4 0 435085. 455329. 2056. o
3162 4 5 -3 4 0 433872. 421457. 1920. o
3162 3 5 3 -4 0 433872. 421457. 1920. o
3162 2 -5 3 -4 0 433872. 421457. 1920. o
3162 1 -5 -3 4 0 433872. 421457. 1920. o
3163 3 -6 -3 -4 1 73. 59. 97. <
3163 1 6 3 4 -1 73. 59. 97. <
3164 3 6 3 -4 -1 71. 33. 32. <
3164 1 -6 -3 4 1 71. 33. 32. <
3165 4 -6 3 4 0 1210. 1211. 97. o
3165 3 -6 -3 -4 0 1210. 1211. 97. o
3165 2 6 -3 -4 0 1210. 1211. 97. o
3165 1 6 3 4 0 1210. 1211. 97. o
3166 4 6 -3 4 0 1357. 1573. 69. o
3166 3 6 3 -4 0 1357. 1573. 69. o
3166 2 -6 3 -4 0 1357. 1573. 69. o
3166 1 -6 -3 4 0 1357. 1573. 69. o
3167 3 -6 -3 -4 -1 17. 39. 97. <
3167 1 6 3 4 1 17. 39. 97. <
3168 3 6 3 -4 1 18. 8. 36. <
3168 1 -6 -3 4 -1 18. 8. 36. <
3169 3 -7 -3 -4 1 463. 292. 163. <
3169 1 7 3 4 -1 463. 292. 163. <
3170 3 7 3 -4 -1 456. 522. 60. o
3170 1 -7 -3 4 1 456. 522. 60. o
3171 4 -7 3 4 0 12676. 13324. 164. o
3171 3 -7 -3 -4 0 12676. 13324. 164. o
3171 2 7 -3 -4 0 12676. 13324. 164. o
3171 1 7 3 4 0 12676. 13324. 164. o
3172 4 7 -3 4 0 12666. 13160. 158. o
3172 3 7 3 -4 0 12666. 13160. 158. o
3172 2 -7 3 -4 0 12666. 13160. 158. o
3172 1 -7 -3 4 0 12666. 13160. 158. o
3173 3 -7 -3 -4 -1 229. 137. 165. <
3173 1 7 3 4 1 229. 137. 165. <
3174 3 7 3 -4 1 230. 253. 49. o
3174 1 -7 -3 4 -1 230. 253. 49. o
3175 3 -8 -3 -4 1 248. 151. 186. <
3175 1 8 3 4 -1 248. 151. 186. <
3176 3 8 3 -4 -1 243. 206. 202. <
3176 1 -8 -3 4 1 243. 206. 202. <
3177 4 -8 3 4 0 16405. 17575. 187. o
3177 3 -8 -3 -4 0 16405. 17575. 187. o
3177 2 8 -3 -4 0 16405. 17575. 187. o
3177 1 8 3 4 0 16405. 17575. 187. o
3178 4 8 -3 4 0 16366. 16126. 204. o
3178 3 8 3 -4 0 16366. 16126. 204. o
3178 2 -8 3 -4 0 16366. 16126. 204. o
3178 1 -8 -3 4 0 16366. 16126. 204. o
3179 3 -8 -3 -4 -1 63. 86. 188. <
3179 1 8 3 4 1 63. 86. 188. <
3180 3 8 3 -4 1 62. 92. 205. <
3180 1 -8 -3 4 -1 62. 92. 205. <
3181 3 9 3 -4 -1 34. 26. 126. <
3181 1 -9 -3 4 1 34. 26. 126. <
3182 4 9 -3 4 0 1164. 1475. 127. o
3182 3 9 3 -4 0 1164. 1475. 127. o
3182 2 -9 3 -4 0 1164. 1475. 127. o
3182 1 -9 -3 4 0 1164. 1475. 127. o
3183 3 9 3 -4 1 111. 88. 128. <
3183 1 -9 -3 4 -1 111. 88. 128. <
3184 3 10 3 -4 -1 1342. 693. 187. o
3184 1 -10 -3 4 1 1342. 693. 187. o
3185 4 10 -3 4 0 8053. 7833. 188. o
3185 3 10 3 -4 0 8053. 7833. 188. o
3185 2 -10 3 -4 0 8053. 7833. 188. o
3185 1 -10 -3 4 0 8053. 7833. 188. o
3186 3 10 3 -4 1 370. 287. 189. <
3186 1 -10 -3 4 -1 370. 287. 189. <
3187 3 11 3 -4 -1 865. 2731. 669. o
3187 1 -11 -3 4 1 865. 2731. 669. o
3188 4 11 -3 4 0 165715. 162652. 673. o
3188 3 11 3 -4 0 165715. 162652. 673. o
3188 2 -11 3 -4 0 165715. 162652. 673. o
3188 1 -11 -3 4 0 165715. 162652. 673. o
3189 3 11 3 -4 1 893. 3515. 677. o
3189 1 -11 -3 4 -1 893. 3515. 677. o
3190 3 12 3 -4 -1 86. 147. 194. <
3190 1 -12 -3 4 1 86. 147. 194. <
3191 4 12 -3 4 0 5085. 5139. 195. o
3191 3 12 3 -4 0 5085. 5139. 195. o
3191 2 -12 3 -4 0 5085. 5139. 195. o
3191 1 -12 -3 4 0 5085. 5139. 195. o
3192 3 12 3 -4 1 309. 273. 196. <
3192 1 -12 -3 4 -1 309. 273. 196. <
3193 3 13 3 -4 -1 326. 266. 389. <
3193 1 -13 -3 4 1 326. 266. 389. <
3194 4 13 -3 4 0 39682. 41473. 391. o
3194 3 13 3 -4 0 39682. 41473. 391. o
3194 2 -13 3 -4 0 39682. 41473. 391. o
3194 1 -13 -3 4 0 39682. 41473. 391. o
3195 3 12 -4 -4 1 14. 453. 177. o
3195 1 -12 4 4 -1 14. 453. 177. o
3196 4 12 4 4 0 4819. 4453. 178. o
3196 3 12 -4 -4 0 4819. 4453. 178. o
3196 2 -12 -4 -4 0 4819. 4453. 178. o
3196 1 -12 4 4 0 4819. 4453. 178. o
3197 3 12 -4 -4 -1 362. 266. 180. <
3197 1 -12 4 4 1 362. 266. 180. <
3198 3 10 -4 -4 1 17. -32. 55. <
3198 1 -10 4 4 -1 17. -32. 55. <
3199 4 10 4 4 0 8147. 8598. 162. o
3199 3 10 -4 -4 0 8147. 8598. 162. o
3199 2 -10 -4 -4 0 8147. 8598. 162. o
3199 1 -10 4 4 0 8147. 8598. 162. o
3200 3 10 -4 -4 -1 24. 26. 54. <
3200 1 -10 4 4 1 24. 26. 54. <
3201 3 9 -4 -4 1 251. 345. 294. <
3201 1 -9 4 4 -1 251. 345. 294. <
3202 4 9 4 4 0 102398. 102930. 393. o
3202 3 9 -4 -4 0 102398. 102930. 393. o
3202 2 -9 -4 -4 0 102398. 102930. 393. o
3202 1 -9 4 4 0 102398. 102930. 393. o
3203 3 9 -4 -4 -1 768. 897. 311. o
3203 1 -9 4 4 1 768. 897. 311. o
3204 3 8 -4 -4 1 83. 89. 128. <
3204 1 -8 4 4 -1 83. 89. 128. <
3205 4 8 4 4 0 6195. 6424. 146. o
3205 3 8 -4 -4 0 6195. 6424. 146. o
3205 2 -8 -4 -4 0 6195. 6424. 146. o
3205 1 -8 4 4 0 6195. 6424. 146. o
3206 3 8 -4 -4 -1 49. 64. 137. <
3206 1 -8 4 4 1 49. 64. 137. <
3207 3 7 -4 -4 1 268. 536. 497. <
3207 1 -7 4 4 -1 268. 536. 497. <
3208 4 7 4 4 0 253142. 243867. 848. o
3208 3 7 -4 -4 0 253142. 243867. 848. o
3208 2 -7 -4 -4 0 253142. 243867. 848. o
3208 1 -7 4 4 0 253142. 243867. 848. o
3209 3 7 -4 -4 -1 628. 698. 435. <
3209 1 -7 4 4 1 628. 698. 435. <
3210 3 6 -4 -4 1 906. 773. 115. o
3210 1 -6 4 4 -1 906. 773. 115. o
3211 4 6 4 4 0 6770. 6156. 122. o
3211 3 6 -4 -4 0 6770. 6156. 122. o
3211 2 -6 -4 -4 0 6770. 6156. 122. o
3211 1 -6 4 4 0 6770. 6156. 122. o
3212 3 6 -4 -4 -1 515. 367. 106. o
3212 1 -6 4 4 1 515. 367. 106. o
3213 3 5 -4 -4 1 25. 28. 120. <
3213 1 -5 4 4 -1 25. 28. 120. <
3214 4 5 4 4 0 19179. 16435. 148. o
3214 3 5 -4 -4 0 19179. 16435. 148. o
3214 2 -5 -4 -4 0 19179. 16435. 148. o
3214 1 -5 4 4 0 19179. 16435. 148. o
3215 3 5 -4 -4 -1 116. 111. 118. <
3215 1 -5 4 4 1 116. 111. 118. <
3216 3 4 -4 -4 1 21. -5. 97. <
3216 1 -4 4 4 -1 21. -5. 97. <
3217 4 4 4 4 0 2792. 2881. 108. o
3217 3 4 -4 -4 0 2792. 2881. 108. o
3217 2 -4 -4 -4 0 2792. 2881. 108. o
3217 1 -4 4 4 0 2792. 2881. 108. o
3218 3 4 -4 -4 -1 15. 10. 105. <
3218 1 -4 4 4 1 15. 10. 105. <
3219 3 3 -4 -4 1 32. 29. 118. <
3219 1 -3 4 4 -1 32. 29. 118. <
3220 4 3 4 4 0 41470. 38499. 206. o
3220 3 3 -4 -4 0 41470. 38499. 206. o
3220 2 -3 -4 -4 0 41470. 38499. 206. o
3220 1 -3 4 4 0 41470. 38499. 206. o
3221 3 3 -4 -4 -1 817. 748. 112. o
3221 1 -3 4 4 1 817. 748. 112. o
3222 3 2 -4 -4 1 1396. 1317. 63. o
3222 1 -2 4 4 -1 1396. 1317. 63. o
3223 4 2 4 4 0 4517. 4367. 70. o
3223 3 2 -4 -4 0 4517. 4367. 70. o
3223 2 -2 -4 -4 0 4517. 4367. 70. o
3223 1 -2 4 4 0 4517. 4367. 70. o
3224 3 2 -4 -4 -1 1028. 981. 63. o
3224 1 -2 4 4 1 1028. 981. 63. o
3225 3 1 -4 -4 1 1000. 896. 423. o
3225 1 -1 4 4 -1 1000. 896. 423. o
3226 4 1 4 4 0 219825. 190691. 655. o
3226 3 1 -4 -4 0 219825. 190691. 655. o
3226 2 -1 -4 -4 0 219825. 190691. 655. o
3226 1 -1 4 4 0 219825. 190691. 655. o
3227 3 1 -4 -4 -1 1232. 1107. 616. <
3227 1 -1 4 4 1 1232. 1107. 616. <
3228 3 0 -4 -4 1 93. 50. 55. <
3228 1 0 4 4 -1 93. 50. 55. <
3229 4 0 4 4 0 157. 540. 59. o
3229 3 0 -4 -4 0 157. 540. 59. o
3229 2 0 -4 -4 0 157. 540. 59. o
3229 1 0 4 4 0 157. 540. 59. o
3230 3 0 -4 -4 -1 40. 36. 55. <
3230 1 0 4 4 1 40. 36. 55. <
3231 3 -1 -4 -4 1 124. 187. 641. <
3231 1 1 4 4 -1 124. 187. 641. <
3232 4 -1 4 4 0 220516. 206918. 847. o
3232 3 -1 -4 -4 0 220516. 206918. 847. o
3232 2 1 -4 -4 0 220516. 206918. 847. o
3232 1 1 4 4 0 220516. 206918. 847. o
3233 3 -1 -4 -4 -1 32. 166. 634. <
3233 1 1 4 4 1 32. 166. 634. <
3234 3 -2 -4 -4 1 615. 597. 72. o
3234 1 2 4 4 -1 615. 597. 72. o
3235 4 -2 4 4 0 4428. 4789. 83. o
3235 3 -2 -4 -4 0 4428. 4789. 83. o
3235 2 2 -4 -4 0 4428. 4789. 83. o
3235 1 2 4 4 0 4428. 4789. 83. o
3236 3 -2 -4 -4 -1 364. 387. 66. o
3236 1 2 4 4 1 364. 387. 66. o
3237 3 -3 -4 -4 1 62. 107. 128. <
3237 1 3 4 4 -1 62. 107. 128. <
3238 3 3 4 -4 -1 61. 63. 29. o
3238 1 -3 -4 4 1 61. 63. 29. o
3239 4 -3 4 4 0 41035. 39302. 175. o
3239 3 -3 -4 -4 0 41035. 39302. 175. o
3239 2 3 -4 -4 0 41035. 39302. 175. o
3239 1 3 4 4 0 41035. 39302. 175. o
3240 4 3 -4 4 0 41311. 44041. 236. o
3240 3 3 4 -4 0 41311. 44041. 236. o
3240 2 -3 4 -4 0 41311. 44041. 236. o
3240 1 -3 -4 4 0 41311. 44041. 236. o
3241 3 -3 -4 -4 -1 559. 455. 129. o
3241 1 3 4 4 1 559. 455. 129. o
3242 3 3 4 -4 1 560. 678. 50. o
3242 1 -3 -4 4 -1 560. 678. 50. o
3243 3 -4 -4 -4 1 9. 24. 109. <
3243 1 4 4 4 -1 9. 24. 109. <
3244 3 4 4 -4 -1 9. 19. 31. <
3244 1 -4 -4 4 1 9. 19. 31. <
3245 4 -4 4 4 0 2802. 3393. 108. o
3245 3 -4 -4 -4 0 2802. 3393. 108. o
3245 2 4 -4 -4 0 2802. 3393. 108. o
3245 1 4 4 4 0 2802. 3393. 108. o
3246 4 4 -4 4 0 2746. 3412. 79. o
3246 3 4 4 -4 0 2746. 3412. 79. o
3246 2 -4 4 -4 0 2746. 3412. 79. o
3246 1 -4 -4 4 0 2746. 3412. 79. o
3247 3 -4 -4 -4 -1 15. 11. 108. <
3247 1 4 4 4 1 15. 11. 108. <
3248 3 4 4 -4 1 15. -7. 34. <
3248 1 -4 -4 4 -1 15. -7. 34. <
3249 3 -5 -4 -4 1 235. 320. 183. <
3249 1 5 4 4 -1 235. 320. 183. <
3250 3 5 4 -4 -1 236. 264. 42. o
3250 1 -5 -4 4 1 236. 264. 42. o
3251 4 -5 4 4 0 19395. 21052. 184. o
3251 3 -5 -4 -4 0 19395. 21052. 184. o
3251 2 5 -4 -4 0 19395. 21052. 184. o
3251 1 5 4 4 0 19395. 21052. 184. o
3252 4 5 -4 4 0 19890. 22016. 195. o
3252 3 5 4 -4 0 19890. 22016. 195. o
3252 2 -5 4 -4 0 19890. 22016. 195. o
3252 1 -5 -4 4 0 19890. 22016. 195. o
3253 3 -5 -4 -4 -1 744. 599. 184. o
3253 1 5 4 4 1 744. 599. 184. o
3254 3 5 4 -4 1 742. 830. 196. o
3254 1 -5 -4 4 -1 742. 830. 196. o
3255 3 -6 -4 -4 1 40. 0. 129. <
3255 1 6 4 4 -1 40. 0. 129. <
3256 3 6 4 -4 -1 41. 11. 39. <
3256 1 -6 -4 4 1 41. 11. 39. <
3257 4 -6 4 4 0 6622. 7256. 129. o
3257 3 -6 -4 -4 0 6622. 7256. 129. o
3257 2 6 -4 -4 0 6622. 7256. 129. o
3257 1 6 4 4 0 6622. 7256. 129. o
3258 4 6 -4 4 0 6689. 7191. 121. o
3258 3 6 4 -4 0 6689. 7191. 121. o
3258 2 -6 4 -4 0 6689. 7191. 121. o
3258 1 -6 -4 4 0 6689. 7191. 121. o
3259 3 -6 -4 -4 -1 81. 12. 129. <
3259 1 6 4 4 1 81. 12. 129. <
3260 3 6 4 -4 1 78. 35. 43. <
3260 1 -6 -4 4 -1 78. 35. 43. <
3261 3 -7 -4 -4 1 510. 333. 1343. <
3261 1 7 4 4 -1 510. 333. 1343. <
3262 3 7 4 -4 -1 511. 383. 2734. <
3262 1 -7 -4 4 1 511. 383. 2734. <
3263 4 -7 4 4 0 258825. 270147. 1345. o
3263 3 -7 -4 -4 0 258825. 270147. 1345. o
3263 2 7 -4 -4 0 258825. 270147. 1345. o
3263 1 7 4 4 0 258825. 270147. 1345. o
3264 4 7 -4 4 0 259703. 251980. 2751. o
3264 3 7 4 -4 0 259703. 251980. 2751. o
3264 2 -7 4 -4 0 259703. 251980. 2751. o
3264 1 -7 -4 4 0 259703. 251980. 2751. o
3265 3 -7 -4 -4 -1 101. 686. 1348. <
3265 1 7 4 4 1 101. 686. 1348. <
3266 3 7 4 -4 1 98. 667. 2769. <
3266 1 -7 -4 4 -1 98. 667. 2769. <
3267 3 8 4 -4 -1 28. 1. 169. <
3267 1 -8 -4 4 1 28. 1. 169. <
3268 4 8 -4 4 0 6531. 6646. 170. o
3268 3 8 4 -4 0 6531. 6646. 170. o
3268 2 -8 4 -4 0 6531. 6646. 170. o
3268 1 -8 -4 4 0 6531. 6646. 170. o
3269 3 8 4 -4 1 653. 363. 171. o
3269 1 -8 -4 4 -1 653. 363. 171. o
3270 3 9 4 -4 -1 189. 380. 511. <
3270 1 -9 -4 4 1 189. 380. 511. <
3271 4 9 -4 4 0 104399. 108240. 515. o
3271 3 9 4 -4 0 104399. 108240. 515. o
3271 2 -9 4 -4 0 104399. 108240. 515. o
3271 1 -9 -4 4 0 104399. 108240. 515. o
3272 3 9 4 -4 1 253. 447. 519. <
3272 1 -9 -4 4 -1 253. 447. 519. <
3273 3 10 4 -4 -1 101. 85. 197. <
3273 1 -10 -4 4 1 101. 85. 197. <
3274 4 10 -4 4 0 8202. 8134. 198. o
3274 3 10 4 -4 0 8202. 8134. 198. o
3274 2 -10 4 -4 0 8202. 8134. 198. o
3274 1 -10 -4 4 0 8202. 8134. 198. o
3275 3 10 4 -4 1 2. 62. 199. <
3275 1 -10 -4 4 -1 2. 62. 199. <
3276 3 11 4 -4 -1 358. 176. 224. <
3276 1 -11 -4 4 1 358. 176. 224. <
3277 4 11 -4 4 0 9667. 9817. 226. o
3277 3 11 4 -4 0 9667. 9817. 226. o
3277 2 -11 4 -4 0 9667. 9817. 226. o
3277 1 -11 -4 4 0 9667. 9817. 226. o
3278 3 11 4 -4 1 479. 304. 227. <
3278 1 -11 -4 4 -1 479. 304. 227. <
3279 3 12 4 -4 -1 125. 113. 198. <
3279 1 -12 -4 4 1 125. 113. 198. <
3280 4 12 -4 4 0 5145. 4850. 200. o
3280 3 12 4 -4 0 5145. 4850. 200. o
3280 2 -12 4 -4 0 5145. 4850. 200. o
3280 1 -12 -4 4 0 5145. 4850. 200. o
3281 3 12 4 -4 1 5. 165. 201. <
3281 1 -12 -4 4 -1 5. 165. 201. <
3282 3 12 -5 -4 1 383. 1013. 289. o
3282 1 -12 5 4 -1 383. 1013. 289. o
3283 4 12 5 4 0 18607. 18087. 291. o
3283 3 12 -5 -4 0 18607. 18087. 291. o
3283 2 -12 -5 -4 0 18607. 18087. 291. o
3283 1 -12 5 4 0 18607. 18087. 291. o
3284 3 12 -5 -4 -1 170. 1122. 292. o
3284 1 -12 5 4 1 170. 1122. 292. o
3285 3 11 -5 -4 1 827. 2301. 417. o
3285 1 -11 5 4 -1 827. 2301. 417. o
3286 4 11 5 4 0 47778. 49229. 419. o
3286 3 11 -5 -4 0 47778. 49229. 419. o
3286 2 -11 -5 -4 0 47778. 49229. 419. o
3286 1 -11 5 4 0 47778. 49229. 419. o
3287 3 11 -5 -4 -1 374. 2814. 422. o
3287 1 -11 5 4 1 374. 2814. 422. o
3288 3 10 -5 -4 1 1256. 1132. 246. o
3288 1 -10 5 4 -1 1256. 1132. 246. o
3289 4 10 5 4 0 25239. 25735. 250. o
3289 3 10 -5 -4 0 25239. 25735. 250. o
3289 2 -10 -5 -4 0 25239. 25735. 250. o
3289 1 -10 5 4 0 25239. 25735. 250. o
3290 3 10 -5 -4 -1 1142. 1104. 253. o
3290 1 -10 5 4 1 1142. 1104. 253. o
3291 3 9 -5 -4 1 133. 791. 273. o
3291 1 -9 5 4 -1 133. 791. 273. o
3292 4 9 5 4 0 36133. 35670. 279. o
3292 3 9 -5 -4 0 36133. 35670. 279. o
3292 2 -9 -5 -4 0 36133. 35670. 279. o
3292 1 -9 5 4 0 36133. 35670. 279. o
3293 3 9 -5 -4 -1 959. 747. 285. o
3293 1 -9 5 4 1 959. 747. 285. o
3294 3 8 -5 -4 1 1267. 1069. 175. o
3294 1 -8 5 4 -1 1267. 1069. 175. o
3295 4 8 5 4 0 10786. 10361. 179. o
3295 3 8 -5 -4 0 10786. 10361. 179. o
3295 2 -8 -5 -4 0 10786. 10361. 179. o
3295 1 -8 5 4 0 10786. 10361. 179. o
3296 3 8 -5 -4 -1 2190. 2024. 158. o
3296 1 -8 5 4 1 2190. 2024. 158. o
3297 3 7 -5 -4 1 39. 46. 186. <
3297 1 -7 5 4 -1 39. 46. 186. <
3298 4 7 5 4 0 34373. 32222. 226. o
3298 3 7 -5 -4 0 34373. 32222. 226. o
3298 2 -7 -5 -4 0 34373. 32222. 226. o
3298 1 -7 5 4 0 34373. 32222. 226. o
3299 3 7 -5 -4 -1 35. 90. 170. <
3299 1 -7 5 4 1 35. 90. 170. <
3300 3 6 -5 -4 1 59. 70. 101. <
3300 1 -6 5 4 -1 59. 70. 101. <
3301 4 6 5 4 0 6155. 5198. 114. o
3301 3 6 -5 -4 0 6155. 5198. 114. o
3301 2 -6 -5 -4 0 6155. 5198. 114. o
3301 1 -6 5 4 0 6155. 5198. 114. o
3302 3 6 -5 -4 -1 45. 51. 97. <
3302 1 -6 5 4 1 45. 51. 97. <
3303 3 5 -5 -4 1 73. 104. 299. <
3303 1 -5 5 4 -1 73. 104. 299. <
3304 4 5 5 4 0 207475. 175030. 737. o
3304 3 5 -5 -4 0 207475. 175030. 737. o
3304 2 -5 -5 -4 0 207475. 175030. 737. o
3304 1 -5 5 4 0 207475. 175030. 737. o
3305 3 5 -5 -4 -1 60. 162. 294. <
3305 1 -5 5 4 1 60. 162. 294. <
3306 3 4 -5 -4 1 115. 104. 125. <
3306 1 -4 5 4 -1 115. 104. 125. <
3307 4 4 5 4 0 20597. 18068. 158. o
3307 3 4 -5 -4 0 20597. 18068. 158. o
3307 2 -4 -5 -4 0 20597. 18068. 158. o
3307 1 -4 5 4 0 20597. 18068. 158. o
3308 3 4 -5 -4 -1 54. 50. 127. <
3308 1 -4 5 4 1 54. 50. 127. <
3309 3 3 -5 -4 1 67. 116. 1089. <
3309 1 -3 5 4 -1 67. 116. 1089. <
3310 4 3 5 4 0 413007. 388392. 1543. o
3310 3 3 -5 -4 0 413007. 388392. 1543. o
3310 2 -3 -5 -4 0 413007. 388392. 1543. o
3310 1 -3 5 4 0 413007. 388392. 1543. o
3311 3 3 -5 -4 -1 154. 315. 695. <
3311 1 -3 5 4 1 154. 315. 695. <
3312 3 2 -5 -4 1 2744. 3163. 63. o
3312 1 -2 5 4 -1 2744. 3163. 63. o
3313 4 2 5 4 0 13772. 16057. 121. o
3313 3 2 -5 -4 0 13772. 16057. 121. o
3313 2 -2 -5 -4 0 13772. 16057. 121. o
3313 1 -2 5 4 0 13772. 16057. 121. o
3314 3 2 -5 -4 -1 1018. 1147. 49. o
3314 1 -2 5 4 1 1018. 1147. 49. o
3315 3 1 -5 -4 1 605. 513. 69. o
3315 1 -1 5 4 -1 605. 513. 69. o
3316 4 1 5 4 0 10431. 9330. 86. o
3316 3 1 -5 -4 0 10431. 9330. 86. o
3316 2 -1 -5 -4 0 10431. 9330. 86. o
3316 1 -1 5 4 0 10431. 9330. 86. o
3317 3 1 -5 -4 -1 102. 93. 65. <
3317 1 -1 5 4 1 102. 93. 65. <
3318 3 0 -5 -4 1 1192. 965. 74. o
3318 1 0 5 4 -1 1192. 965. 74. o
3319 4 0 5 4 0 2161. 1835. 75. o
3319 3 0 -5 -4 0 2161. 1835. 75. o
3319 2 0 -5 -4 0 2161. 1835. 75. o
3319 1 0 5 4 0 2161. 1835. 75. o
3320 3 0 -5 -4 -1 983. 913. 74. o
3320 1 0 5 4 1 983. 913. 74. o
3321 3 -1 -5 -4 1 473. 350. 85. o
3321 1 1 5 4 -1 473. 350. 85. o
3322 4 -1 5 4 0 10046. 11378. 115. o
3322 3 -1 -5 -4 0 10046. 11378. 115. o
3322 2 1 -5 -4 0 10046. 11378. 115. o
3322 1 1 5 4 0 10046. 11378. 115. o
3323 3 -1 -5 -4 -1 6. 20. 84. <
3323 1 1 5 4 1 6. 20. 84. <
3324 3 -2 -5 -4 1 7. 14. 87. <
3324 1 2 5 4 -1 7. 14. 87. <
3325 4 -2 5 4 0 14088. 13199. 116. o
3325 3 -2 -5 -4 0 14088. 13199. 116. o
3325 2 2 -5 -4 0 14088. 13199. 116. o
3325 1 2 5 4 0 14088. 13199. 116. o
3326 3 -2 -5 -4 -1 298. 241. 88. o
3326 1 2 5 4 1 298. 241. 88. o
3327 3 -3 -5 -4 1 303. 847. 954. <
3327 1 3 5 4 -1 303. 847. 954. <
3328 4 -3 5 4 0 416711. 368251. 1304. o
3328 3 -3 -5 -4 0 416711. 368251. 1304. o
3328 2 3 -5 -4 0 416711. 368251. 1304. o
3328 1 3 5 4 0 416711. 368251. 1304. o
3329 3 -3 -5 -4 -1 296. 524. 951. <
3329 1 3 5 4 1 296. 524. 951. <
3330 3 -4 -5 -4 1 251. 272. 198. <
3330 1 4 5 4 -1 251. 272. 198. <
3331 3 4 5 -4 -1 254. 264. 43. o
3331 1 -4 -5 4 1 254. 264. 43. o
3332 4 -4 5 4 0 20646. 22628. 198. o
3332 3 -4 -5 -4 0 20646. 22628. 198. o
3332 2 4 -5 -4 0 20646. 22628. 198. o
3332 1 4 5 4 0 20646. 22628. 198. o
3333 3 -4 -5 -4 -1 721. 612. 198. o
3333 1 4 5 4 1 721. 612. 198. o
3334 3 -5 -5 -4 1 35. 1531. 1159. <
3334 1 5 5 4 -1 35. 1531. 1159. <
3335 4 -5 5 4 0 209306. 223858. 1158. o
3335 3 -5 -5 -4 0 209306. 223858. 1158. o
3335 2 5 -5 -4 0 209306. 223858. 1158. o
3335 1 5 5 4 0 209306. 223858. 1158. o
3336 3 -5 -5 -4 -1 195. 741. 1159. <
3336 1 5 5 4 1 195. 741. 1159. <
3337 3 -6 -5 -4 1 400. 421. 144. o
3337 1 6 5 4 -1 400. 421. 144. o
3338 4 -6 5 4 0 6201. 7438. 144. o
3338 3 -6 -5 -4 0 6201. 7438. 144. o
3338 2 6 -5 -4 0 6201. 7438. 144. o
3338 1 6 5 4 0 6201. 7438. 144. o
3339 3 -6 -5 -4 -1 143. 176. 144. <
3339 1 6 5 4 1 143. 176. 144. <
3340 3 8 5 -4 -1 275. 146. 214. <
3340 1 -8 -5 4 1 275. 146. 214. <
3341 4 8 -5 4 0 11084. 11571. 216. o
3341 3 8 5 -4 0 11084. 11571. 216. o
3341 2 -8 5 -4 0 11084. 11571. 216. o
3341 1 -8 -5 4 0 11084. 11571. 216. o
3342 3 8 5 -4 1 630. 614. 217. o
3342 1 -8 -5 4 -1 630. 614. 217. o
3343 3 9 5 -4 -1 1144. 926. 342. o
3343 1 -9 -5 4 1 1144. 926. 342. o
3344 4 9 -5 4 0 37135. 38540. 344. o
3344 3 9 5 -4 0 37135. 38540. 344. o
3344 2 -9 5 -4 0 37135. 38540. 344. o
3344 1 -9 -5 4 0 37135. 38540. 344. o
3345 3 9 5 -4 1 109. 228. 346. <
3345 1 -9 -5 4 -1 109. 228. 346. <
3346 3 10 5 -4 -1 90. 126. 313. <
3346 1 -10 -5 4 1 90. 126. 313. <
3347 4 10 -5 4 0 26275. 27493. 315. o
3347 3 10 5 -4 0 26275. 27493. 315. o
3347 2 -10 5 -4 0 26275. 27493. 315. o
3347 1 -10 -5 4 0 26275. 27493. 315. o
3348 3 10 5 -4 1 45. 193. 316. <
3348 1 -10 -5 4 -1 45. 193. 316. <
3349 3 11 5 -4 -1 112. 500. 414. <
3349 1 -11 -5 4 1 112. 500. 414. <
3350 4 11 -5 4 0 49450. 49191. 417. o
3350 3 11 5 -4 0 49450. 49191. 417. o
3350 2 -11 5 -4 0 49450. 49191. 417. o
3350 1 -11 -5 4 0 49450. 49191. 417. o
3351 3 11 5 -4 1 197. 639. 420. <
3351 1 -11 -5 4 -1 197. 639. 420. <
3352 3 12 -6 -4 -1 870. 733. 95. o
3352 1 -12 6 4 1 870. 733. 95. o
3353 3 11 -6 -4 1 434. 227. 152. <
3353 1 -11 6 4 -1 434. 227. 152. <
3354 4 11 6 4 0 706. 761. 154. o
3354 3 11 -6 -4 0 706. 761. 154. o
3354 2 -11 -6 -4 0 706. 761. 154. o
3354 1 -11 6 4 0 706. 761. 154. o
3355 3 11 -6 -4 -1 170. 24. 157. <
3355 1 -11 6 4 1 170. 24. 157. <
3356 3 10 -6 -4 1 196. 205. 173. <
3356 1 -10 6 4 -1 196. 205. 173. <
3357 4 10 6 4 0 4533. 4532. 177. o
3357 3 10 -6 -4 0 4533. 4532. 177. o
3357 2 -10 -6 -4 0 4533. 4532. 177. o
3357 1 -10 6 4 0 4533. 4532. 177. o
3358 3 10 -6 -4 -1 102. 48. 180. <
3358 1 -10 6 4 1 102. 48. 180. <
3359 3 9 -6 -4 1 998. 979. 180. o
3359 1 -9 6 4 -1 998. 979. 180. o
3360 4 9 6 4 0 13156. 12810. 195. o
3360 3 9 -6 -4 0 13156. 12810. 195. o
3360 2 -9 -6 -4 0 13156. 12810. 195. o
3360 1 -9 6 4 0 13156. 12810. 195. o
3361 3 9 -6 -4 -1 981. 887. 167. o
3361 1 -9 6 4 1 981. 887. 167. o
3362 3 8 -6 -4 1 1093. 1287. 285. o
3362 1 -8 6 4 -1 1093. 1287. 285. o
3363 4 8 6 4 0 81545. 79283. 361. o
3363 3 8 -6 -4 0 81545. 79283. 361. o
3363 2 -8 -6 -4 0 81545. 79283. 361. o
3363 1 -8 6 4 0 81545. 79283. 361. o
3364 3 8 -6 -4 -1 1022. 1251. 264. o
3364 1 -8 6 4 1 1022. 1251. 264. o
3365 3 7 -6 -4 1 487. 339. 238. <
3365 1 -7 6 4 -1 487. 339. 238. <
3366 4 7 6 4 0 73394. 70782. 319. o
3366 3 7 -6 -4 0 73394. 70782. 319. o
3366 2 -7 -6 -4 0 73394. 70782. 319. o
3366 1 -7 6 4 0 73394. 70782. 319. o
3367 3 7 -6 -4 -1 122. 13. 225. <
3367 1 -7 6 4 1 122. 13. 225. <
3368 3 6 -6 -4 1 494. 328. 189. <
3368 1 -6 6 4 -1 494. 328. 189. <
3369 4 6 6 4 0 52895. 48138. 256. o
3369 3 6 -6 -4 0 52895. 48138. 256. o
3369 2 -6 -6 -4 0 52895. 48138. 256. o
3369 1 -6 6 4 0 52895. 48138. 256. o
3370 3 6 -6 -4 -1 396. 406. 184. o
3370 1 -6 6 4 1 396. 406. 184. o
3371 3 5 -6 -4 1 62. 48. 101. <
3371 1 -5 6 4 -1 62. 48. 101. <
3372 4 5 6 4 0 5699. 5043. 116. o
3372 3 5 -6 -4 0 5699. 5043. 116. o
3372 2 -5 -6 -4 0 5699. 5043. 116. o
3372 1 -5 6 4 0 5699. 5043. 116. o
3373 3 5 -6 -4 -1 21. 35. 100. <
3373 1 -5 6 4 1 21. 35. 100. <
3374 3 4 -6 -4 1 403. 400. 105. o
3374 1 -4 6 4 -1 403. 400. 105. o
3375 4 4 6 4 0 6502. 5755. 118. o
3375 3 4 -6 -4 0 6502. 5755. 118. o
3375 2 -4 -6 -4 0 6502. 5755. 118. o
3375 1 -4 6 4 0 6502. 5755. 118. o
3376 3 4 -6 -4 -1 757. 667. 105. o
3376 1 -4 6 4 1 757. 667. 105. o
3377 3 3 -6 -4 1 758. 899. 73. o
3377 1 -3 6 4 -1 758. 899. 73. o
3378 4 3 6 4 0 1433. 1538. 77. o
3378 3 3 -6 -4 0 1433. 1538. 77. o
3378 2 -3 -6 -4 0 1433. 1538. 77. o
3378 1 -3 6 4 0 1433. 1538. 77. o
3379 3 3 -6 -4 -1 477. 454. 73. o
3379 1 -3 6 4 1 477. 454. 73. o
3380 3 2 -6 -4 1 24. 53. 33. <
3380 1 -2 6 4 -1 24. 53. 33. <
3381 4 2 6 4 0 77331. 78670. 273. o
3381 3 2 -6 -4 0 77331. 78670. 273. o
3381 2 -2 -6 -4 0 77331. 78670. 273. o
3381 1 -2 6 4 0 77331. 78670. 273. o
3382 3 2 -6 -4 -1 94. 148. 35. o
3382 1 -2 6 4 1 94. 148. 35. o
3383 3 1 -6 -4 1 708. 757. 97. o
3383 1 -1 6 4 -1 708. 757. 97. o
3384 4 1 6 4 0 26732. 23840. 135. o
3384 3 1 -6 -4 0 26732. 23840. 135. o
3384 2 -1 -6 -4 0 26732. 23840. 135. o
3384 1 -1 6 4 0 26732. 23840. 135. o
3385 3 1 -6 -4 -1 447. 413. 94. o
3385 1 -1 6 4 1 447. 413. 94. o
3386 3 0 -6 -4 1 40. 80. 50. <
3386 1 0 6 4 -1 40. 80. 50. <
3387 4 0 6 4 0 65779. 66467. 390. o
3387 3 0 -6 -4 0 65779. 66467. 390. o
3387 2 0 -6 -4 0 65779. 66467. 390. o
3387 1 0 6 4 0 65779. 66467. 390. o
3388 3 0 -6 -4 -1 419. 426. 66. o
3388 1 0 6 4 1 419. 426. 66. o
3389 3 -1 -6 -4 1 346. 350. 131. o
3389 1 1 6 4 -1 346. 350. 131. o
3390 4 -1 6 4 0 26509. 26864. 177. o
3390 3 -1 -6 -4 0 26509. 26864. 177. o
3390 2 1 -6 -4 0 26509. 26864. 177. o
3390 1 1 6 4 0 26509. 26864. 177. o
3391 3 -1 -6 -4 -1 307. 271. 129. o
3391 1 1 6 4 1 307. 271. 129. o
3392 3 -2 -6 -4 1 67. 109. 190. <
3392 1 2 6 4 -1 67. 109. 190. <
3393 4 -2 6 4 0 77104. 70473. 257. o
3393 3 -2 -6 -4 0 77104. 70473. 257. o
3393 2 2 -6 -4 0 77104. 70473. 257. o
3393 1 2 6 4 0 77104. 70473. 257. o
3394 3 -2 -6 -4 -1 282. 192. 188. <
3394 1 2 6 4 1 282. 192. 188. <
3395 3 -3 -6 -4 1 70. 38. 65. <
3395 1 3 6 4 -1 70. 38. 65. <
3396 4 -3 6 4 0 1370. 1595. 83. o
3396 3 -3 -6 -4 0 1370. 1595. 83. o
3396 2 3 -6 -4 0 1370. 1595. 83. o
3396 1 3 6 4 0 1370. 1595. 83. o
3397 3 -3 -6 -4 -1 1. -9. 83. <
3397 1 3 6 4 1 1. -9. 83. <
3398 3 -4 -6 -4 1 5. 31. 78. <
3398 1 4 6 4 -1 5. 31. 78. <
3399 4 -4 6 4 0 6305. 6451. 99. o
3399 3 -4 -6 -4 0 6305. 6451. 99. o
3399 2 4 -6 -4 0 6305. 6451. 99. o
3399 1 4 6 4 0 6305. 6451. 99. o
3400 3 -4 -6 -4 -1 16. 32. 78. <
3400 1 4 6 4 1 16. 32. 78. <
3401 3 -5 -6 -4 1 502. 371. 145. o
3401 1 5 6 4 -1 502. 371. 145. o
3402 4 -5 6 4 0 5973. 6913. 145. o
3402 3 -5 -6 -4 0 5973. 6913. 145. o
3402 2 5 -6 -4 0 5973. 6913. 145. o
3402 1 5 6 4 0 5973. 6913. 145. o
3403 3 -5 -6 -4 -1 199. 185. 145. <
3403 1 5 6 4 1 199. 185. 145. <
3404 3 12 6 -4 -1 214. 99. 78. <
3404 1 -12 -6 4 1 214. 99. 78. <
3405 3 11 -7 -4 1 805. 986. 395. o
3405 1 -11 7 4 -1 805. 986. 395. o
3406 4 11 7 4 0 55304. 57580. 396. o
3406 3 11 -7 -4 0 55304. 57580. 396. o
3406 2 -11 -7 -4 0 55304. 57580. 396. o
3406 1 -11 7 4 0 55304. 57580. 396. o
3407 3 11 -7 -4 -1 472. 1440. 382. o
3407 1 -11 7 4 1 472. 1440. 382. o
3408 3 10 -7 -4 1 197. 1046. 357. o
3408 1 -10 7 4 -1 197. 1046. 357. o
3409 4 10 7 4 0 53995. 51793. 352. o
3409 3 10 -7 -4 0 53995. 51793. 352. o
3409 2 -10 -7 -4 0 53995. 51793. 352. o
3409 1 -10 7 4 0 53995. 51793. 352. o
3410 3 10 -7 -4 -1 815. 1171. 345. o
3410 1 -10 7 4 1 815. 1171. 345. o
3411 3 9 -7 -4 1 156. 63. 149. <
3411 1 -9 7 4 -1 156. 63. 149. <
3412 4 9 7 4 0 1193. 1595. 146. o
3412 3 9 -7 -4 0 1193. 1595. 146. o
3412 2 -9 -7 -4 0 1193. 1595. 146. o
3412 1 -9 7 4 0 1193. 1595. 146. o
3413 3 9 -7 -4 -1 184. 73. 143. <
3413 1 -9 7 4 1 184. 73. 143. <
3414 3 8 -7 -4 1 779. 697. 134. o
3414 1 -8 7 4 -1 779. 697. 134. o
3415 4 8 7 4 0 6220. 6088. 146. o
3415 3 8 -7 -4 0 6220. 6088. 146. o
3415 2 -8 -7 -4 0 6220. 6088. 146. o
3415 1 -8 7 4 0 6220. 6088. 146. o
3416 3 8 -7 -4 -1 308. 320. 124. o
3416 1 -8 7 4 1 308. 320. 124. o
3417 3 7 -7 -4 1 710. 699. 127. o
3417 1 -7 7 4 -1 710. 699. 127. o
3418 4 7 7 4 0 7022. 6665. 140. o
3418 3 7 -7 -4 0 7022. 6665. 140. o
3418 2 -7 -7 -4 0 7022. 6665. 140. o
3418 1 -7 7 4 0 7022. 6665. 140. o
3419 3 7 -7 -4 -1 722. 654. 123. o
3419 1 -7 7 4 1 722. 654. 123. o
3420 3 6 -7 -4 1 188. 75. 218. <
3420 1 -6 7 4 -1 188. 75. 218. <
3421 4 6 7 4 0 71061. 67391. 309. o
3421 3 6 -7 -4 0 71061. 67391. 309. o
3421 2 -6 -7 -4 0 71061. 67391. 309. o
3421 1 -6 7 4 0 71061. 67391. 309. o
3422 3 6 -7 -4 -1 403. 453. 214. o
3422 1 -6 7 4 1 403. 453. 214. o
3423 3 5 -7 -4 1 238. 88. 151. <
3423 1 -5 7 4 -1 238. 88. 151. <
3424 4 5 7 4 0 31344. 29780. 208. o
3424 3 5 -7 -4 0 31344. 29780. 208. o
3424 2 -5 -7 -4 0 31344. 29780. 208. o
3424 1 -5 7 4 0 31344. 29780. 208. o
3425 3 5 -7 -4 -1 309. 76. 149. <
3425 1 -5 7 4 1 309. 76. 149. <
3426 3 4 -7 -4 1 548. 582. 451. <
3426 1 -4 7 4 -1 548. 582. 451. <
3427 4 4 7 4 0 235186. 208318. 912. o
3427 3 4 -7 -4 0 235186. 208318. 912. o
3427 2 -4 -7 -4 0 235186. 208318. 912. o
3427 1 -4 7 4 0 235186. 208318. 912. o
3428 3 4 -7 -4 -1 293. 492. 448. <
3428 1 -4 7 4 1 293. 492. 448. <
3429 3 3 -7 -4 1 847. 854. 93. o
3429 1 -3 7 4 -1 847. 854. 93. o
3430 4 3 7 4 0 11403. 12564. 126. o
3430 3 3 -7 -4 0 11403. 12564. 126. o
3430 2 -3 -7 -4 0 11403. 12564. 126. o
3430 1 -3 7 4 0 11403. 12564. 126. o
3431 3 3 -7 -4 -1 535. 601. 85. o
3431 1 -3 7 4 1 535. 601. 85. o
3432 3 2 -7 -4 1 204. 209. 145. <
3432 1 -2 7 4 -1 204. 209. 145. <
3433 4 2 7 4 0 46904. 46668. 207. o
3433 3 2 -7 -4 0 46904. 46668. 207. o
3433 2 -2 -7 -4 0 46904. 46668. 207. o
3433 1 -2 7 4 0 46904. 46668. 207. o
3434 3 2 -7 -4 -1 599. 661. 147. o
3434 1 -2 7 4 1 599. 661. 147. o
3435 3 1 -7 -4 1 107. 110. 106. <
3435 1 -1 7 4 -1 107. 110. 106. <
3436 4 1 7 4 0 24786. 23842. 149. o
3436 3 1 -7 -4 0 24786. 23842. 149. o
3436 2 -1 -7 -4 0 24786. 23842. 149. o
3436 1 -1 7 4 0 24786. 23842. 149. o
3437 3 1 -7 -4 -1 477. 546. 106. o
3437 1 -1 7 4 1 477. 546. 106. o
3438 3 0 -7 -4 1 289. 264. 54. o
3438 1 0 7 4 -1 289. 264. 54. o
3439 4 0 7 4 0 603. 615. 60. o
3439 3 0 -7 -4 0 603. 615. 60. o
3439 2 0 -7 -4 0 603. 615. 60. o
3439 1 0 7 4 0 603. 615. 60. o
3440 3 0 -7 -4 -1 108. 145. 53. o
3440 1 0 7 4 1 108. 145. 53. o
3441 3 -1 -7 -4 1 564. 476. 138. o
3441 1 1 7 4 -1 564. 476. 138. o
3442 4 -1 7 4 0 24868. 23825. 177. o
3442 3 -1 -7 -4 0 24868. 23825. 177. o
3442 2 1 -7 -4 0 24868. 23825. 177. o
3442 1 1 7 4 0 24868. 23825. 177. o
3443 3 -1 -7 -4 -1 66. 27. 134. <
3443 1 1 7 4 1 66. 27. 134. <
3444 3 -2 -7 -4 1 244. 323. 169. <
3444 1 2 7 4 -1 244. 323. 169. <
3445 4 -2 7 4 0 47836. 45368. 222. o
3445 3 -2 -7 -4 0 47836. 45368. 222. o
3445 2 2 -7 -4 0 47836. 45368. 222. o
3445 1 2 7 4 0 47836. 45368. 222. o
3446 3 -2 -7 -4 -1 2. 39. 168. <
3446 1 2 7 4 1 2. 39. 168. <
3447 3 -3 -7 -4 1 388. 265. 136. <
3447 1 3 7 4 -1 388. 265. 136. <
3448 4 -3 7 4 0 11444. 10960. 136. o
3448 3 -3 -7 -4 0 11444. 10960. 136. o
3448 2 3 -7 -4 0 11444. 10960. 136. o
3448 1 3 7 4 0 11444. 10960. 136. o
3449 3 -3 -7 -4 -1 184. 153. 135. <
3449 1 3 7 4 1 184. 153. 135. <
3450 3 -4 -7 -4 1 464. 1725. 1382. <
3450 1 4 7 4 -1 464. 1725. 1382. <
3451 4 -4 7 4 0 239206. 237345. 900. o
3451 3 -4 -7 -4 0 239206. 237345. 900. o
3451 2 4 -7 -4 0 239206. 237345. 900. o
3451 1 4 7 4 0 239206. 237345. 900. o
3452 3 -4 -7 -4 -1 70. 938. 1385. <
3452 1 4 7 4 1 70. 938. 1385. <
3453 3 -5 -7 -4 1 222. 260. 70. o
3453 1 5 7 4 -1 222. 260. 70. o
3454 4 -5 7 4 0 31975. 31389. 313. o
3454 3 -5 -7 -4 0 31975. 31389. 313. o
3454 2 5 -7 -4 0 31975. 31389. 313. o
3454 1 5 7 4 0 31975. 31389. 313. o
3455 3 -5 -7 -4 -1 512. 559. 80. o
3455 1 5 7 4 1 512. 559. 80. o
3456 3 10 -8 -4 1 419. 1609. 386. o
3456 1 -10 8 4 -1 419. 1609. 386. o
3457 4 10 8 4 0 64988. 64474. 381. o
3457 3 10 -8 -4 0 64988. 64474. 381. o
3457 2 -10 -8 -4 0 64988. 64474. 381. o
3457 1 -10 8 4 0 64988. 64474. 381. o
3458 3 10 -8 -4 -1 195. 354. 378. <
3458 1 -10 8 4 1 195. 354. 378. <
3459 3 9 -8 -4 1 251. 180. 137. <
3459 1 -9 8 4 -1 251. 180. 137. <
3460 4 9 8 4 0 633. 572. 135. o
3460 3 9 -8 -4 0 633. 572. 135. o
3460 2 -9 -8 -4 0 633. 572. 135. o
3460 1 -9 8 4 0 633. 572. 135. o
3461 3 9 -8 -4 -1 136. 55. 134. <
3461 1 -9 8 4 1 136. 55. 134. <
3462 3 8 -8 -4 1 888. 1498. 462. o
3462 1 -8 8 4 -1 888. 1498. 462. o
3463 4 8 8 4 0 124830. 118672. 459. o
3463 3 8 -8 -4 0 124830. 118672. 459. o
3463 2 -8 -8 -4 0 124830. 118672. 459. o
3463 1 -8 8 4 0 124830. 118672. 459. o
3464 3 8 -8 -4 -1 305. 734. 457. <
3464 1 -8 8 4 1 305. 734. 457. <
3465 3 7 -8 -4 1 415. 364. 158. o
3465 1 -7 8 4 -1 415. 364. 158. o
3466 4 7 8 4 0 6420. 6252. 157. o
3466 3 7 -8 -4 0 6420. 6252. 157. o
3466 2 -7 -8 -4 0 6420. 6252. 157. o
3466 1 -7 8 4 0 6420. 6252. 157. o
3467 3 7 -8 -4 -1 630. 315. 157. o
3467 1 -7 8 4 1 630. 315. 157. o
3468 3 6 -8 -4 1 1038. 1247. 333. o
3468 1 -6 8 4 -1 1038. 1247. 333. o
3469 4 6 8 4 0 74288. 68906. 333. o
3469 3 6 -8 -4 0 74288. 68906. 333. o
3469 2 -6 -8 -4 0 74288. 68906. 333. o
3469 1 -6 8 4 0 74288. 68906. 333. o
3470 3 6 -8 -4 -1 1042. 574. 334. <
3470 1 -6 8 4 1 1042. 574. 334. <
3471 3 5 -8 -4 1 2004. 2253. 206. o
3471 1 -5 8 4 -1 2004. 2253. 206. o
3472 4 5 8 4 0 8190. 8456. 209. o
3472 3 5 -8 -4 0 8190. 8456. 209. o
3472 2 -5 -8 -4 0 8190. 8456. 209. o
3472 1 -5 8 4 0 8190. 8456. 209. o
3473 3 5 -8 -4 -1 1018. 1089. 98. o
3473 1 -5 8 4 1 1018. 1089. 98. o
3474 3 4 -8 -4 1 77. -9. 55. <
3474 1 -4 8 4 -1 77. -9. 55. <
3475 4 4 8 4 0 6164. 6103. 149. o
3475 3 4 -8 -4 0 6164. 6103. 149. o
3475 2 -4 -8 -4 0 6164. 6103. 149. o
3475 1 -4 8 4 0 6164. 6103. 149. o
3476 3 4 -8 -4 -1 103. 96. 63. <
3476 1 -4 8 4 1 103. 96. 63. <
3477 3 3 -8 -4 1 90. 91. 53. <
3477 1 -3 8 4 -1 90. 91. 53. <
3478 4 3 8 4 0 13962. 14666. 215. o
3478 3 3 -8 -4 0 13962. 14666. 215. o
3478 2 -3 -8 -4 0 13962. 14666. 215. o
3478 1 -3 8 4 0 13962. 14666. 215. o
3479 3 3 -8 -4 -1 300. 259. 71. o
3479 1 -3 8 4 1 300. 259. 71. o
3480 3 2 -8 -4 1 468. 546. 49. o
3480 1 -2 8 4 -1 468. 546. 49. o
3481 4 2 8 4 0 106911. 102152. 361. o
3481 3 2 -8 -4 0 106911. 102152. 361. o
3481 2 -2 -8 -4 0 106911. 102152. 361. o
3481 1 -2 8 4 0 106911. 102152. 361. o
3482 3 2 -8 -4 -1 649. 748. 57. o
3482 1 -2 8 4 1 649. 748. 57. o
3483 3 1 -8 -4 1 622. 639. 51. o
3483 1 -1 8 4 -1 622. 639. 51. o
3484 4 1 8 4 0 3044. 2983. 80. o
3484 3 1 -8 -4 0 3044. 2983. 80. o
3484 2 -1 -8 -4 0 3044. 2983. 80. o
3484 1 -1 8 4 0 3044. 2983. 80. o
3485 3 1 -8 -4 -1 1365. 1413. 62. o
3485 1 -1 8 4 1 1365. 1413. 62. o
3486 3 0 -8 -4 1 1016. 1063. 617. <
3486 1 0 8 4 -1 1016. 1063. 617. <
3487 4 0 8 4 0 310748. 283585. 1028. o
3487 3 0 -8 -4 0 310748. 283585. 1028. o
3487 2 0 -8 -4 0 310748. 283585. 1028. o
3487 1 0 8 4 0 310748. 283585. 1028. o
3488 3 0 -8 -4 -1 338. 808. 607. <
3488 1 0 8 4 1 338. 808. 607. <
3489 3 -1 -8 -4 1 333. 231. 86. o
3489 1 1 8 4 -1 333. 231. 86. o
3490 4 -1 8 4 0 3091. 3005. 97. o
3490 3 -1 -8 -4 0 3091. 3005. 97. o
3490 2 1 -8 -4 0 3091. 3005. 97. o
3490 1 1 8 4 0 3091. 3005. 97. o
3491 3 -1 -8 -4 -1 93. 53. 85. <
3491 1 1 8 4 1 93. 53. 85. <
3492 3 -2 -8 -4 1 53. 407. 351. <
3492 1 2 8 4 -1 53. 407. 351. <
3493 4 -2 8 4 0 106510. 101068. 347. o
3493 3 -2 -8 -4 0 106510. 101068. 347. o
3493 2 2 -8 -4 0 106510. 101068. 347. o
3493 1 2 8 4 0 106510. 101068. 347. o
3494 3 -2 -8 -4 -1 163. 193. 344. <
3494 1 2 8 4 1 163. 193. 344. <
3495 3 -3 -8 -4 1 166. 174. 156. <
3495 1 3 8 4 -1 166. 174. 156. <
3496 4 -3 8 4 0 13842. 13621. 155. o
3496 3 -3 -8 -4 0 13842. 13621. 155. o
3496 2 3 -8 -4 0 13842. 13621. 155. o
3496 1 3 8 4 0 13842. 13621. 155. o
3497 3 -3 -8 -4 -1 119. 92. 154. <
3497 1 3 8 4 1 119. 92. 154. <
3498 3 -4 -8 -4 1 89. 98. 54. <
3498 1 4 8 4 -1 89. 98. 54. <
3499 4 -4 8 4 0 6083. 5751. 170. o
3499 3 -4 -8 -4 0 6083. 5751. 170. o
3499 2 4 -8 -4 0 6083. 5751. 170. o
3499 1 4 8 4 0 6083. 5751. 170. o
3500 3 -4 -8 -4 -1 634. 332. 169. <
3500 1 4 8 4 1 634. 332. 169. <
3501 3 -5 -8 -4 1 192. 160. 63. o
3501 1 5 8 4 -1 192. 160. 63. o
3502 4 -5 8 4 0 8384. 7609. 166. o
3502 3 -5 -8 -4 0 8384. 7609. 166. o
3502 2 5 -8 -4 0 8384. 7609. 166. o
3502 1 5 8 4 0 8384. 7609. 166. o
3503 3 -5 -8 -4 -1 795. 752. 82. o
3503 1 5 8 4 1 795. 752. 82. o
3504 3 -6 -8 -4 1 439. 288. 73. o
3504 1 6 8 4 -1 439. 288. 73. o
3505 4 -6 8 4 0 76845. 74025. 504. o
3505 3 -6 -8 -4 0 76845. 74025. 504. o
3505 2 6 -8 -4 0 76845. 74025. 504. o
3505 1 6 8 4 0 76845. 74025. 504. o
3506 3 9 -9 -4 1 170. 23. 151. <
3506 1 -9 9 4 -1 170. 23. 151. <
3507 4 9 9 4 0 1240. 1136. 150. o
3507 3 9 -9 -4 0 1240. 1136. 150. o
3507 2 -9 -9 -4 0 1240. 1136. 150. o
3507 1 -9 9 4 0 1240. 1136. 150. o
3508 3 9 -9 -4 -1 84. 6. 149. <
3508 1 -9 9 4 1 84. 6. 149. <
3509 3 8 -9 -4 1 81. 135. 142. <
3509 1 -8 9 4 -1 81. 135. 142. <
3510 4 8 9 4 0 959. 862. 142. o
3510 3 8 -9 -4 0 959. 862. 142. o
3510 2 -8 -9 -4 0 959. 862. 142. o
3510 1 -8 9 4 0 959. 862. 142. o
3511 3 8 -9 -4 -1 124. 122. 141. <
3511 1 -8 9 4 1 124. 122. 141. <
3512 3 7 -9 -4 1 156. 30. 136. <
3512 1 -7 9 4 -1 156. 30. 136. <
3513 4 7 9 4 0 1074. 1200. 136. o
3513 3 7 -9 -4 0 1074. 1200. 136. o
3513 2 -7 -9 -4 0 1074. 1200. 136. o
3513 1 -7 9 4 0 1074. 1200. 136. o
3514 3 7 -9 -4 -1 116. 40. 135. <
3514 1 -7 9 4 1 116. 40. 135. <
3515 3 6 -9 -4 1 900. 782. 267. o
3515 1 -6 9 4 -1 900. 782. 267. o
3516 4 6 9 4 0 12133. 13158. 270. o
3516 3 6 -9 -4 0 12133. 13158. 270. o
3516 2 -6 -9 -4 0 12133. 13158. 270. o
3516 1 -6 9 4 0 12133. 13158. 270. o
3517 3 6 -9 -4 -1 820. 389. 273. <
3517 1 -6 9 4 1 820. 389. 273. <
3518 3 5 -9 -4 1 819. 704. 167. o
3518 1 -5 9 4 -1 819. 704. 167. o
3519 4 5 9 4 0 32095. 31489. 235. o
3519 3 5 -9 -4 0 32095. 31489. 235. o
3519 2 -5 -9 -4 0 32095. 31489. 235. o
3519 1 -5 9 4 0 32095. 31489. 235. o
3520 3 5 -9 -4 -1 25. 81. 159. <
3520 1 -5 9 4 1 25. 81. 159. <
3521 3 4 -9 -4 1 625. 620. 83. o
3521 1 -4 9 4 -1 625. 620. 83. o
3522 4 4 9 4 0 86044. 92693. 554. o
3522 3 4 -9 -4 0 86044. 92693. 554. o
3522 2 -4 -9 -4 0 86044. 92693. 554. o
3522 1 -4 9 4 0 86044. 92693. 554. o
3523 3 4 -9 -4 -1 197. 264. 564. <
3523 1 -4 9 4 1 197. 264. 564. <
3524 3 3 -9 -4 1 98. 7. 181. <
3524 1 -3 9 4 -1 98. 7. 181. <
3525 4 3 9 4 0 880. 1218. 185. o
3525 3 3 -9 -4 0 880. 1218. 185. o
3525 2 -3 -9 -4 0 880. 1218. 185. o
3525 1 -3 9 4 0 880. 1218. 185. o
3526 3 3 -9 -4 -1 171. 168. 189. <
3526 1 -3 9 4 1 171. 168. 189. <
3527 3 2 -9 -4 1 210. 379. 246. <
3527 1 -2 9 4 -1 210. 379. 246. <
3528 4 2 9 4 0 59881. 60882. 302. o
3528 3 2 -9 -4 0 59881. 60882. 302. o
3528 2 -2 -9 -4 0 59881. 60882. 302. o
3528 1 -2 9 4 0 59881. 60882. 302. o
3529 3 2 -9 -4 -1 939. 1128. 67. o
3529 1 -2 9 4 1 939. 1128. 67. o
3530 3 1 -9 -4 1 73. 74. 78. <
3530 1 -1 9 4 -1 73. 74. 78. <
3531 4 1 9 4 0 9799. 9244. 108. o
3531 3 1 -9 -4 0 9799. 9244. 108. o
3531 2 -1 -9 -4 0 9799. 9244. 108. o
3531 1 -1 9 4 0 9799. 9244. 108. o
3532 3 1 -9 -4 -1 64. 119. 77. <
3532 1 -1 9 4 1 64. 119. 77. <
3533 3 0 -9 -4 1 207. 242. 73. o
3533 1 0 9 4 -1 207. 242. 73. o
3534 4 0 9 4 0 168. 353. 72. o
3534 3 0 -9 -4 0 168. 353. 72. o
3534 2 0 -9 -4 0 168. 353. 72. o
3534 1 0 9 4 0 168. 353. 72. o
3535 3 0 -9 -4 -1 74. 80. 64. <
3535 1 0 9 4 1 74. 80. 64. <
3536 3 -1 -9 -4 1 246. 161. 88. <
3536 1 1 9 4 -1 246. 161. 88. <
3537 4 -1 9 4 0 10108. 9843. 119. o
3537 3 -1 -9 -4 0 10108. 9843. 119. o
3537 2 1 -9 -4 0 10108. 9843. 119. o
3537 1 1 9 4 0 10108. 9843. 119. o
3538 3 -1 -9 -4 -1 171. 281. 104. o
3538 1 1 9 4 1 171. 281. 104. o
3539 3 -2 -9 -4 1 448. 364. 296. <
3539 1 2 9 4 -1 448. 364. 296. <
3540 4 -2 9 4 0 61639. 61470. 294. o
3540 3 -2 -9 -4 0 61639. 61470. 294. o
3540 2 2 -9 -4 0 61639. 61470. 294. o
3540 1 2 9 4 0 61639. 61470. 294. o
3541 3 -2 -9 -4 -1 991. 964. 292. o
3541 1 2 9 4 1 991. 964. 292. o
3542 3 -3 -9 -4 1 118. 23. 155. <
3542 1 3 9 4 -1 118. 23. 155. <
3543 4 -3 9 4 0 878. 887. 153. o
3543 3 -3 -9 -4 0 878. 887. 153. o
3543 2 3 -9 -4 0 878. 887. 153. o
3543 1 3 9 4 0 878. 887. 153. o
3544 3 -3 -9 -4 -1 167. 51. 151. <
3544 1 3 9 4 1 167. 51. 151. <
3545 3 -4 -9 -4 1 376. 196. 470. <
3545 1 4 9 4 -1 376. 196. 470. <
3546 4 -4 9 4 0 87912. 81371. 466. o
3546 3 -4 -9 -4 0 87912. 81371. 466. o
3546 2 4 -9 -4 0 87912. 81371. 466. o
3546 1 4 9 4 0 87912. 81371. 466. o
3547 3 -4 -9 -4 -1 167. 111. 463. <
3547 1 4 9 4 1 167. 111. 463. <
3548 3 -5 -9 -4 1 834. 982. 92. o
3548 1 5 9 4 -1 834. 982. 92. o
3549 4 -5 9 4 0 32265. 28478. 296. o
3549 3 -5 -9 -4 0 32265. 28478. 296. o
3549 2 5 -9 -4 0 32265. 28478. 296. o
3549 1 5 9 4 0 32265. 28478. 296. o
3550 3 -5 -9 -4 -1 139. 182. 63. o
3550 1 5 9 4 1 139. 182. 63. o
3551 3 -6 -9 -4 1 664. 733. 85. o
3551 1 6 9 4 -1 664. 733. 85. o
3552 4 -6 9 4 0 12541. 10587. 204. o
3552 3 -6 -9 -4 0 12541. 10587. 204. o
3552 2 6 -9 -4 0 12541. 10587. 204. o
3552 1 6 9 4 0 12541. 10587. 204. o
3553 3 -6 -9 -4 -1 557. 530. 80. o
3553 1 6 9 4 1 557. 530. 80. o
3554 3 -7 -9 -4 1 27. 32. 75. <
3554 1 7 9 4 -1 27. 32. 75. <
3555 4 -7 9 4 0 1178. 1186. 172. o
3555 3 -7 -9 -4 0 1178. 1186. 172. o
3555 2 7 -9 -4 0 1178. 1186. 172. o
3555 1 7 9 4 0 1178. 1186. 172. o
3556 3 -7 -9 -4 -1 4. 28. 170. <
3556 1 7 9 4 1 4. 28. 170. <
3557 3 8 -10 -4 1 342. 357. 364. <
3557 1 -8 10 4 -1 342. 357. 364. <
3558 4 8 10 4 0 59420. 60501. 364. o
3558 3 8 -10 -4 0 59420. 60501. 364. o
3558 2 -8 -10 -4 0 59420. 60501. 364. o
3558 1 -8 10 4 0 59420. 60501. 364. o
3559 3 8 -10 -4 -1 676. 562. 364. <
3559 1 -8 10 4 1 676. 562. 364. <
3560 3 7 -10 -4 1 721. 662. 316. o
3560 1 -7 10 4 -1 721. 662. 316. o
3561 4 7 10 4 0 47405. 46799. 317. o
3561 3 7 -10 -4 0 47405. 46799. 317. o
3561 2 -7 -10 -4 0 47405. 46799. 317. o
3561 1 -7 10 4 0 47405. 46799. 317. o
3562 3 7 -10 -4 -1 224. 267. 318. <
3562 1 -7 10 4 1 224. 267. 318. <
3563 3 6 -10 -4 1 160. 57. 149. <
3563 1 -6 10 4 -1 160. 57. 149. <
3564 4 6 10 4 0 3639. 3217. 150. o
3564 3 6 -10 -4 0 3639. 3217. 150. o
3564 2 -6 -10 -4 0 3639. 3217. 150. o
3564 1 -6 10 4 0 3639. 3217. 150. o
3565 3 6 -10 -4 -1 40. 54. 150. <
3565 1 -6 10 4 1 40. 54. 150. <
3566 3 5 -10 -4 1 893. 1272. 351. o
3566 1 -5 10 4 -1 893. 1272. 351. o
3567 4 5 10 4 0 20920. 23345. 356. o
3567 3 5 -10 -4 0 20920. 23345. 356. o
3567 2 -5 -10 -4 0 20920. 23345. 356. o
3567 1 -5 10 4 0 20920. 23345. 356. o
3568 3 5 -10 -4 -1 898. 796. 361. o
3568 1 -5 10 4 1 898. 796. 361. o
3569 3 4 -10 -4 1 45. 37. 158. <
3569 1 -4 10 4 -1 45. 37. 158. <
3570 4 4 10 4 0 6068. 5948. 159. o
3570 3 4 -10 -4 0 6068. 5948. 159. o
3570 2 -4 -10 -4 0 6068. 5948. 159. o
3570 1 -4 10 4 0 6068. 5948. 159. o
3571 3 4 -10 -4 -1 37. 39. 161. <
3571 1 -4 10 4 1 37. 39. 161. <
3572 3 3 -10 -4 1 437. 477. 160. o
3572 1 -3 10 4 -1 437. 477. 160. o
3573 4 3 10 4 0 5291. 5417. 158. o
3573 3 3 -10 -4 0 5291. 5417. 158. o
3573 2 -3 -10 -4 0 5291. 5417. 158. o
3573 1 -3 10 4 0 5291. 5417. 158. o
3574 3 3 -10 -4 -1 691. 632. 152. o
3574 1 -3 10 4 1 691. 632. 152. o
3575 3 2 -10 -4 1 556. 663. 243. o
3575 1 -2 10 4 -1 556. 663. 243. o
3576 4 2 10 4 0 10752. 10411. 158. o
3576 3 2 -10 -4 0 10752. 10411. 158. o
3576 2 -2 -10 -4 0 10752. 10411. 158. o
3576 1 -2 10 4 0 10752. 10411. 158. o
3577 3 2 -10 -4 -1 285. 238. 48. o
3577 1 -2 10 4 1 285. 238. 48. o
3578 3 1 -10 -4 1 370. 270. 174. <
3578 1 -1 10 4 -1 370. 270. 174. <
3579 4 1 10 4 0 53296. 49055. 216. o
3579 3 1 -10 -4 0 53296. 49055. 216. o
3579 2 -1 -10 -4 0 53296. 49055. 216. o
3579 1 -1 10 4 0 53296. 49055. 216. o
3580 3 1 -10 -4 -1 130. 150. 171. <
3580 1 -1 10 4 1 130. 150. 171. <
3581 3 0 -10 -4 1 282. 231. 337. <
3581 1 0 10 4 -1 282. 231. 337. <
3582 4 0 10 4 0 88875. 82564. 270. o
3582 3 0 -10 -4 0 88875. 82564. 270. o
3582 2 0 -10 -4 0 88875. 82564. 270. o
3582 1 0 10 4 0 88875. 82564. 270. o
3583 3 0 -10 -4 -1 161. 175. 267. <
3583 1 0 10 4 1 161. 175. 267. <
3584 3 -1 -10 -4 1 100. 122. 189. <
3584 1 1 10 4 -1 100. 122. 189. <
3585 4 -1 10 4 0 52949. 51279. 223. o
3585 3 -1 -10 -4 0 52949. 51279. 223. o
3585 2 1 -10 -4 0 52949. 51279. 223. o
3585 1 1 10 4 0 52949. 51279. 223. o
3586 3 -1 -10 -4 -1 43. 85. 184. <
3586 1 1 10 4 1 43. 85. 184. <
3587 3 -2 -10 -4 1 504. 627. 118. o
3587 1 2 10 4 -1 504. 627. 118. o
3588 4 -2 10 4 0 10936. 11074. 132. o
3588 3 -2 -10 -4 0 10936. 11074. 132. o
3588 2 2 -10 -4 0 10936. 11074. 132. o
3588 1 2 10 4 0 10936. 11074. 132. o
3589 3 -2 -10 -4 -1 526. 364. 114. o
3589 1 2 10 4 1 526. 364. 114. o
3590 3 -3 -10 -4 1 1113. 1230. 184. o
3590 1 3 10 4 -1 1113. 1230. 184. o
3591 4 -3 10 4 0 4925. 4536. 182. o
3591 3 -3 -10 -4 0 4925. 4536. 182. o
3591 2 3 -10 -4 0 4925. 4536. 182. o
3591 1 3 10 4 0 4925. 4536. 182. o
3592 3 -3 -10 -4 -1 384. 254. 181. <
3592 1 3 10 4 1 384. 254. 181. <
3593 3 -4 -10 -4 1 114. 96. 189. <
3593 1 4 10 4 -1 114. 96. 189. <
3594 4 -4 10 4 0 6245. 6031. 188. o
3594 3 -4 -10 -4 0 6245. 6031. 188. o
3594 2 4 -10 -4 0 6245. 6031. 188. o
3594 1 4 10 4 0 6245. 6031. 188. o
3595 3 -4 -10 -4 -1 20. -32. 186. <
3595 1 4 10 4 1 20. -32. 186. <
3596 3 -5 -10 -4 1 36. 41. 258. <
3596 1 5 10 4 -1 36. 41. 258. <
3597 4 -5 10 4 0 22003. 19705. 256. o
3597 3 -5 -10 -4 0 22003. 19705. 256. o
3597 2 5 -10 -4 0 22003. 19705. 256. o
3597 1 5 10 4 0 22003. 19705. 256. o
3598 3 -5 -10 -4 -1 4. 203. 62. o
3598 1 5 10 4 1 4. 203. 62. o
3599 3 -6 -10 -4 1 108. 110. 163. <
3599 1 6 10 4 -1 108. 110. 163. <
3600 4 -6 10 4 0 3726. 3421. 161. o
3600 3 -6 -10 -4 0 3726. 3421. 161. o
3600 2 6 -10 -4 0 3726. 3421. 161. o
3600 1 6 10 4 0 3726. 3421. 161. o
3601 3 -6 -10 -4 -1 123. 50. 62. <
3601 1 6 10 4 1 123. 50. 62. <
3602 3 -8 -10 -4 1 114. 571. 515. <
3602 1 8 10 4 -1 114. 571. 515. <
3603 4 -8 10 4 0 61761. 60371. 508. o
3603 3 -8 -10 -4 0 61761. 60371. 508. o
3603 2 8 -10 -4 0 61761. 60371. 508. o
3603 1 8 10 4 0 61761. 60371. 508. o
3604 3 -8 -10 -4 -1 1257. 920. 499. <
3604 1 8 10 4 1 1257. 920. 499. <
3605 3 -9 -10 -4 1 607. 366. 98. o
3605 1 9 10 4 -1 607. 366. 98. o
3606 3 7 -11 -4 1 476. 513. 340. <
3606 1 -7 11 4 -1 476. 513. 340. <
3607 4 7 11 4 0 47193. 48755. 340. o
3607 3 7 -11 -4 0 47193. 48755. 340. o
3607 2 -7 -11 -4 0 47193. 48755. 340. o
3607 1 -7 11 4 0 47193. 48755. 340. o
3608 3 7 -11 -4 -1 571. 303. 341. <
3608 1 -7 11 4 1 571. 303. 341. <
3609 3 6 -11 -4 1 6. -19. 228. <
3609 1 -6 11 4 -1 6. -19. 228. <
3610 4 6 11 4 0 712. 737. 230. o
3610 3 6 -11 -4 0 712. 737. 230. o
3610 2 -6 -11 -4 0 712. 737. 230. o
3610 1 -6 11 4 0 712. 737. 230. o
3611 3 6 -11 -4 -1 90. 110. 233. <
3611 1 -6 11 4 1 90. 110. 233. <
3612 3 5 -11 -4 1 355. 320. 486. <
3612 1 -5 11 4 -1 355. 320. 486. <
3613 4 5 11 4 0 38590. 46098. 494. o
3613 3 5 -11 -4 0 38590. 46098. 494. o
3613 2 -5 -11 -4 0 38590. 46098. 494. o
3613 1 -5 11 4 0 38590. 46098. 494. o
3614 3 5 -11 -4 -1 284. 600. 499. <
3614 1 -5 11 4 1 284. 600. 499. <
3615 3 4 -11 -4 1 80. 182. 173. <
3615 1 -4 11 4 -1 80. 182. 173. <
3616 4 4 11 4 0 6718. 6614. 166. o
3616 3 4 -11 -4 0 6718. 6614. 166. o
3616 2 -4 -11 -4 0 6718. 6614. 166. o
3616 1 -4 11 4 0 6718. 6614. 166. o
3617 3 4 -11 -4 -1 216. 208. 162. <
3617 1 -4 11 4 1 216. 208. 162. <
3618 3 3 -11 -4 1 918. 327. 452. <
3618 1 -3 11 4 -1 918. 327. 452. <
3619 4 3 11 4 0 126083. 119267. 440. o
3619 3 3 -11 -4 0 126083. 119267. 440. o
3619 2 -3 -11 -4 0 126083. 119267. 440. o
3619 1 -3 11 4 0 126083. 119267. 440. o
3620 3 3 -11 -4 -1 278. 330. 429. <
3620 1 -3 11 4 1 278. 330. 429. <
3621 3 2 -11 -4 1 82. 18. 92. <
3621 1 -2 11 4 -1 82. 18. 92. <
3622 4 2 11 4 0 1722. 1855. 103. o
3622 3 2 -11 -4 0 1722. 1855. 103. o
3622 2 -2 -11 -4 0 1722. 1855. 103. o
3622 1 -2 11 4 0 1722. 1855. 103. o
3623 3 2 -11 -4 -1 60. 58. 91. <
3623 1 -2 11 4 1 60. 58. 91. <
3624 3 1 -11 -4 1 292. 184. 130. <
3624 1 -1 11 4 -1 292. 184. 130. <
3625 4 1 11 4 0 12643. 11936. 128. o
3625 3 1 -11 -4 0 12643. 11936. 128. o
3625 2 -1 -11 -4 0 12643. 11936. 128. o
3625 1 -1 11 4 0 12643. 11936. 128. o
3626 3 1 -11 -4 -1 183. 108. 126. <
3626 1 -1 11 4 1 183. 108. 126. <
3627 3 0 -11 -4 1 43. 37. 87. <
3627 1 0 11 4 -1 43. 37. 87. <
3628 4 0 11 4 0 256. 218. 86. o
3628 3 0 -11 -4 0 256. 218. 86. o
3628 2 0 -11 -4 0 256. 218. 86. o
3628 1 0 11 4 0 256. 218. 86. o
3629 3 0 -11 -4 -1 90. 99. 85. <
3629 1 0 11 4 1 90. 99. 85. <
3630 3 -1 -11 -4 1 174. 121. 134. <
3630 1 1 11 4 -1 174. 121. 134. <
3631 4 -1 11 4 0 12953. 12346. 134. o
3631 3 -1 -11 -4 0 12953. 12346. 134. o
3631 2 1 -11 -4 0 12953. 12346. 134. o
3631 1 1 11 4 0 12953. 12346. 134. o
3632 3 -1 -11 -4 -1 618. 499. 132. o
3632 1 1 11 4 1 618. 499. 132. o
3633 3 -2 -11 -4 1 286. 255. 156. <
3633 1 2 11 4 -1 286. 255. 156. <
3634 4 -2 11 4 0 1630. 1569. 154. o
3634 3 -2 -11 -4 0 1630. 1569. 154. o
3634 2 2 -11 -4 0 1630. 1569. 154. o
3634 1 2 11 4 0 1630. 1569. 154. o
3635 3 -2 -11 -4 -1 390. 152. 152. <
3635 1 2 11 4 1 390. 152. 152. <
3636 3 -3 -11 -4 1 679. 310. 447. <
3636 1 3 11 4 -1 679. 310. 447. <
3637 4 -3 11 4 0 129171. 129279. 443. o
3637 3 -3 -11 -4 0 129171. 129279. 443. o
3637 2 3 -11 -4 0 129171. 129279. 443. o
3637 1 3 11 4 0 129171. 129279. 443. o
3638 3 -3 -11 -4 -1 303. 251. 561. <
3638 1 3 11 4 1 303. 251. 561. <
3639 3 -4 -11 -4 1 127. 67. 196. <
3639 1 4 11 4 -1 127. 67. 196. <
3640 4 -4 11 4 0 7184. 6434. 194. o
3640 3 -4 -11 -4 0 7184. 6434. 194. o
3640 2 4 -11 -4 0 7184. 6434. 194. o
3640 1 4 11 4 0 7184. 6434. 194. o
3641 3 -4 -11 -4 -1 364. 181. 193. <
3641 1 4 11 4 1 364. 181. 193. <
3642 3 -5 -11 -4 1 137. 192. 347. <
3642 1 5 11 4 -1 137. 192. 347. <
3643 4 -5 11 4 0 38974. 36486. 344. o
3643 3 -5 -11 -4 0 38974. 36486. 344. o
3643 2 5 -11 -4 0 38974. 36486. 344. o
3643 1 5 11 4 0 38974. 36486. 344. o
3644 3 -5 -11 -4 -1 278. 156. 341. <
3644 1 5 11 4 1 278. 156. 341. <
3645 3 -6 -11 -4 1 167. 129. 154. <
3645 1 6 11 4 -1 167. 129. 154. <
3646 4 -6 11 4 0 713. 593. 153. o
3646 3 -6 -11 -4 0 713. 593. 153. o
3646 2 6 -11 -4 0 713. 593. 153. o
3646 1 6 11 4 0 713. 593. 153. o
3647 3 -6 -11 -4 -1 15. 3. 152. <
3647 1 6 11 4 1 15. 3. 152. <
3648 3 -7 -11 -4 1 399. 383. 421. <
3648 1 7 11 4 -1 399. 383. 421. <
3649 4 -7 11 4 0 47916. 45811. 416. o
3649 3 -7 -11 -4 0 47916. 45811. 416. o
3649 2 7 -11 -4 0 47916. 45811. 416. o
3649 1 7 11 4 0 47916. 45811. 416. o
3650 3 -7 -11 -4 -1 757. 515. 413. <
3650 1 7 11 4 1 757. 515. 413. <
3651 3 -8 -11 -4 1 380. 376. 82. o
3651 1 8 11 4 -1 380. 376. 82. o
3652 3 6 -12 -4 1 789. 738. 87. o
3652 1 -6 12 4 -1 789. 738. 87. o
3653 3 5 -12 -4 1 32. 129. 208. <
3653 1 -5 12 4 -1 32. 129. 208. <
3654 4 5 12 4 0 13125. 12647. 203. o
3654 3 5 -12 -4 0 13125. 12647. 203. o
3654 2 -5 -12 -4 0 13125. 12647. 203. o
3654 1 -5 12 4 0 13125. 12647. 203. o
3655 3 5 -12 -4 -1 256. 285. 199. <
3655 1 -5 12 4 1 256. 285. 199. <
3656 3 4 -12 -4 1 194. 234. 147. <
3656 1 -4 12 4 -1 194. 234. 147. <
3657 4 4 12 4 0 3297. 3245. 143. o
3657 3 4 -12 -4 0 3297. 3245. 143. o
3657 2 -4 -12 -4 0 3297. 3245. 143. o
3657 1 -4 12 4 0 3297. 3245. 143. o
3658 3 4 -12 -4 -1 27. 40. 140. <
3658 1 -4 12 4 1 27. 40. 140. <
3659 3 3 -12 -4 1 144. 89. 139. <
3659 1 -3 12 4 -1 144. 89. 139. <
3660 4 3 12 4 0 3639. 3549. 136. o
3660 3 3 -12 -4 0 3639. 3549. 136. o
3660 2 -3 -12 -4 0 3639. 3549. 136. o
3660 1 -3 12 4 0 3639. 3549. 136. o
3661 3 3 -12 -4 -1 153. 65. 134. <
3661 1 -3 12 4 1 153. 65. 134. <
3662 3 2 -12 -4 1 24. 0. 123. <
3662 1 -2 12 4 -1 24. 0. 123. <
3663 4 2 12 4 0 1059. 1278. 121. o
3663 3 2 -12 -4 0 1059. 1278. 121. o
3663 2 -2 -12 -4 0 1059. 1278. 121. o
3663 1 -2 12 4 0 1059. 1278. 121. o
3664 3 2 -12 -4 -1 111. 109. 119. <
3664 1 -2 12 4 1 111. 109. 119. <
3665 3 1 -12 -4 1 490. 278. 375. <
3665 1 -1 12 4 -1 490. 278. 375. <
3666 4 1 12 4 0 94346. 94198. 369. o
3666 3 1 -12 -4 0 94346. 94198. 369. o
3666 2 -1 -12 -4 0 94346. 94198. 369. o
3666 1 -1 12 4 0 94346. 94198. 369. o
3667 3 1 -12 -4 -1 254. 478. 364. <
3667 1 -1 12 4 1 254. 478. 364. <
3668 3 0 -12 -4 1 628. 815. 107. o
3668 1 0 12 4 -1 628. 815. 107. o
3669 4 0 12 4 0 3919. 3871. 106. o
3669 3 0 -12 -4 0 3919. 3871. 106. o
3669 2 0 -12 -4 0 3919. 3871. 106. o
3669 1 0 12 4 0 3919. 3871. 106. o
3670 3 0 -12 -4 -1 714. 769. 105. o
3670 1 0 12 4 1 714. 769. 105. o
3671 3 -1 -12 -4 1 850. 656. 523. <
3671 1 1 12 4 -1 850. 656. 523. <
3672 4 -1 12 4 0 94060. 99398. 520. o
3672 3 -1 -12 -4 0 94060. 99398. 520. o
3672 2 1 -12 -4 0 94060. 99398. 520. o
3672 1 1 12 4 0 94060. 99398. 520. o
3673 3 -1 -12 -4 -1 1096. 522. 517. <
3673 1 1 12 4 1 1096. 522. 517. <
3674 3 -2 -12 -4 1 570. 552. 114. o
3674 1 2 12 4 -1 570. 552. 114. o
3675 4 -2 12 4 0 1069. 1299. 113. o
3675 3 -2 -12 -4 0 1069. 1299. 113. o
3675 2 2 -12 -4 0 1069. 1299. 113. o
3675 1 2 12 4 0 1069. 1299. 113. o
3676 3 -2 -12 -4 -1 60. 82. 112. <
3676 1 2 12 4 1 60. 82. 112. <
3677 3 -3 -12 -4 1 85. 1. 200. <
3677 1 3 12 4 -1 85. 1. 200. <
3678 4 -3 12 4 0 3591. 4224. 199. o
3678 3 -3 -12 -4 0 3591. 4224. 199. o
3678 2 3 -12 -4 0 3591. 4224. 199. o
3678 1 3 12 4 0 3591. 4224. 199. o
3679 3 -3 -12 -4 -1 174. 158. 197. <
3679 1 3 12 4 1 174. 158. 197. <
3680 3 -4 -12 -4 1 51. 82. 147. <
3680 1 4 12 4 -1 51. 82. 147. <
3681 4 -4 12 4 0 3540. 3455. 146. o
3681 3 -4 -12 -4 0 3540. 3455. 146. o
3681 2 4 -12 -4 0 3540. 3455. 146. o
3681 1 4 12 4 0 3540. 3455. 146. o
3682 3 -4 -12 -4 -1 16. 17. 144. <
3682 1 4 12 4 1 16. 17. 144. <
3683 3 -5 -12 -4 1 585. 391. 241. <
3683 1 5 12 4 -1 585. 391. 241. <
3684 4 -5 12 4 0 14012. 13331. 239. o
3684 3 -5 -12 -4 0 14012. 13331. 239. o
3684 2 5 -12 -4 0 14012. 13331. 239. o
3684 1 5 12 4 0 14012. 13331. 239. o
3685 3 -5 -12 -4 -1 29. 94. 237. <
3685 1 5 12 4 1 29. 94. 237. <
3686 3 -6 -12 -4 1 66. 188. 65. o
3686 1 6 12 4 -1 66. 188. 65. o
3687 3 3 -13 -4 1 51. 152. 318. <
3687 1 -3 13 4 -1 51. 152. 318. <
3688 4 3 13 4 0 27590. 29782. 316. o
3688 3 3 -13 -4 0 27590. 29782. 316. o
3688 2 -3 -13 -4 0 27590. 29782. 316. o
3688 1 -3 13 4 0 27590. 29782. 316. o
3689 3 2 -13 -4 1 935. 596. 286. o
3689 1 -2 13 4 -1 935. 596. 286. o
3690 4 2 13 4 0 18680. 20136. 284. o
3690 3 2 -13 -4 0 18680. 20136. 284. o
3690 2 -2 -13 -4 0 18680. 20136. 284. o
3690 1 -2 13 4 0 18680. 20136. 284. o
3691 3 2 -13 -4 -1 474. 420. 282. <
3691 1 -2 13 4 1 474. 420. 282. <
3692 3 1 -13 -4 1 307. 34. 168. <
3692 1 -1 13 4 -1 307. 34. 168. <
3693 4 1 13 4 0 10964. 11179. 166. o
3693 3 1 -13 -4 0 10964. 11179. 166. o
3693 2 -1 -13 -4 0 10964. 11179. 166. o
3693 1 -1 13 4 0 10964. 11179. 166. o
3694 3 1 -13 -4 -1 410. 80. 164. <
3694 1 -1 13 4 1 410. 80. 164. <
3695 3 -1 -13 -4 1 350. 352. 162. o
3695 1 1 13 4 -1 350. 352. 162. o
3696 4 -1 13 4 0 11096. 11358. 160. o
3696 3 -1 -13 -4 0 11096. 11358. 160. o
3696 2 1 -13 -4 0 11096. 11358. 160. o
3696 1 1 13 4 0 11096. 11358. 160. o
3697 3 -1 -13 -4 -1 165. 168. 159. <
3697 1 1 13 4 1 165. 168. 159. <
3698 3 -2 -13 -4 1 347. 413. 268. <
3698 1 2 13 4 -1 347. 413. 268. <
3699 4 -2 13 4 0 19384. 20509. 267. o
3699 3 -2 -13 -4 0 19384. 20509. 267. o
3699 2 2 -13 -4 0 19384. 20509. 267. o
3699 1 2 13 4 0 19384. 20509. 267. o
3700 3 -2 -13 -4 -1 474. 884. 95. o
3700 1 2 13 4 1 474. 884. 95. o
3701 3 -3 -13 -4 1 343. 65. 223. <
3701 1 3 13 4 -1 343. 65. 223. <
3702 4 -3 13 4 0 28071. 29199. 221. o
3702 3 -3 -13 -4 0 28071. 29199. 221. o
3702 2 3 -13 -4 0 28071. 29199. 221. o
3702 1 3 13 4 0 28071. 29199. 221. o
3703 4 0 0 5 0 230. 319. 24. o
3703 3 0 0 -5 0 230. 319. 24. o
3703 2 0 0 -5 0 230. 319. 24. o
3703 1 0 0 5 0 230. 319. 24. o
3704 3 0 0 -5 -1 1. -12. 20. <
3704 1 0 0 5 1 1. -12. 20. <
3705 3 0 0 -5 1 1. 11. 19. <
3705 1 0 0 5 -1 1. 11. 19. <
3706 3 -1 0 -5 1 40. 57. 34. <
3706 1 1 0 5 -1 40. 57. 34. <
3707 3 1 0 -5 -1 41. 51. 116. <
3707 1 -1 0 5 1 41. 51. 116. <
3708 4 -1 0 5 0 40924. 43996. 227. o
3708 3 -1 0 -5 0 40924. 43996. 227. o
3708 2 1 0 -5 0 40924. 43996. 227. o
3708 1 1 0 5 0 40924. 43996. 227. o
3709 4 1 0 5 0 40892. 43547. 431. o
3709 3 1 0 -5 0 40892. 43547. 431. o
3709 2 -1 0 -5 0 40892. 43547. 431. o
3709 1 -1 0 5 0 40892. 43547. 431. o
3710 3 -1 0 -5 -1 13. 31. 35. <
3710 1 1 0 5 1 13. 31. 35. <
3711 3 1 0 -5 1 12. 12. 119. <
3711 1 -1 0 5 -1 12. 12. 119. <
3712 3 -2 0 -5 1 254. 271. 94. o
3712 1 2 0 5 -1 254. 271. 94. o
3713 3 2 0 -5 -1 253. 256. 52. o
3713 1 -2 0 5 1 253. 256. 52. o
3714 4 -2 0 5 0 1127. 1295. 94. o
3714 3 -2 0 -5 0 1127. 1295. 94. o
3714 2 2 0 -5 0 1127. 1295. 94. o
3714 1 2 0 5 0 1127. 1295. 94. o
3715 4 2 0 5 0 1121. 1187. 55. o
3715 3 2 0 -5 0 1121. 1187. 55. o
3715 2 -2 0 -5 0 1121. 1187. 55. o
3715 1 -2 0 5 0 1121. 1187. 55. o
3716 3 -2 0 -5 -1 248. 226. 93. o
3716 1 2 0 5 1 248. 226. 93. o
3717 3 2 0 -5 1 249. 209. 54. o
3717 1 -2 0 5 -1 249. 209. 54. o
3718 3 -3 0 -5 1 11. 49. 792. <
3718 1 3 0 5 -1 11. 49. 792. <
3719 3 3 0 -5 -1 10. 39. 248. <
3719 1 -3 0 5 1 10. 39. 248. <
3720 4 -3 0 5 0 110877. 113318. 788. o
3720 3 -3 0 -5 0 110877. 113318. 788. o
3720 2 3 0 -5 0 110877. 113318. 788. o
3720 1 3 0 5 0 110877. 113318. 788. o
3721 4 3 0 5 0 110912. 103708. 421. o
3721 3 3 0 -5 0 110912. 103708. 421. o
3721 2 -3 0 -5 0 110912. 103708. 421. o
3721 1 -3 0 5 0 110912. 103708. 421. o
3722 3 -3 0 -5 -1 44. 37. 785. <
3722 1 3 0 5 1 44. 37. 785. <
3723 3 3 0 -5 1 41. 32. 263. <
3723 1 -3 0 5 -1 41. 32. 263. <
3724 3 4 0 -5 -1 28. 28. 31. <
3724 1 -4 0 5 1 28. 28. 31. <
3725 4 4 0 5 0 427. 244. 37. o
3725 3 4 0 -5 0 427. 244. 37. o
3725 2 -4 0 -5 0 427. 244. 37. o
3725 1 -4 0 5 0 427. 244. 37. o
3726 3 4 0 -5 1 1. 33. 35. <
3726 1 -4 0 5 -1 1. 33. 35. <
3727 3 5 0 -5 -1 188. 238. 52. o
3727 1 -5 0 5 1 188. 238. 52. o
3728 4 5 0 5 0 251656. 248991. 845. o
3728 3 5 0 -5 0 251656. 248991. 845. o
3728 2 -5 0 -5 0 251656. 248991. 845. o
3728 1 -5 0 5 0 251656. 248991. 845. o
3729 3 5 0 -5 1 311. 364. 62. o
3729 1 -5 0 5 -1 311. 364. 62. o
3730 3 6 0 -5 -1 22. 36. 32. <
3730 1 -6 0 5 1 22. 36. 32. <
3731 4 6 0 5 0 147. 172. 36. o
3731 3 6 0 -5 0 147. 172. 36. o
3731 2 -6 0 -5 0 147. 172. 36. o
3731 1 -6 0 5 0 147. 172. 36. o
3732 3 6 0 -5 1 11. 17. 35. <
3732 1 -6 0 5 -1 11. 17. 35. <
3733 3 7 0 -5 -1 374. 418. 48. o
3733 1 -7 0 5 1 374. 418. 48. o
3734 4 7 0 5 0 729. 902. 63. o
3734 3 7 0 -5 0 729. 902. 63. o
3734 2 -7 0 -5 0 729. 902. 63. o
3734 1 -7 0 5 0 729. 902. 63. o
3735 3 7 0 -5 1 106. 110. 41. o
3735 1 -7 0 5 -1 106. 110. 41. o
3736 3 8 0 -5 -1 1093. 1228. 72. o
3736 1 -8 0 5 1 1093. 1228. 72. o
3737 4 8 0 5 0 3421. 3537. 96. o
3737 3 8 0 -5 0 3421. 3537. 96. o
3737 2 -8 0 -5 0 3421. 3537. 96. o
3737 1 -8 0 5 0 3421. 3537. 96. o
3738 3 8 0 -5 1 880. 964. 71. o
3738 1 -8 0 5 -1 880. 964. 71. o
3739 3 9 0 -5 -1 1904. 1361. 430. o
3739 1 -9 0 5 1 1904. 1361. 430. o
3740 4 9 0 5 0 90534. 88021. 432. o
3740 3 9 0 -5 0 90534. 88021. 432. o
3740 2 -9 0 -5 0 90534. 88021. 432. o
3740 1 -9 0 5 0 90534. 88021. 432. o
3741 3 9 0 -5 1 118. 1452. 435. o
3741 1 -9 0 5 -1 118. 1452. 435. o
3742 3 10 0 -5 -1 239. 217. 124. <
3742 1 -10 0 5 1 239. 217. 124. <
3743 4 10 0 5 0 1037. 865. 125. o
3743 3 10 0 -5 0 1037. 865. 125. o
3743 2 -10 0 -5 0 1037. 865. 125. o
3743 1 -10 0 5 0 1037. 865. 125. o
3744 3 10 0 -5 1 160. 167. 126. <
3744 1 -10 0 5 -1 160. 167. 126. <
3745 3 11 0 -5 -1 64. 266. 193. <
3745 1 -11 0 5 1 64. 266. 193. <
3746 4 11 0 5 0 8406. 8460. 194. o
3746 3 11 0 -5 0 8406. 8460. 194. o
3746 2 -11 0 -5 0 8406. 8460. 194. o
3746 1 -11 0 5 0 8406. 8460. 194. o
3747 3 11 0 -5 1 383. 449. 195. o
3747 1 -11 0 5 -1 383. 449. 195. o
3748 3 12 0 -5 -1 781. 600. 164. o
3748 1 -12 0 5 1 781. 600. 164. o
3749 4 12 0 5 0 2259. 2138. 165. o
3749 3 12 0 -5 0 2259. 2138. 165. o
3749 2 -12 0 -5 0 2259. 2138. 165. o
3749 1 -12 0 5 0 2259. 2138. 165. o
3750 3 12 0 -5 1 438. 425. 166. o
3750 1 -12 0 5 -1 438. 425. 166. o
3751 3 13 0 -5 -1 118. -18. 166. <
3751 1 -13 0 5 1 118. -18. 166. <
3752 4 13 0 5 0 3889. 3363. 167. o
3752 3 13 0 -5 0 3889. 3363. 167. o
3752 2 -13 0 -5 0 3889. 3363. 167. o
3752 1 -13 0 5 0 3889. 3363. 167. o
3753 4 13 1 5 0 43060. 41566. 379. o
3753 3 13 -1 -5 0 43060. 41566. 379. o
3753 2 -13 -1 -5 0 43060. 41566. 379. o
3753 1 -13 1 5 0 43060. 41566. 379. o
3754 3 13 -1 -5 -1 81. 458. 377. <
3754 1 -13 1 5 1 81. 458. 377. <
3755 3 12 -1 -5 1 84. 202. 151. <
3755 1 -12 1 5 -1 84. 202. 151. <
3756 4 12 1 5 0 2122. 1853. 151. o
3756 3 12 -1 -5 0 2122. 1853. 151. o
3756 2 -12 -1 -5 0 2122. 1853. 151. o
3756 1 -12 1 5 0 2122. 1853. 151. o
3757 3 12 -1 -5 -1 96. 77. 150. <
3757 1 -12 1 5 1 96. 77. 150. <
3758 3 11 -1 -5 1 1292. 1069. 183. o
3758 1 -11 1 5 -1 1292. 1069. 183. o
3759 4 11 1 5 0 6043. 6204. 183. o
3759 3 11 -1 -5 0 6043. 6204. 183. o
3759 2 -11 -1 -5 0 6043. 6204. 183. o
3759 1 -11 1 5 0 6043. 6204. 183. o
3760 3 11 -1 -5 -1 371. 352. 182. <
3760 1 -11 1 5 1 371. 352. 182. <
3761 3 10 -1 -5 1 254. 1479. 357. o
3761 1 -10 1 5 -1 254. 1479. 357. o
3762 4 10 1 5 0 52924. 50158. 356. o
3762 3 10 -1 -5 0 52924. 50158. 356. o
3762 2 -10 -1 -5 0 52924. 50158. 356. o
3762 1 -10 1 5 0 52924. 50158. 356. o
3763 3 10 -1 -5 -1 386. 1637. 356. o
3763 1 -10 1 5 1 386. 1637. 356. o
3764 3 9 -1 -5 1 62. 39. 42. <
3764 1 -9 1 5 -1 62. 39. 42. <
3765 4 9 1 5 0 5874. 6010. 124. o
3765 3 9 -1 -5 0 5874. 6010. 124. o
3765 2 -9 -1 -5 0 5874. 6010. 124. o
3765 1 -9 1 5 0 5874. 6010. 124. o
3766 3 9 -1 -5 -1 59. -25. 43. <
3766 1 -9 1 5 1 59. -25. 43. <
3767 3 8 -1 -5 1 454. 497. 55. o
3767 1 -8 1 5 -1 454. 497. 55. o
3768 4 8 1 5 0 4663. 4747. 106. o
3768 3 8 -1 -5 0 4663. 4747. 106. o
3768 2 -8 -1 -5 0 4663. 4747. 106. o
3768 1 -8 1 5 0 4663. 4747. 106. o
3769 3 8 -1 -5 -1 268. 246. 49. o
3769 1 -8 1 5 1 268. 246. 49. o
3770 3 7 -1 -5 1 549. 622. 61. o
3770 1 -7 1 5 -1 549. 622. 61. o
3771 4 7 1 5 0 22732. 24274. 198. o
3771 3 7 -1 -5 0 22732. 24274. 198. o
3771 2 -7 -1 -5 0 22732. 24274. 198. o
3771 1 -7 1 5 0 22732. 24274. 198. o
3772 3 7 -1 -5 -1 643. 704. 61. o
3772 1 -7 1 5 1 643. 704. 61. o
3773 3 6 -1 -5 1 20. 28. 99. <
3773 1 -6 1 5 -1 20. 28. 99. <
3774 4 6 1 5 0 3182. 3189. 113. o
3774 3 6 -1 -5 0 3182. 3189. 113. o
3774 2 -6 -1 -5 0 3182. 3189. 113. o
3774 1 -6 1 5 0 3182. 3189. 113. o
3775 3 6 -1 -5 -1 55. 12. 109. <
3775 1 -6 1 5 1 55. 12. 109. <
3776 3 5 -1 -5 1 414. 391. 227. <
3776 1 -5 1 5 -1 414. 391. 227. <
3777 4 5 1 5 0 50974. 49608. 255. o
3777 3 5 -1 -5 0 50974. 49608. 255. o
3777 2 -5 -1 -5 0 50974. 49608. 255. o
3777 1 -5 1 5 0 50974. 49608. 255. o
3778 3 5 -1 -5 -1 529. 535. 62. o
3778 1 -5 1 5 1 529. 535. 62. o
3779 3 4 -1 -5 1 135. 89. 84. <
3779 1 -4 1 5 -1 135. 89. 84. <
3780 4 4 1 5 0 3266. 2899. 85. o
3780 3 4 -1 -5 0 3266. 2899. 85. o
3780 2 -4 -1 -5 0 3266. 2899. 85. o
3780 1 -4 1 5 0 3266. 2899. 85. o
3781 3 4 -1 -5 -1 485. 347. 77. o
3781 1 -4 1 5 1 485. 347. 77. o
3782 3 3 -1 -5 1 63. 29. 102. <
3782 1 -3 1 5 -1 63. 29. 102. <
3783 4 3 1 5 0 19989. 19279. 120. o
3783 3 3 -1 -5 0 19989. 19279. 120. o
3783 2 -3 -1 -5 0 19989. 19279. 120. o
3783 1 -3 1 5 0 19989. 19279. 120. o
3784 3 3 -1 -5 -1 22. 25. 97. <
3784 1 -3 1 5 1 22. 25. 97. <
3785 3 2 -1 -5 1 5. -8. 143. <
3785 1 -2 1 5 -1 5. -8. 143. <
3786 4 2 1 5 0 55667. 54824. 201. o
3786 3 2 -1 -5 0 55667. 54824. 201. o
3786 2 -2 -1 -5 0 55667. 54824. 201. o
3786 1 -2 1 5 0 55667. 54824. 201. o
3787 3 2 -1 -5 -1 20. 32. 139. <
3787 1 -2 1 5 1 20. 32. 139. <
3788 3 1 -1 -5 1 61. 53. 51. <
3788 1 -1 1 5 -1 61. 53. 51. <
3789 3 -1 1 -5 -1 60. 98. 88. <
3789 1 1 -1 5 1 60. 98. 88. <
3790 4 1 1 5 0 459. 504. 52. o
3790 3 1 -1 -5 0 459. 504. 52. o
3790 2 -1 -1 -5 0 459. 504. 52. o
3790 1 -1 1 5 0 459. 504. 52. o
3791 4 -1 -1 5 0 358. 404. 88. o
3791 3 -1 1 -5 0 358. 404. 88. o
3791 2 1 1 -5 0 358. 404. 88. o
3791 1 1 -1 5 0 358. 404. 88. o
3792 3 1 -1 -5 -1 60. 58. 50. <
3792 1 -1 1 5 1 60. 58. 50. <
3793 3 -1 1 -5 1 61. 90. 89. <
3793 1 1 -1 5 -1 61. 90. 89. <
3794 3 0 -1 -5 1 47. 35. 120. <
3794 1 0 1 5 -1 47. 35. 120. <
3795 3 0 1 -5 -1 48. 51. 20. o
3795 1 0 -1 5 1 48. 51. 20. o
3796 4 0 1 5 0 40219. 41200. 162. o
3796 3 0 -1 -5 0 40219. 41200. 162. o
3796 2 0 -1 -5 0 40219. 41200. 162. o
3796 1 0 1 5 0 40219. 41200. 162. o
3797 4 0 -1 5 0 40437. 43710. 231. o
3797 3 0 1 -5 0 40437. 43710. 231. o
3797 2 0 1 -5 0 40437. 43710. 231. o
3797 1 0 -1 5 0 40437. 43710. 231. o
3798 3 0 -1 -5 -1 9. 31. 117. <
3798 1 0 1 5 1 9. 31. 117. <
3799 3 0 1 -5 1 10. 11. 19. <
3799 1 0 -1 5 -1 10. 11. 19. <
3800 3 -1 -1 -5 1 2. 11. 47. <
3800 1 1 1 5 -1 2. 11. 47. <
3801 3 1 1 -5 -1 2. -4. 19. <
3801 1 -1 -1 5 1 2. -4. 19. <
3802 4 -1 1 5 0 430. 535. 48. o
3802 3 -1 -1 -5 0 430. 535. 48. o
3802 2 1 -1 -5 0 430. 535. 48. o
3802 1 1 1 5 0 430. 535. 48. o
3803 4 1 -1 5 0 367. 510. 26. o
3803 3 1 1 -5 0 367. 510. 26. o
3803 2 -1 1 -5 0 367. 510. 26. o
3803 1 -1 -1 5 0 367. 510. 26. o
3804 3 -1 -1 -5 -1 9. 24. 47. <
3804 1 1 1 5 1 9. 24. 47. <
3805 3 1 1 -5 1 8. -2. 19. <
3805 1 -1 -1 5 -1 8. -2. 19. <
3806 3 -2 -1 -5 1 189. 324. 43. o
3806 1 2 1 5 -1 189. 324. 43. o
3807 3 2 1 -5 -1 188. 237. 24. o
3807 1 -2 -1 5 1 188. 237. 24. o
3808 4 -2 1 5 0 55485. 58649. 270. o
3808 3 -2 -1 -5 0 55485. 58649. 270. o
3808 2 2 -1 -5 0 55485. 58649. 270. o
3808 1 2 1 5 0 55485. 58649. 270. o
3809 4 2 -1 5 0 55752. 59605. 345. o
3809 3 2 1 -5 0 55752. 59605. 345. o
3809 2 -2 1 -5 0 55752. 59605. 345. o
3809 1 -2 -1 5 0 55752. 59605. 345. o
3810 3 -2 -1 -5 -1 128. 153. 22. o
3810 1 2 1 5 1 128. 153. 22. o
3811 3 2 1 -5 1 130. 160. 24. o
3811 1 -2 -1 5 -1 130. 160. 24. o
3812 3 -3 -1 -5 1 5. 26. 182. <
3812 1 3 1 5 -1 5. 26. 182. <
3813 3 3 1 -5 -1 6. -8. 22. <
3813 1 -3 -1 5 1 6. -8. 22. <
3814 4 -3 1 5 0 20003. 21332. 181. o
3814 3 -3 -1 -5 0 20003. 21332. 181. o
3814 2 3 -1 -5 0 20003. 21332. 181. o
3814 1 3 1 5 0 20003. 21332. 181. o
3815 4 3 -1 5 0 19904. 22157. 141. o
3815 3 3 1 -5 0 19904. 22157. 141. o
3815 2 -3 1 -5 0 19904. 22157. 141. o
3815 1 -3 -1 5 0 19904. 22157. 141. o
3816 3 -3 -1 -5 -1 84. 56. 91. <
3816 1 3 1 5 1 84. 56. 91. <
3817 3 3 1 -5 1 83. 90. 26. o
3817 1 -3 -1 5 -1 83. 90. 26. o
3818 3 -4 -1 -5 1 3. -6. 59. <
3818 1 4 1 5 -1 3. -6. 59. <
3819 3 4 1 -5 -1 3. 20. 25. <
3819 1 -4 -1 5 1 3. 20. 25. <
3820 4 -4 1 5 0 3296. 3396. 106. o
3820 3 -4 -1 -5 0 3296. 3396. 106. o
3820 2 4 -1 -5 0 3296. 3396. 106. o
3820 1 4 1 5 0 3296. 3396. 106. o
3821 4 4 -1 5 0 3298. 4345. 75. o
3821 3 4 1 -5 0 3298. 4345. 75. o
3821 2 -4 1 -5 0 3298. 4345. 75. o
3821 1 -4 -1 5 0 3298. 4345. 75. o
3822 3 -4 -1 -5 -1 36. 16. 106. <
3822 1 4 1 5 1 36. 16. 106. <
3823 3 4 1 -5 1 35. 47. 27. <
3823 1 -4 -1 5 -1 35. 47. 27. <
3824 3 -5 -1 -5 1 693. 500. 283. <
3824 1 5 1 5 -1 693. 500. 283. <
3825 3 5 1 -5 -1 692. 775. 50. o
3825 1 -5 -1 5 1 692. 775. 50. o
3826 4 -5 1 5 0 50494. 52712. 282. o
3826 3 -5 -1 -5 0 50494. 52712. 282. o
3826 2 5 -1 -5 0 50494. 52712. 282. o
3826 1 5 1 5 0 50494. 52712. 282. o
3827 4 5 -1 5 0 50369. 53953. 257. o
3827 3 5 1 -5 0 50369. 53953. 257. o
3827 2 -5 1 -5 0 50369. 53953. 257. o
3827 1 -5 -1 5 0 50369. 53953. 257. o
3828 3 -5 -1 -5 -1 528. 374. 282. <
3828 1 5 1 5 1 528. 374. 282. <
3829 3 5 1 -5 1 528. 595. 50. o
3829 1 -5 -1 5 -1 528. 595. 50. o
3830 3 6 1 -5 -1 160. 189. 38. o
3830 1 -6 -1 5 1 160. 189. 38. o
3831 4 6 -1 5 0 3198. 3170. 80. o
3831 3 6 1 -5 0 3198. 3170. 80. o
3831 2 -6 1 -5 0 3198. 3170. 80. o
3831 1 -6 -1 5 0 3198. 3170. 80. o
3832 3 6 1 -5 1 1007. 1044. 61. o
3832 1 -6 -1 5 -1 1007. 1044. 61. o
3833 3 7 1 -5 -1 511. 561. 60. o
3833 1 -7 -1 5 1 511. 561. 60. o
3834 4 7 -1 5 0 22541. 24387. 200. o
3834 3 7 1 -5 0 22541. 24387. 200. o
3834 2 -7 1 -5 0 22541. 24387. 200. o
3834 1 -7 -1 5 0 22541. 24387. 200. o
3835 3 7 1 -5 1 225. 186. 43. o
3835 1 -7 -1 5 -1 225. 186. 43. o
3836 3 8 1 -5 -1 44. 38. 38. <
3836 1 -8 -1 5 1 44. 38. 38. <
3837 4 8 -1 5 0 4987. 4967. 109. o
3837 3 8 1 -5 0 4987. 4967. 109. o
3837 2 -8 1 -5 0 4987. 4967. 109. o
3837 1 -8 -1 5 0 4987. 4967. 109. o
3838 3 8 1 -5 1 6. -27. 43. <
3838 1 -8 -1 5 -1 6. -27. 43. <
3839 3 9 1 -5 -1 1357. 1409. 82. o
3839 1 -9 -1 5 1 1357. 1409. 82. o
3840 4 9 -1 5 0 6175. 5942. 147. o
3840 3 9 1 -5 0 6175. 5942. 147. o
3840 2 -9 1 -5 0 6175. 5942. 147. o
3840 1 -9 -1 5 0 6175. 5942. 147. o
3841 3 9 1 -5 1 656. 709. 148. o
3841 1 -9 -1 5 -1 656. 709. 148. o
3842 3 10 1 -5 -1 179. 656. 359. <
3842 1 -10 -1 5 1 179. 656. 359. <
3843 4 10 -1 5 0 53480. 51383. 360. o
3843 3 10 1 -5 0 53480. 51383. 360. o
3843 2 -10 1 -5 0 53480. 51383. 360. o
3843 1 -10 -1 5 0 53480. 51383. 360. o
3844 3 10 1 -5 1 67. 877. 361. o
3844 1 -10 -1 5 -1 67. 877. 361. o
3845 3 11 1 -5 -1 82. 121. 177. <
3845 1 -11 -1 5 1 82. 121. 177. <
3846 4 11 -1 5 0 6060. 5794. 178. o
3846 3 11 1 -5 0 6060. 5794. 178. o
3846 2 -11 1 -5 0 6060. 5794. 178. o
3846 1 -11 -1 5 0 6060. 5794. 178. o
3847 3 11 1 -5 1 160. 302. 178. <
3847 1 -11 -1 5 -1 160. 302. 178. <
3848 3 12 1 -5 -1 454. 282. 164. <
3848 1 -12 -1 5 1 454. 282. 164. <
3849 4 12 -1 5 0 2336. 2324. 164. o
3849 3 12 1 -5 0 2336. 2324. 164. o
3849 2 -12 1 -5 0 2336. 2324. 164. o
3849 1 -12 -1 5 0 2336. 2324. 164. o
3850 3 12 1 -5 1 85. 146. 164. <
3850 1 -12 -1 5 -1 85. 146. 164. <
3851 3 13 -2 -5 -1 141. 189. 72. o
3851 1 -13 2 5 1 141. 189. 72. o
3852 3 12 -2 -5 1 473. 276. 145. <
3852 1 -12 2 5 -1 473. 276. 145. <
3853 4 12 2 5 0 1157. 1099. 145. o
3853 3 12 -2 -5 0 1157. 1099. 145. o
3853 2 -12 -2 -5 0 1157. 1099. 145. o
3853 1 -12 2 5 0 1157. 1099. 145. o
3854 3 12 -2 -5 -1 188. 52. 145. <
3854 1 -12 2 5 1 188. 52. 145. <
3855 3 11 -2 -5 1 314. 449. 176. o
3855 1 -11 2 5 -1 314. 449. 176. o
3856 4 11 2 5 0 6273. 5823. 176. o
3856 3 11 -2 -5 0 6273. 5823. 176. o
3856 2 -11 -2 -5 0 6273. 5823. 176. o
3856 1 -11 2 5 0 6273. 5823. 176. o
3857 3 11 -2 -5 -1 43. 417. 177. o
3857 1 -11 2 5 1 43. 417. 177. o
3858 3 10 -2 -5 1 1635. 1615. 93. o
3858 1 -10 2 5 -1 1635. 1615. 93. o
3859 4 10 2 5 0 5205. 5384. 130. o
3859 3 10 -2 -5 0 5205. 5384. 130. o
3859 2 -10 -2 -5 0 5205. 5384. 130. o
3859 1 -10 2 5 0 5205. 5384. 130. o
3860 3 10 -2 -5 -1 2248. 2302. 98. o
3860 1 -10 2 5 1 2248. 2302. 98. o
3861 3 9 -2 -5 1 220. 257. 53. o
3861 1 -9 2 5 -1 220. 257. 53. o
3862 4 9 2 5 0 2622. 2855. 99. o
3862 3 9 -2 -5 0 2622. 2855. 99. o
3862 2 -9 -2 -5 0 2622. 2855. 99. o
3862 1 -9 2 5 0 2622. 2855. 99. o
3863 3 9 -2 -5 -1 21. 17. 49. <
3863 1 -9 2 5 1 21. 17. 49. <
3864 3 8 -2 -5 1 194. 184. 49. o
3864 1 -8 2 5 -1 194. 184. 49. o
3865 4 8 2 5 0 23882. 24683. 219. o
3865 3 8 -2 -5 0 23882. 24683. 219. o
3865 2 -8 -2 -5 0 23882. 24683. 219. o
3865 1 -8 2 5 0 23882. 24683. 219. o
3866 3 8 -2 -5 -1 99. 108. 47. o
3866 1 -8 2 5 1 99. 108. 47. o
3867 3 7 -2 -5 1 360. 319. 151. o
3867 1 -7 2 5 -1 360. 319. 151. o
3868 4 7 2 5 0 21757. 21229. 186. o
3868 3 7 -2 -5 0 21757. 21229. 186. o
3868 2 -7 -2 -5 0 21757. 21229. 186. o
3868 1 -7 2 5 0 21757. 21229. 186. o
3869 3 7 -2 -5 -1 851. 655. 170. o
3869 1 -7 2 5 1 851. 655. 170. o
3870 3 6 -2 -5 1 267. 243. 203. <
3870 1 -6 2 5 -1 267. 243. 203. <
3871 4 6 2 5 0 53141. 47604. 242. o
3871 3 6 -2 -5 0 53141. 47604. 242. o
3871 2 -6 -2 -5 0 53141. 47604. 242. o
3871 1 -6 2 5 0 53141. 47604. 242. o
3872 3 6 -2 -5 -1 8. 92. 189. <
3872 1 -6 2 5 1 8. 92. 189. <
3873 3 5 -2 -5 1 142. 138. 168. <
3873 1 -5 2 5 -1 142. 138. 168. <
3874 4 5 2 5 0 28798. 27080. 206. o
3874 3 5 -2 -5 0 28798. 27080. 206. o
3874 2 -5 -2 -5 0 28798. 27080. 206. o
3874 1 -5 2 5 0 28798. 27080. 206. o
3875 3 5 -2 -5 -1 449. 272. 178. <
3875 1 -5 2 5 1 449. 272. 178. <
3876 3 4 -2 -5 1 2147. 1807. 97. o
3876 1 -4 2 5 -1 2147. 1807. 97. o
3877 4 4 2 5 0 2808. 2768. 94. o
3877 3 4 -2 -5 0 2808. 2768. 94. o
3877 2 -4 -2 -5 0 2808. 2768. 94. o
3877 1 -4 2 5 0 2808. 2768. 94. o
3878 3 4 -2 -5 -1 1270. 947. 87. o
3878 1 -4 2 5 1 1270. 947. 87. o
3879 3 3 -2 -5 1 177. 129. 93. <
3879 1 -3 2 5 -1 177. 129. 93. <
3880 4 3 2 5 0 11013. 10481. 105. o
3880 3 3 -2 -5 0 11013. 10481. 105. o
3880 2 -3 -2 -5 0 11013. 10481. 105. o
3880 1 -3 2 5 0 11013. 10481. 105. o
3881 3 3 -2 -5 -1 90. 74. 88. <
3881 1 -3 2 5 1 90. 74. 88. <
3882 3 2 -2 -5 1 234. 224. 262. <
3882 1 -2 2 5 -1 234. 224. 262. <
3883 4 2 2 5 0 102112. 96779. 399. o
3883 3 2 -2 -5 0 102112. 96779. 399. o
3883 2 -2 -2 -5 0 102112. 96779. 399. o
3883 1 -2 2 5 0 102112. 96779. 399. o
3884 3 2 -2 -5 -1 193. 197. 254. <
3884 1 -2 2 5 1 193. 197. 254. <
3885 3 1 -2 -5 1 24. 26. 147. <
3885 1 -1 2 5 -1 24. 26. 147. <
3886 4 1 2 5 0 55489. 55166. 202. o
3886 3 1 -2 -5 0 55489. 55166. 202. o
3886 2 -1 -2 -5 0 55489. 55166. 202. o
3886 1 -1 2 5 0 55489. 55166. 202. o
3887 3 1 -2 -5 -1 5. 31. 144. <
3887 1 -1 2 5 1 5. 31. 144. <
3888 3 0 -2 -5 1 248. 292. 28. o
3888 1 0 2 5 -1 248. 292. 28. o
3889 3 0 2 -5 -1 248. 271. 45. o
3889 1 0 -2 5 1 248. 271. 45. o
3890 4 0 2 5 0 477. 441. 31. o
3890 3 0 -2 -5 0 477. 441. 31. o
3890 2 0 -2 -5 0 477. 441. 31. o
3890 1 0 2 5 0 477. 441. 31. o
3891 4 0 -2 5 0 492. 617. 46. o
3891 3 0 2 -5 0 492. 617. 46. o
3891 2 0 2 -5 0 492. 617. 46. o
3891 1 0 -2 5 0 492. 617. 46. o
3892 3 0 -2 -5 -1 199. 235. 25. o
3892 1 0 2 5 1 199. 235. 25. o
3893 3 0 2 -5 1 199. 254. 46. o
3893 1 0 -2 5 -1 199. 254. 46. o
3894 3 -1 -2 -5 1 210. 191. 142. <
3894 1 1 2 5 -1 210. 191. 142. <
3895 3 1 2 -5 -1 212. 267. 24. o
3895 1 -1 -2 5 1 212. 267. 24. o
3896 4 -1 2 5 0 54875. 55569. 198. o
3896 3 -1 -2 -5 0 54875. 55569. 198. o
3896 2 1 -2 -5 0 54875. 55569. 198. o
3896 1 1 2 5 0 54875. 55569. 198. o
3897 4 1 -2 5 0 54679. 58941. 207. o
3897 3 1 2 -5 0 54679. 58941. 207. o
3897 2 -1 2 -5 0 54679. 58941. 207. o
3897 1 -1 -2 5 0 54679. 58941. 207. o
3898 3 -1 -2 -5 -1 182. 178. 141. <
3898 1 1 2 5 1 182. 178. 141. <
3899 3 1 2 -5 1 184. 191. 22. o
3899 1 -1 -2 5 -1 184. 191. 22. o
3900 3 -2 -2 -5 1 4. 24. 388. <
3900 1 2 2 5 -1 4. 24. 388. <
3901 3 2 2 -5 -1 3. 8. 20. <
3901 1 -2 -2 5 1 3. 8. 20. <
3902 4 -2 2 5 0 103089. 98261. 464. o
3902 3 -2 -2 -5 0 103089. 98261. 464. o
3902 2 2 -2 -5 0 103089. 98261. 464. o
3902 1 2 2 5 0 103089. 98261. 464. o
3903 4 2 -2 5 0 103057. 105807. 654. o
3903 3 2 2 -5 0 103057. 105807. 654. o
3903 2 -2 2 -5 0 103057. 105807. 654. o
3903 1 -2 -2 5 0 103057. 105807. 654. o
3904 3 -2 -2 -5 -1 9. 17. 383. <
3904 1 2 2 5 1 9. 17. 383. <
3905 3 2 2 -5 1 9. 16. 21. <
3905 1 -2 -2 5 -1 9. 16. 21. <
3906 3 -3 -2 -5 1 4. 8. 78. <
3906 1 3 2 5 -1 4. 8. 78. <
3907 3 3 2 -5 -1 4. 20. 22. <
3907 1 -3 -2 5 1 4. 20. 22. <
3908 4 -3 2 5 0 11232. 10747. 92. o
3908 3 -3 -2 -5 0 11232. 10747. 92. o
3908 2 3 -2 -5 0 11232. 10747. 92. o
3908 1 3 2 5 0 11232. 10747. 92. o
3909 4 3 -2 5 0 11358. 12006. 107. o
3909 3 3 2 -5 0 11358. 12006. 107. o
3909 2 -3 2 -5 0 11358. 12006. 107. o
3909 1 -3 -2 5 0 11358. 12006. 107. o
3910 3 -3 -2 -5 -1 32. 40. 78. <
3910 1 3 2 5 1 32. 40. 78. <
3911 3 3 2 -5 1 32. 66. 25. o
3911 1 -3 -2 5 -1 32. 66. 25. o
3912 3 -4 -2 -5 1 246. 688. 61. o
3912 1 4 2 5 -1 246. 688. 61. o
3913 3 4 2 -5 -1 246. 246. 33. o
3913 1 -4 -2 5 1 246. 246. 33. o
3914 4 -4 2 5 0 2586. 1741. 69. o
3914 3 -4 -2 -5 0 2586. 1741. 69. o
3914 2 4 -2 -5 0 2586. 1741. 69. o
3914 1 4 2 5 0 2586. 1741. 69. o
3915 4 4 -2 5 0 2135. 2463. 62. o
3915 3 4 2 -5 0 2135. 2463. 62. o
3915 2 -4 2 -5 0 2135. 2463. 62. o
3915 1 -4 -2 5 0 2135. 2463. 62. o
3916 3 -4 -2 -5 -1 34. 1170. 109. o
3916 1 4 2 5 1 34. 1170. 109. o
3917 3 4 2 -5 1 30. -5. 27. <
3917 1 -4 -2 5 -1 30. -5. 27. <
3918 3 -5 -2 -5 1 32. 62. 218. <
3918 1 5 2 5 -1 32. 62. 218. <
3919 3 5 2 -5 -1 32. 38. 32. <
3919 1 -5 -2 5 1 32. 38. 32. <
3920 4 -5 2 5 0 29050. 31484. 218. o
3920 3 -5 -2 -5 0 29050. 31484. 218. o
3920 2 5 -2 -5 0 29050. 31484. 218. o
3920 1 5 2 5 0 29050. 31484. 218. o
3921 4 5 -2 5 0 28926. 31936. 205. o
3921 3 5 2 -5 0 28926. 31936. 205. o
3921 2 -5 2 -5 0 28926. 31936. 205. o
3921 1 -5 -2 5 0 28926. 31936. 205. o
3922 3 -5 -2 -5 -1 19. 13. 40. <
3922 1 5 2 5 1 19. 13. 40. <
3923 3 5 2 -5 1 18. -4. 32. <
3923 1 -5 -2 5 -1 18. -4. 32. <
3924 3 -6 -2 -5 1 442. 272. 312. <
3924 1 6 2 5 -1 442. 272. 312. <
3925 3 6 2 -5 -1 441. 492. 53. o
3925 1 -6 -2 5 1 441. 492. 53. o
3926 4 -6 2 5 0 53717. 60925. 312. o
3926 3 -6 -2 -5 0 53717. 60925. 312. o
3926 2 6 -2 -5 0 53717. 60925. 312. o
3926 1 6 2 5 0 53717. 60925. 312. o
3927 4 6 -2 5 0 53819. 58493. 293. o
3927 3 6 2 -5 0 53819. 58493. 293. o
3927 2 -6 2 -5 0 53819. 58493. 293. o
3927 1 -6 -2 5 0 53819. 58493. 293. o
3928 3 -6 -2 -5 -1 132. 116. 312. <
3928 1 6 2 5 1 132. 116. 312. <
3929 3 6 2 -5 1 131. 163. 42. o
3929 1 -6 -2 5 -1 131. 163. 42. o
3930 3 -7 -2 -5 1 716. 462. 218. o
3930 1 7 2 5 -1 716. 462. 218. o
3931 3 7 2 -5 -1 724. 731. 62. o
3931 1 -7 -2 5 1 724. 731. 62. o
3932 4 -7 2 5 0 22290. 23570. 218. o
3932 3 -7 -2 -5 0 22290. 23570. 218. o
3932 2 7 -2 -5 0 22290. 23570. 218. o
3932 1 7 2 5 0 22290. 23570. 218. o
3933 4 7 -2 5 0 22322. 23447. 201. o
3933 3 7 2 -5 0 22322. 23447. 201. o
3933 2 -7 2 -5 0 22322. 23447. 201. o
3933 1 -7 -2 5 0 22322. 23447. 201. o
3934 3 -7 -2 -5 -1 214. 172. 219. <
3934 1 7 2 5 1 214. 172. 219. <
3935 3 7 2 -5 1 217. 269. 47. o
3935 1 -7 -2 5 -1 217. 269. 47. o
3936 3 -8 -2 -5 1 32. 47. 233. <
3936 1 8 2 5 -1 32. 47. 233. <
3937 3 8 2 -5 -1 31. 38. 43. <
3937 1 -8 -2 5 1 31. 38. 43. <
3938 4 -8 2 5 0 23514. 24690. 234. o
3938 3 -8 -2 -5 0 23514. 24690. 234. o
3938 2 8 -2 -5 0 23514. 24690. 234. o
3938 1 8 2 5 0 23514. 24690. 234. o
3939 4 8 -2 5 0 23786. 24436. 219. o
3939 3 8 2 -5 0 23786. 24436. 219. o
3939 2 -8 2 -5 0 23786. 24436. 219. o
3939 1 -8 -2 5 0 23786. 24436. 219. o
3940 3 -8 -2 -5 -1 141. 75. 234. <
3940 1 8 2 5 1 141. 75. 234. <
3941 3 8 2 -5 1 133. 120. 48. o
3941 1 -8 -2 5 -1 133. 120. 48. o
3942 3 -9 -2 -5 1 65. 33. 134. <
3942 1 9 2 5 -1 65. 33. 134. <
3943 3 9 2 -5 -1 67. 25. 47. <
3943 1 -9 -2 5 1 67. 25. 47. <
3944 4 -9 2 5 0 2585. 2770. 134. o
3944 3 -9 -2 -5 0 2585. 2770. 134. o
3944 2 9 -2 -5 0 2585. 2770. 134. o
3944 1 9 2 5 0 2585. 2770. 134. o
3945 4 9 -2 5 0 2556. 2722. 126. o
3945 3 9 2 -5 0 2556. 2722. 126. o
3945 2 -9 2 -5 0 2556. 2722. 126. o
3945 1 -9 -2 5 0 2556. 2722. 126. o
3946 3 -9 -2 -5 -1 20. 22. 134. <
3946 1 9 2 5 1 20. 22. 134. <
3947 3 9 2 -5 1 20. -7. 127. <
3947 1 -9 -2 5 -1 20. -7. 127. <
3948 3 10 2 -5 -1 845. 727. 170. o
3948 1 -10 -2 5 1 845. 727. 170. o
3949 4 10 -2 5 0 4712. 4979. 171. o
3949 3 10 2 -5 0 4712. 4979. 171. o
3949 2 -10 2 -5 0 4712. 4979. 171. o
3949 1 -10 -2 5 0 4712. 4979. 171. o
3950 3 10 2 -5 1 715. 676. 172. o
3950 1 -10 -2 5 -1 715. 676. 172. o
3951 3 11 2 -5 -1 85. 214. 184. <
3951 1 -11 -2 5 1 85. 214. 184. <
3952 4 11 -2 5 0 6726. 6051. 185. o
3952 3 11 2 -5 0 6726. 6051. 185. o
3952 2 -11 2 -5 0 6726. 6051. 185. o
3952 1 -11 -2 5 0 6726. 6051. 185. o
3953 3 11 2 -5 1 97. 310. 185. <
3953 1 -11 -2 5 -1 97. 310. 185. <
3954 3 12 2 -5 -1 565. 369. 157. o
3954 1 -12 -2 5 1 565. 369. 157. o
3955 4 12 -2 5 0 1042. 962. 157. o
3955 3 12 2 -5 0 1042. 962. 157. o
3955 2 -12 2 -5 0 1042. 962. 157. o
3955 1 -12 -2 5 0 1042. 962. 157. o
3956 3 12 2 -5 1 3. 61. 158. <
3956 1 -12 -2 5 -1 3. 61. 158. <
3957 3 13 2 -5 -1 262. 222. 76. o
3957 1 -13 -2 5 1 262. 222. 76. o
3958 3 12 -3 -5 1 142. 969. 307. o
3958 1 -12 3 5 -1 142. 969. 307. o
3959 4 12 3 5 0 27933. 24586. 308. o
3959 3 12 -3 -5 0 27933. 24586. 308. o
3959 2 -12 -3 -5 0 27933. 24586. 308. o
3959 1 -12 3 5 0 27933. 24586. 308. o
3960 3 12 -3 -5 -1 613. 1873. 309. o
3960 1 -12 3 5 1 613. 1873. 309. o
3961 3 11 -3 -5 1 127. 1239. 274. o
3961 1 -11 3 5 -1 127. 1239. 274. o
3962 4 11 3 5 0 22822. 21077. 275. o
3962 3 11 -3 -5 0 22822. 21077. 275. o
3962 2 -11 -3 -5 0 22822. 21077. 275. o
3962 1 -11 3 5 0 22822. 21077. 275. o
3963 3 11 -3 -5 -1 236. 1607. 277. o
3963 1 -11 3 5 1 236. 1607. 277. o
3964 3 10 -3 -5 1 423. 495. 154. o
3964 1 -10 3 5 -1 423. 495. 154. o
3965 4 10 3 5 0 3312. 3531. 155. o
3965 3 10 -3 -5 0 3312. 3531. 155. o
3965 2 -10 -3 -5 0 3312. 3531. 155. o
3965 1 -10 3 5 0 3312. 3531. 155. o
3966 3 10 -3 -5 -1 242. 304. 156. <
3966 1 -10 3 5 1 242. 304. 156. <
3967 3 9 -3 -5 1 1561. 1436. 88. o
3967 1 -9 3 5 -1 1561. 1436. 88. o
3968 4 9 3 5 0 12821. 12624. 176. o
3968 3 9 -3 -5 0 12821. 12624. 176. o
3968 2 -9 -3 -5 0 12821. 12624. 176. o
3968 1 -9 3 5 0 12821. 12624. 176. o
3969 3 9 -3 -5 -1 427. 363. 57. o
3969 1 -9 3 5 1 427. 363. 57. o
3970 3 8 -3 -5 1 114. 117. 194. <
3970 1 -8 3 5 -1 114. 117. 194. <
3971 4 8 3 5 0 37110. 36328. 244. o
3971 3 8 -3 -5 0 37110. 36328. 244. o
3971 2 -8 -3 -5 0 37110. 36328. 244. o
3971 1 -8 3 5 0 37110. 36328. 244. o
3972 3 8 -3 -5 -1 15. 136. 211. <
3972 1 -8 3 5 1 15. 136. 211. <
3973 3 7 -3 -5 1 679. 542. 161. o
3973 1 -7 3 5 -1 679. 542. 161. o
3974 4 7 3 5 0 10921. 10375. 164. o
3974 3 7 -3 -5 0 10921. 10375. 164. o
3974 2 -7 -3 -5 0 10921. 10375. 164. o
3974 1 -7 3 5 0 10921. 10375. 164. o
3975 3 7 -3 -5 -1 2028. 1710. 145. o
3975 1 -7 3 5 1 2028. 1710. 145. o
3976 3 6 -3 -5 1 15. 50. 109. <
3976 1 -6 3 5 -1 15. 50. 109. <
3977 4 6 3 5 0 4504. 3916. 115. o
3977 3 6 -3 -5 0 4504. 3916. 115. o
3977 2 -6 -3 -5 0 4504. 3916. 115. o
3977 1 -6 3 5 0 4504. 3916. 115. o
3978 3 6 -3 -5 -1 12. 32. 103. <
3978 1 -6 3 5 1 12. 32. 103. <
3979 3 5 -3 -5 1 56. 16. 140. <
3979 1 -5 3 5 -1 56. 16. 140. <
3980 4 5 3 5 0 21412. 18667. 171. o
3980 3 5 -3 -5 0 21412. 18667. 171. o
3980 2 -5 -3 -5 0 21412. 18667. 171. o
3980 1 -5 3 5 0 21412. 18667. 171. o
3981 3 5 -3 -5 -1 203. 138. 154. <
3981 1 -5 3 5 1 203. 138. 154. <
3982 3 4 -3 -5 1 160. 82. 130. <
3982 1 -4 3 5 -1 160. 82. 130. <
3983 4 4 3 5 0 11800. 10770. 138. o
3983 3 4 -3 -5 0 11800. 10770. 138. o
3983 2 -4 -3 -5 0 11800. 10770. 138. o
3983 1 -4 3 5 0 11800. 10770. 138. o
3984 3 4 -3 -5 -1 34. 63. 119. <
3984 1 -4 3 5 1 34. 63. 119. <
3985 3 3 -3 -5 1 746. 651. 486. <
3985 1 -3 3 5 -1 746. 651. 486. <
3986 4 3 3 5 0 171422. 156315. 679. o
3986 3 3 -3 -5 0 171422. 156315. 679. o
3986 2 -3 -3 -5 0 171422. 156315. 679. o
3986 1 -3 3 5 0 171422. 156315. 679. o
3987 3 3 -3 -5 -1 700. 641. 462. <
3987 1 -3 3 5 1 700. 641. 462. <
3988 3 2 -3 -5 1 88. 40. 92. <
3988 1 -2 3 5 -1 88. 40. 92. <
3989 4 2 3 5 0 10617. 10680. 105. o
3989 3 2 -3 -5 0 10617. 10680. 105. o
3989 2 -2 -3 -5 0 10617. 10680. 105. o
3989 1 -2 3 5 0 10617. 10680. 105. o
3990 3 2 -3 -5 -1 169. 136. 90. <
3990 1 -2 3 5 1 169. 136. 90. <
3991 3 1 -3 -5 1 19. 18. 105. <
3991 1 -1 3 5 -1 19. 18. 105. <
3992 4 1 3 5 0 20958. 20847. 125. o
3992 3 1 -3 -5 0 20958. 20847. 125. o
3992 2 -1 -3 -5 0 20958. 20847. 125. o
3992 1 -1 3 5 0 20958. 20847. 125. o
3993 3 1 -3 -5 -1 42. 55. 103. <
3993 1 -1 3 5 1 42. 55. 103. <
3994 3 0 -3 -5 1 25. 18. 365. <
3994 1 0 3 5 -1 25. 18. 365. <
3995 4 0 3 5 0 107957. 105022. 464. o
3995 3 0 -3 -5 0 107957. 105022. 464. o
3995 2 0 -3 -5 0 107957. 105022. 464. o
3995 1 0 3 5 0 107957. 105022. 464. o
3996 3 0 -3 -5 -1 56. 134. 359. <
3996 1 0 3 5 1 56. 134. 359. <
3997 3 -1 -3 -5 1 16. 18. 99. <
3997 1 1 3 5 -1 16. 18. 99. <
3998 3 1 3 -5 -1 16. 4. 23. <
3998 1 -1 -3 5 1 16. 4. 23. <
3999 4 -1 3 5 0 20641. 21008. 120. o
3999 3 -1 -3 -5 0 20641. 21008. 120. o
3999 2 1 -3 -5 0 20641. 21008. 120. o
3999 1 1 3 5 0 20641. 21008. 120. o
4000 4 1 -3 5 0 20409. 21978. 141. o
4000 3 1 3 -5 0 20409. 21978. 141. o
4000 2 -1 3 -5 0 20409. 21978. 141. o
4000 1 -1 -3 5 0 20409. 21978. 141. o
4001 3 -1 -3 -5 -1 81. 101. 98. <
4001 1 1 3 5 1 81. 101. 98. <
4002 3 1 3 -5 1 84. 103. 27. o
4002 1 -1 -3 5 -1 84. 103. 27. o
4003 3 -2 -3 -5 1 4. 31. 79. <
4003 1 2 3 5 -1 4. 31. 79. <
4004 3 2 3 -5 -1 4. 25. 23. <
4004 1 -2 -3 5 1 4. 25. 23. <
4005 4 -2 3 5 0 10543. 10538. 95. o
4005 3 -2 -3 -5 0 10543. 10538. 95. o
4005 2 2 -3 -5 0 10543. 10538. 95. o
4005 1 2 3 5 0 10543. 10538. 95. o
4006 4 2 -3 5 0 10692. 11550. 106. o
4006 3 2 3 -5 0 10692. 11550. 106. o
4006 2 -2 3 -5 0 10692. 11550. 106. o
4006 1 -2 -3 5 0 10692. 11550. 106. o
4007 3 -2 -3 -5 -1 76. 48. 79. <
4007 1 2 3 5 1 76. 48. 79. <
4008 3 2 3 -5 1 74. 57. 26. o
4008 1 -2 -3 5 -1 74. 57. 26. o
4009 3 -3 -3 -5 1 12. 219. 532. <
4009 1 3 3 5 -1 12. 219. 532. <
4010 3 3 3 -5 -1 12. 3. 25. <
4010 1 -3 -3 5 1 12. 3. 25. <
4011 4 -3 3 5 0 173239. 163367. 665. o
4011 3 -3 -3 -5 0 173239. 163367. 665. o
4011 2 3 -3 -5 0 173239. 163367. 665. o
4011 1 3 3 5 0 173239. 163367. 665. o
4012 4 3 -3 5 0 173251. 170803. 976. o
4012 3 3 3 -5 0 173251. 170803. 976. o
4012 2 -3 3 -5 0 173251. 170803. 976. o
4012 1 -3 -3 5 0 173251. 170803. 976. o
4013 3 -3 -3 -5 -1 20. 63. 528. <
4013 1 3 3 5 1 20. 63. 528. <
4014 3 3 3 -5 1 20. 43. 28. <
4014 1 -3 -3 5 -1 20. 43. 28. <
4015 3 -4 -3 -5 1 704. 547. 88. o
4015 1 4 3 5 -1 704. 547. 88. o
4016 3 4 3 -5 -1 707. 799. 47. o
4016 1 -4 -3 5 1 707. 799. 47. o
4017 4 -4 3 5 0 11863. 11022. 106. o
4017 3 -4 -3 -5 0 11863. 11022. 106. o
4017 2 4 -3 -5 0 11863. 11022. 106. o
4017 1 4 3 5 0 11863. 11022. 106. o
4018 4 4 -3 5 0 11773. 12937. 128. o
4018 3 4 3 -5 0 11773. 12937. 128. o
4018 2 -4 3 -5 0 11773. 12937. 128. o
4018 1 -4 -3 5 0 11773. 12937. 128. o
4019 3 -4 -3 -5 -1 65. 31. 85. <
4019 1 4 3 5 1 65. 31. 85. <
4020 3 4 3 -5 1 70. 65. 32. o
4020 1 -4 -3 5 -1 70. 65. 32. o
4021 3 -5 -3 -5 1 11. 7. 199. <
4021 1 5 3 5 -1 11. 7. 199. <
4022 3 5 3 -5 -1 11. 13. 30. <
4022 1 -5 -3 5 1 11. 13. 30. <
4023 4 -5 3 5 0 21628. 23023. 199. o
4023 3 -5 -3 -5 0 21628. 23023. 199. o
4023 2 5 -3 -5 0 21628. 23023. 199. o
4023 1 5 3 5 0 21628. 23023. 199. o
4024 4 5 -3 5 0 21732. 24129. 186. o
4024 3 5 3 -5 0 21732. 24129. 186. o
4024 2 -5 3 -5 0 21732. 24129. 186. o
4024 1 -5 -3 5 0 21732. 24129. 186. o
4025 3 -5 -3 -5 -1 44. 30. 198. <
4025 1 5 3 5 1 44. 30. 198. <
4026 3 5 3 -5 1 43. 26. 33. <
4026 1 -5 -3 5 -1 43. 26. 33. <
4027 3 -6 -3 -5 1 1. 15. 132. <
4027 1 6 3 5 -1 1. 15. 132. <
4028 3 6 3 -5 -1 1. 3. 36. <
4028 1 -6 -3 5 1 1. 3. 36. <
4029 4 -6 3 5 0 4680. 4949. 131. o
4029 3 -6 -3 -5 0 4680. 4949. 131. o
4029 2 6 -3 -5 0 4680. 4949. 131. o
4029 1 6 3 5 0 4680. 4949. 131. o
4030 4 6 -3 5 0 4704. 4959. 101. o
4030 3 6 3 -5 0 4704. 4959. 101. o
4030 2 -6 3 -5 0 4704. 4959. 101. o
4030 1 -6 -3 5 0 4704. 4959. 101. o
4031 3 -6 -3 -5 -1 65. 35. 131. <
4031 1 6 3 5 1 65. 35. 131. <
4032 3 6 3 -5 1 67. 59. 41. <
4032 1 -6 -3 5 -1 67. 59. 41. <
4033 3 -7 -3 -5 1 255. 228. 171. <
4033 1 7 3 5 -1 255. 228. 171. <
4034 3 7 3 -5 -1 253. 242. 171. <
4034 1 -7 -3 5 1 253. 242. 171. <
4035 4 -7 3 5 0 10380. 11846. 170. o
4035 3 -7 -3 -5 0 10380. 11846. 170. o
4035 2 7 -3 -5 0 10380. 11846. 170. o
4035 1 7 3 5 0 10380. 11846. 170. o
4036 4 7 -3 5 0 10379. 10134. 172. o
4036 3 7 3 -5 0 10379. 10134. 172. o
4036 2 -7 3 -5 0 10379. 10134. 172. o
4036 1 -7 -3 5 0 10379. 10134. 172. o
4037 3 -7 -3 -5 -1 454. 342. 169. o
4037 1 7 3 5 1 454. 342. 169. o
4038 3 7 3 -5 1 454. 395. 173. o
4038 1 -7 -3 5 -1 454. 395. 173. o
4039 3 -8 -3 -5 1 141. 76. 283. <
4039 1 8 3 5 -1 141. 76. 283. <
4040 3 8 3 -5 -1 136. 123. 290. <
4040 1 -8 -3 5 1 136. 123. 290. <
4041 4 -8 3 5 0 37104. 40917. 284. o
4041 3 -8 -3 -5 0 37104. 40917. 284. o
4041 2 8 -3 -5 0 37104. 40917. 284. o
4041 1 8 3 5 0 37104. 40917. 284. o
4042 4 8 -3 5 0 37173. 37913. 292. o
4042 3 8 3 -5 0 37173. 37913. 292. o
4042 2 -8 3 -5 0 37173. 37913. 292. o
4042 1 -8 -3 5 0 37173. 37913. 292. o
4043 3 -8 -3 -5 -1 11. 72. 283. <
4043 1 8 3 5 1 11. 72. 283. <
4044 3 8 3 -5 1 9. 132. 294. <
4044 1 -8 -3 5 -1 9. 132. 294. <
4045 3 9 3 -5 -1 115. 13. 204. <
4045 1 -9 -3 5 1 115. 13. 204. <
4046 4 9 -3 5 0 12858. 12759. 205. o
4046 3 9 3 -5 0 12858. 12759. 205. o
4046 2 -9 3 -5 0 12858. 12759. 205. o
4046 1 -9 -3 5 0 12858. 12759. 205. o
4047 3 9 3 -5 1 137. 170. 206. <
4047 1 -9 -3 5 -1 137. 170. 206. <
4048 3 10 3 -5 -1 655. 376. 167. o
4048 1 -10 -3 5 1 655. 376. 167. o
4049 4 10 -3 5 0 3448. 3679. 168. o
4049 3 10 3 -5 0 3448. 3679. 168. o
4049 2 -10 3 -5 0 3448. 3679. 168. o
4049 1 -10 -3 5 0 3448. 3679. 168. o
4050 3 10 3 -5 1 628. 559. 169. o
4050 1 -10 -3 5 -1 628. 559. 169. o
4051 3 11 3 -5 -1 291. 609. 286. o
4051 1 -11 -3 5 1 291. 609. 286. o
4052 4 11 -3 5 0 22478. 22725. 287. o
4052 3 11 3 -5 0 22478. 22725. 287. o
4052 2 -11 3 -5 0 22478. 22725. 287. o
4052 1 -11 -3 5 0 22478. 22725. 287. o
4053 3 11 3 -5 1 83. 479. 289. <
4053 1 -11 -3 5 -1 83. 479. 289. <
4054 3 12 3 -5 -1 566. 919. 324. o
4054 1 -12 -3 5 1 566. 919. 324. o
4055 4 12 -3 5 0 28584. 26764. 326. o
4055 3 12 3 -5 0 28584. 26764. 326. o
4055 2 -12 3 -5 0 28584. 26764. 326. o
4055 1 -12 -3 5 0 28584. 26764. 326. o
4056 3 12 3 -5 1 227. 750. 328. o
4056 1 -12 -3 5 -1 227. 750. 328. o
4057 3 12 -4 -5 1 344. 967. 273. o
4057 1 -12 4 5 -1 344. 967. 273. o
4058 4 12 4 5 0 16107. 15844. 274. o
4058 3 12 -4 -5 0 16107. 15844. 274. o
4058 2 -12 -4 -5 0 16107. 15844. 274. o
4058 1 -12 4 5 0 16107. 15844. 274. o
4059 3 12 -4 -5 -1 1672. 1913. 276. o
4059 1 -12 4 5 1 1672. 1913. 276. o
4060 3 11 -4 -5 1 286. 956. 334. o
4060 1 -11 4 5 -1 286. 956. 334. o
4061 4 11 4 5 0 34054. 32805. 337. o
4061 3 11 -4 -5 0 34054. 32805. 337. o
4061 2 -11 -4 -5 0 34054. 32805. 337. o
4061 1 -11 4 5 0 34054. 32805. 337. o
4062 3 11 -4 -5 -1 285. 1203. 338. o
4062 1 -11 4 5 1 285. 1203. 338. o
4063 3 10 -4 -5 1 101. 236. 155. <
4063 1 -10 4 5 -1 101. 236. 155. <
4064 4 10 4 5 0 4251. 3968. 156. o
4064 3 10 -4 -5 0 4251. 3968. 156. o
4064 2 -10 -4 -5 0 4251. 3968. 156. o
4064 1 -10 4 5 0 4251. 3968. 156. o
4065 3 10 -4 -5 -1 223. 101. 157. <
4065 1 -10 4 5 1 223. 101. 157. <
4066 3 9 -4 -5 1 363. 462. 203. o
4066 1 -9 4 5 -1 363. 462. 203. o
4067 4 9 4 5 0 17787. 17771. 208. o
4067 3 9 -4 -5 0 17787. 17771. 208. o
4067 2 -9 -4 -5 0 17787. 17771. 208. o
4067 1 -9 4 5 0 17787. 17771. 208. o
4068 3 9 -4 -5 -1 153. 140. 213. <
4068 1 -9 4 5 1 153. 140. 213. <
4069 3 8 -4 -5 1 39. 175. 258. <
4069 1 -8 4 5 -1 39. 175. 258. <
4070 4 8 4 5 0 51008. 51468. 307. o
4070 3 8 -4 -5 0 51008. 51468. 307. o
4070 2 -8 -4 -5 0 51008. 51468. 307. o
4070 1 -8 4 5 0 51008. 51468. 307. o
4071 3 8 -4 -5 -1 75. 174. 238. <
4071 1 -8 4 5 1 75. 174. 238. <
4072 3 7 -4 -5 1 9. -10. 110. <
4072 1 -7 4 5 -1 9. -10. 110. <
4073 4 7 4 5 0 1915. 1734. 111. o
4073 3 7 -4 -5 0 1915. 1734. 111. o
4073 2 -7 -4 -5 0 1915. 1734. 111. o
4073 1 -7 4 5 0 1915. 1734. 111. o
4074 3 7 -4 -5 -1 301. 253. 102. o
4074 1 -7 4 5 1 301. 253. 102. o
4075 3 6 -4 -5 1 1232. 981. 112. o
4075 1 -6 4 5 -1 1232. 981. 112. o
4076 4 6 4 5 0 8844. 7394. 126. o
4076 3 6 -4 -5 0 8844. 7394. 126. o
4076 2 -6 -4 -5 0 8844. 7394. 126. o
4076 1 -6 4 5 0 8844. 7394. 126. o
4077 3 6 -4 -5 -1 584. 503. 109. o
4077 1 -6 4 5 1 584. 503. 109. o
4078 3 5 -4 -5 1 312. 182. 102. <
4078 1 -5 4 5 -1 312. 182. 102. <
4079 4 5 4 5 0 2566. 2398. 108. o
4079 3 5 -4 -5 0 2566. 2398. 108. o
4079 2 -5 -4 -5 0 2566. 2398. 108. o
4079 1 -5 4 5 0 2566. 2398. 108. o
4080 3 5 -4 -5 -1 44. 44. 104. <
4080 1 -5 4 5 1 44. 44. 104. <
4081 3 4 -4 -5 1 136. 90. 235. <
4081 1 -4 4 5 -1 136. 90. 235. <
4082 4 4 4 5 0 57975. 56898. 271. o
4082 3 4 -4 -5 0 57975. 56898. 271. o
4082 2 -4 -4 -5 0 57975. 56898. 271. o
4082 1 -4 4 5 0 57975. 56898. 271. o
4083 3 4 -4 -5 -1 135. 77. 217. <
4083 1 -4 4 5 1 135. 77. 217. <
4084 3 3 -4 -5 1 34. 26. 105. <
4084 1 -3 4 5 -1 34. 26. 105. <
4085 4 3 4 5 0 11041. 10208. 121. o
4085 3 3 -4 -5 0 11041. 10208. 121. o
4085 2 -3 -4 -5 0 11041. 10208. 121. o
4085 1 -3 4 5 0 11041. 10208. 121. o
4086 3 3 -4 -5 -1 123. 75. 100. <
4086 1 -3 4 5 1 123. 75. 100. <
4087 3 2 -4 -5 1 1269. 1106. 87. o
4087 1 -2 4 5 -1 1269. 1106. 87. o
4088 4 2 4 5 0 2352. 2179. 87. o
4088 3 2 -4 -5 0 2352. 2179. 87. o
4088 2 -2 -4 -5 0 2352. 2179. 87. o
4088 1 -2 4 5 0 2352. 2179. 87. o
4089 3 2 -4 -5 -1 1975. 1815. 87. o
4089 1 -2 4 5 1 1975. 1815. 87. o
4090 3 1 -4 -5 1 477. 486. 32. o
4090 1 -1 4 5 -1 477. 486. 32. o
4091 4 1 4 5 0 2829. 2830. 71. o
4091 3 1 -4 -5 0 2829. 2830. 71. o
4091 2 -1 -4 -5 0 2829. 2830. 71. o
4091 1 -1 4 5 0 2829. 2830. 71. o
4092 3 1 -4 -5 -1 157. 109. 34. o
4092 1 -1 4 5 1 157. 109. 34. o
4093 3 0 -4 -5 1 31. 39. 54. <
4093 1 0 4 5 -1 31. 39. 54. <
4094 4 0 4 5 0 42. 296. 57. o
4094 3 0 -4 -5 0 42. 296. 57. o
4094 2 0 -4 -5 0 42. 296. 57. o
4094 1 0 4 5 0 42. 296. 57. o
4095 3 0 -4 -5 -1 55. -13. 53. <
4095 1 0 4 5 1 55. -13. 53. <
4096 3 -1 -4 -5 1 14. 16. 61. <
4096 1 1 4 5 -1 14. 16. 61. <
4097 4 -1 4 5 0 2904. 2998. 70. o
4097 3 -1 -4 -5 0 2904. 2998. 70. o
4097 2 1 -4 -5 0 2904. 2998. 70. o
4097 1 1 4 5 0 2904. 2998. 70. o
4098 3 -1 -4 -5 -1 33. 52. 61. <
4098 1 1 4 5 1 33. 52. 61. <
4099 3 -2 -4 -5 1 245. 158. 61. o
4099 1 2 4 5 -1 245. 158. 61. o
4100 3 2 4 -5 -1 244. 228. 33. o
4100 1 -2 -4 5 1 244. 228. 33. o
4101 4 -2 4 5 0 2084. 2060. 70. o
4101 3 -2 -4 -5 0 2084. 2060. 70. o
4101 2 2 -4 -5 0 2084. 2060. 70. o
4101 1 2 4 5 0 2084. 2060. 70. o
4102 3 -2 -4 -5 -1 1. 18. 61. <
4102 1 2 4 5 1 1. 18. 61. <
4103 3 -3 -4 -5 1 722. 636. 92. o
4103 1 3 4 5 -1 722. 636. 92. o
4104 3 3 4 -5 -1 718. 782. 52. o
4104 1 -3 -4 5 1 718. 782. 52. o
4105 4 -3 4 5 0 11389. 11648. 115. o
4105 3 -3 -4 -5 0 11389. 11648. 115. o
4105 2 3 -4 -5 0 11389. 11648. 115. o
4105 1 3 4 5 0 11389. 11648. 115. o
4106 4 3 -4 5 0 11623. 12408. 132. o
4106 3 3 4 -5 0 11623. 12408. 132. o
4106 2 -3 4 -5 0 11623. 12408. 132. o
4106 1 -3 -4 5 0 11623. 12408. 132. o
4107 3 -3 -4 -5 -1 24. 76. 86. <
4107 1 3 4 5 1 24. 76. 86. <
4108 3 3 4 -5 1 24. 49. 33. <
4108 1 -3 -4 5 -1 24. 49. 33. <
4109 3 -4 -4 -5 1 13. 108. 159. <
4109 1 4 4 5 -1 13. 108. 159. <
4110 3 4 4 -5 -1 13. 2. 33. <
4110 1 -4 -4 5 1 13. 2. 33. <
4111 4 -4 4 5 0 58042. 54525. 216. o
4111 3 -4 -4 -5 0 58042. 54525. 216. o
4111 2 4 -4 -5 0 58042. 54525. 216. o
4111 1 4 4 5 0 58042. 54525. 216. o
4112 4 4 -4 5 0 58246. 65149. 303. o
4112 3 4 4 -5 0 58246. 65149. 303. o
4112 2 -4 4 -5 0 58246. 65149. 303. o
4112 1 -4 -4 5 0 58246. 65149. 303. o
4113 3 -4 -4 -5 -1 49. 35. 159. <
4113 1 4 4 5 1 49. 35. 159. <
4114 3 4 4 -5 1 50. 41. 36. <
4114 1 -4 -4 5 -1 50. 41. 36. <
4115 3 -5 -4 -5 1 34. 23. 120. <
4115 1 5 4 5 -1 34. 23. 120. <
4116 3 5 4 -5 -1 32. 29. 36. <
4116 1 -5 -4 5 1 32. 29. 36. <
4117 4 -5 4 5 0 2671. 3208. 120. o
4117 3 -5 -4 -5 0 2671. 3208. 120. o
4117 2 5 -4 -5 0 2671. 3208. 120. o
4117 1 5 4 5 0 2671. 3208. 120. o
4118 4 5 -4 5 0 2695. 2866. 84. o
4118 3 5 4 -5 0 2695. 2866. 84. o
4118 2 -5 4 -5 0 2695. 2866. 84. o
4118 1 -5 -4 5 0 2695. 2866. 84. o
4119 3 -5 -4 -5 -1 292. 179. 120. <
4119 1 5 4 5 1 292. 179. 120. <
4120 3 5 4 -5 1 295. 335. 49. o
4120 1 -5 -4 5 -1 295. 335. 49. o
4121 3 -6 -4 -5 1 87. 65. 158. <
4121 1 6 4 5 -1 87. 65. 158. <
4122 3 6 4 -5 -1 92. 76. 42. <
4122 1 -6 -4 5 1 92. 76. 42. <
4123 4 -6 4 5 0 8738. 9369. 158. o
4123 3 -6 -4 -5 0 8738. 9369. 158. o
4123 2 6 -4 -5 0 8738. 9369. 158. o
4123 1 6 4 5 0 8738. 9369. 158. o
4124 4 6 -4 5 0 8694. 9096. 150. o
4124 3 6 4 -5 0 8694. 9096. 150. o
4124 2 -6 4 -5 0 8694. 9096. 150. o
4124 1 -6 -4 5 0 8694. 9096. 150. o
4125 3 -6 -4 -5 -1 77. 47. 159. <
4125 1 6 4 5 1 77. 47. 159. <
4126 3 6 4 -5 1 73. 20. 151. <
4126 1 -6 -4 5 -1 73. 20. 151. <
4127 3 -7 -4 -5 1 150. 95. 125. <
4127 1 7 4 5 -1 150. 95. 125. <
4128 3 7 4 -5 -1 154. 70. 134. <
4128 1 -7 -4 5 1 154. 70. 134. <
4129 4 -7 4 5 0 1952. 2099. 125. o
4129 3 -7 -4 -5 0 1952. 2099. 125. o
4129 2 7 -4 -5 0 1952. 2099. 125. o
4129 1 7 4 5 0 1952. 2099. 125. o
4130 4 7 -4 5 0 1914. 2122. 135. o
4130 3 7 4 -5 0 1914. 2122. 135. o
4130 2 -7 4 -5 0 1914. 2122. 135. o
4130 1 -7 -4 5 0 1914. 2122. 135. o
4131 3 -7 -4 -5 -1 347. 317. 125. o
4131 1 7 4 5 1 347. 317. 125. o
4132 3 7 4 -5 1 342. 292. 136. o
4132 1 -7 -4 5 -1 342. 292. 136. o
4133 3 8 4 -5 -1 16. 76. 359. <
4133 1 -8 -4 5 1 16. 76. 359. <
4134 4 8 -4 5 0 51703. 54129. 361. o
4134 3 8 4 -5 0 51703. 54129. 361. o
4134 2 -8 4 -5 0 51703. 54129. 361. o
4134 1 -8 -4 5 0 51703. 54129. 361. o
4135 3 8 4 -5 1 460. 621. 364. <
4135 1 -8 -4 5 -1 460. 621. 364. <
4136 3 9 4 -5 -1 53. 72. 252. <
4136 1 -9 -4 5 1 53. 72. 252. <
4137 4 9 -4 5 0 17848. 19350. 253. o
4137 3 9 4 -5 0 17848. 19350. 253. o
4137 2 -9 4 -5 0 17848. 19350. 253. o
4137 1 -9 -4 5 0 17848. 19350. 253. o
4138 3 9 4 -5 1 47. 91. 255. <
4138 1 -9 -4 5 -1 47. 91. 255. <
4139 3 10 4 -5 -1 86. 123. 179. <
4139 1 -10 -4 5 1 86. 123. 179. <
4140 4 10 -4 5 0 4404. 4353. 181. o
4140 3 10 4 -5 0 4404. 4353. 181. o
4140 2 -10 4 -5 0 4404. 4353. 181. o
4140 1 -10 -4 5 0 4404. 4353. 181. o
4141 3 10 4 -5 1 31. 30. 182. <
4141 1 -10 -4 5 -1 31. 30. 182. <
4142 3 11 4 -5 -1 164. 416. 344. <
4142 1 -11 -4 5 1 164. 416. 344. <
4143 4 11 -4 5 0 35678. 33339. 346. o
4143 3 11 4 -5 0 35678. 33339. 346. o
4143 2 -11 4 -5 0 35678. 33339. 346. o
4143 1 -11 -4 5 0 35678. 33339. 346. o
4144 3 11 4 -5 1 628. 704. 348. o
4144 1 -11 -4 5 -1 628. 704. 348. o
4145 3 12 4 -5 -1 340. 473. 279. <
4145 1 -12 -4 5 1 340. 473. 279. <
4146 4 12 -4 5 0 16167. 15030. 281. o
4146 3 12 4 -5 0 16167. 15030. 281. o
4146 2 -12 4 -5 0 16167. 15030. 281. o
4146 1 -12 -4 5 0 16167. 15030. 281. o
4147 3 12 4 -5 1 37. 485. 283. <
4147 1 -12 -4 5 -1 37. 485. 283. <
4148 4 12 5 5 0 5777. 5734. 195. o
4148 3 12 -5 -5 0 5777. 5734. 195. o
4148 2 -12 -5 -5 0 5777. 5734. 195. o
4148 1 -12 5 5 0 5777. 5734. 195. o
4149 3 12 -5 -5 -1 246. 294. 196. <
4149 1 -12 5 5 1 246. 294. 196. <
4150 3 11 -5 -5 1 892. 1292. 245. o
4150 1 -11 5 5 -1 892. 1292. 245. o
4151 4 11 5 5 0 10088. 10984. 246. o
4151 3 11 -5 -5 0 10088. 10984. 246. o
4151 2 -11 -5 -5 0 10088. 10984. 246. o
4151 1 -11 5 5 0 10088. 10984. 246. o
4152 3 11 -5 -5 -1 487. 772. 247. o
4152 1 -11 5 5 1 487. 772. 247. o
4153 3 10 -5 -5 1 55. 209. 152. <
4153 1 -10 5 5 -1 55. 209. 152. <
4154 4 10 5 5 0 2506. 2292. 154. o
4154 3 10 -5 -5 0 2506. 2292. 154. o
4154 2 -10 -5 -5 0 2506. 2292. 154. o
4154 1 -10 5 5 0 2506. 2292. 154. o
4155 3 10 -5 -5 -1 91. 66. 154. <
4155 1 -10 5 5 1 91. 66. 154. <
4156 3 9 -5 -5 1 280. 478. 383. <
4156 1 -9 5 5 -1 280. 478. 383. <
4157 4 9 5 5 0 15628. 15644. 375. o
4157 3 9 -5 -5 0 15628. 15644. 375. o
4157 2 -9 -5 -5 0 15628. 15644. 375. o
4157 1 -9 5 5 0 15628. 15644. 375. o
4158 3 9 -5 -5 -1 350. 272. 350. <
4158 1 -9 5 5 1 350. 272. 350. <
4159 3 8 -5 -5 1 227. 229. 212. <
4159 1 -8 5 5 -1 227. 229. 212. <
4160 4 8 5 5 0 20258. 18921. 206. o
4160 3 8 -5 -5 0 20258. 18921. 206. o
4160 2 -8 -5 -5 0 20258. 18921. 206. o
4160 1 -8 5 5 0 20258. 18921. 206. o
4161 3 8 -5 -5 -1 532. 304. 201. <
4161 1 -8 5 5 1 532. 304. 201. <
4162 3 7 -5 -5 1 630. 498. 117. o
4162 1 -7 5 5 -1 630. 498. 117. o
4163 4 7 5 5 0 4483. 4318. 124. o
4163 3 7 -5 -5 0 4483. 4318. 124. o
4163 2 -7 -5 -5 0 4483. 4318. 124. o
4163 1 -7 5 5 0 4483. 4318. 124. o
4164 3 7 -5 -5 -1 7. 26. 108. <
4164 1 -7 5 5 1 7. 26. 108. <
4165 3 6 -5 -5 1 363. 312. 125. o
4165 1 -6 5 5 -1 363. 312. 125. o
4166 4 6 5 5 0 15831. 13872. 156. o
4166 3 6 -5 -5 0 15831. 13872. 156. o
4166 2 -6 -5 -5 0 15831. 13872. 156. o
4166 1 -6 5 5 0 15831. 13872. 156. o
4167 3 6 -5 -5 -1 105. 126. 122. <
4167 1 -6 5 5 1 105. 126. 122. <
4168 3 5 -5 -5 1 2292. 1977. 124. o
4168 1 -5 5 5 -1 2292. 1977. 124. o
4169 4 5 5 5 0 8394. 6971. 133. o
4169 3 5 -5 -5 0 8394. 6971. 133. o
4169 2 -5 -5 -5 0 8394. 6971. 133. o
4169 1 -5 5 5 0 8394. 6971. 133. o
4170 3 5 -5 -5 -1 2124. 1875. 124. o
4170 1 -5 5 5 1 2124. 1875. 124. o
4171 3 4 -5 -5 1 36. 35. 119. <
4171 1 -4 5 5 -1 36. 35. 119. <
4172 4 4 5 5 0 2979. 3403. 130. o
4172 3 4 -5 -5 0 2979. 3403. 130. o
4172 2 -4 -5 -5 0 2979. 3403. 130. o
4172 1 -4 5 5 0 2979. 3403. 130. o
4173 3 4 -5 -5 -1 266. 195. 120. <
4173 1 -4 5 5 1 266. 195. 120. <
4174 3 3 -5 -5 1 101. 119. 155. <
4174 1 -3 5 5 -1 101. 119. 155. <
4175 4 3 5 5 0 20451. 20773. 177. o
4175 3 3 -5 -5 0 20451. 20773. 177. o
4175 2 -3 -5 -5 0 20451. 20773. 177. o
4175 1 -3 5 5 0 20451. 20773. 177. o
4176 3 3 -5 -5 -1 66. 60. 147. <
4176 1 -3 5 5 1 66. 60. 147. <
4177 3 2 -5 -5 1 408. 308. 146. o
4177 1 -2 5 5 -1 408. 308. 146. o
4178 4 2 5 5 0 26622. 26234. 176. o
4178 3 2 -5 -5 0 26622. 26234. 176. o
4178 2 -2 -5 -5 0 26622. 26234. 176. o
4178 1 -2 5 5 0 26622. 26234. 176. o
4179 3 2 -5 -5 -1 225. 172. 142. <
4179 1 -2 5 5 1 225. 172. 142. <
4180 3 1 -5 -5 1 473. 517. 37. o
4180 1 -1 5 5 -1 473. 517. 37. o
4181 4 1 5 5 0 45394. 39582. 176. o
4181 3 1 -5 -5 0 45394. 39582. 176. o
4181 2 -1 -5 -5 0 45394. 39582. 176. o
4181 1 -1 5 5 0 45394. 39582. 176. o
4182 3 1 -5 -5 -1 403. 390. 35. o
4182 1 -1 5 5 1 403. 390. 35. o
4183 3 0 -5 -5 1 312. 323. 798. <
4183 1 0 5 5 -1 312. 323. 798. <
4184 4 0 5 5 0 237014. 221836. 1015. o
4184 3 0 -5 -5 0 237014. 221836. 1015. o
4184 2 0 -5 -5 0 237014. 221836. 1015. o
4184 1 0 5 5 0 237014. 221836. 1015. o
4185 3 0 -5 -5 -1 327. 445. 786. <
4185 1 0 5 5 1 327. 445. 786. <
4186 3 -1 -5 -5 1 594. 552. 155. o
4186 1 1 5 5 -1 594. 552. 155. o
4187 4 -1 5 5 0 45559. 44159. 205. o
4187 3 -1 -5 -5 0 45559. 44159. 205. o
4187 2 1 -5 -5 0 45559. 44159. 205. o
4187 1 1 5 5 0 45559. 44159. 205. o
4188 3 -1 -5 -5 -1 467. 363. 153. o
4188 1 1 5 5 1 467. 363. 153. o
4189 3 -2 -5 -5 1 56. 64. 124. <
4189 1 2 5 5 -1 56. 64. 124. <
4190 4 -2 5 5 0 27184. 28213. 174. o
4190 3 -2 -5 -5 0 27184. 28213. 174. o
4190 2 2 -5 -5 0 27184. 28213. 174. o
4190 1 2 5 5 0 27184. 28213. 174. o
4191 3 -2 -5 -5 -1 36. 10. 124. <
4191 1 2 5 5 1 36. 10. 124. <
4192 3 -3 -5 -5 1 12. 54. 110. <
4192 1 3 5 5 -1 12. 54. 110. <
4193 4 -3 5 5 0 20730. 20046. 146. o
4193 3 -3 -5 -5 0 20730. 20046. 146. o
4193 2 3 -5 -5 0 20730. 20046. 146. o
4193 1 3 5 5 0 20730. 20046. 146. o
4194 3 -3 -5 -5 -1 13. 24. 109. <
4194 1 3 5 5 1 13. 24. 109. <
4195 3 -4 -5 -5 1 33. 12. 102. <
4195 1 4 5 5 -1 33. 12. 102. <
4196 4 -4 5 5 0 2865. 2820. 101. o
4196 3 -4 -5 -5 0 2865. 2820. 101. o
4196 2 4 -5 -5 0 2865. 2820. 101. o
4196 1 4 5 5 0 2865. 2820. 101. o
4197 3 -4 -5 -5 -1 247. 158. 100. <
4197 1 4 5 5 1 247. 158. 100. <
4198 3 -5 -5 -5 1 33. 60. 85. <
4198 1 5 5 5 -1 33. 60. 85. <
4199 4 -5 5 5 0 7990. 7783. 108. o
4199 3 -5 -5 -5 0 7990. 7783. 108. o
4199 2 5 -5 -5 0 7990. 7783. 108. o
4199 1 5 5 5 0 7990. 7783. 108. o
4200 3 -5 -5 -5 -1 11. 0. 85. <
4200 1 5 5 5 1 11. 0. 85. <
4201 3 -6 -5 -5 1 972. 800. 206. o
4201 1 6 5 5 -1 972. 800. 206. o
4202 4 -6 5 5 0 15857. 19206. 207. o
4202 3 -6 -5 -5 0 15857. 19206. 207. o
4202 2 6 -5 -5 0 15857. 19206. 207. o
4202 1 6 5 5 0 15857. 19206. 207. o
4203 3 -6 -5 -5 -1 243. 265. 207. <
4203 1 6 5 5 1 243. 265. 207. <
4204 3 7 5 -5 -1 438. 328. 167. <
4204 1 -7 -5 5 1 438. 328. 167. <
4205 4 7 -5 5 0 4655. 5118. 169. o
4205 3 7 5 -5 0 4655. 5118. 169. o
4205 2 -7 5 -5 0 4655. 5118. 169. o
4205 1 -7 -5 5 0 4655. 5118. 169. o
4206 3 7 5 -5 1 144. 72. 170. <
4206 1 -7 -5 5 -1 144. 72. 170. <
4207 3 8 5 -5 -1 149. 110. 258. <
4207 1 -8 -5 5 1 149. 110. 258. <
4208 4 8 -5 5 0 20288. 21741. 260. o
4208 3 8 5 -5 0 20288. 21741. 260. o
4208 2 -8 5 -5 0 20288. 21741. 260. o
4208 1 -8 -5 5 0 20288. 21741. 260. o
4209 3 8 5 -5 1 158. 100. 262. <
4209 1 -8 -5 5 -1 158. 100. 262. <
4210 3 9 5 -5 -1 312. 351. 259. <
4210 1 -9 -5 5 1 312. 351. 259. <
4211 4 9 -5 5 0 16476. 17360. 261. o
4211 3 9 5 -5 0 16476. 17360. 261. o
4211 2 -9 5 -5 0 16476. 17360. 261. o
4211 1 -9 -5 5 0 16476. 17360. 261. o
4212 3 9 5 -5 1 38. 65. 262. <
4212 1 -9 -5 5 -1 38. 65. 262. <
4213 3 10 5 -5 -1 63. -18. 174. <
4213 1 -10 -5 5 1 63. -18. 174. <
4214 4 10 -5 5 0 2862. 2128. 175. o
4214 3 10 5 -5 0 2862. 2128. 175. o
4214 2 -10 5 -5 0 2862. 2128. 175. o
4214 1 -10 -5 5 0 2862. 2128. 175. o
4215 3 10 5 -5 1 95. -24. 176. <
4215 1 -10 -5 5 -1 95. -24. 176. <
4216 3 11 5 -5 -1 75. 148. 245. <
4216 1 -11 -5 5 1 75. 148. 245. <
4217 4 11 -5 5 0 9984. 10910. 247. o
4217 3 11 5 -5 0 9984. 10910. 247. o
4217 2 -11 5 -5 0 9984. 10910. 247. o
4217 1 -11 -5 5 0 9984. 10910. 247. o
4218 3 11 5 -5 1 157. 204. 248. <
4218 1 -11 -5 5 -1 157. 204. 248. <
4219 3 11 -6 -5 1 433. 455. 188. o
4219 1 -11 6 5 -1 433. 455. 188. o
4220 4 11 6 5 0 3295. 3294. 189. o
4220 3 11 -6 -5 0 3295. 3294. 189. o
4220 2 -11 -6 -5 0 3295. 3294. 189. o
4220 1 -11 6 5 0 3295. 3294. 189. o
4221 3 11 -6 -5 -1 7. 63. 191. <
4221 1 -11 6 5 1 7. 63. 191. <
4222 3 10 -6 -5 1 321. 155. 167. <
4222 1 -10 6 5 -1 321. 155. 167. <
4223 4 10 6 5 0 319. 446. 158. o
4223 3 10 -6 -5 0 319. 446. 158. o
4223 2 -10 -6 -5 0 319. 446. 158. o
4223 1 -10 6 5 0 319. 446. 158. o
4224 3 10 -6 -5 -1 110. 84. 153. <
4224 1 -10 6 5 1 110. 84. 153. <
4225 3 9 -6 -5 1 19. 100. 201. <
4225 1 -9 6 5 -1 19. 100. 201. <
4226 4 9 6 5 0 13446. 13151. 195. o
4226 3 9 -6 -5 0 13446. 13151. 195. o
4226 2 -9 -6 -5 0 13446. 13151. 195. o
4226 1 -9 6 5 0 13446. 13151. 195. o
4227 3 9 -6 -5 -1 12. 207. 192. <
4227 1 -9 6 5 1 12. 207. 192. <
4228 3 8 -6 -5 1 1287. 1325. 132. o
4228 1 -8 6 5 -1 1287. 1325. 132. o
4229 4 8 6 5 0 3040. 2862. 133. o
4229 3 8 -6 -5 0 3040. 2862. 133. o
4229 2 -8 -6 -5 0 3040. 2862. 133. o
4229 1 -8 6 5 0 3040. 2862. 133. o
4230 3 8 -6 -5 -1 1006. 1009. 125. o
4230 1 -8 6 5 1 1006. 1009. 125. o
4231 3 7 -6 -5 1 132. 68. 107. <
4231 1 -7 6 5 -1 132. 68. 107. <
4232 4 7 6 5 0 1912. 1984. 114. o
4232 3 7 -6 -5 0 1912. 1984. 114. o
4232 2 -7 -6 -5 0 1912. 1984. 114. o
4232 1 -7 6 5 0 1912. 1984. 114. o
4233 3 7 -6 -5 -1 96. 63. 103. <
4233 1 -7 6 5 1 96. 63. 103. <
4234 3 6 -6 -5 1 360. 100. 270. <
4234 1 -6 6 5 -1 360. 100. 270. <
4235 4 6 6 5 0 129292. 113113. 387. o
4235 3 6 -6 -5 0 129292. 113113. 387. o
4235 2 -6 -6 -5 0 129292. 113113. 387. o
4235 1 -6 6 5 0 129292. 113113. 387. o
4236 3 6 -6 -5 -1 226. 244. 266. <
4236 1 -6 6 5 1 226. 244. 266. <
4237 3 5 -6 -5 1 167. 62. 126. <
4237 1 -5 6 5 -1 167. 62. 126. <
4238 4 5 6 5 0 15408. 13315. 156. o
4238 3 5 -6 -5 0 15408. 13315. 156. o
4238 2 -5 -6 -5 0 15408. 13315. 156. o
4238 1 -5 6 5 0 15408. 13315. 156. o
4239 3 5 -6 -5 -1 434. 304. 127. o
4239 1 -5 6 5 1 434. 304. 127. o
4240 3 4 -6 -5 1 491. 429. 127. o
4240 1 -4 6 5 -1 491. 429. 127. o
4241 4 4 6 5 0 8595. 8114. 144. o
4241 3 4 -6 -5 0 8595. 8114. 144. o
4241 2 -4 -6 -5 0 8595. 8114. 144. o
4241 1 -4 6 5 0 8595. 8114. 144. o
4242 3 4 -6 -5 -1 1009. 934. 132. o
4242 1 -4 6 5 1 1009. 934. 132. o
4243 3 3 -6 -5 1 38. 32. 121. <
4243 1 -3 6 5 -1 38. 32. 121. <
4244 4 3 6 5 0 4027. 4291. 129. o
4244 3 3 -6 -5 0 4027. 4291. 129. o
4244 2 -3 -6 -5 0 4027. 4291. 129. o
4244 1 -3 6 5 0 4027. 4291. 129. o
4245 3 3 -6 -5 -1 39. 13. 116. <
4245 1 -3 6 5 1 39. 13. 116. <
4246 3 2 -6 -5 1 1. 61. 44. <
4246 1 -2 6 5 -1 1. 61. 44. <
4247 4 2 6 5 0 48547. 48298. 306. o
4247 3 2 -6 -5 0 48547. 48298. 306. o
4247 2 -2 -6 -5 0 48547. 48298. 306. o
4247 1 -2 6 5 0 48547. 48298. 306. o
4248 3 2 -6 -5 -1 251. 266. 51. o
4248 1 -2 6 5 1 251. 266. 51. o
4249 3 1 -6 -5 1 46. 19. 61. <
4249 1 -1 6 5 -1 46. 19. 61. <
4250 4 1 6 5 0 2350. 2488. 70. o
4250 3 1 -6 -5 0 2350. 2488. 70. o
4250 2 -1 -6 -5 0 2350. 2488. 70. o
4250 1 -1 6 5 0 2350. 2488. 70. o
4251 3 1 -6 -5 -1 20. 10. 60. <
4251 1 -1 6 5 1 20. 10. 60. <
4252 3 0 -6 -5 1 27. 20. 66. <
4252 1 0 6 5 -1 27. 20. 66. <
4253 4 0 6 5 0 216. 1. 66. <
4253 3 0 -6 -5 0 216. 1. 66. <
4253 2 0 -6 -5 0 216. 1. 66. <
4253 1 0 6 5 0 216. 1. 66. <
4254 3 0 -6 -5 -1 7. 5. 66. <
4254 1 0 6 5 1 7. 5. 66. <
4255 3 -1 -6 -5 1 175. 67. 76. <
4255 1 1 6 5 -1 175. 67. 76. <
4256 4 -1 6 5 0 2408. 2594. 90. o
4256 3 -1 -6 -5 0 2408. 2594. 90. o
4256 2 1 -6 -5 0 2408. 2594. 90. o
4256 1 1 6 5 0 2408. 2594. 90. o
4257 3 -1 -6 -5 -1 828. 727. 83. o
4257 1 1 6 5 1 828. 727. 83. o
4258 3 -2 -6 -5 1 375. 389. 166. o
4258 1 2 6 5 -1 375. 389. 166. o
4259 4 -2 6 5 0 48986. 48656. 235. o
4259 3 -2 -6 -5 0 48986. 48656. 235. o
4259 2 2 -6 -5 0 48986. 48656. 235. o
4259 1 2 6 5 0 48986. 48656. 235. o
4260 3 -2 -6 -5 -1 94. 153. 164. <
4260 1 2 6 5 1 94. 153. 164. <
4261 3 -3 -6 -5 1 5. 40. 75. <
4261 1 3 6 5 -1 5. 40. 75. <
4262 4 -3 6 5 0 4066. 4055. 90. o
4262 3 -3 -6 -5 0 4066. 4055. 90. o
4262 2 3 -6 -5 0 4066. 4055. 90. o
4262 1 3 6 5 0 4066. 4055. 90. o
4263 3 -3 -6 -5 -1 80. 23. 75. <
4263 1 3 6 5 1 80. 23. 75. <
4264 3 -4 -6 -5 1 94. 42. 128. <
4264 1 4 6 5 -1 94. 42. 128. <
4265 4 -4 6 5 0 8273. 8387. 127. o
4265 3 -4 -6 -5 0 8273. 8387. 127. o
4265 2 4 -6 -5 0 8273. 8387. 127. o
4265 1 4 6 5 0 8273. 8387. 127. o
4266 3 -4 -6 -5 -1 59. 36. 127. <
4266 1 4 6 5 1 59. 36. 127. <
4267 3 -5 -6 -5 1 898. 818. 113. o
4267 1 5 6 5 -1 898. 818. 113. o
4268 4 -5 6 5 0 15997. 16052. 145. o
4268 3 -5 -6 -5 0 15997. 16052. 145. o
4268 2 5 -6 -5 0 15997. 16052. 145. o
4268 1 5 6 5 0 15997. 16052. 145. o
4269 3 -5 -6 -5 -1 231. 230. 109. o
4269 1 5 6 5 1 231. 230. 109. o
4270 4 11 7 5 0 1652. 2186. 251. o
4270 3 11 -7 -5 0 1652. 2186. 251. o
4270 2 -11 -7 -5 0 1652. 2186. 251. o
4270 1 -11 7 5 0 1652. 2186. 251. o
4271 3 11 -7 -5 -1 617. 432. 243. <
4271 1 -11 7 5 1 617. 432. 243. <
4272 3 10 -7 -5 1 118. 353. 357. <
4272 1 -10 7 5 -1 118. 353. 357. <
4273 4 10 7 5 0 59702. 54802. 351. o
4273 3 10 -7 -5 0 59702. 54802. 351. o
4273 2 -10 -7 -5 0 59702. 54802. 351. o
4273 1 -10 7 5 0 59702. 54802. 351. o
4274 3 10 -7 -5 -1 531. 995. 345. o
4274 1 -10 7 5 1 531. 995. 345. o
4275 3 9 -7 -5 1 88. 396. 193. o
4275 1 -9 7 5 -1 88. 396. 193. o
4276 4 9 7 5 0 12439. 11537. 191. o
4276 3 9 -7 -5 0 12439. 11537. 191. o
4276 2 -9 -7 -5 0 12439. 11537. 191. o
4276 1 -9 7 5 0 12439. 11537. 191. o
4277 3 9 -7 -5 -1 57. 41. 189. <
4277 1 -9 7 5 1 57. 41. 189. <
4278 3 8 -7 -5 1 155. 1111. 183. o
4278 1 -8 7 5 -1 155. 1111. 183. o
4279 4 8 7 5 0 14637. 11757. 182. o
4279 3 8 -7 -5 0 14637. 11757. 182. o
4279 2 -8 -7 -5 0 14637. 11757. 182. o
4279 1 -8 7 5 0 14637. 11757. 182. o
4280 3 8 -7 -5 -1 66. 5. 182. <
4280 1 -8 7 5 1 66. 5. 182. <
4281 3 7 -7 -5 1 2069. 1830. 123. o
4281 1 -7 7 5 -1 2069. 1830. 123. o
4282 4 7 7 5 0 2525. 2710. 140. o
4282 3 7 -7 -5 0 2525. 2710. 140. o
4282 2 -7 -7 -5 0 2525. 2710. 140. o
4282 1 -7 7 5 0 2525. 2710. 140. o
4283 3 7 -7 -5 -1 1924. 1688. 140. o
4283 1 -7 7 5 1 1924. 1688. 140. o
4284 3 6 -7 -5 1 27. 71. 101. <
4284 1 -6 7 5 -1 27. 71. 101. <
4285 4 6 7 5 0 1904. 1968. 111. o
4285 3 6 -7 -5 0 1904. 1968. 111. o
4285 2 -6 -7 -5 0 1904. 1968. 111. o
4285 1 -6 7 5 0 1904. 1968. 111. o
4286 3 6 -7 -5 -1 64. 57. 100. <
4286 1 -6 7 5 1 64. 57. 100. <
4287 3 5 -7 -5 1 169. 21. 107. <
4287 1 -5 7 5 -1 169. 21. 107. <
4288 4 5 7 5 0 4471. 4361. 123. o
4288 3 5 -7 -5 0 4471. 4361. 123. o
4288 2 -5 -7 -5 0 4471. 4361. 123. o
4288 1 -5 7 5 0 4471. 4361. 123. o
4289 3 5 -7 -5 -1 603. 443. 110. o
4289 1 -5 7 5 1 603. 443. 110. o
4290 3 4 -7 -5 1 360. 316. 61. o
4290 1 -4 7 5 -1 360. 316. 61. o
4291 4 4 7 5 0 1686. 1526. 83. o
4291 3 4 -7 -5 0 1686. 1526. 83. o
4291 2 -4 -7 -5 0 1686. 1526. 83. o
4291 1 -4 7 5 0 1686. 1526. 83. o
4292 3 4 -7 -5 -1 16. 23. 52. <
4292 1 -4 7 5 1 16. 23. 52. <
4293 3 3 -7 -5 1 1875. 2029. 95. o
4293 1 -3 7 5 -1 1875. 2029. 95. o
4294 4 3 7 5 0 8163. 7630. 142. o
4294 3 3 -7 -5 0 8163. 7630. 142. o
4294 2 -3 -7 -5 0 8163. 7630. 142. o
4294 1 -3 7 5 0 8163. 7630. 142. o
4295 3 3 -7 -5 -1 541. 669. 71. o
4295 1 -3 7 5 1 541. 669. 71. o
4296 3 2 -7 -5 1 709. 630. 75. o
4296 1 -2 7 5 -1 709. 630. 75. o
4297 4 2 7 5 0 21056. 20807. 228. o
4297 3 2 -7 -5 0 21056. 20807. 228. o
4297 2 -2 -7 -5 0 21056. 20807. 228. o
4297 1 -2 7 5 0 21056. 20807. 228. o
4298 3 2 -7 -5 -1 345. 343. 62. o
4298 1 -2 7 5 1 345. 343. 62. o
4299 3 1 -7 -5 1 518. 592. 48. o
4299 1 -1 7 5 -1 518. 592. 48. o
4300 4 1 7 5 0 20421. 19196. 150. o
4300 3 1 -7 -5 0 20421. 19196. 150. o
4300 2 -1 -7 -5 0 20421. 19196. 150. o
4300 1 -1 7 5 0 20421. 19196. 150. o
4301 3 1 -7 -5 -1 440. 440. 44. o
4301 1 -1 7 5 1 440. 440. 44. o
4302 3 0 -7 -5 1 290. 262. 59. o
4302 1 0 7 5 -1 290. 262. 59. o
4303 4 0 7 5 0 1049. 1038. 65. o
4303 3 0 -7 -5 0 1049. 1038. 65. o
4303 2 0 -7 -5 0 1049. 1038. 65. o
4303 1 0 7 5 0 1049. 1038. 65. o
4304 3 0 -7 -5 -1 47. 40. 81. <
4304 1 0 7 5 1 47. 40. 81. <
4305 3 -1 -7 -5 1 377. 489. 139. o
4305 1 1 7 5 -1 377. 489. 139. o
4306 4 -1 7 5 0 19943. 21754. 183. o
4306 3 -1 -7 -5 0 19943. 21754. 183. o
4306 2 1 -7 -5 0 19943. 21754. 183. o
4306 1 1 7 5 0 19943. 21754. 183. o
4307 3 -1 -7 -5 -1 177. 161. 136. <
4307 1 1 7 5 1 177. 161. 136. <
4308 3 -2 -7 -5 1 605. 651. 131. o
4308 1 2 7 5 -1 605. 651. 131. o
4309 4 -2 7 5 0 21453. 19556. 164. o
4309 3 -2 -7 -5 0 21453. 19556. 164. o
4309 2 2 -7 -5 0 21453. 19556. 164. o
4309 1 2 7 5 0 21453. 19556. 164. o
4310 3 -2 -7 -5 -1 227. 267. 129. o
4310 1 2 7 5 1 227. 267. 129. o
4311 3 -3 -7 -5 1 285. 193. 134. <
4311 1 3 7 5 -1 285. 193. 134. <
4312 4 -3 7 5 0 8041. 7765. 133. o
4312 3 -3 -7 -5 0 8041. 7765. 133. o
4312 2 3 -7 -5 0 8041. 7765. 133. o
4312 1 3 7 5 0 8041. 7765. 133. o
4313 3 -3 -7 -5 -1 415. 328. 131. o
4313 1 3 7 5 1 415. 328. 131. o
4314 3 -4 -7 -5 1 101. 65. 109. <
4314 1 4 7 5 -1 101. 65. 109. <
4315 4 -4 7 5 0 1801. 2092. 108. o
4315 3 -4 -7 -5 0 1801. 2092. 108. o
4315 2 4 -7 -5 0 1801. 2092. 108. o
4315 1 4 7 5 0 1801. 2092. 108. o
4316 3 -4 -7 -5 -1 381. 272. 107. o
4316 1 4 7 5 1 381. 272. 107. o
4317 3 -5 -7 -5 1 345. 394. 88. o
4317 1 5 7 5 -1 345. 394. 88. o
4318 4 -5 7 5 0 4341. 4881. 103. o
4318 3 -5 -7 -5 0 4341. 4881. 103. o
4318 2 5 -7 -5 0 4341. 4881. 103. o
4318 1 5 7 5 0 4341. 4881. 103. o
4319 3 -5 -7 -5 -1 134. 97. 86. <
4319 1 5 7 5 1 134. 97. 86. <
4320 3 -6 -7 -5 1 85. 20. 64. <
4320 1 6 7 5 -1 85. 20. 64. <
4321 4 -6 7 5 0 1950. 2146. 118. o
4321 3 -6 -7 -5 0 1950. 2146. 118. o
4321 2 6 -7 -5 0 1950. 2146. 118. o
4321 1 6 7 5 0 1950. 2146. 118. o
4322 3 -6 -7 -5 -1 137. 109. 67. <
4322 1 6 7 5 1 137. 109. 67. <
4323 3 10 -8 -5 1 948. 1230. 184. o
4323 1 -10 8 5 -1 948. 1230. 184. o
4324 4 10 8 5 0 6012. 5309. 182. o
4324 3 10 -8 -5 0 6012. 5309. 182. o
4324 2 -10 -8 -5 0 6012. 5309. 182. o
4324 1 -10 8 5 0 6012. 5309. 182. o
4325 3 10 -8 -5 -1 593. 409. 180. o
4325 1 -10 8 5 1 593. 409. 180. o
4326 3 9 -8 -5 1 811. 1828. 252. o
4326 1 -9 8 5 -1 811. 1828. 252. o
4327 4 9 8 5 0 26972. 24392. 251. o
4327 3 9 -8 -5 0 26972. 24392. 251. o
4327 2 -9 -8 -5 0 26972. 24392. 251. o
4327 1 -9 8 5 0 26972. 24392. 251. o
4328 3 9 -8 -5 -1 235. 23. 250. <
4328 1 -9 8 5 1 235. 23. 250. <
4329 3 8 -8 -5 1 12. -13. 181. <
4329 1 -8 8 5 -1 12. -13. 181. <
4330 4 8 8 5 0 1259. 1632. 182. o
4330 3 8 -8 -5 0 1259. 1632. 182. o
4330 2 -8 -8 -5 0 1259. 1632. 182. o
4330 1 -8 8 5 0 1259. 1632. 182. o
4331 3 8 -8 -5 -1 87. 32. 184. <
4331 1 -8 8 5 1 87. 32. 184. <
4332 3 7 -8 -5 1 6. 37. 187. <
4332 1 -7 8 5 -1 6. 37. 187. <
4333 4 7 8 5 0 14120. 12899. 187. o
4333 3 7 -8 -5 0 14120. 12899. 187. o
4333 2 -7 -8 -5 0 14120. 12899. 187. o
4333 1 -7 8 5 0 14120. 12899. 187. o
4334 3 7 -8 -5 -1 130. 131. 187. <
4334 1 -7 8 5 1 130. 131. 187. <
4335 3 6 -8 -5 1 990. 911. 142. o
4335 1 -6 8 5 -1 990. 911. 142. o
4336 4 6 8 5 0 2368. 2842. 142. o
4336 3 6 -8 -5 0 2368. 2842. 142. o
4336 2 -6 -8 -5 0 2368. 2842. 142. o
4336 1 -6 8 5 0 2368. 2842. 142. o
4337 3 6 -8 -5 -1 1152. 593. 142. o
4337 1 -6 8 5 1 1152. 593. 142. o
4338 3 5 -8 -5 1 320. 301. 272. <
4338 1 -5 8 5 -1 320. 301. 272. <
4339 4 5 8 5 0 19230. 19404. 275. o
4339 3 5 -8 -5 0 19230. 19404. 275. o
4339 2 -5 -8 -5 0 19230. 19404. 275. o
4339 1 -5 8 5 0 19230. 19404. 275. o
4340 3 5 -8 -5 -1 71. 67. 279. <
4340 1 -5 8 5 1 71. 67. 279. <
4341 3 4 -8 -5 1 141. 109. 181. <
4341 1 -4 8 5 -1 141. 109. 181. <
4342 4 4 8 5 0 41996. 38084. 252. o
4342 3 4 -8 -5 0 41996. 38084. 252. o
4342 2 -4 -8 -5 0 41996. 38084. 252. o
4342 1 -4 8 5 0 41996. 38084. 252. o
4343 3 4 -8 -5 -1 41. 94. 179. <
4343 1 -4 8 5 1 41. 94. 179. <
4344 3 3 -8 -5 1 36. 32. 171. <
4344 1 -3 8 5 -1 36. 32. 171. <
4345 4 3 8 5 0 32674. 29896. 229. o
4345 3 3 -8 -5 0 32674. 29896. 229. o
4345 2 -3 -8 -5 0 32674. 29896. 229. o
4345 1 -3 8 5 0 32674. 29896. 229. o
4346 3 3 -8 -5 -1 79. 89. 171. <
4346 1 -3 8 5 1 79. 89. 171. <
4347 3 2 -8 -5 1 171. 110. 168. <
4347 1 -2 8 5 -1 171. 110. 168. <
4348 4 2 8 5 0 20367. 20827. 213. o
4348 3 2 -8 -5 0 20367. 20827. 213. o
4348 2 -2 -8 -5 0 20367. 20827. 213. o
4348 1 -2 8 5 0 20367. 20827. 213. o
4349 3 2 -8 -5 -1 92. 152. 215. <
4349 1 -2 8 5 1 92. 152. 215. <
4350 3 1 -8 -5 1 170. 130. 113. <
4350 1 -1 8 5 -1 170. 130. 113. <
4351 4 1 8 5 0 3867. 4116. 128. o
4351 3 1 -8 -5 0 3867. 4116. 128. o
4351 2 -1 -8 -5 0 3867. 4116. 128. o
4351 1 -1 8 5 0 3867. 4116. 128. o
4352 3 1 -8 -5 -1 383. 347. 81. o
4352 1 -1 8 5 1 383. 347. 81. o
4353 3 0 -8 -5 1 872. 941. 73. o
4353 1 0 8 5 -1 872. 941. 73. o
4354 4 0 8 5 0 1364. 1367. 74. o
4354 3 0 -8 -5 0 1364. 1367. 74. o
4354 2 0 -8 -5 0 1364. 1367. 74. o
4354 1 0 8 5 0 1364. 1367. 74. o
4355 3 0 -8 -5 -1 764. 599. 71. o
4355 1 0 8 5 1 764. 599. 71. o
4356 3 -1 -8 -5 1 72. 17. 98. <
4356 1 1 8 5 -1 72. 17. 98. <
4357 4 -1 8 5 0 3801. 3915. 112. o
4357 3 -1 -8 -5 0 3801. 3915. 112. o
4357 2 1 -8 -5 0 3801. 3915. 112. o
4357 1 1 8 5 0 3801. 3915. 112. o
4358 3 -1 -8 -5 -1 13. 48. 97. <
4358 1 1 8 5 1 13. 48. 97. <
4359 3 -2 -8 -5 1 43. 114. 138. <
4359 1 2 8 5 -1 43. 114. 138. <
4360 4 -2 8 5 0 20299. 19704. 177. o
4360 3 -2 -8 -5 0 20299. 19704. 177. o
4360 2 2 -8 -5 0 20299. 19704. 177. o
4360 1 2 8 5 0 20299. 19704. 177. o
4361 3 -2 -8 -5 -1 44. 83. 175. <
4361 1 2 8 5 1 44. 83. 175. <
4362 3 -3 -8 -5 1 302. 112. 212. <
4362 1 3 8 5 -1 302. 112. 212. <
4363 4 -3 8 5 0 33180. 31729. 210. o
4363 3 -3 -8 -5 0 33180. 31729. 210. o
4363 2 3 -8 -5 0 33180. 31729. 210. o
4363 1 3 8 5 0 33180. 31729. 210. o
4364 3 -3 -8 -5 -1 192. 79. 209. <
4364 1 3 8 5 1 192. 79. 209. <
4365 3 -4 -8 -5 1 55. 525. 348. <
4365 1 4 8 5 -1 55. 525. 348. <
4366 4 -4 8 5 0 42894. 48704. 348. o
4366 3 -4 -8 -5 0 42894. 48704. 348. o
4366 2 4 -8 -5 0 42894. 48704. 348. o
4366 1 4 8 5 0 42894. 48704. 348. o
4367 3 -4 -8 -5 -1 615. 580. 348. <
4367 1 4 8 5 1 615. 580. 348. <
4368 3 -5 -8 -5 1 275. 184. 59. o
4368 1 5 8 5 -1 275. 184. 59. o
4369 4 -5 8 5 0 18878. 16780. 236. o
4369 3 -5 -8 -5 0 18878. 16780. 236. o
4369 2 5 -8 -5 0 18878. 16780. 236. o
4369 1 5 8 5 0 18878. 16780. 236. o
4370 3 -5 -8 -5 -1 152. 42. 234. <
4370 1 5 8 5 1 152. 42. 234. <
4371 3 -6 -8 -5 1 144. 81. 61. <
4371 1 6 8 5 -1 144. 81. 61. <
4372 4 -6 8 5 0 2198. 2193. 112. o
4372 3 -6 -8 -5 0 2198. 2193. 112. o
4372 2 6 -8 -5 0 2198. 2193. 112. o
4372 1 6 8 5 0 2198. 2193. 112. o
4373 3 -6 -8 -5 -1 8. 23. 64. <
4373 1 6 8 5 1 8. 23. 64. <
4374 3 -7 -8 -5 1 606. 619. 86. o
4374 1 7 8 5 -1 606. 619. 86. o
4375 4 -7 8 5 0 14125. 13441. 231. o
4375 3 -7 -8 -5 0 14125. 13441. 231. o
4375 2 7 -8 -5 0 14125. 13441. 231. o
4375 1 7 8 5 0 14125. 13441. 231. o
4376 3 -7 -8 -5 -1 213. 168. 75. o
4376 1 7 8 5 1 213. 168. 75. o
4377 3 9 -9 -5 1 290. 1453. 202. o
4377 1 -9 9 5 -1 290. 1453. 202. o
4378 4 9 9 5 0 12079. 10237. 202. o
4378 3 9 -9 -5 0 12079. 10237. 202. o
4378 2 -9 -9 -5 0 12079. 10237. 202. o
4378 1 -9 9 5 0 12079. 10237. 202. o
4379 3 9 -9 -5 -1 473. 126. 202. <
4379 1 -9 9 5 1 473. 126. 202. <
4380 3 8 -9 -5 1 103. 278. 250. <
4380 1 -8 9 5 -1 103. 278. 250. <
4381 4 8 9 5 0 25122. 24372. 249. o
4381 3 8 -9 -5 0 25122. 24372. 249. o
4381 2 -8 -9 -5 0 25122. 24372. 249. o
4381 1 -8 9 5 0 25122. 24372. 249. o
4382 3 8 -9 -5 -1 393. 331. 249. <
4382 1 -8 9 5 1 393. 331. 249. <
4383 3 7 -9 -5 1 70. 171. 272. <
4383 1 -7 9 5 -1 70. 171. 272. <
4384 4 7 9 5 0 11704. 12544. 274. o
4384 3 7 -9 -5 0 11704. 12544. 274. o
4384 2 -7 -9 -5 0 11704. 12544. 274. o
4384 1 -7 9 5 0 11704. 12544. 274. o
4385 3 7 -9 -5 -1 118. 47. 277. <
4385 1 -7 9 5 1 118. 47. 277. <
4386 3 6 -9 -5 1 60. 97. 180. <
4386 1 -6 9 5 -1 60. 97. 180. <
4387 4 6 9 5 0 11400. 11008. 180. o
4387 3 6 -9 -5 0 11400. 11008. 180. o
4387 2 -6 -9 -5 0 11400. 11008. 180. o
4387 1 -6 9 5 0 11400. 11008. 180. o
4388 3 6 -9 -5 -1 69. 37. 181. <
4388 1 -6 9 5 1 69. 37. 181. <
4389 3 5 -9 -5 1 722. 586. 85. o
4389 1 -5 9 5 -1 722. 586. 85. o
4390 4 5 9 5 0 13900. 14877. 262. o
4390 3 5 -9 -5 0 13900. 14877. 262. o
4390 2 -5 -9 -5 0 13900. 14877. 262. o
4390 1 -5 9 5 0 13900. 14877. 262. o
4391 3 5 -9 -5 -1 785. 384. 265. <
4391 1 -5 9 5 1 785. 384. 265. <
4392 3 4 -9 -5 1 76. 41. 182. <
4392 1 -4 9 5 -1 76. 41. 182. <
4393 4 4 9 5 0 15173. 13511. 183. o
4393 3 4 -9 -5 0 15173. 13511. 183. o
4393 2 -4 -9 -5 0 15173. 13511. 183. o
4393 1 -4 9 5 0 15173. 13511. 183. o
4394 3 4 -9 -5 -1 153. 159. 184. <
4394 1 -4 9 5 1 153. 159. 184. <
4395 3 3 -9 -5 1 334. 246. 252. <
4395 1 -3 9 5 -1 334. 246. 252. <
4396 4 3 9 5 0 10738. 10728. 256. o
4396 3 3 -9 -5 0 10738. 10728. 256. o
4396 2 -3 -9 -5 0 10738. 10728. 256. o
4396 1 -3 9 5 0 10738. 10728. 256. o
4397 3 3 -9 -5 -1 965. 740. 261. o
4397 1 -3 9 5 1 965. 740. 261. o
4398 3 2 -9 -5 1 5. 13. 140. <
4398 1 -2 9 5 -1 5. 13. 140. <
4399 4 2 9 5 0 2193. 2430. 141. o
4399 3 2 -9 -5 0 2193. 2430. 141. o
4399 2 -2 -9 -5 0 2193. 2430. 141. o
4399 1 -2 9 5 0 2193. 2430. 141. o
4400 3 2 -9 -5 -1 215. 156. 142. <
4400 1 -2 9 5 1 215. 156. 142. <
4401 3 1 -9 -5 1 3. 26. 128. <
4401 1 -1 9 5 -1 3. 26. 128. <
4402 4 1 9 5 0 4377. 4752. 156. o
4402 3 1 -9 -5 0 4377. 4752. 156. o
4402 2 -1 -9 -5 0 4377. 4752. 156. o
4402 1 -1 9 5 0 4377. 4752. 156. o
4403 3 1 -9 -5 -1 113. 40. 153. <
4403 1 -1 9 5 1 113. 40. 153. <
4404 3 0 -9 -5 1 1383. 1564. 185. o
4404 1 0 9 5 -1 1383. 1564. 185. o
4405 4 0 9 5 0 72936. 71661. 268. o
4405 3 0 -9 -5 0 72936. 71661. 268. o
4405 2 0 -9 -5 0 72936. 71661. 268. o
4405 1 0 9 5 0 72936. 71661. 268. o
4406 3 0 -9 -5 -1 11. 144. 179. <
4406 1 0 9 5 1 11. 144. 179. <
4407 3 -1 -9 -5 1 1041. 1103. 87. o
4407 1 1 9 5 -1 1041. 1103. 87. o
4408 4 -1 9 5 0 4615. 4725. 102. o
4408 3 -1 -9 -5 0 4615. 4725. 102. o
4408 2 1 -9 -5 0 4615. 4725. 102. o
4408 1 1 9 5 0 4615. 4725. 102. o
4409 3 -1 -9 -5 -1 530. 554. 94. o
4409 1 1 9 5 1 530. 554. 94. o
4410 3 -2 -9 -5 1 167. 359. 115. o
4410 1 2 9 5 -1 167. 359. 115. o
4411 4 -2 9 5 0 2203. 1279. 114. o
4411 3 -2 -9 -5 0 2203. 1279. 114. o
4411 2 2 -9 -5 0 2203. 1279. 114. o
4411 1 2 9 5 0 2203. 1279. 114. o
4412 3 -2 -9 -5 -1 21. 355. 113. o
4412 1 2 9 5 1 21. 355. 113. o
4413 3 -3 -9 -5 1 61. 66. 232. <
4413 1 3 9 5 -1 61. 66. 232. <
4414 4 -3 9 5 0 11050. 11985. 232. o
4414 3 -3 -9 -5 0 11050. 11985. 232. o
4414 2 3 -9 -5 0 11050. 11985. 232. o
4414 1 3 9 5 0 11050. 11985. 232. o
4415 3 -3 -9 -5 -1 29. 113. 232. <
4415 1 3 9 5 1 29. 113. 232. <
4416 3 -5 -9 -5 1 364. 428. 217. <
4416 1 5 9 5 -1 364. 428. 217. <
4417 4 -5 9 5 0 14313. 12880. 215. o
4417 3 -5 -9 -5 0 14313. 12880. 215. o
4417 2 5 -9 -5 0 14313. 12880. 215. o
4417 1 5 9 5 0 14313. 12880. 215. o
4418 3 -5 -9 -5 -1 139. 38. 58. <
4418 1 5 9 5 1 139. 38. 58. <
4419 3 -6 -9 -5 1 323. 306. 66. o
4419 1 6 9 5 -1 323. 306. 66. o
4420 4 -6 9 5 0 11631. 11435. 202. o
4420 3 -6 -9 -5 0 11631. 11435. 202. o
4420 2 6 -9 -5 0 11631. 11435. 202. o
4420 1 6 9 5 0 11631. 11435. 202. o
4421 3 -6 -9 -5 -1 340. 361. 71. o
4421 1 6 9 5 1 340. 361. 71. o
4422 3 -7 -9 -5 1 164. 64. 67. <
4422 1 7 9 5 -1 164. 64. 67. <
4423 4 -7 9 5 0 12182. 10766. 211. o
4423 3 -7 -9 -5 0 12182. 10766. 211. o
4423 2 7 -9 -5 0 12182. 10766. 211. o
4423 1 7 9 5 0 12182. 10766. 211. o
4424 3 -7 -9 -5 -1 3. 89. 71. <
4424 1 7 9 5 1 3. 89. 71. <
4425 3 8 -10 -5 1 465. 467. 263. <
4425 1 -8 10 5 -1 465. 467. 263. <
4426 4 8 10 5 0 5496. 5743. 265. o
4426 3 8 -10 -5 0 5496. 5743. 265. o
4426 2 -8 -10 -5 0 5496. 5743. 265. o
4426 1 -8 10 5 0 5496. 5743. 265. o
4427 3 8 -10 -5 -1 790. 737. 267. o
4427 1 -8 10 5 1 790. 737. 267. o
4428 3 7 -10 -5 1 282. 497. 328. <
4428 1 -7 10 5 -1 282. 497. 328. <
4429 4 7 10 5 0 51442. 49734. 328. o
4429 3 7 -10 -5 0 51442. 49734. 328. o
4429 2 -7 -10 -5 0 51442. 49734. 328. o
4429 1 -7 10 5 0 51442. 49734. 328. o
4430 3 7 -10 -5 -1 177. 227. 329. <
4430 1 -7 10 5 1 177. 227. 329. <
4431 3 6 -10 -5 1 223. 90. 138. <
4431 1 -6 10 5 -1 223. 90. 138. <
4432 4 6 10 5 0 413. 385. 138. o
4432 3 6 -10 -5 0 413. 385. 138. o
4432 2 -6 -10 -5 0 413. 385. 138. o
4432 1 -6 10 5 0 413. 385. 138. o
4433 3 6 -10 -5 -1 201. 134. 138. <
4433 1 -6 10 5 1 201. 134. 138. <
4434 3 5 -10 -5 1 152. 71. 211. <
4434 1 -5 10 5 -1 152. 71. 211. <
4435 4 5 10 5 0 2078. 1721. 214. o
4435 3 5 -10 -5 0 2078. 1721. 214. o
4435 2 -5 -10 -5 0 2078. 1721. 214. o
4435 1 -5 10 5 0 2078. 1721. 214. o
4436 3 5 -10 -5 -1 150. 43. 217. <
4436 1 -5 10 5 1 150. 43. 217. <
4437 3 4 -10 -5 1 15. 8. 220. <
4437 1 -4 10 5 -1 15. 8. 220. <
4438 4 4 10 5 0 3534. 3448. 224. o
4438 3 4 -10 -5 0 3534. 3448. 224. o
4438 2 -4 -10 -5 0 3534. 3448. 224. o
4438 1 -4 10 5 0 3534. 3448. 224. o
4439 3 4 -10 -5 -1 33. 31. 227. <
4439 1 -4 10 5 1 33. 31. 227. <
4440 3 3 -10 -5 1 146. 152. 143. <
4440 1 -3 10 5 -1 146. 152. 143. <
4441 4 3 10 5 0 2911. 2911. 144. o
4441 3 3 -10 -5 0 2911. 2911. 144. o
4441 2 -3 -10 -5 0 2911. 2911. 144. o
4441 1 -3 10 5 0 2911. 2911. 144. o
4442 3 3 -10 -5 -1 219. 224. 146. <
4442 1 -3 10 5 1 219. 224. 146. <
4443 3 2 -10 -5 1 1670. 1627. 158. o
4443 1 -2 10 5 -1 1670. 1627. 158. o
4444 4 2 10 5 0 2308. 2152. 152. o
4444 3 2 -10 -5 0 2308. 2152. 152. o
4444 2 -2 -10 -5 0 2308. 2152. 152. o
4444 1 -2 10 5 0 2308. 2152. 152. o
4445 3 2 -10 -5 -1 1016. 961. 148. o
4445 1 -2 10 5 1 1016. 961. 148. o
4446 3 1 -10 -5 1 259. 255. 194. <
4446 1 -1 10 5 -1 259. 255. 194. <
4447 4 1 10 5 0 41516. 38814. 266. o
4447 3 1 -10 -5 0 41516. 38814. 266. o
4447 2 -1 -10 -5 0 41516. 38814. 266. o
4447 1 -1 10 5 0 41516. 38814. 266. o
4448 3 1 -10 -5 -1 101. 135. 191. <
4448 1 -1 10 5 1 101. 135. 191. <
4449 3 0 -10 -5 1 157. 170. 105. <
4449 1 0 10 5 -1 157. 170. 105. <
4450 4 0 10 5 0 346. 234. 118. <
4450 3 0 -10 -5 0 346. 234. 118. <
4450 2 0 -10 -5 0 346. 234. 118. <
4450 1 0 10 5 0 346. 234. 118. <
4451 3 0 -10 -5 -1 44. 120. 115. <
4451 1 0 10 5 1 44. 120. 115. <
4452 3 -1 -10 -5 1 133. 209. 190. <
4452 1 1 10 5 -1 133. 209. 190. <
4453 4 -1 10 5 0 41346. 41841. 218. o
4453 3 -1 -10 -5 0 41346. 41841. 218. o
4453 2 1 -10 -5 0 41346. 41841. 218. o
4453 1 1 10 5 0 41346. 41841. 218. o
4454 3 -1 -10 -5 -1 37. 73. 186. <
4454 1 1 10 5 1 37. 73. 186. <
4455 3 -2 -10 -5 1 654. 656. 97. o
4455 1 2 10 5 -1 654. 656. 97. o
4456 4 -2 10 5 0 2066. 2333. 100. o
4456 3 -2 -10 -5 0 2066. 2333. 100. o
4456 2 2 -10 -5 0 2066. 2333. 100. o
4456 1 2 10 5 0 2066. 2333. 100. o
4457 3 -2 -10 -5 -1 674. 594. 97. o
4457 1 2 10 5 1 674. 594. 97. o
4458 3 -3 -10 -5 1 507. 509. 167. o
4458 1 3 10 5 -1 507. 509. 167. o
4459 4 -3 10 5 0 2927. 2443. 164. o
4459 3 -3 -10 -5 0 2927. 2443. 164. o
4459 2 3 -10 -5 0 2927. 2443. 164. o
4459 1 3 10 5 0 2927. 2443. 164. o
4460 3 -3 -10 -5 -1 490. 406. 162. o
4460 1 3 10 5 1 490. 406. 162. o
4461 3 -4 -10 -5 1 81. 59. 167. <
4461 1 4 10 5 -1 81. 59. 167. <
4462 4 -4 10 5 0 3774. 3132. 166. o
4462 3 -4 -10 -5 0 3774. 3132. 166. o
4462 2 4 -10 -5 0 3774. 3132. 166. o
4462 1 4 10 5 0 3774. 3132. 166. o
4463 3 -4 -10 -5 -1 9. 22. 164. <
4463 1 4 10 5 1 9. 22. 164. <
4464 3 -5 -10 -5 1 3. 14. 163. <
4464 1 5 10 5 -1 3. 14. 163. <
4465 4 -5 10 5 0 2266. 1831. 161. o
4465 3 -5 -10 -5 0 2266. 1831. 161. o
4465 2 5 -10 -5 0 2266. 1831. 161. o
4465 1 5 10 5 0 2266. 1831. 161. o
4466 3 -5 -10 -5 -1 41. 22. 160. <
4466 1 5 10 5 1 41. 22. 160. <
4467 3 -6 -10 -5 1 59. 27. 119. <
4467 1 6 10 5 -1 59. 27. 119. <
4468 4 -6 10 5 0 457. 258. 118. o
4468 3 -6 -10 -5 0 457. 258. 118. o
4468 2 6 -10 -5 0 457. 258. 118. o
4468 1 6 10 5 0 457. 258. 118. o
4469 3 -6 -10 -5 -1 156. 168. 64. o
4469 1 6 10 5 1 156. 168. 64. o
4470 3 7 -11 -5 1 646. 639. 177. o
4470 1 -7 11 5 -1 646. 639. 177. o
4471 4 7 11 5 0 1620. 1274. 175. o
4471 3 7 -11 -5 0 1620. 1274. 175. o
4471 2 -7 -11 -5 0 1620. 1274. 175. o
4471 1 -7 11 5 0 1620. 1274. 175. o
4472 3 6 -11 -5 1 176. 30. 161. <
4472 1 -6 11 5 -1 176. 30. 161. <
4473 4 6 11 5 0 2602. 2594. 162. o
4473 3 6 -11 -5 0 2602. 2594. 162. o
4473 2 -6 -11 -5 0 2602. 2594. 162. o
4473 1 -6 11 5 0 2602. 2594. 162. o
4474 3 6 -11 -5 -1 413. 91. 162. <
4474 1 -6 11 5 1 413. 91. 162. <
4475 3 5 -11 -5 1 332. 162. 290. <
4475 1 -5 11 5 -1 332. 162. 290. <
4476 4 5 11 5 0 7352. 8363. 293. o
4476 3 5 -11 -5 0 7352. 8363. 293. o
4476 2 -5 -11 -5 0 7352. 8363. 293. o
4476 1 -5 11 5 0 7352. 8363. 293. o
4477 3 5 -11 -5 -1 600. 422. 298. <
4477 1 -5 11 5 1 600. 422. 298. <
4478 3 4 -11 -5 1 283. 134. 405. <
4478 1 -4 11 5 -1 283. 134. 405. <
4479 4 4 11 5 0 24796. 27705. 412. o
4479 3 4 -11 -5 0 24796. 27705. 412. o
4479 2 -4 -11 -5 0 24796. 27705. 412. o
4479 1 -4 11 5 0 24796. 27705. 412. o
4480 3 4 -11 -5 -1 284. 145. 385. <
4480 1 -4 11 5 1 284. 145. 385. <
4481 3 3 -11 -5 1 208. -24. 333. <
4481 1 -3 11 5 -1 208. -24. 333. <
4482 4 3 11 5 0 18715. 18289. 320. o
4482 3 3 -11 -5 0 18715. 18289. 320. o
4482 2 -3 -11 -5 0 18715. 18289. 320. o
4482 1 -3 11 5 0 18715. 18289. 320. o
4483 3 3 -11 -5 -1 6. -12. 310. <
4483 1 -3 11 5 1 6. -12. 310. <
4484 3 2 -11 -5 1 9. 47. 136. <
4484 1 -2 11 5 -1 9. 47. 136. <
4485 4 2 11 5 0 4726. 4333. 133. o
4485 3 2 -11 -5 0 4726. 4333. 133. o
4485 2 -2 -11 -5 0 4726. 4333. 133. o
4485 1 -2 11 5 0 4726. 4333. 133. o
4486 3 2 -11 -5 -1 154. 168. 101. <
4486 1 -2 11 5 1 154. 168. 101. <
4487 3 1 -11 -5 1 192. 186. 152. <
4487 1 -1 11 5 -1 192. 186. 152. <
4488 4 1 11 5 0 4879. 4711. 149. o
4488 3 1 -11 -5 0 4879. 4711. 149. o
4488 2 -1 -11 -5 0 4879. 4711. 149. o
4488 1 -1 11 5 0 4879. 4711. 149. o
4489 3 1 -11 -5 -1 844. 691. 146. o
4489 1 -1 11 5 1 844. 691. 146. o
4490 3 0 -11 -5 1 65. 48. 153. <
4490 1 0 11 5 -1 65. 48. 153. <
4491 4 0 11 5 0 6932. 6627. 151. o
4491 3 0 -11 -5 0 6932. 6627. 151. o
4491 2 0 -11 -5 0 6932. 6627. 151. o
4491 1 0 11 5 0 6932. 6627. 151. o
4492 3 0 -11 -5 -1 271. 187. 148. <
4492 1 0 11 5 1 271. 187. 148. <
4493 3 -1 -11 -5 1 159. 50. 114. <
4493 1 1 11 5 -1 159. 50. 114. <
4494 4 -1 11 5 0 4953. 4564. 112. o
4494 3 -1 -11 -5 0 4953. 4564. 112. o
4494 2 1 -11 -5 0 4953. 4564. 112. o
4494 1 1 11 5 0 4953. 4564. 112. o
4495 3 -1 -11 -5 -1 135. 89. 111. <
4495 1 1 11 5 1 135. 89. 111. <
4496 3 -2 -11 -5 1 42. 37. 138. <
4496 1 2 11 5 -1 42. 37. 138. <
4497 4 -2 11 5 0 4482. 4743. 137. o
4497 3 -2 -11 -5 0 4482. 4743. 137. o
4497 2 2 -11 -5 0 4482. 4743. 137. o
4497 1 2 11 5 0 4482. 4743. 137. o
4498 3 -2 -11 -5 -1 128. 122. 135. <
4498 1 2 11 5 1 128. 122. 135. <
4499 3 -3 -11 -5 1 210. 188. 204. <
4499 1 3 11 5 -1 210. 188. 204. <
4500 4 -3 11 5 0 19094. 18735. 202. o
4500 3 -3 -11 -5 0 19094. 18735. 202. o
4500 2 3 -11 -5 0 19094. 18735. 202. o
4500 1 3 11 5 0 19094. 18735. 202. o
4501 3 -3 -11 -5 -1 126. 61. 200. <
4501 1 3 11 5 1 126. 61. 200. <
4502 3 -5 -11 -5 1 323. 105. 207. <
4502 1 5 11 5 -1 323. 105. 207. <
4503 4 -5 11 5 0 7390. 7747. 205. o
4503 3 -5 -11 -5 0 7390. 7747. 205. o
4503 2 5 -11 -5 0 7390. 7747. 205. o
4503 1 5 11 5 0 7390. 7747. 205. o
4504 3 -5 -11 -5 -1 144. 160. 203. <
4504 1 5 11 5 1 144. 160. 203. <
4505 3 -6 -11 -5 1 268. 86. 175. <
4505 1 6 11 5 -1 268. 86. 175. <
4506 4 -6 11 5 0 2733. 2415. 173. o
4506 3 -6 -11 -5 0 2733. 2415. 173. o
4506 2 6 -11 -5 0 2733. 2415. 173. o
4506 1 6 11 5 0 2733. 2415. 173. o
4507 3 -6 -11 -5 -1 13. 10. 172. <
4507 1 6 11 5 1 13. 10. 172. <
4508 3 -7 -11 -5 1 20. 49. 141. <
4508 1 7 11 5 -1 20. 49. 141. <
4509 4 -7 11 5 0 1740. 1416. 140. o
4509 3 -7 -11 -5 0 1740. 1416. 140. o
4509 2 7 -11 -5 0 1740. 1416. 140. o
4509 1 7 11 5 0 1740. 1416. 140. o
4510 3 5 -12 -5 1 64. 140. 179. <
4510 1 -5 12 5 -1 64. 140. 179. <
4511 4 5 12 5 0 4029. 3934. 178. o
4511 3 5 -12 -5 0 4029. 3934. 178. o
4511 2 -5 -12 -5 0 4029. 3934. 178. o
4511 1 -5 12 5 0 4029. 3934. 178. o
4512 3 4 -12 -5 1 1149. 1086. 203. o
4512 1 -4 12 5 -1 1149. 1086. 203. o
4513 4 4 12 5 0 11736. 12369. 198. o
4513 3 4 -12 -5 0 11736. 12369. 198. o
4513 2 -4 -12 -5 0 11736. 12369. 198. o
4513 1 -4 12 5 0 11736. 12369. 198. o
4514 3 4 -12 -5 -1 157. 255. 193. <
4514 1 -4 12 5 1 157. 255. 193. <
4515 3 3 -12 -5 1 501. 320. 217. <
4515 1 -3 12 5 -1 501. 320. 217. <
4516 4 3 12 5 0 19554. 18535. 212. o
4516 3 3 -12 -5 0 19554. 18535. 212. o
4516 2 -3 -12 -5 0 19554. 18535. 212. o
4516 1 -3 12 5 0 19554. 18535. 212. o
4517 3 3 -12 -5 -1 75. 68. 208. <
4517 1 -3 12 5 1 75. 68. 208. <
4518 3 2 -12 -5 1 88. 19. 123. <
4518 1 -2 12 5 -1 88. 19. 123. <
4519 4 2 12 5 0 591. 520. 121. o
4519 3 2 -12 -5 0 591. 520. 121. o
4519 2 -2 -12 -5 0 591. 520. 121. o
4519 1 -2 12 5 0 591. 520. 121. o
4520 3 2 -12 -5 -1 425. 226. 119. <
4520 1 -2 12 5 1 425. 226. 119. <
4521 3 1 -12 -5 1 145. 59. 122. <
4521 1 -1 12 5 -1 145. 59. 122. <
4522 4 1 12 5 0 1502. 1510. 121. o
4522 3 1 -12 -5 0 1502. 1510. 121. o
4522 2 -1 -12 -5 0 1502. 1510. 121. o
4522 1 -1 12 5 0 1502. 1510. 121. o
4523 3 1 -12 -5 -1 40. 50. 119. <
4523 1 -1 12 5 1 40. 50. 119. <
4524 3 0 -12 -5 1 893. 605. 122. o
4524 1 0 12 5 -1 893. 605. 122. o
4525 4 0 12 5 0 793. 674. 121. o
4525 3 0 -12 -5 0 793. 674. 121. o
4525 2 0 -12 -5 0 793. 674. 121. o
4525 1 0 12 5 0 793. 674. 121. o
4526 3 0 -12 -5 -1 338. 254. 119. o
4526 1 0 12 5 1 338. 254. 119. o
4527 3 -1 -12 -5 1 482. 214. 167. <
4527 1 1 12 5 -1 482. 214. 167. <
4528 4 -1 12 5 0 1443. 1635. 164. o
4528 3 -1 -12 -5 0 1443. 1635. 164. o
4528 2 1 -12 -5 0 1443. 1635. 164. o
4528 1 1 12 5 0 1443. 1635. 164. o
4529 3 -1 -12 -5 -1 72. -4. 162. <
4529 1 1 12 5 1 72. -4. 162. <
4530 3 -2 -12 -5 1 255. 439. 134. o
4530 1 2 12 5 -1 255. 439. 134. o
4531 4 -2 12 5 0 545. 558. 133. o
4531 3 -2 -12 -5 0 545. 558. 133. o
4531 2 2 -12 -5 0 545. 558. 133. o
4531 1 2 12 5 0 545. 558. 133. o
4532 3 -2 -12 -5 -1 8. -13. 62. <
4532 1 2 12 5 1 8. -13. 62. <
4533 3 -3 -12 -5 1 202. 291. 207. <
4533 1 3 12 5 -1 202. 291. 207. <
4534 4 -3 12 5 0 20183. 20493. 205. o
4534 3 -3 -12 -5 0 20183. 20493. 205. o
4534 2 3 -12 -5 0 20183. 20493. 205. o
4534 1 3 12 5 0 20183. 20493. 205. o
4535 3 -3 -12 -5 -1 88. 25. 203. <
4535 1 3 12 5 1 88. 25. 203. <
4536 3 -4 -12 -5 1 441. 197. 194. <
4536 1 4 12 5 -1 441. 197. 194. <
4537 4 -4 12 5 0 11776. 12776. 192. o
4537 3 -4 -12 -5 0 11776. 12776. 192. o
4537 2 4 -12 -5 0 11776. 12776. 192. o
4537 1 4 12 5 0 11776. 12776. 192. o
4538 3 -4 -12 -5 -1 86. 13. 190. <
4538 1 4 12 5 1 86. 13. 190. <
4539 3 -5 -12 -5 1 824. 954. 163. o
4539 1 5 12 5 -1 824. 954. 163. o
4540 4 -5 12 5 0 4145. 4064. 162. o
4540 3 -5 -12 -5 0 4145. 4064. 162. o
4540 2 5 -12 -5 0 4145. 4064. 162. o
4540 1 5 12 5 0 4145. 4064. 162. o
4541 3 2 -13 -5 1 59. 123. 68. <
4541 1 -2 13 5 -1 59. 123. 68. <
4542 3 1 -13 -5 1 59. 122. 315. <
4542 1 -1 13 5 -1 59. 122. 315. <
4543 4 1 13 5 0 27678. 28168. 313. o
4543 3 1 -13 -5 0 27678. 28168. 313. o
4543 2 -1 -13 -5 0 27678. 28168. 313. o
4543 1 -1 13 5 0 27678. 28168. 313. o
4544 3 0 -13 -5 1 17. 47. 154. <
4544 1 0 13 5 -1 17. 47. 154. <
4545 4 0 13 5 0 2129. 2732. 152. o
4545 3 0 -13 -5 0 2129. 2732. 152. o
4545 2 0 -13 -5 0 2129. 2732. 152. o
4545 1 0 13 5 0 2129. 2732. 152. o
4546 3 -1 -13 -5 1 36. 151. 311. <
4546 1 1 13 5 -1 36. 151. 311. <
4547 4 -1 13 5 0 28556. 29183. 307. o
4547 3 -1 -13 -5 0 28556. 29183. 307. o
4547 2 1 -13 -5 0 28556. 29183. 307. o
4547 1 1 13 5 0 28556. 29183. 307. o
4548 3 -2 -13 -5 1 147. 178. 51. o
4548 1 2 13 5 -1 147. 178. 51. o
4549 4 0 0 6 0 96730. 103867. 352. o
4549 3 0 0 -6 0 96730. 103867. 352. o
4549 2 0 0 -6 0 96730. 103867. 352. o
4549 1 0 0 6 0 96730. 103867. 352. o
4550 3 0 0 -6 -1 4. 17. 20. <
4550 1 0 0 6 1 4. 17. 20. <
4551 3 0 0 -6 1 4. 3. 20. <
4551 1 0 0 6 -1 4. 3. 20. <
4552 3 -1 0 -6 1 151. 178. 54. o
4552 1 1 0 6 -1 151. 178. 54. o
4553 3 1 0 -6 -1 150. 127. 53. o
4553 1 -1 0 6 1 150. 127. 53. o
4554 4 -1 0 6 0 1268. 1239. 104. o
4554 3 -1 0 -6 0 1268. 1239. 104. o
4554 2 1 0 -6 0 1268. 1239. 104. o
4554 1 1 0 6 0 1268. 1239. 104. o
4555 4 1 0 6 0 1269. 1301. 56. o
4555 3 1 0 -6 0 1269. 1301. 56. o
4555 2 -1 0 -6 0 1269. 1301. 56. o
4555 1 -1 0 6 0 1269. 1301. 56. o
4556 3 -1 0 -6 -1 353. 340. 103. o
4556 1 1 0 6 1 353. 340. 103. o
4557 3 1 0 -6 1 352. 315. 55. o
4557 1 -1 0 6 -1 352. 315. 55. o
4558 3 -2 0 -6 1 1431. 1385. 686. o
4558 1 2 0 6 -1 1431. 1385. 686. o
4559 3 2 0 -6 -1 1429. 1172. 368. o
4559 1 -2 0 6 1 1429. 1172. 368. o
4560 4 -2 0 6 0 119241. 123036. 683. o
4560 3 -2 0 -6 0 119241. 123036. 683. o
4560 2 2 0 -6 0 119241. 123036. 683. o
4560 1 2 0 6 0 119241. 123036. 683. o
4561 4 2 0 6 0 118974. 120042. 552. o
4561 3 2 0 -6 0 118974. 120042. 552. o
4561 2 -2 0 -6 0 118974. 120042. 552. o
4561 1 -2 0 6 0 118974. 120042. 552. o
4562 3 -2 0 -6 -1 67. 132. 679. <
4562 1 2 0 6 1 67. 132. 679. <
4563 3 2 0 -6 1 68. 74. 378. <
4563 1 -2 0 6 -1 68. 74. 378. <
4564 3 -3 0 -6 1 778. 556. 127. o
4564 1 3 0 6 -1 778. 556. 127. o
4565 3 3 0 -6 -1 775. 689. 67. o
4565 1 -3 0 6 1 775. 689. 67. o
4566 4 -3 0 6 0 3377. 3583. 127. o
4566 3 -3 0 -6 0 3377. 3583. 127. o
4566 2 3 0 -6 0 3377. 3583. 127. o
4566 1 3 0 6 0 3377. 3583. 127. o
4567 4 3 0 6 0 3380. 3000. 72. o
4567 3 3 0 -6 0 3380. 3000. 72. o
4567 2 -3 0 -6 0 3380. 3000. 72. o
4567 1 -3 0 6 0 3380. 3000. 72. o
4568 3 -3 0 -6 -1 806. 578. 126. o
4568 1 3 0 6 1 806. 578. 126. o
4569 3 3 0 -6 1 805. 699. 69. o
4569 1 -3 0 6 -1 805. 699. 69. o
4570 3 -4 0 -6 1 160. 101. 243. <
4570 1 4 0 6 -1 160. 101. 243. <
4571 3 4 0 -6 -1 155. 86. 125. <
4571 1 -4 0 6 1 155. 86. 125. <
4572 4 -4 0 6 0 31940. 32612. 242. o
4572 3 -4 0 -6 0 31940. 32612. 242. o
4572 2 4 0 -6 0 31940. 32612. 242. o
4572 1 4 0 6 0 31940. 32612. 242. o
4573 4 4 0 6 0 31985. 30391. 161. o
4573 3 4 0 -6 0 31985. 30391. 161. o
4573 2 -4 0 -6 0 31985. 30391. 161. o
4573 1 -4 0 6 0 31985. 30391. 161. o
4574 3 -4 0 -6 -1 193. 169. 241. <
4574 1 4 0 6 1 193. 169. 241. <
4575 3 4 0 -6 1 194. 166. 136. <
4575 1 -4 0 6 -1 194. 166. 136. <
4576 3 5 0 -6 -1 158. 227. 36. o
4576 1 -5 0 6 1 158. 227. 36. o
4577 4 5 0 6 0 689. 773. 50. o
4577 3 5 0 -6 0 689. 773. 50. o
4577 2 -5 0 -6 0 689. 773. 50. o
4577 1 -5 0 6 0 689. 773. 50. o
4578 3 5 0 -6 1 198. 211. 36. o
4578 1 -5 0 6 -1 198. 211. 36. o
4579 3 6 0 -6 -1 802. 805. 56. o
4579 1 -6 0 6 1 802. 805. 56. o
4580 4 6 0 6 0 15480. 15745. 153. o
4580 3 6 0 -6 0 15480. 15745. 153. o
4580 2 -6 0 -6 0 15480. 15745. 153. o
4580 1 -6 0 6 0 15480. 15745. 153. o
4581 3 6 0 -6 1 307. 340. 42. o
4581 1 -6 0 6 -1 307. 340. 42. o
4582 3 7 0 -6 -1 172. 158. 42. o
4582 1 -7 0 6 1 172. 158. 42. o
4583 4 7 0 6 0 678. 701. 61. o
4583 3 7 0 -6 0 678. 701. 61. o
4583 2 -7 0 -6 0 678. 701. 61. o
4583 1 -7 0 6 0 678. 701. 61. o
4584 3 7 0 -6 1 148. 125. 40. o
4584 1 -7 0 6 -1 148. 125. 40. o
4585 3 8 0 -6 -1 343. 297. 49. o
4585 1 -8 0 6 1 343. 297. 49. o
4586 4 8 0 6 0 71180. 66882. 355. o
4586 3 8 0 -6 0 71180. 66882. 355. o
4586 2 -8 0 -6 0 71180. 66882. 355. o
4586 1 -8 0 6 0 71180. 66882. 355. o
4587 3 8 0 -6 1 144. 138. 356. <
4587 1 -8 0 6 -1 144. 138. 356. <
4588 3 9 0 -6 -1 53. 51. 106. <
4588 1 -9 0 6 1 53. 51. 106. <
4589 4 9 0 6 0 119. 89. 107. <
4589 3 9 0 -6 0 119. 89. 107. <
4589 2 -9 0 -6 0 119. 89. 107. <
4589 1 -9 0 6 0 119. 89. 107. <
4590 3 9 0 -6 1 27. -11. 107. <
4590 1 -9 0 6 -1 27. -11. 107. <
4591 3 10 0 -6 -1 123. 81. 153. <
4591 1 -10 0 6 1 123. 81. 153. <
4592 4 10 0 6 0 4008. 4242. 154. o
4592 3 10 0 -6 0 4008. 4242. 154. o
4592 2 -10 0 -6 0 4008. 4242. 154. o
4592 1 -10 0 6 0 4008. 4242. 154. o
4593 3 10 0 -6 1 236. 193. 154. <
4593 1 -10 0 6 -1 236. 193. 154. <
4594 3 11 0 -6 -1 889. 305. 162. <
4594 1 -11 0 6 1 889. 305. 162. <
4595 4 11 0 6 0 3551. 3304. 163. o
4595 3 11 0 -6 0 3551. 3304. 163. o
4595 2 -11 0 -6 0 3551. 3304. 163. o
4595 1 -11 0 6 0 3551. 3304. 163. o
4596 3 11 0 -6 1 978. 912. 163. o
4596 1 -11 0 6 -1 978. 912. 163. o
4597 3 12 0 -6 -1 534. 357. 169. o
4597 1 -12 0 6 1 534. 357. 169. o
4598 4 12 0 6 0 2542. 2162. 170. o
4598 3 12 0 -6 0 2542. 2162. 170. o
4598 2 -12 0 -6 0 2542. 2162. 170. o
4598 1 -12 0 6 0 2542. 2162. 170. o
4599 3 12 0 -6 1 302. 295. 170. <
4599 1 -12 0 6 -1 302. 295. 170. <
4600 3 12 -1 -6 1 270. 927. 277. o
4600 1 -12 1 6 -1 270. 927. 277. o
4601 4 12 1 6 0 20568. 19290. 277. o
4601 3 12 -1 -6 0 20568. 19290. 277. o
4601 2 -12 -1 -6 0 20568. 19290. 277. o
4601 1 -12 1 6 0 20568. 19290. 277. o
4602 3 12 -1 -6 -1 625. 1158. 277. o
4602 1 -12 1 6 1 625. 1158. 277. o
4603 3 11 -1 -6 1 412. 383. 144. o
4603 1 -11 1 6 -1 412. 383. 144. o
4604 4 11 1 6 0 1864. 1685. 144. o
4604 3 11 -1 -6 0 1864. 1685. 144. o
4604 2 -11 -1 -6 0 1864. 1685. 144. o
4604 1 -11 1 6 0 1864. 1685. 144. o
4605 3 11 -1 -6 -1 503. 115. 144. <
4605 1 -11 1 6 1 503. 115. 144. <
4606 3 10 -1 -6 1 134. 715. 256. o
4606 1 -10 1 6 -1 134. 715. 256. o
4607 4 10 1 6 0 23384. 22224. 256. o
4607 3 10 -1 -6 0 23384. 22224. 256. o
4607 2 -10 -1 -6 0 23384. 22224. 256. o
4607 1 -10 1 6 0 23384. 22224. 256. o
4608 3 10 -1 -6 -1 3. 709. 256. o
4608 1 -10 1 6 1 3. 709. 256. o
4609 3 9 -1 -6 1 127. 214. 220. <
4609 1 -9 1 6 -1 127. 214. 220. <
4610 4 9 1 6 0 19282. 18525. 220. o
4610 3 9 -1 -6 0 19282. 18525. 220. o
4610 2 -9 -1 -6 0 19282. 18525. 220. o
4610 1 -9 1 6 0 19282. 18525. 220. o
4611 3 9 -1 -6 -1 601. 310. 220. <
4611 1 -9 1 6 1 601. 310. 220. <
4612 3 8 -1 -6 1 712. 803. 70. o
4612 1 -8 1 6 -1 712. 803. 70. o
4613 4 8 1 6 0 5230. 4700. 108. o
4613 3 8 -1 -6 0 5230. 4700. 108. o
4613 2 -8 -1 -6 0 5230. 4700. 108. o
4613 1 -8 1 6 0 5230. 4700. 108. o
4614 3 8 -1 -6 -1 436. 493. 56. o
4614 1 -8 1 6 1 436. 493. 56. o
4615 3 7 -1 -6 1 259. 263. 47. o
4615 1 -7 1 6 -1 259. 263. 47. o
4616 4 7 1 6 0 4483. 4621. 101. o
4616 3 7 -1 -6 0 4483. 4621. 101. o
4616 2 -7 -1 -6 0 4483. 4621. 101. o
4616 1 -7 1 6 0 4483. 4621. 101. o
4617 3 7 -1 -6 -1 220. 267. 46. o
4617 1 -7 1 6 1 220. 267. 46. o
4618 3 6 -1 -6 1 543. 629. 58. o
4618 1 -6 1 6 -1 543. 629. 58. o
4619 4 6 1 6 0 77495. 80167. 343. o
4619 3 6 -1 -6 0 77495. 80167. 343. o
4619 2 -6 -1 -6 0 77495. 80167. 343. o
4619 1 -6 1 6 0 77495. 80167. 343. o
4620 3 6 -1 -6 -1 85. 39. 34. <
4620 1 -6 1 6 1 85. 39. 34. <
4621 3 5 -1 -6 1 1717. 1389. 170. o
4621 1 -5 1 6 -1 1717. 1389. 170. o
4622 4 5 1 6 0 26207. 23707. 182. o
4622 3 5 -1 -6 0 26207. 23707. 182. o
4622 2 -5 -1 -6 0 26207. 23707. 182. o
4622 1 -5 1 6 0 26207. 23707. 182. o
4623 3 5 -1 -6 -1 725. 434. 149. o
4623 1 -5 1 6 1 725. 434. 149. o
4624 3 4 -1 -6 1 57. 52. 231. <
4624 1 -4 1 6 -1 57. 52. 231. <
4625 4 4 1 6 0 101577. 94168. 419. o
4625 3 4 -1 -6 0 101577. 94168. 419. o
4625 2 -4 -1 -6 0 101577. 94168. 419. o
4625 1 -4 1 6 0 101577. 94168. 419. o
4626 3 4 -1 -6 -1 67. 159. 215. <
4626 1 -4 1 6 1 67. 159. 215. <
4627 3 3 -1 -6 1 230. 162. 102. <
4627 1 -3 1 6 -1 230. 162. 102. <
4628 4 3 1 6 0 15680. 15416. 118. o
4628 3 3 -1 -6 0 15680. 15416. 118. o
4628 2 -3 -1 -6 0 15680. 15416. 118. o
4628 1 -3 1 6 0 15680. 15416. 118. o
4629 3 3 -1 -6 -1 59. 49. 98. <
4629 1 -3 1 6 1 59. 49. 98. <
4630 3 2 -1 -6 1 504. 402. 146. o
4630 1 -2 1 6 -1 504. 402. 146. o
4631 3 -2 1 -6 -1 500. 399. 262. <
4631 1 2 -1 6 1 500. 399. 262. <
4632 4 2 1 6 0 45680. 46103. 183. o
4632 3 2 -1 -6 0 45680. 46103. 183. o
4632 2 -2 -1 -6 0 45680. 46103. 183. o
4632 1 -2 1 6 0 45680. 46103. 183. o
4633 4 -2 -1 6 0 45770. 46393. 264. o
4633 3 -2 1 -6 0 45770. 46393. 264. o
4633 2 2 1 -6 0 45770. 46393. 264. o
4633 1 2 -1 6 0 45770. 46393. 264. o
4634 3 2 -1 -6 -1 34. 40. 141. <
4634 1 -2 1 6 1 34. 40. 141. <
4635 3 -2 1 -6 1 33. 50. 265. <
4635 1 2 -1 6 -1 33. 50. 265. <
4636 3 1 -1 -6 1 1690. 1845. 42. o
4636 1 -1 1 6 -1 1690. 1845. 42. o
4637 3 -1 1 -6 -1 1687. 1040. 148. o
4637 1 1 -1 6 1 1687. 1040. 148. o
4638 4 1 1 6 0 6376. 5929. 66. o
4638 3 1 -1 -6 0 6376. 5929. 66. o
4638 2 -1 -1 -6 0 6376. 5929. 66. o
4638 1 -1 1 6 0 6376. 5929. 66. o
4639 4 -1 -1 6 0 7061. 9048. 149. o
4639 3 -1 1 -6 0 7061. 9048. 149. o
4639 2 1 1 -6 0 7061. 9048. 149. o
4639 1 1 -1 6 0 7061. 9048. 149. o
4640 3 1 -1 -6 -1 1660. 1768. 42. o
4640 1 -1 1 6 1 1660. 1768. 42. o
4641 3 -1 1 -6 1 1657. 1342. 151. o
4641 1 1 -1 6 -1 1657. 1342. 151. o
4642 3 0 -1 -6 1 168. 144. 49. o
4642 1 0 1 6 -1 168. 144. 49. o
4643 3 0 1 -6 -1 168. 188. 24. o
4643 1 0 -1 6 1 168. 188. 24. o
4644 4 0 1 6 0 581. 483. 49. o
4644 3 0 -1 -6 0 581. 483. 49. o
4644 2 0 -1 -6 0 581. 483. 49. o
4644 1 0 1 6 0 581. 483. 49. o
4645 4 0 -1 6 0 580. 685. 28. o
4645 3 0 1 -6 0 580. 685. 28. o
4645 2 0 1 -6 0 580. 685. 28. o
4645 1 0 -1 6 0 580. 685. 28. o
4646 3 0 -1 -6 -1 343. 302. 49. o
4646 1 0 1 6 1 343. 302. 49. o
4647 3 0 1 -6 1 344. 377. 26. o
4647 1 0 -1 6 -1 344. 377. 26. o
4648 3 -1 -1 -6 1 3. 11. 21. <
4648 1 1 1 6 -1 3. 11. 21. <
4649 3 1 1 -6 -1 3. 2. 21. <
4649 1 -1 -1 6 1 3. 2. 21. <
4650 4 -1 1 6 0 6087. 5826. 55. o
4650 3 -1 -1 -6 0 6087. 5826. 55. o
4650 2 1 -1 -6 0 6087. 5826. 55. o
4650 1 1 1 6 0 6087. 5826. 55. o
4651 4 1 -1 6 0 6581. 6548. 60. o
4651 3 1 1 -6 0 6581. 6548. 60. o
4651 2 -1 1 -6 0 6581. 6548. 60. o
4651 1 -1 -1 6 0 6581. 6548. 60. o
4652 3 -1 -1 -6 -1 10. -16. 21. <
4652 1 1 1 6 1 10. -16. 21. <
4653 3 1 1 -6 1 10. 0. 22. <
4653 1 -1 -1 6 -1 10. 0. 22. <
4654 3 -2 -1 -6 1 361. 255. 275. <
4654 1 2 1 6 -1 361. 255. 275. <
4655 3 2 1 -6 -1 362. 312. 137. o
4655 1 -2 -1 6 1 362. 312. 137. o
4656 4 -2 1 6 0 45805. 45840. 183. o
4656 3 -2 -1 -6 0 45805. 45840. 183. o
4656 2 2 -1 -6 0 45805. 45840. 183. o
4656 1 2 1 6 0 45805. 45840. 183. o
4657 4 2 -1 6 0 46270. 49405. 190. o
4657 3 2 1 -6 0 46270. 49405. 190. o
4657 2 -2 1 -6 0 46270. 49405. 190. o
4657 1 -2 -1 6 0 46270. 49405. 190. o
4658 3 -2 -1 -6 -1 768. 579. 271. o
4658 1 2 1 6 1 768. 579. 271. o
4659 3 2 1 -6 1 768. 727. 142. o
4659 1 -2 -1 6 -1 768. 727. 142. o
4660 3 -3 -1 -6 1 107. 61. 183. <
4660 1 3 1 6 -1 107. 61. 183. <
4661 3 3 1 -6 -1 108. 116. 27. o
4661 1 -3 -1 6 1 108. 116. 27. o
4662 4 -3 1 6 0 16129. 16960. 183. o
4662 3 -3 -1 -6 0 16129. 16960. 183. o
4662 2 3 -1 -6 0 16129. 16960. 183. o
4662 1 3 1 6 0 16129. 16960. 183. o
4663 4 3 -1 6 0 16084. 17717. 133. o
4663 3 3 1 -6 0 16084. 17717. 133. o
4663 2 -3 1 -6 0 16084. 17717. 133. o
4663 1 -3 -1 6 0 16084. 17717. 133. o
4664 3 -3 -1 -6 -1 74. 43. 182. <
4664 1 3 1 6 1 74. 43. 182. <
4665 3 3 1 -6 1 70. 96. 27. o
4665 1 -3 -1 6 -1 70. 96. 27. o
4666 3 -4 -1 -6 1 824. 507. 720. <
4666 1 4 1 6 -1 824. 507. 720. <
4667 3 4 1 -6 -1 823. 982. 49. o
4667 1 -4 -1 6 1 823. 982. 49. o
4668 4 -4 1 6 0 101571. 105561. 719. o
4668 3 -4 -1 -6 0 101571. 105561. 719. o
4668 2 4 -1 -6 0 101571. 105561. 719. o
4668 1 4 1 6 0 101571. 105561. 719. o
4669 4 4 -1 6 0 102963. 111885. 1188. o
4669 3 4 1 -6 0 102963. 111885. 1188. o
4669 2 -4 1 -6 0 102963. 111885. 1188. o
4669 1 -4 -1 6 0 102963. 111885. 1188. o
4670 3 -4 -1 -6 -1 106. 74. 717. <
4670 1 4 1 6 1 106. 74. 717. <
4671 3 4 1 -6 1 104. 128. 32. o
4671 1 -4 -1 6 -1 104. 128. 32. o
4672 3 -5 -1 -6 1 211. 162. 229. <
4672 1 5 1 6 -1 211. 162. 229. <
4673 3 5 1 -6 -1 215. 225. 36. o
4673 1 -5 -1 6 1 215. 225. 36. o
4674 4 -5 1 6 0 26414. 26679. 228. o
4674 3 -5 -1 -6 0 26414. 26679. 228. o
4674 2 5 -1 -6 0 26414. 26679. 228. o
4674 1 5 1 6 0 26414. 26679. 228. o
4675 4 5 -1 6 0 26604. 27995. 192. o
4675 3 5 1 -6 0 26604. 27995. 192. o
4675 2 -5 1 -6 0 26604. 27995. 192. o
4675 1 -5 -1 6 0 26604. 27995. 192. o
4676 3 -5 -1 -6 -1 192. 189. 228. <
4676 1 5 1 6 1 192. 189. 228. <
4677 3 5 1 -6 1 195. 285. 40. o
4677 1 -5 -1 6 -1 195. 285. 40. o
4678 3 -6 -1 -6 1 50. 50. 389. <
4678 1 6 1 6 -1 50. 50. 389. <
4679 3 6 1 -6 -1 51. 75. 37. o
4679 1 -6 -1 6 1 51. 75. 37. o
4680 4 -6 1 6 0 77595. 81597. 389. o
4680 3 -6 -1 -6 0 77595. 81597. 389. o
4680 2 6 -1 -6 0 77595. 81597. 389. o
4680 1 6 1 6 0 77595. 81597. 389. o
4681 4 6 -1 6 0 77806. 80935. 346. o
4681 3 6 1 -6 0 77806. 80935. 346. o
4681 2 -6 1 -6 0 77806. 80935. 346. o
4681 1 -6 -1 6 0 77806. 80935. 346. o
4682 3 -6 -1 -6 -1 1201. 796. 388. o
4682 1 6 1 6 1 1201. 796. 388. o
4683 3 6 1 -6 1 1187. 1282. 66. o
4683 1 -6 -1 6 -1 1187. 1282. 66. o
4684 3 -7 -1 -6 1 255. 246. 158. <
4684 1 7 1 6 -1 255. 246. 158. <
4685 3 7 1 -6 -1 253. 403. 50. o
4685 1 -7 -1 6 1 253. 403. 50. o
4686 4 -7 1 6 0 4584. 4942. 158. o
4686 3 -7 -1 -6 0 4584. 4942. 158. o
4686 2 7 -1 -6 0 4584. 4942. 158. o
4686 1 7 1 6 0 4584. 4942. 158. o
4687 4 7 -1 6 0 4607. 4584. 100. o
4687 3 7 1 -6 0 4607. 4584. 100. o
4687 2 -7 1 -6 0 4607. 4584. 100. o
4687 1 -7 -1 6 0 4607. 4584. 100. o
4688 3 -7 -1 -6 -1 450. 342. 158. o
4688 1 7 1 6 1 450. 342. 158. o
4689 3 7 1 -6 1 449. 468. 51. o
4689 1 -7 -1 6 -1 449. 468. 51. o
4690 3 -8 -1 -6 1 243. 278. 171. <
4690 1 8 1 6 -1 243. 278. 171. <
4691 3 8 1 -6 -1 239. 312. 51. o
4691 1 -8 -1 6 1 239. 312. 51. o
4692 4 -8 1 6 0 5279. 5326. 170. o
4692 3 -8 -1 -6 0 5279. 5326. 170. o
4692 2 8 -1 -6 0 5279. 5326. 170. o
4692 1 8 1 6 0 5279. 5326. 170. o
4693 4 8 -1 6 0 5242. 4757. 109. o
4693 3 8 1 -6 0 5242. 4757. 109. o
4693 2 -8 1 -6 0 5242. 4757. 109. o
4693 1 -8 -1 6 0 5242. 4757. 109. o
4694 3 -8 -1 -6 -1 685. 527. 170. o
4694 1 8 1 6 1 685. 527. 170. o
4695 3 8 1 -6 1 679. 772. 71. o
4695 1 -8 -1 6 -1 679. 772. 71. o
4696 3 -9 -1 -6 1 268. 184. 253. <
4696 1 9 1 6 -1 268. 184. 253. <
4697 4 -9 1 6 0 19687. 20844. 252. o
4697 3 -9 -1 -6 0 19687. 20844. 252. o
4697 2 9 -1 -6 0 19687. 20844. 252. o
4697 1 9 1 6 0 19687. 20844. 252. o
4698 3 -9 -1 -6 -1 1026. 719. 252. o
4698 1 9 1 6 1 1026. 719. 252. o
4699 3 -10 -1 -6 1 295. 164. 273. <
4699 1 10 1 6 -1 295. 164. 273. <
4700 3 10 1 -6 -1 281. 270. 263. <
4700 1 -10 -1 6 1 281. 270. 263. <
4701 4 -10 1 6 0 23403. 24843. 271. o
4701 3 -10 -1 -6 0 23403. 24843. 271. o
4701 2 10 -1 -6 0 23403. 24843. 271. o
4701 1 10 1 6 0 23403. 24843. 271. o
4702 4 10 -1 6 0 23984. 23769. 264. o
4702 3 10 1 -6 0 23984. 23769. 264. o
4702 2 -10 1 -6 0 23984. 23769. 264. o
4702 1 -10 -1 6 0 23984. 23769. 264. o
4703 3 -10 -1 -6 -1 271. 261. 269. <
4703 1 10 1 6 1 271. 261. 269. <
4704 3 10 1 -6 1 257. 497. 266. <
4704 1 -10 -1 6 -1 257. 497. 266. <
4705 3 11 1 -6 -1 57. 32. 146. <
4705 1 -11 -1 6 1 57. 32. 146. <
4706 4 11 -1 6 0 2102. 1726. 147. o
4706 3 11 1 -6 0 2102. 1726. 147. o
4706 2 -11 1 -6 0 2102. 1726. 147. o
4706 1 -11 -1 6 0 2102. 1726. 147. o
4707 3 11 1 -6 1 56. 34. 148. <
4707 1 -11 -1 6 -1 56. 34. 148. <
4708 3 12 1 -6 -1 1010. 963. 286. o
4708 1 -12 -1 6 1 1010. 963. 286. o
4709 4 12 -1 6 0 20956. 20827. 288. o
4709 3 12 1 -6 0 20956. 20827. 288. o
4709 2 -12 1 -6 0 20956. 20827. 288. o
4709 1 -12 -1 6 0 20956. 20827. 288. o
4710 3 12 1 -6 1 294. 664. 290. o
4710 1 -12 -1 6 -1 294. 664. 290. o
4711 3 12 -2 -6 1 208. 642. 217. o
4711 1 -12 2 6 -1 208. 642. 217. o
4712 4 12 2 6 0 9697. 8325. 217. o
4712 3 12 -2 -6 0 9697. 8325. 217. o
4712 2 -12 -2 -6 0 9697. 8325. 217. o
4712 1 -12 2 6 0 9697. 8325. 217. o
4713 3 12 -2 -6 -1 292. 729. 216. o
4713 1 -12 2 6 1 292. 729. 216. o
4714 3 11 -2 -6 1 257. 350. 177. <
4714 1 -11 2 6 -1 257. 350. 177. <
4715 4 11 2 6 0 5211. 4747. 178. o
4715 3 11 -2 -6 0 5211. 4747. 178. o
4715 2 -11 -2 -6 0 5211. 4747. 178. o
4715 1 -11 2 6 0 5211. 4747. 178. o
4716 3 11 -2 -6 -1 488. 703. 178. o
4716 1 -11 2 6 1 488. 703. 178. o
4717 3 10 -2 -6 1 269. 265. 62. o
4717 1 -10 2 6 -1 269. 265. 62. o
4718 4 10 2 6 0 65927. 63669. 389. o
4718 3 10 -2 -6 0 65927. 63669. 389. o
4718 2 -10 -2 -6 0 65927. 63669. 389. o
4718 1 -10 2 6 0 65927. 63669. 389. o
4719 3 10 -2 -6 -1 1140. 1254. 89. o
4719 1 -10 2 6 1 1140. 1254. 89. o
4720 3 9 -2 -6 1 234. 351. 212. <
4720 1 -9 2 6 -1 234. 351. 212. <
4721 4 9 2 6 0 16107. 15650. 213. o
4721 3 9 -2 -6 0 16107. 15650. 213. o
4721 2 -9 -2 -6 0 16107. 15650. 213. o
4721 1 -9 2 6 0 16107. 15650. 213. o
4722 3 9 -2 -6 -1 111. 540. 215. o
4722 1 -9 2 6 1 111. 540. 215. o
4723 3 8 -2 -6 1 378. 304. 54. o
4723 1 -8 2 6 -1 378. 304. 54. o
4724 4 8 2 6 0 1104. 1035. 75. o
4724 3 8 -2 -6 0 1104. 1035. 75. o
4724 2 -8 -2 -6 0 1104. 1035. 75. o
4724 1 -8 2 6 0 1104. 1035. 75. o
4725 3 8 -2 -6 -1 14. 60. 45. <
4725 1 -8 2 6 1 14. 60. 45. <
4726 3 7 -2 -6 1 897. 982. 63. o
4726 1 -7 2 6 -1 897. 982. 63. o
4727 4 7 2 6 0 63060. 65852. 338. o
4727 3 7 -2 -6 0 63060. 65852. 338. o
4727 2 -7 -2 -6 0 63060. 65852. 338. o
4727 1 -7 2 6 0 63060. 65852. 338. o
4728 3 7 -2 -6 -1 1282. 1373. 72. o
4728 1 -7 2 6 1 1282. 1373. 72. o
4729 3 6 -2 -6 1 14. 97. 211. <
4729 1 -6 2 6 -1 14. 97. 211. <
4730 4 6 2 6 0 59600. 51968. 262. o
4730 3 6 -2 -6 0 59600. 51968. 262. o
4730 2 -6 -2 -6 0 59600. 51968. 262. o
4730 1 -6 2 6 0 59600. 51968. 262. o
4731 3 6 -2 -6 -1 18. 72. 217. <
4731 1 -6 2 6 1 18. 72. 217. <
4732 3 5 -2 -6 1 99. 42. 145. <
4732 1 -5 2 6 -1 99. 42. 145. <
4733 4 5 2 6 0 10566. 10024. 150. o
4733 3 5 -2 -6 0 10566. 10024. 150. o
4733 2 -5 -2 -6 0 10566. 10024. 150. o
4733 1 -5 2 6 0 10566. 10024. 150. o
4734 3 5 -2 -6 -1 36. 25. 129. <
4734 1 -5 2 6 1 36. 25. 129. <
4735 3 4 -2 -6 1 183. 108. 127. <
4735 1 -4 2 6 -1 183. 108. 127. <
4736 4 4 2 6 0 18079. 16598. 144. o
4736 3 4 -2 -6 0 18079. 16598. 144. o
4736 2 -4 -2 -6 0 18079. 16598. 144. o
4736 1 -4 2 6 0 18079. 16598. 144. o
4737 3 4 -2 -6 -1 16. 39. 119. <
4737 1 -4 2 6 1 16. 39. 119. <
4738 3 3 -2 -6 1 66. 66. 194. <
4738 1 -3 2 6 -1 66. 66. 194. <
4739 4 3 2 6 0 71516. 68371. 249. o
4739 3 3 -2 -6 0 71516. 68371. 249. o
4739 2 -3 -2 -6 0 71516. 68371. 249. o
4739 1 -3 2 6 0 71516. 68371. 249. o
4740 3 3 -2 -6 -1 44. 61. 187. <
4740 1 -3 2 6 1 44. 61. 187. <
4741 3 2 -2 -6 1 9. 6. 82. <
4741 1 -2 2 6 -1 9. 6. 82. <
4742 4 2 2 6 0 6330. 7029. 90. o
4742 3 2 -2 -6 0 6330. 7029. 90. o
4742 2 -2 -2 -6 0 6330. 7029. 90. o
4742 1 -2 2 6 0 6330. 7029. 90. o
4743 3 2 -2 -6 -1 9. 22. 79. <
4743 1 -2 2 6 1 9. 22. 79. <
4744 3 1 -2 -6 1 46. 45. 152. <
4744 1 -1 2 6 -1 46. 45. 152. <
4745 3 -1 2 -6 -1 46. 43. 260. <
4745 1 1 -2 6 1 46. 43. 260. <
4746 4 1 2 6 0 47164. 48336. 190. o
4746 3 1 -2 -6 0 47164. 48336. 190. o
4746 2 -1 -2 -6 0 47164. 48336. 190. o
4746 1 -1 2 6 0 47164. 48336. 190. o
4747 4 -1 -2 6 0 46031. 47405. 262. o
4747 3 -1 2 -6 0 46031. 47405. 262. o
4747 2 1 2 -6 0 46031. 47405. 262. o
4747 1 1 -2 6 0 46031. 47405. 262. o
4748 3 1 -2 -6 -1 516. 410. 149. o
4748 1 -1 2 6 1 516. 410. 149. o
4749 3 -1 2 -6 1 513. 529. 264. o
4749 1 1 -2 6 -1 513. 529. 264. o
4750 3 0 -2 -6 1 1452. 1282. 397. o
4750 1 0 2 6 -1 1452. 1282. 397. o
4751 3 0 2 -6 -1 1450. 1410. 389. o
4751 1 0 -2 6 1 1450. 1410. 389. o
4752 4 0 2 6 0 120534. 123043. 506. o
4752 3 0 -2 -6 0 120534. 123043. 506. o
4752 2 0 -2 -6 0 120534. 123043. 506. o
4752 1 0 2 6 0 120534. 123043. 506. o
4753 4 0 -2 6 0 122300. 126002. 493. o
4753 3 0 2 -6 0 122300. 126002. 493. o
4753 2 0 2 -6 0 122300. 126002. 493. o
4753 1 0 -2 6 0 122300. 126002. 493. o
4754 3 0 -2 -6 -1 86. 119. 390. <
4754 1 0 2 6 1 86. 119. 390. <
4755 3 0 2 -6 1 86. 101. 396. <
4755 1 0 -2 6 -1 86. 101. 396. <
4756 3 -1 -2 -6 1 377. 302. 142. o
4756 1 1 2 6 -1 377. 302. 142. o
4757 3 1 2 -6 -1 377. 436. 29. o
4757 1 -1 -2 6 1 377. 436. 29. o
4758 4 -1 2 6 0 47235. 47911. 180. o
4758 3 -1 -2 -6 0 47235. 47911. 180. o
4758 2 1 -2 -6 0 47235. 47911. 180. o
4758 1 1 2 6 0 47235. 47911. 180. o
4759 4 1 -2 6 0 46060. 48654. 168. o
4759 3 1 2 -6 0 46060. 48654. 168. o
4759 2 -1 2 -6 0 46060. 48654. 168. o
4759 1 -1 -2 6 0 46060. 48654. 168. o
4760 3 -1 -2 -6 -1 886. 668. 141. o
4760 1 1 2 6 1 886. 668. 141. o
4761 3 1 2 -6 1 881. 1003. 33. o
4761 1 -1 -2 6 -1 881. 1003. 33. o
4762 3 -2 -2 -6 1 101. 1255. 71. o
4762 1 2 2 6 -1 101. 1255. 71. o
4763 3 2 2 -6 -1 101. 19. 22. <
4763 1 -2 -2 6 1 101. 19. 22. <
4764 4 -2 2 6 0 6327. 4750. 78. o
4764 3 -2 -2 -6 0 6327. 4750. 78. o
4764 2 2 -2 -6 0 6327. 4750. 78. o
4764 1 2 2 6 0 6327. 4750. 78. o
4765 4 2 -2 6 0 6297. 7395. 82. o
4765 3 2 2 -6 0 6297. 7395. 82. o
4765 2 -2 2 -6 0 6297. 7395. 82. o
4765 1 -2 -2 6 0 6297. 7395. 82. o
4766 3 -2 -2 -6 -1 50. 1241. 70. o
4766 1 2 2 6 1 50. 1241. 70. o
4767 3 2 2 -6 1 50. 10. 22. <
4767 1 -2 -2 6 -1 50. 10. 22. <
4768 3 -3 -2 -6 1 673. 594. 343. <
4768 1 3 2 6 -1 673. 594. 343. <
4769 3 3 2 -6 -1 671. 826. 44. o
4769 1 -3 -2 6 1 671. 826. 44. o
4770 4 -3 2 6 0 72016. 73836. 342. o
4770 3 -3 -2 -6 0 72016. 73836. 342. o
4770 2 3 -2 -6 0 72016. 73836. 342. o
4770 1 3 2 6 0 72016. 73836. 342. o
4771 4 3 -2 6 0 72322. 75201. 456. o
4771 3 3 2 -6 0 72322. 75201. 456. o
4771 2 -3 2 -6 0 72322. 75201. 456. o
4771 1 -3 -2 6 0 72322. 75201. 456. o
4772 3 -3 -2 -6 -1 664. 529. 340. <
4772 1 3 2 6 1 664. 529. 340. <
4773 3 3 2 -6 1 662. 731. 43. o
4773 1 -3 -2 6 -1 662. 731. 43. o
4774 3 -4 -2 -6 1 579. 359. 201. <
4774 1 4 2 6 -1 579. 359. 201. <
4775 3 4 2 -6 -1 577. 694. 49. o
4775 1 -4 -2 6 1 577. 694. 49. o
4776 4 -4 2 6 0 18220. 19816. 199. o
4776 3 -4 -2 -6 0 18220. 19816. 199. o
4776 2 4 -2 -6 0 18220. 19816. 199. o
4776 1 4 2 6 0 18220. 19816. 199. o
4777 4 4 -2 6 0 18258. 19747. 157. o
4777 3 4 2 -6 0 18258. 19747. 157. o
4777 2 -4 2 -6 0 18258. 19747. 157. o
4777 1 -4 -2 6 0 18258. 19747. 157. o
4778 3 -4 -2 -6 -1 501. 298. 198. <
4778 1 4 2 6 1 501. 298. 198. <
4779 3 4 2 -6 1 499. 589. 47. o
4779 1 -4 -2 6 -1 499. 589. 47. o
4780 3 -5 -2 -6 1 29. -5. 172. <
4780 1 5 2 6 -1 29. -5. 172. <
4781 3 5 2 -6 -1 27. 20. 32. <
4781 1 -5 -2 6 1 27. 20. 32. <
4782 4 -5 2 6 0 10571. 11498. 172. o
4782 3 -5 -2 -6 0 10571. 11498. 172. o
4782 2 5 -2 -6 0 10571. 11498. 172. o
4782 1 5 2 6 0 10571. 11498. 172. o
4783 4 5 -2 6 0 10579. 12028. 136. o
4783 3 5 2 -6 0 10579. 12028. 136. o
4783 2 -5 2 -6 0 10579. 12028. 136. o
4783 1 -5 -2 6 0 10579. 12028. 136. o
4784 3 -5 -2 -6 -1 2. -6. 171. <
4784 1 5 2 6 1 2. -6. 171. <
4785 3 5 2 -6 1 2. -27. 33. <
4785 1 -5 -2 6 -1 2. -27. 33. <
4786 3 -6 -2 -6 1 121. 117. 348. <
4786 1 6 2 6 -1 121. 117. 348. <
4787 3 6 2 -6 -1 120. 166. 41. o
4787 1 -6 -2 6 1 120. 166. 41. o
4788 4 -6 2 6 0 59935. 64748. 348. o
4788 3 -6 -2 -6 0 59935. 64748. 348. o
4788 2 6 -2 -6 0 59935. 64748. 348. o
4788 1 6 2 6 0 59935. 64748. 348. o
4789 4 6 -2 6 0 59521. 65397. 323. o
4789 3 6 2 -6 0 59521. 65397. 323. o
4789 2 -6 2 -6 0 59521. 65397. 323. o
4789 1 -6 -2 6 0 59521. 65397. 323. o
4790 3 -6 -2 -6 -1 326. 209. 348. <
4790 1 6 2 6 1 326. 209. 348. <
4791 3 6 2 -6 1 327. 277. 45. o
4791 1 -6 -2 6 -1 327. 277. 45. o
4792 3 -7 -2 -6 1 1002. 769. 373. o
4792 1 7 2 6 -1 1002. 769. 373. o
4793 3 7 2 -6 -1 1019. 1065. 63. o
4793 1 -7 -2 6 1 1019. 1065. 63. o
4794 4 -7 2 6 0 64119. 69602. 374. o
4794 3 -7 -2 -6 0 64119. 69602. 374. o
4794 2 7 -2 -6 0 64119. 69602. 374. o
4794 1 7 2 6 0 64119. 69602. 374. o
4795 4 7 -2 6 0 62299. 66140. 345. o
4795 3 7 2 -6 0 62299. 66140. 345. o
4795 2 -7 2 -6 0 62299. 66140. 345. o
4795 1 -7 -2 6 0 62299. 66140. 345. o
4796 3 -7 -2 -6 -1 710. 506. 374. <
4796 1 7 2 6 1 710. 506. 374. <
4797 3 7 2 -6 1 719. 674. 60. o
4797 1 -7 -2 6 -1 719. 674. 60. o
4798 3 -8 -2 -6 1 128. 127. 139. <
4798 1 8 2 6 -1 128. 127. 139. <
4799 3 8 2 -6 -1 123. 46. 127. <
4799 1 -8 -2 6 1 123. 46. 127. <
4800 4 -8 2 6 0 1227. 1270. 139. o
4800 3 -8 -2 -6 0 1227. 1270. 139. o
4800 2 8 -2 -6 0 1227. 1270. 139. o
4800 1 8 2 6 0 1227. 1270. 139. o
4801 4 8 -2 6 0 1095. 1607. 127. o
4801 3 8 2 -6 0 1095. 1607. 127. o
4801 2 -8 2 -6 0 1095. 1607. 127. o
4801 1 -8 -2 6 0 1095. 1607. 127. o
4802 3 -8 -2 -6 -1 376. 314. 139. o
4802 1 8 2 6 1 376. 314. 139. o
4803 3 8 2 -6 1 384. 240. 128. <
4803 1 -8 -2 6 -1 384. 240. 128. <
4804 3 -9 -2 -6 1 1. 19. 236. <
4804 1 9 2 6 -1 1. 19. 236. <
4805 3 9 2 -6 -1 2. 154. 221. <
4805 1 -9 -2 6 1 2. 154. 221. <
4806 4 -9 2 6 0 16089. 17985. 236. o
4806 3 -9 -2 -6 0 16089. 17985. 236. o
4806 2 9 -2 -6 0 16089. 17985. 236. o
4806 1 9 2 6 0 16089. 17985. 236. o
4807 4 9 -2 6 0 16100. 16196. 222. o
4807 3 9 2 -6 0 16100. 16196. 222. o
4807 2 -9 2 -6 0 16100. 16196. 222. o
4807 1 -9 -2 6 0 16100. 16196. 222. o
4808 3 -9 -2 -6 -1 321. 244. 236. <
4808 1 9 2 6 1 321. 244. 236. <
4809 3 9 2 -6 1 312. 248. 223. <
4809 1 -9 -2 6 -1 312. 248. 223. <
4810 3 -10 -2 -6 1 914. 718. 413. <
4810 1 10 2 6 -1 914. 718. 413. <
4811 3 10 2 -6 -1 932. 1173. 416. o
4811 1 -10 -2 6 1 932. 1173. 416. o
4812 4 -10 2 6 0 67224. 68274. 412. o
4812 3 -10 -2 -6 0 67224. 68274. 412. o
4812 2 10 -2 -6 0 67224. 68274. 412. o
4812 1 10 2 6 0 67224. 68274. 412. o
4813 4 10 -2 6 0 66875. 64964. 418. o
4813 3 10 2 -6 0 66875. 64964. 418. o
4813 2 -10 2 -6 0 66875. 64964. 418. o
4813 1 -10 -2 6 0 66875. 64964. 418. o
4814 3 -10 -2 -6 -1 529. 419. 410. <
4814 1 10 2 6 1 529. 419. 410. <
4815 3 10 2 -6 1 550. 807. 420. <
4815 1 -10 -2 6 -1 550. 807. 420. <
4816 3 11 2 -6 -1 365. 294. 185. <
4816 1 -11 -2 6 1 365. 294. 185. <
4817 4 11 -2 6 0 5410. 5421. 187. o
4817 3 11 2 -6 0 5410. 5421. 187. o
4817 2 -11 2 -6 0 5410. 5421. 187. o
4817 1 -11 -2 6 0 5410. 5421. 187. o
4818 3 11 2 -6 1 112. 229. 188. <
4818 1 -11 -2 6 -1 112. 229. 188. <
4819 3 12 2 -6 -1 225. 96. 223. <
4819 1 -12 -2 6 1 225. 96. 223. <
4820 4 12 -2 6 0 9649. 9332. 224. o
4820 3 12 2 -6 0 9649. 9332. 224. o
4820 2 -12 2 -6 0 9649. 9332. 224. o
4820 1 -12 -2 6 0 9649. 9332. 224. o
4821 3 12 2 -6 1 145. 353. 226. <
4821 1 -12 -2 6 -1 145. 353. 226. <
4822 3 12 -3 -6 1 479. 712. 257. o
4822 1 -12 3 6 -1 479. 712. 257. o
4823 4 12 3 6 0 14536. 14513. 258. o
4823 3 12 -3 -6 0 14536. 14513. 258. o
4823 2 -12 -3 -6 0 14536. 14513. 258. o
4823 1 -12 3 6 0 14536. 14513. 258. o
4824 3 12 -3 -6 -1 1186. 1368. 259. o
4824 1 -12 3 6 1 1186. 1368. 259. o
4825 3 11 -3 -6 1 182. 2963. 363. o
4825 1 -11 3 6 -1 182. 2963. 363. o
4826 4 11 3 6 0 44664. 40327. 365. o
4826 3 11 -3 -6 0 44664. 40327. 365. o
4826 2 -11 -3 -6 0 44664. 40327. 365. o
4826 1 -11 3 6 0 44664. 40327. 365. o
4827 3 11 -3 -6 -1 703. 1420. 367. o
4827 1 -11 3 6 1 703. 1420. 367. o
4828 3 10 -3 -6 1 335. 331. 61. o
4828 1 -10 3 6 -1 335. 331. 61. o
4829 4 10 3 6 0 9636. 9834. 171. o
4829 3 10 -3 -6 0 9636. 9834. 171. o
4829 2 -10 -3 -6 0 9636. 9834. 171. o
4829 1 -10 3 6 0 9636. 9834. 171. o
4830 3 10 -3 -6 -1 268. 371. 63. o
4830 1 -10 3 6 1 268. 371. 63. o
4831 3 9 -3 -6 1 1122. 888. 222. o
4831 1 -9 3 6 -1 1122. 888. 222. o
4832 4 9 3 6 0 15353. 15616. 223. o
4832 3 9 -3 -6 0 15353. 15616. 223. o
4832 2 -9 -3 -6 0 15353. 15616. 223. o
4832 1 -9 3 6 0 15353. 15616. 223. o
4833 3 9 -3 -6 -1 521. 795. 224. o
4833 1 -9 3 6 1 521. 795. 224. o
4834 3 8 -3 -6 1 728. 658. 73. o
4834 1 -8 3 6 -1 728. 658. 73. o
4835 4 8 3 6 0 11977. 12256. 168. o
4835 3 8 -3 -6 0 11977. 12256. 168. o
4835 2 -8 -3 -6 0 11977. 12256. 168. o
4835 1 -8 3 6 0 11977. 12256. 168. o
4836 3 8 -3 -6 -1 1525. 1658. 85. o
4836 1 -8 3 6 1 1525. 1658. 85. o
4837 3 7 -3 -6 1 105. -9. 114. <
4837 1 -7 3 6 -1 105. -9. 114. <
4838 4 7 3 6 0 1856. 1577. 115. o
4838 3 7 -3 -6 0 1856. 1577. 115. o
4838 2 -7 -3 -6 0 1856. 1577. 115. o
4838 1 -7 3 6 0 1856. 1577. 115. o
4839 3 7 -3 -6 -1 843. 587. 109. o
4839 1 -7 3 6 1 843. 587. 109. o
4840 3 6 -3 -6 1 951. 786. 144. o
4840 1 -6 3 6 -1 951. 786. 144. o
4841 4 6 3 6 0 17539. 14877. 166. o
4841 3 6 -3 -6 0 17539. 14877. 166. o
4841 2 -6 -3 -6 0 17539. 14877. 166. o
4841 1 -6 3 6 0 17539. 14877. 166. o
4842 3 6 -3 -6 -1 1621. 1262. 146. o
4842 1 -6 3 6 1 1621. 1262. 146. o
4843 3 5 -3 -6 1 36. 12. 210. <
4843 1 -5 3 6 -1 36. 12. 210. <
4844 4 5 3 6 0 35767. 33606. 235. o
4844 3 5 -3 -6 0 35767. 33606. 235. o
4844 2 -5 -3 -6 0 35767. 33606. 235. o
4844 1 -5 3 6 0 35767. 33606. 235. o
4845 3 5 -3 -6 -1 12. -2. 193. <
4845 1 -5 3 6 1 12. -2. 193. <
4846 3 4 -3 -6 1 2. 24. 113. <
4846 1 -4 3 6 -1 2. 24. 113. <
4847 4 4 3 6 0 8073. 7775. 123. o
4847 3 4 -3 -6 0 8073. 7775. 123. o
4847 2 -4 -3 -6 0 8073. 7775. 123. o
4847 1 -4 3 6 0 8073. 7775. 123. o
4848 3 4 -3 -6 -1 247. 204. 107. <
4848 1 -4 3 6 1 247. 204. 107. <
4849 3 3 -3 -6 1 14. 21. 102. <
4849 1 -3 3 6 -1 14. 21. 102. <
4850 4 3 3 6 0 9103. 8881. 114. o
4850 3 3 -3 -6 0 9103. 8881. 114. o
4850 2 -3 -3 -6 0 9103. 8881. 114. o
4850 1 -3 3 6 0 9103. 8881. 114. o
4851 3 3 -3 -6 -1 69. 13. 98. <
4851 1 -3 3 6 1 69. 13. 98. <
4852 3 2 -3 -6 1 58. 56. 196. <
4852 1 -2 3 6 -1 58. 56. 196. <
4853 4 2 3 6 0 70740. 69509. 239. o
4853 3 2 -3 -6 0 70740. 69509. 239. o
4853 2 -2 -3 -6 0 70740. 69509. 239. o
4853 1 -2 3 6 0 70740. 69509. 239. o
4854 3 2 -3 -6 -1 186. 89. 191. <
4854 1 -2 3 6 1 186. 89. 191. <
4855 3 1 -3 -6 1 30. 39. 101. <
4855 1 -1 3 6 -1 30. 39. 101. <
4856 4 1 3 6 0 14861. 15190. 117. o
4856 3 1 -3 -6 0 14861. 15190. 117. o
4856 2 -1 -3 -6 0 14861. 15190. 117. o
4856 1 -1 3 6 0 14861. 15190. 117. o
4857 3 1 -3 -6 -1 225. 130. 99. <
4857 1 -1 3 6 1 225. 130. 99. <
4858 3 0 -3 -6 1 780. 732. 67. o
4858 1 0 3 6 -1 780. 732. 67. o
4859 3 0 3 -6 -1 783. 730. 107. o
4859 1 0 -3 6 1 783. 730. 107. o
4860 4 0 3 6 0 1364. 1449. 67. o
4860 3 0 -3 -6 0 1364. 1449. 67. o
4860 2 0 -3 -6 0 1364. 1449. 67. o
4860 1 0 3 6 0 1364. 1449. 67. o
4861 4 0 -3 6 0 1353. 1604. 108. o
4861 3 0 3 -6 0 1353. 1604. 108. o
4861 2 0 3 -6 0 1353. 1604. 108. o
4861 1 0 -3 6 0 1353. 1604. 108. o
4862 3 0 -3 -6 -1 762. 670. 66. o
4862 1 0 3 6 1 762. 670. 66. o
4863 3 0 3 -6 1 769. 875. 109. o
4863 1 0 -3 6 -1 769. 875. 109. o
4864 3 -1 -3 -6 1 70. 96. 96. <
4864 1 1 3 6 -1 70. 96. 96. <
4865 3 1 3 -6 -1 70. 107. 26. o
4865 1 -1 -3 6 1 70. 107. 26. o
4866 4 -1 3 6 0 14935. 15278. 111. o
4866 3 -1 -3 -6 0 14935. 15278. 111. o
4866 2 1 -3 -6 0 14935. 15278. 111. o
4866 1 1 3 6 0 14935. 15278. 111. o
4867 4 1 -3 6 0 15033. 16080. 122. o
4867 3 1 3 -6 0 15033. 16080. 122. o
4867 2 -1 3 -6 0 15033. 16080. 122. o
4867 1 -1 -3 6 0 15033. 16080. 122. o
4868 3 -1 -3 -6 -1 74. 64. 95. <
4868 1 1 3 6 1 74. 64. 95. <
4869 3 1 3 -6 1 76. 90. 27. o
4869 1 -1 -3 6 -1 76. 90. 27. o
4870 3 -2 -3 -6 1 721. 589. 182. o
4870 1 2 3 6 -1 721. 589. 182. o
4871 3 2 3 -6 -1 726. 841. 35. o
4871 1 -2 -3 6 1 726. 841. 35. o
4872 4 -2 3 6 0 70937. 70915. 222. o
4872 3 -2 -3 -6 0 70937. 70915. 222. o
4872 2 2 -3 -6 0 70937. 70915. 222. o
4872 1 2 3 6 0 70937. 70915. 222. o
4873 4 2 -3 6 0 70968. 77068. 241. o
4873 3 2 3 -6 0 70968. 77068. 241. o
4873 2 -2 3 -6 0 70968. 77068. 241. o
4873 1 -2 -3 6 0 70968. 77068. 241. o
4874 3 -2 -3 -6 -1 618. 546. 181. o
4874 1 2 3 6 1 618. 546. 181. o
4875 3 2 3 -6 1 617. 744. 45. o
4875 1 -2 -3 6 -1 617. 744. 45. o
4876 3 -3 -3 -6 1 3. 12. 79. <
4876 1 3 3 6 -1 3. 12. 79. <
4877 3 3 3 -6 -1 2. -18. 25. <
4877 1 -3 -3 6 1 2. -18. 25. <
4878 4 -3 3 6 0 9270. 8866. 94. o
4878 3 -3 -3 -6 0 9270. 8866. 94. o
4878 2 3 -3 -6 0 9270. 8866. 94. o
4878 1 3 3 6 0 9270. 8866. 94. o
4879 4 3 -3 6 0 9099. 10156. 110. o
4879 3 3 3 -6 0 9099. 10156. 110. o
4879 2 -3 3 -6 0 9099. 10156. 110. o
4879 1 -3 -3 6 0 9099. 10156. 110. o
4880 3 -3 -3 -6 -1 52. 14. 79. <
4880 1 3 3 6 1 52. 14. 79. <
4881 3 3 3 -6 1 52. -3. 28. <
4881 1 -3 -3 6 -1 52. -3. 28. <
4882 3 -4 -3 -6 1 307. 225. 160. <
4882 1 4 3 6 -1 307. 225. 160. <
4883 3 4 3 -6 -1 307. 350. 38. o
4883 1 -4 -3 6 1 307. 350. 38. o
4884 4 -4 3 6 0 7979. 8609. 159. o
4884 3 -4 -3 -6 0 7979. 8609. 159. o
4884 2 4 -3 -6 0 7979. 8609. 159. o
4884 1 4 3 6 0 7979. 8609. 159. o
4885 4 4 -3 6 0 7949. 8841. 112. o
4885 3 4 3 -6 0 7949. 8841. 112. o
4885 2 -4 3 -6 0 7949. 8841. 112. o
4885 1 -4 -3 6 0 7949. 8841. 112. o
4886 3 -4 -3 -6 -1 57. 51. 159. <
4886 1 4 3 6 1 57. 51. 159. <
4887 3 4 3 -6 1 58. 97. 36. o
4887 1 -4 -3 6 -1 58. 97. 36. o
4888 3 -5 -3 -6 1 515. 475. 270. <
4888 1 5 3 6 -1 515. 475. 270. <
4889 3 5 3 -6 -1 525. 669. 57. o
4889 1 -5 -3 6 1 525. 669. 57. o
4890 4 -5 3 6 0 36599. 38318. 269. o
4890 3 -5 -3 -6 0 36599. 38318. 269. o
4890 2 5 -3 -6 0 36599. 38318. 269. o
4890 1 5 3 6 0 36599. 38318. 269. o
4891 4 5 -3 6 0 35819. 38143. 240. o
4891 3 5 3 -6 0 35819. 38143. 240. o
4891 2 -5 3 -6 0 35819. 38143. 240. o
4891 1 -5 -3 6 0 35819. 38143. 240. o
4892 3 -5 -3 -6 -1 152. 138. 268. <
4892 1 5 3 6 1 152. 138. 268. <
4893 3 5 3 -6 1 151. 184. 41. o
4893 1 -5 -3 6 -1 151. 184. 41. o
4894 3 -6 -3 -6 1 167. 150. 212. <
4894 1 6 3 6 -1 167. 150. 212. <
4895 3 6 3 -6 -1 167. 177. 43. o
4895 1 -6 -3 6 1 167. 177. 43. o
4896 4 -6 3 6 0 17506. 19664. 211. o
4896 3 -6 -3 -6 0 17506. 19664. 211. o
4896 2 6 -3 -6 0 17506. 19664. 211. o
4896 1 6 3 6 0 17506. 19664. 211. o
4897 4 6 -3 6 0 17091. 19101. 190. o
4897 3 6 3 -6 0 17091. 19101. 190. o
4897 2 -6 3 -6 0 17091. 19101. 190. o
4897 1 -6 -3 6 0 17091. 19101. 190. o
4898 3 -6 -3 -6 -1 746. 622. 210. o
4898 1 6 3 6 1 746. 622. 210. o
4899 3 6 3 -6 1 751. 879. 68. o
4899 1 -6 -3 6 -1 751. 879. 68. o
4900 3 -7 -3 -6 1 764. 661. 135. o
4900 1 7 3 6 -1 764. 661. 135. o
4901 3 7 3 -6 -1 775. 862. 70. o
4901 1 -7 -3 6 1 775. 862. 70. o
4902 4 -7 3 6 0 1950. 2097. 134. o
4902 3 -7 -3 -6 0 1950. 2097. 134. o
4902 2 7 -3 -6 0 1950. 2097. 134. o
4902 1 7 3 6 0 1950. 2097. 134. o
4903 4 7 -3 6 0 1889. 1826. 82. o
4903 3 7 3 -6 0 1889. 1826. 82. o
4903 2 -7 3 -6 0 1889. 1826. 82. o
4903 1 -7 -3 6 0 1889. 1826. 82. o
4904 3 -7 -3 -6 -1 27. -15. 134. <
4904 1 7 3 6 1 27. -15. 134. <
4905 3 7 3 -6 1 27. -12. 42. <
4905 1 -7 -3 6 -1 27. -12. 42. <
4906 3 -8 -3 -6 1 139. 163. 197. <
4906 1 8 3 6 -1 139. 163. 197. <
4907 3 8 3 -6 -1 139. 141. 196. <
4907 1 -8 -3 6 1 139. 141. 196. <
4908 4 -8 3 6 0 11942. 12542. 196. o
4908 3 -8 -3 -6 0 11942. 12542. 196. o
4908 2 8 -3 -6 0 11942. 12542. 196. o
4908 1 8 3 6 0 11942. 12542. 196. o
4909 4 8 -3 6 0 11778. 12289. 198. o
4909 3 8 3 -6 0 11778. 12289. 198. o
4909 2 -8 3 -6 0 11778. 12289. 198. o
4909 1 -8 -3 6 0 11778. 12289. 198. o
4910 3 -8 -3 -6 -1 13. 23. 194. <
4910 1 8 3 6 1 13. 23. 194. <
4911 3 8 3 -6 1 15. 36. 199. <
4911 1 -8 -3 6 -1 15. 36. 199. <
4912 3 -9 -3 -6 1 511. 450. 228. <
4912 1 9 3 6 -1 511. 450. 228. <
4913 3 9 3 -6 -1 503. 487. 237. o
4913 1 -9 -3 6 1 503. 487. 237. o
4914 4 -9 3 6 0 15301. 16891. 226. o
4914 3 -9 -3 -6 0 15301. 16891. 226. o
4914 2 9 -3 -6 0 15301. 16891. 226. o
4914 1 9 3 6 0 15301. 16891. 226. o
4915 4 9 -3 6 0 16110. 16319. 239. o
4915 3 9 3 -6 0 16110. 16319. 239. o
4915 2 -9 3 -6 0 16110. 16319. 239. o
4915 1 -9 -3 6 0 16110. 16319. 239. o
4916 3 -9 -3 -6 -1 320. 283. 224. <
4916 1 9 3 6 1 320. 283. 224. <
4917 3 9 3 -6 1 309. 329. 240. <
4917 1 -9 -3 6 -1 309. 329. 240. <
4918 3 10 3 -6 -1 563. 203. 209. <
4918 1 -10 -3 6 1 563. 203. 209. <
4919 4 10 -3 6 0 9914. 9886. 210. o
4919 3 10 3 -6 0 9914. 9886. 210. o
4919 2 -10 3 -6 0 9914. 9886. 210. o
4919 1 -10 -3 6 0 9914. 9886. 210. o
4920 3 10 3 -6 1 123. 264. 211. <
4920 1 -10 -3 6 -1 123. 264. 211. <
4921 3 11 3 -6 -1 745. 818. 389. o
4921 1 -11 -3 6 1 745. 818. 389. o
4922 4 11 -3 6 0 46404. 46578. 391. o
4922 3 11 3 -6 0 46404. 46578. 391. o
4922 2 -11 3 -6 0 46404. 46578. 391. o
4922 1 -11 -3 6 0 46404. 46578. 391. o
4923 3 11 3 -6 1 321. 751. 393. <
4923 1 -11 -3 6 -1 321. 751. 393. <
4924 3 12 3 -6 -1 99. 199. 269. <
4924 1 -12 -3 6 1 99. 199. 269. <
4925 4 12 -3 6 0 15010. 15423. 270. o
4925 3 12 3 -6 0 15010. 15423. 270. o
4925 2 -12 3 -6 0 15010. 15423. 270. o
4925 1 -12 -3 6 0 15010. 15423. 270. o
4926 3 12 3 -6 1 13. 386. 272. <
4926 1 -12 -3 6 -1 13. 386. 272. <
4927 3 12 -4 -6 -1 53. 110. 68. <
4927 1 -12 4 6 1 53. 110. 68. <
4928 3 11 -4 -6 1 1096. 1336. 205. o
4928 1 -11 4 6 -1 1096. 1336. 205. o
4929 4 11 4 6 0 8714. 7495. 207. o
4929 3 11 -4 -6 0 8714. 7495. 207. o
4929 2 -11 -4 -6 0 8714. 7495. 207. o
4929 1 -11 4 6 0 8714. 7495. 207. o
4930 3 11 -4 -6 -1 61. 312. 208. <
4930 1 -11 4 6 1 61. 312. 208. <
4931 3 10 -4 -6 1 472. 480. 167. o
4931 1 -10 4 6 -1 472. 480. 167. o
4932 4 10 4 6 0 3203. 3284. 168. o
4932 3 10 -4 -6 0 3203. 3284. 168. o
4932 2 -10 -4 -6 0 3203. 3284. 168. o
4932 1 -10 4 6 0 3203. 3284. 168. o
4933 3 10 -4 -6 -1 283. 271. 169. <
4933 1 -10 4 6 1 283. 271. 169. <
4934 3 9 -4 -6 1 1098. 732. 390. <
4934 1 -9 4 6 -1 1098. 732. 390. <
4935 4 9 4 6 0 55649. 56784. 393. o
4935 3 9 -4 -6 0 55649. 56784. 393. o
4935 2 -9 -4 -6 0 55649. 56784. 393. o
4935 1 -9 4 6 0 55649. 56784. 393. o
4936 3 9 -4 -6 -1 640. 1615. 395. o
4936 1 -9 4 6 1 640. 1615. 395. o
4937 3 8 -4 -6 1 104. 47. 139. <
4937 1 -8 4 6 -1 104. 47. 139. <
4938 4 8 4 6 0 3073. 2553. 136. o
4938 3 8 -4 -6 0 3073. 2553. 136. o
4938 2 -8 -4 -6 0 3073. 2553. 136. o
4938 1 -8 4 6 0 3073. 2553. 136. o
4939 3 8 -4 -6 -1 221. 17. 118. <
4939 1 -8 4 6 1 221. 17. 118. <
4940 3 7 -4 -6 1 1092. 836. 164. o
4940 1 -7 4 6 -1 1092. 836. 164. o
4941 4 7 4 6 0 25730. 21511. 194. o
4941 3 7 -4 -6 0 25730. 21511. 194. o
4941 2 -7 -4 -6 0 25730. 21511. 194. o
4941 1 -7 4 6 0 25730. 21511. 194. o
4942 3 7 -4 -6 -1 1990. 1525. 158. o
4942 1 -7 4 6 1 1990. 1525. 158. o
4943 3 6 -4 -6 1 2336. 1795. 194. o
4943 1 -6 4 6 -1 2336. 1795. 194. o
4944 4 6 4 6 0 54768. 45241. 250. o
4944 3 6 -4 -6 0 54768. 45241. 250. o
4944 2 -6 -4 -6 0 54768. 45241. 250. o
4944 1 -6 4 6 0 54768. 45241. 250. o
4945 3 6 -4 -6 -1 1692. 1278. 193. o
4945 1 -6 4 6 1 1692. 1278. 193. o
4946 3 5 -4 -6 1 649. 486. 176. o
4946 1 -5 4 6 -1 649. 486. 176. o
4947 4 5 4 6 0 19336. 18114. 202. o
4947 3 5 -4 -6 0 19336. 18114. 202. o
4947 2 -5 -4 -6 0 19336. 18114. 202. o
4947 1 -5 4 6 0 19336. 18114. 202. o
4948 3 5 -4 -6 -1 233. 98. 175. <
4948 1 -5 4 6 1 233. 98. 175. <
4949 3 4 -4 -6 1 14. 21. 187. <
4949 1 -4 4 6 -1 14. 21. 187. <
4950 4 4 4 6 0 41762. 38358. 223. o
4950 3 4 -4 -6 0 41762. 38358. 223. o
4950 2 -4 -4 -6 0 41762. 38358. 223. o
4950 1 -4 4 6 0 41762. 38358. 223. o
4951 3 4 -4 -6 -1 8. 27. 177. <
4951 1 -4 4 6 1 8. 27. 177. <
4952 3 3 -4 -6 1 300. 203. 109. <
4952 1 -3 4 6 -1 300. 203. 109. <
4953 4 3 4 6 0 6913. 7099. 118. o
4953 3 3 -4 -6 0 6913. 7099. 118. o
4953 2 -3 -4 -6 0 6913. 7099. 118. o
4953 1 -3 4 6 0 6913. 7099. 118. o
4954 3 3 -4 -6 -1 16. 8. 104. <
4954 1 -3 4 6 1 16. 8. 104. <
4955 3 2 -4 -6 1 34. 22. 120. <
4955 1 -2 4 6 -1 34. 22. 120. <
4956 4 2 4 6 0 17558. 16988. 140. o
4956 3 2 -4 -6 0 17558. 16988. 140. o
4956 2 -2 -4 -6 0 17558. 16988. 140. o
4956 1 -2 4 6 0 17558. 16988. 140. o
4957 3 2 -4 -6 -1 76. 118. 117. <
4957 1 -2 4 6 1 76. 118. 117. <
4958 3 1 -4 -6 1 82. 84. 31. o
4958 1 -1 4 6 -1 82. 84. 31. o
4959 4 1 4 6 0 97197. 95239. 896. o
4959 3 1 -4 -6 0 97197. 95239. 896. o
4959 2 -1 -4 -6 0 97197. 95239. 896. o
4959 1 -1 4 6 0 97197. 95239. 896. o
4960 3 1 -4 -6 -1 53. 47. 31. <
4960 1 -1 4 6 1 53. 47. 31. <
4961 3 0 -4 -6 1 53. 95. 135. <
4961 1 0 4 6 -1 53. 95. 135. <
4962 4 0 4 6 0 30007. 30961. 164. o
4962 3 0 -4 -6 0 30007. 30961. 164. o
4962 2 0 -4 -6 0 30007. 30961. 164. o
4962 1 0 4 6 0 30007. 30961. 164. o
4963 3 0 -4 -6 -1 181. 192. 134. <
4963 1 0 4 6 1 181. 192. 134. <
4964 3 -1 -4 -6 1 746. 753. 299. o
4964 1 1 4 6 -1 746. 753. 299. o
4965 4 -1 4 6 0 97428. 98149. 401. o
4965 3 -1 -4 -6 0 97428. 98149. 401. o
4965 2 1 -4 -6 0 97428. 98149. 401. o
4965 1 1 4 6 0 97428. 98149. 401. o
4966 3 -1 -4 -6 -1 52. 194. 295. <
4966 1 1 4 6 1 52. 194. 295. <
4967 3 -2 -4 -6 1 677. 440. 111. o
4967 1 2 4 6 -1 677. 440. 111. o
4968 3 2 4 -6 -1 678. 713. 49. o
4968 1 -2 -4 6 1 678. 713. 49. o
4969 4 -2 4 6 0 18012. 17501. 131. o
4969 3 -2 -4 -6 0 18012. 17501. 131. o
4969 2 2 -4 -6 0 18012. 17501. 131. o
4969 1 2 4 6 0 18012. 17501. 131. o
4970 4 2 -4 6 0 17863. 18442. 153. o
4970 3 2 4 -6 0 17863. 18442. 153. o
4970 2 -2 4 -6 0 17863. 18442. 153. o
4970 1 -2 -4 6 0 17863. 18442. 153. o
4971 3 -2 -4 -6 -1 521. 414. 110. o
4971 1 2 4 6 1 521. 414. 110. o
4972 3 2 4 -6 1 521. 605. 49. o
4972 1 -2 -4 6 -1 521. 605. 49. o
4973 3 -3 -4 -6 1 311. 269. 81. o
4973 1 3 4 6 -1 311. 269. 81. o
4974 3 3 4 -6 -1 313. 364. 46. o
4974 1 -3 -4 6 1 313. 364. 46. o
4975 4 -3 4 6 0 6959. 7166. 97. o
4975 3 -3 -4 -6 0 6959. 7166. 97. o
4975 2 3 -4 -6 0 6959. 7166. 97. o
4975 1 3 4 6 0 6959. 7166. 97. o
4976 3 -3 -4 -6 -1 118. 77. 81. <
4976 1 3 4 6 1 118. 77. 81. <
4977 3 -4 -4 -6 1 39. 103. 149. <
4977 1 4 4 6 -1 39. 103. 149. <
4978 3 4 4 -6 -1 38. -1. 34. <
4978 1 -4 -4 6 1 38. -1. 34. <
4979 4 -4 4 6 0 41725. 43750. 257. o
4979 3 -4 -4 -6 0 41725. 43750. 257. o
4979 2 4 -4 -6 0 41725. 43750. 257. o
4979 1 4 4 6 0 41725. 43750. 257. o
4980 4 4 -4 6 0 41651. 46529. 265. o
4980 3 4 4 -6 0 41651. 46529. 265. o
4980 2 -4 4 -6 0 41651. 46529. 265. o
4980 1 -4 -4 6 0 41651. 46529. 265. o
4981 3 -4 -4 -6 -1 3. 36. 292. <
4981 1 4 4 6 1 3. 36. 292. <
4982 3 4 4 -6 1 3. 13. 37. <
4982 1 -4 -4 6 -1 3. 13. 37. <
4983 3 -5 -4 -6 1 4. 110. 219. <
4983 1 5 4 6 -1 4. 110. 219. <
4984 3 5 4 -6 -1 5. 1. 36. <
4984 1 -5 -4 6 1 5. 1. 36. <
4985 4 -5 4 6 0 19650. 22172. 219. o
4985 3 -5 -4 -6 0 19650. 22172. 219. o
4985 2 5 -4 -6 0 19650. 22172. 219. o
4985 1 5 4 6 0 19650. 22172. 219. o
4986 4 5 -4 6 0 19490. 21507. 193. o
4986 3 5 4 -6 0 19490. 21507. 193. o
4986 2 -5 4 -6 0 19490. 21507. 193. o
4986 1 -5 -4 6 0 19490. 21507. 193. o
4987 3 -5 -4 -6 -1 29. 40. 219. <
4987 1 5 4 6 1 29. 40. 219. <
4988 3 5 4 -6 1 33. 55. 40. <
4988 1 -5 -4 6 -1 33. 55. 40. <
4989 3 -6 -4 -6 1 119. 67. 342. <
4989 1 6 4 6 -1 119. 67. 342. <
4990 3 6 4 -6 -1 117. 26. 326. <
4990 1 -6 -4 6 1 117. 26. 326. <
4991 4 -6 4 6 0 55644. 61404. 342. o
4991 3 -6 -4 -6 0 55644. 61404. 342. o
4991 2 6 -4 -6 0 55644. 61404. 342. o
4991 1 6 4 6 0 55644. 61404. 342. o
4992 4 6 -4 6 0 55466. 54920. 328. o
4992 3 6 4 -6 0 55466. 54920. 328. o
4992 2 -6 4 -6 0 55466. 54920. 328. o
4992 1 -6 -4 6 0 55466. 54920. 328. o
4993 3 -6 -4 -6 -1 42. 77. 342. <
4993 1 6 4 6 1 42. 77. 342. <
4994 3 6 4 -6 1 42. 18. 329. <
4994 1 -6 -4 6 -1 42. 18. 329. <
4995 3 -7 -4 -6 1 1333. 1046. 250. o
4995 1 7 4 6 -1 1333. 1046. 250. o
4996 3 7 4 -6 -1 1312. 1204. 264. o
4996 1 -7 -4 6 1 1312. 1204. 264. o
4997 4 -7 4 6 0 25712. 26900. 250. o
4997 3 -7 -4 -6 0 25712. 26900. 250. o
4997 2 7 -4 -6 0 25712. 26900. 250. o
4997 1 7 4 6 0 25712. 26900. 250. o
4998 4 7 -4 6 0 25917. 26834. 266. o
4998 3 7 4 -6 0 25917. 26834. 266. o
4998 2 -7 4 -6 0 25917. 26834. 266. o
4998 1 -7 -4 6 0 25917. 26834. 266. o
4999 3 -7 -4 -6 -1 408. 299. 250. <
4999 1 7 4 6 1 408. 299. 250. <
5000 3 7 4 -6 1 394. 297. 267. <
5000 1 -7 -4 6 -1 394. 297. 267. <
5001 3 -8 -4 -6 1 37. 26. 143. <
5001 1 8 4 6 -1 37. 26. 143. <
5002 3 8 4 -6 -1 36. 20. 158. <
5002 1 -8 -4 6 1 36. 20. 158. <
5003 4 -8 4 6 0 3003. 3252. 143. o
5003 3 -8 -4 -6 0 3003. 3252. 143. o
5003 2 8 -4 -6 0 3003. 3252. 143. o
5003 1 8 4 6 0 3003. 3252. 143. o
5004 4 8 -4 6 0 2999. 3142. 159. o
5004 3 8 4 -6 0 2999. 3142. 159. o
5004 2 -8 4 -6 0 2999. 3142. 159. o
5004 1 -8 -4 6 0 2999. 3142. 159. o
5005 3 -8 -4 -6 -1 528. 475. 144. o
5005 1 8 4 6 1 528. 475. 144. o
5006 3 8 4 -6 1 533. 358. 160. o
5006 1 -8 -4 6 -1 533. 358. 160. o
5007 3 9 4 -6 -1 218. 149. 398. <
5007 1 -9 -4 6 1 218. 149. 398. <
5008 4 9 -4 6 0 56382. 57904. 401. o
5008 3 9 4 -6 0 56382. 57904. 401. o
5008 2 -9 4 -6 0 56382. 57904. 401. o
5008 1 -9 -4 6 0 56382. 57904. 401. o
5009 3 9 4 -6 1 40. 359. 402. <
5009 1 -9 -4 6 -1 40. 359. 402. <
5010 3 10 4 -6 -1 328. 357. 183. <
5010 1 -10 -4 6 1 328. 357. 183. <
5011 4 10 -4 6 0 3470. 3392. 184. o
5011 3 10 4 -6 0 3470. 3392. 184. o
5011 2 -10 4 -6 0 3470. 3392. 184. o
5011 1 -10 -4 6 0 3470. 3392. 184. o
5012 3 10 4 -6 1 428. 406. 185. o
5012 1 -10 -4 6 -1 428. 406. 185. o
5013 3 11 4 -6 -1 288. 225. 241. <
5013 1 -11 -4 6 1 288. 225. 241. <
5014 4 11 -4 6 0 9231. 9007. 243. o
5014 3 11 4 -6 0 9231. 9007. 243. o
5014 2 -11 4 -6 0 9231. 9007. 243. o
5014 1 -11 -4 6 0 9231. 9007. 243. o
5015 3 11 4 -6 1 2349. 2219. 244. o
5015 1 -11 -4 6 -1 2349. 2219. 244. o
5016 3 12 4 -6 -1 111. 54. 73. <
5016 1 -12 -4 6 1 111. 54. 73. <
5017 3 11 -5 -6 1 687. 589. 309. <
5017 1 -11 5 6 -1 687. 589. 309. <
5018 4 11 5 6 0 21719. 23280. 311. o
5018 3 11 -5 -6 0 21719. 23280. 311. o
5018 2 -11 -5 -6 0 21719. 23280. 311. o
5018 1 -11 5 6 0 21719. 23280. 311. o
5019 3 11 -5 -6 -1 54. 817. 312. o
5019 1 -11 5 6 1 54. 817. 312. o
5020 3 10 -5 -6 1 320. 364. 158. o
5020 1 -10 5 6 -1 320. 364. 158. o
5021 4 10 5 6 0 2006. 2119. 159. o
5021 3 10 -5 -6 0 2006. 2119. 159. o
5021 2 -10 -5 -6 0 2006. 2119. 159. o
5021 1 -10 5 6 0 2006. 2119. 159. o
5022 3 10 -5 -6 -1 178. 87. 160. <
5022 1 -10 5 6 1 178. 87. 160. <
5023 3 9 -5 -6 1 653. 729. 239. o
5023 1 -9 5 6 -1 653. 729. 239. o
5024 4 9 5 6 0 21868. 20495. 234. o
5024 3 9 -5 -6 0 21868. 20495. 234. o
5024 2 -9 -5 -6 0 21868. 20495. 234. o
5024 1 -9 5 6 0 21868. 20495. 234. o
5025 3 9 -5 -6 -1 1089. 807. 229. o
5025 1 -9 5 6 1 1089. 807. 229. o
5026 3 8 -5 -6 1 82. 128. 124. <
5026 1 -8 5 6 -1 82. 128. 124. <
5027 4 8 5 6 0 4381. 3754. 133. o
5027 3 8 -5 -6 0 4381. 3754. 133. o
5027 2 -8 -5 -6 0 4381. 3754. 133. o
5027 1 -8 5 6 0 4381. 3754. 133. o
5028 3 8 -5 -6 -1 102. 149. 117. <
5028 1 -8 5 6 1 102. 149. 117. <
5029 3 7 -5 -6 1 19. 61. 143. <
5029 1 -7 5 6 -1 19. 61. 143. <
5030 4 7 5 6 0 19579. 17012. 178. o
5030 3 7 -5 -6 0 19579. 17012. 178. o
5030 2 -7 -5 -6 0 19579. 17012. 178. o
5030 1 -7 5 6 0 19579. 17012. 178. o
5031 3 7 -5 -6 -1 21. 53. 139. <
5031 1 -7 5 6 1 21. 53. 139. <
5032 3 6 -5 -6 1 1499. 1038. 130. o
5032 1 -6 5 6 -1 1499. 1038. 130. o
5033 4 6 5 6 0 9333. 8426. 146. o
5033 3 6 -5 -6 0 9333. 8426. 146. o
5033 2 -6 -5 -6 0 9333. 8426. 146. o
5033 1 -6 5 6 0 9333. 8426. 146. o
5034 3 6 -5 -6 -1 145. 170. 125. <
5034 1 -6 5 6 1 145. 170. 125. <
5035 3 5 -5 -6 1 1650. 1523. 127. o
5035 1 -5 5 6 -1 1650. 1523. 127. o
5036 4 5 5 6 0 2918. 2477. 131. o
5036 3 5 -5 -6 0 2918. 2477. 131. o
5036 2 -5 -5 -6 0 2918. 2477. 131. o
5036 1 -5 5 6 0 2918. 2477. 131. o
5037 3 5 -5 -6 -1 1806. 1327. 132. o
5037 1 -5 5 6 1 1806. 1327. 132. o
5038 3 4 -5 -6 1 84. 165. 171. <
5038 1 -4 5 6 -1 84. 165. 171. <
5039 4 4 5 6 0 19366. 18708. 192. o
5039 3 4 -5 -6 0 19366. 18708. 192. o
5039 2 -4 -5 -6 0 19366. 18708. 192. o
5039 1 -4 5 6 0 19366. 18708. 192. o
5040 3 4 -5 -6 -1 598. 555. 164. o
5040 1 -4 5 6 1 598. 555. 164. o
5041 3 3 -5 -6 1 85. 47. 168. <
5041 1 -3 5 6 -1 85. 47. 168. <
5042 4 3 5 6 0 33872. 32055. 204. o
5042 3 3 -5 -6 0 33872. 32055. 204. o
5042 2 -3 -5 -6 0 33872. 32055. 204. o
5042 1 -3 5 6 0 33872. 32055. 204. o
5043 3 3 -5 -6 -1 160. 43. 162. <
5043 1 -3 5 6 1 160. 43. 162. <
5044 3 2 -5 -6 1 20. -4. 111. <
5044 1 -2 5 6 -1 20. -4. 111. <
5045 4 2 5 6 0 9860. 9886. 127. o
5045 3 2 -5 -6 0 9860. 9886. 127. o
5045 2 -2 -5 -6 0 9860. 9886. 127. o
5045 1 -2 5 6 0 9860. 9886. 127. o
5046 3 2 -5 -6 -1 73. 49. 109. <
5046 1 -2 5 6 1 73. 49. 109. <
5047 3 1 -5 -6 1 536. 396. 139. o
5047 1 -1 5 6 -1 536. 396. 139. o
5048 4 1 5 6 0 23924. 24431. 168. o
5048 3 1 -5 -6 0 23924. 24431. 168. o
5048 2 -1 -5 -6 0 23924. 24431. 168. o
5048 1 -1 5 6 0 23924. 24431. 168. o
5049 3 1 -5 -6 -1 1553. 1150. 138. o
5049 1 -1 5 6 1 1553. 1150. 138. o
5050 3 0 -5 -6 1 125. 172. 39. o
5050 1 0 5 6 -1 125. 172. 39. o
5051 4 0 5 6 0 519. 623. 57. o
5051 3 0 -5 -6 0 519. 623. 57. o
5051 2 0 -5 -6 0 519. 623. 57. o
5051 1 0 5 6 0 519. 623. 57. o
5052 3 0 -5 -6 -1 143. 175. 43. o
5052 1 0 5 6 1 143. 175. 43. o
5053 3 -1 -5 -6 1 176. 161. 127. <
5053 1 1 5 6 -1 176. 161. 127. <
5054 4 -1 5 6 0 23916. 24249. 160. o
5054 3 -1 -5 -6 0 23916. 24249. 160. o
5054 2 1 -5 -6 0 23916. 24249. 160. o
5054 1 1 5 6 0 23916. 24249. 160. o
5055 3 -1 -5 -6 -1 164. 194. 126. <
5055 1 1 5 6 1 164. 194. 126. <
5056 3 -2 -5 -6 1 11. 28. 95. <
5056 1 2 5 6 -1 11. 28. 95. <
5057 4 -2 5 6 0 9973. 9961. 116. o
5057 3 -2 -5 -6 0 9973. 9961. 116. o
5057 2 2 -5 -6 0 9973. 9961. 116. o
5057 1 2 5 6 0 9973. 9961. 116. o
5058 3 -2 -5 -6 -1 2. 6. 95. <
5058 1 2 5 6 1 2. 6. 95. <
5059 3 -3 -5 -6 1 589. 525. 148. o
5059 1 3 5 6 -1 589. 525. 148. o
5060 4 -3 5 6 0 34651. 35246. 199. o
5060 3 -3 -5 -6 0 34651. 35246. 199. o
5060 2 3 -5 -6 0 34651. 35246. 199. o
5060 1 3 5 6 0 34651. 35246. 199. o
5061 3 -3 -5 -6 -1 177. 147. 147. <
5061 1 3 5 6 1 177. 147. 147. <
5062 3 -4 -5 -6 1 11. 51. 119. <
5062 1 4 5 6 -1 11. 51. 119. <
5063 4 -4 5 6 0 19672. 19297. 155. o
5063 3 -4 -5 -6 0 19672. 19297. 155. o
5063 2 4 -5 -6 0 19672. 19297. 155. o
5063 1 4 5 6 0 19672. 19297. 155. o
5064 3 -4 -5 -6 -1 32. 26. 119. <
5064 1 4 5 6 1 32. 26. 119. <
5065 3 -5 -5 -6 1 15. 33. 137. <
5065 1 5 5 6 -1 15. 33. 137. <
5066 3 5 5 -6 -1 14. -2. 41. <
5066 1 -5 -5 6 1 14. -2. 41. <
5067 4 -5 5 6 0 2919. 3055. 137. o
5067 3 -5 -5 -6 0 2919. 3055. 137. o
5067 2 5 -5 -6 0 2919. 3055. 137. o
5067 1 5 5 6 0 2919. 3055. 137. o
5068 4 5 -5 6 0 4125. 3746. 100. o
5068 3 5 5 -6 0 4125. 3746. 100. o
5068 2 -5 5 -6 0 4125. 3746. 100. o
5068 1 -5 -5 6 0 4125. 3746. 100. o
5069 3 -5 -5 -6 -1 130. -6. 137. <
5069 1 5 5 6 1 130. -6. 137. <
5070 3 5 5 -6 1 129. 9. 42. <
5070 1 -5 -5 6 -1 129. 9. 42. <
5071 3 -6 -5 -6 1 98. 245. 180. <
5071 1 6 5 6 -1 98. 245. 180. <
5072 3 6 5 -6 -1 95. 147. 50. o
5072 1 -6 -5 6 1 95. 147. 50. o
5073 4 -6 5 6 0 9405. 10165. 180. o
5073 3 -6 -5 -6 0 9405. 10165. 180. o
5073 2 6 -5 -6 0 9405. 10165. 180. o
5073 1 6 5 6 0 9405. 10165. 180. o
5074 4 6 -5 6 0 9897. 10153. 156. o
5074 3 6 5 -6 0 9897. 10153. 156. o
5074 2 -6 5 -6 0 9897. 10153. 156. o
5074 1 -6 -5 6 0 9897. 10153. 156. o
5075 3 -6 -5 -6 -1 56. 44. 180. <
5075 1 6 5 6 1 56. 44. 180. <
5076 3 6 5 -6 1 53. -19. 48. <
5076 1 -6 -5 6 -1 53. -19. 48. <
5077 3 -7 -5 -6 1 88. 549. 236. o
5077 1 7 5 6 -1 88. 549. 236. o
5078 3 7 5 -6 -1 87. 54. 256. <
5078 1 -7 -5 6 1 87. 54. 256. <
5079 4 -7 5 6 0 20345. 21702. 237. o
5079 3 -7 -5 -6 0 20345. 21702. 237. o
5079 2 7 -5 -6 0 20345. 21702. 237. o
5079 1 7 5 6 0 20345. 21702. 237. o
5080 4 7 -5 6 0 20641. 22269. 257. o
5080 3 7 5 -6 0 20641. 22269. 257. o
5080 2 -7 5 -6 0 20641. 22269. 257. o
5080 1 -7 -5 6 0 20641. 22269. 257. o
5081 3 -7 -5 -6 -1 386. 522. 237. o
5081 1 7 5 6 1 386. 522. 237. o
5082 3 7 5 -6 1 380. 397. 259. <
5082 1 -7 -5 6 -1 380. 397. 259. <
5083 3 8 5 -6 -1 408. 342. 182. <
5083 1 -8 -5 6 1 408. 342. 182. <
5084 4 8 -5 6 0 4416. 4632. 183. o
5084 3 8 5 -6 0 4416. 4632. 183. o
5084 2 -8 5 -6 0 4416. 4632. 183. o
5084 1 -8 -5 6 0 4416. 4632. 183. o
5085 3 8 5 -6 1 316. 291. 184. <
5085 1 -8 -5 6 -1 316. 291. 184. <
5086 3 9 5 -6 -1 532. 253. 291. <
5086 1 -9 -5 6 1 532. 253. 291. <
5087 4 9 -5 6 0 22558. 23487. 292. o
5087 3 9 5 -6 0 22558. 23487. 292. o
5087 2 -9 5 -6 0 22558. 23487. 292. o
5087 1 -9 -5 6 0 22558. 23487. 292. o
5088 3 9 5 -6 1 48. 81. 294. <
5088 1 -9 -5 6 -1 48. 81. 294. <
5089 3 10 5 -6 -1 208. 128. 181. <
5089 1 -10 -5 6 1 208. 128. 181. <
5090 4 10 -5 6 0 1630. 1858. 182. o
5090 3 10 5 -6 0 1630. 1858. 182. o
5090 2 -10 5 -6 0 1630. 1858. 182. o
5090 1 -10 -5 6 0 1630. 1858. 182. o
5091 3 10 5 -6 1 34. 16. 183. <
5091 1 -10 -5 6 -1 34. 16. 183. <
5092 3 11 5 -6 -1 96. 304. 325. <
5092 1 -11 -5 6 1 96. 304. 325. <
5093 4 11 -5 6 0 22504. 23891. 327. o
5093 3 11 5 -6 0 22504. 23891. 327. o
5093 2 -11 5 -6 0 22504. 23891. 327. o
5093 1 -11 -5 6 0 22504. 23891. 327. o
5094 3 11 5 -6 1 206. 472. 329. <
5094 1 -11 -5 6 -1 206. 472. 329. <
5095 3 10 -6 -6 1 196. 358. 188. <
5095 1 -10 6 6 -1 196. 358. 188. <
5096 4 10 6 6 0 6218. 6330. 184. o
5096 3 10 -6 -6 0 6218. 6330. 184. o
5096 2 -10 -6 -6 0 6218. 6330. 184. o
5096 1 -10 6 6 0 6218. 6330. 184. o
5097 3 10 -6 -6 -1 138. 47. 180. <
5097 1 -10 6 6 1 138. 47. 180. <
5098 3 9 -6 -6 1 248. 1015. 294. o
5098 1 -9 6 6 -1 248. 1015. 294. o
5099 4 9 6 6 0 43787. 40890. 290. o
5099 3 9 -6 -6 0 43787. 40890. 290. o
5099 2 -9 -6 -6 0 43787. 40890. 290. o
5099 1 -9 6 6 0 43787. 40890. 290. o
5100 3 9 -6 -6 -1 266. 97. 286. <
5100 1 -9 6 6 1 266. 97. 286. <
5101 3 8 -6 -6 1 434. 1476. 330. o
5101 1 -8 6 6 -1 434. 1476. 330. o
5102 4 8 6 6 0 70300. 62389. 328. o
5102 3 8 -6 -6 0 70300. 62389. 328. o
5102 2 -8 -6 -6 0 70300. 62389. 328. o
5102 1 -8 6 6 0 70300. 62389. 328. o
5103 3 8 -6 -6 -1 74. 250. 327. <
5103 1 -8 6 6 1 74. 250. 327. <
5104 3 7 -6 -6 1 169. 144. 141. <
5104 1 -7 6 6 -1 169. 144. 141. <
5105 4 7 6 6 0 17580. 15934. 180. o
5105 3 7 -6 -6 0 17580. 15934. 180. o
5105 2 -7 -6 -6 0 17580. 15934. 180. o
5105 1 -7 6 6 0 17580. 15934. 180. o
5106 3 7 -6 -6 -1 231. 217. 139. <
5106 1 -7 6 6 1 231. 217. 139. <
5107 3 6 -6 -6 1 32. 18. 100. <
5107 1 -6 6 6 -1 32. 18. 100. <
5108 4 6 6 6 0 881. 731. 106. o
5108 3 6 -6 -6 0 881. 731. 106. o
5108 2 -6 -6 -6 0 881. 731. 106. o
5108 1 -6 6 6 0 881. 731. 106. o
5109 3 6 -6 -6 -1 92. -8. 100. <
5109 1 -6 6 6 1 92. -8. 100. <
5110 3 5 -6 -6 1 223. 97. 130. <
5110 1 -5 6 6 -1 223. 97. 130. <
5111 4 5 6 6 0 8487. 7908. 149. o
5111 3 5 -6 -6 0 8487. 7908. 149. o
5111 2 -5 -6 -6 0 8487. 7908. 149. o
5111 1 -5 6 6 0 8487. 7908. 149. o
5112 3 5 -6 -6 -1 1306. 1009. 135. o
5112 1 -5 6 6 1 1306. 1009. 135. o
5113 3 4 -6 -6 1 1560. 1533. 264. o
5113 1 -4 6 6 -1 1560. 1533. 264. o
5114 4 4 6 6 0 50744. 52083. 306. o
5114 3 4 -6 -6 0 50744. 52083. 306. o
5114 2 -4 -6 -6 0 50744. 52083. 306. o
5114 1 -4 6 6 0 50744. 52083. 306. o
5115 3 4 -6 -6 -1 2143. 2025. 255. o
5115 1 -4 6 6 1 2143. 2025. 255. o
5116 3 3 -6 -6 1 1557. 1444. 162. o
5116 1 -3 6 6 -1 1557. 1444. 162. o
5117 4 3 6 6 0 15186. 15189. 179. o
5117 3 3 -6 -6 0 15186. 15189. 179. o
5117 2 -3 -6 -6 0 15186. 15189. 179. o
5117 1 -3 6 6 0 15186. 15189. 179. o
5118 3 3 -6 -6 -1 837. 773. 156. o
5118 1 -3 6 6 1 837. 773. 156. o
5119 3 2 -6 -6 1 181. 20. 214. <
5119 1 -2 6 6 -1 181. 20. 214. <
5120 4 2 6 6 0 54055. 53242. 266. o
5120 3 2 -6 -6 0 54055. 53242. 266. o
5120 2 -2 -6 -6 0 54055. 53242. 266. o
5120 1 -2 6 6 0 54055. 53242. 266. o
5121 3 2 -6 -6 -1 20. 147. 209. <
5121 1 -2 6 6 1 20. 147. 209. <
5122 3 1 -6 -6 1 37. 20. 41. <
5122 1 -1 6 6 -1 37. 20. 41. <
5123 4 1 6 6 0 72323. 71733. 377. o
5123 3 1 -6 -6 0 72323. 71733. 377. o
5123 2 -1 -6 -6 0 72323. 71733. 377. o
5123 1 -1 6 6 0 72323. 71733. 377. o
5124 3 1 -6 -6 -1 504. 463. 57. o
5124 1 -1 6 6 1 504. 463. 57. o
5125 3 0 -6 -6 1 564. 576. 124. o
5125 1 0 6 6 -1 564. 576. 124. o
5126 4 0 6 6 0 16341. 15879. 150. o
5126 3 0 -6 -6 0 16341. 15879. 150. o
5126 2 0 -6 -6 0 16341. 15879. 150. o
5126 1 0 6 6 0 16341. 15879. 150. o
5127 3 0 -6 -6 -1 371. 252. 121. o
5127 1 0 6 6 1 371. 252. 121. o
5128 3 -1 -6 -6 1 41. 198. 218. <
5128 1 1 6 6 -1 41. 198. 218. <
5129 4 -1 6 6 0 72544. 73867. 290. o
5129 3 -1 -6 -6 0 72544. 73867. 290. o
5129 2 1 -6 -6 0 72544. 73867. 290. o
5129 1 1 6 6 0 72544. 73867. 290. o
5130 3 -1 -6 -6 -1 926. 814. 219. o
5130 1 1 6 6 1 926. 814. 219. o
5131 3 -2 -6 -6 1 168. 194. 189. <
5131 1 2 6 6 -1 168. 194. 189. <
5132 4 -2 6 6 0 54549. 57240. 260. o
5132 3 -2 -6 -6 0 54549. 57240. 260. o
5132 2 2 -6 -6 0 54549. 57240. 260. o
5132 1 2 6 6 0 54549. 57240. 260. o
5133 3 -2 -6 -6 -1 185. 242. 188. <
5133 1 2 6 6 1 185. 242. 188. <
5134 3 -3 -6 -6 1 175. 208. 118. <
5134 1 3 6 6 -1 175. 208. 118. <
5135 4 -3 6 6 0 15196. 15640. 153. o
5135 3 -3 -6 -6 0 15196. 15640. 153. o
5135 2 3 -6 -6 0 15196. 15640. 153. o
5135 1 3 6 6 0 15196. 15640. 153. o
5136 3 -3 -6 -6 -1 812. 768. 120. o
5136 1 3 6 6 1 812. 768. 120. o
5137 3 -4 -6 -6 1 43. 182. 183. <
5137 1 4 6 6 -1 43. 182. 183. <
5138 4 -4 6 6 0 51057. 50843. 241. o
5138 3 -4 -6 -6 0 51057. 50843. 241. o
5138 2 4 -6 -6 0 51057. 50843. 241. o
5138 1 4 6 6 0 51057. 50843. 241. o
5139 3 -4 -6 -6 -1 143. 80. 183. <
5139 1 4 6 6 1 143. 80. 183. <
5140 3 -5 -6 -6 1 138. 230. 188. <
5140 1 5 6 6 -1 138. 230. 188. <
5141 4 -5 6 6 0 8741. 9939. 188. o
5141 3 -5 -6 -6 0 8741. 9939. 188. o
5141 2 5 -6 -6 0 8741. 9939. 188. o
5141 1 5 6 6 0 8741. 9939. 188. o
5142 3 -5 -6 -6 -1 43. 13. 188. <
5142 1 5 6 6 1 43. 13. 188. <
5143 3 -6 -6 -6 1 32. 0. 134. <
5143 1 6 6 6 -1 32. 0. 134. <
5144 3 6 6 -6 -1 31. 21. 50. <
5144 1 -6 -6 6 1 31. 21. 50. <
5145 4 -6 6 6 0 847. 1072. 135. o
5145 3 -6 -6 -6 0 847. 1072. 135. o
5145 2 6 -6 -6 0 847. 1072. 135. o
5145 1 6 6 6 0 847. 1072. 135. o
5146 3 -6 -6 -6 -1 9. -11. 136. <
5146 1 6 6 6 1 9. -11. 136. <
5147 3 10 -7 -6 1 112. 745. 231. o
5147 1 -10 7 6 -1 112. 745. 231. o
5148 4 10 7 6 0 16616. 15554. 227. o
5148 3 10 -7 -6 0 16616. 15554. 227. o
5148 2 -10 -7 -6 0 16616. 15554. 227. o
5148 1 -10 7 6 0 16616. 15554. 227. o
5149 3 10 -7 -6 -1 491. 357. 223. <
5149 1 -10 7 6 1 491. 357. 223. <
5150 3 9 -7 -6 1 35. 13. 137. <
5150 1 -9 7 6 -1 35. 13. 137. <
5151 4 9 7 6 0 295. 435. 135. o
5151 3 9 -7 -6 0 295. 435. 135. o
5151 2 -9 -7 -6 0 295. 435. 135. o
5151 1 -9 7 6 0 295. 435. 135. o
5152 3 9 -7 -6 -1 607. 250. 134. <
5152 1 -9 7 6 1 607. 250. 134. <
5153 3 8 -7 -6 1 144. 272. 140. <
5153 1 -8 7 6 -1 144. 272. 140. <
5154 4 8 7 6 0 3092. 2654. 139. o
5154 3 8 -7 -6 0 3092. 2654. 139. o
5154 2 -8 -7 -6 0 3092. 2654. 139. o
5154 1 -8 7 6 0 3092. 2654. 139. o
5155 3 8 -7 -6 -1 182. 85. 138. <
5155 1 -8 7 6 1 182. 85. 138. <
5156 3 7 -7 -6 1 37. 2. 121. <
5156 1 -7 7 6 -1 37. 2. 121. <
5157 4 7 7 6 0 120. 130. 121. <
5157 3 7 -7 -6 0 120. 130. 121. <
5157 2 -7 -7 -6 0 120. 130. 121. <
5157 1 -7 7 6 0 120. 130. 121. <
5158 3 7 -7 -6 -1 44. 13. 120. <
5158 1 -7 7 6 1 44. 13. 120. <
5159 3 6 -7 -6 1 542. 190. 187. <
5159 1 -6 7 6 -1 542. 190. 187. <
5160 4 6 7 6 0 16794. 15022. 187. o
5160 3 6 -7 -6 0 16794. 15022. 187. o
5160 2 -6 -7 -6 0 16794. 15022. 187. o
5160 1 -6 7 6 0 16794. 15022. 187. o
5161 3 6 -7 -6 -1 198. 87. 188. <
5161 1 -6 7 6 1 198. 87. 188. <
5162 3 5 -7 -6 1 3. 15. 254. <
5162 1 -5 7 6 -1 3. 15. 254. <
5163 4 5 7 6 0 19282. 19713. 257. o
5163 3 5 -7 -6 0 19282. 19713. 257. o
5163 2 -5 -7 -6 0 19282. 19713. 257. o
5163 1 -5 7 6 0 19282. 19713. 257. o
5164 3 5 -7 -6 -1 44. 91. 260. <
5164 1 -5 7 6 1 44. 91. 260. <
5165 3 4 -7 -6 1 2046. 1715. 180. o
5165 1 -4 7 6 -1 2046. 1715. 180. o
5166 4 4 7 6 0 25872. 23640. 217. o
5166 3 4 -7 -6 0 25872. 23640. 217. o
5166 2 -4 -7 -6 0 25872. 23640. 217. o
5166 1 -4 7 6 0 25872. 23640. 217. o
5167 3 4 -7 -6 -1 752. 918. 181. o
5167 1 -4 7 6 1 752. 918. 181. o
5168 3 3 -7 -6 1 700. 714. 139. o
5168 1 -3 7 6 -1 700. 714. 139. o
5169 4 3 7 6 0 1540. 2904. 139. o
5169 3 3 -7 -6 0 1540. 2904. 139. o
5169 2 -3 -7 -6 0 1540. 2904. 139. o
5169 1 -3 7 6 0 1540. 2904. 139. o
5170 3 3 -7 -6 -1 175. 10. 132. <
5170 1 -3 7 6 1 175. 10. 132. <
5171 3 2 -7 -6 1 1150. 971. 238. o
5171 1 -2 7 6 -1 1150. 971. 238. o
5172 4 2 7 6 0 53646. 52056. 292. o
5172 3 2 -7 -6 0 53646. 52056. 292. o
5172 2 -2 -7 -6 0 53646. 52056. 292. o
5172 1 -2 7 6 0 53646. 52056. 292. o
5173 3 2 -7 -6 -1 619. 920. 232. o
5173 1 -2 7 6 1 619. 920. 232. o
5174 3 1 -7 -6 1 163. 174. 104. <
5174 1 -1 7 6 -1 163. 174. 104. <
5175 4 1 7 6 0 4607. 4570. 118. o
5175 3 1 -7 -6 0 4607. 4570. 118. o
5175 2 -1 -7 -6 0 4607. 4570. 118. o
5175 1 -1 7 6 0 4607. 4570. 118. o
5176 3 1 -7 -6 -1 130. 218. 103. o
5176 1 -1 7 6 1 130. 218. 103. o
5177 3 0 -7 -6 1 192. 98. 81. <
5177 1 0 7 6 -1 192. 98. 81. <
5178 4 0 7 6 0 352. 352. 83. o
5178 3 0 -7 -6 0 352. 352. 83. o
5178 2 0 -7 -6 0 352. 352. 83. o
5178 1 0 7 6 0 352. 352. 83. o
5179 3 0 -7 -6 -1 157. 94. 81. <
5179 1 0 7 6 1 157. 94. 81. <
5180 3 -1 -7 -6 1 206. 233. 101. o
5180 1 1 7 6 -1 206. 233. 101. o
5181 4 -1 7 6 0 4583. 5157. 120. o
5181 3 -1 -7 -6 0 4583. 5157. 120. o
5181 2 1 -7 -6 0 4583. 5157. 120. o
5181 1 1 7 6 0 4583. 5157. 120. o
5182 3 -1 -7 -6 -1 393. 337. 103. o
5182 1 1 7 6 1 393. 337. 103. o
5183 3 -2 -7 -6 1 840. 830. 204. o
5183 1 2 7 6 -1 840. 830. 204. o
5184 4 -2 7 6 0 53721. 56226. 278. o
5184 3 -2 -7 -6 0 53721. 56226. 278. o
5184 2 2 -7 -6 0 53721. 56226. 278. o
5184 1 2 7 6 0 53721. 56226. 278. o
5185 3 -2 -7 -6 -1 573. 538. 199. o
5185 1 2 7 6 1 573. 538. 199. o
5186 3 -3 -7 -6 1 606. 607. 88. o
5186 1 3 7 6 -1 606. 607. 88. o
5187 4 -3 7 6 0 1592. 1698. 93. o
5187 3 -3 -7 -6 0 1592. 1698. 93. o
5187 2 3 -7 -6 0 1592. 1698. 93. o
5187 1 3 7 6 0 1592. 1698. 93. o
5188 3 -3 -7 -6 -1 31. -11. 84. <
5188 1 3 7 6 1 31. -11. 84. <
5189 3 -4 -7 -6 1 981. 1028. 150. o
5189 1 4 7 6 -1 981. 1028. 150. o
5190 4 -4 7 6 0 26540. 24485. 186. o
5190 3 -4 -7 -6 0 26540. 24485. 186. o
5190 2 4 -7 -6 0 26540. 24485. 186. o
5190 1 4 7 6 0 26540. 24485. 186. o
5191 3 -4 -7 -6 -1 264. 350. 184. <
5191 1 4 7 6 1 264. 350. 184. <
5192 3 -5 -7 -6 1 46. 322. 253. <
5192 1 5 7 6 -1 46. 322. 253. <
5193 4 -5 7 6 0 19966. 22084. 253. o
5193 3 -5 -7 -6 0 19966. 22084. 253. o
5193 2 5 -7 -6 0 19966. 22084. 253. o
5193 1 5 7 6 0 19966. 22084. 253. o
5194 3 -5 -7 -6 -1 246. 353. 254. <
5194 1 5 7 6 1 246. 353. 254. <
5195 3 9 -8 -6 1 985. 539. 160. o
5195 1 -9 8 6 -1 985. 539. 160. o
5196 4 9 8 6 0 2801. 2700. 160. o
5196 3 9 -8 -6 0 2801. 2700. 160. o
5196 2 -9 -8 -6 0 2801. 2700. 160. o
5196 1 -9 8 6 0 2801. 2700. 160. o
5197 3 9 -8 -6 -1 486. 190. 159. <
5197 1 -9 8 6 1 486. 190. 159. <
5198 3 8 -8 -6 1 98. 742. 176. o
5198 1 -8 8 6 -1 98. 742. 176. o
5199 4 8 8 6 0 9346. 7969. 176. o
5199 3 8 -8 -6 0 9346. 7969. 176. o
5199 2 -8 -8 -6 0 9346. 7969. 176. o
5199 1 -8 8 6 0 9346. 7969. 176. o
5200 3 8 -8 -6 -1 92. 28. 175. <
5200 1 -8 8 6 1 92. 28. 175. <
5201 3 7 -8 -6 1 79. 83. 204. <
5201 1 -7 8 6 -1 79. 83. 204. <
5202 4 7 8 6 0 3674. 4183. 205. o
5202 3 7 -8 -6 0 3674. 4183. 205. o
5202 2 -7 -8 -6 0 3674. 4183. 205. o
5202 1 -7 8 6 0 3674. 4183. 205. o
5203 3 7 -8 -6 -1 96. 97. 207. <
5203 1 -7 8 6 1 96. 97. 207. <
5204 3 6 -8 -6 1 31. 93. 322. <
5204 1 -6 8 6 -1 31. 93. 322. <
5205 4 6 8 6 0 65278. 58711. 323. o
5205 3 6 -8 -6 0 65278. 58711. 323. o
5205 2 -6 -8 -6 0 65278. 58711. 323. o
5205 1 -6 8 6 0 65278. 58711. 323. o
5206 3 6 -8 -6 -1 322. 519. 324. <
5206 1 -6 8 6 1 322. 519. 324. <
5207 3 5 -8 -6 1 77. 70. 183. <
5207 1 -5 8 6 -1 77. 70. 183. <
5208 4 5 8 6 0 3480. 3370. 185. o
5208 3 5 -8 -6 0 3480. 3370. 185. o
5208 2 -5 -8 -6 0 3480. 3370. 185. o
5208 1 -5 8 6 0 3480. 3370. 185. o
5209 3 5 -8 -6 -1 183. 67. 187. <
5209 1 -5 8 6 1 183. 67. 187. <
5210 3 4 -8 -6 1 95. 85. 129. <
5210 1 -4 8 6 -1 95. 85. 129. <
5211 4 4 8 6 0 2136. 2115. 130. o
5211 3 4 -8 -6 0 2136. 2115. 130. o
5211 2 -4 -8 -6 0 2136. 2115. 130. o
5211 1 -4 8 6 0 2136. 2115. 130. o
5212 3 4 -8 -6 -1 13. 52. 109. <
5212 1 -4 8 6 1 13. 52. 109. <
5213 3 3 -8 -6 1 1234. 1008. 151. o
5213 1 -3 8 6 -1 1234. 1008. 151. o
5214 4 3 8 6 0 10463. 10006. 170. o
5214 3 3 -8 -6 0 10463. 10006. 170. o
5214 2 -3 -8 -6 0 10463. 10006. 170. o
5214 1 -3 8 6 0 10463. 10006. 170. o
5215 3 3 -8 -6 -1 521. 456. 148. o
5215 1 -3 8 6 1 521. 456. 148. o
5216 3 2 -8 -6 1 10. 9. 115. <
5216 1 -2 8 6 -1 10. 9. 115. <
5217 4 2 8 6 0 875. 1221. 119. o
5217 3 2 -8 -6 0 875. 1221. 119. o
5217 2 -2 -8 -6 0 875. 1221. 119. o
5217 1 -2 8 6 0 875. 1221. 119. o
5218 3 2 -8 -6 -1 377. 243. 114. o
5218 1 -2 8 6 1 377. 243. 114. o
5219 3 1 -8 -6 1 318. 356. 116. o
5219 1 -1 8 6 -1 318. 356. 116. o
5220 4 1 8 6 0 4376. 4378. 130. o
5220 3 1 -8 -6 0 4376. 4378. 130. o
5220 2 -1 -8 -6 0 4376. 4378. 130. o
5220 1 -1 8 6 0 4376. 4378. 130. o
5221 3 1 -8 -6 -1 653. 595. 116. o
5221 1 -1 8 6 1 653. 595. 116. o
5222 3 0 -8 -6 1 456. 276. 232. <
5222 1 0 8 6 -1 456. 276. 232. <
5223 4 0 8 6 0 59224. 61659. 316. o
5223 3 0 -8 -6 0 59224. 61659. 316. o
5223 2 0 -8 -6 0 59224. 61659. 316. o
5223 1 0 8 6 0 59224. 61659. 316. o
5224 3 0 -8 -6 -1 175. 167. 229. <
5224 1 0 8 6 1 175. 167. 229. <
5225 3 -1 -8 -6 1 196. 219. 109. o
5225 1 1 8 6 -1 196. 219. 109. o
5226 4 -1 8 6 0 4353. 4669. 125. o
5226 3 -1 -8 -6 0 4353. 4669. 125. o
5226 2 1 -8 -6 0 4353. 4669. 125. o
5226 1 1 8 6 0 4353. 4669. 125. o
5227 3 -1 -8 -6 -1 520. 600. 109. o
5227 1 1 8 6 1 520. 600. 109. o
5228 3 -2 -8 -6 1 76. 86. 89. <
5228 1 2 8 6 -1 76. 86. 89. <
5229 4 -2 8 6 0 875. 1078. 96. o
5229 3 -2 -8 -6 0 875. 1078. 96. o
5229 2 2 -8 -6 0 875. 1078. 96. o
5229 1 2 8 6 0 875. 1078. 96. o
5230 3 -2 -8 -6 -1 414. 240. 89. o
5230 1 2 8 6 1 414. 240. 89. o
5231 3 -3 -8 -6 1 241. 133. 117. <
5231 1 3 8 6 -1 241. 133. 117. <
5232 4 -3 8 6 0 10376. 10094. 146. o
5232 3 -3 -8 -6 0 10376. 10094. 146. o
5232 2 3 -8 -6 0 10376. 10094. 146. o
5232 1 3 8 6 0 10376. 10094. 146. o
5233 3 -3 -8 -6 -1 17. 15. 146. <
5233 1 3 8 6 1 17. 15. 146. <
5234 3 -4 -8 -6 1 132. 34. 120. <
5234 1 4 8 6 -1 132. 34. 120. <
5235 4 -4 8 6 0 2176. 2721. 119. o
5235 3 -4 -8 -6 0 2176. 2721. 119. o
5235 2 4 -8 -6 0 2176. 2721. 119. o
5235 1 4 8 6 0 2176. 2721. 119. o
5236 3 -4 -8 -6 -1 365. 275. 118. o
5236 1 4 8 6 1 365. 275. 118. o
5237 3 -5 -8 -6 1 354. 326. 177. <
5237 1 5 8 6 -1 354. 326. 177. <
5238 4 -5 8 6 0 3436. 3663. 174. o
5238 3 -5 -8 -6 0 3436. 3663. 174. o
5238 2 5 -8 -6 0 3436. 3663. 174. o
5238 1 5 8 6 0 3436. 3663. 174. o
5239 3 -5 -8 -6 -1 275. 176. 172. <
5239 1 5 8 6 1 275. 176. 172. <
5240 3 8 -9 -6 1 249. 169. 157. <
5240 1 -8 9 6 -1 249. 169. 157. <
5241 4 8 9 6 0 1912. 1779. 157. o
5241 3 8 -9 -6 0 1912. 1779. 157. o
5241 2 -8 -9 -6 0 1912. 1779. 157. o
5241 1 -8 9 6 0 1912. 1779. 157. o
5242 3 8 -9 -6 -1 730. 579. 156. o
5242 1 -8 9 6 1 730. 579. 156. o
5243 3 7 -9 -6 1 757. 379. 139. o
5243 1 -7 9 6 -1 757. 379. 139. o
5244 4 7 9 6 0 382. 385. 139. o
5244 3 7 -9 -6 0 382. 385. 139. o
5244 2 -7 -9 -6 0 382. 385. 139. o
5244 1 -7 9 6 0 382. 385. 139. o
5245 3 7 -9 -6 -1 142. -8. 139. <
5245 1 -7 9 6 1 142. -8. 139. <
5246 3 6 -9 -6 1 369. 167. 274. <
5246 1 -6 9 6 -1 369. 167. 274. <
5247 4 6 9 6 0 38019. 36351. 275. o
5247 3 6 -9 -6 0 38019. 36351. 275. o
5247 2 -6 -9 -6 0 38019. 36351. 275. o
5247 1 -6 9 6 0 38019. 36351. 275. o
5248 3 6 -9 -6 -1 297. 133. 276. <
5248 1 -6 9 6 1 297. 133. 276. <
5249 3 5 -9 -6 1 745. 575. 313. <
5249 1 -5 9 6 -1 745. 575. 313. <
5250 4 5 9 6 0 18662. 20874. 316. o
5250 3 5 -9 -6 0 18662. 20874. 316. o
5250 2 -5 -9 -6 0 18662. 20874. 316. o
5250 1 -5 9 6 0 18662. 20874. 316. o
5251 3 5 -9 -6 -1 444. 340. 320. <
5251 1 -5 9 6 1 444. 340. 320. <
5252 3 4 -9 -6 1 175. 192. 292. <
5252 1 -4 9 6 -1 175. 192. 292. <
5253 4 4 9 6 0 47942. 44492. 293. o
5253 3 4 -9 -6 0 47942. 44492. 293. o
5253 2 -4 -9 -6 0 47942. 44492. 293. o
5253 1 -4 9 6 0 47942. 44492. 293. o
5254 3 4 -9 -6 -1 210. 327. 295. <
5254 1 -4 9 6 1 210. 327. 295. <
5255 3 3 -9 -6 1 484. 279. 179. <
5255 1 -3 9 6 -1 484. 279. 179. <
5256 4 3 9 6 0 12396. 11800. 180. o
5256 3 3 -9 -6 0 12396. 11800. 180. o
5256 2 -3 -9 -6 0 12396. 11800. 180. o
5256 1 -3 9 6 0 12396. 11800. 180. o
5257 3 3 -9 -6 -1 865. 680. 139. o
5257 1 -3 9 6 1 865. 680. 139. o
5258 3 2 -9 -6 1 144. 72. 68. <
5258 1 -2 9 6 -1 144. 72. 68. <
5259 4 2 9 6 0 13376. 14478. 238. o
5259 3 2 -9 -6 0 13376. 14478. 238. o
5259 2 -2 -9 -6 0 13376. 14478. 238. o
5259 1 -2 9 6 0 13376. 14478. 238. o
5260 3 2 -9 -6 -1 216. 189. 72. o
5260 1 -2 9 6 1 216. 189. 72. o
5261 3 1 -9 -6 1 621. 411. 214. <
5261 1 -1 9 6 -1 621. 411. 214. <
5262 4 1 9 6 0 14812. 16188. 215. o
5262 3 1 -9 -6 0 14812. 16188. 215. o
5262 2 -1 -9 -6 0 14812. 16188. 215. o
5262 1 -1 9 6 0 14812. 16188. 215. o
5263 3 1 -9 -6 -1 109. 9. 217. <
5263 1 -1 9 6 1 109. 9. 217. <
5264 3 0 -9 -6 1 29. 32. 119. <
5264 1 0 9 6 -1 29. 32. 119. <
5265 4 0 9 6 0 95. 66. 116. <
5265 3 0 -9 -6 0 95. 66. 116. <
5265 2 0 -9 -6 0 95. 66. 116. <
5265 1 0 9 6 0 95. 66. 116. <
5266 3 0 -9 -6 -1 32. 25. 96. <
5266 1 0 9 6 1 32. 25. 96. <
5267 3 -1 -9 -6 1 205. 291. 144. o
5267 1 1 9 6 -1 205. 291. 144. o
5268 4 -1 9 6 0 15073. 14996. 185. o
5268 3 -1 -9 -6 0 15073. 14996. 185. o
5268 2 1 -9 -6 0 15073. 14996. 185. o
5268 1 1 9 6 0 15073. 14996. 185. o
5269 3 -1 -9 -6 -1 858. 848. 182. o
5269 1 1 9 6 1 858. 848. 182. o
5270 3 -2 -9 -6 1 44. 32. 181. <
5270 1 2 9 6 -1 44. 32. 181. <
5271 4 -2 9 6 0 13620. 13517. 179. o
5271 3 -2 -9 -6 0 13620. 13517. 179. o
5271 2 2 -9 -6 0 13620. 13517. 179. o
5271 1 2 9 6 0 13620. 13517. 179. o
5272 3 -2 -9 -6 -1 129. 132. 176. <
5272 1 2 9 6 1 129. 132. 176. <
5273 3 -3 -9 -6 1 508. 393. 171. o
5273 1 3 9 6 -1 508. 393. 171. o
5274 4 -3 9 6 0 12819. 12802. 169. o
5274 3 -3 -9 -6 0 12819. 12802. 169. o
5274 2 3 -9 -6 0 12819. 12802. 169. o
5274 1 3 9 6 0 12819. 12802. 169. o
5275 3 -3 -9 -6 -1 188. 269. 168. <
5275 1 3 9 6 1 188. 269. 168. <
5276 3 -4 -9 -6 1 30. 65. 358. <
5276 1 4 9 6 -1 30. 65. 358. <
5277 4 -4 9 6 0 48795. 42875. 352. o
5277 3 -4 -9 -6 0 48795. 42875. 352. o
5277 2 4 -9 -6 0 48795. 42875. 352. o
5277 1 4 9 6 0 48795. 42875. 352. o
5278 3 -4 -9 -6 -1 11. 33. 347. <
5278 1 4 9 6 1 11. 33. 347. <
5279 3 -5 -9 -6 1 192. 283. 255. <
5279 1 5 9 6 -1 192. 283. 255. <
5280 4 -5 9 6 0 19368. 17192. 252. o
5280 3 -5 -9 -6 0 19368. 17192. 252. o
5280 2 5 -9 -6 0 19368. 17192. 252. o
5280 1 5 9 6 0 19368. 17192. 252. o
5281 3 -5 -9 -6 -1 150. 15. 250. <
5281 1 5 9 6 1 150. 15. 250. <
5282 3 7 -10 -6 1 430. 334. 220. <
5282 1 -7 10 6 -1 430. 334. 220. <
5283 4 7 10 6 0 14933. 15204. 220. o
5283 3 7 -10 -6 0 14933. 15204. 220. o
5283 2 -7 -10 -6 0 14933. 15204. 220. o
5283 1 -7 10 6 0 14933. 15204. 220. o
5284 3 7 -10 -6 -1 25. 104. 221. <
5284 1 -7 10 6 1 25. 104. 221. <
5285 3 6 -10 -6 1 274. 1043. 166. o
5285 1 -6 10 6 -1 274. 1043. 166. o
5286 4 6 10 6 0 5067. 3424. 166. o
5286 3 6 -10 -6 0 5067. 3424. 166. o
5286 2 -6 -10 -6 0 5067. 3424. 166. o
5286 1 -6 10 6 0 5067. 3424. 166. o
5287 3 6 -10 -6 -1 210. 1057. 167. o
5287 1 -6 10 6 1 210. 1057. 167. o
5288 3 5 -10 -6 1 249. 92. 145. <
5288 1 -5 10 6 -1 249. 92. 145. <
5289 4 5 10 6 0 1001. 1139. 145. o
5289 3 5 -10 -6 0 1001. 1139. 145. o
5289 2 -5 -10 -6 0 1001. 1139. 145. o
5289 1 -5 10 6 0 1001. 1139. 145. o
5290 3 5 -10 -6 -1 284. 219. 146. <
5290 1 -5 10 6 1 284. 219. 146. <
5291 3 4 -10 -6 1 202. 114. 142. <
5291 1 -4 10 6 -1 202. 114. 142. <
5292 4 4 10 6 0 1984. 2077. 143. o
5292 3 4 -10 -6 0 1984. 2077. 143. o
5292 2 -4 -10 -6 0 1984. 2077. 143. o
5292 1 -4 10 6 0 1984. 2077. 143. o
5293 3 4 -10 -6 -1 427. 249. 144. <
5293 1 -4 10 6 1 427. 249. 144. <
5294 3 3 -10 -6 1 238. 153. 174. <
5294 1 -3 10 6 -1 238. 153. 174. <
5295 4 3 10 6 0 7126. 6598. 175. o
5295 3 3 -10 -6 0 7126. 6598. 175. o
5295 2 -3 -10 -6 0 7126. 6598. 175. o
5295 1 -3 10 6 0 7126. 6598. 175. o
5296 3 3 -10 -6 -1 321. 238. 176. <
5296 1 -3 10 6 1 321. 238. 176. <
5297 3 2 -10 -6 1 863. 760. 327. o
5297 1 -2 10 6 -1 863. 760. 327. o
5298 4 2 10 6 0 50492. 51459. 329. o
5298 3 2 -10 -6 0 50492. 51459. 329. o
5298 2 -2 -10 -6 0 50492. 51459. 329. o
5298 1 -2 10 6 0 50492. 51459. 329. o
5299 3 2 -10 -6 -1 630. 252. 328. <
5299 1 -2 10 6 1 630. 252. 328. <
5300 3 1 -10 -6 1 67. 52. 233. <
5300 1 -1 10 6 -1 67. 52. 233. <
5301 4 1 10 6 0 18951. 19716. 227. o
5301 3 1 -10 -6 0 18951. 19716. 227. o
5301 2 -1 -10 -6 0 18951. 19716. 227. o
5301 1 -1 10 6 0 18951. 19716. 227. o
5302 3 1 -10 -6 -1 99. 97. 222. <
5302 1 -1 10 6 1 99. 97. 222. <
5303 3 0 -10 -6 1 236. 63. 163. <
5303 1 0 10 6 -1 236. 63. 163. <
5304 4 0 10 6 0 2764. 3256. 160. o
5304 3 0 -10 -6 0 2764. 3256. 160. o
5304 2 0 -10 -6 0 2764. 3256. 160. o
5304 1 0 10 6 0 2764. 3256. 160. o
5305 3 0 -10 -6 -1 211. 87. 157. <
5305 1 0 10 6 1 211. 87. 157. <
5306 3 -1 -10 -6 1 208. 158. 219. <
5306 1 1 10 6 -1 208. 158. 219. <
5307 4 -1 10 6 0 19320. 19400. 215. o
5307 3 -1 -10 -6 0 19320. 19400. 215. o
5307 2 1 -10 -6 0 19320. 19400. 215. o
5307 1 1 10 6 0 19320. 19400. 215. o
5308 3 -1 -10 -6 -1 322. 197. 213. <
5308 1 1 10 6 1 322. 197. 213. <
5309 3 -2 -10 -6 1 491. 834. 300. o
5309 1 2 10 6 -1 491. 834. 300. o
5310 4 -2 10 6 0 51114. 51249. 297. o
5310 3 -2 -10 -6 0 51114. 51249. 297. o
5310 2 2 -10 -6 0 51114. 51249. 297. o
5310 1 2 10 6 0 51114. 51249. 297. o
5311 3 -2 -10 -6 -1 267. 249. 294. <
5311 1 2 10 6 1 267. 249. 294. <
5312 3 -3 -10 -6 1 355. 389. 219. <
5312 1 3 10 6 -1 355. 389. 219. <
5313 4 -3 10 6 0 7282. 7400. 219. o
5313 3 -3 -10 -6 0 7282. 7400. 219. o
5313 2 3 -10 -6 0 7282. 7400. 219. o
5313 1 3 10 6 0 7282. 7400. 219. o
5314 3 -3 -10 -6 -1 108. 47. 220. <
5314 1 3 10 6 1 108. 47. 220. <
5315 3 6 -11 -6 1 434. 271. 262. <
5315 1 -6 11 6 -1 434. 271. 262. <
5316 4 6 11 6 0 9902. 8917. 261. o
5316 3 6 -11 -6 0 9902. 8917. 261. o
5316 2 -6 -11 -6 0 9902. 8917. 261. o
5316 1 -6 11 6 0 9902. 8917. 261. o
5317 3 6 -11 -6 -1 618. 342. 259. <
5317 1 -6 11 6 1 618. 342. 259. <
5318 3 5 -11 -6 1 617. 3345. 232. o
5318 1 -5 11 6 -1 617. 3345. 232. o
5319 4 5 11 6 0 16348. 11052. 234. o
5319 3 5 -11 -6 0 16348. 11052. 234. o
5319 2 -5 -11 -6 0 16348. 11052. 234. o
5319 1 -5 11 6 0 16348. 11052. 234. o
5320 3 5 -11 -6 -1 614. 3600. 235. o
5320 1 -5 11 6 1 614. 3600. 235. o
5321 3 4 -11 -6 1 111. 50. 184. <
5321 1 -4 11 6 -1 111. 50. 184. <
5322 4 4 11 6 0 6921. 7223. 186. o
5322 3 4 -11 -6 0 6921. 7223. 186. o
5322 2 -4 -11 -6 0 6921. 7223. 186. o
5322 1 -4 11 6 0 6921. 7223. 186. o
5323 3 4 -11 -6 -1 761. 584. 187. o
5323 1 -4 11 6 1 761. 584. 187. o
5324 3 3 -11 -6 1 435. 426. 291. <
5324 1 -3 11 6 -1 435. 426. 291. <
5325 4 3 11 6 0 33757. 34078. 283. o
5325 3 3 -11 -6 0 33757. 34078. 283. o
5325 2 -3 -11 -6 0 33757. 34078. 283. o
5325 1 -3 11 6 0 33757. 34078. 283. o
5326 3 3 -11 -6 -1 106. 183. 275. <
5326 1 -3 11 6 1 106. 183. 275. <
5327 3 2 -11 -6 1 402. 295. 160. <
5327 1 -2 11 6 -1 402. 295. 160. <
5328 4 2 11 6 0 4018. 4439. 157. o
5328 3 2 -11 -6 0 4018. 4439. 157. o
5328 2 -2 -11 -6 0 4018. 4439. 157. o
5328 1 -2 11 6 0 4018. 4439. 157. o
5329 3 2 -11 -6 -1 123. 93. 153. <
5329 1 -2 11 6 1 123. 93. 153. <
5330 3 1 -11 -6 1 208. 180. 144. <
5330 1 -1 11 6 -1 208. 180. 144. <
5331 4 1 11 6 0 1059. 1114. 141. o
5331 3 1 -11 -6 0 1059. 1114. 141. o
5331 2 -1 -11 -6 0 1059. 1114. 141. o
5331 1 -1 11 6 0 1059. 1114. 141. o
5332 3 1 -11 -6 -1 265. 265. 138. <
5332 1 -1 11 6 1 265. 265. 138. <
5333 3 0 -11 -6 1 652. 667. 147. o
5333 1 0 11 6 -1 652. 667. 147. o
5334 4 0 11 6 0 1597. 1196. 145. o
5334 3 0 -11 -6 0 1597. 1196. 145. o
5334 2 0 -11 -6 0 1597. 1196. 145. o
5334 1 0 11 6 0 1597. 1196. 145. o
5335 3 0 -11 -6 -1 693. 758. 142. o
5335 1 0 11 6 1 693. 758. 142. o
5336 3 -1 -11 -6 1 42. 75. 143. <
5336 1 1 11 6 -1 42. 75. 143. <
5337 4 -1 11 6 0 1017. 1285. 141. o
5337 3 -1 -11 -6 0 1017. 1285. 141. o
5337 2 1 -11 -6 0 1017. 1285. 141. o
5337 1 1 11 6 0 1017. 1285. 141. o
5338 3 -1 -11 -6 -1 28. -7. 138. <
5338 1 1 11 6 1 28. -7. 138. <
5339 3 -2 -11 -6 1 246. 211. 262. <
5339 1 2 11 6 -1 246. 211. 262. <
5340 4 -2 11 6 0 4027. 5373. 262. o
5340 3 -2 -11 -6 0 4027. 5373. 262. o
5340 2 2 -11 -6 0 4027. 5373. 262. o
5340 1 2 11 6 0 4027. 5373. 262. o
5341 3 -2 -11 -6 -1 271. 130. 261. <
5341 1 2 11 6 1 271. 130. 261. <
5342 3 -5 -11 -6 1 129. 110. 269. <
5342 1 5 11 6 -1 129. 110. 269. <
5343 4 -5 11 6 0 17040. 18696. 266. o
5343 3 -5 -11 -6 0 17040. 18696. 266. o
5343 2 5 -11 -6 0 17040. 18696. 266. o
5343 1 5 11 6 0 17040. 18696. 266. o
5344 3 -5 -11 -6 -1 165. 140. 264. <
5344 1 5 11 6 1 165. 140. 264. <
5345 3 4 -12 -6 1 64. 133. 66. o
5345 1 -4 12 6 -1 64. 133. 66. o
5346 3 3 -12 -6 1 754. 702. 198. o
5346 1 -3 12 6 -1 754. 702. 198. o
5347 4 3 12 6 0 10278. 10579. 193. o
5347 3 3 -12 -6 0 10278. 10579. 193. o
5347 2 -3 -12 -6 0 10278. 10579. 193. o
5347 1 -3 12 6 0 10278. 10579. 193. o
5348 3 3 -12 -6 -1 320. 286. 189. <
5348 1 -3 12 6 1 320. 286. 189. <
5349 3 2 -12 -6 1 53. 2. 170. <
5349 1 -2 12 6 -1 53. 2. 170. <
5350 4 2 12 6 0 6998. 6551. 167. o
5350 3 2 -12 -6 0 6998. 6551. 167. o
5350 2 -2 -12 -6 0 6998. 6551. 167. o
5350 1 -2 12 6 0 6998. 6551. 167. o
5351 3 2 -12 -6 -1 14. 46. 163. <
5351 1 -2 12 6 1 14. 46. 163. <
5352 3 1 -12 -6 1 395. 71. 200. <
5352 1 -1 12 6 -1 395. 71. 200. <
5353 4 1 12 6 0 15127. 14741. 197. o
5353 3 1 -12 -6 0 15127. 14741. 197. o
5353 2 -1 -12 -6 0 15127. 14741. 197. o
5353 1 -1 12 6 0 15127. 14741. 197. o
5354 3 1 -12 -6 -1 75. 81. 194. <
5354 1 -1 12 6 1 75. 81. 194. <
5355 3 0 -12 -6 1 260. 276. 201. <
5355 1 0 12 6 -1 260. 276. 201. <
5356 4 0 12 6 0 1503. 1835. 199. o
5356 3 0 -12 -6 0 1503. 1835. 199. o
5356 2 0 -12 -6 0 1503. 1835. 199. o
5356 1 0 12 6 0 1503. 1835. 199. o
5357 3 0 -12 -6 -1 37. 80. 197. <
5357 1 0 12 6 1 37. 80. 197. <
5358 3 -1 -12 -6 1 515. 688. 198. o
5358 1 1 12 6 -1 515. 688. 198. o
5359 4 -1 12 6 0 15158. 15423. 196. o
5359 3 -1 -12 -6 0 15158. 15423. 196. o
5359 2 1 -12 -6 0 15158. 15423. 196. o
5359 1 1 12 6 0 15158. 15423. 196. o
5360 3 -1 -12 -6 -1 54. 117. 193. <
5360 1 1 12 6 1 54. 117. 193. <
5361 3 -3 -12 -6 1 119. 53. 225. <
5361 1 3 12 6 -1 119. 53. 225. <
5362 4 -3 12 6 0 10478. 10697. 222. o
5362 3 -3 -12 -6 0 10478. 10697. 222. o
5362 2 3 -12 -6 0 10478. 10697. 222. o
5362 1 3 12 6 0 10478. 10697. 222. o
5363 3 -3 -12 -6 -1 128. 25. 220. <
5363 1 3 12 6 1 128. 25. 220. <
5364 3 -4 -12 -6 1 401. 0. 186. <
5364 1 4 12 6 -1 401. 0. 186. <
5365 4 -4 12 6 0 2052. 1595. 184. o
5365 3 -4 -12 -6 0 2052. 1595. 184. o
5365 2 4 -12 -6 0 2052. 1595. 184. o
5365 1 4 12 6 0 2052. 1595. 184. o
5366 4 0 0 7 0 83. 75. 40. <
5366 3 0 0 -7 0 83. 75. 40. <
5366 2 0 0 -7 0 83. 75. 40. <
5366 1 0 0 7 0 83. 75. 40. <
5367 3 0 0 -7 -1 17. 6. 44. <
5367 1 0 0 7 1 17. 6. 44. <
5368 3 0 0 -7 1 17. 28. 39. <
5368 1 0 0 7 -1 17. 28. 39. <
5369 3 -1 0 -7 1 113. 87. 333. <
5369 1 1 0 7 -1 113. 87. 333. <
5370 3 1 0 -7 -1 115. 147. 166. <
5370 1 -1 0 7 1 115. 147. 166. <
5371 4 -1 0 7 0 62301. 66164. 330. o
5371 3 -1 0 -7 0 62301. 66164. 330. o
5371 2 1 0 -7 0 62301. 66164. 330. o
5371 1 1 0 7 0 62301. 66164. 330. o
5372 4 1 0 7 0 62260. 65415. 234. o
5372 3 1 0 -7 0 62260. 65415. 234. o
5372 2 -1 0 -7 0 62260. 65415. 234. o
5372 1 -1 0 7 0 62260. 65415. 234. o
5373 3 -1 0 -7 -1 58. 39. 328. <
5373 1 1 0 7 1 58. 39. 328. <
5374 3 1 0 -7 1 65. 26. 170. <
5374 1 -1 0 7 -1 65. 26. 170. <
5375 3 -2 0 -7 1 10. 0. 108. <
5375 1 2 0 7 -1 10. 0. 108. <
5376 3 2 0 -7 -1 9. 21. 62. <
5376 1 -2 0 7 1 9. 21. 62. <
5377 4 -2 0 7 0 293. 220. 107. o
5377 3 -2 0 -7 0 293. 220. 107. o
5377 2 2 0 -7 0 293. 220. 107. o
5377 1 2 0 7 0 293. 220. 107. o
5378 4 2 0 7 0 289. 289. 64. o
5378 3 2 0 -7 0 289. 289. 64. o
5378 2 -2 0 -7 0 289. 289. 64. o
5378 1 -2 0 7 0 289. 289. 64. o
5379 3 -2 0 -7 -1 16. 5. 106. <
5379 1 2 0 7 1 16. 5. 106. <
5380 3 2 0 -7 1 15. -20. 63. <
5380 1 -2 0 7 -1 15. -20. 63. <
5381 3 -3 0 -7 1 11. -1. 122. <
5381 1 3 0 7 -1 11. -1. 122. <
5382 3 3 0 -7 -1 11. 10. 66. <
5382 1 -3 0 7 1 11. 10. 66. <
5383 4 -3 0 7 0 378. 758. 121. o
5383 3 -3 0 -7 0 378. 758. 121. o
5383 2 3 0 -7 0 378. 758. 121. o
5383 1 3 0 7 0 378. 758. 121. o
5384 4 3 0 7 0 391. 691. 70. o
5384 3 3 0 -7 0 391. 691. 70. o
5384 2 -3 0 -7 0 391. 691. 70. o
5384 1 -3 0 7 0 391. 691. 70. o
5385 3 -3 0 -7 -1 140. 74. 121. <
5385 1 3 0 7 1 140. 74. 121. <
5386 3 3 0 -7 1 139. 95. 69. <
5386 1 -3 0 7 -1 139. 95. 69. <
5387 3 -4 0 -7 1 74. 56. 125. <
5387 1 4 0 7 -1 74. 56. 125. <
5388 3 4 0 -7 -1 82. 48. 71. <
5388 1 -4 0 7 1 82. 48. 71. <
5389 4 -4 0 7 0 418. 899. 124. o
5389 3 -4 0 -7 0 418. 899. 124. o
5389 2 4 0 -7 0 418. 899. 124. o
5389 1 4 0 7 0 418. 899. 124. o
5390 4 4 0 7 0 425. 550. 74. o
5390 3 4 0 -7 0 425. 550. 74. o
5390 2 -4 0 -7 0 425. 550. 74. o
5390 1 -4 0 7 0 425. 550. 74. o
5391 3 -4 0 -7 -1 65. 45. 124. <
5391 1 4 0 7 1 65. 45. 124. <
5392 3 4 0 -7 1 65. 72. 75. <
5392 1 -4 0 7 -1 65. 72. 75. <
5393 3 -5 0 -7 1 507. 393. 536. <
5393 1 5 0 7 -1 507. 393. 536. <
5394 3 5 0 -7 -1 505. 510. 52. o
5394 1 -5 0 7 1 505. 510. 52. o
5395 4 -5 0 7 0 103464. 105171. 534. o
5395 3 -5 0 -7 0 103464. 105171. 534. o
5395 2 5 0 -7 0 103464. 105171. 534. o
5395 1 5 0 7 0 103464. 105171. 534. o
5396 4 5 0 7 0 103583. 106288. 431. o
5396 3 5 0 -7 0 103583. 106288. 431. o
5396 2 -5 0 -7 0 103583. 106288. 431. o
5396 1 -5 0 7 0 103583. 106288. 431. o
5397 3 -5 0 -7 -1 115. 130. 532. <
5397 1 5 0 7 1 115. 130. 532. <
5398 3 5 0 -7 1 114. 134. 35. o
5398 1 -5 0 7 -1 114. 134. 35. o
5399 3 -6 0 -7 1 276. 228. 149. <
5399 1 6 0 7 -1 276. 228. 149. <
5400 3 6 0 -7 -1 274. 357. 45. o
5400 1 -6 0 7 1 274. 357. 45. o
5401 4 -6 0 7 0 1906. 1843. 148. o
5401 3 -6 0 -7 0 1906. 1843. 148. o
5401 2 6 0 -7 0 1906. 1843. 148. o
5401 1 6 0 7 0 1906. 1843. 148. o
5402 4 6 0 7 0 1911. 1620. 69. o
5402 3 6 0 -7 0 1911. 1620. 69. o
5402 2 -6 0 -7 0 1911. 1620. 69. o
5402 1 -6 0 7 0 1911. 1620. 69. o
5403 3 -6 0 -7 -1 471. 410. 147. o
5403 1 6 0 7 1 471. 410. 147. o
5404 3 6 0 -7 1 467. 458. 57. o
5404 1 -6 0 7 -1 467. 458. 57. o
5405 3 -7 0 -7 1 12. -3. 146. <
5405 1 7 0 7 -1 12. -3. 146. <
5406 3 7 0 -7 -1 11. 55. 41. <
5406 1 -7 0 7 1 11. 55. 41. <
5407 4 -7 0 7 0 245. 536. 145. o
5407 3 -7 0 -7 0 245. 536. 145. o
5407 2 7 0 -7 0 245. 536. 145. o
5407 1 7 0 7 0 245. 536. 145. o
5408 4 7 0 7 0 249. 525. 62. o
5408 3 7 0 -7 0 249. 525. 62. o
5408 2 -7 0 -7 0 249. 525. 62. o
5408 1 -7 0 7 0 249. 525. 62. o
5409 3 -7 0 -7 -1 21. 28. 145. <
5409 1 7 0 7 1 21. 28. 145. <
5410 3 7 0 -7 1 23. 19. 43. <
5410 1 -7 0 7 -1 23. 19. 43. <
5411 3 -8 0 -7 1 1432. 1304. 205. o
5411 1 8 0 7 -1 1432. 1304. 205. o
5412 3 8 0 -7 -1 1435. 1492. 78. o
5412 1 -8 0 7 1 1435. 1492. 78. o
5413 4 -8 0 7 0 4813. 5212. 204. o
5413 3 -8 0 -7 0 4813. 5212. 204. o
5413 2 8 0 -7 0 4813. 5212. 204. o
5413 1 8 0 7 0 4813. 5212. 204. o
5414 4 8 0 7 0 4835. 4685. 110. o
5414 3 8 0 -7 0 4835. 4685. 110. o
5414 2 -8 0 -7 0 4835. 4685. 110. o
5414 1 -8 0 7 0 4835. 4685. 110. o
5415 3 -8 0 -7 -1 1117. 1081. 203. o
5415 1 8 0 7 1 1117. 1081. 203. o
5416 3 8 0 -7 1 1115. 1213. 76. o
5416 1 -8 0 7 -1 1115. 1213. 76. o
5417 3 -9 0 -7 1 692. 616. 419. <
5417 1 9 0 7 -1 692. 616. 419. <
5418 3 9 0 -7 -1 697. 494. 351. <
5418 1 -9 0 7 1 697. 494. 351. <
5419 4 -9 0 7 0 55786. 59319. 417. o
5419 3 -9 0 -7 0 55786. 59319. 417. o
5419 2 9 0 -7 0 55786. 59319. 417. o
5419 1 9 0 7 0 55786. 59319. 417. o
5420 4 9 0 7 0 55720. 53050. 352. o
5420 3 9 0 -7 0 55720. 53050. 352. o
5420 2 -9 0 -7 0 55720. 53050. 352. o
5420 1 -9 0 7 0 55720. 53050. 352. o
5421 3 -9 0 -7 -1 244. 259. 415. <
5421 1 9 0 7 1 244. 259. 415. <
5422 3 9 0 -7 1 247. 543. 352. <
5422 1 -9 0 7 -1 247. 543. 352. <
5423 3 -10 0 -7 1 252. 134. 169. <
5423 1 10 0 7 -1 252. 134. 169. <
5424 3 10 0 -7 -1 251. 144. 134. <
5424 1 -10 0 7 1 251. 144. 134. <
5425 4 -10 0 7 0 1027. 805. 168. o
5425 3 -10 0 -7 0 1027. 805. 168. o
5425 2 10 0 -7 0 1027. 805. 168. o
5425 1 10 0 7 0 1027. 805. 168. o
5426 4 10 0 7 0 1037. 1013. 134. o
5426 3 10 0 -7 0 1037. 1013. 134. o
5426 2 -10 0 -7 0 1037. 1013. 134. o
5426 1 -10 0 7 0 1037. 1013. 134. o
5427 3 -10 0 -7 -1 256. 63. 166. <
5427 1 10 0 7 1 256. 63. 166. <
5428 3 10 0 -7 1 242. 150. 134. <
5428 1 -10 0 7 -1 242. 150. 134. <
5429 3 -11 0 -7 1 30. -68. 210. <
5429 1 11 0 7 -1 30. -68. 210. <
5430 3 11 0 -7 -1 32. 79. 183. <
5430 1 -11 0 7 1 32. 79. 183. <
5431 4 -11 0 7 0 6127. 5852. 208. o
5431 3 -11 0 -7 0 6127. 5852. 208. o
5431 2 11 0 -7 0 6127. 5852. 208. o
5431 1 11 0 7 0 6127. 5852. 208. o
5432 4 11 0 7 0 6153. 6043. 183. o
5432 3 11 0 -7 0 6153. 6043. 183. o
5432 2 -11 0 -7 0 6153. 6043. 183. o
5432 1 -11 0 7 0 6153. 6043. 183. o
5433 3 -11 0 -7 -1 144. 58. 207. <
5433 1 11 0 7 1 144. 58. 207. <
5434 3 11 0 -7 1 141. 246. 184. <
5434 1 -11 0 7 -1 141. 246. 184. <
5435 3 -12 0 -7 1 656. 619. 175. o
5435 1 12 0 7 -1 656. 619. 175. o
5436 3 12 0 -7 -1 662. 661. 151. o
5436 1 -12 0 7 1 662. 661. 151. o
5437 4 -12 0 7 0 2229. 1635. 174. o
5437 3 -12 0 -7 0 2229. 1635. 174. o
5437 2 12 0 -7 0 2229. 1635. 174. o
5437 1 12 0 7 0 2229. 1635. 174. o
5438 4 12 0 7 0 2229. 1971. 152. o
5438 3 12 0 -7 0 2229. 1971. 152. o
5438 2 -12 0 -7 0 2229. 1971. 152. o
5438 1 -12 0 7 0 2229. 1971. 152. o
5439 4 12 1 7 0 8316. 7545. 192. o
5439 3 12 -1 -7 0 8316. 7545. 192. o
5439 2 -12 -1 -7 0 8316. 7545. 192. o
5439 1 -12 1 7 0 8316. 7545. 192. o
5440 3 12 -1 -7 -1 48. 56. 192. <
5440 1 -12 1 7 1 48. 56. 192. <
5441 3 11 -1 -7 1 2119. 1603. 185. o
5441 1 -11 1 7 -1 2119. 1603. 185. o
5442 4 11 1 7 0 4145. 4307. 185. o
5442 3 11 -1 -7 0 4145. 4307. 185. o
5442 2 -11 -1 -7 0 4145. 4307. 185. o
5442 1 -11 1 7 0 4145. 4307. 185. o
5443 3 11 -1 -7 -1 997. 724. 185. o
5443 1 -11 1 7 1 997. 724. 185. o
5444 3 10 -1 -7 1 565. 564. 276. o
5444 1 -10 1 7 -1 565. 564. 276. o
5445 4 10 1 7 0 27100. 25835. 276. o
5445 3 10 -1 -7 0 27100. 25835. 276. o
5445 2 -10 -1 -7 0 27100. 25835. 276. o
5445 1 -10 1 7 0 27100. 25835. 276. o
5446 3 10 -1 -7 -1 427. 597. 276. o
5446 1 -10 1 7 1 427. 597. 276. o
5447 3 9 -1 -7 1 45. 61. 49. <
5447 1 -9 1 7 -1 45. 61. 49. <
5448 4 9 1 7 0 7679. 7560. 142. o
5448 3 9 -1 -7 0 7679. 7560. 142. o
5448 2 -9 -1 -7 0 7679. 7560. 142. o
5448 1 -9 1 7 0 7679. 7560. 142. o
5449 3 9 -1 -7 -1 33. 14. 43. <
5449 1 -9 1 7 1 33. 14. 43. <
5450 3 8 -1 -7 1 1344. 1356. 73. o
5450 1 -8 1 7 -1 1344. 1356. 73. o
5451 4 8 1 7 0 10998. 10944. 155. o
5451 3 8 -1 -7 0 10998. 10944. 155. o
5451 2 -8 -1 -7 0 10998. 10944. 155. o
5451 1 -8 1 7 0 10998. 10944. 155. o
5452 3 8 -1 -7 -1 57. 71. 44. <
5452 1 -8 1 7 1 57. 71. 44. <
5453 3 7 -1 -7 1 857. 830. 66. o
5453 1 -7 1 7 -1 857. 830. 66. o
5454 4 7 1 7 0 7701. 7296. 123. o
5454 3 7 -1 -7 0 7701. 7296. 123. o
5454 2 -7 -1 -7 0 7701. 7296. 123. o
5454 1 -7 1 7 0 7701. 7296. 123. o
5455 3 7 -1 -7 -1 1033. 1027. 69. o
5455 1 -7 1 7 1 1033. 1027. 69. o
5456 3 6 -1 -7 1 489. 563. 59. o
5456 1 -6 1 7 -1 489. 563. 59. o
5457 4 6 1 7 0 49278. 50932. 281. o
5457 3 6 -1 -7 0 49278. 50932. 281. o
5457 2 -6 -1 -7 0 49278. 50932. 281. o
5457 1 -6 1 7 0 49278. 50932. 281. o
5458 3 6 -1 -7 -1 148. 242. 43. o
5458 1 -6 1 7 1 148. 242. 43. o
5459 3 5 -1 -7 1 119. 129. 239. <
5459 1 -5 1 7 -1 119. 129. 239. <
5460 4 5 1 7 0 70551. 64503. 277. o
5460 3 5 -1 -7 0 70551. 64503. 277. o
5460 2 -5 -1 -7 0 70551. 64503. 277. o
5460 1 -5 1 7 0 70551. 64503. 277. o
5461 3 5 -1 -7 -1 680. 570. 218. o
5461 1 -5 1 7 1 680. 570. 218. o
5462 3 4 -1 -7 1 493. 394. 167. o
5462 1 -4 1 7 -1 493. 394. 167. o
5463 3 -4 1 -7 -1 494. 426. 304. <
5463 1 4 -1 7 1 494. 426. 304. <
5464 4 4 1 7 0 39665. 37577. 196. o
5464 3 4 -1 -7 0 39665. 37577. 196. o
5464 2 -4 -1 -7 0 39665. 37577. 196. o
5464 1 -4 1 7 0 39665. 37577. 196. o
5465 4 -4 -1 7 0 39671. 44279. 305. o
5465 3 -4 1 -7 0 39671. 44279. 305. o
5465 2 4 1 -7 0 39671. 44279. 305. o
5465 1 4 -1 7 0 39671. 44279. 305. o
5466 3 4 -1 -7 -1 481. 464. 158. o
5466 1 -4 1 7 1 481. 464. 158. o
5467 3 -4 1 -7 1 481. 522. 307. <
5467 1 4 -1 7 -1 481. 522. 307. <
5468 3 3 -1 -7 1 319. 256. 161. <
5468 1 -3 1 7 -1 319. 256. 161. <
5469 3 -3 1 -7 -1 321. 330. 285. <
5469 1 3 -1 7 1 321. 330. 285. <
5470 4 3 1 7 0 41956. 41918. 190. o
5470 3 3 -1 -7 0 41956. 41918. 190. o
5470 2 -3 -1 -7 0 41956. 41918. 190. o
5470 1 -3 1 7 0 41956. 41918. 190. o
5471 4 -3 -1 7 0 41965. 42930. 287. o
5471 3 -3 1 -7 0 41965. 42930. 287. o
5471 2 3 1 -7 0 41965. 42930. 287. o
5471 1 3 -1 7 0 41965. 42930. 287. o
5472 3 3 -1 -7 -1 40. 68. 155. <
5472 1 -3 1 7 1 40. 68. 155. <
5473 3 -3 1 -7 1 40. 79. 289. <
5473 1 3 -1 7 -1 40. 79. 289. <
5474 3 2 -1 -7 1 38. 43. 186. <
5474 1 -2 1 7 -1 38. 43. 186. <
5475 3 -2 1 -7 -1 38. 36. 335. <
5475 1 2 -1 7 1 38. 36. 335. <
5476 4 2 1 7 0 61142. 64065. 250. o
5476 3 2 -1 -7 0 61142. 64065. 250. o
5476 2 -2 -1 -7 0 61142. 64065. 250. o
5476 1 -2 1 7 0 61142. 64065. 250. o
5477 4 -2 -1 7 0 61312. 65985. 337. o
5477 3 -2 1 -7 0 61312. 65985. 337. o
5477 2 2 1 -7 0 61312. 65985. 337. o
5477 1 2 -1 7 0 61312. 65985. 337. o
5478 3 2 -1 -7 -1 38. 35. 181. <
5478 1 -2 1 7 1 38. 35. 181. <
5479 3 -2 1 -7 1 37. 37. 340. <
5479 1 2 -1 7 -1 37. 37. 340. <
5480 3 1 -1 -7 1 6. 17. 64. <
5480 1 -1 1 7 -1 6. 17. 64. <
5481 3 -1 1 -7 -1 7. 39. 112. <
5481 1 1 -1 7 1 7. 39. 112. <
5482 4 1 1 7 0 584. 750. 65. o
5482 3 1 -1 -7 0 584. 750. 65. o
5482 2 -1 -1 -7 0 584. 750. 65. o
5482 1 -1 1 7 0 584. 750. 65. o
5483 4 -1 -1 7 0 633. 761. 113. o
5483 3 -1 1 -7 0 633. 761. 113. o
5483 2 1 1 -7 0 633. 761. 113. o
5483 1 1 -1 7 0 633. 761. 113. o
5484 3 1 -1 -7 -1 6. 4. 61. <
5484 1 -1 1 7 1 6. 4. 61. <
5485 3 -1 1 -7 1 7. 28. 114. <
5485 1 1 -1 7 -1 7. 28. 114. <
5486 3 0 -1 -7 1 123. 121. 170. <
5486 1 0 1 7 -1 123. 121. 170. <
5487 3 0 1 -7 -1 122. 95. 319. <
5487 1 0 -1 7 1 122. 95. 319. <
5488 4 0 1 7 0 60514. 63832. 226. o
5488 3 0 -1 -7 0 60514. 63832. 226. o
5488 2 0 -1 -7 0 60514. 63832. 226. o
5488 1 0 1 7 0 60514. 63832. 226. o
5489 4 0 -1 7 0 60924. 64387. 322. o
5489 3 0 1 -7 0 60924. 64387. 322. o
5489 2 0 1 -7 0 60924. 64387. 322. o
5489 1 0 -1 7 0 60924. 64387. 322. o
5490 3 0 -1 -7 -1 104. 51. 168. <
5490 1 0 1 7 1 104. 51. 168. <
5491 3 0 1 -7 1 96. 15. 326. <
5491 1 0 -1 7 -1 96. 15. 326. <
5492 3 -1 -1 -7 1 8. 12. 102. <
5492 1 1 1 7 -1 8. 12. 102. <
5493 3 1 1 -7 -1 8. 2. 25. <
5493 1 -1 -1 7 1 8. 2. 25. <
5494 4 -1 1 7 0 575. 933. 102. o
5494 3 -1 -1 -7 0 575. 933. 102. o
5494 2 1 -1 -7 0 575. 933. 102. o
5494 1 1 1 7 0 575. 933. 102. o
5495 4 1 -1 7 0 570. 771. 36. o
5495 3 1 1 -7 0 570. 771. 36. o
5495 2 -1 1 -7 0 570. 771. 36. o
5495 1 -1 -1 7 0 570. 771. 36. o
5496 3 -1 -1 -7 -1 1. 0. 101. <
5496 1 1 1 7 1 1. 0. 101. <
5497 3 1 1 -7 1 1. -11. 25. <
5497 1 -1 -1 7 -1 1. -11. 25. <
5498 3 -2 -1 -7 1 122. 210. 338. <
5498 1 2 1 7 -1 122. 210. 338. <
5499 3 2 1 -7 -1 119. 130. 167. <
5499 1 -2 -1 7 1 119. 130. 167. <
5500 4 -2 1 7 0 61393. 64384. 336. o
5500 3 -2 -1 -7 0 61393. 64384. 336. o
5500 2 2 -1 -7 0 61393. 64384. 336. o
5500 1 2 1 7 0 61393. 64384. 336. o
5501 4 2 -1 7 0 61580. 65289. 228. o
5501 3 2 1 -7 0 61580. 65289. 228. o
5501 2 -2 1 -7 0 61580. 65289. 228. o
5501 1 -2 -1 7 0 61580. 65289. 228. o
5502 3 -2 -1 -7 -1 235. 308. 333. <
5502 1 2 1 7 1 235. 308. 333. <
5503 3 2 1 -7 1 235. 238. 175. <
5503 1 -2 -1 7 -1 235. 238. 175. <
5504 3 -3 -1 -7 1 195. 124. 292. <
5504 1 3 1 7 -1 195. 124. 292. <
5505 3 3 1 -7 -1 197. 186. 143. <
5505 1 -3 -1 7 1 197. 186. 143. <
5506 4 -3 1 7 0 41974. 44190. 291. o
5506 3 -3 -1 -7 0 41974. 44190. 291. o
5506 2 3 -1 -7 0 41974. 44190. 291. o
5506 1 3 1 7 0 41974. 44190. 291. o
5507 4 3 -1 7 0 41988. 43129. 182. o
5507 3 3 1 -7 0 41988. 43129. 182. o
5507 2 -3 1 -7 0 41988. 43129. 182. o
5507 1 -3 -1 7 0 41988. 43129. 182. o
5508 3 -3 -1 -7 -1 654. 463. 288. <
5508 1 3 1 7 1 654. 463. 288. <
5509 3 3 1 -7 1 656. 587. 149. o
5509 1 -3 -1 7 -1 656. 587. 149. o
5510 3 -4 -1 -7 1 181. 151. 292. <
5510 1 4 1 7 -1 181. 151. 292. <
5511 3 4 1 -7 -1 183. 172. 34. o
5511 1 -4 -1 7 1 183. 172. 34. o
5512 4 -4 1 7 0 39778. 41758. 291. o
5512 3 -4 -1 -7 0 39778. 41758. 291. o
5512 2 4 -1 -7 0 39778. 41758. 291. o
5512 1 4 1 7 0 39778. 41758. 291. o
5513 4 4 -1 7 0 39884. 42798. 226. o
5513 3 4 1 -7 0 39884. 42798. 226. o
5513 2 -4 1 -7 0 39884. 42798. 226. o
5513 1 -4 -1 7 0 39884. 42798. 226. o
5514 3 -4 -1 -7 -1 171. 119. 291. <
5514 1 4 1 7 1 171. 119. 291. <
5515 3 4 1 -7 1 170. 146. 35. o
5515 1 -4 -1 7 -1 170. 146. 35. o
5516 3 -5 -1 -7 1 3. 89. 385. <
5516 1 5 1 7 -1 3. 89. 385. <
5517 3 5 1 -7 -1 3. -4. 32. <
5517 1 -5 -1 7 1 3. -4. 32. <
5518 4 -5 1 7 0 69639. 73798. 384. o
5518 3 -5 -1 -7 0 69639. 73798. 384. o
5518 2 5 -1 -7 0 69639. 73798. 384. o
5518 1 5 1 7 0 69639. 73798. 384. o
5519 4 5 -1 7 0 69700. 75716. 325. o
5519 3 5 1 -7 0 69700. 75716. 325. o
5519 2 -5 1 -7 0 69700. 75716. 325. o
5519 1 -5 -1 7 0 69700. 75716. 325. o
5520 3 -5 -1 -7 -1 115. 149. 384. <
5520 1 5 1 7 1 115. 149. 384. <
5521 3 5 1 -7 1 118. 99. 37. o
5521 1 -5 -1 7 -1 118. 99. 37. o
5522 3 -6 -1 -7 1 468. 350. 340. <
5522 1 6 1 7 -1 468. 350. 340. <
5523 3 6 1 -7 -1 463. 528. 56. o
5523 1 -6 -1 7 1 463. 528. 56. o
5524 4 -6 1 7 0 49061. 51759. 339. o
5524 3 -6 -1 -7 0 49061. 51759. 339. o
5524 2 6 -1 -7 0 49061. 51759. 339. o
5524 1 6 1 7 0 49061. 51759. 339. o
5525 4 6 -1 7 0 49215. 50840. 282. o
5525 3 6 1 -7 0 49215. 50840. 282. o
5525 2 -6 1 -7 0 49215. 50840. 282. o
5525 1 -6 -1 7 0 49215. 50840. 282. o
5526 3 -6 -1 -7 -1 265. 183. 338. <
5526 1 6 1 7 1 265. 183. 338. <
5527 3 6 1 -7 1 264. 334. 45. o
5527 1 -6 -1 7 -1 264. 334. 45. o
5528 3 -7 -1 -7 1 156. 170. 192. <
5528 1 7 1 7 -1 156. 170. 192. <
5529 3 7 1 -7 -1 163. 209. 45. o
5529 1 -7 -1 7 1 163. 209. 45. o
5530 4 -7 1 7 0 7747. 8133. 192. o
5530 3 -7 -1 -7 0 7747. 8133. 192. o
5530 2 7 -1 -7 0 7747. 8133. 192. o
5530 1 7 1 7 0 7747. 8133. 192. o
5531 4 7 -1 7 0 7816. 7710. 125. o
5531 3 7 1 -7 0 7816. 7710. 125. o
5531 2 -7 1 -7 0 7816. 7710. 125. o
5531 1 -7 -1 7 0 7816. 7710. 125. o
5532 3 -7 -1 -7 -1 11. 43. 191. <
5532 1 7 1 7 1 11. 43. 191. <
5533 3 7 1 -7 1 12. 47. 43. <
5533 1 -7 -1 7 -1 12. 47. 43. <
5534 3 -8 -1 -7 1 94. 85. 220. <
5534 1 8 1 7 -1 94. 85. 220. <
5535 3 8 1 -7 -1 94. 143. 177. <
5535 1 -8 -1 7 1 94. 143. 177. <
5536 4 -8 1 7 0 10802. 11886. 219. o
5536 3 -8 -1 -7 0 10802. 11886. 219. o
5536 2 8 -1 -7 0 10802. 11886. 219. o
5536 1 8 1 7 0 10802. 11886. 219. o
5537 4 8 -1 7 0 10775. 10730. 178. o
5537 3 8 1 -7 0 10775. 10730. 178. o
5537 2 -8 1 -7 0 10775. 10730. 178. o
5537 1 -8 -1 7 0 10775. 10730. 178. o
5538 3 -8 -1 -7 -1 150. 124. 219. <
5538 1 8 1 7 1 150. 124. 219. <
5539 3 8 1 -7 1 146. 84. 179. <
5539 1 -8 -1 7 -1 146. 84. 179. <
5540 3 -9 -1 -7 1 428. 421. 211. <
5540 1 9 1 7 -1 428. 421. 211. <
5541 3 9 1 -7 -1 438. 411. 172. o
5541 1 -9 -1 7 1 438. 411. 172. o
5542 4 -9 1 7 0 7882. 8269. 211. o
5542 3 -9 -1 -7 0 7882. 8269. 211. o
5542 2 9 -1 -7 0 7882. 8269. 211. o
5542 1 9 1 7 0 7882. 8269. 211. o
5543 4 9 -1 7 0 7490. 7045. 173. o
5543 3 9 1 -7 0 7490. 7045. 173. o
5543 2 -9 1 -7 0 7490. 7045. 173. o
5543 1 -9 -1 7 0 7490. 7045. 173. o
5544 3 -9 -1 -7 -1 623. 585. 210. o
5544 1 9 1 7 1 623. 585. 210. o
5545 3 9 1 -7 1 634. 502. 173. o
5545 1 -9 -1 7 -1 634. 502. 173. o
5546 3 -10 -1 -7 1 190. 85. 310. <
5546 1 10 1 7 -1 190. 85. 310. <
5547 3 10 1 -7 -1 175. 207. 275. <
5547 1 -10 -1 7 1 175. 207. 275. <
5548 4 -10 1 7 0 26560. 28033. 308. o
5548 3 -10 -1 -7 0 26560. 28033. 308. o
5548 2 10 -1 -7 0 26560. 28033. 308. o
5548 1 10 1 7 0 26560. 28033. 308. o
5549 4 10 -1 7 0 26728. 25754. 276. o
5549 3 10 1 -7 0 26728. 25754. 276. o
5549 2 -10 1 -7 0 26728. 25754. 276. o
5549 1 -10 -1 7 0 26728. 25754. 276. o
5550 3 -10 -1 -7 -1 118. 120. 306. <
5550 1 10 1 7 1 118. 120. 306. <
5551 3 10 1 -7 1 110. 307. 277. <
5551 1 -10 -1 7 -1 110. 307. 277. <
5552 3 -11 -1 -7 1 27. 91. 197. <
5552 1 11 1 7 -1 27. 91. 197. <
5553 3 11 1 -7 -1 27. 54. 170. <
5553 1 -11 -1 7 1 27. 54. 170. <
5554 4 -11 1 7 0 4188. 3870. 196. o
5554 3 -11 -1 -7 0 4188. 3870. 196. o
5554 2 11 -1 -7 0 4188. 3870. 196. o
5554 1 11 1 7 0 4188. 3870. 196. o
5555 4 11 -1 7 0 4197. 3431. 170. o
5555 3 11 1 -7 0 4197. 3431. 170. o
5555 2 -11 1 -7 0 4197. 3431. 170. o
5555 1 -11 -1 7 0 4197. 3431. 170. o
5556 3 -11 -1 -7 -1 535. 359. 195. <
5556 1 11 1 7 1 535. 359. 195. <
5557 3 11 1 -7 1 539. 495. 171. o
5557 1 -11 -1 7 -1 539. 495. 171. o
5558 3 12 1 -7 -1 68. 51. 196. <
5558 1 -12 -1 7 1 68. 51. 196. <
5559 4 12 -1 7 0 8333. 7858. 197. o
5559 3 12 1 -7 0 8333. 7858. 197. o
5559 2 -12 1 -7 0 8333. 7858. 197. o
5559 1 -12 -1 7 0 8333. 7858. 197. o
5560 3 12 -2 -7 -1 15. 92. 65. <
5560 1 -12 2 7 1 15. 92. 65. <
5561 3 11 -2 -7 1 41. 45. 142. <
5561 1 -11 2 7 -1 41. 45. 142. <
5562 4 11 2 7 0 654. 804. 142. o
5562 3 11 -2 -7 0 654. 804. 142. o
5562 2 -11 -2 -7 0 654. 804. 142. o
5562 1 -11 2 7 0 654. 804. 142. o
5563 3 11 -2 -7 -1 685. 419. 142. o
5563 1 -11 2 7 1 685. 419. 142. o
5564 3 10 -2 -7 1 43. 182. 173. <
5564 1 -10 2 7 -1 43. 182. 173. <
5565 4 10 2 7 0 5932. 5829. 173. o
5565 3 10 -2 -7 0 5932. 5829. 173. o
5565 2 -10 -2 -7 0 5932. 5829. 173. o
5565 1 -10 2 7 0 5932. 5829. 173. o
5566 3 10 -2 -7 -1 879. 698. 174. o
5566 1 -10 2 7 1 879. 698. 174. o
5567 3 9 -2 -7 1 173. 170. 55. o
5567 1 -9 2 7 -1 173. 170. 55. o
5568 4 9 2 7 0 27238. 26694. 249. o
5568 3 9 -2 -7 0 27238. 26694. 249. o
5568 2 -9 -2 -7 0 27238. 26694. 249. o
5568 1 -9 2 7 0 27238. 26694. 249. o
5569 3 9 -2 -7 -1 118. 121. 52. o
5569 1 -9 2 7 1 118. 121. 52. o
5570 3 8 -2 -7 1 27. 60. 46. <
5570 1 -8 2 7 -1 27. 60. 46. <
5571 4 8 2 7 0 6703. 6422. 127. o
5571 3 8 -2 -7 0 6703. 6422. 127. o
5571 2 -8 -2 -7 0 6703. 6422. 127. o
5571 1 -8 2 7 0 6703. 6422. 127. o
5572 3 8 -2 -7 -1 53. 86. 48. <
5572 1 -8 2 7 1 53. 86. 48. <
5573 3 7 -2 -7 1 56. 16. 41. <
5573 1 -7 2 7 -1 56. 16. 41. <
5574 4 7 2 7 0 126955. 131228. 687. o
5574 3 7 -2 -7 0 126955. 131228. 687. o
5574 2 -7 -2 -7 0 126955. 131228. 687. o
5574 1 -7 2 7 0 126955. 131228. 687. o
5575 3 7 -2 -7 -1 122. 88. 45. <
5575 1 -7 2 7 1 122. 88. 45. <
5576 3 6 -2 -7 1 18. 156. 295. <
5576 1 -6 2 7 -1 18. 156. 295. <
5577 4 6 2 7 0 78660. 72975. 363. o
5577 3 6 -2 -7 0 78660. 72975. 363. o
5577 2 -6 -2 -7 0 78660. 72975. 363. o
5577 1 -6 2 7 0 78660. 72975. 363. o
5578 3 6 -2 -7 -1 6. 181. 304. <
5578 1 -6 2 7 1 6. 181. 304. <
5579 3 5 -2 -7 1 97. 143. 207. <
5579 1 -5 2 7 -1 97. 143. 207. <
5580 4 5 2 7 0 47616. 42717. 239. o
5580 3 5 -2 -7 0 47616. 42717. 239. o
5580 2 -5 -2 -7 0 47616. 42717. 239. o
5580 1 -5 2 7 0 47616. 42717. 239. o
5581 3 5 -2 -7 -1 114. 109. 190. <
5581 1 -5 2 7 1 114. 109. 190. <
5582 3 4 -2 -7 1 762. 672. 186. o
5582 1 -4 2 7 -1 762. 672. 186. o
5583 4 4 2 7 0 43329. 41409. 216. o
5583 3 4 -2 -7 0 43329. 41409. 216. o
5583 2 -4 -2 -7 0 43329. 41409. 216. o
5583 1 -4 2 7 0 43329. 41409. 216. o
5584 3 4 -2 -7 -1 1211. 1090. 177. o
5584 1 -4 2 7 1 1211. 1090. 177. o
5585 3 3 -2 -7 1 294. 225. 266. <
5585 1 -3 2 7 -1 294. 225. 266. <
5586 4 3 2 7 0 119488. 115703. 422. o
5586 3 3 -2 -7 0 119488. 115703. 422. o
5586 2 -3 -2 -7 0 119488. 115703. 422. o
5586 1 -3 2 7 0 119488. 115703. 422. o
5587 3 3 -2 -7 -1 27. 108. 256. <
5587 1 -3 2 7 1 27. 108. 256. <
5588 3 2 -2 -7 1 32. 5. 115. <
5588 1 -2 2 7 -1 32. 5. 115. <
5589 3 -2 2 -7 -1 30. 54. 195. <
5589 1 2 -2 7 1 30. 54. 195. <
5590 4 2 2 7 0 16456. 17031. 131. o
5590 3 2 -2 -7 0 16456. 17031. 131. o
5590 2 -2 -2 -7 0 16456. 17031. 131. o
5590 1 -2 2 7 0 16456. 17031. 131. o
5591 4 -2 -2 7 0 16604. 17029. 196. o
5591 3 -2 2 -7 0 16604. 17029. 196. o
5591 2 2 2 -7 0 16604. 17029. 196. o
5591 1 2 -2 7 0 16604. 17029. 196. o
5592 3 2 -2 -7 -1 68. 32. 112. <
5592 1 -2 2 7 1 68. 32. 112. <
5593 3 -2 2 -7 1 61. 46. 198. <
5593 1 2 -2 7 -1 61. 46. 198. <
5594 3 1 -2 -7 1 71. 48. 187. <
5594 1 -1 2 7 -1 71. 48. 187. <
5595 3 -1 2 -7 -1 69. 100. 326. <
5595 1 1 -2 7 1 69. 100. 326. <
5596 4 1 2 7 0 60281. 63618. 264. o
5596 3 1 -2 -7 0 60281. 63618. 264. o
5596 2 -1 -2 -7 0 60281. 63618. 264. o
5596 1 -1 2 7 0 60281. 63618. 264. o
5597 4 -1 -2 7 0 60275. 64907. 328. o
5597 3 -1 2 -7 0 60275. 64907. 328. o
5597 2 1 2 -7 0 60275. 64907. 328. o
5597 1 1 -2 7 0 60275. 64907. 328. o
5598 3 1 -2 -7 -1 43. 55. 183. <
5598 1 -1 2 7 1 43. 55. 183. <
5599 3 -1 2 -7 1 43. 16. 331. <
5599 1 1 -2 7 -1 43. 16. 331. <
5600 3 0 -2 -7 1 20. 15. 59. <
5600 1 0 2 7 -1 20. 15. 59. <
5601 4 0 2 7 0 53. 125. 60. o
5601 3 0 -2 -7 0 53. 125. 60. o
5601 2 0 -2 -7 0 53. 125. 60. o
5601 1 0 2 7 0 53. 125. 60. o
5602 3 0 -2 -7 -1 65. 0. 58. <
5602 1 0 2 7 1 65. 0. 58. <
5603 3 -1 -2 -7 1 112. 142. 174. <
5603 1 1 2 7 -1 112. 142. 174. <
5604 3 1 2 -7 -1 111. 129. 25. o
5604 1 -1 -2 7 1 111. 129. 25. o
5605 4 -1 2 7 0 60444. 60034. 240. o
5605 3 -1 -2 -7 0 60444. 60034. 240. o
5605 2 1 -2 -7 0 60444. 60034. 240. o
5605 1 1 2 7 0 60444. 60034. 240. o
5606 4 1 -2 7 0 60392. 63654. 221. o
5606 3 1 2 -7 0 60392. 63654. 221. o
5606 2 -1 2 -7 0 60392. 63654. 221. o
5606 1 -1 -2 7 0 60392. 63654. 221. o
5607 3 -1 -2 -7 -1 239. 221. 344. <
5607 1 1 2 7 1 239. 221. 344. <
5608 3 1 2 -7 1 242. 310. 31. o
5608 1 -1 -2 7 -1 242. 310. 31. o
5609 3 -2 -2 -7 1 1. 46. 195. <
5609 1 2 2 7 -1 1. 46. 195. <
5610 3 2 2 -7 -1 1. 21. 95. <
5610 1 -2 -2 7 1 1. 21. 95. <
5611 4 -2 2 7 0 16966. 17487. 194. o
5611 3 -2 -2 -7 0 16966. 17487. 194. o
5611 2 2 -2 -7 0 16966. 17487. 194. o
5611 1 2 2 7 0 16966. 17487. 194. o
5612 4 2 -2 7 0 17088. 17695. 116. o
5612 3 2 2 -7 0 17088. 17695. 116. o
5612 2 -2 2 -7 0 17088. 17695. 116. o
5612 1 -2 -2 7 0 17088. 17695. 116. o
5613 3 -2 -2 -7 -1 5. 24. 193. <
5613 1 2 2 7 1 5. 24. 193. <
5614 3 2 2 -7 1 5. 38. 98. <
5614 1 -2 -2 7 -1 5. 38. 98. <
5615 3 -3 -2 -7 1 23. 90. 845. <
5615 1 3 2 7 -1 23. 90. 845. <
5616 3 3 2 -7 -1 28. 23. 27. <
5616 1 -3 -2 7 1 28. 23. 27. <
5617 4 -3 2 7 0 119844. 121975. 840. o
5617 3 -3 -2 -7 0 119844. 121975. 840. o
5617 2 3 -2 -7 0 119844. 121975. 840. o
5617 1 3 2 7 0 119844. 121975. 840. o
5618 4 3 -2 7 0 119249. 127206. 755. o
5618 3 3 2 -7 0 119249. 127206. 755. o
5618 2 -3 2 -7 0 119249. 127206. 755. o
5618 1 -3 -2 7 0 119249. 127206. 755. o
5619 3 -3 -2 -7 -1 501. 308. 837. <
5619 1 3 2 7 1 501. 308. 837. <
5620 3 3 2 -7 1 507. 523. 46. o
5620 1 -3 -2 7 -1 507. 523. 46. o
5621 3 -4 -2 -7 1 27. 43. 302. <
5621 1 4 2 7 -1 27. 43. 302. <
5622 3 4 2 -7 -1 29. 45. 32. <
5622 1 -4 -2 7 1 29. 45. 32. <
5623 4 -4 2 7 0 42921. 45633. 301. o
5623 3 -4 -2 -7 0 42921. 45633. 301. o
5623 2 4 -2 -7 0 42921. 45633. 301. o
5623 1 4 2 7 0 42921. 45633. 301. o
5624 4 4 -2 7 0 43410. 47897. 252. o
5624 3 4 2 -7 0 43410. 47897. 252. o
5624 2 -4 2 -7 0 43410. 47897. 252. o
5624 1 -4 -2 7 0 43410. 47897. 252. o
5625 3 -4 -2 -7 -1 72. 58. 299. <
5625 1 4 2 7 1 72. 58. 299. <
5626 3 4 2 -7 1 69. 94. 34. o
5626 1 -4 -2 7 -1 69. 94. 34. o
5627 3 -5 -2 -7 1 45. 42. 327. <
5627 1 5 2 7 -1 45. 42. 327. <
5628 3 5 2 -7 -1 43. 30. 36. <
5628 1 -5 -2 7 1 43. 30. 36. <
5629 4 -5 2 7 0 47908. 51436. 325. o
5629 3 -5 -2 -7 0 47908. 51436. 325. o
5629 2 5 -2 -7 0 47908. 51436. 325. o
5629 1 5 2 7 0 47908. 51436. 325. o
5630 4 5 -2 7 0 47709. 52729. 281. o
5630 3 5 2 -7 0 47709. 52729. 281. o
5630 2 -5 2 -7 0 47709. 52729. 281. o
5630 1 -5 -2 7 0 47709. 52729. 281. o
5631 3 -5 -2 -7 -1 92. 89. 323. <
5631 1 5 2 7 1 92. 89. 323. <
5632 3 5 2 -7 1 89. 51. 37. <
5632 1 -5 -2 7 -1 89. 51. 37. <
5633 3 -6 -2 -7 1 659. 633. 429. <
5633 1 6 2 7 -1 659. 633. 429. <
5634 4 -6 2 7 0 79294. 85901. 426. o
5634 3 -6 -2 -7 0 79294. 85901. 426. o
5634 2 6 -2 -7 0 79294. 85901. 426. o
5634 1 6 2 7 0 79294. 85901. 426. o
5635 3 -6 -2 -7 -1 635. 646. 423. <
5635 1 6 2 7 1 635. 646. 423. <
5636 3 -7 -2 -7 1 191. 122. 700. <
5636 1 7 2 7 -1 191. 122. 700. <
5637 3 7 2 -7 -1 192. 315. 728. <
5637 1 -7 -2 7 1 192. 315. 728. <
5638 4 -7 2 7 0 128335. 137173. 700. o
5638 3 -7 -2 -7 0 128335. 137173. 700. o
5638 2 7 -2 -7 0 128335. 137173. 700. o
5638 1 7 2 7 0 128335. 137173. 700. o
5639 4 7 -2 7 0 128047. 127311. 733. o
5639 3 7 2 -7 0 128047. 127311. 733. o
5639 2 -7 2 -7 0 128047. 127311. 733. o
5639 1 -7 -2 7 0 128047. 127311. 733. o
5640 3 -7 -2 -7 -1 124. 147. 699. <
5640 1 7 2 7 1 124. 147. 699. <
5641 3 7 2 -7 1 126. 171. 740. <
5641 1 -7 -2 7 -1 126. 171. 740. <
5642 3 -8 -2 -7 1 135. 81. 188. <
5642 1 8 2 7 -1 135. 81. 188. <
5643 3 8 2 -7 -1 136. 49. 162. <
5643 1 -8 -2 7 1 136. 49. 162. <
5644 4 -8 2 7 0 6970. 7204. 188. o
5644 3 -8 -2 -7 0 6970. 7204. 188. o
5644 2 8 -2 -7 0 6970. 7204. 188. o
5644 1 8 2 7 0 6970. 7204. 188. o
5645 4 8 -2 7 0 7088. 6566. 163. o
5645 3 8 2 -7 0 7088. 6566. 163. o
5645 2 -8 2 -7 0 7088. 6566. 163. o
5645 1 -8 -2 7 0 7088. 6566. 163. o
5646 3 -8 -2 -7 -1 122. 82. 189. <
5646 1 8 2 7 1 122. 82. 189. <
5647 3 8 2 -7 1 119. 86. 164. <
5647 1 -8 -2 7 -1 119. 86. 164. <
5648 3 -9 -2 -7 1 352. 328. 305. <
5648 1 9 2 7 -1 352. 328. 305. <
5649 3 9 2 -7 -1 355. 408. 273. <
5649 1 -9 -2 7 1 355. 408. 273. <
5650 4 -9 2 7 0 27477. 30220. 305. o
5650 3 -9 -2 -7 0 27477. 30220. 305. o
5650 2 9 -2 -7 0 27477. 30220. 305. o
5650 1 9 2 7 0 27477. 30220. 305. o
5651 4 9 -2 7 0 27548. 26995. 274. o
5651 3 9 2 -7 0 27548. 26995. 274. o
5651 2 -9 2 -7 0 27548. 26995. 274. o
5651 1 -9 -2 7 0 27548. 26995. 274. o
5652 3 -9 -2 -7 -1 705. 594. 306. <
5652 1 9 2 7 1 705. 594. 306. <
5653 3 9 2 -7 1 706. 504. 276. <
5653 1 -9 -2 7 -1 706. 504. 276. <
5654 3 -10 -2 -7 1 84. 70. 207. <
5654 1 10 2 7 -1 84. 70. 207. <
5655 3 10 2 -7 -1 84. 74. 188. <
5655 1 -10 -2 7 1 84. 74. 188. <
5656 4 -10 2 7 0 5954. 6545. 207. o
5656 3 -10 -2 -7 0 5954. 6545. 207. o
5656 2 10 -2 -7 0 5954. 6545. 207. o
5656 1 10 2 7 0 5954. 6545. 207. o
5657 4 10 -2 7 0 6202. 6946. 189. o
5657 3 10 2 -7 0 6202. 6946. 189. o
5657 2 -10 2 -7 0 6202. 6946. 189. o
5657 1 -10 -2 7 0 6202. 6946. 189. o
5658 3 -10 -2 -7 -1 671. 672. 206. o
5658 1 10 2 7 1 671. 672. 206. o
5659 3 10 2 -7 1 663. 513. 190. o
5659 1 -10 -2 7 -1 663. 513. 190. o
5660 3 11 2 -7 -1 109. -3. 152. <
5660 1 -11 -2 7 1 109. -3. 152. <
5661 4 11 -2 7 0 891. 845. 153. o
5661 3 11 2 -7 0 891. 845. 153. o
5661 2 -11 2 -7 0 891. 845. 153. o
5661 1 -11 -2 7 0 891. 845. 153. o
5662 3 11 2 -7 1 328. 190. 154. <
5662 1 -11 -2 7 -1 328. 190. 154. <
5663 3 12 2 -7 -1 65. 42. 66. <
5663 1 -12 -2 7 1 65. 42. 66. <
5664 3 11 -3 -7 1 351. 1621. 305. o
5664 1 -11 3 7 -1 351. 1621. 305. o
5665 4 11 3 7 0 26778. 23943. 307. o
5665 3 11 -3 -7 0 26778. 23943. 307. o
5665 2 -11 -3 -7 0 26778. 23943. 307. o
5665 1 -11 3 7 0 26778. 23943. 307. o
5666 3 11 -3 -7 -1 1037. 1933. 308. o
5666 1 -11 3 7 1 1037. 1933. 308. o
5667 3 10 -3 -7 1 34. 384. 238. <
5667 1 -10 3 7 -1 34. 384. 238. <
5668 4 10 3 7 0 16498. 15995. 240. o
5668 3 10 -3 -7 0 16498. 15995. 240. o
5668 2 -10 -3 -7 0 16498. 15995. 240. o
5668 1 -10 3 7 0 16498. 15995. 240. o
5669 3 10 -3 -7 -1 428. 878. 242. o
5669 1 -10 3 7 1 428. 878. 242. o
5670 3 9 -3 -7 1 1236. 1376. 294. o
5670 1 -9 3 7 -1 1236. 1376. 294. o
5671 4 9 3 7 0 31578. 31002. 296. o
5671 3 9 -3 -7 0 31578. 31002. 296. o
5671 2 -9 -3 -7 0 31578. 31002. 296. o
5671 1 -9 3 7 0 31578. 31002. 296. o
5672 3 9 -3 -7 -1 969. 445. 297. <
5672 1 -9 3 7 1 969. 445. 297. <
5673 3 8 -3 -7 1 105. 177. 54. o
5673 1 -8 3 7 -1 105. 177. 54. o
5674 4 8 3 7 0 13235. 13326. 178. o
5674 3 8 -3 -7 0 13235. 13326. 178. o
5674 2 -8 -3 -7 0 13235. 13326. 178. o
5674 1 -8 3 7 0 13235. 13326. 178. o
5675 3 8 -3 -7 -1 82. 77. 50. <
5675 1 -8 3 7 1 82. 77. 50. <
5676 3 7 -3 -7 1 1104. 859. 126. o
5676 1 -7 3 7 -1 1104. 859. 126. o
5677 4 7 3 7 0 3712. 3308. 129. o
5677 3 7 -3 -7 0 3712. 3308. 129. o
5677 2 -7 -3 -7 0 3712. 3308. 129. o
5677 1 -7 3 7 0 3712. 3308. 129. o
5678 3 7 -3 -7 -1 811. 613. 122. o
5678 1 -7 3 7 1 811. 613. 122. o
5679 3 6 -3 -7 1 161. 87. 179. <
5679 1 -6 3 7 -1 161. 87. 179. <
5680 4 6 3 7 0 25155. 22537. 216. o
5680 3 6 -3 -7 0 25155. 22537. 216. o
5680 2 -6 -3 -7 0 25155. 22537. 216. o
5680 1 -6 3 7 0 25155. 22537. 216. o
5681 3 6 -3 -7 -1 336. 306. 197. <
5681 1 -6 3 7 1 336. 306. 197. <
5682 3 5 -3 -7 1 437. 325. 141. o
5682 1 -5 3 7 -1 437. 325. 141. o
5683 4 5 3 7 0 7332. 6857. 146. o
5683 3 5 -3 -7 0 7332. 6857. 146. o
5683 2 -5 -3 -7 0 7332. 6857. 146. o
5683 1 -5 3 7 0 7332. 6857. 146. o
5684 3 5 -3 -7 -1 60. 50. 130. <
5684 1 -5 3 7 1 60. 50. 130. <
5685 3 4 -3 -7 1 432. 363. 119. o
5685 1 -4 3 7 -1 432. 363. 119. o
5686 4 4 3 7 0 7464. 6887. 126. o
5686 3 4 -3 -7 0 7464. 6887. 126. o
5686 2 -4 -3 -7 0 7464. 6887. 126. o
5686 1 -4 3 7 0 7464. 6887. 126. o
5687 3 4 -3 -7 -1 244. 215. 112. <
5687 1 -4 3 7 1 244. 215. 112. <
5688 3 3 -3 -7 1 2720. 2614. 136. o
5688 1 -3 3 7 -1 2720. 2614. 136. o
5689 4 3 3 7 0 11606. 11987. 143. o
5689 3 3 -3 -7 0 11606. 11987. 143. o
5689 2 -3 -3 -7 0 11606. 11987. 143. o
5689 1 -3 3 7 0 11606. 11987. 143. o
5690 3 3 -3 -7 -1 2647. 2568. 132. o
5690 1 -3 3 7 1 2647. 2568. 132. o
5691 3 2 -3 -7 1 22. 69. 268. <
5691 1 -2 3 7 -1 22. 69. 268. <
5692 4 2 3 7 0 121043. 122204. 427. o
5692 3 2 -3 -7 0 121043. 122204. 427. o
5692 2 -2 -3 -7 0 121043. 122204. 427. o
5692 1 -2 3 7 0 121043. 122204. 427. o
5693 3 2 -3 -7 -1 259. 262. 262. <
5693 1 -2 3 7 1 259. 262. 262. <
5694 3 1 -3 -7 1 55. 57. 27. o
5694 1 -1 3 7 -1 55. 57. 27. o
5695 3 -1 3 -7 -1 57. 85. 271. <
5695 1 1 -3 7 1 57. 85. 271. <
5696 4 1 3 7 0 40412. 40994. 208. o
5696 3 1 -3 -7 0 40412. 40994. 208. o
5696 2 -1 -3 -7 0 40412. 40994. 208. o
5696 1 -1 3 7 0 40412. 40994. 208. o
5697 4 -1 -3 7 0 40318. 42018. 274. o
5697 3 -1 3 -7 0 40318. 42018. 274. o
5697 2 1 3 -7 0 40318. 42018. 274. o
5697 1 1 -3 7 0 40318. 42018. 274. o
5698 3 1 -3 -7 -1 305. 311. 34. o
5698 1 -1 3 7 1 305. 311. 34. o
5699 3 -1 3 -7 1 301. 224. 276. <
5699 1 1 -3 7 -1 301. 224. 276. <
5700 3 0 -3 -7 1 37. 15. 64. <
5700 1 0 3 7 -1 37. 15. 64. <
5701 3 0 3 -7 -1 38. 9. 109. <
5701 1 0 -3 7 1 38. 9. 109. <
5702 4 0 3 7 0 478. 801. 66. o
5702 3 0 -3 -7 0 478. 801. 66. o
5702 2 0 -3 -7 0 478. 801. 66. o
5702 1 0 3 7 0 478. 801. 66. o
5703 4 0 -3 7 0 775. 873. 110. o
5703 3 0 3 -7 0 775. 873. 110. o
5703 2 0 3 -7 0 775. 873. 110. o
5703 1 0 -3 7 0 775. 873. 110. o
5704 3 0 -3 -7 -1 155. 107. 63. <
5704 1 0 3 7 1 155. 107. 63. <
5705 3 0 3 -7 1 154. 65. 112. <
5705 1 0 -3 7 -1 154. 65. 112. <
5706 3 -1 -3 -7 1 163. 213. 153. <
5706 1 1 3 7 -1 163. 213. 153. <
5707 3 1 3 -7 -1 162. 224. 45. o
5707 1 -1 -3 7 1 162. 224. 45. o
5708 4 -1 3 7 0 40000. 41531. 179. o
5708 3 -1 -3 -7 0 40000. 41531. 179. o
5708 2 1 -3 -7 0 40000. 41531. 179. o
5708 1 1 3 7 0 40000. 41531. 179. o
5709 4 1 -3 7 0 39877. 41944. 212. o
5709 3 1 3 -7 0 39877. 41944. 212. o
5709 2 -1 3 -7 0 39877. 41944. 212. o
5709 1 -1 -3 7 0 39877. 41944. 212. o
5710 3 -1 -3 -7 -1 637. 481. 152. o
5710 1 1 3 7 1 637. 481. 152. o
5711 3 1 3 -7 1 638. 692. 45. o
5711 1 -1 -3 7 -1 638. 692. 45. o
5712 3 -2 -3 -7 1 45. 285. 750. <
5712 1 2 3 7 -1 45. 285. 750. <
5713 3 2 3 -7 -1 38. 48. 26. <
5713 1 -2 -3 7 1 38. 48. 26. <
5714 4 -2 3 7 0 120869. 124726. 746. o
5714 3 -2 -3 -7 0 120869. 124726. 746. o
5714 2 2 -3 -7 0 120869. 124726. 746. o
5714 1 2 3 7 0 120869. 124726. 746. o
5715 4 2 -3 7 0 121129. 126060. 703. o
5715 3 2 3 -7 0 121129. 126060. 703. o
5715 2 -2 3 -7 0 121129. 126060. 703. o
5715 1 -2 -3 7 0 121129. 126060. 703. o
5716 3 -2 -3 -7 -1 544. 464. 743. <
5716 1 2 3 7 1 544. 464. 743. <
5717 3 2 3 -7 1 536. 577. 46. o
5717 1 -2 -3 7 -1 536. 577. 46. o
5718 3 -3 -3 -7 1 28. 14. 180. <
5718 1 3 3 7 -1 28. 14. 180. <
5719 3 3 3 -7 -1 28. -24. 28. <
5719 1 -3 -3 7 1 28. -24. 28. <
5720 4 -3 3 7 0 11601. 11232. 179. o
5720 3 -3 -3 -7 0 11601. 11232. 179. o
5720 2 3 -3 -7 0 11601. 11232. 179. o
5720 1 3 3 7 0 11601. 11232. 179. o
5721 4 3 -3 7 0 11586. 13386. 132. o
5721 3 3 3 -7 0 11586. 13386. 132. o
5721 2 -3 3 -7 0 11586. 13386. 132. o
5721 1 -3 -3 7 0 11586. 13386. 132. o
5722 3 -3 -3 -7 -1 29. 8. 179. <
5722 1 3 3 7 1 29. 8. 179. <
5723 3 3 3 -7 1 30. -25. 31. <
5723 1 -3 -3 7 -1 30. -25. 31. <
5724 3 -4 -3 -7 1 143. 92. 166. <
5724 1 4 3 7 -1 143. 92. 166. <
5725 3 4 3 -7 -1 141. 147. 36. o
5725 1 -4 -3 7 1 141. 147. 36. o
5726 4 -4 3 7 0 7617. 7725. 166. o
5726 3 -4 -3 -7 0 7617. 7725. 166. o
5726 2 4 -3 -7 0 7617. 7725. 166. o
5726 1 4 3 7 0 7617. 7725. 166. o
5727 4 4 -3 7 0 7631. 8004. 115. o
5727 3 4 3 -7 0 7631. 8004. 115. o
5727 2 -4 3 -7 0 7631. 8004. 115. o
5727 1 -4 -3 7 0 7631. 8004. 115. o
5728 3 -4 -3 -7 -1 71. 49. 165. <
5728 1 4 3 7 1 71. 49. 165. <
5729 3 4 3 -7 1 70. 68. 37. <
5729 1 -4 -3 7 -1 70. 68. 37. <
5730 3 -5 -3 -7 1 11. 26. 175. <
5730 1 5 3 7 -1 11. 26. 175. <
5731 3 5 3 -7 -1 12. 21. 147. <
5731 1 -5 -3 7 1 12. 21. 147. <
5732 4 -5 3 7 0 7647. 7970. 175. o
5732 3 -5 -3 -7 0 7647. 7970. 175. o
5732 2 5 -3 -7 0 7647. 7970. 175. o
5732 1 5 3 7 0 7647. 7970. 175. o
5733 4 5 -3 7 0 7477. 7374. 147. o
5733 3 5 3 -7 0 7477. 7374. 147. o
5733 2 -5 3 -7 0 7477. 7374. 147. o
5733 1 -5 -3 7 0 7477. 7374. 147. o
5734 3 -5 -3 -7 -1 351. 270. 174. <
5734 1 5 3 7 1 351. 270. 174. <
5735 3 5 3 -7 1 351. 219. 148. <
5735 1 -5 -3 7 -1 351. 219. 148. <
5736 3 -6 -3 -7 1 19. 14. 258. <
5736 1 6 3 7 -1 19. 14. 258. <
5737 3 6 3 -7 -1 16. -10. 40. <
5737 1 -6 -3 7 1 16. -10. 40. <
5738 4 -6 3 7 0 25263. 27606. 257. o
5738 3 -6 -3 -7 0 25263. 27606. 257. o
5738 2 6 -3 -7 0 25263. 27606. 257. o
5738 1 6 3 7 0 25263. 27606. 257. o
5739 4 6 -3 7 0 25015. 27486. 230. o
5739 3 6 3 -7 0 25015. 27486. 230. o
5739 2 -6 3 -7 0 25015. 27486. 230. o
5739 1 -6 -3 7 0 25015. 27486. 230. o
5740 3 -6 -3 -7 -1 68. 76. 256. <
5740 1 6 3 7 1 68. 76. 256. <
5741 3 6 3 -7 1 74. 66. 45. <
5741 1 -6 -3 7 -1 74. 66. 45. <
5742 3 -7 -3 -7 1 358. 281. 161. <
5742 1 7 3 7 -1 358. 281. 161. <
5743 3 7 3 -7 -1 366. 357. 54. o
5743 1 -7 -3 7 1 366. 357. 54. o
5744 4 -7 3 7 0 3682. 4354. 160. o
5744 3 -7 -3 -7 0 3682. 4354. 160. o
5744 2 7 -3 -7 0 3682. 4354. 160. o
5744 1 7 3 7 0 3682. 4354. 160. o
5745 4 7 -3 7 0 3434. 3926. 109. o
5745 3 7 3 -7 0 3434. 3926. 109. o
5745 2 -7 3 -7 0 3434. 3926. 109. o
5745 1 -7 -3 7 0 3434. 3926. 109. o
5746 3 -7 -3 -7 -1 96. 21. 160. <
5746 1 7 3 7 1 96. 21. 160. <
5747 3 7 3 -7 1 101. 5. 47. <
5747 1 -7 -3 7 -1 101. 5. 47. <
5748 3 -8 -3 -7 1 99. 32. 219. <
5748 1 8 3 7 -1 99. 32. 219. <
5749 3 8 3 -7 -1 93. 14. 207. <
5749 1 -8 -3 7 1 93. 14. 207. <
5750 4 -8 3 7 0 13281. 14286. 218. o
5750 3 -8 -3 -7 0 13281. 14286. 218. o
5750 2 8 -3 -7 0 13281. 14286. 218. o
5750 1 8 3 7 0 13281. 14286. 218. o
5751 4 8 -3 7 0 13163. 13182. 209. o
5751 3 8 3 -7 0 13163. 13182. 209. o
5751 2 -8 3 -7 0 13163. 13182. 209. o
5751 1 -8 -3 7 0 13163. 13182. 209. o
5752 3 -8 -3 -7 -1 183. 48. 218. <
5752 1 8 3 7 1 183. 48. 218. <
5753 3 8 3 -7 1 177. 56. 211. <
5753 1 -8 -3 7 -1 177. 56. 211. <
5754 3 -9 -3 -7 1 75. 68. 316. <
5754 1 9 3 7 -1 75. 68. 316. <
5755 3 9 3 -7 -1 81. 120. 305. <
5755 1 -9 -3 7 1 81. 120. 305. <
5756 4 -9 3 7 0 32462. 34272. 314. o
5756 3 -9 -3 -7 0 32462. 34272. 314. o
5756 2 9 -3 -7 0 32462. 34272. 314. o
5756 1 9 3 7 0 32462. 34272. 314. o
5757 4 9 -3 7 0 32100. 32499. 308. o
5757 3 9 3 -7 0 32100. 32499. 308. o
5757 2 -9 3 -7 0 32100. 32499. 308. o
5757 1 -9 -3 7 0 32100. 32499. 308. o
5758 3 -9 -3 -7 -1 126. 163. 312. <
5758 1 9 3 7 1 126. 163. 312. <
5759 3 9 3 -7 1 132. 139. 310. <
5759 1 -9 -3 7 -1 132. 139. 310. <
5760 3 10 3 -7 -1 429. 319. 254. <
5760 1 -10 -3 7 1 429. 319. 254. <
5761 4 10 -3 7 0 16460. 16942. 255. o
5761 3 10 3 -7 0 16460. 16942. 255. o
5761 2 -10 3 -7 0 16460. 16942. 255. o
5761 1 -10 -3 7 0 16460. 16942. 255. o
5762 3 10 3 -7 1 88. 107. 257. <
5762 1 -10 -3 7 -1 88. 107. 257. <
5763 3 11 3 -7 -1 384. 641. 317. o
5763 1 -11 -3 7 1 384. 641. 317. o
5764 4 11 -3 7 0 27490. 26053. 319. o
5764 3 11 3 -7 0 27490. 26053. 319. o
5764 2 -11 3 -7 0 27490. 26053. 319. o
5764 1 -11 -3 7 0 27490. 26053. 319. o
5765 3 11 3 -7 1 162. 589. 322. <
5765 1 -11 -3 7 -1 162. 589. 322. <
5766 3 11 -4 -7 1 295. 779. 217. o
5766 1 -11 4 7 -1 295. 779. 217. o
5767 4 11 4 7 0 9441. 8620. 219. o
5767 3 11 -4 -7 0 9441. 8620. 219. o
5767 2 -11 -4 -7 0 9441. 8620. 219. o
5767 1 -11 4 7 0 9441. 8620. 219. o
5768 3 11 -4 -7 -1 41. 251. 220. <
5768 1 -11 4 7 1 41. 251. 220. <
5769 3 10 -4 -7 1 333. 1225. 368. o
5769 1 -10 4 7 -1 333. 1225. 368. o
5770 4 10 4 7 0 42877. 42686. 370. o
5770 3 10 -4 -7 0 42877. 42686. 370. o
5770 2 -10 -4 -7 0 42877. 42686. 370. o
5770 1 -10 4 7 0 42877. 42686. 370. o
5771 3 10 -4 -7 -1 32. 379. 372. <
5771 1 -10 4 7 1 32. 379. 372. <
5772 3 9 -4 -7 1 176. 220. 126. <
5772 1 -9 4 7 -1 176. 220. 126. <
5773 4 9 4 7 0 210. 337. 127. o
5773 3 9 -4 -7 0 210. 337. 127. o
5773 2 -9 -4 -7 0 210. 337. 127. o
5773 1 -9 4 7 0 210. 337. 127. o
5774 3 9 -4 -7 -1 191. 90. 128. <
5774 1 -9 4 7 1 191. 90. 128. <
5775 3 8 -4 -7 1 261. 44. 157. <
5775 1 -8 4 7 -1 261. 44. 157. <
5776 4 8 4 7 0 15355. 13367. 180. o
5776 3 8 -4 -7 0 15355. 13367. 180. o
5776 2 -8 -4 -7 0 15355. 13367. 180. o
5776 1 -8 4 7 0 15355. 13367. 180. o
5777 3 8 -4 -7 -1 93. 61. 146. <
5777 1 -8 4 7 1 93. 61. 146. <
5778 3 7 -4 -7 1 462. 233. 110. o
5778 1 -7 4 7 -1 462. 233. 110. o
5779 4 7 4 7 0 910. 858. 113. o
5779 3 7 -4 -7 0 910. 858. 113. o
5779 2 -7 -4 -7 0 910. 858. 113. o
5779 1 -7 4 7 0 910. 858. 113. o
5780 3 7 -4 -7 -1 89. 69. 108. <
5780 1 -7 4 7 1 89. 69. 108. <
5781 3 6 -4 -7 1 1592. 1325. 123. o
5781 1 -6 4 7 -1 1592. 1325. 123. o
5782 4 6 4 7 0 2885. 2447. 128. o
5782 3 6 -4 -7 0 2885. 2447. 128. o
5782 2 -6 -4 -7 0 2885. 2447. 128. o
5782 1 -6 4 7 0 2885. 2447. 128. o
5783 3 6 -4 -7 -1 209. 220. 124. <
5783 1 -6 4 7 1 209. 220. 124. <
5784 3 5 -4 -7 1 44. 55. 139. <
5784 1 -5 4 7 -1 44. 55. 139. <
5785 4 5 4 7 0 1644. 1199. 137. o
5785 3 5 -4 -7 0 1644. 1199. 137. o
5785 2 -5 -4 -7 0 1644. 1199. 137. o
5785 1 -5 4 7 0 1644. 1199. 137. o
5786 3 5 -4 -7 -1 18. 5. 129. <
5786 1 -5 4 7 1 18. 5. 129. <
5787 3 4 -4 -7 1 194. 96. 147. <
5787 1 -4 4 7 -1 194. 96. 147. <
5788 4 4 4 7 0 17671. 16787. 169. o
5788 3 4 -4 -7 0 17671. 16787. 169. o
5788 2 -4 -4 -7 0 17671. 16787. 169. o
5788 1 -4 4 7 0 17671. 16787. 169. o
5789 3 4 -4 -7 -1 93. 91. 141. <
5789 1 -4 4 7 1 93. 91. 141. <
5790 3 3 -4 -7 1 292. 178. 114. <
5790 1 -3 4 7 -1 292. 178. 114. <
5791 4 3 4 7 0 6987. 6781. 124. o
5791 3 3 -4 -7 0 6987. 6781. 124. o
5791 2 -3 -4 -7 0 6987. 6781. 124. o
5791 1 -3 4 7 0 6987. 6781. 124. o
5792 3 3 -4 -7 -1 420. 353. 112. o
5792 1 -3 4 7 1 420. 353. 112. o
5793 3 2 -4 -7 1 1097. 1073. 181. o
5793 1 -2 4 7 -1 1097. 1073. 181. o
5794 4 2 4 7 0 41506. 41952. 214. o
5794 3 2 -4 -7 0 41506. 41952. 214. o
5794 2 -2 -4 -7 0 41506. 41952. 214. o
5794 1 -2 4 7 0 41506. 41952. 214. o
5795 3 2 -4 -7 -1 644. 690. 176. o
5795 1 -2 4 7 1 644. 690. 176. o
5796 3 1 -4 -7 1 576. 586. 49. o
5796 1 -1 4 7 -1 576. 586. 49. o
5797 4 1 4 7 0 38193. 39556. 227. o
5797 3 1 -4 -7 0 38193. 39556. 227. o
5797 2 -1 -4 -7 0 38193. 39556. 227. o
5797 1 -1 4 7 0 38193. 39556. 227. o
5798 3 1 -4 -7 -1 508. 556. 49. o
5798 1 -1 4 7 1 508. 556. 49. o
5799 3 0 -4 -7 1 52. 25. 74. <
5799 1 0 4 7 -1 52. 25. 74. <
5800 4 0 4 7 0 718. 1512. 76. o
5800 3 0 -4 -7 0 718. 1512. 76. o
5800 2 0 -4 -7 0 718. 1512. 76. o
5800 1 0 4 7 0 718. 1512. 76. o
5801 3 0 -4 -7 -1 100. 56. 73. <
5801 1 0 4 7 1 100. 56. 73. <
5802 3 -1 -4 -7 1 126. 194. 160. <
5802 1 1 4 7 -1 126. 194. 160. <
5803 4 -1 4 7 0 38477. 40308. 193. o
5803 3 -1 -4 -7 0 38477. 40308. 193. o
5803 2 1 -4 -7 0 38477. 40308. 193. o
5803 1 1 4 7 0 38477. 40308. 193. o
5804 3 -1 -4 -7 -1 110. 118. 159. <
5804 1 1 4 7 1 110. 118. 159. <
5805 3 -2 -4 -7 1 40. 103. 160. <
5805 1 2 4 7 -1 40. 103. 160. <
5806 3 2 4 -7 -1 38. 24. 32. <
5806 1 -2 -4 7 1 38. 24. 32. <
5807 4 -2 4 7 0 41162. 42691. 200. o
5807 3 -2 -4 -7 0 41162. 42691. 200. o
5807 2 2 -4 -7 0 41162. 42691. 200. o
5807 1 2 4 7 0 41162. 42691. 200. o
5808 4 2 -4 7 0 41220. 45182. 243. o
5808 3 2 4 -7 0 41220. 45182. 243. o
5808 2 -2 4 -7 0 41220. 45182. 243. o
5808 1 -2 -4 7 0 41220. 45182. 243. o
5809 3 -2 -4 -7 -1 58. 75. 160. <
5809 1 2 4 7 1 58. 75. 160. <
5810 3 2 4 -7 1 60. 95. 36. o
5810 1 -2 -4 7 -1 60. 95. 36. o
5811 3 -3 -4 -7 1 179. 141. 170. <
5811 1 3 4 7 -1 179. 141. 170. <
5812 4 -3 4 7 0 6780. 7738. 170. o
5812 3 -3 -4 -7 0 6780. 7738. 170. o
5812 2 3 -4 -7 0 6780. 7738. 170. o
5812 1 3 4 7 0 6780. 7738. 170. o
5813 3 -3 -4 -7 -1 72. 75. 170. <
5813 1 3 4 7 1 72. 75. 170. <
5814 3 -4 -4 -7 1 1. 123. 227. <
5814 1 4 4 7 -1 1. 123. 227. <
5815 3 4 4 -7 -1 1. 12. 36. <
5815 1 -4 -4 7 1 1. 12. 36. <
5816 4 -4 4 7 0 17510. 20494. 227. o
5816 3 -4 -4 -7 0 17510. 20494. 227. o
5816 2 4 -4 -7 0 17510. 20494. 227. o
5816 1 4 4 7 0 17510. 20494. 227. o
5817 4 4 -4 7 0 17588. 19599. 180. o
5817 3 4 4 -7 0 17588. 19599. 180. o
5817 2 -4 4 -7 0 17588. 19599. 180. o
5817 1 -4 -4 7 0 17588. 19599. 180. o
5818 3 -4 -4 -7 -1 5. 14. 227. <
5818 1 4 4 7 1 5. 14. 227. <
5819 3 4 4 -7 1 6. 29. 37. <
5819 1 -4 -4 7 -1 6. 29. 37. <
5820 3 -5 -4 -7 1 495. 332. 144. o
5820 1 5 4 7 -1 495. 332. 144. o
5821 3 5 4 -7 -1 496. 514. 60. o
5821 1 -5 -4 7 1 496. 514. 60. o
5822 4 -5 4 7 0 1743. 1817. 144. o
5822 3 -5 -4 -7 0 1743. 1817. 144. o
5822 2 5 -4 -7 0 1743. 1817. 144. o
5822 1 5 4 7 0 1743. 1817. 144. o
5823 4 5 -4 7 0 1801. 1397. 72. o
5823 3 5 4 -7 0 1801. 1397. 72. o
5823 2 -5 4 -7 0 1801. 1397. 72. o
5823 1 -5 -4 7 0 1801. 1397. 72. o
5824 3 -5 -4 -7 -1 849. 762. 144. o
5824 1 5 4 7 1 849. 762. 144. o
5825 3 5 4 -7 1 848. 968. 72. o
5825 1 -5 -4 7 -1 848. 968. 72. o
5826 3 -6 -4 -7 1 78. 39. 147. <
5826 1 6 4 7 -1 78. 39. 147. <
5827 3 6 4 -7 -1 74. 24. 143. <
5827 1 -6 -4 7 1 74. 24. 143. <
5828 4 -6 4 7 0 2855. 2962. 147. o
5828 3 -6 -4 -7 0 2855. 2962. 147. o
5828 2 6 -4 -7 0 2855. 2962. 147. o
5828 1 6 4 7 0 2855. 2962. 147. o
5829 4 6 -4 7 0 2884. 3195. 144. o
5829 3 6 4 -7 0 2884. 3195. 144. o
5829 2 -6 4 -7 0 2884. 3195. 144. o
5829 1 -6 -4 7 0 2884. 3195. 144. o
5830 3 -6 -4 -7 -1 576. 483. 147. o
5830 1 6 4 7 1 576. 483. 147. o
5831 3 6 4 -7 1 584. 377. 145. o
5831 1 -6 -4 7 -1 584. 377. 145. o
5832 3 -7 -4 -7 1 3. -3. 139. <
5832 1 7 4 7 -1 3. -3. 139. <
5833 3 7 4 -7 -1 4. 294. 133. o
5833 1 -7 -4 7 1 4. 294. 133. o
5834 4 -7 4 7 0 884. 1162. 139. o
5834 3 -7 -4 -7 0 884. 1162. 139. o
5834 2 7 -4 -7 0 884. 1162. 139. o
5834 1 7 4 7 0 884. 1162. 139. o
5835 4 7 -4 7 0 873. 296. 134. o
5835 3 7 4 -7 0 873. 296. 134. o
5835 2 -7 4 -7 0 873. 296. 134. o
5835 1 -7 -4 7 0 873. 296. 134. o
5836 3 -7 -4 -7 -1 54. 15. 139. <
5836 1 7 4 7 1 54. 15. 139. <
5837 3 7 4 -7 1 57. 298. 134. o
5837 1 -7 -4 7 -1 57. 298. 134. o
5838 3 -8 -4 -7 1 524. 450. 230. <
5838 1 8 4 7 -1 524. 450. 230. <
5839 3 8 4 -7 -1 532. 443. 237. <
5839 1 -8 -4 7 1 532. 443. 237. <
5840 4 -8 4 7 0 15450. 16561. 230. o
5840 3 -8 -4 -7 0 15450. 16561. 230. o
5840 2 8 -4 -7 0 15450. 16561. 230. o
5840 1 8 4 7 0 15450. 16561. 230. o
5841 4 8 -4 7 0 15225. 15846. 238. o
5841 3 8 4 -7 0 15225. 15846. 238. o
5841 2 -8 4 -7 0 15225. 15846. 238. o
5841 1 -8 -4 7 0 15225. 15846. 238. o
5842 3 -8 -4 -7 -1 336. 292. 230. <
5842 1 8 4 7 1 336. 292. 230. <
5843 3 8 4 -7 1 345. 335. 240. <
5843 1 -8 -4 7 -1 345. 335. 240. <
5844 3 9 4 -7 -1 66. -2. 149. <
5844 1 -9 -4 7 1 66. -2. 149. <
5845 4 9 -4 7 0 187. 123. 150. <
5845 3 9 4 -7 0 187. 123. 150. <
5845 2 -9 4 -7 0 187. 123. 150. <
5845 1 -9 -4 7 0 187. 123. 150. <
5846 3 9 4 -7 1 30. 3. 151. <
5846 1 -9 -4 7 -1 30. 3. 151. <
5847 3 10 4 -7 -1 39. 302. 388. <
5847 1 -10 -4 7 1 39. 302. 388. <
5848 4 10 -4 7 0 44143. 45399. 390. o
5848 3 10 4 -7 0 44143. 45399. 390. o
5848 2 -10 4 -7 0 44143. 45399. 390. o
5848 1 -10 -4 7 0 44143. 45399. 390. o
5849 3 10 4 -7 1 137. 387. 392. <
5849 1 -10 -4 7 -1 137. 387. 392. <
5850 3 11 4 -7 -1 185. 153. 239. <
5850 1 -11 -4 7 1 185. 153. 239. <
5851 4 11 -4 7 0 9461. 9570. 241. o
5851 3 11 4 -7 0 9461. 9570. 241. o
5851 2 -11 4 -7 0 9461. 9570. 241. o
5851 1 -11 -4 7 0 9461. 9570. 241. o
5852 3 11 4 -7 1 345. 149. 242. <
5852 1 -11 -4 7 -1 345. 149. 242. <
5853 3 10 -5 -7 1 402. 1748. 564. o
5853 1 -10 5 7 -1 402. 1748. 564. o
5854 4 10 5 7 0 97964. 99197. 568. o
5854 3 10 -5 -7 0 97964. 99197. 568. o
5854 2 -10 -5 -7 0 97964. 99197. 568. o
5854 1 -10 5 7 0 97964. 99197. 568. o
5855 3 10 -5 -7 -1 172. 2507. 572. o
5855 1 -10 5 7 1 172. 2507. 572. o
5856 3 9 -5 -7 1 111. 225. 309. <
5856 1 -9 5 7 -1 111. 225. 309. <
5857 4 9 5 7 0 27042. 28115. 309. o
5857 3 9 -5 -7 0 27042. 28115. 309. o
5857 2 -9 -5 -7 0 27042. 28115. 309. o
5857 1 -9 5 7 0 27042. 28115. 309. o
5858 3 9 -5 -7 -1 865. 914. 310. o
5858 1 -9 5 7 1 865. 914. 310. o
5859 3 8 -5 -7 1 39. 39. 137. <
5859 1 -8 5 7 -1 39. 39. 137. <
5860 4 8 5 7 0 2529. 2212. 135. o
5860 3 8 -5 -7 0 2529. 2212. 135. o
5860 2 -8 -5 -7 0 2529. 2212. 135. o
5860 1 -8 5 7 0 2529. 2212. 135. o
5861 3 8 -5 -7 -1 126. 39. 133. <
5861 1 -8 5 7 1 126. 39. 133. <
5862 3 7 -5 -7 1 70. 100. 157. <
5862 1 -7 5 7 -1 70. 100. 157. <
5863 4 7 5 7 0 25552. 21404. 200. o
5863 3 7 -5 -7 0 25552. 21404. 200. o
5863 2 -7 -5 -7 0 25552. 21404. 200. o
5863 1 -7 5 7 0 25552. 21404. 200. o
5864 3 7 -5 -7 -1 27. 55. 155. <
5864 1 -7 5 7 1 27. 55. 155. <
5865 3 6 -5 -7 1 273. 68. 180. <
5865 1 -6 5 7 -1 273. 68. 180. <
5866 4 6 5 7 0 35139. 30173. 229. o
5866 3 6 -5 -7 0 35139. 30173. 229. o
5866 2 -6 -5 -7 0 35139. 30173. 229. o
5866 1 -6 5 7 0 35139. 30173. 229. o
5867 3 6 -5 -7 -1 121. 48. 182. <
5867 1 -6 5 7 1 121. 48. 182. <
5868 3 5 -5 -7 1 785. 881. 151. o
5868 1 -5 5 7 -1 785. 881. 151. o
5869 4 5 5 7 0 1386. 1222. 148. o
5869 3 5 -5 -7 0 1386. 1222. 148. o
5869 2 -5 -5 -7 0 1386. 1222. 148. o
5869 1 -5 5 7 0 1386. 1222. 148. o
5870 3 5 -5 -7 -1 738. 800. 145. o
5870 1 -5 5 7 1 738. 800. 145. o
5871 3 4 -5 -7 1 61. -31. 116. <
5871 1 -4 5 7 -1 61. -31. 116. <
5872 4 4 5 7 0 1679. 1403. 119. o
5872 3 4 -5 -7 0 1679. 1403. 119. o
5872 2 -4 -5 -7 0 1679. 1403. 119. o
5872 1 -4 5 7 0 1679. 1403. 119. o
5873 3 4 -5 -7 -1 29. 40. 111. <
5873 1 -4 5 7 1 29. 40. 111. <
5874 3 3 -5 -7 1 33. 15. 124. <
5874 1 -3 5 7 -1 33. 15. 124. <
5875 4 3 5 7 0 7931. 7730. 137. o
5875 3 3 -5 -7 0 7931. 7730. 137. o
5875 2 -3 -5 -7 0 7931. 7730. 137. o
5875 1 -3 5 7 0 7931. 7730. 137. o
5876 3 3 -5 -7 -1 211. 329. 122. o
5876 1 -3 5 7 1 211. 329. 122. o
5877 3 2 -5 -7 1 140. 158. 41. o
5877 1 -2 5 7 -1 140. 158. 41. o
5878 4 2 5 7 0 45270. 47430. 280. o
5878 3 2 -5 -7 0 45270. 47430. 280. o
5878 2 -2 -5 -7 0 45270. 47430. 280. o
5878 1 -2 5 7 0 45270. 47430. 280. o
5879 3 2 -5 -7 -1 62. 77. 40. <
5879 1 -2 5 7 1 62. 77. 40. <
5880 3 1 -5 -7 1 602. 558. 222. o
5880 1 -1 5 7 -1 602. 558. 222. o
5881 4 1 5 7 0 66836. 66771. 271. o
5881 3 1 -5 -7 0 66836. 66771. 271. o
5881 2 -1 -5 -7 0 66836. 66771. 271. o
5881 1 -1 5 7 0 66836. 66771. 271. o
5882 3 1 -5 -7 -1 62. 184. 217. <
5882 1 -1 5 7 1 62. 184. 217. <
5883 3 0 -5 -7 1 477. 428. 256. <
5883 1 0 5 7 -1 477. 428. 256. <
5884 4 0 5 7 0 94690. 99355. 340. o
5884 3 0 -5 -7 0 94690. 99355. 340. o
5884 2 0 -5 -7 0 94690. 99355. 340. o
5884 1 0 5 7 0 94690. 99355. 340. o
5885 3 0 -5 -7 -1 169. 206. 252. <
5885 1 0 5 7 1 169. 206. 252. <
5886 3 -1 -5 -7 1 42. 120. 213. <
5886 1 1 5 7 -1 42. 120. 213. <
5887 4 -1 5 7 0 66269. 68134. 266. o
5887 3 -1 -5 -7 0 66269. 68134. 266. o
5887 2 1 -5 -7 0 66269. 68134. 266. o
5887 1 1 5 7 0 66269. 68134. 266. o
5888 3 -1 -5 -7 -1 91. 175. 212. <
5888 1 1 5 7 1 91. 175. 212. <
5889 3 -2 -5 -7 1 105. 100. 181. <
5889 1 2 5 7 -1 105. 100. 181. <
5890 4 -2 5 7 0 45739. 47029. 225. o
5890 3 -2 -5 -7 0 45739. 47029. 225. o
5890 2 2 -5 -7 0 45739. 47029. 225. o
5890 1 2 5 7 0 45739. 47029. 225. o
5891 3 -2 -5 -7 -1 232. 65. 180. <
5891 1 2 5 7 1 232. 65. 180. <
5892 3 -3 -5 -7 1 67. 76. 190. <
5892 1 3 5 7 -1 67. 76. 190. <
5893 4 -3 5 7 0 7903. 9145. 189. o
5893 3 -3 -5 -7 0 7903. 9145. 189. o
5893 2 3 -5 -7 0 7903. 9145. 189. o
5893 1 3 5 7 0 7903. 9145. 189. o
5894 3 -3 -5 -7 -1 344. 267. 189. <
5894 1 3 5 7 1 344. 267. 189. <
5895 3 -4 -5 -7 1 462. 316. 147. o
5895 1 4 5 7 -1 462. 316. 147. o
5896 4 -4 5 7 0 1805. 1895. 147. o
5896 3 -4 -5 -7 0 1805. 1895. 147. o
5896 2 4 -5 -7 0 1805. 1895. 147. o
5896 1 4 5 7 0 1805. 1895. 147. o
5897 3 -4 -5 -7 -1 855. 893. 147. o
5897 1 4 5 7 1 855. 893. 147. o
5898 3 -5 -5 -7 1 13. 32. 142. <
5898 1 5 5 7 -1 13. 32. 142. <
5899 3 5 5 -7 -1 13. -35. 41. <
5899 1 -5 -5 7 1 13. -35. 41. <
5900 4 -5 5 7 0 1318. 1389. 142. o
5900 3 -5 -5 -7 0 1318. 1389. 142. o
5900 2 5 -5 -7 0 1318. 1389. 142. o
5900 1 5 5 7 0 1318. 1389. 142. o
5901 4 5 -5 7 0 1384. 1290. 79. o
5901 3 5 5 -7 0 1384. 1290. 79. o
5901 2 -5 5 -7 0 1384. 1290. 79. o
5901 1 -5 -5 7 0 1384. 1290. 79. o
5902 3 -5 -5 -7 -1 1. -8. 142. <
5902 1 5 5 7 1 1. -8. 142. <
5903 3 5 5 -7 1 1. 41. 48. <
5903 1 -5 -5 7 -1 1. 41. 48. <
5904 3 -6 -5 -7 1 398. 815. 313. o
5904 1 6 5 7 -1 398. 815. 313. o
5905 3 6 5 -7 -1 400. 377. 58. o
5905 1 -6 -5 7 1 400. 377. 58. o
5906 4 -6 5 7 0 35683. 39067. 313. o
5906 3 -6 -5 -7 0 35683. 39067. 313. o
5906 2 6 -5 -7 0 35683. 39067. 313. o
5906 1 6 5 7 0 35683. 39067. 313. o
5907 4 6 -5 7 0 35517. 38507. 297. o
5907 3 6 5 -7 0 35517. 38507. 297. o
5907 2 -6 5 -7 0 35517. 38507. 297. o
5907 1 -6 -5 7 0 35517. 38507. 297. o
5908 3 -6 -5 -7 -1 47. 202. 313. <
5908 1 6 5 7 1 47. 202. 313. <
5909 3 6 5 -7 1 47. 42. 51. <
5909 1 -6 -5 7 -1 47. 42. 51. <
5910 3 -7 -5 -7 1 33. 618. 273. o
5910 1 7 5 7 -1 33. 618. 273. o
5911 3 7 5 -7 -1 34. 25. 285. <
5911 1 -7 -5 7 1 34. 25. 285. <
5912 4 -7 5 7 0 25588. 27537. 273. o
5912 3 -7 -5 -7 0 25588. 27537. 273. o
5912 2 7 -5 -7 0 25588. 27537. 273. o
5912 1 7 5 7 0 25588. 27537. 273. o
5913 4 7 -5 7 0 26080. 28499. 287. o
5913 3 7 5 -7 0 26080. 28499. 287. o
5913 2 -7 5 -7 0 26080. 28499. 287. o
5913 1 -7 -5 7 0 26080. 28499. 287. o
5914 3 -7 -5 -7 -1 176. 270. 274. <
5914 1 7 5 7 1 176. 270. 274. <
5915 3 7 5 -7 1 172. 97. 289. <
5915 1 -7 -5 7 -1 172. 97. 289. <
5916 3 8 5 -7 -1 347. 275. 179. <
5916 1 -8 -5 7 1 347. 275. 179. <
5917 4 8 -5 7 0 2749. 3375. 180. o
5917 3 8 5 -7 0 2749. 3375. 180. o
5917 2 -8 5 -7 0 2749. 3375. 180. o
5917 1 -8 -5 7 0 2749. 3375. 180. o
5918 3 8 5 -7 1 598. 240. 181. <
5918 1 -8 -5 7 -1 598. 240. 181. <
5919 3 9 5 -7 -1 182. 33. 325. <
5919 1 -9 -5 7 1 182. 33. 325. <
5920 4 9 -5 7 0 27651. 29792. 327. o
5920 3 9 5 -7 0 27651. 29792. 327. o
5920 2 -9 5 -7 0 27651. 29792. 327. o
5920 1 -9 -5 7 0 27651. 29792. 327. o
5921 3 9 5 -7 1 20. 99. 328. <
5921 1 -9 -5 7 -1 20. 99. 328. <
5922 3 10 5 -7 -1 146. 605. 585. <
5922 1 -10 -5 7 1 146. 605. 585. <
5923 4 10 -5 7 0 100618. 104368. 588. o
5923 3 10 5 -7 0 100618. 104368. 588. o
5923 2 -10 5 -7 0 100618. 104368. 588. o
5923 1 -10 -5 7 0 100618. 104368. 588. o
5924 3 10 5 -7 1 495. 919. 592. <
5924 1 -10 -5 7 -1 495. 919. 592. <
5925 3 11 5 -7 -1 320. 408. 292. <
5925 1 -11 -5 7 1 320. 408. 292. <
5926 4 11 -5 7 0 18813. 19567. 294. o
5926 3 11 5 -7 0 18813. 19567. 294. o
5926 2 -11 5 -7 0 18813. 19567. 294. o
5926 1 -11 -5 7 0 18813. 19567. 294. o
5927 3 10 -6 -7 1 237. 340. 207. <
5927 1 -10 6 7 -1 237. 340. 207. <
5928 4 10 6 7 0 5533. 5710. 208. o
5928 3 10 -6 -7 0 5533. 5710. 208. o
5928 2 -10 -6 -7 0 5533. 5710. 208. o
5928 1 -10 6 7 0 5533. 5710. 208. o
5929 3 10 -6 -7 -1 225. 71. 209. <
5929 1 -10 6 7 1 225. 71. 209. <
5930 3 9 -6 -7 1 365. 355. 194. <
5930 1 -9 6 7 -1 365. 355. 194. <
5931 4 9 6 7 0 11231. 10470. 191. o
5931 3 9 -6 -7 0 11231. 10470. 191. o
5931 2 -9 -6 -7 0 11231. 10470. 191. o
5931 1 -9 6 7 0 11231. 10470. 191. o
5932 3 9 -6 -7 -1 689. 665. 189. o
5932 1 -9 6 7 1 689. 665. 189. o
5933 3 8 -6 -7 1 1982. 1818. 156. o
5933 1 -8 6 7 -1 1982. 1818. 156. o
5934 4 8 6 7 0 3056. 2516. 155. o
5934 3 8 -6 -7 0 3056. 2516. 155. o
5934 2 -8 -6 -7 0 3056. 2516. 155. o
5934 1 -8 6 7 0 3056. 2516. 155. o
5935 3 8 -6 -7 -1 1566. 1208. 154. o
5935 1 -8 6 7 1 1566. 1208. 154. o
5936 3 7 -6 -7 1 508. 595. 181. o
5936 1 -7 6 7 -1 508. 595. 181. o
5937 4 7 6 7 0 14667. 12075. 181. o
5937 3 7 -6 -7 0 14667. 12075. 181. o
5937 2 -7 -6 -7 0 14667. 12075. 181. o
5937 1 -7 6 7 0 14667. 12075. 181. o
5938 3 7 -6 -7 -1 51. 44. 181. <
5938 1 -7 6 7 1 51. 44. 181. <
5939 3 6 -6 -7 1 240. 357. 322. <
5939 1 -6 6 7 -1 240. 357. 322. <
5940 4 6 6 7 0 72416. 63098. 324. o
5940 3 6 -6 -7 0 72416. 63098. 324. o
5940 2 -6 -6 -7 0 72416. 63098. 324. o
5940 1 -6 6 7 0 72416. 63098. 324. o
5941 3 6 -6 -7 -1 294. 415. 325. <
5941 1 -6 6 7 1 294. 415. 325. <
5942 3 5 -6 -7 1 58. 28. 202. <
5942 1 -5 6 7 -1 58. 28. 202. <
5943 4 5 6 7 0 35012. 32292. 252. o
5943 3 5 -6 -7 0 35012. 32292. 252. o
5943 2 -5 -6 -7 0 35012. 32292. 252. o
5943 1 -5 6 7 0 35012. 32292. 252. o
5944 3 5 -6 -7 -1 182. 147. 209. <
5944 1 -5 6 7 1 182. 147. 209. <
5945 3 4 -6 -7 1 154. 309. 142. o
5945 1 -4 6 7 -1 154. 309. 142. o
5946 4 4 6 7 0 2443. 2769. 145. o
5946 3 4 -6 -7 0 2443. 2769. 145. o
5946 2 -4 -6 -7 0 2443. 2769. 145. o
5946 1 -4 6 7 0 2443. 2769. 145. o
5947 3 4 -6 -7 -1 1469. 1449. 140. o
5947 1 -4 6 7 1 1469. 1449. 140. o
5948 3 3 -6 -7 1 336. 316. 51. o
5948 1 -3 6 7 -1 336. 316. 51. o
5949 4 3 6 7 0 23356. 23880. 225. o
5949 3 3 -6 -7 0 23356. 23880. 225. o
5949 2 -3 -6 -7 0 23356. 23880. 225. o
5949 1 -3 6 7 0 23356. 23880. 225. o
5950 3 3 -6 -7 -1 80. 157. 49. o
5950 1 -3 6 7 1 80. 157. 49. o
5951 3 2 -6 -7 1 247. 55. 245. <
5951 1 -2 6 7 -1 247. 55. 245. <
5952 4 2 6 7 0 70484. 70058. 307. o
5952 3 2 -6 -7 0 70484. 70058. 307. o
5952 2 -2 -6 -7 0 70484. 70058. 307. o
5952 1 -2 6 7 0 70484. 70058. 307. o
5953 3 2 -6 -7 -1 212. 109. 240. <
5953 1 -2 6 7 1 212. 109. 240. <
5954 3 1 -6 -7 1 160. 179. 48. o
5954 1 -1 6 7 -1 160. 179. 48. o
5955 4 1 6 7 0 45167. 43946. 297. o
5955 3 1 -6 -7 0 45167. 43946. 297. o
5955 2 -1 -6 -7 0 45167. 43946. 297. o
5955 1 -1 6 7 0 45167. 43946. 297. o
5956 3 1 -6 -7 -1 444. 469. 57. o
5956 1 -1 6 7 1 444. 469. 57. o
5957 3 0 -6 -7 1 289. 229. 83. o
5957 1 0 6 7 -1 289. 229. 83. o
5958 4 0 6 7 0 834. 752. 86. o
5958 3 0 -6 -7 0 834. 752. 86. o
5958 2 0 -6 -7 0 834. 752. 86. o
5958 1 0 6 7 0 834. 752. 86. o
5959 3 0 -6 -7 -1 466. 346. 83. o
5959 1 0 6 7 1 466. 346. 83. o
5960 3 -1 -6 -7 1 365. 521. 191. o
5960 1 1 6 7 -1 365. 521. 191. o
5961 4 -1 6 7 0 45524. 45258. 239. o
5961 3 -1 -6 -7 0 45524. 45258. 239. o
5961 2 1 -6 -7 0 45524. 45258. 239. o
5961 1 1 6 7 0 45524. 45258. 239. o
5962 3 -1 -6 -7 -1 246. 263. 189. <
5962 1 1 6 7 1 246. 263. 189. <
5963 3 -2 -6 -7 1 535. 677. 231. o
5963 1 2 6 7 -1 535. 677. 231. o
5964 4 -2 6 7 0 71352. 72654. 297. o
5964 3 -2 -6 -7 0 71352. 72654. 297. o
5964 2 2 -6 -7 0 71352. 72654. 297. o
5964 1 2 6 7 0 71352. 72654. 297. o
5965 3 -2 -6 -7 -1 790. 626. 230. o
5965 1 2 6 7 1 790. 626. 230. o
5966 3 -3 -6 -7 1 59. 125. 281. <
5966 1 3 6 7 -1 59. 125. 281. <
5967 4 -3 6 7 0 23361. 27062. 281. o
5967 3 -3 -6 -7 0 23361. 27062. 281. o
5967 2 3 -6 -7 0 23361. 27062. 281. o
5967 1 3 6 7 0 23361. 27062. 281. o
5968 3 -3 -6 -7 -1 22. 98. 280. <
5968 1 3 6 7 1 22. 98. 280. <
5969 3 -4 -6 -7 1 89. 50. 173. <
5969 1 4 6 7 -1 89. 50. 173. <
5970 4 -4 6 7 0 2350. 3618. 173. o
5970 3 -4 -6 -7 0 2350. 3618. 173. o
5970 2 4 -6 -7 0 2350. 3618. 173. o
5970 1 4 6 7 0 2350. 3618. 173. o
5971 3 -4 -6 -7 -1 723. 436. 173. o
5971 1 4 6 7 1 723. 436. 173. o
5972 3 -5 -6 -7 1 398. 700. 323. o
5972 1 5 6 7 -1 398. 700. 323. o
5973 4 -5 6 7 0 35382. 39400. 323. o
5973 3 -5 -6 -7 0 35382. 39400. 323. o
5973 2 5 -6 -7 0 35382. 39400. 323. o
5973 1 5 6 7 0 35382. 39400. 323. o
5974 3 -5 -6 -7 -1 283. 139. 324. <
5974 1 5 6 7 1 283. 139. 324. <
5975 3 -6 -6 -7 1 46. 1648. 444. o
5975 1 6 6 7 -1 46. 1648. 444. o
5976 3 6 6 -7 -1 46. -29. 49. <
5976 1 -6 -6 7 1 46. -29. 49. <
5977 4 -6 6 7 0 75028. 81314. 445. o
5977 3 -6 -6 -7 0 75028. 81314. 445. o
5977 2 6 -6 -7 0 75028. 81314. 445. o
5977 1 6 6 7 0 75028. 81314. 445. o
5978 3 -6 -6 -7 -1 68. 399. 446. <
5978 1 6 6 7 1 68. 399. 446. <
5979 3 -7 -6 -7 1 19. 400. 233. <
5979 1 7 6 7 -1 19. 400. 233. <
5980 4 -7 6 7 0 14400. 15893. 233. o
5980 3 -7 -6 -7 0 14400. 15893. 233. o
5980 2 7 -6 -7 0 14400. 15893. 233. o
5980 1 7 6 7 0 14400. 15893. 233. o
5981 3 -7 -6 -7 -1 463. 417. 233. <
5981 1 7 6 7 1 463. 417. 233. <
5982 3 9 -7 -7 1 469. 539. 226. o
5982 1 -9 7 7 -1 469. 539. 226. o
5983 4 9 7 7 0 20772. 18316. 224. o
5983 3 9 -7 -7 0 20772. 18316. 224. o
5983 2 -9 -7 -7 0 20772. 18316. 224. o
5983 1 -9 7 7 0 20772. 18316. 224. o
5984 3 9 -7 -7 -1 30. 54. 223. <
5984 1 -9 7 7 1 30. 54. 223. <
5985 3 8 -7 -7 1 230. 210. 176. <
5985 1 -8 7 7 -1 230. 210. 176. <
5986 4 8 7 7 0 9839. 8859. 175. o
5986 3 8 -7 -7 0 9839. 8859. 175. o
5986 2 -8 -7 -7 0 9839. 8859. 175. o
5986 1 -8 7 7 0 9839. 8859. 175. o
5987 3 8 -7 -7 -1 40. 94. 175. <
5987 1 -8 7 7 1 40. 94. 175. <
5988 3 7 -7 -7 1 1104. 943. 145. o
5988 1 -7 7 7 -1 1104. 943. 145. o
5989 4 7 7 7 0 2829. 2261. 145. o
5989 3 7 -7 -7 0 2829. 2261. 145. o
5989 2 -7 -7 -7 0 2829. 2261. 145. o
5989 1 -7 7 7 0 2829. 2261. 145. o
5990 3 7 -7 -7 -1 949. 720. 145. o
5990 1 -7 7 7 1 949. 720. 145. o
5991 3 6 -7 -7 1 148. 74. 142. <
5991 1 -6 7 7 -1 148. 74. 142. <
5992 4 6 7 7 0 12984. 11862. 175. o
5992 3 6 -7 -7 0 12984. 11862. 175. o
5992 2 -6 -7 -7 0 12984. 11862. 175. o
5992 1 -6 7 7 0 12984. 11862. 175. o
5993 3 6 -7 -7 -1 526. 404. 143. o
5993 1 -6 7 7 1 526. 404. 143. o
5994 3 5 -7 -7 1 147. 68. 169. <
5994 1 -5 7 7 -1 147. 68. 169. <
5995 4 5 7 7 0 24385. 22428. 215. o
5995 3 5 -7 -7 0 24385. 22428. 215. o
5995 2 -5 -7 -7 0 24385. 22428. 215. o
5995 1 -5 7 7 0 24385. 22428. 215. o
5996 3 5 -7 -7 -1 72. 67. 170. <
5996 1 -5 7 7 1 72. 67. 170. <
5997 3 4 -7 -7 1 81. 52. 135. <
5997 1 -4 7 7 -1 81. 52. 135. <
5998 4 4 7 7 0 735. 1398. 142. o
5998 3 4 -7 -7 0 735. 1398. 142. o
5998 2 -4 -7 -7 0 735. 1398. 142. o
5998 1 -4 7 7 0 735. 1398. 142. o
5999 3 4 -7 -7 -1 290. 190. 135. <
5999 1 -4 7 7 1 290. 190. 135. <
6000 3 3 -7 -7 1 790. 769. 81. o
6000 1 -3 7 7 -1 790. 769. 81. o
6001 4 3 7 7 0 2386. 2381. 101. o
6001 3 3 -7 -7 0 2386. 2381. 101. o
6001 2 -3 -7 -7 0 2386. 2381. 101. o
6001 1 -3 7 7 0 2386. 2381. 101. o
6002 3 3 -7 -7 -1 944. 948. 85. o
6002 1 -3 7 7 1 944. 948. 85. o
6003 3 2 -7 -7 1 91. 464. 310. <
6003 1 -2 7 7 -1 91. 464. 310. <
6004 4 2 7 7 0 113449. 107137. 402. o
6004 3 2 -7 -7 0 113449. 107137. 402. o
6004 2 -2 -7 -7 0 113449. 107137. 402. o
6004 1 -2 7 7 0 113449. 107137. 402. o
6005 3 2 -7 -7 -1 15. 132. 303. <
6005 1 -2 7 7 1 15. 132. 303. <
6006 3 1 -7 -7 1 968. 628. 132. o
6006 1 -1 7 7 -1 968. 628. 132. o
6007 4 1 7 7 0 7337. 7591. 146. o
6007 3 1 -7 -7 0 7337. 7591. 146. o
6007 2 -1 -7 -7 0 7337. 7591. 146. o
6007 1 -1 7 7 0 7337. 7591. 146. o
6008 3 1 -7 -7 -1 649. 683. 130. o
6008 1 -1 7 7 1 649. 683. 130. o
6009 3 0 -7 -7 1 9. 29. 85. <
6009 1 0 7 7 -1 9. 29. 85. <
6010 4 0 7 7 0 209. 577. 90. o
6010 3 0 -7 -7 0 209. 577. 90. o
6010 2 0 -7 -7 0 209. 577. 90. o
6010 1 0 7 7 0 209. 577. 90. o
6011 3 0 -7 -7 -1 77. 4. 85. <
6011 1 0 7 7 1 77. 4. 85. <
6012 3 -1 -7 -7 1 133. 111. 108. <
6012 1 1 7 7 -1 133. 111. 108. <
6013 4 -1 7 7 0 7554. 7645. 129. o
6013 3 -1 -7 -7 0 7554. 7645. 129. o
6013 2 1 -7 -7 0 7554. 7645. 129. o
6013 1 1 7 7 0 7554. 7645. 129. o
6014 3 -1 -7 -7 -1 7. 24. 107. <
6014 1 1 7 7 1 7. 24. 107. <
6015 3 -2 -7 -7 1 366. 358. 398. <
6015 1 2 7 7 -1 366. 358. 398. <
6016 4 -2 7 7 0 114337. 117475. 403. o
6016 3 -2 -7 -7 0 114337. 117475. 403. o
6016 2 2 -7 -7 0 114337. 117475. 403. o
6016 1 2 7 7 0 114337. 117475. 403. o
6017 3 -2 -7 -7 -1 241. 166. 408. <
6017 1 2 7 7 1 241. 166. 408. <
6018 3 -3 -7 -7 1 257. 334. 95. o
6018 1 3 7 7 -1 257. 334. 95. o
6019 4 -3 7 7 0 2442. 2631. 109. o
6019 3 -3 -7 -7 0 2442. 2631. 109. o
6019 2 3 -7 -7 0 2442. 2631. 109. o
6019 1 3 7 7 0 2442. 2631. 109. o
6020 3 -3 -7 -7 -1 87. 88. 93. <
6020 1 3 7 7 1 87. 88. 93. <
6021 3 -4 -7 -7 1 79. 353. 159. o
6021 1 4 7 7 -1 79. 353. 159. o
6022 4 -4 7 7 0 729. 352. 159. o
6022 3 -4 -7 -7 0 729. 352. 159. o
6022 2 4 -7 -7 0 729. 352. 159. o
6022 1 4 7 7 0 729. 352. 159. o
6023 3 -4 -7 -7 -1 27. 352. 159. o
6023 1 4 7 7 1 27. 352. 159. o
6024 3 -5 -7 -7 1 34. 351. 300. <
6024 1 5 7 7 -1 34. 351. 300. <
6025 4 -5 7 7 0 24809. 28815. 300. o
6025 3 -5 -7 -7 0 24809. 28815. 300. o
6025 2 5 -7 -7 0 24809. 28815. 300. o
6025 1 5 7 7 0 24809. 28815. 300. o
6026 3 -5 -7 -7 -1 100. 225. 300. <
6026 1 5 7 7 1 100. 225. 300. <
6027 3 -6 -7 -7 1 8. 318. 249. <
6027 1 6 7 7 -1 8. 318. 249. <
6028 4 -6 7 7 0 13282. 15900. 249. o
6028 3 -6 -7 -7 0 13282. 15900. 249. o
6028 2 6 -7 -7 0 13282. 15900. 249. o
6028 1 6 7 7 0 13282. 15900. 249. o
6029 3 -6 -7 -7 -1 464. 417. 250. <
6029 1 6 7 7 1 464. 417. 250. <
6030 3 9 -8 -7 1 513. 177. 392. <
6030 1 -9 8 7 -1 513. 177. 392. <
6031 4 9 8 7 0 35942. 27753. 387. o
6031 3 9 -8 -7 0 35942. 27753. 387. o
6031 2 -9 -8 -7 0 35942. 27753. 387. o
6031 1 -9 8 7 0 35942. 27753. 387. o
6032 3 9 -8 -7 -1 204. 157. 381. <
6032 1 -9 8 7 1 204. 157. 381. <
6033 3 8 -8 -7 1 761. 1035. 193. o
6033 1 -8 8 7 -1 761. 1035. 193. o
6034 4 8 8 7 0 12392. 10657. 193. o
6034 3 8 -8 -7 0 12392. 10657. 193. o
6034 2 -8 -8 -7 0 12392. 10657. 193. o
6034 1 -8 8 7 0 12392. 10657. 193. o
6035 3 8 -8 -7 -1 196. 87. 193. <
6035 1 -8 8 7 1 196. 87. 193. <
6036 3 7 -8 -7 1 9. 57. 262. <
6036 1 -7 8 7 -1 9. 57. 262. <
6037 4 7 8 7 0 10135. 11131. 264. o
6037 3 7 -8 -7 0 10135. 11131. 264. o
6037 2 -7 -8 -7 0 10135. 11131. 264. o
6037 1 -7 8 7 0 10135. 11131. 264. o
6038 3 7 -8 -7 -1 311. 141. 266. <
6038 1 -7 8 7 1 311. 141. 266. <
6039 3 6 -8 -7 1 1451. 1092. 165. o
6039 1 -6 8 7 -1 1451. 1092. 165. o
6040 4 6 8 7 0 3828. 3802. 166. o
6040 3 6 -8 -7 0 3828. 3802. 166. o
6040 2 -6 -8 -7 0 3828. 3802. 166. o
6040 1 -6 8 7 0 3828. 3802. 166. o
6041 3 6 -8 -7 -1 1578. 1473. 166. o
6041 1 -6 8 7 1 1578. 1473. 166. o
6042 3 5 -8 -7 1 121. 170. 65. o
6042 1 -5 8 7 -1 121. 170. 65. o
6043 4 5 8 7 0 2582. 3198. 160. o
6043 3 5 -8 -7 0 2582. 3198. 160. o
6043 2 -5 -8 -7 0 2582. 3198. 160. o
6043 1 -5 8 7 0 2582. 3198. 160. o
6044 3 5 -8 -7 -1 6. 27. 162. <
6044 1 -5 8 7 1 6. 27. 162. <
6045 3 4 -8 -7 1 102. 91. 195. <
6045 1 -4 8 7 -1 102. 91. 195. <
6046 4 4 8 7 0 14185. 12963. 197. o
6046 3 4 -8 -7 0 14185. 12963. 197. o
6046 2 -4 -8 -7 0 14185. 12963. 197. o
6046 1 -4 8 7 0 14185. 12963. 197. o
6047 3 4 -8 -7 -1 11. 24. 198. <
6047 1 -4 8 7 1 11. 24. 198. <
6048 3 3 -8 -7 1 114. 1. 197. <
6048 1 -3 8 7 -1 114. 1. 197. <
6049 4 3 8 7 0 10898. 11142. 196. o
6049 3 3 -8 -7 0 10898. 11142. 196. o
6049 2 -3 -8 -7 0 10898. 11142. 196. o
6049 1 -3 8 7 0 10898. 11142. 196. o
6050 3 3 -8 -7 -1 356. 77. 165. <
6050 1 -3 8 7 1 356. 77. 165. <
6051 3 2 -8 -7 1 124. 50. 56. <
6051 1 -2 8 7 -1 124. 50. 56. <
6052 4 2 8 7 0 5799. 5824. 148. o
6052 3 2 -8 -7 0 5799. 5824. 148. o
6052 2 -2 -8 -7 0 5799. 5824. 148. o
6052 1 -2 8 7 0 5799. 5824. 148. o
6053 3 2 -8 -7 -1 29. 61. 59. <
6053 1 -2 8 7 1 29. 61. 59. <
6054 3 1 -8 -7 1 192. 138. 128. <
6054 1 -1 8 7 -1 192. 138. 128. <
6055 4 1 8 7 0 10075. 9985. 156. o
6055 3 1 -8 -7 0 10075. 9985. 156. o
6055 2 -1 -8 -7 0 10075. 9985. 156. o
6055 1 -1 8 7 0 10075. 9985. 156. o
6056 3 1 -8 -7 -1 1015. 826. 134. o
6056 1 -1 8 7 1 1015. 826. 134. o
6057 3 0 -8 -7 1 1163. 1085. 113. o
6057 1 0 8 7 -1 1163. 1085. 113. o
6058 4 0 8 7 0 2130. 1700. 128. o
6058 3 0 -8 -7 0 2130. 1700. 128. o
6058 2 0 -8 -7 0 2130. 1700. 128. o
6058 1 0 8 7 0 2130. 1700. 128. o
6059 3 0 -8 -7 -1 818. 1030. 128. o
6059 1 0 8 7 1 818. 1030. 128. o
6060 3 -1 -8 -7 1 79. 60. 170. <
6060 1 1 8 7 -1 79. 60. 170. <
6061 4 -1 8 7 0 10011. 10544. 172. o
6061 3 -1 -8 -7 0 10011. 10544. 172. o
6061 2 1 -8 -7 0 10011. 10544. 172. o
6061 1 1 8 7 0 10011. 10544. 172. o
6062 3 -1 -8 -7 -1 148. 74. 174. <
6062 1 1 8 7 1 148. 74. 174. <
6063 3 -2 -8 -7 1 135. 169. 116. <
6063 1 2 8 7 -1 135. 169. 116. <
6064 4 -2 8 7 0 6023. 6379. 138. o
6064 3 -2 -8 -7 0 6023. 6379. 138. o
6064 2 2 -8 -7 0 6023. 6379. 138. o
6064 1 2 8 7 0 6023. 6379. 138. o
6065 3 -2 -8 -7 -1 101. 182. 115. <
6065 1 2 8 7 1 101. 182. 115. <
6066 3 -3 -8 -7 1 26. 55. 128. <
6066 1 3 8 7 -1 26. 55. 128. <
6067 4 -3 8 7 0 10848. 11510. 158. o
6067 3 -3 -8 -7 0 10848. 11510. 158. o
6067 2 3 -8 -7 0 10848. 11510. 158. o
6067 1 3 8 7 0 10848. 11510. 158. o
6068 3 -3 -8 -7 -1 283. 64. 127. <
6068 1 3 8 7 1 283. 64. 127. <
6069 3 -4 -8 -7 1 435. 474. 262. <
6069 1 4 8 7 -1 435. 474. 262. <
6070 4 -4 8 7 0 14397. 16391. 262. o
6070 3 -4 -8 -7 0 14397. 16391. 262. o
6070 2 4 -8 -7 0 14397. 16391. 262. o
6070 1 4 8 7 0 14397. 16391. 262. o
6071 3 -4 -8 -7 -1 250. 304. 262. <
6071 1 4 8 7 1 250. 304. 262. <
6072 3 -5 -8 -7 1 277. 259. 191. <
6072 1 5 8 7 -1 277. 259. 191. <
6073 4 -5 8 7 0 2654. 3565. 191. o
6073 3 -5 -8 -7 0 2654. 3565. 191. o
6073 2 5 -8 -7 0 2654. 3565. 191. o
6073 1 5 8 7 0 2654. 3565. 191. o
6074 3 -5 -8 -7 -1 457. 281. 191. <
6074 1 5 8 7 1 457. 281. 191. <
6075 3 7 -9 -7 1 36. 87. 326. <
6075 1 -7 9 7 -1 36. 87. 326. <
6076 4 7 9 7 0 17364. 19604. 328. o
6076 3 7 -9 -7 0 17364. 19604. 328. o
6076 2 -7 -9 -7 0 17364. 19604. 328. o
6076 1 -7 9 7 0 17364. 19604. 328. o
6077 3 7 -9 -7 -1 278. 333. 330. <
6077 1 -7 9 7 1 278. 333. 330. <
6078 3 6 -9 -7 1 1056. 749. 265. o
6078 1 -6 9 7 -1 1056. 749. 265. o
6079 4 6 9 7 0 9167. 9970. 267. o
6079 3 6 -9 -7 0 9167. 9970. 267. o
6079 2 -6 -9 -7 0 9167. 9970. 267. o
6079 1 -6 9 7 0 9167. 9970. 267. o
6080 3 6 -9 -7 -1 463. 263. 269. <
6080 1 -6 9 7 1 463. 263. 269. <
6081 3 5 -9 -7 1 744. 482. 231. o
6081 1 -5 9 7 -1 744. 482. 231. o
6082 4 5 9 7 0 23792. 21366. 232. o
6082 3 5 -9 -7 0 23792. 21366. 232. o
6082 2 -5 -9 -7 0 23792. 21366. 232. o
6082 1 -5 9 7 0 23792. 21366. 232. o
6083 3 5 -9 -7 -1 182. 61. 233. <
6083 1 -5 9 7 1 182. 61. 233. <
6084 3 4 -9 -7 1 52. 41. 111. <
6084 1 -4 9 7 -1 52. 41. 111. <
6085 4 4 9 7 0 300. 467. 116. o
6085 3 4 -9 -7 0 300. 467. 116. o
6085 2 -4 -9 -7 0 300. 467. 116. o
6085 1 -4 9 7 0 300. 467. 116. o
6086 3 4 -9 -7 -1 129. 146. 112. <
6086 1 -4 9 7 1 129. 146. 112. <
6087 3 3 -9 -7 1 675. 662. 191. o
6087 1 -3 9 7 -1 675. 662. 191. o
6088 4 3 9 7 0 25170. 24890. 241. o
6088 3 3 -9 -7 0 25170. 24890. 241. o
6088 2 -3 -9 -7 0 25170. 24890. 241. o
6088 1 -3 9 7 0 25170. 24890. 241. o
6089 3 3 -9 -7 -1 986. 765. 191. o
6089 1 -3 9 7 1 986. 765. 191. o
6090 3 2 -9 -7 1 103. 139. 197. <
6090 1 -2 9 7 -1 103. 139. 197. <
6091 4 2 9 7 0 23530. 23286. 244. o
6091 3 2 -9 -7 0 23530. 23286. 244. o
6091 2 -2 -9 -7 0 23530. 23286. 244. o
6091 1 -2 9 7 0 23530. 23286. 244. o
6092 3 2 -9 -7 -1 91. 131. 244. <
6092 1 -2 9 7 1 91. 131. 244. <
6093 3 1 -9 -7 1 14. 11. 166. <
6093 1 -1 9 7 -1 14. 11. 166. <
6094 4 1 9 7 0 5098. 5838. 166. o
6094 3 1 -9 -7 0 5098. 5838. 166. o
6094 2 -1 -9 -7 0 5098. 5838. 166. o
6094 1 -1 9 7 0 5098. 5838. 166. o
6095 3 1 -9 -7 -1 51. 24. 167. <
6095 1 -1 9 7 1 51. 24. 167. <
6096 3 0 -9 -7 1 454. 810. 310. o
6096 1 0 9 7 -1 454. 810. 310. o
6097 4 0 9 7 0 45815. 47584. 312. o
6097 3 0 -9 -7 0 45815. 47584. 312. o
6097 2 0 -9 -7 0 45815. 47584. 312. o
6097 1 0 9 7 0 45815. 47584. 312. o
6098 3 0 -9 -7 -1 256. 174. 315. <
6098 1 0 9 7 1 256. 174. 315. <
6099 3 -1 -9 -7 1 444. 505. 130. o
6099 1 1 9 7 -1 444. 505. 130. o
6100 4 -1 9 7 0 5076. 5977. 161. o
6100 3 -1 -9 -7 0 5076. 5977. 161. o
6100 2 1 -9 -7 0 5076. 5977. 161. o
6100 1 1 9 7 0 5076. 5977. 161. o
6101 3 -1 -9 -7 -1 595. 579. 158. o
6101 1 1 9 7 1 595. 579. 158. o
6102 3 -2 -9 -7 1 377. 327. 171. <
6102 1 2 9 7 -1 377. 327. 171. <
6103 4 -2 9 7 0 23883. 23995. 218. o
6103 3 -2 -9 -7 0 23883. 23995. 218. o
6103 2 2 -9 -7 0 23883. 23995. 218. o
6103 1 2 9 7 0 23883. 23995. 218. o
6104 3 -2 -9 -7 -1 536. 563. 170. o
6104 1 2 9 7 1 536. 563. 170. o
6105 3 -3 -9 -7 1 290. 104. 172. <
6105 1 3 9 7 -1 290. 104. 172. <
6106 4 -3 9 7 0 25803. 26195. 219. o
6106 3 -3 -9 -7 0 25803. 26195. 219. o
6106 2 3 -9 -7 0 25803. 26195. 219. o
6106 1 3 9 7 0 25803. 26195. 219. o
6107 3 -3 -9 -7 -1 96. 122. 172. <
6107 1 3 9 7 1 96. 122. 172. <
6108 3 -4 -9 -7 1 32. 35. 176. <
6108 1 4 9 7 -1 32. 35. 176. <
6109 4 -4 9 7 0 301. 736. 176. o
6109 3 -4 -9 -7 0 301. 736. 176. o
6109 2 4 -9 -7 0 301. 736. 176. o
6109 1 4 9 7 0 301. 736. 176. o
6110 3 -4 -9 -7 -1 29. 92. 176. <
6110 1 4 9 7 1 29. 92. 176. <
6111 3 6 -10 -7 1 36. 21. 256. <
6111 1 -6 10 7 -1 36. 21. 256. <
6112 4 6 10 7 0 5752. 5700. 259. o
6112 3 6 -10 -7 0 5752. 5700. 259. o
6112 2 -6 -10 -7 0 5752. 5700. 259. o
6112 1 -6 10 7 0 5752. 5700. 259. o
6113 3 6 -10 -7 -1 44. 31. 261. <
6113 1 -6 10 7 1 44. 31. 261. <
6114 3 5 -10 -7 1 217. 124. 392. <
6114 1 -5 10 7 -1 217. 124. 392. <
6115 4 5 10 7 0 80235. 75427. 394. o
6115 3 5 -10 -7 0 80235. 75427. 394. o
6115 2 -5 -10 -7 0 80235. 75427. 394. o
6115 1 -5 10 7 0 80235. 75427. 394. o
6116 3 5 -10 -7 -1 181. 231. 395. <
6116 1 -5 10 7 1 181. 231. 395. <
6117 3 4 -10 -7 1 171. 67. 423. <
6117 1 -4 10 7 -1 171. 67. 423. <
6118 4 4 10 7 0 35433. 39182. 428. o
6118 3 4 -10 -7 0 35433. 39182. 428. o
6118 2 -4 -10 -7 0 35433. 39182. 428. o
6118 1 -4 10 7 0 35433. 39182. 428. o
6119 3 4 -10 -7 -1 322. 194. 433. <
6119 1 -4 10 7 1 322. 194. 433. <
6120 3 3 -10 -7 1 289. 223. 198. <
6120 1 -3 10 7 -1 289. 223. 198. <
6121 4 3 10 7 0 12698. 12315. 199. o
6121 3 3 -10 -7 0 12698. 12315. 199. o
6121 2 -3 -10 -7 0 12698. 12315. 199. o
6121 1 -3 10 7 0 12698. 12315. 199. o
6122 3 3 -10 -7 -1 357. 42. 200. <
6122 1 -3 10 7 1 357. 42. 200. <
6123 3 2 -10 -7 1 670. 521. 175. o
6123 1 -2 10 7 -1 670. 521. 175. o
6124 4 2 10 7 0 4816. 5021. 176. o
6124 3 2 -10 -7 0 4816. 5021. 176. o
6124 2 -2 -10 -7 0 4816. 5021. 176. o
6124 1 -2 10 7 0 4816. 5021. 176. o
6125 3 2 -10 -7 -1 65. 4. 177. <
6125 1 -2 10 7 1 65. 4. 177. <
6126 3 1 -10 -7 1 681. 333. 261. <
6126 1 -1 10 7 -1 681. 333. 261. <
6127 4 1 10 7 0 21634. 22833. 263. o
6127 3 1 -10 -7 0 21634. 22833. 263. o
6127 2 -1 -10 -7 0 21634. 22833. 263. o
6127 1 -1 10 7 0 21634. 22833. 263. o
6128 3 1 -10 -7 -1 679. 296. 259. <
6128 1 -1 10 7 1 679. 296. 259. <
6129 3 0 -10 -7 1 171. 71. 157. <
6129 1 0 10 7 -1 171. 71. 157. <
6130 4 0 10 7 0 873. 304. 154. <
6130 3 0 -10 -7 0 873. 304. 154. <
6130 2 0 -10 -7 0 873. 304. 154. <
6130 1 0 10 7 0 873. 304. 154. <
6131 3 0 -10 -7 -1 234. 63. 150. <
6131 1 0 10 7 1 234. 63. 150. <
6132 3 -1 -10 -7 1 139. 83. 237. <
6132 1 1 10 7 -1 139. 83. 237. <
6133 4 -1 10 7 0 21711. 21403. 233. o
6133 3 -1 -10 -7 0 21711. 21403. 233. o
6133 2 1 -10 -7 0 21711. 21403. 233. o
6133 1 1 10 7 0 21711. 21403. 233. o
6134 3 -1 -10 -7 -1 258. 166. 230. <
6134 1 1 10 7 1 258. 166. 230. <
6135 3 -2 -10 -7 1 105. 164. 146. <
6135 1 2 10 7 -1 105. 164. 146. <
6136 4 -2 10 7 0 4787. 4919. 144. o
6136 3 -2 -10 -7 0 4787. 4919. 144. o
6136 2 2 -10 -7 0 4787. 4919. 144. o
6136 1 2 10 7 0 4787. 4919. 144. o
6137 3 -2 -10 -7 -1 621. 700. 123. o
6137 1 2 10 7 1 621. 700. 123. o
6138 3 -3 -10 -7 1 406. 358. 294. <
6138 1 3 10 7 -1 406. 358. 294. <
6139 4 -3 10 7 0 12580. 15173. 294. o
6139 3 -3 -10 -7 0 12580. 15173. 294. o
6139 2 3 -10 -7 0 12580. 15173. 294. o
6139 1 3 10 7 0 12580. 15173. 294. o
6140 3 -3 -10 -7 -1 37. -12. 294. <
6140 1 3 10 7 1 37. -12. 294. <
6141 3 5 -11 -7 1 1123. 675. 201. o
6141 1 -5 11 7 -1 1123. 675. 201. o
6142 4 5 11 7 0 13594. 13821. 202. o
6142 3 5 -11 -7 0 13594. 13821. 202. o
6142 2 -5 -11 -7 0 13594. 13821. 202. o
6142 1 -5 11 7 0 13594. 13821. 202. o
6143 3 4 -11 -7 1 51. 28. 284. <
6143 1 -4 11 7 -1 51. 28. 284. <
6144 4 4 11 7 0 7028. 7907. 288. o
6144 3 4 -11 -7 0 7028. 7907. 288. o
6144 2 -4 -11 -7 0 7028. 7907. 288. o
6144 1 -4 11 7 0 7028. 7907. 288. o
6145 3 4 -11 -7 -1 272. 185. 292. <
6145 1 -4 11 7 1 272. 185. 292. <
6146 3 3 -11 -7 1 1140. 556. 252. o
6146 1 -3 11 7 -1 1140. 556. 252. o
6147 4 3 11 7 0 20576. 20855. 253. o
6147 3 3 -11 -7 0 20576. 20855. 253. o
6147 2 -3 -11 -7 0 20576. 20855. 253. o
6147 1 -3 11 7 0 20576. 20855. 253. o
6148 3 3 -11 -7 -1 227. 162. 255. <
6148 1 -3 11 7 1 227. 162. 255. <
6149 3 2 -11 -7 1 622. 367. 161. o
6149 1 -2 11 7 -1 622. 367. 161. o
6150 4 2 11 7 0 250. 366. 155. o
6150 3 2 -11 -7 0 250. 366. 155. o
6150 2 -2 -11 -7 0 250. 366. 155. o
6150 1 -2 11 7 0 250. 366. 155. o
6151 3 2 -11 -7 -1 31. 15. 152. <
6151 1 -2 11 7 1 31. 15. 152. <
6152 3 1 -11 -7 1 468. 519. 175. o
6152 1 -1 11 7 -1 468. 519. 175. o
6153 4 1 11 7 0 3335. 3270. 171. o
6153 3 1 -11 -7 0 3335. 3270. 171. o
6153 2 -1 -11 -7 0 3335. 3270. 171. o
6153 1 -1 11 7 0 3335. 3270. 171. o
6154 3 1 -11 -7 -1 1247. 1257. 167. o
6154 1 -1 11 7 1 1247. 1257. 167. o
6155 3 0 -11 -7 1 10. 849. 182. o
6155 1 0 11 7 -1 10. 849. 182. o
6156 4 0 11 7 0 4752. 3644. 178. o
6156 3 0 -11 -7 0 4752. 3644. 178. o
6156 2 0 -11 -7 0 4752. 3644. 178. o
6156 1 0 11 7 0 4752. 3644. 178. o
6157 3 0 -11 -7 -1 185. 802. 174. o
6157 1 0 11 7 1 185. 802. 174. o
6158 3 -1 -11 -7 1 89. 26. 173. <
6158 1 1 11 7 -1 89. 26. 173. <
6159 4 -1 11 7 0 3403. 3387. 171. o
6159 3 -1 -11 -7 0 3403. 3387. 171. o
6159 2 1 -11 -7 0 3403. 3387. 171. o
6159 1 1 11 7 0 3403. 3387. 171. o
6160 3 -1 -11 -7 -1 218. 364. 169. o
6160 1 1 11 7 1 218. 364. 169. o
6161 3 -2 -11 -7 1 30. 49. 227. <
6161 1 2 11 7 -1 30. 49. 227. <
6162 4 -2 11 7 0 263. 852. 227. o
6162 3 -2 -11 -7 0 263. 852. 227. o
6162 2 2 -11 -7 0 263. 852. 227. o
6162 1 2 11 7 0 263. 852. 227. o
6163 3 -2 -11 -7 -1 172. 184. 227. <
6163 1 2 11 7 1 172. 184. 227. <
6164 3 -3 -11 -7 1 210. 222. 288. <
6164 1 3 11 7 -1 210. 222. 288. <
6165 4 -3 11 7 0 21044. 20247. 282. o
6165 3 -3 -11 -7 0 21044. 20247. 282. o
6165 2 3 -11 -7 0 21044. 20247. 282. o
6165 1 3 11 7 0 21044. 20247. 282. o
6166 3 -3 -11 -7 -1 64. 27. 277. <
6166 1 3 11 7 1 64. 27. 277. <
6167 3 2 -12 -7 1 22. -26. 62. <
6167 1 -2 12 7 -1 22. -26. 62. <
6168 3 1 -12 -7 1 3. 32. 149. <
6168 1 -1 12 7 -1 3. 32. 149. <
6169 4 1 12 7 0 5607. 5638. 146. o
6169 3 1 -12 -7 0 5607. 5638. 146. o
6169 2 -1 -12 -7 0 5607. 5638. 146. o
6169 1 -1 12 7 0 5607. 5638. 146. o
6170 3 0 -12 -7 1 440. 522. 114. o
6170 1 0 12 7 -1 440. 522. 114. o
6171 4 0 12 7 0 658. 648. 112. o
6171 3 0 -12 -7 0 658. 648. 112. o
6171 2 0 -12 -7 0 658. 648. 112. o
6171 1 0 12 7 0 658. 648. 112. o
6172 3 -1 -12 -7 1 234. 36. 149. <
6172 1 1 12 7 -1 234. 36. 149. <
6173 4 -1 12 7 0 5474. 5794. 147. o
6173 3 -1 -12 -7 0 5474. 5794. 147. o
6173 2 1 -12 -7 0 5474. 5794. 147. o
6173 1 1 12 7 0 5474. 5794. 147. o
6174 3 -2 -12 -7 1 18. 89. 74. <
6174 1 2 12 7 -1 18. 89. 74. <
6175 3 -1 0 -8 1 98. 60. 117. <
6175 1 1 0 8 -1 98. 60. 117. <
6176 3 1 0 -8 -1 96. 25. 129. <
6176 1 -1 0 8 1 96. 25. 129. <
6177 4 -1 0 8 0 647. 412. 116. o
6177 3 -1 0 -8 0 647. 412. 116. o
6177 2 1 0 -8 0 647. 412. 116. o
6177 1 1 0 8 0 647. 412. 116. o
6178 4 1 0 8 0 653. 301. 131. o
6178 3 1 0 -8 0 653. 301. 131. o
6178 2 -1 0 -8 0 653. 301. 131. o
6178 1 -1 0 8 0 653. 301. 131. o
6179 3 -1 0 -8 -1 142. 87. 115. <
6179 1 1 0 8 1 142. 87. 115. <
6180 3 1 0 -8 1 144. 27. 132. <
6180 1 -1 0 8 -1 144. 27. 132. <
6181 3 -2 0 -8 1 177. 265. 433. <
6181 1 2 0 8 -1 177. 265. 433. <
6182 3 2 0 -8 -1 176. 224. 227. <
6182 1 -2 0 8 1 176. 224. 227. <
6183 4 -2 0 8 0 91680. 93980. 430. o
6183 3 -2 0 -8 0 91680. 93980. 430. o
6183 2 2 0 -8 0 91680. 93980. 430. o
6183 1 2 0 8 0 91680. 93980. 430. o
6184 4 2 0 8 0 91587. 96728. 325. o
6184 3 2 0 -8 0 91587. 96728. 325. o
6184 2 -2 0 -8 0 91587. 96728. 325. o
6184 1 -2 0 8 0 91587. 96728. 325. o
6185 3 -2 0 -8 -1 139. 226. 426. <
6185 1 2 0 8 1 139. 226. 426. <
6186 3 2 0 -8 1 143. 147. 238. <
6186 1 -2 0 8 -1 143. 147. 238. <
6187 3 -3 0 -8 1 93. 15. 131. <
6187 1 3 0 8 -1 93. 15. 131. <
6188 3 3 0 -8 -1 91. 16. 79. <
6188 1 -3 0 8 1 91. 16. 79. <
6189 4 -3 0 8 0 400. 311. 130. o
6189 3 -3 0 -8 0 400. 311. 130. o
6189 2 3 0 -8 0 400. 311. 130. o
6189 1 3 0 8 0 400. 311. 130. o
6190 4 3 0 8 0 399. 683. 81. o
6190 3 3 0 -8 0 399. 683. 81. o
6190 2 -3 0 -8 0 399. 683. 81. o
6190 1 -3 0 8 0 399. 683. 81. o
6191 3 -3 0 -8 -1 117. 54. 129. <
6191 1 3 0 8 1 117. 54. 129. <
6192 3 3 0 -8 1 114. 36. 82. <
6192 1 -3 0 8 -1 114. 36. 82. <
6193 3 -4 0 -8 1 59. 36. 201. <
6193 1 4 0 8 -1 59. 36. 201. <
6194 3 4 0 -8 -1 58. 37. 30. <
6194 1 -4 0 8 1 58. 37. 30. <
6195 4 -4 0 8 0 10951. 11569. 201. o
6195 3 -4 0 -8 0 10951. 11569. 201. o
6195 2 4 0 -8 0 10951. 11569. 201. o
6195 1 4 0 8 0 10951. 11569. 201. o
6196 4 4 0 8 0 10950. 11512. 125. o
6196 3 4 0 -8 0 10950. 11512. 125. o
6196 2 -4 0 -8 0 10950. 11512. 125. o
6196 1 -4 0 8 0 10950. 11512. 125. o
6197 3 -4 0 -8 -1 69. 28. 200. <
6197 1 4 0 8 1 69. 28. 200. <
6198 3 4 0 -8 1 69. 15. 32. <
6198 1 -4 0 8 -1 69. 15. 32. <
6199 3 -5 0 -8 1 1237. 1038. 195. o
6199 1 5 0 8 -1 1237. 1038. 195. o
6200 3 5 0 -8 -1 1238. 1360. 65. o
6200 1 -5 0 8 1 1238. 1360. 65. o
6201 4 -5 0 8 0 5033. 6268. 194. o
6201 3 -5 0 -8 0 5033. 6268. 194. o
6201 2 5 0 -8 0 5033. 6268. 194. o
6201 1 5 0 8 0 5033. 6268. 194. o
6202 4 5 0 8 0 5030. 4568. 93. o
6202 3 5 0 -8 0 5030. 4568. 93. o
6202 2 -5 0 -8 0 5030. 4568. 93. o
6202 1 -5 0 8 0 5030. 4568. 93. o
6203 3 -5 0 -8 -1 990. 926. 194. o
6203 1 5 0 8 1 990. 926. 194. o
6204 3 5 0 -8 1 994. 1149. 61. o
6204 1 -5 0 8 -1 994. 1149. 61. o
6205 3 -6 0 -8 1 17. 118. 462. <
6205 1 6 0 8 -1 17. 118. 462. <
6206 3 6 0 -8 -1 16. 32. 37. <
6206 1 -6 0 8 1 16. 32. 37. <
6207 4 -6 0 8 0 80406. 85215. 460. o
6207 3 -6 0 -8 0 80406. 85215. 460. o
6207 2 6 0 -8 0 80406. 85215. 460. o
6207 1 6 0 8 0 80406. 85215. 460. o
6208 4 6 0 8 0 80715. 79445. 365. o
6208 3 6 0 -8 0 80715. 79445. 365. o
6208 2 -6 0 -8 0 80715. 79445. 365. o
6208 1 -6 0 8 0 80715. 79445. 365. o
6209 3 -6 0 -8 -1 352. 394. 458. <
6209 1 6 0 8 1 352. 394. 458. <
6210 3 6 0 -8 1 340. 303. 47. o
6210 1 -6 0 8 -1 340. 303. 47. o
6211 3 -7 0 -8 1 344. 311. 178. <
6211 1 7 0 8 -1 344. 311. 178. <
6212 3 7 0 -8 -1 340. 35. 111. <
6212 1 -7 0 8 1 340. 35. 111. <
6213 4 -7 0 8 0 1282. 1308. 178. o
6213 3 -7 0 -8 0 1282. 1308. 178. o
6213 2 7 0 -8 0 1282. 1308. 178. o
6213 1 7 0 8 0 1282. 1308. 178. o
6214 4 7 0 8 0 1286. 1118. 111. o
6214 3 7 0 -8 0 1286. 1118. 111. o
6214 2 -7 0 -8 0 1286. 1118. 111. o
6214 1 -7 0 8 0 1286. 1118. 111. o
6215 3 -7 0 -8 -1 202. 193. 177. <
6215 1 7 0 8 1 202. 193. 177. <
6216 3 7 0 -8 1 204. 111. 112. <
6216 1 -7 0 8 -1 204. 111. 112. <
6217 3 -8 0 -8 1 1236. 947. 385. o
6217 1 8 0 8 -1 1236. 947. 385. o
6218 3 8 0 -8 -1 1233. 915. 299. o
6218 1 -8 0 8 1 1233. 915. 299. o
6219 4 -8 0 8 0 41453. 44936. 384. o
6219 3 -8 0 -8 0 41453. 44936. 384. o
6219 2 8 0 -8 0 41453. 44936. 384. o
6219 1 8 0 8 0 41453. 44936. 384. o
6220 4 8 0 8 0 41750. 39228. 299. o
6220 3 8 0 -8 0 41750. 39228. 299. o
6220 2 -8 0 -8 0 41750. 39228. 299. o
6220 1 -8 0 8 0 41750. 39228. 299. o
6221 3 -8 0 -8 -1 98. 179. 383. <
6221 1 8 0 8 1 98. 179. 383. <
6222 3 8 0 -8 1 96. 332. 300. <
6222 1 -8 0 8 -1 96. 332. 300. <
6223 3 -9 0 -8 1 449. 287. 197. <
6223 1 9 0 8 -1 449. 287. 197. <
6224 3 9 0 -8 -1 446. 296. 135. o
6224 1 -9 0 8 1 446. 296. 135. o
6225 4 -9 0 8 0 1480. 1459. 197. o
6225 3 -9 0 -8 0 1480. 1459. 197. o
6225 2 9 0 -8 0 1480. 1459. 197. o
6225 1 9 0 8 0 1480. 1459. 197. o
6226 4 9 0 8 0 1478. 1362. 135. o
6226 3 9 0 -8 0 1478. 1362. 135. o
6226 2 -9 0 -8 0 1478. 1362. 135. o
6226 1 -9 0 8 0 1478. 1362. 135. o
6227 3 -9 0 -8 -1 318. 258. 196. <
6227 1 9 0 8 1 318. 258. 196. <
6228 3 9 0 -8 1 317. 238. 135. <
6228 1 -9 0 8 -1 317. 238. 135. <
6229 3 -10 0 -8 1 155. 116. 574. <
6229 1 10 0 8 -1 155. 116. 574. <
6230 3 10 0 -8 -1 153. 1659. 486. o
6230 1 -10 0 8 1 153. 1659. 486. o
6231 4 -10 0 8 0 100063. 100525. 568. o
6231 3 -10 0 -8 0 100063. 100525. 568. o
6231 2 10 0 -8 0 100063. 100525. 568. o
6231 1 10 0 8 0 100063. 100525. 568. o
6232 4 10 0 8 0 100182. 89568. 487. o
6232 3 10 0 -8 0 100182. 89568. 487. o
6232 2 -10 0 -8 0 100182. 89568. 487. o
6232 1 -10 0 8 0 100182. 89568. 487. o
6233 3 -10 0 -8 -1 443. 339. 563. <
6233 1 10 0 8 1 443. 339. 563. <
6234 3 10 0 -8 1 427. 1384. 488. o
6234 1 -10 0 8 -1 427. 1384. 488. o
6235 3 -11 0 -8 1 25. 11. 189. <
6235 1 11 0 8 -1 25. 11. 189. <
6236 3 11 0 -8 -1 27. 84. 147. <
6236 1 -11 0 8 1 27. 84. 147. <
6237 4 -11 0 8 0 190. -137. 188. <
6237 3 -11 0 -8 0 190. -137. 188. <
6237 2 11 0 -8 0 190. -137. 188. <
6237 1 11 0 8 0 190. -137. 188. <
6238 4 11 0 8 0 190. 85. 147. <
6238 3 11 0 -8 0 190. 85. 147. <
6238 2 -11 0 -8 0 190. 85. 147. <
6238 1 -11 0 8 0 190. 85. 147. <
6239 3 -11 0 -8 -1 41. 12. 187. <
6239 1 11 0 8 1 41. 12. 187. <
6240 3 11 0 -8 1 41. 85. 148. <
6240 1 -11 0 8 -1 41. 85. 148. <
6241 3 11 -1 -8 1 288. 295. 208. <
6241 1 -11 1 8 -1 288. 295. 208. <
6242 3 -11 1 -8 -1 289. 2810. 255. o
6242 1 11 -1 8 1 289. 2810. 255. o
6243 4 11 1 8 0 8834. 8772. 208. o
6243 3 11 -1 -8 0 8834. 8772. 208. o
6243 2 -11 -1 -8 0 8834. 8772. 208. o
6243 1 -11 1 8 0 8834. 8772. 208. o
6244 4 -11 -1 8 0 8391. 2830. 256. o
6244 3 -11 1 -8 0 8391. 2830. 256. o
6244 2 11 1 -8 0 8391. 2830. 256. o
6244 1 11 -1 8 0 8391. 2830. 256. o
6245 3 11 -1 -8 -1 73. 258. 208. <
6245 1 -11 1 8 1 73. 258. 208. <
6246 3 -11 1 -8 1 75. 2850. 258. o
6246 1 11 -1 8 -1 75. 2850. 258. o
6247 3 10 -1 -8 1 45. 1069. 403. o
6247 1 -10 1 8 -1 45. 1069. 403. o
6248 3 -10 1 -8 -1 49. 196. 474. <
6248 1 10 -1 8 1 49. 196. 474. <
6249 4 10 1 8 0 65049. 58495. 402. o
6249 3 10 -1 -8 0 65049. 58495. 402. o
6249 2 -10 -1 -8 0 65049. 58495. 402. o
6249 1 -10 1 8 0 65049. 58495. 402. o
6250 4 -10 -1 8 0 64730. 65890. 478. o
6250 3 -10 1 -8 0 64730. 65890. 478. o
6250 2 10 1 -8 0 64730. 65890. 478. o
6250 1 10 -1 8 0 64730. 65890. 478. o
6251 3 10 -1 -8 -1 196. 1506. 403. o
6251 1 -10 1 8 1 196. 1506. 403. o
6252 3 -10 1 -8 1 204. 233. 483. <
6252 1 10 -1 8 -1 204. 233. 483. <
6253 3 9 -1 -8 1 99. 42. 135. <
6253 1 -9 1 8 -1 99. 42. 135. <
6254 4 9 1 8 0 1208. 1141. 135. o
6254 3 9 -1 -8 0 1208. 1141. 135. o
6254 2 -9 -1 -8 0 1208. 1141. 135. o
6254 1 -9 1 8 0 1208. 1141. 135. o
6255 3 9 -1 -8 -1 450. 338. 135. o
6255 1 -9 1 8 1 450. 338. 135. o
6256 3 8 -1 -8 1 668. 443. 153. o
6256 1 -8 1 8 -1 668. 443. 153. o
6257 4 8 1 8 0 6152. 5734. 153. o
6257 3 8 -1 -8 0 6152. 5734. 153. o
6257 2 -8 -1 -8 0 6152. 5734. 153. o
6257 1 -8 1 8 0 6152. 5734. 153. o
6258 3 8 -1 -8 -1 319. 79. 154. <
6258 1 -8 1 8 1 319. 79. 154. <
6259 3 7 -1 -8 1 711. 705. 68. o
6259 1 -7 1 8 -1 711. 705. 68. o
6260 3 -7 1 -8 -1 706. 646. 497. <
6260 1 7 -1 8 1 706. 646. 497. <
6261 4 7 1 8 0 84590. 84610. 392. o
6261 3 7 -1 -8 0 84590. 84610. 392. o
6261 2 -7 -1 -8 0 84590. 84610. 392. o
6261 1 -7 1 8 0 84590. 84610. 392. o
6262 4 -7 -1 8 0 84732. 89192. 499. o
6262 3 -7 1 -8 0 84732. 89192. 499. o
6262 2 7 1 -8 0 84732. 89192. 499. o
6262 1 7 -1 8 0 84732. 89192. 499. o
6263 3 7 -1 -8 -1 111. 67. 42. <
6263 1 -7 1 8 1 111. 67. 42. <
6264 3 -7 1 -8 1 114. 170. 501. <
6264 1 7 -1 8 -1 114. 170. 501. <
6265 3 6 -1 -8 1 340. 384. 49. o
6265 1 -6 1 8 -1 340. 384. 49. o
6266 3 -6 1 -8 -1 331. 454. 395. <
6266 1 6 -1 8 1 331. 454. 395. <
6267 4 6 1 8 0 51994. 52715. 294. o
6267 3 6 -1 -8 0 51994. 52715. 294. o
6267 2 -6 -1 -8 0 51994. 52715. 294. o
6267 1 -6 1 8 0 51994. 52715. 294. o
6268 4 -6 -1 8 0 52532. 56573. 397. o
6268 3 -6 1 -8 0 52532. 56573. 397. o
6268 2 6 1 -8 0 52532. 56573. 397. o
6268 1 6 -1 8 0 52532. 56573. 397. o
6269 3 6 -1 -8 -1 637. 711. 61. o
6269 1 -6 1 8 1 637. 711. 61. o
6270 3 -6 1 -8 1 630. 663. 399. <
6270 1 6 -1 8 -1 630. 663. 399. <
6271 3 5 -1 -8 1 1. 5. 33. <
6271 1 -5 1 8 -1 1. 5. 33. <
6272 3 -5 1 -8 -1 1. 24. 238. <
6272 1 5 -1 8 1 1. 24. 238. <
6273 4 5 1 8 0 15798. 16274. 160. o
6273 3 5 -1 -8 0 15798. 16274. 160. o
6273 2 -5 -1 -8 0 15798. 16274. 160. o
6273 1 -5 1 8 0 15798. 16274. 160. o
6274 4 -5 -1 8 0 15734. 16225. 239. o
6274 3 -5 1 -8 0 15734. 16225. 239. o
6274 2 5 1 -8 0 15734. 16225. 239. o
6274 1 5 -1 8 0 15734. 16225. 239. o
6275 3 5 -1 -8 -1 217. 249. 40. o
6275 1 -5 1 8 1 217. 249. 40. o
6276 3 -5 1 -8 1 212. 339. 240. <
6276 1 5 -1 8 -1 212. 339. 240. <
6277 3 4 -1 -8 1 806. 633. 129. o
6277 1 -4 1 8 -1 806. 633. 129. o
6278 3 -4 1 -8 -1 806. 866. 223. o
6278 1 4 -1 8 1 806. 866. 223. o
6279 4 4 1 8 0 12121. 12056. 139. o
6279 3 4 -1 -8 0 12121. 12056. 139. o
6279 2 -4 -1 -8 0 12121. 12056. 139. o
6279 1 -4 1 8 0 12121. 12056. 139. o
6280 4 -4 -1 8 0 13323. 14286. 224. o
6280 3 -4 1 -8 0 13323. 14286. 224. o
6280 2 4 1 -8 0 13323. 14286. 224. o
6280 1 4 -1 8 0 13323. 14286. 224. o
6281 3 4 -1 -8 -1 558. 459. 123. o
6281 1 -4 1 8 1 558. 459. 123. o
6282 3 -4 1 -8 1 563. 547. 226. o
6282 1 4 -1 8 -1 563. 547. 226. o
6283 3 3 -1 -8 1 30. 108. 290. <
6283 1 -3 1 8 -1 30. 108. 290. <
6284 3 -3 1 -8 -1 27. 109. 3257. <
6284 1 3 -1 8 1 27. 109. 3257. <
6285 4 3 1 8 0 134575. 133722. 510. o
6285 3 3 -1 -8 0 134575. 133722. 510. o
6285 2 -3 -1 -8 0 134575. 133722. 510. o
6285 1 -3 1 8 0 134575. 133722. 510. o
6286 4 -3 -1 8 0 133859. 136957. 3274. o
6286 3 -3 1 -8 0 133859. 136957. 3274. o
6286 2 3 1 -8 0 133859. 136957. 3274. o
6286 1 3 -1 8 0 133859. 136957. 3274. o
6287 3 3 -1 -8 -1 64. 192. 281. <
6287 1 -3 1 8 1 64. 192. 281. <
6288 3 -3 1 -8 1 60. 93. 3294. <
6288 1 3 -1 8 -1 60. 93. 3294. <
6289 3 2 -1 -8 1 58. 84. 280. <
6289 1 -2 1 8 -1 58. 84. 280. <
6290 3 -2 1 -8 -1 57. 92. 809. <
6290 1 2 -1 8 1 57. 92. 809. <
6291 4 2 1 8 0 121298. 127925. 440. o
6291 3 2 -1 -8 0 121298. 127925. 440. o
6291 2 -2 -1 -8 0 121298. 127925. 440. o
6291 1 -2 1 8 0 121298. 127925. 440. o
6292 4 -2 -1 8 0 121513. 123828. 814. o
6292 3 -2 1 -8 0 121513. 123828. 814. o
6292 2 2 1 -8 0 121513. 123828. 814. o
6292 1 2 -1 8 0 121513. 123828. 814. o
6293 3 2 -1 -8 -1 38. 73. 274. <
6293 1 -2 1 8 1 38. 73. 274. <
6294 3 -2 1 -8 1 38. 97. 820. <
6294 1 2 -1 8 -1 38. 97. 820. <
6295 3 1 -1 -8 1 376. 324. 113. o
6295 1 -1 1 8 -1 376. 324. 113. o
6296 3 -1 1 -8 -1 376. 250. 203. <
6296 1 1 -1 8 1 376. 250. 203. <
6297 4 1 1 8 0 15871. 15959. 219. o
6297 3 1 -1 -8 0 15871. 15959. 219. o
6297 2 -1 -1 -8 0 15871. 15959. 219. o
6297 1 -1 1 8 0 15871. 15959. 219. o
6298 4 -1 -1 8 0 15840. 16418. 205. o
6298 3 -1 1 -8 0 15840. 16418. 205. o
6298 2 1 1 -8 0 15840. 16418. 205. o
6298 1 1 -1 8 0 15840. 16418. 205. o
6299 3 1 -1 -8 -1 389. 240. 216. <
6299 1 -1 1 8 1 389. 240. 216. <
6300 3 -1 1 -8 1 387. 278. 206. <
6300 1 1 -1 8 -1 387. 278. 206. <
6301 3 0 -1 -8 1 81. 23. 118. <
6301 1 0 1 8 -1 81. 23. 118. <
6302 3 0 1 -8 -1 79. 27. 112. <
6302 1 0 -1 8 1 79. 27. 112. <
6303 4 0 1 8 0 132. 456. 117. o
6303 3 0 -1 -8 0 132. 456. 117. o
6303 2 0 -1 -8 0 132. 456. 117. o
6303 1 0 1 8 0 132. 456. 117. o
6304 4 0 -1 8 0 124. 308. 113. o
6304 3 0 1 -8 0 124. 308. 113. o
6304 2 0 1 -8 0 124. 308. 113. o
6304 1 0 -1 8 0 124. 308. 113. o
6305 3 0 -1 -8 -1 67. 12. 116. <
6305 1 0 1 8 1 67. 12. 116. <
6306 3 0 1 -8 1 68. 59. 114. <
6306 1 0 -1 8 -1 68. 59. 114. <
6307 3 -1 -1 -8 1 16. 9. 199. <
6307 1 1 1 8 -1 16. 9. 199. <
6308 3 1 1 -8 -1 16. 20. 208. <
6308 1 -1 -1 8 1 16. 20. 208. <
6309 4 -1 1 8 0 15415. 15514. 198. o
6309 3 -1 -1 -8 0 15415. 15514. 198. o
6309 2 1 -1 -8 0 15415. 15514. 198. o
6309 1 1 1 8 0 15415. 15514. 198. o
6310 4 1 -1 8 0 15384. 17735. 210. o
6310 3 1 1 -8 0 15384. 17735. 210. o
6310 2 -1 1 -8 0 15384. 17735. 210. o
6310 1 -1 -1 8 0 15384. 17735. 210. o
6311 3 -1 -1 -8 -1 3. 37. 196. <
6311 1 1 1 8 1 3. 37. 196. <
6312 3 1 1 -8 1 3. 29. 214. <
6312 1 -1 -1 8 -1 3. 29. 214. <
6313 3 -2 -1 -8 1 1. 125. 490. <
6313 1 2 1 8 -1 1. 125. 490. <
6314 3 2 1 -8 -1 1. 93. 244. <
6314 1 -2 -1 8 1 1. 93. 244. <
6315 4 -2 1 8 0 122651. 121445. 487. o
6315 3 -2 -1 -8 0 122651. 121445. 487. o
6315 2 2 -1 -8 0 122651. 121445. 487. o
6315 1 2 1 8 0 122651. 121445. 487. o
6316 4 2 -1 8 0 123047. 121688. 495. o
6316 3 2 1 -8 0 123047. 121688. 495. o
6316 2 -2 1 -8 0 123047. 121688. 495. o
6316 1 -2 -1 8 0 123047. 121688. 495. o
6317 3 -2 -1 -8 -1 98. 221. 484. <
6317 1 2 1 8 1 98. 221. 484. <
6318 3 2 1 -8 1 100. 105. 505. <
6318 1 -2 -1 8 -1 100. 105. 505. <
6319 3 -3 -1 -8 1 60. 122. 867. <
6319 1 3 1 8 -1 60. 122. 867. <
6320 3 3 1 -8 -1 60. 39. 29. <
6320 1 -3 -1 8 1 60. 39. 29. <
6321 4 -3 1 8 0 133950. 137092. 862. o
6321 3 -3 -1 -8 0 133950. 137092. 862. o
6321 2 3 -1 -8 0 133950. 137092. 862. o
6321 1 3 1 8 0 133950. 137092. 862. o
6322 4 3 -1 8 0 133241. 142542. 733. o
6322 3 3 1 -8 0 133241. 142542. 733. o
6322 2 -3 1 -8 0 133241. 142542. 733. o
6322 1 -3 -1 8 0 133241. 142542. 733. o
6323 3 -3 -1 -8 -1 226. 150. 856. <
6323 1 3 1 8 1 226. 150. 856. <
6324 3 3 1 -8 1 226. 197. 34. o
6324 1 -3 -1 8 -1 226. 197. 34. o
6325 3 -4 -1 -8 1 120. 75. 212. <
6325 1 4 1 8 -1 120. 75. 212. <
6326 3 4 1 -8 -1 122. 80. 149. <
6326 1 -4 -1 8 1 122. 80. 149. <
6327 4 -4 1 8 0 12055. 13443. 210. o
6327 3 -4 -1 -8 0 12055. 13443. 210. o
6327 2 4 -1 -8 0 12055. 13443. 210. o
6327 1 4 1 8 0 12055. 13443. 210. o
6328 4 4 -1 8 0 12928. 14057. 149. o
6328 3 4 1 -8 0 12928. 14057. 149. o
6328 2 -4 1 -8 0 12928. 14057. 149. o
6328 1 -4 -1 8 0 12928. 14057. 149. o
6329 3 -4 -1 -8 -1 57. 28. 208. <
6329 1 4 1 8 1 57. 28. 208. <
6330 3 4 1 -8 1 57. 7. 33. <
6330 1 -4 -1 8 -1 57. 7. 33. <
6331 3 -5 -1 -8 1 324. 267. 236. <
6331 1 5 1 8 -1 324. 267. 236. <
6332 3 5 1 -8 -1 322. 140. 169. <
6332 1 -5 -1 8 1 322. 140. 169. <
6333 4 -5 1 8 0 15705. 16954. 235. o
6333 3 -5 -1 -8 0 15705. 16954. 235. o
6333 2 5 -1 -8 0 15705. 16954. 235. o
6333 1 5 1 8 0 15705. 16954. 235. o
6334 4 5 -1 8 0 15679. 15059. 169. o
6334 3 5 1 -8 0 15679. 15059. 169. o
6334 2 -5 1 -8 0 15679. 15059. 169. o
6334 1 -5 -1 8 0 15679. 15059. 169. o
6335 3 -5 -1 -8 -1 57. 27. 233. <
6335 1 5 1 8 1 57. 27. 233. <
6336 3 5 1 -8 1 63. 26. 170. <
6336 1 -5 -1 8 -1 63. 26. 170. <
6337 3 -6 -1 -8 1 262. 297. 378. <
6337 1 6 1 8 -1 262. 297. 378. <
6338 3 6 1 -8 -1 264. 58. 294. <
6338 1 -6 -1 8 1 264. 58. 294. <
6339 4 -6 1 8 0 53006. 55380. 377. o
6339 3 -6 -1 -8 0 53006. 55380. 377. o
6339 2 6 -1 -8 0 53006. 55380. 377. o
6339 1 6 1 8 0 53006. 55380. 377. o
6340 4 6 -1 8 0 53175. 49450. 295. o
6340 3 6 1 -8 0 53175. 49450. 295. o
6340 2 -6 1 -8 0 53175. 49450. 295. o
6340 1 -6 -1 8 0 53175. 49450. 295. o
6341 3 -6 -1 -8 -1 89. 134. 376. <
6341 1 6 1 8 1 89. 134. 376. <
6342 3 6 1 -8 1 91. 153. 296. <
6342 1 -6 -1 8 -1 91. 153. 296. <
6343 3 -7 -1 -8 1 621. 493. 488. <
6343 1 7 1 8 -1 621. 493. 488. <
6344 3 7 1 -8 -1 614. 171. 388. <
6344 1 -7 -1 8 1 614. 171. 388. <
6345 4 -7 1 8 0 84807. 91838. 488. o
6345 3 -7 -1 -8 0 84807. 91838. 488. o
6345 2 7 -1 -8 0 84807. 91838. 488. o
6345 1 7 1 8 0 84807. 91838. 488. o
6346 4 7 -1 8 0 85045. 79692. 389. o
6346 3 7 1 -8 0 85045. 79692. 389. o
6346 2 -7 1 -8 0 85045. 79692. 389. o
6346 1 -7 -1 8 0 85045. 79692. 389. o
6347 3 -7 -1 -8 -1 19. 70. 487. <
6347 1 7 1 8 1 19. 70. 487. <
6348 3 7 1 -8 1 17. 206. 391. <
6348 1 -7 -1 8 -1 17. 206. 391. <
6349 3 -8 -1 -8 1 285. 218. 204. <
6349 1 8 1 8 -1 285. 218. 204. <
6350 3 8 1 -8 -1 278. 177. 158. <
6350 1 -8 -1 8 1 278. 177. 158. <
6351 4 -8 1 8 0 6262. 6308. 204. o
6351 3 -8 -1 -8 0 6262. 6308. 204. o
6351 2 8 -1 -8 0 6262. 6308. 204. o
6351 1 8 1 8 0 6262. 6308. 204. o
6352 4 8 -1 8 0 6305. 5930. 158. o
6352 3 8 1 -8 0 6305. 5930. 158. o
6352 2 -8 1 -8 0 6305. 5930. 158. o
6352 1 -8 -1 8 0 6305. 5930. 158. o
6353 3 -8 -1 -8 -1 229. 161. 204. <
6353 1 8 1 8 1 229. 161. 204. <
6354 3 8 1 -8 1 227. 168. 159. <
6354 1 -8 -1 8 -1 227. 168. 159. <
6355 3 -9 -1 -8 1 335. 198. 188. <
6355 1 9 1 8 -1 335. 198. 188. <
6356 3 9 1 -8 -1 337. 211. 137. <
6356 1 -9 -1 8 1 337. 211. 137. <
6357 4 -9 1 8 0 1144. 1311. 188. o
6357 3 -9 -1 -8 0 1144. 1311. 188. o
6357 2 9 -1 -8 0 1144. 1311. 188. o
6357 1 9 1 8 0 1144. 1311. 188. o
6358 4 9 -1 8 0 1120. 1348. 138. o
6358 3 9 1 -8 0 1120. 1348. 138. o
6358 2 -9 1 -8 0 1120. 1348. 138. o
6358 1 -9 -1 8 0 1120. 1348. 138. o
6359 3 -9 -1 -8 -1 85. 117. 187. <
6359 1 9 1 8 1 85. 117. 187. <
6360 3 9 1 -8 1 88. 68. 138. <
6360 1 -9 -1 8 -1 88. 68. 138. <
6361 3 -10 -1 -8 1 16. 47. 478. <
6361 1 10 1 8 -1 16. 47. 478. <
6362 3 10 1 -8 -1 16. 572. 406. <
6362 1 -10 -1 8 1 16. 572. 406. <
6363 4 -10 1 8 0 64816. 69137. 475. o
6363 3 -10 -1 -8 0 64816. 69137. 475. o
6363 2 10 -1 -8 0 64816. 69137. 475. o
6363 1 10 1 8 0 64816. 69137. 475. o
6364 4 10 -1 8 0 64706. 60070. 407. o
6364 3 10 1 -8 0 64706. 60070. 407. o
6364 2 -10 1 -8 0 64706. 60070. 407. o
6364 1 -10 -1 8 0 64706. 60070. 407. o
6365 3 -10 -1 -8 -1 260. 184. 473. <
6365 1 10 1 8 1 260. 184. 473. <
6366 3 10 1 -8 1 258. 977. 408. o
6366 1 -10 -1 8 -1 258. 977. 408. o
6367 3 -11 -1 -8 1 433. 276. 250. <
6367 1 11 1 8 -1 433. 276. 250. <
6368 3 11 1 -8 -1 449. 386. 212. <
6368 1 -11 -1 8 1 449. 386. 212. <
6369 4 -11 1 8 0 8934. 9220. 248. o
6369 3 -11 -1 -8 0 8934. 9220. 248. o
6369 2 11 -1 -8 0 8934. 9220. 248. o
6369 1 11 1 8 0 8934. 9220. 248. o
6370 4 11 -1 8 0 8383. 8552. 213. o
6370 3 11 1 -8 0 8383. 8552. 213. o
6370 2 -11 1 -8 0 8383. 8552. 213. o
6370 1 -11 -1 8 0 8383. 8552. 213. o
6371 3 -11 -1 -8 -1 383. 238. 247. <
6371 1 11 1 8 1 383. 238. 247. <
6372 3 11 1 -8 1 386. 376. 214. <
6372 1 -11 -1 8 -1 386. 376. 214. <
6373 3 11 -2 -8 1 278. 692. 290. o
6373 1 -11 2 8 -1 278. 692. 290. o
6374 4 11 2 8 0 25582. 22568. 291. o
6374 3 11 -2 -8 0 25582. 22568. 291. o
6374 2 -11 -2 -8 0 25582. 22568. 291. o
6374 1 -11 2 8 0 25582. 22568. 291. o
6375 3 11 -2 -8 -1 20. 976. 291. o
6375 1 -11 2 8 1 20. 976. 291. o
6376 3 10 -2 -8 1 138. 1767. 465. o
6376 1 -10 2 8 -1 138. 1767. 465. o
6377 4 10 2 8 0 84627. 79233. 466. o
6377 3 10 -2 -8 0 84627. 79233. 466. o
6377 2 -10 -2 -8 0 84627. 79233. 466. o
6377 1 -10 2 8 0 84627. 79233. 466. o
6378 3 10 -2 -8 -1 405. 361. 468. <
6378 1 -10 2 8 1 405. 361. 468. <
6379 3 9 -2 -8 1 1035. 2245. 464. o
6379 1 -9 2 8 -1 1035. 2245. 464. o
6380 4 9 2 8 0 93460. 85437. 466. o
6380 3 9 -2 -8 0 93460. 85437. 466. o
6380 2 -9 -2 -8 0 93460. 85437. 466. o
6380 1 -9 2 8 0 93460. 85437. 466. o
6381 3 9 -2 -8 -1 235. 2068. 469. o
6381 1 -9 2 8 1 235. 2068. 469. o
6382 3 8 -2 -8 1 726. 657. 379. <
6382 1 -8 2 8 -1 726. 657. 379. <
6383 4 8 2 8 0 65589. 64274. 382. o
6383 3 8 -2 -8 0 65589. 64274. 382. o
6383 2 -8 -2 -8 0 65589. 64274. 382. o
6383 1 -8 2 8 0 65589. 64274. 382. o
6384 3 8 -2 -8 -1 500. 521. 385. <
6384 1 -8 2 8 1 500. 521. 385. <
6385 3 7 -2 -8 1 194. 246. 51. o
6385 1 -7 2 8 -1 194. 246. 51. o
6386 4 7 2 8 0 22923. 23373. 218. o
6386 3 7 -2 -8 0 22923. 23373. 218. o
6386 2 -7 -2 -8 0 22923. 23373. 218. o
6386 1 -7 2 8 0 22923. 23373. 218. o
6387 3 7 -2 -8 -1 143. 202. 49. o
6387 1 -7 2 8 1 143. 202. 49. o
6388 3 6 -2 -8 1 132. 167. 45. o
6388 1 -6 2 8 -1 132. 167. 45. o
6389 4 6 2 8 0 75957. 79298. 370. o
6389 3 6 -2 -8 0 75957. 79298. 370. o
6389 2 -6 -2 -8 0 75957. 79298. 370. o
6389 1 -6 2 8 0 75957. 79298. 370. o
6390 3 6 -2 -8 -1 98. 68. 41. <
6390 1 -6 2 8 1 98. 68. 41. <
6391 3 5 -2 -8 1 806. 686. 192. o
6391 1 -5 2 8 -1 806. 686. 192. o
6392 4 5 2 8 0 28430. 26187. 212. o
6392 3 5 -2 -8 0 28430. 26187. 212. o
6392 2 -5 -2 -8 0 28430. 26187. 212. o
6392 1 -5 2 8 0 28430. 26187. 212. o
6393 3 5 -2 -8 -1 1984. 1728. 181. o
6393 1 -5 2 8 1 1984. 1728. 181. o
6394 3 4 -2 -8 1 624. 609. 112. o
6394 1 -4 2 8 -1 624. 609. 112. o
6395 3 -4 2 -8 -1 629. 761. 168. o
6395 1 4 -2 8 1 629. 761. 168. o
6396 4 4 2 8 0 1985. 1813. 111. o
6396 3 4 -2 -8 0 1985. 1813. 111. o
6396 2 -4 -2 -8 0 1985. 1813. 111. o
6396 1 -4 2 8 0 1985. 1813. 111. o
6397 4 -4 -2 8 0 2061. 2009. 169. o
6397 3 -4 2 -8 0 2061. 2009. 169. o
6397 2 4 2 -8 0 2061. 2009. 169. o
6397 1 4 -2 8 0 2061. 2009. 169. o
6398 3 4 -2 -8 -1 1303. 1202. 109. o
6398 1 -4 2 8 1 1303. 1202. 109. o
6399 3 -4 2 -8 1 1310. 1433. 170. o
6399 1 4 -2 8 -1 1310. 1433. 170. o
6400 3 3 -2 -8 1 405. 328. 122. o
6400 1 -3 2 8 -1 405. 328. 122. o
6401 3 -3 2 -8 -1 407. 510. 201. o
6401 1 3 -2 8 1 407. 510. 201. o
6402 4 3 2 8 0 11260. 11526. 134. o
6402 3 3 -2 -8 0 11260. 11526. 134. o
6402 2 -3 -2 -8 0 11260. 11526. 134. o
6402 1 -3 2 8 0 11260. 11526. 134. o
6403 4 -3 -2 8 0 11121. 11023. 202. o
6403 3 -3 2 -8 0 11121. 11023. 202. o
6403 2 3 2 -8 0 11121. 11023. 202. o
6403 1 3 -2 8 0 11121. 11023. 202. o
6404 3 3 -2 -8 -1 289. 248. 118. o
6404 1 -3 2 8 1 289. 248. 118. o
6405 3 -3 2 -8 1 287. 417. 204. o
6405 1 3 -2 8 -1 287. 417. 204. o
6406 3 2 -2 -8 1 11. 49. 29. <
6406 1 -2 2 8 -1 11. 49. 29. <
6407 3 -2 2 -8 -1 11. 184. 1568. <
6407 1 2 -2 8 1 11. 184. 1568. <
6408 4 2 2 8 0 259222. 269943. 1288. o
6408 3 2 -2 -8 0 259222. 269943. 1288. o
6408 2 -2 -2 -8 0 259222. 269943. 1288. o
6408 1 -2 2 8 0 259222. 269943. 1288. o
6409 4 -2 -2 8 0 259246. 258535. 1579. o
6409 3 -2 2 -8 0 259246. 258535. 1579. o
6409 2 2 2 -8 0 259246. 258535. 1579. o
6409 1 2 -2 8 0 259246. 258535. 1579. o
6410 3 2 -2 -8 -1 57. 63. 27. o
6410 1 -2 2 8 1 57. 63. 27. o
6411 3 -2 2 -8 1 57. 163. 1590. <
6411 1 2 -2 8 -1 57. 163. 1590. <
6412 3 1 -2 -8 1 28. 68. 363. <
6412 1 -1 2 8 -1 28. 68. 363. <
6413 3 -1 2 -8 -1 28. 89. 634. <
6413 1 1 -2 8 1 28. 89. 634. <
6414 4 1 2 8 0 123368. 126476. 485. o
6414 3 1 -2 -8 0 123368. 126476. 485. o
6414 2 -1 -2 -8 0 123368. 126476. 485. o
6414 1 -1 2 8 0 123368. 126476. 485. o
6415 4 -1 -2 8 0 122854. 128798. 640. o
6415 3 -1 2 -8 0 122854. 128798. 640. o
6415 2 1 2 -8 0 122854. 128798. 640. o
6415 1 1 -2 8 0 122854. 128798. 640. o
6416 3 1 -2 -8 -1 76. 134. 352. <
6416 1 -1 2 8 1 76. 134. 352. <
6417 3 -1 2 -8 1 73. 122. 646. <
6417 1 1 -2 8 -1 73. 122. 646. <
6418 3 0 -2 -8 1 217. 276. 455. <
6418 1 0 2 8 -1 217. 276. 455. <
6419 4 0 2 8 0 91462. 95105. 451. o
6419 3 0 -2 -8 0 91462. 95105. 451. o
6419 2 0 -2 -8 0 91462. 95105. 451. o
6419 1 0 2 8 0 91462. 95105. 451. o
6420 3 0 -2 -8 -1 77. 175. 447. <
6420 1 0 2 8 1 77. 175. 447. <
6421 3 -1 -2 -8 1 5. 257. 513. <
6421 1 1 2 8 -1 5. 257. 513. <
6422 3 1 2 -8 -1 4. 27. 48. <
6422 1 -1 -2 8 1 4. 27. 48. <
6423 4 -1 2 8 0 124497. 126764. 509. o
6423 3 -1 -2 -8 0 124497. 126764. 509. o
6423 2 1 -2 -8 0 124497. 126764. 509. o
6423 1 1 2 8 0 124497. 126764. 509. o
6424 4 1 -2 8 0 123894. 122932. 578. o
6424 3 1 2 -8 0 123894. 122932. 578. o
6424 2 -1 2 -8 0 123894. 122932. 578. o
6424 1 -1 -2 8 0 123894. 122932. 578. o
6425 3 -1 -2 -8 -1 169. 347. 506. <
6425 1 1 2 8 1 169. 347. 506. <
6426 3 1 2 -8 1 164. 143. 56. o
6426 1 -1 -2 8 -1 164. 143. 56. o
6427 3 -2 -2 -8 1 18. 559. 1525. <
6427 1 2 2 8 -1 18. 559. 1525. <
6428 3 2 2 -8 -1 18. 476. 1264. <
6428 1 -2 -2 8 1 18. 476. 1264. <
6429 4 -2 2 8 0 259140. 255899. 1517. o
6429 3 -2 -2 -8 0 259140. 255899. 1517. o
6429 2 2 -2 -8 0 259140. 255899. 1517. o
6429 1 2 2 8 0 259140. 255899. 1517. o
6430 4 2 -2 8 0 259193. 253922. 1289. o
6430 3 2 2 -8 0 259193. 253922. 1289. o
6430 2 -2 2 -8 0 259193. 253922. 1289. o
6430 1 -2 -2 8 0 259193. 253922. 1289. o
6431 3 -2 -2 -8 -1 0. 479. 1509. <
6431 1 2 2 8 1 0. 479. 1509. <
6432 3 2 2 -8 1 0. 339. 1316. <
6432 1 -2 -2 8 -1 0. 339. 1316. <
6433 3 -3 -2 -8 1 108. 90. 195. <
6433 1 3 2 8 -1 108. 90. 195. <
6434 3 3 2 -8 -1 107. 87. 31. o
6434 1 -3 -2 8 1 107. 87. 31. o
6435 4 -3 2 8 0 10950. 11680. 194. o
6435 3 -3 -2 -8 0 10950. 11680. 194. o
6435 2 3 -2 -8 0 10950. 11680. 194. o
6435 1 3 2 8 0 10950. 11680. 194. o
6436 4 3 -2 8 0 10854. 11955. 124. o
6436 3 3 2 -8 0 10854. 11955. 124. o
6436 2 -3 2 -8 0 10854. 11955. 124. o
6436 1 -3 -2 8 0 10854. 11955. 124. o
6437 3 -3 -2 -8 -1 11. 38. 194. <
6437 1 3 2 8 1 11. 38. 194. <
6438 3 3 2 -8 1 11. 0. 30. <
6438 1 -3 -2 8 -1 11. 0. 30. <
6439 3 -4 -2 -8 1 803. 614. 155. o
6439 1 4 2 8 -1 803. 614. 155. o
6440 3 4 2 -8 -1 804. 703. 106. o
6440 1 -4 -2 8 1 804. 703. 106. o
6441 4 -4 2 8 0 1925. 2223. 154. o
6441 3 -4 -2 -8 0 1925. 2223. 154. o
6441 2 4 -2 -8 0 1925. 2223. 154. o
6441 1 4 2 8 0 1925. 2223. 154. o
6442 4 4 -2 8 0 1902. 1828. 106. o
6442 3 4 2 -8 0 1902. 1828. 106. o
6442 2 -4 2 -8 0 1902. 1828. 106. o
6442 1 -4 -2 8 0 1902. 1828. 106. o
6443 3 -4 -2 -8 -1 355. 274. 154. <
6443 1 4 2 8 1 355. 274. 154. <
6444 3 4 2 -8 1 356. 262. 107. o
6444 1 -4 -2 8 -1 356. 262. 107. o
6445 3 -5 -2 -8 1 47. 26. 284. <
6445 1 5 2 8 -1 47. 26. 284. <
6446 3 5 2 -8 -1 48. 66. 38. <
6446 1 -5 -2 8 1 48. 66. 38. <
6447 4 -5 2 8 0 27957. 30818. 283. o
6447 3 -5 -2 -8 0 27957. 30818. 283. o
6447 2 5 -2 -8 0 27957. 30818. 283. o
6447 1 5 2 8 0 27957. 30818. 283. o
6448 4 5 -2 8 0 28413. 31160. 228. o
6448 3 5 2 -8 0 28413. 31160. 228. o
6448 2 -5 2 -8 0 28413. 31160. 228. o
6448 1 -5 -2 8 0 28413. 31160. 228. o
6449 3 -5 -2 -8 -1 236. 140. 282. <
6449 1 5 2 8 1 236. 140. 282. <
6450 3 5 2 -8 1 236. 234. 43. o
6450 1 -5 -2 8 -1 236. 234. 43. o
6451 3 -6 -2 -8 1 31. 96. 442. <
6451 1 6 2 8 -1 31. 96. 442. <
6452 3 6 2 -8 -1 31. 134. 366. <
6452 1 -6 -2 8 1 31. 134. 366. <
6453 4 -6 2 8 0 77375. 81534. 439. o
6453 3 -6 -2 -8 0 77375. 81534. 439. o
6453 2 6 -2 -8 0 77375. 81534. 439. o
6453 1 6 2 8 0 77375. 81534. 439. o
6454 4 6 -2 8 0 77840. 74242. 368. o
6454 3 6 2 -8 0 77840. 74242. 368. o
6454 2 -6 2 -8 0 77840. 74242. 368. o
6454 1 -6 -2 8 0 77840. 74242. 368. o
6455 3 -6 -2 -8 -1 211. 215. 437. <
6455 1 6 2 8 1 211. 215. 437. <
6456 3 6 2 -8 1 210. 207. 370. <
6456 1 -6 -2 8 -1 210. 207. 370. <
6457 3 -7 -2 -8 1 73. 75. 286. <
6457 1 7 2 8 -1 73. 75. 286. <
6458 3 7 2 -8 -1 74. 88. 234. <
6458 1 -7 -2 8 1 74. 88. 234. <
6459 4 -7 2 8 0 23488. 25317. 283. o
6459 3 -7 -2 -8 0 23488. 25317. 283. o
6459 2 7 -2 -8 0 23488. 25317. 283. o
6459 1 7 2 8 0 23488. 25317. 283. o
6460 4 7 -2 8 0 23672. 23339. 236. o
6460 3 7 2 -8 0 23672. 23339. 236. o
6460 2 -7 2 -8 0 23672. 23339. 236. o
6460 1 -7 -2 8 0 23672. 23339. 236. o
6461 3 -7 -2 -8 -1 2. 58. 281. <
6461 1 7 2 8 1 2. 58. 281. <
6462 3 7 2 -8 1 3. 26. 237. <
6462 1 -7 -2 8 -1 3. 26. 237. <
6463 3 -8 -2 -8 1 4. 45. 445. <
6463 1 8 2 8 -1 4. 45. 445. <
6464 3 8 2 -8 -1 4. 163. 380. <
6464 1 -8 -2 8 1 4. 163. 380. <
6465 4 -8 2 8 0 66356. 71501. 441. o
6465 3 -8 -2 -8 0 66356. 71501. 441. o
6465 2 8 -2 -8 0 66356. 71501. 441. o
6465 1 8 2 8 0 66356. 71501. 441. o
6466 4 8 -2 8 0 67162. 64550. 382. o
6466 3 8 2 -8 0 67162. 64550. 382. o
6466 2 -8 2 -8 0 67162. 64550. 382. o
6466 1 -8 -2 8 0 67162. 64550. 382. o
6467 3 -8 -2 -8 -1 334. 90. 438. <
6467 1 8 2 8 1 334. 90. 438. <
6468 3 8 2 -8 1 319. 268. 384. <
6468 1 -8 -2 8 -1 319. 268. 384. <
6469 3 -9 -2 -8 1 492. 407. 549. <
6469 1 9 2 8 -1 492. 407. 549. <
6470 3 9 2 -8 -1 507. 299. 464. <
6470 1 -9 -2 8 1 507. 299. 464. <
6471 4 -9 2 8 0 93503. 102330. 546. o
6471 3 -9 -2 -8 0 93503. 102330. 546. o
6471 2 9 -2 -8 0 93503. 102330. 546. o
6471 1 9 2 8 0 93503. 102330. 546. o
6472 4 9 -2 8 0 93225. 88271. 466. o
6472 3 9 2 -8 0 93225. 88271. 466. o
6472 2 -9 2 -8 0 93225. 88271. 466. o
6472 1 -9 -2 8 0 93225. 88271. 466. o
6473 3 -9 -2 -8 -1 1277. 1241. 540. o
6473 1 9 2 8 1 1277. 1241. 540. o
6474 3 9 2 -8 1 1298. 1198. 468. o
6474 1 -9 -2 8 -1 1298. 1198. 468. o
6475 3 -10 -2 -8 1 426. 320. 535. <
6475 1 10 2 8 -1 426. 320. 535. <
6476 3 10 2 -8 -1 427. 1147. 465. o
6476 1 -10 -2 8 1 427. 1147. 465. o
6477 4 -10 2 8 0 86035. 91340. 532. o
6477 3 -10 -2 -8 0 86035. 91340. 532. o
6477 2 10 -2 -8 0 86035. 91340. 532. o
6477 1 10 2 8 0 86035. 91340. 532. o
6478 4 10 -2 8 0 86244. 78356. 468. o
6478 3 10 2 -8 0 86244. 78356. 468. o
6478 2 -10 2 -8 0 86244. 78356. 468. o
6478 1 -10 -2 8 0 86244. 78356. 468. o
6479 3 -10 -2 -8 -1 516. 500. 525. <
6479 1 10 2 8 1 516. 500. 525. <
6480 3 10 2 -8 1 516. 1187. 470. o
6480 1 -10 -2 8 -1 516. 1187. 470. o
6481 3 11 2 -8 -1 231. 460. 298. <
6481 1 -11 -2 8 1 231. 460. 298. <
6482 4 11 -2 8 0 25676. 23830. 299. o
6482 3 11 2 -8 0 25676. 23830. 299. o
6482 2 -11 2 -8 0 25676. 23830. 299. o
6482 1 -11 -2 8 0 25676. 23830. 299. o
6483 3 11 2 -8 1 158. 553. 301. <
6483 1 -11 -2 8 -1 158. 553. 301. <
6484 3 10 -3 -8 1 1247. 969. 178. o
6484 1 -10 3 8 -1 1247. 969. 178. o
6485 4 10 3 8 0 4940. 4962. 180. o
6485 3 10 -3 -8 0 4940. 4962. 180. o
6485 2 -10 -3 -8 0 4940. 4962. 180. o
6485 1 -10 3 8 0 4940. 4962. 180. o
6486 3 10 -3 -8 -1 177. 234. 181. <
6486 1 -10 3 8 1 177. 234. 181. <
6487 3 9 -3 -8 1 87. 249. 261. <
6487 1 -9 3 8 -1 87. 249. 261. <
6488 4 9 3 8 0 23092. 22539. 263. o
6488 3 9 -3 -8 0 23092. 22539. 263. o
6488 2 -9 -3 -8 0 23092. 22539. 263. o
6488 1 -9 3 8 0 23092. 22539. 263. o
6489 3 9 -3 -8 -1 8. 276. 265. <
6489 1 -9 3 8 1 8. 276. 265. <
6490 3 8 -3 -8 1 347. 293. 137. o
6490 1 -8 3 8 -1 347. 293. 137. o
6491 4 8 3 8 0 3138. 3025. 138. o
6491 3 8 -3 -8 0 3138. 3025. 138. o
6491 2 -8 -3 -8 0 3138. 3025. 138. o
6491 1 -8 3 8 0 3138. 3025. 138. o
6492 3 8 -3 -8 -1 6. 22. 139. <
6492 1 -8 3 8 1 6. 22. 139. <
6493 3 7 -3 -8 1 766. 724. 73. o
6493 1 -7 3 8 -1 766. 724. 73. o
6494 4 7 3 8 0 15142. 17263. 195. o
6494 3 7 -3 -8 0 15142. 17263. 195. o
6494 2 -7 -3 -8 0 15142. 17263. 195. o
6494 1 -7 3 8 0 15142. 17263. 195. o
6495 3 7 -3 -8 -1 691. 747. 73. o
6495 1 -7 3 8 1 691. 747. 73. o
6496 3 6 -3 -8 1 96. 245. 310. <
6496 1 -6 3 8 -1 96. 245. 310. <
6497 4 6 3 8 0 68999. 62461. 351. o
6497 3 6 -3 -8 0 68999. 62461. 351. o
6497 2 -6 -3 -8 0 68999. 62461. 351. o
6497 1 -6 3 8 0 68999. 62461. 351. o
6498 3 6 -3 -8 -1 365. 507. 292. <
6498 1 -6 3 8 1 365. 507. 292. <
6499 3 5 -3 -8 1 143. 263. 344. <
6499 1 -5 3 8 -1 143. 263. 344. <
6500 4 5 3 8 0 134045. 119602. 1497. o
6500 3 5 -3 -8 0 134045. 119602. 1497. o
6500 2 -5 -3 -8 0 134045. 119602. 1497. o
6500 1 -5 3 8 0 134045. 119602. 1497. o
6501 3 5 -3 -8 -1 34. 104. 323. <
6501 1 -5 3 8 1 34. 104. 323. <
6502 3 4 -3 -8 1 565. 534. 180. o
6502 1 -4 3 8 -1 565. 534. 180. o
6503 4 4 3 8 0 30652. 29180. 206. o
6503 3 4 -3 -8 0 30652. 29180. 206. o
6503 2 -4 -3 -8 0 30652. 29180. 206. o
6503 1 -4 3 8 0 30652. 29180. 206. o
6504 3 4 -3 -8 -1 1. 20. 171. <
6504 1 -4 3 8 1 1. 20. 171. <
6505 3 3 -3 -8 1 1460. 1600. 61. o
6505 1 -3 3 8 -1 1460. 1600. 61. o
6506 4 3 3 8 0 51025. 53413. 270. o
6506 3 3 -3 -8 0 51025. 53413. 270. o
6506 2 -3 -3 -8 0 51025. 53413. 270. o
6506 1 -3 3 8 0 51025. 53413. 270. o
6507 3 3 -3 -8 -1 1526. 1629. 67. o
6507 1 -3 3 8 1 1526. 1629. 67. o
6508 3 2 -3 -8 1 350. 351. 122. o
6508 1 -2 3 8 -1 350. 351. 122. o
6509 3 -2 3 -8 -1 344. 231. 192. <
6509 1 2 -3 8 1 344. 231. 192. <
6510 4 2 3 8 0 11170. 11829. 133. o
6510 3 2 -3 -8 0 11170. 11829. 133. o
6510 2 -2 -3 -8 0 11170. 11829. 133. o
6510 1 -2 3 8 0 11170. 11829. 133. o
6511 4 -2 -3 8 0 10956. 11261. 194. o
6511 3 -2 3 -8 0 10956. 11261. 194. o
6511 2 2 3 -8 0 10956. 11261. 194. o
6511 1 2 -3 8 0 10956. 11261. 194. o
6512 3 2 -3 -8 -1 458. 380. 119. o
6512 1 -2 3 8 1 458. 380. 119. o
6513 3 -2 3 -8 1 454. 279. 195. <
6513 1 2 -3 8 -1 454. 279. 195. <
6514 3 1 -3 -8 1 145. 87. 30. o
6514 1 -1 3 8 -1 145. 87. 30. o
6515 3 -1 3 -8 -1 153. 134. 766. <
6515 1 1 -3 8 1 153. 134. 766. <
6516 4 1 3 8 0 130295. 137303. 676. o
6516 3 1 -3 -8 0 130295. 137303. 676. o
6516 2 -1 -3 -8 0 130295. 137303. 676. o
6516 1 -1 3 8 0 130295. 137303. 676. o
6517 4 -1 -3 8 0 130152. 138512. 774. o
6517 3 -1 3 -8 0 130152. 138512. 774. o
6517 2 1 3 -8 0 130152. 138512. 774. o
6517 1 1 -3 8 0 130152. 138512. 774. o
6518 3 1 -3 -8 -1 67. 74. 30. o
6518 1 -1 3 8 1 67. 74. 30. o
6519 3 -1 3 -8 1 73. 54. 780. <
6519 1 1 -3 8 -1 73. 54. 780. <
6520 3 0 -3 -8 1 52. 52. 136. <
6520 1 0 3 8 -1 52. 52. 136. <
6521 3 0 3 -8 -1 53. 47. 128. <
6521 1 0 -3 8 1 53. 47. 128. <
6522 4 0 3 8 0 396. 270. 135. o
6522 3 0 -3 -8 0 396. 270. 135. o
6522 2 0 -3 -8 0 396. 270. 135. o
6522 1 0 3 8 0 396. 270. 135. o
6523 4 0 -3 8 0 399. 212. 130. <
6523 3 0 3 -8 0 399. 212. 130. <
6523 2 0 3 -8 0 399. 212. 130. <
6523 1 0 -3 8 0 399. 212. 130. <
6524 3 0 -3 -8 -1 75. 98. 134. <
6524 1 0 3 8 1 75. 98. 134. <
6525 3 0 3 -8 1 77. 52. 132. <
6525 1 0 -3 8 -1 77. 52. 132. <
6526 3 -1 -3 -8 1 20. 274. 549. <
6526 1 1 3 8 -1 20. 274. 549. <
6527 4 -1 3 8 0 130179. 137298. 546. o
6527 3 -1 -3 -8 0 130179. 137298. 546. o
6527 2 1 -3 -8 0 130179. 137298. 546. o
6527 1 1 3 8 0 130179. 137298. 546. o
6528 3 -1 -3 -8 -1 143. 365. 543. <
6528 1 1 3 8 1 143. 365. 543. <
6529 3 -2 -3 -8 1 143. 66. 194. <
6529 1 2 3 8 -1 143. 66. 194. <
6530 4 -2 3 8 0 11011. 11793. 194. o
6530 3 -2 -3 -8 0 11011. 11793. 194. o
6530 2 2 -3 -8 0 11011. 11793. 194. o
6530 1 2 3 8 0 11011. 11793. 194. o
6531 3 -2 -3 -8 -1 161. 29. 193. <
6531 1 2 3 8 1 161. 29. 193. <
6532 3 -3 -3 -8 1 6. 279. 347. <
6532 1 3 3 8 -1 6. 279. 347. <
6533 3 3 3 -8 -1 6. 2. 32. <
6533 1 -3 -3 8 1 6. 2. 32. <
6534 4 -3 3 8 0 50874. 52770. 346. o
6534 3 -3 -3 -8 0 50874. 52770. 346. o
6534 2 3 -3 -8 0 50874. 52770. 346. o
6534 1 3 3 8 0 50874. 52770. 346. o
6535 4 3 -3 8 0 49944. 53728. 271. o
6535 3 3 3 -8 0 49944. 53728. 271. o
6535 2 -3 3 -8 0 49944. 53728. 271. o
6535 1 -3 -3 8 0 49944. 53728. 271. o
6536 3 -3 -3 -8 -1 11. 128. 345. <
6536 1 3 3 8 1 11. 128. 345. <
6537 3 3 3 -8 1 11. 11. 34. <
6537 1 -3 -3 8 -1 11. 11. 34. <
6538 3 -4 -3 -8 1 62. 246. 288. <
6538 1 4 3 8 -1 62. 246. 288. <
6539 3 4 3 -8 -1 60. 52. 36. <
6539 1 -4 -3 8 1 60. 52. 36. <
6540 4 -4 3 8 0 31302. 33229. 287. o
6540 3 -4 -3 -8 0 31302. 33229. 287. o
6540 2 4 -3 -8 0 31302. 33229. 287. o
6540 1 4 3 8 0 31302. 33229. 287. o
6541 4 4 -3 8 0 31509. 34500. 231. o
6541 3 4 3 -8 0 31509. 34500. 231. o
6541 2 -4 3 -8 0 31509. 34500. 231. o
6541 1 -4 -3 8 0 31509. 34500. 231. o
6542 3 -4 -3 -8 -1 664. 667. 286. o
6542 1 4 3 8 1 664. 667. 286. o
6543 3 4 3 -8 1 667. 741. 64. o
6543 1 -4 -3 8 -1 667. 741. 64. o
6544 3 -5 -3 -8 1 293. 227. 632. <
6544 1 5 3 8 -1 293. 227. 632. <
6545 3 5 3 -8 -1 299. 164. 574. <
6545 1 -5 -3 8 1 299. 164. 574. <
6546 4 -5 3 8 0 134464. 136887. 630. o
6546 3 -5 -3 -8 0 134464. 136887. 630. o
6546 2 5 -3 -8 0 134464. 136887. 630. o
6546 1 5 3 8 0 134464. 136887. 630. o
6547 4 5 -3 8 0 133523. 133870. 578. o
6547 3 5 3 -8 0 133523. 133870. 578. o
6547 2 -5 3 -8 0 133523. 133870. 578. o
6547 1 -5 -3 8 0 133523. 133870. 578. o
6548 3 -5 -3 -8 -1 277. 232. 629. <
6548 1 5 3 8 1 277. 232. 629. <
6549 3 5 3 -8 1 283. 147. 583. <
6549 1 -5 -3 8 -1 283. 147. 583. <
6550 3 -6 -3 -8 1 172. 169. 416. <
6550 1 6 3 8 -1 172. 169. 416. <
6551 3 6 3 -8 -1 168. 109. 372. <
6551 1 -6 -3 8 1 168. 109. 372. <
6552 4 -6 3 8 0 69316. 71868. 414. o
6552 3 -6 -3 -8 0 69316. 71868. 414. o
6552 2 6 -3 -8 0 69316. 71868. 414. o
6552 1 6 3 8 0 69316. 71868. 414. o
6553 4 6 -3 8 0 69255. 71110. 375. o
6553 3 6 3 -8 0 69255. 71110. 375. o
6553 2 -6 3 -8 0 69255. 71110. 375. o
6553 1 -6 -3 8 0 69255. 71110. 375. o
6554 3 -6 -3 -8 -1 86. 62. 413. <
6554 1 6 3 8 1 86. 62. 413. <
6555 3 6 3 -8 1 90. 52. 378. <
6555 1 -6 -3 8 -1 90. 52. 378. <
6556 3 -7 -3 -8 1 386. 305. 238. <
6556 1 7 3 8 -1 386. 305. 238. <
6557 3 7 3 -8 -1 384. 265. 214. <
6557 1 -7 -3 8 1 384. 265. 214. <
6558 4 -7 3 8 0 14977. 15367. 237. o
6558 3 -7 -3 -8 0 14977. 15367. 237. o
6558 2 7 -3 -8 0 14977. 15367. 237. o
6558 1 7 3 8 0 14977. 15367. 237. o
6559 4 7 -3 8 0 15005. 14485. 215. o
6559 3 7 3 -8 0 15005. 14485. 215. o
6559 2 -7 3 -8 0 15005. 14485. 215. o
6559 1 -7 -3 8 0 15005. 14485. 215. o
6560 3 -7 -3 -8 -1 277. 227. 236. <
6560 1 7 3 8 1 277. 227. 236. <
6561 3 7 3 -8 1 281. 177. 217. <
6561 1 -7 -3 8 -1 281. 177. 217. <
6562 3 -8 -3 -8 1 429. 393. 181. o
6562 1 8 3 8 -1 429. 393. 181. o
6563 3 8 3 -8 -1 423. 330. 158. o
6563 1 -8 -3 8 1 423. 330. 158. o
6564 4 -8 3 8 0 3142. 3258. 180. o
6564 3 -8 -3 -8 0 3142. 3258. 180. o
6564 2 8 -3 -8 0 3142. 3258. 180. o
6564 1 8 3 8 0 3142. 3258. 180. o
6565 4 8 -3 8 0 3114. 3210. 159. o
6565 3 8 3 -8 0 3114. 3210. 159. o
6565 2 -8 3 -8 0 3114. 3210. 159. o
6565 1 -8 -3 8 0 3114. 3210. 159. o
6566 3 -8 -3 -8 -1 14. 19. 180. <
6566 1 8 3 8 1 14. 19. 180. <
6567 3 8 3 -8 1 15. -22. 160. <
6567 1 -8 -3 8 -1 15. -22. 160. <
6568 3 -9 -3 -8 1 33. -5. 296. <
6568 1 9 3 8 -1 33. -5. 296. <
6569 3 9 3 -8 -1 32. 111. 273. <
6569 1 -9 -3 8 1 32. 111. 273. <
6570 4 -9 3 8 0 23734. 24861. 295. o
6570 3 -9 -3 -8 0 23734. 24861. 295. o
6570 2 9 -3 -8 0 23734. 24861. 295. o
6570 1 9 3 8 0 23734. 24861. 295. o
6571 4 9 -3 8 0 23783. 23443. 275. o
6571 3 9 3 -8 0 23783. 23443. 275. o
6571 2 -9 3 -8 0 23783. 23443. 275. o
6571 1 -9 -3 8 0 23783. 23443. 275. o
6572 3 -9 -3 -8 -1 24. 26. 294. <
6572 1 9 3 8 1 24. 26. 294. <
6573 3 9 3 -8 1 24. 128. 277. <
6573 1 -9 -3 8 -1 24. 128. 277. <
6574 3 -10 -3 -8 1 1776. 1995. 216. o
6574 1 10 3 8 -1 1776. 1995. 216. o
6575 3 10 3 -8 -1 1782. 1407. 193. o
6575 1 -10 -3 8 1 1782. 1407. 193. o
6576 4 -10 3 8 0 5161. 4895. 215. o
6576 3 -10 -3 -8 0 5161. 4895. 215. o
6576 2 10 -3 -8 0 5161. 4895. 215. o
6576 1 10 3 8 0 5161. 4895. 215. o
6577 4 10 -3 8 0 4691. 4556. 194. o
6577 3 10 3 -8 0 4691. 4556. 194. o
6577 2 -10 3 -8 0 4691. 4556. 194. o
6577 1 -10 -3 8 0 4691. 4556. 194. o
6578 3 -10 -3 -8 -1 94. 126. 214. <
6578 1 10 3 8 1 94. 126. 214. <
6579 3 10 3 -8 1 98. 107. 195. <
6579 1 -10 -3 8 -1 98. 107. 195. <
6580 3 11 3 -8 -1 433. 237. 407. <
6580 1 -11 -3 8 1 433. 237. 407. <
6581 4 11 -3 8 0 52532. 52379. 410. o
6581 3 11 3 -8 0 52532. 52379. 410. o
6581 2 -11 3 -8 0 52532. 52379. 410. o
6581 1 -11 -3 8 0 52532. 52379. 410. o
6582 3 10 -4 -8 1 237. 159. 150. <
6582 1 -10 4 8 -1 237. 159. 150. <
6583 4 10 4 8 0 1178. 1426. 152. o
6583 3 10 -4 -8 0 1178. 1426. 152. o
6583 2 -10 -4 -8 0 1178. 1426. 152. o
6583 1 -10 4 8 0 1178. 1426. 152. o
6584 3 10 -4 -8 -1 50. -2. 153. <
6584 1 -10 4 8 1 50. -2. 153. <
6585 3 9 -4 -8 1 401. 721. 292. o
6585 1 -9 4 8 -1 401. 721. 292. o
6586 4 9 4 8 0 26281. 25035. 293. o
6586 3 9 -4 -8 0 26281. 25035. 293. o
6586 2 -9 -4 -8 0 26281. 25035. 293. o
6586 1 -9 4 8 0 26281. 25035. 293. o
6587 3 9 -4 -8 -1 375. 699. 295. o
6587 1 -9 4 8 1 375. 699. 295. o
6588 3 8 -4 -8 1 125. 104. 139. <
6588 1 -8 4 8 -1 125. 104. 139. <
6589 4 8 4 8 0 1935. 2079. 140. o
6589 3 8 -4 -8 0 1935. 2079. 140. o
6589 2 -8 -4 -8 0 1935. 2079. 140. o
6589 1 -8 4 8 0 1935. 2079. 140. o
6590 3 8 -4 -8 -1 111. 35. 141. <
6590 1 -8 4 8 1 111. 35. 141. <
6591 3 7 -4 -8 1 45. 209. 281. <
6591 1 -7 4 8 -1 45. 209. 281. <
6592 4 7 4 8 0 55034. 45653. 280. o
6592 3 7 -4 -8 0 55034. 45653. 280. o
6592 2 -7 -4 -8 0 55034. 45653. 280. o
6592 1 -7 4 8 0 55034. 45653. 280. o
6593 3 7 -4 -8 -1 180. 346. 281. <
6593 1 -7 4 8 1 180. 346. 281. <
6594 3 6 -4 -8 1 422. 261. 173. <
6594 1 -6 4 8 -1 422. 261. 173. <
6595 4 6 4 8 0 12953. 12020. 196. o
6595 3 6 -4 -8 0 12953. 12020. 196. o
6595 2 -6 -4 -8 0 12953. 12020. 196. o
6595 1 -6 4 8 0 12953. 12020. 196. o
6596 3 6 -4 -8 -1 97. 124. 184. <
6596 1 -6 4 8 1 97. 124. 184. <
6597 3 5 -4 -8 1 192. 278. 309. <
6597 1 -5 4 8 -1 192. 278. 309. <
6598 4 5 4 8 0 85063. 80470. 361. o
6598 3 5 -4 -8 0 85063. 80470. 361. o
6598 2 -5 -4 -8 0 85063. 80470. 361. o
6598 1 -5 4 8 0 85063. 80470. 361. o
6599 3 5 -4 -8 -1 161. 172. 292. <
6599 1 -5 4 8 1 161. 172. 292. <
6600 3 4 -4 -8 1 47. 43. 116. <
6600 1 -4 4 8 -1 47. 43. 116. <
6601 4 4 4 8 0 1602. 1532. 118. o
6601 3 4 -4 -8 0 1602. 1532. 118. o
6601 2 -4 -4 -8 0 1602. 1532. 118. o
6601 1 -4 4 8 0 1602. 1532. 118. o
6602 3 4 -4 -8 -1 53. 8. 112. <
6602 1 -4 4 8 1 53. 8. 112. <
6603 3 3 -4 -8 1 2. 31. 178. <
6603 1 -3 4 8 -1 2. 31. 178. <
6604 4 3 4 8 0 30137. 30470. 207. o
6604 3 3 -4 -8 0 30137. 30470. 207. o
6604 2 -3 -4 -8 0 30137. 30470. 207. o
6604 1 -3 4 8 0 30137. 30470. 207. o
6605 3 3 -4 -8 -1 575. 526. 174. o
6605 1 -3 4 8 1 575. 526. 174. o
6606 3 2 -4 -8 1 1395. 1455. 62. o
6606 1 -2 4 8 -1 1395. 1455. 62. o
6607 4 2 4 8 0 3383. 3511. 84. o
6607 3 2 -4 -8 0 3383. 3511. 84. o
6607 2 -2 -4 -8 0 3383. 3511. 84. o
6607 1 -2 4 8 0 3383. 3511. 84. o
6608 3 2 -4 -8 -1 669. 738. 59. o
6608 1 -2 4 8 1 669. 738. 59. o
6609 3 1 -4 -8 1 515. 366. 121. o
6609 1 -1 4 8 -1 515. 366. 121. o
6610 3 -1 4 -8 -1 509. 452. 207. o
6610 1 1 -4 8 1 509. 452. 207. o
6611 4 1 4 8 0 11818. 12522. 135. o
6611 3 1 -4 -8 0 11818. 12522. 135. o
6611 2 -1 -4 -8 0 11818. 12522. 135. o
6611 1 -1 4 8 0 11818. 12522. 135. o
6612 4 -1 -4 8 0 12523. 13105. 209. o
6612 3 -1 4 -8 0 12523. 13105. 209. o
6612 2 1 4 -8 0 12523. 13105. 209. o
6612 1 1 -4 8 0 12523. 13105. 209. o
6613 3 1 -4 -8 -1 734. 697. 120. o
6613 1 -1 4 8 1 734. 697. 120. o
6614 3 -1 4 -8 1 737. 781. 211. o
6614 1 1 -4 8 -1 737. 781. 211. o
6615 3 0 -4 -8 1 114. 62. 112. <
6615 1 0 4 8 -1 114. 62. 112. <
6616 4 0 4 8 0 10934. 11695. 127. o
6616 3 0 -4 -8 0 10934. 11695. 127. o
6616 2 0 -4 -8 0 10934. 11695. 127. o
6616 1 0 4 8 0 10934. 11695. 127. o
6617 3 0 -4 -8 -1 53. 12. 111. <
6617 1 0 4 8 1 53. 12. 111. <
6618 3 -1 -4 -8 1 108. 77. 224. <
6618 1 1 4 8 -1 108. 77. 224. <
6619 4 -1 4 8 0 11706. 14143. 222. o
6619 3 -1 -4 -8 0 11706. 14143. 222. o
6619 2 1 -4 -8 0 11706. 14143. 222. o
6619 1 1 4 8 0 11706. 14143. 222. o
6620 3 -1 -4 -8 -1 17. 41. 221. <
6620 1 1 4 8 1 17. 41. 221. <
6621 3 -2 -4 -8 1 662. 461. 160. o
6621 1 2 4 8 -1 662. 461. 160. o
6622 4 -2 4 8 0 3270. 3582. 159. o
6622 3 -2 -4 -8 0 3270. 3582. 159. o
6622 2 2 -4 -8 0 3270. 3582. 159. o
6622 1 2 4 8 0 3270. 3582. 159. o
6623 3 -2 -4 -8 -1 332. 207. 158. <
6623 1 2 4 8 1 332. 207. 158. <
6624 3 -3 -4 -8 1 32. 152. 298. <
6624 1 3 4 8 -1 32. 152. 298. <
6625 4 -3 4 8 0 30465. 34687. 297. o
6625 3 -3 -4 -8 0 30465. 34687. 297. o
6625 2 3 -4 -8 0 30465. 34687. 297. o
6625 1 3 4 8 0 30465. 34687. 297. o
6626 3 -3 -4 -8 -1 523. 354. 296. <
6626 1 3 4 8 1 523. 354. 296. <
6627 3 -4 -4 -8 1 12. 554. 151. o
6627 1 4 4 8 -1 12. 554. 151. o
6628 3 4 4 -8 -1 12. 7. 38. <
6628 1 -4 -4 8 1 12. 7. 38. <
6629 4 -4 4 8 0 1503. 553. 151. o
6629 3 -4 -4 -8 0 1503. 553. 151. o
6629 2 4 -4 -8 0 1503. 553. 151. o
6629 1 4 4 8 0 1503. 553. 151. o
6630 4 4 -4 8 0 1478. 1797. 77. o
6630 3 4 4 -8 0 1478. 1797. 77. o
6630 2 -4 4 -8 0 1478. 1797. 77. o
6630 1 -4 -4 8 0 1478. 1797. 77. o
6631 3 -4 -4 -8 -1 9. 552. 151. o
6631 1 4 4 8 1 9. 552. 151. o
6632 3 4 4 -8 1 9. 10. 40. <
6632 1 -4 -4 8 -1 9. 10. 40. <
6633 3 -5 -4 -8 1 400. 667. 461. <
6633 1 5 4 8 -1 400. 667. 461. <
6634 3 5 4 -8 -1 400. 410. 52. o
6634 1 -5 -4 8 1 400. 410. 52. o
6635 4 -5 4 8 0 87237. 90852. 460. o
6635 3 -5 -4 -8 0 87237. 90852. 460. o
6635 2 5 -4 -8 0 87237. 90852. 460. o
6635 1 5 4 8 0 87237. 90852. 460. o
6636 4 5 -4 8 0 87679. 93181. 427. o
6636 3 5 4 -8 0 87679. 93181. 427. o
6636 2 -5 4 -8 0 87679. 93181. 427. o
6636 1 -5 -4 8 0 87679. 93181. 427. o
6637 3 -5 -4 -8 -1 272. 371. 460. <
6637 1 5 4 8 1 272. 371. 460. <
6638 3 5 4 -8 1 270. 423. 54. o
6638 1 -5 -4 8 -1 270. 423. 54. o
6639 3 -6 -4 -8 1 172. 182. 222. <
6639 1 6 4 8 -1 172. 182. 222. <
6640 3 6 4 -8 -1 174. 73. 207. <
6640 1 -6 -4 8 1 174. 73. 207. <
6641 4 -6 4 8 0 13181. 14063. 221. o
6641 3 -6 -4 -8 0 13181. 14063. 221. o
6641 2 6 -4 -8 0 13181. 14063. 221. o
6641 1 6 4 8 0 13181. 14063. 221. o
6642 4 6 -4 8 0 13320. 14179. 207. o
6642 3 6 4 -8 0 13320. 14179. 207. o
6642 2 -6 4 -8 0 13320. 14179. 207. o
6642 1 -6 -4 8 0 13320. 14179. 207. o
6643 3 -6 -4 -8 -1 42. 44. 221. <
6643 1 6 4 8 1 42. 44. 221. <
6644 3 6 4 -8 1 39. 38. 209. <
6644 1 -6 -4 8 -1 39. 38. 209. <
6645 3 -7 -4 -8 1 58. 1028. 390. o
6645 1 7 4 8 -1 58. 1028. 390. o
6646 3 7 4 -8 -1 54. 34. 387. <
6646 1 -7 -4 8 1 54. 34. 387. <
6647 4 -7 4 8 0 55880. 59127. 390. o
6647 3 -7 -4 -8 0 55880. 59127. 390. o
6647 2 7 -4 -8 0 55880. 59127. 390. o
6647 1 7 4 8 0 55880. 59127. 390. o
6648 4 7 -4 8 0 56155. 61593. 389. o
6648 3 7 4 -8 0 56155. 61593. 389. o
6648 2 -7 4 -8 0 56155. 61593. 389. o
6648 1 -7 -4 8 0 56155. 61593. 389. o
6649 3 -7 -4 -8 -1 81. 285. 390. <
6649 1 7 4 8 1 81. 285. 390. <
6650 3 7 4 -8 1 76. 73. 392. <
6650 1 -7 -4 8 -1 76. 73. 392. <
6651 3 -8 -4 -8 1 20. 73. 167. <
6651 1 8 4 8 -1 20. 73. 167. <
6652 3 8 4 -8 -1 22. 37. 166. <
6652 1 -8 -4 8 1 22. 37. 166. <
6653 4 -8 4 8 0 1886. 2184. 167. o
6653 3 -8 -4 -8 0 1886. 2184. 167. o
6653 2 8 -4 -8 0 1886. 2184. 167. o
6653 1 8 4 8 0 1886. 2184. 167. o
6654 4 8 -4 8 0 1808. 2170. 167. o
6654 3 8 4 -8 0 1808. 2170. 167. o
6654 2 -8 4 -8 0 1808. 2170. 167. o
6654 1 -8 -4 8 0 1808. 2170. 167. o
6655 3 -8 -4 -8 -1 146. 59. 167. <
6655 1 8 4 8 1 146. 59. 167. <
6656 3 8 4 -8 1 147. 38. 169. <
6656 1 -8 -4 8 -1 147. 38. 169. <
6657 3 -9 -4 -8 1 95. 49. 304. <
6657 1 9 4 8 -1 95. 49. 304. <
6658 3 9 4 -8 -1 101. 61. 307. <
6658 1 -9 -4 8 1 101. 61. 307. <
6659 4 -9 4 8 0 27211. 27706. 304. o
6659 3 -9 -4 -8 0 27211. 27706. 304. o
6659 2 9 -4 -8 0 27211. 27706. 304. o
6659 1 9 4 8 0 27211. 27706. 304. o
6660 4 9 -4 8 0 27375. 27606. 309. o
6660 3 9 4 -8 0 27375. 27606. 309. o
6660 2 -9 4 -8 0 27375. 27606. 309. o
6660 1 -9 -4 8 0 27375. 27606. 309. o
6661 3 -9 -4 -8 -1 5. 61. 304. <
6661 1 9 4 8 1 5. 61. 304. <
6662 3 9 4 -8 1 7. 110. 312. <
6662 1 -9 -4 8 -1 7. 110. 312. <
6663 3 10 4 -8 -1 257. 258. 177. <
6663 1 -10 -4 8 1 257. 258. 177. <
6664 4 10 -4 8 0 1109. 1648. 179. o
6664 3 10 4 -8 0 1109. 1648. 179. o
6664 2 -10 4 -8 0 1109. 1648. 179. o
6664 1 -10 -4 8 0 1109. 1648. 179. o
6665 3 10 4 -8 1 24. 50. 180. <
6665 1 -10 -4 8 -1 24. 50. 180. <
6666 3 11 4 -8 -1 73. 37. 70. <
6666 1 -11 -4 8 1 73. 37. 70. <
6667 3 10 -5 -8 1 686. 806. 237. o
6667 1 -10 5 8 -1 686. 806. 237. o
6668 4 10 5 8 0 8105. 8521. 238. o
6668 3 10 -5 -8 0 8105. 8521. 238. o
6668 2 -10 -5 -8 0 8105. 8521. 238. o
6668 1 -10 5 8 0 8105. 8521. 238. o
6669 3 10 -5 -8 -1 1371. 1048. 240. o
6669 1 -10 5 8 1 1371. 1048. 240. o
6670 3 9 -5 -8 1 193. 2888. 497. o
6670 1 -9 5 8 -1 193. 2888. 497. o
6671 4 9 5 8 0 81038. 79759. 501. o
6671 3 9 -5 -8 0 81038. 79759. 501. o
6671 2 -9 -5 -8 0 81038. 79759. 501. o
6671 1 -9 5 8 0 81038. 79759. 501. o
6672 3 9 -5 -8 -1 1068. 621. 504. <
6672 1 -9 5 8 1 1068. 621. 504. <
6673 3 8 -5 -8 1 815. 682. 158. o
6673 1 -8 5 8 -1 815. 682. 158. o
6674 4 8 5 8 0 5410. 4165. 157. o
6674 3 8 -5 -8 0 5410. 4165. 157. o
6674 2 -8 -5 -8 0 5410. 4165. 157. o
6674 1 -8 5 8 0 5410. 4165. 157. o
6675 3 8 -5 -8 -1 1879. 828. 156. o
6675 1 -8 5 8 1 1879. 828. 156. o
6676 3 7 -5 -8 1 177. 202. 197. <
6676 1 -7 5 8 -1 177. 202. 197. <
6677 4 7 5 8 0 45646. 37538. 258. o
6677 3 7 -5 -8 0 45646. 37538. 258. o
6677 2 -7 -5 -8 0 45646. 37538. 258. o
6677 1 -7 5 8 0 45646. 37538. 258. o
6678 3 7 -5 -8 -1 75. 100. 195. <
6678 1 -7 5 8 1 75. 100. 195. <
6679 3 6 -5 -8 1 47. 115. 257. <
6679 1 -6 5 8 -1 47. 115. 257. <
6680 4 6 5 8 0 38049. 33211. 261. o
6680 3 6 -5 -8 0 38049. 33211. 261. o
6680 2 -6 -5 -8 0 38049. 33211. 261. o
6680 1 -6 5 8 0 38049. 33211. 261. o
6681 3 6 -5 -8 -1 55. 208. 265. <
6681 1 -6 5 8 1 55. 208. 265. <
6682 3 5 -5 -8 1 30. 176. 384. <
6682 1 -5 5 8 -1 30. 176. 384. <
6683 4 5 5 8 0 119163. 108824. 444. o
6683 3 5 -5 -8 0 119163. 108824. 444. o
6683 2 -5 -5 -8 0 119163. 108824. 444. o
6683 1 -5 5 8 0 119163. 108824. 444. o
6684 3 5 -5 -8 -1 18. 165. 437. <
6684 1 -5 5 8 1 18. 165. 437. <
6685 3 4 -5 -8 1 178. 143. 287. <
6685 1 -4 5 8 -1 178. 143. 287. <
6686 4 4 5 8 0 84083. 82180. 353. o
6686 3 4 -5 -8 0 84083. 82180. 353. o
6686 2 -4 -5 -8 0 84083. 82180. 353. o
6686 1 -4 5 8 0 84083. 82180. 353. o
6687 3 4 -5 -8 -1 208. 204. 276. <
6687 1 -4 5 8 1 208. 204. 276. <
6688 3 3 -5 -8 1 5. 93. 340. <
6688 1 -3 5 8 -1 5. 93. 340. <
6689 4 3 5 8 0 125713. 129230. 529. o
6689 3 3 -5 -8 0 125713. 129230. 529. o
6689 2 -3 -5 -8 0 125713. 129230. 529. o
6689 1 -3 5 8 0 125713. 129230. 529. o
6690 3 3 -5 -8 -1 38. 184. 331. <
6690 1 -3 5 8 1 38. 184. 331. <
6691 3 2 -5 -8 1 2023. 2183. 78. o
6691 1 -2 5 8 -1 2023. 2183. 78. o
6692 4 2 5 8 0 28033. 29670. 229. o
6692 3 2 -5 -8 0 28033. 29670. 229. o
6692 2 -2 -5 -8 0 28033. 29670. 229. o
6692 1 -2 5 8 0 28033. 29670. 229. o
6693 3 2 -5 -8 -1 683. 825. 63. o
6693 1 -2 5 8 1 683. 825. 63. o
6694 3 1 -5 -8 1 252. 170. 131. <
6694 1 -1 5 8 -1 252. 170. 131. <
6695 4 1 5 8 0 14760. 15151. 152. o
6695 3 1 -5 -8 0 14760. 15151. 152. o
6695 2 -1 -5 -8 0 14760. 15151. 152. o
6695 1 -1 5 8 0 14760. 15151. 152. o
6696 3 1 -5 -8 -1 51. 23. 128. <
6696 1 -1 5 8 1 51. 23. 128. <
6697 3 0 -5 -8 1 1170. 1161. 97. o
6697 1 0 5 8 -1 1170. 1161. 97. o
6698 4 0 5 8 0 1935. 1767. 97. o
6698 3 0 -5 -8 0 1935. 1767. 97. o
6698 2 0 -5 -8 0 1935. 1767. 97. o
6698 1 0 5 8 0 1935. 1767. 97. o
6699 3 0 -5 -8 -1 885. 907. 96. o
6699 1 0 5 8 1 885. 907. 96. o
6700 3 -1 -5 -8 1 330. 277. 249. <
6700 1 1 5 8 -1 330. 277. 249. <
6701 4 -1 5 8 0 15204. 16340. 248. o
6701 3 -1 -5 -8 0 15204. 16340. 248. o
6701 2 1 -5 -8 0 15204. 16340. 248. o
6701 1 1 5 8 0 15204. 16340. 248. o
6702 3 -1 -5 -8 -1 40. 52. 247. <
6702 1 1 5 8 1 40. 52. 247. <
6703 3 -2 -5 -8 1 62. 136. 309. <
6703 1 2 5 8 -1 62. 136. 309. <
6704 4 -2 5 8 0 27772. 32316. 307. o
6704 3 -2 -5 -8 0 27772. 32316. 307. o
6704 2 2 -5 -8 0 27772. 32316. 307. o
6704 1 2 5 8 0 27772. 32316. 307. o
6705 3 -2 -5 -8 -1 230. 167. 306. <
6705 1 2 5 8 1 230. 167. 306. <
6706 3 -3 -5 -8 1 192. 1066. 757. <
6706 1 3 5 8 -1 192. 1066. 757. <
6707 4 -3 5 8 0 126931. 140527. 755. o
6707 3 -3 -5 -8 0 126931. 140527. 755. o
6707 2 3 -5 -8 0 126931. 140527. 755. o
6707 1 3 5 8 0 126931. 140527. 755. o
6708 3 -3 -5 -8 -1 171. 355. 753. <
6708 1 3 5 8 1 171. 355. 753. <
6709 3 -4 -5 -8 1 365. 857. 483. <
6709 1 4 5 8 -1 365. 857. 483. <
6710 4 -4 5 8 0 85895. 94304. 482. o
6710 3 -4 -5 -8 0 85895. 94304. 482. o
6710 2 4 -5 -8 0 85895. 94304. 482. o
6710 1 4 5 8 0 85895. 94304. 482. o
6711 3 -4 -5 -8 -1 320. 463. 481. <
6711 1 4 5 8 1 320. 463. 481. <
6712 3 -5 -5 -8 1 4. 1043. 567. <
6712 1 5 5 8 -1 4. 1043. 567. <
6713 3 5 5 -8 -1 4. 46. 48. <
6713 1 -5 -5 8 1 4. 46. 48. <
6714 4 -5 5 8 0 120339. 133411. 566. o
6714 3 -5 -5 -8 0 120339. 133411. 566. o
6714 2 5 -5 -8 0 120339. 133411. 566. o
6714 1 5 5 8 0 120339. 133411. 566. o
6715 4 5 -5 8 0 120641. 129613. 526. o
6715 3 5 5 -8 0 120641. 129613. 526. o
6715 2 -5 5 -8 0 120641. 129613. 526. o
6715 1 -5 -5 8 0 120641. 129613. 526. o
6716 3 -5 -5 -8 -1 111. 171. 567. <
6716 1 5 5 8 1 111. 171. 567. <
6717 3 5 5 -8 1 111. 90. 49. <
6717 1 -5 -5 8 -1 111. 90. 49. <
6718 3 -6 -5 -8 1 635. 1169. 346. o
6718 1 6 5 8 -1 635. 1169. 346. o
6719 4 -6 5 8 0 37941. 42681. 346. o
6719 3 -6 -5 -8 0 37941. 42681. 346. o
6719 2 6 -5 -8 0 37941. 42681. 346. o
6719 1 6 5 8 0 37941. 42681. 346. o
6720 3 -6 -5 -8 -1 193. 240. 347. <
6720 1 6 5 8 1 193. 240. 347. <
6721 3 -7 -5 -8 1 138. 1242. 372. o
6721 1 7 5 8 -1 138. 1242. 372. o
6722 3 7 5 -8 -1 134. 146. 375. <
6722 1 -7 -5 8 1 134. 146. 375. <
6723 4 -7 5 8 0 46119. 49190. 373. o
6723 3 -7 -5 -8 0 46119. 49190. 373. o
6723 2 7 -5 -8 0 46119. 49190. 373. o
6723 1 7 5 8 0 46119. 49190. 373. o
6724 4 7 -5 8 0 46216. 50834. 377. o
6724 3 7 5 -8 0 46216. 50834. 377. o
6724 2 -7 5 -8 0 46216. 50834. 377. o
6724 1 -7 -5 8 0 46216. 50834. 377. o
6725 3 -7 -5 -8 -1 693. 893. 373. o
6725 1 7 5 8 1 693. 893. 373. o
6726 3 7 5 -8 1 686. 658. 379. <
6726 1 -7 -5 8 -1 686. 658. 379. <
6727 3 -8 -5 -8 1 124. 194. 192. <
6727 1 8 5 8 -1 124. 194. 192. <
6728 3 8 5 -8 -1 118. 6. 200. <
6728 1 -8 -5 8 1 118. 6. 200. <
6729 4 -8 5 8 0 5489. 5568. 193. o
6729 3 -8 -5 -8 0 5489. 5568. 193. o
6729 2 8 -5 -8 0 5489. 5568. 193. o
6729 1 8 5 8 0 5489. 5568. 193. o
6730 4 8 -5 8 0 5631. 5599. 201. o
6730 3 8 5 -8 0 5631. 5599. 201. o
6730 2 -8 5 -8 0 5631. 5599. 201. o
6730 1 -8 -5 8 0 5631. 5599. 201. o
6731 3 -8 -5 -8 -1 471. 487. 193. o
6731 1 8 5 8 1 471. 487. 193. o
6732 3 8 5 -8 1 477. 565. 203. o
6732 1 -8 -5 8 -1 477. 565. 203. o
6733 3 9 5 -8 -1 792. 626. 523. <
6733 1 -9 -5 8 1 792. 626. 523. <
6734 4 9 -5 8 0 83752. 86732. 527. o
6734 3 9 5 -8 0 83752. 86732. 527. o
6734 2 -9 5 -8 0 83752. 86732. 527. o
6734 1 -9 -5 8 0 83752. 86732. 527. o
6735 3 9 5 -8 1 44. 334. 530. <
6735 1 -9 -5 8 -1 44. 334. 530. <
6736 3 10 5 -8 -1 190. 59. 244. <
6736 1 -10 -5 8 1 190. 59. 244. <
6737 4 10 -5 8 0 8694. 9273. 246. o
6737 3 10 5 -8 0 8694. 9273. 246. o
6737 2 -10 5 -8 0 8694. 9273. 246. o
6737 1 -10 -5 8 0 8694. 9273. 246. o
6738 3 10 5 -8 1 19. 65. 248. <
6738 1 -10 -5 8 -1 19. 65. 248. <
6739 3 9 -6 -8 1 740. 1314. 285. o
6739 1 -9 6 8 -1 740. 1314. 285. o
6740 4 9 6 8 0 38813. 34101. 282. o
6740 3 9 -6 -8 0 38813. 34101. 282. o
6740 2 -9 -6 -8 0 38813. 34101. 282. o
6740 1 -9 6 8 0 38813. 34101. 282. o
6741 3 9 -6 -8 -1 1032. 501. 279. <
6741 1 -9 6 8 1 1032. 501. 279. <
6742 3 8 -6 -8 1 950. 1142. 302. o
6742 1 -8 6 8 -1 950. 1142. 302. o
6743 4 8 6 8 0 54059. 44775. 301. o
6743 3 8 -6 -8 0 54059. 44775. 301. o
6743 2 -8 -6 -8 0 54059. 44775. 301. o
6743 1 -8 6 8 0 54059. 44775. 301. o
6744 3 8 -6 -8 -1 528. 591. 301. <
6744 1 -8 6 8 1 528. 591. 301. <
6745 3 7 -6 -8 1 240. 177. 228. <
6745 1 -7 6 8 -1 240. 177. 228. <
6746 4 7 6 8 0 27800. 23774. 228. o
6746 3 7 -6 -8 0 27800. 23774. 228. o
6746 2 -7 -6 -8 0 27800. 23774. 228. o
6746 1 -7 6 8 0 27800. 23774. 228. o
6747 3 7 -6 -8 -1 262. 205. 229. <
6747 1 -7 6 8 1 262. 205. 229. <
6748 3 6 -6 -8 1 248. 923. 286. o
6748 1 -6 6 8 -1 248. 923. 286. o
6749 4 6 6 8 0 47107. 41974. 288. o
6749 3 6 -6 -8 0 47107. 41974. 288. o
6749 2 -6 -6 -8 0 47107. 41974. 288. o
6749 1 -6 6 8 0 47107. 41974. 288. o
6750 3 6 -6 -8 -1 141. 150. 290. <
6750 1 -6 6 8 1 141. 150. 290. <
6751 3 5 -6 -8 1 115. 106. 293. <
6751 1 -5 6 8 -1 115. 106. 293. <
6752 4 5 6 8 0 34900. 35098. 294. o
6752 3 5 -6 -8 0 34900. 35098. 294. o
6752 2 -5 -6 -8 0 34900. 35098. 294. o
6752 1 -5 6 8 0 34900. 35098. 294. o
6753 3 5 -6 -8 -1 64. 108. 292. <
6753 1 -5 6 8 1 64. 108. 292. <
6754 3 4 -6 -8 1 48. 114. 206. <
6754 1 -4 6 8 -1 48. 114. 206. <
6755 4 4 6 8 0 12953. 13465. 208. o
6755 3 4 -6 -8 0 12953. 13465. 208. o
6755 2 -4 -6 -8 0 12953. 13465. 208. o
6755 1 -4 6 8 0 12953. 13465. 208. o
6756 3 4 -6 -8 -1 172. 159. 210. <
6756 1 -4 6 8 1 172. 159. 210. <
6757 3 3 -6 -8 1 337. 383. 265. <
6757 1 -3 6 8 -1 337. 383. 265. <
6758 4 3 6 8 0 63745. 64286. 321. o
6758 3 3 -6 -8 0 63745. 64286. 321. o
6758 2 -3 -6 -8 0 63745. 64286. 321. o
6758 1 -3 6 8 0 63745. 64286. 321. o
6759 3 3 -6 -8 -1 137. 192. 258. <
6759 1 -3 6 8 1 137. 192. 258. <
6760 3 2 -6 -8 1 50. 98. 46. o
6760 1 -2 6 8 -1 50. 98. 46. o
6761 4 2 6 8 0 72618. 75780. 398. o
6761 3 2 -6 -8 0 72618. 75780. 398. o
6761 2 -2 -6 -8 0 72618. 75780. 398. o
6761 1 -2 6 8 0 72618. 75780. 398. o
6762 3 2 -6 -8 -1 105. 112. 47. o
6762 1 -2 6 8 1 105. 112. 47. o
6763 3 1 -6 -8 1 411. 569. 214. o
6763 1 -1 6 8 -1 411. 569. 214. o
6764 4 1 6 8 0 46674. 48750. 262. o
6764 3 1 -6 -8 0 46674. 48750. 262. o
6764 2 -1 -6 -8 0 46674. 48750. 262. o
6764 1 -1 6 8 0 46674. 48750. 262. o
6765 3 1 -6 -8 -1 354. 380. 210. <
6765 1 -1 6 8 1 354. 380. 210. <
6766 3 0 -6 -8 1 78. 125. 254. <
6766 1 0 6 8 -1 78. 125. 254. <
6767 4 0 6 8 0 75766. 78191. 317. o
6767 3 0 -6 -8 0 75766. 78191. 317. o
6767 2 0 -6 -8 0 75766. 78191. 317. o
6767 1 0 6 8 0 75766. 78191. 317. o
6768 3 0 -6 -8 -1 386. 336. 252. <
6768 1 0 6 8 1 386. 336. 252. <
6769 3 -1 -6 -8 1 197. 330. 204. <
6769 1 1 6 8 -1 197. 330. 204. <
6770 4 -1 6 8 0 47004. 48643. 257. o
6770 3 -1 -6 -8 0 47004. 48643. 257. o
6770 2 1 -6 -8 0 47004. 48643. 257. o
6770 1 1 6 8 0 47004. 48643. 257. o
6771 3 -1 -6 -8 -1 115. 193. 401. <
6771 1 1 6 8 1 115. 193. 401. <
6772 3 -2 -6 -8 1 78. 381. 497. <
6772 1 2 6 8 -1 78. 381. 497. <
6773 4 -2 6 8 0 72877. 85457. 495. o
6773 3 -2 -6 -8 0 72877. 85457. 495. o
6773 2 2 -6 -8 0 72877. 85457. 495. o
6773 1 2 6 8 0 72877. 85457. 495. o
6774 3 -2 -6 -8 -1 259. 397. 493. <
6774 1 2 6 8 1 259. 397. 493. <
6775 3 -3 -6 -8 1 109. 713. 457. <
6775 1 3 6 8 -1 109. 713. 457. <
6776 4 -3 6 8 0 63415. 73542. 456. o
6776 3 -3 -6 -8 0 63415. 73542. 456. o
6776 2 3 -6 -8 0 63415. 73542. 456. o
6776 1 3 6 8 0 63415. 73542. 456. o
6777 3 -3 -6 -8 -1 39. 183. 455. <
6777 1 3 6 8 1 39. 183. 455. <
6778 3 -4 -6 -8 1 56. 164. 244. <
6778 1 4 6 8 -1 56. 164. 244. <
6779 4 -4 6 8 0 12835. 14894. 244. o
6779 3 -4 -6 -8 0 12835. 14894. 244. o
6779 2 4 -6 -8 0 12835. 14894. 244. o
6779 1 4 6 8 0 12835. 14894. 244. o
6780 3 -4 -6 -8 -1 13. 80. 244. <
6780 1 4 6 8 1 13. 80. 244. <
6781 3 -5 -6 -8 1 735. 757. 346. o
6781 1 5 6 8 -1 735. 757. 346. o
6782 4 -5 6 8 0 35524. 40265. 346. o
6782 3 -5 -6 -8 0 35524. 40265. 346. o
6782 2 5 -6 -8 0 35524. 40265. 346. o
6782 1 5 6 8 0 35524. 40265. 346. o
6783 3 -5 -6 -8 -1 164. 145. 346. <
6783 1 5 6 8 1 164. 145. 346. <
6784 3 -6 -6 -8 1 92. 939. 393. o
6784 1 6 6 8 -1 92. 939. 393. o
6785 3 6 6 -8 -1 94. 76. 55. <
6785 1 -6 -6 8 1 94. 76. 55. <
6786 4 -6 6 8 0 47660. 54246. 394. o
6786 3 -6 -6 -8 0 47660. 54246. 394. o
6786 2 6 -6 -8 0 47660. 54246. 394. o
6786 1 6 6 8 0 47660. 54246. 394. o
6787 3 -6 -6 -8 -1 15. 179. 394. <
6787 1 6 6 8 1 15. 179. 394. <
6788 3 -7 -6 -8 1 151. 752. 315. o
6788 1 7 6 8 -1 151. 752. 315. o
6789 4 -7 6 8 0 28863. 30374. 316. o
6789 3 -7 -6 -8 0 28863. 30374. 316. o
6789 2 7 -6 -8 0 28863. 30374. 316. o
6789 1 7 6 8 0 28863. 30374. 316. o
6790 3 -7 -6 -8 -1 173. 211. 316. <
6790 1 7 6 8 1 173. 211. 316. <
6791 3 10 6 -8 -1 195. 163. 79. o
6791 1 -10 -6 8 1 195. 163. 79. o
6792 3 9 -7 -8 1 257. 204. 159. <
6792 1 -9 7 8 -1 257. 204. 159. <
6793 4 9 7 8 0 3175. 2906. 158. o
6793 3 9 -7 -8 0 3175. 2906. 158. o
6793 2 -9 -7 -8 0 3175. 2906. 158. o
6793 1 -9 7 8 0 3175. 2906. 158. o
6794 3 9 -7 -8 -1 11. 34. 157. <
6794 1 -9 7 8 1 11. 34. 157. <
6795 3 8 -7 -8 1 1619. 727. 240. o
6795 1 -8 7 8 -1 1619. 727. 240. o
6796 4 8 7 8 0 26811. 23098. 240. o
6796 3 8 -7 -8 0 26811. 23098. 240. o
6796 2 -8 -7 -8 0 26811. 23098. 240. o
6796 1 -8 7 8 0 26811. 23098. 240. o
6797 3 8 -7 -8 -1 466. 426. 240. <
6797 1 -8 7 8 1 466. 426. 240. <
6798 3 7 -7 -8 1 478. 1514. 211. o
6798 1 -7 7 8 -1 478. 1514. 211. o
6799 4 7 7 8 0 19397. 15868. 211. o
6799 3 7 -7 -8 0 19397. 15868. 211. o
6799 2 -7 -7 -8 0 19397. 15868. 211. o
6799 1 -7 7 8 0 19397. 15868. 211. o
6800 3 7 -7 -8 -1 645. 361. 212. <
6800 1 -7 7 8 1 645. 361. 212. <
6801 3 6 -7 -8 1 179. 89. 232. <
6801 1 -6 7 8 -1 179. 89. 232. <
6802 4 6 7 8 0 27683. 24586. 233. o
6802 3 6 -7 -8 0 27683. 24586. 233. o
6802 2 -6 -7 -8 0 27683. 24586. 233. o
6802 1 -6 7 8 0 27683. 24586. 233. o
6803 3 6 -7 -8 -1 277. 227. 177. <
6803 1 -6 7 8 1 277. 227. 177. <
6804 3 5 -7 -8 1 163. 102. 228. <
6804 1 -5 7 8 -1 163. 102. 228. <
6805 4 5 7 8 0 43501. 40491. 291. o
6805 3 5 -7 -8 0 43501. 40491. 291. o
6805 2 -5 -7 -8 0 43501. 40491. 291. o
6805 1 -5 7 8 0 43501. 40491. 291. o
6806 3 5 -7 -8 -1 200. 117. 231. <
6806 1 -5 7 8 1 200. 117. 231. <
6807 3 4 -7 -8 1 80. 150. 279. <
6807 1 -4 7 8 -1 80. 150. 279. <
6808 4 4 7 8 0 51634. 53738. 337. o
6808 3 4 -7 -8 0 51634. 53738. 337. o
6808 2 -4 -7 -8 0 51634. 53738. 337. o
6808 1 -4 7 8 0 51634. 53738. 337. o
6809 3 4 -7 -8 -1 241. 209. 272. <
6809 1 -4 7 8 1 241. 209. 272. <
6810 3 3 -7 -8 1 514. 592. 66. o
6810 1 -3 7 8 -1 514. 592. 66. o
6811 4 3 7 8 0 13957. 14324. 199. o
6811 3 3 -7 -8 0 13957. 14324. 199. o
6811 2 -3 -7 -8 0 13957. 14324. 199. o
6811 1 -3 7 8 0 13957. 14324. 199. o
6812 3 3 -7 -8 -1 712. 750. 76. o
6812 1 -3 7 8 1 712. 750. 76. o
6813 3 2 -7 -8 1 127. 133. 214. <
6813 1 -2 7 8 -1 127. 133. 214. <
6814 4 2 7 8 0 20560. 20015. 213. o
6814 3 2 -7 -8 0 20560. 20015. 213. o
6814 2 -2 -7 -8 0 20560. 20015. 213. o
6814 1 -2 7 8 0 20560. 20015. 213. o
6815 3 2 -7 -8 -1 332. 170. 213. <
6815 1 -2 7 8 1 332. 170. 213. <
6816 3 1 -7 -8 1 88. 103. 334. <
6816 1 -1 7 8 -1 88. 103. 334. <
6817 4 1 7 8 0 72147. 73343. 335. o
6817 3 1 -7 -8 0 72147. 73343. 335. o
6817 2 -1 -7 -8 0 72147. 73343. 335. o
6817 1 -1 7 8 0 72147. 73343. 335. o
6818 3 1 -7 -8 -1 505. 667. 264. o
6818 1 -1 7 8 1 505. 667. 264. o
6819 3 0 -7 -8 1 356. 238. 96. o
6819 1 0 7 8 -1 356. 238. 96. o
6820 4 0 7 8 0 445. 580. 96. o
6820 3 0 -7 -8 0 445. 580. 96. o
6820 2 0 -7 -8 0 445. 580. 96. o
6820 1 0 7 8 0 445. 580. 96. o
6821 3 0 -7 -8 -1 234. 210. 94. o
6821 1 0 7 8 1 234. 210. 94. o
6822 3 -1 -7 -8 1 804. 735. 517. <
6822 1 1 7 8 -1 804. 735. 517. <
6823 4 -1 7 8 0 73038. 81269. 515. o
6823 3 -1 -7 -8 0 73038. 81269. 515. o
6823 2 1 -7 -8 0 73038. 81269. 515. o
6823 1 1 7 8 0 73038. 81269. 515. o
6824 3 -1 -7 -8 -1 40. 260. 512. <
6824 1 1 7 8 1 40. 260. 512. <
6825 3 -2 -7 -8 1 199. 157. 307. <
6825 1 2 7 8 -1 199. 157. 307. <
6826 4 -2 7 8 0 21314. 23686. 306. o
6826 3 -2 -7 -8 0 21314. 23686. 306. o
6826 2 2 -7 -8 0 21314. 23686. 306. o
6826 1 2 7 8 0 21314. 23686. 306. o
6827 3 -2 -7 -8 -1 67. 85. 305. <
6827 1 2 7 8 1 67. 85. 305. <
6828 3 -3 -7 -8 1 418. 339. 268. <
6828 1 3 7 8 -1 418. 339. 268. <
6829 4 -3 7 8 0 14129. 16175. 268. o
6829 3 -3 -7 -8 0 14129. 16175. 268. o
6829 2 3 -7 -8 0 14129. 16175. 268. o
6829 1 3 7 8 0 14129. 16175. 268. o
6830 3 -3 -7 -8 -1 371. 228. 267. <
6830 1 3 7 8 1 371. 228. 267. <
6831 3 -4 -7 -8 1 84. 278. 438. <
6831 1 4 7 8 -1 84. 278. 438. <
6832 4 -4 7 8 0 51995. 61829. 438. o
6832 3 -4 -7 -8 0 51995. 61829. 438. o
6832 2 4 -7 -8 0 51995. 61829. 438. o
6832 1 4 7 8 0 51995. 61829. 438. o
6833 3 -4 -7 -8 -1 30. 99. 438. <
6833 1 4 7 8 1 30. 99. 438. <
6834 3 -5 -7 -8 1 259. 735. 401. <
6834 1 5 7 8 -1 259. 735. 401. <
6835 4 -5 7 8 0 44210. 51340. 402. o
6835 3 -5 -7 -8 0 44210. 51340. 402. o
6835 2 5 -7 -8 0 44210. 51340. 402. o
6835 1 5 7 8 0 44210. 51340. 402. o
6836 3 -5 -7 -8 -1 549. 747. 403. <
6836 1 5 7 8 1 549. 747. 403. <
6837 3 -6 -7 -8 1 595. 533. 323. <
6837 1 6 7 8 -1 595. 533. 323. <
6838 4 -6 7 8 0 28400. 30692. 324. o
6838 3 -6 -7 -8 0 28400. 30692. 324. o
6838 2 6 -7 -8 0 28400. 30692. 324. o
6838 1 6 7 8 0 28400. 30692. 324. o
6839 3 -6 -7 -8 -1 67. 217. 324. <
6839 1 6 7 8 1 67. 217. 324. <
6840 3 8 -8 -8 1 332. 222. 253. <
6840 1 -8 8 8 -1 332. 222. 253. <
6841 4 8 8 8 0 28427. 25121. 254. o
6841 3 8 -8 -8 0 28427. 25121. 254. o
6841 2 -8 -8 -8 0 28427. 25121. 254. o
6841 1 -8 8 8 0 28427. 25121. 254. o
6842 3 8 -8 -8 -1 42. 101. 254. <
6842 1 -8 8 8 1 42. 101. 254. <
6843 3 7 -8 -8 1 423. 1628. 356. o
6843 1 -7 8 8 -1 423. 1628. 356. o
6844 4 7 8 8 0 26714. 28216. 361. o
6844 3 7 -8 -8 0 26714. 28216. 361. o
6844 2 -7 -8 -8 0 26714. 28216. 361. o
6844 1 -7 8 8 0 26714. 28216. 361. o
6845 3 7 -8 -8 -1 1319. 956. 365. o
6845 1 -7 8 8 1 1319. 956. 365. o
6846 3 6 -8 -8 1 703. 412. 307. <
6846 1 -6 8 8 -1 703. 412. 307. <
6847 4 6 8 8 0 49297. 44059. 307. o
6847 3 6 -8 -8 0 49297. 44059. 307. o
6847 2 -6 -8 -8 0 49297. 44059. 307. o
6847 1 -6 8 8 0 49297. 44059. 307. o
6848 3 6 -8 -8 -1 1046. 677. 308. o
6848 1 -6 8 8 1 1046. 677. 308. o
6849 3 5 -8 -8 1 1858. 1409. 218. o
6849 1 -5 8 8 -1 1858. 1409. 218. o
6850 4 5 8 8 0 4226. 4098. 219. o
6850 3 5 -8 -8 0 4226. 4098. 219. o
6850 2 -5 -8 -8 0 4226. 4098. 219. o
6850 1 -5 8 8 0 4226. 4098. 219. o
6851 3 5 -8 -8 -1 434. 478. 221. o
6851 1 -5 8 8 1 434. 478. 221. o
6852 3 4 -8 -8 1 157. 27. 177. <
6852 1 -4 8 8 -1 157. 27. 177. <
6853 4 4 8 8 0 2050. 1835. 178. o
6853 3 4 -8 -8 0 2050. 1835. 178. o
6853 2 -4 -8 -8 0 2050. 1835. 178. o
6853 1 -4 8 8 0 2050. 1835. 178. o
6854 3 4 -8 -8 -1 153. 16. 180. <
6854 1 -4 8 8 1 153. 16. 180. <
6855 3 3 -8 -8 1 34. -15. 176. <
6855 1 -3 8 8 -1 34. -15. 176. <
6856 4 3 8 8 0 2558. 2430. 178. o
6856 3 3 -8 -8 0 2558. 2430. 178. o
6856 2 -3 -8 -8 0 2558. 2430. 178. o
6856 1 -3 8 8 0 2558. 2430. 178. o
6857 3 3 -8 -8 -1 189. 203. 180. <
6857 1 -3 8 8 1 189. 203. 180. <
6858 3 2 -8 -8 1 640. 623. 256. o
6858 1 -2 8 8 -1 640. 623. 256. o
6859 4 2 8 8 0 56238. 56990. 331. o
6859 3 2 -8 -8 0 56238. 56990. 331. o
6859 2 -2 -8 -8 0 56238. 56990. 331. o
6859 1 -2 8 8 0 56238. 56990. 331. o
6860 3 2 -8 -8 -1 540. 411. 252. <
6860 1 -2 8 8 1 540. 411. 252. <
6861 3 1 -8 -8 1 249. 240. 128. <
6861 1 -1 8 8 -1 249. 240. 128. <
6862 4 1 8 8 0 5535. 5416. 150. o
6862 3 1 -8 -8 0 5535. 5416. 150. o
6862 2 -1 -8 -8 0 5535. 5416. 150. o
6862 1 -1 8 8 0 5535. 5416. 150. o
6863 3 1 -8 -8 -1 262. 436. 150. o
6863 1 -1 8 8 1 262. 436. 150. o
6864 3 0 -8 -8 1 876. 660. 261. o
6864 1 0 8 8 -1 876. 660. 261. o
6865 4 0 8 8 0 36022. 36077. 262. o
6865 3 0 -8 -8 0 36022. 36077. 262. o
6865 2 0 -8 -8 0 36022. 36077. 262. o
6865 1 0 8 8 0 36022. 36077. 262. o
6866 3 0 -8 -8 -1 40. 129. 263. <
6866 1 0 8 8 1 40. 129. 263. <
6867 3 -1 -8 -8 1 172. 107. 149. <
6867 1 1 8 8 -1 172. 107. 149. <
6868 4 -1 8 8 0 5634. 5338. 150. o
6868 3 -1 -8 -8 0 5634. 5338. 150. o
6868 2 1 -8 -8 0 5634. 5338. 150. o
6868 1 1 8 8 0 5634. 5338. 150. o
6869 3 -1 -8 -8 -1 171. 122. 151. <
6869 1 1 8 8 1 171. 122. 151. <
6870 3 -2 -8 -8 1 111. 399. 475. <
6870 1 2 8 8 -1 111. 399. 475. <
6871 4 -2 8 8 0 55990. 64262. 474. o
6871 3 -2 -8 -8 0 55990. 64262. 474. o
6871 2 2 -8 -8 0 55990. 64262. 474. o
6871 1 2 8 8 0 55990. 64262. 474. o
6872 3 -2 -8 -8 -1 213. 124. 472. <
6872 1 2 8 8 1 213. 124. 472. <
6873 3 -3 -8 -8 1 309. 323. 207. <
6873 1 3 8 8 -1 309. 323. 207. <
6874 4 -3 8 8 0 2351. 2841. 207. o
6874 3 -3 -8 -8 0 2351. 2841. 207. o
6874 2 3 -8 -8 0 2351. 2841. 207. o
6874 1 3 8 8 0 2351. 2841. 207. o
6875 3 -3 -8 -8 -1 44. 42. 207. <
6875 1 3 8 8 1 44. 42. 207. <
6876 3 -4 -8 -8 1 52. 49. 196. <
6876 1 4 8 8 -1 52. 49. 196. <
6877 4 -4 8 8 0 2232. 2511. 196. o
6877 3 -4 -8 -8 0 2232. 2511. 196. o
6877 2 4 -8 -8 0 2232. 2511. 196. o
6877 1 4 8 8 0 2232. 2511. 196. o
6878 3 -4 -8 -8 -1 138. 23. 196. <
6878 1 4 8 8 1 138. 23. 196. <
6879 3 -5 -8 -8 1 17. 104. 209. <
6879 1 5 8 8 -1 17. 104. 209. <
6880 4 -5 8 8 0 4152. 4363. 209. o
6880 3 -5 -8 -8 0 4152. 4363. 209. o
6880 2 5 -8 -8 0 4152. 4363. 209. o
6880 1 5 8 8 0 4152. 4363. 209. o
6881 3 -5 -8 -8 -1 468. 517. 209. o
6881 1 5 8 8 1 468. 517. 209. o
6882 3 7 -9 -8 1 14. 45. 228. <
6882 1 -7 9 8 -1 14. 45. 228. <
6883 4 7 9 8 0 3067. 3650. 230. o
6883 3 7 -9 -8 0 3067. 3650. 230. o
6883 2 -7 -9 -8 0 3067. 3650. 230. o
6883 1 -7 9 8 0 3067. 3650. 230. o
6884 3 7 -9 -8 -1 218. 47. 231. <
6884 1 -7 9 8 1 218. 47. 231. <
6885 3 6 -9 -8 1 742. 602. 419. <
6885 1 -6 9 8 -1 742. 602. 419. <
6886 4 6 9 8 0 34195. 39750. 422. o
6886 3 6 -9 -8 0 34195. 39750. 422. o
6886 2 -6 -9 -8 0 34195. 39750. 422. o
6886 1 -6 9 8 0 34195. 39750. 422. o
6887 3 6 -9 -8 -1 622. 636. 425. <
6887 1 -6 9 8 1 622. 636. 425. <
6888 3 5 -9 -8 1 1077. 668. 369. <
6888 1 -5 9 8 -1 1077. 668. 369. <
6889 4 5 9 8 0 71567. 66723. 371. o
6889 3 5 -9 -8 0 71567. 66723. 371. o
6889 2 -5 -9 -8 0 71567. 66723. 371. o
6889 1 -5 9 8 0 71567. 66723. 371. o
6890 3 5 -9 -8 -1 117. 266. 373. <
6890 1 -5 9 8 1 117. 266. 373. <
6891 3 4 -9 -8 1 192. 304. 301. <
6891 1 -4 9 8 -1 192. 304. 301. <
6892 4 4 9 8 0 21205. 21753. 304. o
6892 3 4 -9 -8 0 21205. 21753. 304. o
6892 2 -4 -9 -8 0 21205. 21753. 304. o
6892 1 -4 9 8 0 21205. 21753. 304. o
6893 3 4 -9 -8 -1 314. 306. 83. o
6893 1 -4 9 8 1 314. 306. 83. o
6894 3 3 -9 -8 1 52. 96. 205. <
6894 1 -3 9 8 -1 52. 96. 205. <
6895 4 3 9 8 0 20221. 21184. 251. o
6895 3 3 -9 -8 0 20221. 21184. 251. o
6895 2 -3 -9 -8 0 20221. 21184. 251. o
6895 1 -3 9 8 0 20221. 21184. 251. o
6896 3 3 -9 -8 -1 42. 106. 251. <
6896 1 -3 9 8 1 42. 106. 251. <
6897 3 2 -9 -8 1 132. 317. 406. <
6897 1 -2 9 8 -1 132. 317. 406. <
6898 4 2 9 8 0 73935. 77348. 406. o
6898 3 2 -9 -8 0 73935. 77348. 406. o
6898 2 -2 -9 -8 0 73935. 77348. 406. o
6898 1 -2 9 8 0 73935. 77348. 406. o
6899 3 2 -9 -8 -1 744. 671. 406. <
6899 1 -2 9 8 1 744. 671. 406. <
6900 3 1 -9 -8 1 344. 274. 149. <
6900 1 -1 9 8 -1 344. 274. 149. <
6901 4 1 9 8 0 1068. 1487. 149. o
6901 3 1 -9 -8 0 1068. 1487. 149. o
6901 2 -1 -9 -8 0 1068. 1487. 149. o
6901 1 -1 9 8 0 1068. 1487. 149. o
6902 3 1 -9 -8 -1 66. 66. 150. <
6902 1 -1 9 8 1 66. 66. 150. <
6903 3 0 -9 -8 1 363. 368. 139. o
6903 1 0 9 8 -1 363. 368. 139. o
6904 4 0 9 8 0 608. 610. 140. o
6904 3 0 -9 -8 0 608. 610. 140. o
6904 2 0 -9 -8 0 608. 610. 140. o
6904 1 0 9 8 0 608. 610. 140. o
6905 3 0 -9 -8 -1 386. 189. 141. <
6905 1 0 9 8 1 386. 189. 141. <
6906 3 -1 -9 -8 1 229. 243. 153. <
6906 1 1 9 8 -1 229. 243. 153. <
6907 4 -1 9 8 0 1105. 1407. 155. o
6907 3 -1 -9 -8 0 1105. 1407. 155. o
6907 2 1 -9 -8 0 1105. 1407. 155. o
6907 1 1 9 8 0 1105. 1407. 155. o
6908 3 -1 -9 -8 -1 57. 84. 156. <
6908 1 1 9 8 1 57. 84. 156. <
6909 3 -2 -9 -8 1 262. 640. 572. <
6909 1 2 9 8 -1 262. 640. 572. <
6910 4 -2 9 8 0 75095. 86628. 571. o
6910 3 -2 -9 -8 0 75095. 86628. 571. o
6910 2 2 -9 -8 0 75095. 86628. 571. o
6910 1 2 9 8 0 75095. 86628. 571. o
6911 3 -2 -9 -8 -1 1313. 745. 570. <
6911 1 2 9 8 1 1313. 745. 570. <
6912 3 -3 -9 -8 1 23. 170. 336. <
6912 1 3 9 8 -1 23. 170. 336. <
6913 4 -3 9 8 0 20376. 23938. 336. o
6913 3 -3 -9 -8 0 20376. 23938. 336. o
6913 2 3 -9 -8 0 20376. 23938. 336. o
6913 1 3 9 8 0 20376. 23938. 336. o
6914 3 -3 -9 -8 -1 2. 67. 336. <
6914 1 3 9 8 1 2. 67. 336. <
6915 3 -4 -9 -8 1 175. 186. 330. <
6915 1 4 9 8 -1 175. 186. 330. <
6916 4 -4 9 8 0 22074. 24308. 329. o
6916 3 -4 -9 -8 0 22074. 24308. 329. o
6916 2 4 -9 -8 0 22074. 24308. 329. o
6916 1 4 9 8 0 22074. 24308. 329. o
6917 3 -4 -9 -8 -1 16. 61. 330. <
6917 1 4 9 8 1 16. 61. 330. <
6918 3 5 -10 -8 1 1103. 1038. 277. o
6918 1 -5 10 8 -1 1103. 1038. 277. o
6919 4 5 10 8 0 6609. 7770. 279. o
6919 3 5 -10 -8 0 6609. 7770. 279. o
6919 2 -5 -10 -8 0 6609. 7770. 279. o
6919 1 -5 10 8 0 6609. 7770. 279. o
6920 3 5 -10 -8 -1 403. 502. 281. <
6920 1 -5 10 8 1 403. 502. 281. <
6921 3 4 -10 -8 1 25. 139. 155. <
6921 1 -4 10 8 -1 25. 139. 155. <
6922 4 4 10 8 0 723. 610. 155. o
6922 3 4 -10 -8 0 723. 610. 155. o
6922 2 -4 -10 -8 0 723. 610. 155. o
6922 1 -4 10 8 0 723. 610. 155. o
6923 3 4 -10 -8 -1 224. 169. 156. <
6923 1 -4 10 8 1 224. 169. 156. <
6924 3 3 -10 -8 1 126. 171. 171. <
6924 1 -3 10 8 -1 126. 171. 171. <
6925 4 3 10 8 0 2966. 3154. 171. o
6925 3 3 -10 -8 0 2966. 3154. 171. o
6925 2 -3 -10 -8 0 2966. 3154. 171. o
6925 1 -3 10 8 0 2966. 3154. 171. o
6926 3 3 -10 -8 -1 1052. 774. 172. o
6926 1 -3 10 8 1 1052. 774. 172. o
6927 3 2 -10 -8 1 405. 370. 406. <
6927 1 -2 10 8 -1 405. 370. 406. <
6928 4 2 10 8 0 66894. 70840. 407. o
6928 3 2 -10 -8 0 66894. 70840. 407. o
6928 2 -2 -10 -8 0 66894. 70840. 407. o
6928 1 -2 10 8 0 66894. 70840. 407. o
6929 3 2 -10 -8 -1 231. 228. 409. <
6929 1 -2 10 8 1 231. 228. 409. <
6930 3 1 -10 -8 1 490. 200. 374. <
6930 1 -1 10 8 -1 490. 200. 374. <
6931 4 1 10 8 0 52555. 57774. 375. o
6931 3 1 -10 -8 0 52555. 57774. 375. o
6931 2 -1 -10 -8 0 52555. 57774. 375. o
6931 1 -1 10 8 0 52555. 57774. 375. o
6932 3 1 -10 -8 -1 54. 199. 377. <
6932 1 -1 10 8 1 54. 199. 377. <
6933 3 0 -10 -8 1 40. 189. 428. <
6933 1 0 10 8 -1 40. 189. 428. <
6934 4 0 10 8 0 76405. 83250. 431. o
6934 3 0 -10 -8 0 76405. 83250. 431. o
6934 2 0 -10 -8 0 76405. 83250. 431. o
6934 1 0 10 8 0 76405. 83250. 431. o
6935 3 0 -10 -8 -1 83. 337. 431. <
6935 1 0 10 8 1 83. 337. 431. <
6936 3 -1 -10 -8 1 6. 305. 358. <
6936 1 1 10 8 -1 6. 305. 358. <
6937 4 -1 10 8 0 52190. 56414. 350. o
6937 3 -1 -10 -8 0 52190. 56414. 350. o
6937 2 1 -10 -8 0 52190. 56414. 350. o
6937 1 1 10 8 0 52190. 56414. 350. o
6938 3 -1 -10 -8 -1 26. 57. 341. <
6938 1 1 10 8 1 26. 57. 341. <
6939 3 -2 -10 -8 1 189. 555. 563. <
6939 1 2 10 8 -1 189. 555. 563. <
6940 4 -2 10 8 0 67569. 75707. 563. o
6940 3 -2 -10 -8 0 67569. 75707. 563. o
6940 2 2 -10 -8 0 67569. 75707. 563. o
6940 1 2 10 8 0 67569. 75707. 563. o
6941 3 -2 -10 -8 -1 290. 550. 562. <
6941 1 2 10 8 1 290. 550. 562. <
6942 3 -3 -10 -8 1 1692. 1570. 248. o
6942 1 3 10 8 -1 1692. 1570. 248. o
6943 4 -3 10 8 0 2794. 3412. 247. o
6943 3 -3 -10 -8 0 2794. 3412. 247. o
6943 2 3 -10 -8 0 2794. 3412. 247. o
6943 1 3 10 8 0 2794. 3412. 247. o
6944 3 -3 -10 -8 -1 67. 137. 247. <
6944 1 3 10 8 1 67. 137. 247. <
6945 3 3 -11 -8 1 652. 190. 323. <
6945 1 -3 11 8 -1 652. 190. 323. <
6946 4 3 11 8 0 39440. 41200. 324. o
6946 3 3 -11 -8 0 39440. 41200. 324. o
6946 2 -3 -11 -8 0 39440. 41200. 324. o
6946 1 -3 11 8 0 39440. 41200. 324. o
6947 3 3 -11 -8 -1 41. 109. 326. <
6947 1 -3 11 8 1 41. 109. 326. <
6948 3 2 -11 -8 1 34. 17. 247. <
6948 1 -2 11 8 -1 34. 17. 247. <
6949 4 2 11 8 0 17701. 18773. 248. o
6949 3 2 -11 -8 0 17701. 18773. 248. o
6949 2 -2 -11 -8 0 17701. 18773. 248. o
6949 1 -2 11 8 0 17701. 18773. 248. o
6950 3 2 -11 -8 -1 83. 80. 249. <
6950 1 -2 11 8 1 83. 80. 249. <
6951 3 1 -11 -8 1 103. 11. 213. <
6951 1 -1 11 8 -1 103. 11. 213. <
6952 4 1 11 8 0 6483. 6950. 207. o
6952 3 1 -11 -8 0 6483. 6950. 207. o
6952 2 -1 -11 -8 0 6483. 6950. 207. o
6952 1 -1 11 8 0 6483. 6950. 207. o
6953 3 1 -11 -8 -1 336. 163. 203. <
6953 1 -1 11 8 1 336. 163. 203. <
6954 3 0 -11 -8 1 14. 0. 168. <
6954 1 0 11 8 -1 14. 0. 168. <
6955 4 0 11 8 0 224. 103. 165. <
6955 3 0 -11 -8 0 224. 103. 165. <
6955 2 0 -11 -8 0 224. 103. 165. <
6955 1 0 11 8 0 224. 103. 165. <
6956 3 0 -11 -8 -1 245. -1. 162. <
6956 1 0 11 8 1 245. -1. 162. <
6957 3 -1 -11 -8 1 282. 300. 199. <
6957 1 1 11 8 -1 282. 300. 199. <
6958 4 -1 11 8 0 6664. 7070. 196. o
6958 3 -1 -11 -8 0 6664. 7070. 196. o
6958 2 1 -11 -8 0 6664. 7070. 196. o
6958 1 1 11 8 0 6664. 7070. 196. o
6959 3 -1 -11 -8 -1 162. 182. 194. <
6959 1 1 11 8 1 162. 182. 194. <
6960 3 -2 -11 -8 1 363. 135. 375. <
6960 1 2 11 8 -1 363. 135. 375. <
6961 4 -2 11 8 0 17901. 20341. 374. o
6961 3 -2 -11 -8 0 17901. 20341. 374. o
6961 2 2 -11 -8 0 17901. 20341. 374. o
6961 1 2 11 8 0 17901. 20341. 374. o
6962 3 -2 -11 -8 -1 225. 227. 374. <
6962 1 2 11 8 1 225. 227. 374. <
6963 3 -3 -11 -8 1 442. 870. 443. <
6963 1 3 11 8 -1 442. 870. 443. <
6964 4 -3 11 8 0 40147. 44218. 443. o
6964 3 -3 -11 -8 0 40147. 44218. 443. o
6964 2 3 -11 -8 0 40147. 44218. 443. o
6964 1 3 11 8 0 40147. 44218. 443. o
6965 4 0 0 9 0 30. 64. 122. <
6965 3 0 0 -9 0 30. 64. 122. <
6965 2 0 0 -9 0 30. 64. 122. <
6965 1 0 0 9 0 30. 64. 122. <
6966 3 0 0 -9 -1 5. 6. 122. <
6966 1 0 0 9 1 5. 6. 122. <
6967 3 0 0 -9 1 5. -1. 124. <
6967 1 0 0 9 -1 5. -1. 124. <
6968 3 -1 0 -9 1 118. 83. 345. <
6968 1 1 0 9 -1 118. 83. 345. <
6969 3 1 0 -9 -1 115. 207. 356. <
6969 1 -1 0 9 1 115. 207. 356. <
6970 4 -1 0 9 0 50929. 50996. 342. o
6970 3 -1 0 -9 0 50929. 50996. 342. o
6970 2 1 0 -9 0 50929. 50996. 342. o
6970 1 1 0 9 0 50929. 50996. 342. o
6971 4 1 0 9 0 50841. 52249. 361. o
6971 3 1 0 -9 0 50841. 52249. 361. o
6971 2 -1 0 -9 0 50841. 52249. 361. o
6971 1 -1 0 9 0 50841. 52249. 361. o
6972 3 -1 0 -9 -1 427. 205. 340. <
6972 1 1 0 9 1 427. 205. 340. <
6973 3 1 0 -9 1 419. 415. 365. <
6973 1 -1 0 9 -1 419. 415. 365. <
6974 3 -2 0 -9 1 1265. 877. 171. o
6974 1 2 0 9 -1 1265. 877. 171. o
6975 3 2 0 -9 -1 1261. 947. 189. o
6975 1 -2 0 9 1 1261. 947. 189. o
6976 4 -2 0 9 0 4484. 4662. 170. o
6976 3 -2 0 -9 0 4484. 4662. 170. o
6976 2 2 0 -9 0 4484. 4662. 170. o
6976 1 2 0 9 0 4484. 4662. 170. o
6977 4 2 0 9 0 4470. 4070. 193. o
6977 3 2 0 -9 0 4470. 4070. 193. o
6977 2 -2 0 -9 0 4470. 4070. 193. o
6977 1 -2 0 9 0 4470. 4070. 193. o
6978 3 -2 0 -9 -1 939. 554. 169. o
6978 1 2 0 9 1 939. 554. 169. o
6979 3 2 0 -9 1 951. 687. 196. o
6979 1 -2 0 9 -1 951. 687. 196. o
6980 3 -3 0 -9 1 483. 251. 261. <
6980 1 3 0 9 -1 483. 251. 261. <
6981 3 3 0 -9 -1 478. 281. 297. <
6981 1 -3 0 9 1 478. 281. 297. <
6982 4 -3 0 9 0 20301. 22231. 258. o
6982 3 -3 0 -9 0 20301. 22231. 258. o
6982 2 3 0 -9 0 20301. 22231. 258. o
6982 1 3 0 9 0 20301. 22231. 258. o
6983 4 3 0 9 0 20138. 22380. 302. o
6983 3 3 0 -9 0 20138. 22380. 302. o
6983 2 -3 0 -9 0 20138. 22380. 302. o
6983 1 -3 0 9 0 20138. 22380. 302. o
6984 3 -3 0 -9 -1 387. 234. 256. <
6984 1 3 0 9 1 387. 234. 256. <
6985 3 3 0 -9 1 385. 320. 306. <
6985 1 -3 0 9 -1 385. 320. 306. <
6986 3 -4 0 -9 1 49. 29. 157. <
6986 1 4 0 9 -1 49. 29. 157. <
6987 3 4 0 -9 -1 49. 11. 34. <
6987 1 -4 0 9 1 49. 11. 34. <
6988 4 -4 0 9 0 48. 268. 155. <
6988 3 -4 0 -9 0 48. 268. 155. <
6988 2 4 0 -9 0 48. 268. 155. <
6988 1 4 0 9 0 48. 268. 155. <
6989 4 4 0 9 0 47. 352. 43. o
6989 3 4 0 -9 0 47. 352. 43. o
6989 2 -4 0 -9 0 47. 352. 43. o
6989 1 -4 0 9 0 47. 352. 43. o
6990 3 -4 0 -9 -1 2. 8. 154. <
6990 1 4 0 9 1 2. 8. 154. <
6991 3 4 0 -9 1 2. -4. 34. <
6991 1 -4 0 9 -1 2. -4. 34. <
6992 3 -5 0 -9 1 78. 84. 211. <
6992 1 5 0 9 -1 78. 84. 211. <
6993 3 5 0 -9 -1 82. 43. 38. <
6993 1 -5 0 9 1 82. 43. 38. <
6994 4 -5 0 9 0 5970. 6948. 210. o
6994 3 -5 0 -9 0 5970. 6948. 210. o
6994 2 5 0 -9 0 5970. 6948. 210. o
6994 1 5 0 9 0 5970. 6948. 210. o
6995 4 5 0 9 0 5879. 6396. 108. o
6995 3 5 0 -9 0 5879. 6396. 108. o
6995 2 -5 0 -9 0 5879. 6396. 108. o
6995 1 -5 0 9 0 5879. 6396. 108. o
6996 3 -5 0 -9 -1 111. 95. 210. <
6996 1 5 0 9 1 111. 95. 210. <
6997 3 5 0 -9 1 116. 66. 40. <
6997 1 -5 0 9 -1 116. 66. 40. <
6998 3 -6 0 -9 1 1120. 871. 207. o
6998 1 6 0 9 -1 1120. 871. 207. o
6999 3 6 0 -9 -1 1105. 1072. 68. o
6999 1 -6 0 9 1 1105. 1072. 68. o
7000 4 -6 0 9 0 3953. 4366. 207. o
7000 3 -6 0 -9 0 3953. 4366. 207. o
7000 2 6 0 -9 0 3953. 4366. 207. o
7000 1 6 0 9 0 3953. 4366. 207. o
7001 4 6 0 9 0 3962. 3745. 99. o
7001 3 6 0 -9 0 3962. 3745. 99. o
7001 2 -6 0 -9 0 3962. 3745. 99. o
7001 1 -6 0 9 0 3962. 3745. 99. o
7002 3 -6 0 -9 -1 908. 711. 206. o
7002 1 6 0 9 1 908. 711. 206. o
7003 3 6 0 -9 1 909. 906. 67. o
7003 1 -6 0 9 -1 909. 906. 67. o
7004 3 -7 0 -9 1 129. 67. 208. <
7004 1 7 0 9 -1 129. 67. 208. <
7005 3 7 0 -9 -1 132. 122. 47. o
7005 1 -7 0 9 1 132. 122. 47. o
7006 4 -7 0 9 0 3260. 3701. 208. o
7006 3 -7 0 -9 0 3260. 3701. 208. o
7006 2 7 0 -9 0 3260. 3701. 208. o
7006 1 7 0 9 0 3260. 3701. 208. o
7007 4 7 0 9 0 3186. 3264. 97. o
7007 3 7 0 -9 0 3186. 3264. 97. o
7007 2 -7 0 -9 0 3186. 3264. 97. o
7007 1 -7 0 9 0 3186. 3264. 97. o
7008 3 -7 0 -9 -1 887. 896. 207. o
7008 1 7 0 9 1 887. 896. 207. o
7009 3 7 0 -9 1 894. 938. 72. o
7009 1 -7 0 9 -1 894. 938. 72. o
7010 3 -8 0 -9 1 593. 631. 219. o
7010 1 8 0 9 -1 593. 631. 219. o
7011 3 8 0 -9 -1 592. 571. 149. o
7011 1 -8 0 9 1 592. 571. 149. o
7012 4 -8 0 9 0 2631. 2530. 219. o
7012 3 -8 0 -9 0 2631. 2530. 219. o
7012 2 8 0 -9 0 2631. 2530. 219. o
7012 1 8 0 9 0 2631. 2530. 219. o
7013 4 8 0 9 0 2620. 2446. 150. o
7013 3 8 0 -9 0 2620. 2446. 150. o
7013 2 -8 0 -9 0 2620. 2446. 150. o
7013 1 -8 0 9 0 2620. 2446. 150. o
7014 3 -8 0 -9 -1 471. 561. 219. o
7014 1 8 0 9 1 471. 561. 219. o
7015 3 8 0 -9 1 480. 571. 150. o
7015 1 -8 0 9 -1 480. 571. 150. o
7016 3 -9 0 -9 1 726. 839. 214. o
7016 1 9 0 9 -1 726. 839. 214. o
7017 3 9 0 -9 -1 723. 422. 145. o
7017 1 -9 0 9 1 723. 422. 145. o
7018 4 -9 0 9 0 1783. 837. 214. o
7018 3 -9 0 -9 0 1783. 837. 214. o
7018 2 9 0 -9 0 1783. 837. 214. o
7018 1 9 0 9 0 1783. 837. 214. o
7019 4 9 0 9 0 1823. 2131. 146. o
7019 3 9 0 -9 0 1823. 2131. 146. o
7019 2 -9 0 -9 0 1823. 2131. 146. o
7019 1 -9 0 9 0 1823. 2131. 146. o
7020 3 -9 0 -9 -1 40. 834. 213. o
7020 1 9 0 9 1 40. 834. 213. o
7021 3 9 0 -9 1 48. 12. 146. <
7021 1 -9 0 9 -1 48. 12. 146. <
7022 3 -10 0 -9 1 175. 56. 214. <
7022 1 10 0 9 -1 175. 56. 214. <
7023 3 10 0 -9 -1 173. 79. 138. <
7023 1 -10 0 9 1 173. 79. 138. <
7024 4 -10 0 9 0 308. 325. 212. <
7024 3 -10 0 -9 0 308. 325. 212. <
7024 2 10 0 -9 0 308. 325. 212. <
7024 1 10 0 9 0 308. 325. 212. <
7025 4 10 0 9 0 303. 505. 139. o
7025 3 10 0 -9 0 303. 505. 139. o
7025 2 -10 0 -9 0 303. 505. 139. o
7025 1 -10 0 9 0 303. 505. 139. o
7026 3 -10 0 -9 -1 22. 0. 210. <
7026 1 10 0 9 1 22. 0. 210. <
7027 3 10 0 -9 1 22. 57. 139. <
7027 1 -10 0 9 -1 22. 57. 139. <
7028 3 10 -1 -9 1 316. 459. 338. <
7028 1 -10 1 9 -1 316. 459. 338. <
7029 3 -10 1 -9 -1 322. 307. 420. <
7029 1 10 -1 9 1 322. 307. 420. <
7030 4 10 1 9 0 40231. 37536. 338. o
7030 3 10 -1 -9 0 40231. 37536. 338. o
7030 2 -10 -1 -9 0 40231. 37536. 338. o
7030 1 -10 1 9 0 40231. 37536. 338. o
7031 4 -10 -1 9 0 40275. 41629. 424. o
7031 3 -10 1 -9 0 40275. 41629. 424. o
7031 2 10 1 -9 0 40275. 41629. 424. o
7031 1 10 -1 9 0 40275. 41629. 424. o
7032 3 10 -1 -9 -1 43. 510. 338. <
7032 1 -10 1 9 1 43. 510. 338. <
7033 3 -10 1 -9 1 44. 79. 429. <
7033 1 10 -1 9 -1 44. 79. 429. <
7034 3 9 -1 -9 1 275. 362. 222. <
7034 1 -9 1 9 -1 275. 362. 222. <
7035 3 -9 1 -9 -1 293. 173. 319. <
7035 1 9 -1 9 1 293. 173. 319. <
7036 4 9 1 9 0 16297. 14822. 223. o
7036 3 9 -1 -9 0 16297. 14822. 223. o
7036 2 -9 -1 -9 0 16297. 14822. 223. o
7036 1 -9 1 9 0 16297. 14822. 223. o
7037 4 -9 -1 9 0 15901. 17550. 320. o
7037 3 -9 1 -9 0 15901. 17550. 320. o
7037 2 9 1 -9 0 15901. 17550. 320. o
7037 1 9 -1 9 0 15901. 17550. 320. o
7038 3 9 -1 -9 -1 538. 200. 223. <
7038 1 -9 1 9 1 538. 200. 223. <
7039 3 -9 1 -9 1 545. 388. 322. <
7039 1 9 -1 9 -1 545. 388. 322. <
7040 3 8 -1 -9 1 86. 88. 141. <
7040 1 -8 1 9 -1 86. 88. 141. <
7041 3 -8 1 -9 -1 87. 39. 221. <
7041 1 8 -1 9 1 87. 39. 221. <
7042 4 8 1 9 0 3051. 2747. 141. o
7042 3 8 -1 -9 0 3051. 2747. 141. o
7042 2 -8 -1 -9 0 3051. 2747. 141. o
7042 1 -8 1 9 0 3051. 2747. 141. o
7043 4 -8 -1 9 0 3118. 2918. 222. o
7043 3 -8 1 -9 0 3118. 2918. 222. o
7043 2 8 1 -9 0 3118. 2918. 222. o
7043 1 8 -1 9 0 3118. 2918. 222. o
7044 3 8 -1 -9 -1 168. 87. 142. <
7044 1 -8 1 9 1 168. 87. 142. <
7045 3 -8 1 -9 1 162. 91. 222. <
7045 1 8 -1 9 -1 162. 91. 222. <
7046 3 7 -1 -9 1 220. 215. 50. o
7046 1 -7 1 9 -1 220. 215. 50. o
7047 3 -7 1 -9 -1 228. 175. 191. <
7047 1 7 -1 9 1 228. 175. 191. <
7048 4 7 1 9 0 1156. 1071. 73. o
7048 3 7 -1 -9 0 1156. 1071. 73. o
7048 2 -7 -1 -9 0 1156. 1071. 73. o
7048 1 -7 1 9 0 1156. 1071. 73. o
7049 4 -7 -1 9 0 948. 1558. 192. o
7049 3 -7 1 -9 0 948. 1558. 192. o
7049 2 7 1 -9 0 948. 1558. 192. o
7049 1 7 -1 9 0 948. 1558. 192. o
7050 3 7 -1 -9 -1 68. 29. 44. <
7050 1 -7 1 9 1 68. 29. 44. <
7051 3 -7 1 -9 1 67. 41. 193. <
7051 1 7 -1 9 -1 67. 41. 193. <
7052 3 6 -1 -9 1 380. 362. 50. o
7052 1 -6 1 9 -1 380. 362. 50. o
7053 3 -6 1 -9 -1 373. 300. 208. <
7053 1 6 -1 9 1 373. 300. 208. <
7054 4 6 1 9 0 5123. 5094. 106. o
7054 3 6 -1 -9 0 5123. 5094. 106. o
7054 2 -6 -1 -9 0 5123. 5094. 106. o
7054 1 -6 1 9 0 5123. 5094. 106. o
7055 4 -6 -1 9 0 5191. 6026. 209. o
7055 3 -6 1 -9 0 5191. 6026. 209. o
7055 2 6 1 -9 0 5191. 6026. 209. o
7055 1 6 -1 9 0 5191. 6026. 209. o
7056 3 6 -1 -9 -1 451. 486. 53. o
7056 1 -6 1 9 1 451. 486. 53. o
7057 3 -6 1 -9 1 448. 382. 209. <
7057 1 6 -1 9 -1 448. 382. 209. <
7058 3 5 -1 -9 1 631. 602. 60. o
7058 1 -5 1 9 -1 631. 602. 60. o
7059 3 -5 1 -9 -1 623. 583. 225. o
7059 1 5 -1 9 1 623. 583. 225. o
7060 4 5 1 9 0 8985. 8831. 127. o
7060 3 5 -1 -9 0 8985. 8831. 127. o
7060 2 -5 -1 -9 0 8985. 8831. 127. o
7060 1 -5 1 9 0 8985. 8831. 127. o
7061 4 -5 -1 9 0 9215. 9639. 226. o
7061 3 -5 1 -9 0 9215. 9639. 226. o
7061 2 5 1 -9 0 9215. 9639. 226. o
7061 1 5 -1 9 0 9215. 9639. 226. o
7062 3 5 -1 -9 -1 95. 148. 39. o
7062 1 -5 1 9 1 95. 148. 39. o
7063 3 -5 1 -9 1 95. 166. 227. <
7063 1 5 -1 9 -1 95. 166. 227. <
7064 3 4 -1 -9 1 33. 5. 109. <
7064 1 -4 1 9 -1 33. 5. 109. <
7065 3 -4 1 -9 -1 32. 23. 170. <
7065 1 4 -1 9 1 32. 23. 170. <
7066 4 4 1 9 0 2043. 1982. 110. o
7066 3 4 -1 -9 0 2043. 1982. 110. o
7066 2 -4 -1 -9 0 2043. 1982. 110. o
7066 1 -4 1 9 0 2043. 1982. 110. o
7067 4 -4 -1 9 0 2035. 2178. 171. o
7067 3 -4 1 -9 0 2035. 2178. 171. o
7067 2 4 1 -9 0 2035. 2178. 171. o
7067 1 4 -1 9 0 2035. 2178. 171. o
7068 3 4 -1 -9 -1 61. -1. 104. <
7068 1 -4 1 9 1 61. -1. 104. <
7069 3 -4 1 -9 1 60. 32. 172. <
7069 1 4 -1 9 -1 60. 32. 172. <
7070 3 3 -1 -9 1 27. 37. 108. <
7070 1 -3 1 9 -1 27. 37. 108. <
7071 3 -3 1 -9 -1 34. 24. 181. <
7071 1 3 -1 9 1 34. 24. 181. <
7072 4 3 1 9 0 4290. 4541. 113. o
7072 3 3 -1 -9 0 4290. 4541. 113. o
7072 2 -3 -1 -9 0 4290. 4541. 113. o
7072 1 -3 1 9 0 4290. 4541. 113. o
7073 4 -3 -1 9 0 4108. 5060. 182. o
7073 3 -3 1 -9 0 4108. 5060. 182. o
7073 2 3 1 -9 0 4108. 5060. 182. o
7073 1 3 -1 9 0 4108. 5060. 182. o
7074 3 3 -1 -9 -1 43. 58. 105. <
7074 1 -3 1 9 1 43. 58. 105. <
7075 3 -3 1 -9 1 48. 31. 183. <
7075 1 3 -1 9 -1 48. 31. 183. <
7076 3 -2 1 -9 -1 386. 496. 179. o
7076 1 2 -1 9 1 386. 496. 179. o
7077 4 -2 -1 9 0 5311. 5398. 181. o
7077 3 -2 1 -9 0 5311. 5398. 181. o
7077 2 2 1 -9 0 5311. 5398. 181. o
7077 1 2 -1 9 0 5311. 5398. 181. o
7078 3 -2 1 -9 1 134. 53. 182. <
7078 1 2 -1 9 -1 134. 53. 182. <
7079 3 1 -1 -9 1 1003. 973. 285. o
7079 1 -1 1 9 -1 1003. 973. 285. o
7080 3 -1 1 -9 -1 1000. 885. 255. o
7080 1 1 -1 9 1 1000. 885. 255. o
7081 4 1 1 9 0 24342. 24814. 282. o
7081 3 1 -1 -9 0 24342. 24814. 282. o
7081 2 -1 -1 -9 0 24342. 24814. 282. o
7081 1 -1 1 9 0 24342. 24814. 282. o
7082 4 -1 -1 9 0 23476. 23992. 256. o
7082 3 -1 1 -9 0 23476. 23992. 256. o
7082 2 1 1 -9 0 23476. 23992. 256. o
7082 1 1 -1 9 0 23476. 23992. 256. o
7083 3 1 -1 -9 -1 1030. 872. 279. o
7083 1 -1 1 9 1 1030. 872. 279. o
7084 3 -1 1 -9 1 1024. 876. 259. o
7084 1 1 -1 9 -1 1024. 876. 259. o
7085 3 0 -1 -9 1 105. 70. 356. <
7085 1 0 1 9 -1 105. 70. 356. <
7086 3 0 1 -9 -1 106. 83. 335. <
7086 1 0 -1 9 1 106. 83. 335. <
7087 4 0 1 9 0 48656. 49380. 352. o
7087 3 0 -1 -9 0 48656. 49380. 352. o
7087 2 0 -1 -9 0 48656. 49380. 352. o
7087 1 0 1 9 0 48656. 49380. 352. o
7088 4 0 -1 9 0 49152. 49850. 338. o
7088 3 0 1 -9 0 49152. 49850. 338. o
7088 2 0 1 -9 0 49152. 49850. 338. o
7088 1 0 -1 9 0 49152. 49850. 338. o
7089 3 0 -1 -9 -1 386. 310. 349. <
7089 1 0 1 9 1 386. 310. 349. <
7090 3 0 1 -9 1 387. 246. 341. <
7090 1 0 -1 9 -1 387. 246. 341. <
7091 3 -1 -1 -9 1 26. 30. 256. <
7091 1 1 1 9 -1 26. 30. 256. <
7092 4 -1 1 9 0 24327. 24218. 255. o
7092 3 -1 -1 -9 0 24327. 24218. 255. o
7092 2 1 -1 -9 0 24327. 24218. 255. o
7092 1 1 1 9 0 24327. 24218. 255. o
7093 3 -1 -1 -9 -1 1. 12. 253. <
7093 1 1 1 9 1 1. 12. 253. <
7094 3 -2 -1 -9 1 1480. 1189. 189. o
7094 1 2 1 9 -1 1480. 1189. 189. o
7095 3 2 1 -9 -1 1466. 951. 194. o
7095 1 -2 -1 9 1 1466. 951. 194. o
7096 4 -2 1 9 0 5957. 6354. 188. o
7096 3 -2 -1 -9 0 5957. 6354. 188. o
7096 2 2 -1 -9 0 5957. 6354. 188. o
7096 1 2 1 9 0 5957. 6354. 188. o
7097 4 2 -1 9 0 5524. 6167. 196. o
7097 3 2 1 -9 0 5524. 6167. 196. o
7097 2 -2 1 -9 0 5524. 6167. 196. o
7097 1 -2 -1 9 0 5524. 6167. 196. o
7098 3 -2 -1 -9 -1 623. 702. 187. o
7098 1 2 1 9 1 623. 702. 187. o
7099 3 2 1 -9 1 620. 495. 199. o
7099 1 -2 -1 9 -1 620. 495. 199. o
7100 3 -3 -1 -9 1 28. -11. 172. <
7100 1 3 1 9 -1 28. -11. 172. <
7101 4 -3 1 9 0 4475. 4405. 170. o
7101 3 -3 -1 -9 0 4475. 4405. 170. o
7101 2 3 -1 -9 0 4475. 4405. 170. o
7101 1 3 1 9 0 4475. 4405. 170. o
7102 3 -3 -1 -9 -1 339. 271. 170. <
7102 1 3 1 9 1 339. 271. 170. <
7103 3 -4 -1 -9 1 430. 317. 171. <
7103 1 4 1 9 -1 430. 317. 171. <
7104 3 4 1 -9 -1 430. 480. 53. o
7104 1 -4 -1 9 1 430. 480. 53. o
7105 4 -4 1 9 0 1902. 2351. 170. o
7105 3 -4 -1 -9 0 1902. 2351. 170. o
7105 2 4 -1 -9 0 1902. 2351. 170. o
7105 1 4 1 9 0 1902. 2351. 170. o
7106 4 4 -1 9 0 1902. 2025. 71. o
7106 3 4 1 -9 0 1902. 2025. 71. o
7106 2 -4 1 -9 0 1902. 2025. 71. o
7106 1 -4 -1 9 0 1902. 2025. 71. o
7107 3 -4 -1 -9 -1 113. 102. 170. <
7107 1 4 1 9 1 113. 102. 170. <
7108 3 4 1 -9 1 112. 148. 38. o
7108 1 -4 -1 9 -1 112. 148. 38. o
7109 3 -5 -1 -9 1 762. 760. 218. o
7109 1 5 1 9 -1 762. 760. 218. o
7110 3 5 1 -9 -1 759. 870. 63. o
7110 1 -5 -1 9 1 759. 870. 63. o
7111 4 -5 1 9 0 8822. 9501. 216. o
7111 3 -5 -1 -9 0 8822. 9501. 216. o
7111 2 5 -1 -9 0 8822. 9501. 216. o
7111 1 5 1 9 0 8822. 9501. 216. o
7112 4 5 -1 9 0 9007. 9142. 131. o
7112 3 5 1 -9 0 9007. 9142. 131. o
7112 2 -5 1 -9 0 9007. 9142. 131. o
7112 1 -5 -1 9 0 9007. 9142. 131. o
7113 3 -5 -1 -9 -1 208. 267. 215. <
7113 1 5 1 9 1 208. 267. 215. <
7114 3 5 1 -9 1 203. 288. 46. o
7114 1 -5 -1 9 -1 203. 288. 46. o
7115 3 -6 -1 -9 1 184. 145. 208. <
7115 1 6 1 9 -1 184. 145. 208. <
7116 3 6 1 -9 -1 187. 146. 43. o
7116 1 -6 -1 9 1 187. 146. 43. o
7117 4 -6 1 9 0 5331. 5868. 206. o
7117 3 -6 -1 -9 0 5331. 5868. 206. o
7117 2 6 -1 -9 0 5331. 5868. 206. o
7117 1 6 1 9 0 5331. 5868. 206. o
7118 4 6 -1 9 0 5447. 5412. 110. o
7118 3 6 1 -9 0 5447. 5412. 110. o
7118 2 -6 1 -9 0 5447. 5412. 110. o
7118 1 -6 -1 9 0 5447. 5412. 110. o
7119 3 -6 -1 -9 -1 643. 368. 204. <
7119 1 6 1 9 1 643. 368. 204. <
7120 3 6 1 -9 1 633. 627. 69. o
7120 1 -6 -1 9 -1 633. 627. 69. o
7121 3 -7 -1 -9 1 38. 503. 190. o
7121 1 7 1 9 -1 38. 503. 190. o
7122 3 7 1 -9 -1 39. 63. 46. <
7122 1 -7 -1 9 1 39. 63. 46. <
7123 4 -7 1 9 0 1071. 501. 189. o
7123 3 -7 -1 -9 0 1071. 501. 189. o
7123 2 7 -1 -9 0 1071. 501. 189. o
7123 1 7 1 9 0 1071. 501. 189. o
7124 4 7 -1 9 0 912. 847. 101. o
7124 3 7 1 -9 0 912. 847. 101. o
7124 2 -7 1 -9 0 912. 847. 101. o
7124 1 -7 -1 9 0 912. 847. 101. o
7125 3 -7 -1 -9 -1 0. 498. 188. o
7125 1 7 1 9 1 0. 498. 188. o
7126 3 7 1 -9 1 0. 25. 101. <
7126 1 -7 -1 9 -1 0. 25. 101. <
7127 3 -8 -1 -9 1 44. 1160. 205. o
7127 1 8 1 9 -1 44. 1160. 205. o
7128 3 8 1 -9 -1 50. 28. 144. <
7128 1 -8 -1 9 1 50. 28. 144. <
7129 4 -8 1 9 0 2942. 1160. 205. o
7129 3 -8 -1 -9 0 2942. 1160. 205. o
7129 2 8 -1 -9 0 2942. 1160. 205. o
7129 1 8 1 9 0 2942. 1160. 205. o
7130 4 8 -1 9 0 3005. 3109. 144. o
7130 3 8 1 -9 0 3005. 3109. 144. o
7130 2 -8 1 -9 0 3005. 3109. 144. o
7130 1 -8 -1 9 0 3005. 3109. 144. o
7131 3 -8 -1 -9 -1 373. 1158. 204. o
7131 1 8 1 9 1 373. 1158. 204. o
7132 3 8 1 -9 1 381. 191. 145. <
7132 1 -8 -1 9 -1 381. 191. 145. <
7133 3 -9 -1 -9 1 655. 477. 308. <
7133 1 9 1 9 -1 655. 477. 308. <
7134 3 9 1 -9 -1 642. 308. 228. <
7134 1 -9 -1 9 1 642. 308. 228. <
7135 4 -9 1 9 0 16183. 17854. 308. o
7135 3 -9 -1 -9 0 16183. 17854. 308. o
7135 2 9 -1 -9 0 16183. 17854. 308. o
7135 1 9 1 9 0 16183. 17854. 308. o
7136 4 9 -1 9 0 16098. 15231. 229. o
7136 3 9 1 -9 0 16098. 15231. 229. o
7136 2 -9 1 -9 0 16098. 15231. 229. o
7136 1 -9 -1 9 0 16098. 15231. 229. o
7137 3 -9 -1 -9 -1 234. 298. 307. <
7137 1 9 1 9 1 234. 298. 307. <
7138 3 9 1 -9 1 227. 274. 230. <
7138 1 -9 -1 9 -1 227. 274. 230. <
7139 3 -10 -1 -9 1 662. 443. 430. <
7139 1 10 1 9 -1 662. 443. 430. <
7140 3 10 1 -9 -1 655. 433. 340. <
7140 1 -10 -1 9 1 655. 433. 340. <
7141 4 -10 1 9 0 40620. 44673. 428. o
7141 3 -10 -1 -9 0 40620. 44673. 428. o
7141 2 10 -1 -9 0 40620. 44673. 428. o
7141 1 10 1 9 0 40620. 44673. 428. o
7142 4 10 -1 9 0 40667. 38266. 341. o
7142 3 10 1 -9 0 40667. 38266. 341. o
7142 2 -10 1 -9 0 40667. 38266. 341. o
7142 1 -10 -1 9 0 40667. 38266. 341. o
7143 3 -10 -1 -9 -1 33. 97. 426. <
7143 1 10 1 9 1 33. 97. 426. <
7144 3 10 1 -9 1 32. 294. 342. <
7144 1 -10 -1 9 -1 32. 294. 342. <
7145 3 10 -2 -9 1 1183. 1059. 214. o
7145 1 -10 2 9 -1 1183. 1059. 214. o
7146 3 -10 2 -9 -1 1177. 895. 290. o
7146 1 10 -2 9 1 1177. 895. 290. o
7147 4 10 2 9 0 8856. 8803. 215. o
7147 3 10 -2 -9 0 8856. 8803. 215. o
7147 2 -10 -2 -9 0 8856. 8803. 215. o
7147 1 -10 2 9 0 8856. 8803. 215. o
7148 4 -10 -2 9 0 8099. 8082. 293. o
7148 3 -10 2 -9 0 8099. 8082. 293. o
7148 2 10 2 -9 0 8099. 8082. 293. o
7148 1 10 -2 9 0 8099. 8082. 293. o
7149 3 10 -2 -9 -1 2653. 1374. 215. o
7149 1 -10 2 9 1 2653. 1374. 215. o
7150 3 -10 2 -9 1 2649. 2176. 297. o
7150 1 10 -2 9 -1 2649. 2176. 297. o
7151 3 9 -2 -9 1 1. 152. 212. <
7151 1 -9 2 9 -1 1. 152. 212. <
7152 4 9 2 9 0 13589. 12686. 213. o
7152 3 9 -2 -9 0 13589. 12686. 213. o
7152 2 -9 -2 -9 0 13589. 12686. 213. o
7152 1 -9 2 9 0 13589. 12686. 213. o
7153 3 9 -2 -9 -1 376. 139. 214. <
7153 1 -9 2 9 1 376. 139. 214. <
7154 3 8 -2 -9 1 684. 448. 193. o
7154 1 -8 2 9 -1 684. 448. 193. o
7155 4 8 2 9 0 11196. 10816. 194. o
7155 3 8 -2 -9 0 11196. 10816. 194. o
7155 2 -8 -2 -9 0 11196. 10816. 194. o
7155 1 -8 2 9 0 11196. 10816. 194. o
7156 3 8 -2 -9 -1 978. 336. 194. <
7156 1 -8 2 9 1 978. 336. 194. <
7157 3 7 -2 -9 1 392. 456. 180. o
7157 1 -7 2 9 -1 392. 456. 180. o
7158 3 -7 2 -9 -1 398. 327. 277. <
7158 1 7 -2 9 1 398. 327. 277. <
7159 4 7 2 9 0 12602. 11939. 181. o
7159 3 7 -2 -9 0 12602. 11939. 181. o
7159 2 -7 -2 -9 0 12602. 11939. 181. o
7159 1 -7 2 9 0 12602. 11939. 181. o
7160 4 -7 -2 9 0 12541. 13439. 279. o
7160 3 -7 2 -9 0 12541. 13439. 279. o
7160 2 7 2 -9 0 12541. 13439. 279. o
7160 1 7 -2 9 0 12541. 13439. 279. o
7161 3 7 -2 -9 -1 1035. 1051. 79. o
7161 1 -7 2 9 1 1035. 1051. 79. o
7162 3 -7 2 -9 1 1046. 738. 279. o
7162 1 7 -2 9 -1 1046. 738. 279. o
7163 3 6 -2 -9 1 69. 92. 45. o
7163 1 -6 2 9 -1 69. 92. 45. o
7164 3 -6 2 -9 -1 68. 47. 245. <
7164 1 6 -2 9 1 68. 47. 245. <
7165 4 6 2 9 0 10399. 10467. 146. o
7165 3 6 -2 -9 0 10399. 10467. 146. o
7165 2 -6 -2 -9 0 10399. 10467. 146. o
7165 1 -6 2 9 0 10399. 10467. 146. o
7166 4 -6 -2 9 0 10557. 10734. 247. o
7166 3 -6 2 -9 0 10557. 10734. 247. o
7166 2 6 2 -9 0 10557. 10734. 247. o
7166 1 6 -2 9 0 10557. 10734. 247. o
7167 3 6 -2 -9 -1 10. 19. 42. <
7167 1 -6 2 9 1 10. 19. 42. <
7168 3 -6 2 -9 1 8. 31. 248. <
7168 1 6 -2 9 -1 8. 31. 248. <
7169 3 5 -2 -9 1 336. 167. 125. <
7169 1 -5 2 9 -1 336. 167. 125. <
7170 3 -5 2 -9 -1 341. 205. 170. <
7170 1 5 -2 9 1 341. 205. 170. <
7171 4 5 2 9 0 231. 417. 122. o
7171 3 5 -2 -9 0 231. 417. 122. o
7171 2 -5 -2 -9 0 231. 417. 122. o
7171 1 -5 2 9 0 231. 417. 122. o
7172 4 -5 -2 9 0 268. 514. 171. o
7172 3 -5 2 -9 0 268. 514. 171. o
7172 2 5 2 -9 0 268. 514. 171. o
7172 1 5 -2 9 0 268. 514. 171. o
7173 3 5 -2 -9 -1 48. 31. 117. <
7173 1 -5 2 9 1 48. 31. 117. <
7174 3 -5 2 -9 1 44. 28. 172. <
7174 1 5 -2 9 -1 44. 28. 172. <
7175 3 4 -2 -9 1 998. 909. 121. o
7175 1 -4 2 9 -1 998. 909. 121. o
7176 3 -4 2 -9 -1 989. 1034. 187. o
7176 1 4 -2 9 1 989. 1034. 187. o
7177 4 4 2 9 0 3079. 3199. 122. o
7177 3 4 -2 -9 0 3079. 3199. 122. o
7177 2 -4 -2 -9 0 3079. 3199. 122. o
7177 1 -4 2 9 0 3079. 3199. 122. o
7178 4 -4 -2 9 0 3139. 3224. 188. o
7178 3 -4 2 -9 0 3139. 3224. 188. o
7178 2 4 2 -9 0 3139. 3224. 188. o
7178 1 4 -2 9 0 3139. 3224. 188. o
7179 3 4 -2 -9 -1 62. 44. 113. <
7179 1 -4 2 9 1 62. 44. 113. <
7180 3 -4 2 -9 1 56. 43. 189. <
7180 1 4 -2 9 -1 56. 43. 189. <
7181 3 3 -2 -9 1 98. 33. 121. <
7181 1 -3 2 9 -1 98. 33. 121. <
7182 3 -3 2 -9 -1 97. 65. 201. <
7182 1 3 -2 9 1 97. 65. 201. <
7183 4 3 2 9 0 7552. 7313. 129. o
7183 3 3 -2 -9 0 7552. 7313. 129. o
7183 2 -3 -2 -9 0 7552. 7313. 129. o
7183 1 -3 2 9 0 7552. 7313. 129. o
7184 4 -3 -2 9 0 7297. 7377. 202. o
7184 3 -3 2 -9 0 7297. 7377. 202. o
7184 2 3 2 -9 0 7297. 7377. 202. o
7184 1 3 -2 9 0 7297. 7377. 202. o
7185 3 3 -2 -9 -1 40. 50. 117. <
7185 1 -3 2 9 1 40. 50. 117. <
7186 3 -3 2 -9 1 41. 66. 203. <
7186 1 3 -2 9 -1 41. 66. 203. <
7187 3 -2 2 -9 -1 198. 237. 319. <
7187 1 2 -2 9 1 198. 237. 319. <
7188 4 -2 -2 9 0 38377. 39378. 321. o
7188 3 -2 2 -9 0 38377. 39378. 321. o
7188 2 2 2 -9 0 38377. 39378. 321. o
7188 1 2 -2 9 0 38377. 39378. 321. o
7189 3 -2 2 -9 1 165. 124. 324. <
7189 1 2 -2 9 -1 165. 124. 324. <
7190 3 1 -2 -9 1 58. 35. 190. <
7190 1 -1 2 9 -1 58. 35. 190. <
7191 3 -1 2 -9 -1 59. 67. 162. <
7191 1 1 -2 9 1 59. 67. 162. <
7192 4 1 2 9 0 4173. 4399. 188. o
7192 3 1 -2 -9 0 4173. 4399. 188. o
7192 2 -1 -2 -9 0 4173. 4399. 188. o
7192 1 -1 2 9 0 4173. 4399. 188. o
7193 4 -1 -2 9 0 4312. 4662. 163. o
7193 3 -1 2 -9 0 4312. 4662. 163. o
7193 2 1 2 -9 0 4312. 4662. 163. o
7193 1 1 -2 9 0 4312. 4662. 163. o
7194 3 1 -2 -9 -1 473. 348. 185. <
7194 1 -1 2 9 1 473. 348. 185. <
7195 3 -1 2 -9 1 476. 430. 165. o
7195 1 1 -2 9 -1 476. 430. 165. o
7196 3 0 -2 -9 1 1248. 1087. 167. o
7196 1 0 2 9 -1 1248. 1087. 167. o
7197 3 0 2 -9 -1 1254. 1070. 163. o
7197 1 0 -2 9 1 1254. 1070. 163. o
7198 4 0 2 9 0 1734. 2010. 165. o
7198 3 0 -2 -9 0 1734. 2010. 165. o
7198 2 0 -2 -9 0 1734. 2010. 165. o
7198 1 0 2 9 0 1734. 2010. 165. o
7199 4 0 -2 9 0 1740. 2120. 165. o
7199 3 0 2 -9 0 1740. 2120. 165. o
7199 2 0 2 -9 0 1740. 2120. 165. o
7199 1 0 -2 9 0 1740. 2120. 165. o
7200 3 0 -2 -9 -1 740. 645. 164. o
7200 1 0 2 9 1 740. 645. 164. o
7201 3 0 2 -9 1 736. 705. 167. o
7201 1 0 -2 9 -1 736. 705. 167. o
7202 3 -1 -2 -9 1 1422. 947. 176. o
7202 1 1 2 9 -1 1422. 947. 176. o
7203 4 -1 2 9 0 4553. 4933. 175. o
7203 3 -1 -2 -9 0 4553. 4933. 175. o
7203 2 1 -2 -9 0 4553. 4933. 175. o
7203 1 1 2 9 0 4553. 4933. 175. o
7204 3 -1 -2 -9 -1 762. 614. 173. o
7204 1 1 2 9 1 762. 614. 173. o
7205 3 -2 -2 -9 1 42. 134. 323. <
7205 1 2 2 9 -1 42. 134. 323. <
7206 4 -2 2 9 0 38721. 39609. 321. o
7206 3 -2 -2 -9 0 38721. 39609. 321. o
7206 2 2 -2 -9 0 38721. 39609. 321. o
7206 1 2 2 9 0 38721. 39609. 321. o
7207 3 -2 -2 -9 -1 41. 130. 319. <
7207 1 2 2 9 1 41. 130. 319. <
7208 3 -3 -2 -9 1 290. 236. 191. <
7208 1 3 2 9 -1 290. 236. 191. <
7209 4 -3 2 9 0 7519. 7541. 190. o
7209 3 -3 -2 -9 0 7519. 7541. 190. o
7209 2 3 -2 -9 0 7519. 7541. 190. o
7209 1 3 2 9 0 7519. 7541. 190. o
7210 3 -3 -2 -9 -1 127. 69. 190. <
7210 1 3 2 9 1 127. 69. 190. <
7211 3 -4 -2 -9 1 41. 27. 180. <
7211 1 4 2 9 -1 41. 27. 180. <
7212 4 -4 2 9 0 3075. 3405. 179. o
7212 3 -4 -2 -9 0 3075. 3405. 179. o
7212 2 4 -2 -9 0 3075. 3405. 179. o
7212 1 4 2 9 0 3075. 3405. 179. o
7213 3 -4 -2 -9 -1 1057. 747. 178. o
7213 1 4 2 9 1 1057. 747. 178. o
7214 3 -5 -2 -9 1 31. 8. 159. <
7214 1 5 2 9 -1 31. 8. 159. <
7215 3 5 2 -9 -1 27. -18. 37. <
7215 1 -5 -2 9 1 27. -18. 37. <
7216 4 -5 2 9 0 231. 331. 159. o
7216 3 -5 -2 -9 0 231. 331. 159. o
7216 2 5 -2 -9 0 231. 331. 159. o
7216 1 5 2 9 0 231. 331. 159. o
7217 4 5 -2 9 0 275. 556. 90. o
7217 3 5 2 -9 0 275. 556. 90. o
7217 2 -5 2 -9 0 275. 556. 90. o
7217 1 -5 -2 9 0 275. 556. 90. o
7218 3 -5 -2 -9 -1 219. 185. 158. <
7218 1 5 2 9 1 219. 185. 158. <
7219 3 5 2 -9 1 212. 272. 91. o
7219 1 -5 -2 9 -1 212. 272. 91. o
7220 3 -6 -2 -9 1 200. 152. 228. <
7220 1 6 2 9 -1 200. 152. 228. <
7221 3 6 2 -9 -1 197. 118. 178. <
7221 1 -6 -2 9 1 197. 118. 178. <
7222 4 -6 2 9 0 10391. 11172. 227. o
7222 3 -6 -2 -9 0 10391. 11172. 227. o
7222 2 6 -2 -9 0 10391. 11172. 227. o
7222 1 6 2 9 0 10391. 11172. 227. o
7223 4 6 -2 9 0 10684. 10502. 178. o
7223 3 6 2 -9 0 10684. 10502. 178. o
7223 2 -6 2 -9 0 10684. 10502. 178. o
7223 1 -6 -2 9 0 10684. 10502. 178. o
7224 3 -6 -2 -9 -1 163. 137. 226. <
7224 1 6 2 9 1 163. 137. 226. <
7225 3 6 2 -9 1 161. 117. 179. <
7225 1 -6 -2 9 -1 161. 117. 179. <
7226 3 -7 -2 -9 1 956. 716. 254. o
7226 1 7 2 9 -1 956. 716. 254. o
7227 3 7 2 -9 -1 960. 501. 199. o
7227 1 -7 -2 9 1 960. 501. 199. o
7228 4 -7 2 9 0 13073. 13706. 253. o
7228 3 -7 -2 -9 0 13073. 13706. 253. o
7228 2 7 -2 -9 0 13073. 13706. 253. o
7228 1 7 2 9 0 13073. 13706. 253. o
7229 4 7 -2 9 0 13012. 12633. 200. o
7229 3 7 2 -9 0 13012. 12633. 200. o
7229 2 -7 2 -9 0 13012. 12633. 200. o
7229 1 -7 -2 9 0 13012. 12633. 200. o
7230 3 -7 -2 -9 -1 547. 421. 251. <
7230 1 7 2 9 1 547. 421. 251. <
7231 3 7 2 -9 1 555. 376. 201. <
7231 1 -7 -2 9 -1 555. 376. 201. <
7232 3 -8 -2 -9 1 65. 29. 252. <
7232 1 8 2 9 -1 65. 29. 252. <
7233 3 8 2 -9 -1 66. 66. 196. <
7233 1 -8 -2 9 1 66. 66. 196. <
7234 4 -8 2 9 0 10841. 11741. 251. o
7234 3 -8 -2 -9 0 10841. 11741. 251. o
7234 2 8 -2 -9 0 10841. 11741. 251. o
7234 1 8 2 9 0 10841. 11741. 251. o
7235 4 8 -2 9 0 11002. 10842. 197. o
7235 3 8 2 -9 0 11002. 10842. 197. o
7235 2 -8 2 -9 0 11002. 10842. 197. o
7235 1 -8 -2 9 0 11002. 10842. 197. o
7236 3 -8 -2 -9 -1 105. 84. 250. <
7236 1 8 2 9 1 105. 84. 250. <
7237 3 8 2 -9 1 103. 72. 198. <
7237 1 -8 -2 9 -1 103. 72. 198. <
7238 3 -9 -2 -9 1 589. 596. 283. o
7238 1 9 2 9 -1 589. 596. 283. o
7239 3 9 2 -9 -1 585. 473. 221. o
7239 1 -9 -2 9 1 585. 473. 221. o
7240 4 -9 2 9 0 13418. 14686. 281. o
7240 3 -9 -2 -9 0 13418. 14686. 281. o
7240 2 9 -2 -9 0 13418. 14686. 281. o
7240 1 9 2 9 0 13418. 14686. 281. o
7241 4 9 -2 9 0 13427. 13142. 222. o
7241 3 9 2 -9 0 13427. 13142. 222. o
7241 2 -9 2 -9 0 13427. 13142. 222. o
7241 1 -9 -2 9 0 13427. 13142. 222. o
7242 3 -9 -2 -9 -1 32. -19. 279. <
7242 1 9 2 9 1 32. -19. 279. <
7243 3 9 2 -9 1 33. 96. 223. <
7243 1 -9 -2 9 -1 33. 96. 223. <
7244 3 -10 -2 -9 1 495. 447. 270. <
7244 1 10 2 9 -1 495. 447. 270. <
7245 3 10 2 -9 -1 495. 446. 212. o
7245 1 -10 -2 9 1 495. 446. 212. o
7246 4 -10 2 9 0 9046. 9651. 268. o
7246 3 -10 -2 -9 0 9046. 9651. 268. o
7246 2 10 -2 -9 0 9046. 9651. 268. o
7246 1 10 2 9 0 9046. 9651. 268. o
7247 4 10 -2 9 0 8275. 7662. 213. o
7247 3 10 2 -9 0 8275. 7662. 213. o
7247 2 -10 2 -9 0 8275. 7662. 213. o
7247 1 -10 -2 9 0 8275. 7662. 213. o
7248 3 -10 -2 -9 -1 868. 1065. 267. o
7248 1 10 2 9 1 868. 1065. 267. o
7249 3 10 2 -9 1 888. 854. 215. o
7249 1 -10 -2 9 -1 888. 854. 215. o
7250 3 10 -3 -9 1 856. 506. 157. o
7250 1 -10 3 9 -1 856. 506. 157. o
7251 4 10 3 9 0 1761. 1689. 158. o
7251 3 10 -3 -9 0 1761. 1689. 158. o
7251 2 -10 -3 -9 0 1761. 1689. 158. o
7251 1 -10 3 9 0 1761. 1689. 158. o
7252 3 10 -3 -9 -1 312. 152. 159. <
7252 1 -10 3 9 1 312. 152. 159. <
7253 3 9 -3 -9 1 1095. 926. 155. o
7253 1 -9 3 9 -1 1095. 926. 155. o
7254 4 9 3 9 0 3397. 2760. 157. o
7254 3 9 -3 -9 0 3397. 2760. 157. o
7254 2 -9 -3 -9 0 3397. 2760. 157. o
7254 1 -9 3 9 0 3397. 2760. 157. o
7255 3 9 -3 -9 -1 182. 58. 158. <
7255 1 -9 3 9 1 182. 58. 158. <
7256 3 8 -3 -9 1 308. 193. 184. <
7256 1 -8 3 9 -1 308. 193. 184. <
7257 4 8 3 9 0 9125. 9004. 186. o
7257 3 8 -3 -9 0 9125. 9004. 186. o
7257 2 -8 -3 -9 0 9125. 9004. 186. o
7257 1 -8 3 9 0 9125. 9004. 186. o
7258 3 8 -3 -9 -1 263. 224. 187. <
7258 1 -8 3 9 1 263. 224. 187. <
7259 3 7 -3 -9 1 17. 119. 202. <
7259 1 -7 3 9 -1 17. 119. 202. <
7260 4 7 3 9 0 12854. 12610. 203. o
7260 3 7 -3 -9 0 12854. 12610. 203. o
7260 2 -7 -3 -9 0 12854. 12610. 203. o
7260 1 -7 3 9 0 12854. 12610. 203. o
7261 3 7 -3 -9 -1 956. 846. 204. o
7261 1 -7 3 9 1 956. 846. 204. o
7262 3 6 -3 -9 1 377. 376. 169. o
7262 1 -6 3 9 -1 377. 376. 169. o
7263 4 6 3 9 0 1856. 1570. 164. o
7263 3 6 -3 -9 0 1856. 1570. 164. o
7263 2 -6 -3 -9 0 1856. 1570. 164. o
7263 1 -6 3 9 0 1856. 1570. 164. o
7264 3 6 -3 -9 -1 219. 159. 154. <
7264 1 -6 3 9 1 219. 159. 154. <
7265 3 5 -3 -9 1 244. 255. 137. <
7265 1 -5 3 9 -1 244. 255. 137. <
7266 4 5 3 9 0 6340. 5584. 144. o
7266 3 5 -3 -9 0 6340. 5584. 144. o
7266 2 -5 -3 -9 0 6340. 5584. 144. o
7266 1 -5 3 9 0 6340. 5584. 144. o
7267 3 5 -3 -9 -1 118. 26. 129. <
7267 1 -5 3 9 1 118. 26. 129. <
7268 3 4 -3 -9 1 196. 151. 179. <
7268 1 -4 3 9 -1 196. 151. 179. <
7269 3 -4 3 -9 -1 200. 233. 295. <
7269 1 4 -3 9 1 200. 233. 295. <
7270 4 4 3 9 0 23571. 23336. 201. o
7270 3 4 -3 -9 0 23571. 23336. 201. o
7270 2 -4 -3 -9 0 23571. 23336. 201. o
7270 1 -4 3 9 0 23571. 23336. 201. o
7271 4 -4 -3 9 0 23533. 24708. 297. o
7271 3 -4 3 -9 0 23533. 24708. 297. o
7271 2 4 3 -9 0 23533. 24708. 297. o
7271 1 4 -3 9 0 23533. 24708. 297. o
7272 3 4 -3 -9 -1 224. 248. 172. <
7272 1 -4 3 9 1 224. 248. 172. <
7273 3 -4 3 -9 1 227. 255. 299. <
7273 1 4 -3 9 -1 227. 255. 299. <
7274 3 3 -3 -9 1 156. 78. 196. <
7274 1 -3 3 9 -1 156. 78. 196. <
7275 3 -3 3 -9 -1 157. 106. 331. <
7275 1 3 -3 9 1 157. 106. 331. <
7276 4 3 3 9 0 35843. 37040. 225. o
7276 3 3 -3 -9 0 35843. 37040. 225. o
7276 2 -3 -3 -9 0 35843. 37040. 225. o
7276 1 -3 3 9 0 35843. 37040. 225. o
7277 4 -3 -3 9 0 35861. 37134. 333. o
7277 3 -3 3 -9 0 35861. 37134. 333. o
7277 2 3 3 -9 0 35861. 37134. 333. o
7277 1 3 -3 9 0 35861. 37134. 333. o
7278 3 3 -3 -9 -1 182. 94. 191. <
7278 1 -3 3 9 1 182. 94. 191. <
7279 3 -3 3 -9 1 183. 121. 336. <
7279 1 3 -3 9 -1 183. 121. 336. <
7280 3 2 -3 -9 1 60. 62. 33. <
7280 1 -2 3 9 -1 60. 62. 33. <
7281 3 -2 3 -9 -1 60. 47. 195. <
7281 1 2 -3 9 1 60. 47. 195. <
7282 4 2 3 9 0 7352. 7594. 142. o
7282 3 2 -3 -9 0 7352. 7594. 142. o
7282 2 -2 -3 -9 0 7352. 7594. 142. o
7282 1 -2 3 9 0 7352. 7594. 142. o
7283 4 -2 -3 9 0 7519. 7493. 196. o
7283 3 -2 3 -9 0 7519. 7493. 196. o
7283 2 2 3 -9 0 7519. 7493. 196. o
7283 1 2 -3 9 0 7519. 7493. 196. o
7284 3 -2 3 -9 1 151. 58. 198. <
7284 1 2 -3 9 -1 151. 58. 198. <
7285 3 1 -3 -9 1 19. 23. 194. <
7285 1 -1 3 9 -1 19. 23. 194. <
7286 3 -1 3 -9 -1 21. 1413. 173. o
7286 1 1 -3 9 1 21. 1413. 173. o
7287 4 1 3 9 0 3939. 4704. 191. o
7287 3 1 -3 -9 0 3939. 4704. 191. o
7287 2 -1 -3 -9 0 3939. 4704. 191. o
7287 1 -1 3 9 0 3939. 4704. 191. o
7288 4 -1 -3 9 0 3874. 1427. 174. o
7288 3 -1 3 -9 0 3874. 1427. 174. o
7288 2 1 3 -9 0 3874. 1427. 174. o
7288 1 1 -3 9 0 3874. 1427. 174. o
7289 3 1 -3 -9 -1 59. 27. 188. <
7289 1 -1 3 9 1 59. 27. 188. <
7290 3 -1 3 -9 1 63. 1442. 176. o
7290 1 1 -3 9 -1 63. 1442. 176. o
7291 3 0 -3 -9 1 584. 262. 276. <
7291 1 0 3 9 -1 584. 262. 276. <
7292 4 0 3 9 0 20708. 22375. 274. o
7292 3 0 -3 -9 0 20708. 22375. 274. o
7292 2 0 -3 -9 0 20708. 22375. 274. o
7292 1 0 3 9 0 20708. 22375. 274. o
7293 3 0 -3 -9 -1 522. 373. 271. <
7293 1 0 3 9 1 522. 373. 271. <
7294 3 -1 -3 -9 1 32. -13. 171. <
7294 1 1 3 9 -1 32. -13. 171. <
7295 4 -1 3 9 0 3945. 4338. 170. o
7295 3 -1 -3 -9 0 3945. 4338. 170. o
7295 2 1 -3 -9 0 3945. 4338. 170. o
7295 1 1 3 9 0 3945. 4338. 170. o
7296 3 -1 -3 -9 -1 320. 217. 169. <
7296 1 1 3 9 1 320. 217. 169. <
7297 3 -2 -3 -9 1 295. 197. 201. <
7297 1 2 3 9 -1 295. 197. 201. <
7298 4 -2 3 9 0 7409. 8213. 200. o
7298 3 -2 -3 -9 0 7409. 8213. 200. o
7298 2 2 -3 -9 0 7409. 8213. 200. o
7298 1 2 3 9 0 7409. 8213. 200. o
7299 3 -2 -3 -9 -1 118. 32. 199. <
7299 1 2 3 9 1 118. 32. 199. <
7300 3 -3 -3 -9 1 6. 130. 321. <
7300 1 3 3 9 -1 6. 130. 321. <
7301 4 -3 3 9 0 36246. 38861. 320. o
7301 3 -3 -3 -9 0 36246. 38861. 320. o
7301 2 3 -3 -9 0 36246. 38861. 320. o
7301 1 3 3 9 0 36246. 38861. 320. o
7302 3 -3 -3 -9 -1 5. 77. 319. <
7302 1 3 3 9 1 5. 77. 319. <
7303 3 -4 -3 -9 1 568. 396. 278. <
7303 1 4 3 9 -1 568. 396. 278. <
7304 4 -4 3 9 0 24221. 25662. 278. o
7304 3 -4 -3 -9 0 24221. 25662. 278. o
7304 2 4 -3 -9 0 24221. 25662. 278. o
7304 1 4 3 9 0 24221. 25662. 278. o
7305 3 -4 -3 -9 -1 39. 80. 277. <
7305 1 4 3 9 1 39. 80. 277. <
7306 3 -5 -3 -9 1 1297. 1252. 198. o
7306 1 5 3 9 -1 1297. 1252. 198. o
7307 3 5 3 -9 -1 1293. 1276. 160. o
7307 1 -5 -3 9 1 1293. 1276. 160. o
7308 4 -5 3 9 0 6364. 6855. 198. o
7308 3 -5 -3 -9 0 6364. 6855. 198. o
7308 2 5 -3 -9 0 6364. 6855. 198. o
7308 1 5 3 9 0 6364. 6855. 198. o
7309 4 5 -3 9 0 6520. 7292. 161. o
7309 3 5 3 -9 0 6520. 7292. 161. o
7309 2 -5 3 -9 0 6520. 7292. 161. o
7309 1 -5 -3 9 0 6520. 7292. 161. o
7310 3 -5 -3 -9 -1 260. 316. 197. <
7310 1 5 3 9 1 260. 316. 197. <
7311 3 5 3 -9 1 262. 198. 163. <
7311 1 -5 -3 9 -1 262. 198. 163. <
7312 3 -6 -3 -9 1 202. 185. 175. <
7312 1 6 3 9 -1 202. 185. 175. <
7313 3 6 3 -9 -1 201. 142. 139. <
7313 1 -6 -3 9 1 201. 142. 139. <
7314 4 -6 3 9 0 1895. 2069. 175. o
7314 3 -6 -3 -9 0 1895. 2069. 175. o
7314 2 6 -3 -9 0 1895. 2069. 175. o
7314 1 6 3 9 0 1895. 2069. 175. o
7315 4 6 -3 9 0 1689. 1812. 140. o
7315 3 6 3 -9 0 1689. 1812. 140. o
7315 2 -6 3 -9 0 1689. 1812. 140. o
7315 1 -6 -3 9 0 1689. 1812. 140. o
7316 3 -6 -3 -9 -1 557. 505. 174. o
7316 1 6 3 9 1 557. 505. 174. o
7317 3 6 3 -9 1 560. 482. 141. o
7317 1 -6 -3 9 -1 560. 482. 141. o
7318 3 -7 -3 -9 1 172. 187. 245. <
7318 1 7 3 9 -1 172. 187. 245. <
7319 3 7 3 -9 -1 174. 113. 207. <
7319 1 -7 -3 9 1 174. 113. 207. <
7320 4 -7 3 9 0 12850. 13423. 245. o
7320 3 -7 -3 -9 0 12850. 13423. 245. o
7320 2 7 -3 -9 0 12850. 13423. 245. o
7320 1 7 3 9 0 12850. 13423. 245. o
7321 4 7 -3 9 0 12734. 12923. 208. o
7321 3 7 3 -9 0 12734. 12923. 208. o
7321 2 -7 3 -9 0 12734. 12923. 208. o
7321 1 -7 -3 9 0 12734. 12923. 208. o
7322 3 -7 -3 -9 -1 397. 356. 244. <
7322 1 7 3 9 1 397. 356. 244. <
7323 3 7 3 -9 1 390. 270. 209. <
7323 1 -7 -3 9 -1 390. 270. 209. <
7324 3 -8 -3 -9 1 252. 148. 234. <
7324 1 8 3 9 -1 252. 148. 234. <
7325 3 8 3 -9 -1 249. 202. 204. <
7325 1 -8 -3 9 1 249. 202. 204. <
7326 4 -8 3 9 0 9503. 9300. 233. o
7326 3 -8 -3 -9 0 9503. 9300. 233. o
7326 2 8 -3 -9 0 9503. 9300. 233. o
7326 1 8 3 9 0 9503. 9300. 233. o
7327 4 8 -3 9 0 10167. 9807. 205. o
7327 3 8 3 -9 0 10167. 9807. 205. o
7327 2 -8 3 -9 0 10167. 9807. 205. o
7327 1 -8 -3 9 0 10167. 9807. 205. o
7328 3 -8 -3 -9 -1 256. 237. 233. <
7328 1 8 3 9 1 256. 237. 233. <
7329 3 8 3 -9 1 246. 160. 206. <
7329 1 -8 -3 9 -1 246. 160. 206. <
7330 3 -9 -3 -9 1 493. 492. 215. o
7330 1 9 3 9 -1 493. 492. 215. o
7331 3 9 3 -9 -1 484. 469. 179. o
7331 1 -9 -3 9 1 484. 469. 179. o
7332 4 -9 3 9 0 3431. 3008. 215. o
7332 3 -9 -3 -9 0 3431. 3008. 215. o
7332 2 9 -3 -9 0 3431. 3008. 215. o
7332 1 9 3 9 0 3431. 3008. 215. o
7333 4 9 -3 9 0 3617. 3388. 180. o
7333 3 9 3 -9 0 3617. 3388. 180. o
7333 2 -9 3 -9 0 3617. 3388. 180. o
7333 1 -9 -3 9 0 3617. 3388. 180. o
7334 3 -9 -3 -9 -1 1284. 1271. 214. o
7334 1 9 3 9 1 1284. 1271. 214. o
7335 3 9 3 -9 1 1258. 872. 181. o
7335 1 -9 -3 9 -1 1258. 872. 181. o
7336 3 -10 -3 -9 1 325. 320. 219. <
7336 1 10 3 9 -1 325. 320. 219. <
7337 3 10 3 -9 -1 337. 244. 172. <
7337 1 -10 -3 9 1 337. 244. 172. <
7338 4 -10 3 9 0 1814. 1812. 218. o
7338 3 -10 -3 -9 0 1814. 1812. 218. o
7338 2 10 -3 -9 0 1814. 1812. 218. o
7338 1 10 3 9 0 1814. 1812. 218. o
7339 4 10 -3 9 0 1696. 1708. 173. o
7339 3 10 3 -9 0 1696. 1708. 173. o
7339 2 -10 3 -9 0 1696. 1708. 173. o
7339 1 -10 -3 9 0 1696. 1708. 173. o
7340 3 -10 -3 -9 -1 659. 802. 217. o
7340 1 10 3 9 1 659. 802. 217. o
7341 3 10 3 -9 1 676. 472. 174. o
7341 1 -10 -3 9 -1 676. 472. 174. o
7342 4 10 4 9 0 3072. 3035. 160. o
7342 3 10 -4 -9 0 3072. 3035. 160. o
7342 2 -10 -4 -9 0 3072. 3035. 160. o
7342 1 -10 4 9 0 3072. 3035. 160. o
7343 3 10 -4 -9 -1 378. 309. 161. <
7343 1 -10 4 9 1 378. 309. 161. <
7344 3 9 -4 -9 1 74. -2. 145. <
7344 1 -9 4 9 -1 74. -2. 145. <
7345 4 9 4 9 0 746. 770. 146. o
7345 3 9 -4 -9 0 746. 770. 146. o
7345 2 -9 -4 -9 0 746. 770. 146. o
7345 1 -9 4 9 0 746. 770. 146. o
7346 3 9 -4 -9 -1 33. 46. 146. <
7346 1 -9 4 9 1 33. 46. 146. <
7347 3 8 -4 -9 1 308. 204. 196. <
7347 1 -8 4 9 -1 308. 204. 196. <
7348 4 8 4 9 0 8559. 8691. 197. o
7348 3 8 -4 -9 0 8559. 8691. 197. o
7348 2 -8 -4 -9 0 8559. 8691. 197. o
7348 1 -8 4 9 0 8559. 8691. 197. o
7349 3 8 -4 -9 -1 200. 177. 198. <
7349 1 -8 4 9 1 200. 177. 198. <
7350 3 7 -4 -9 1 762. 507. 180. o
7350 1 -7 4 9 -1 762. 507. 180. o
7351 4 7 4 9 0 9273. 8376. 181. o
7351 3 7 -4 -9 0 9273. 8376. 181. o
7351 2 -7 -4 -9 0 9273. 8376. 181. o
7351 1 -7 4 9 0 9273. 8376. 181. o
7352 3 7 -4 -9 -1 1028. 538. 182. o
7352 1 -7 4 9 1 1028. 538. 182. o
7353 3 6 -4 -9 1 816. 740. 233. o
7353 1 -6 4 9 -1 816. 740. 233. o
7354 4 6 4 9 0 20710. 19157. 249. o
7354 3 6 -4 -9 0 20710. 19157. 249. o
7354 2 -6 -4 -9 0 20710. 19157. 249. o
7354 1 -6 4 9 0 20710. 19157. 249. o
7355 3 6 -4 -9 -1 2167. 1810. 223. o
7355 1 -6 4 9 1 2167. 1810. 223. o
7356 3 5 -4 -9 1 557. 508. 162. o
7356 1 -5 4 9 -1 557. 508. 162. o
7357 4 5 4 9 0 10242. 9534. 172. o
7357 3 5 -4 -9 0 10242. 9534. 172. o
7357 2 -5 -4 -9 0 10242. 9534. 172. o
7357 1 -5 4 9 0 10242. 9534. 172. o
7358 3 5 -4 -9 -1 176. 140. 152. <
7358 1 -5 4 9 1 176. 140. 152. <
7359 3 4 -4 -9 1 97. 20. 136. <
7359 1 -4 4 9 -1 97. 20. 136. <
7360 4 4 4 9 0 5135. 5303. 145. o
7360 3 4 -4 -9 0 5135. 5303. 145. o
7360 2 -4 -4 -9 0 5135. 5303. 145. o
7360 1 -4 4 9 0 5135. 5303. 145. o
7361 3 4 -4 -9 -1 19. 13. 132. <
7361 1 -4 4 9 1 19. 13. 132. <
7362 3 3 -4 -9 1 270. 227. 178. <
7362 1 -3 4 9 -1 270. 227. 178. <
7363 4 3 4 9 0 23228. 24653. 204. o
7363 3 3 -4 -9 0 23228. 24653. 204. o
7363 2 -3 -4 -9 0 23228. 24653. 204. o
7363 1 -3 4 9 0 23228. 24653. 204. o
7364 3 3 -4 -9 -1 173. 125. 173. <
7364 1 -3 4 9 1 173. 125. 173. <
7365 3 2 -4 -9 1 19. 44. 119. <
7365 1 -2 4 9 -1 19. 44. 119. <
7366 3 -2 4 -9 -1 18. 15. 183. <
7366 1 2 -4 9 1 18. 15. 183. <
7367 4 2 4 9 0 4417. 4671. 126. o
7367 3 2 -4 -9 0 4417. 4671. 126. o
7367 2 -2 -4 -9 0 4417. 4671. 126. o
7367 1 -2 4 9 0 4417. 4671. 126. o
7368 4 -2 -4 9 0 3869. 3727. 185. o
7368 3 -2 4 -9 0 3869. 3727. 185. o
7368 2 2 4 -9 0 3869. 3727. 185. o
7368 1 2 -4 9 0 3869. 3727. 185. o
7369 3 2 -4 -9 -1 855. 1057. 119. o
7369 1 -2 4 9 1 855. 1057. 119. o
7370 3 -2 4 -9 1 858. 876. 186. o
7370 1 2 -4 9 -1 858. 876. 186. o
7371 3 -1 4 -9 -1 54. 34. 162. <
7371 1 1 -4 9 1 54. 34. 162. <
7372 4 -1 -4 9 0 2197. 1928. 164. o
7372 3 -1 4 -9 0 2197. 1928. 164. o
7372 2 1 4 -9 0 2197. 1928. 164. o
7372 1 1 -4 9 0 2197. 1928. 164. o
7373 3 -1 4 -9 1 20. 18. 165. <
7373 1 1 -4 9 -1 20. 18. 165. <
7374 3 -1 -4 -9 1 386. 321. 170. <
7374 1 1 4 9 -1 386. 321. 170. <
7375 4 -1 4 9 0 2160. 2500. 169. o
7375 3 -1 -4 -9 0 2160. 2500. 169. o
7375 2 1 -4 -9 0 2160. 2500. 169. o
7375 1 1 4 9 0 2160. 2500. 169. o
7376 3 -1 -4 -9 -1 113. 106. 168. <
7376 1 1 4 9 1 113. 106. 168. <
7377 3 -2 -4 -9 1 40. 52. 187. <
7377 1 2 4 9 -1 40. 52. 187. <
7378 4 -2 4 9 0 4295. 5091. 186. o
7378 3 -2 -4 -9 0 4295. 5091. 186. o
7378 2 2 -4 -9 0 4295. 5091. 186. o
7378 1 2 4 9 0 4295. 5091. 186. o
7379 3 -2 -4 -9 -1 988. 881. 185. o
7379 1 2 4 9 1 988. 881. 185. o
7380 3 -3 -4 -9 1 392. 380. 289. <
7380 1 3 4 9 -1 392. 380. 289. <
7381 4 -3 4 9 0 23735. 25668. 288. o
7381 3 -3 -4 -9 0 23735. 25668. 288. o
7381 2 3 -4 -9 0 23735. 25668. 288. o
7381 1 3 4 9 0 23735. 25668. 288. o
7382 3 -3 -4 -9 -1 30. 74. 287. <
7382 1 3 4 9 1 30. 74. 287. <
7383 3 -4 -4 -9 1 91. 55. 186. <
7383 1 4 4 9 -1 91. 55. 186. <
7384 4 -4 4 9 0 5206. 5525. 185. o
7384 3 -4 -4 -9 0 5206. 5525. 185. o
7384 2 4 -4 -9 0 5206. 5525. 185. o
7384 1 4 4 9 0 5206. 5525. 185. o
7385 3 -4 -4 -9 -1 8. 50. 185. <
7385 1 4 4 9 1 8. 50. 185. <
7386 3 -5 -4 -9 1 340. 303. 225. <
7386 1 5 4 9 -1 340. 303. 225. <
7387 4 -5 4 9 0 10229. 11247. 225. o
7387 3 -5 -4 -9 0 10229. 11247. 225. o
7387 2 5 -4 -9 0 10229. 11247. 225. o
7387 1 5 4 9 0 10229. 11247. 225. o
7388 3 -5 -4 -9 -1 47. 53. 224. <
7388 1 5 4 9 1 47. 53. 224. <
7389 3 -6 -4 -9 1 16. 170. 277. <
7389 1 6 4 9 -1 16. 170. 277. <
7390 3 6 4 -9 -1 17. -17. 240. <
7390 1 -6 -4 9 1 17. -17. 240. <
7391 4 -6 4 9 0 20786. 21892. 277. o
7391 3 -6 -4 -9 0 20786. 21892. 277. o
7391 2 6 -4 -9 0 20786. 21892. 277. o
7391 1 6 4 9 0 20786. 21892. 277. o
7392 4 6 -4 9 0 20459. 20839. 242. o
7392 3 6 4 -9 0 20459. 20839. 242. o
7392 2 -6 4 -9 0 20459. 20839. 242. o
7392 1 -6 -4 9 0 20459. 20839. 242. o
7393 3 -6 -4 -9 -1 97. 172. 277. <
7393 1 6 4 9 1 97. 172. 277. <
7394 3 6 4 -9 1 102. 133. 243. <
7394 1 -6 -4 9 -1 102. 133. 243. <
7395 3 -7 -4 -9 1 802. 714. 232. o
7395 1 7 4 9 -1 802. 714. 232. o
7396 3 7 4 -9 -1 791. 656. 208. o
7396 1 -7 -4 9 1 791. 656. 208. o
7397 4 -7 4 9 0 9188. 10583. 232. o
7397 3 -7 -4 -9 0 9188. 10583. 232. o
7397 2 7 -4 -9 0 9188. 10583. 232. o
7397 1 7 4 9 0 9188. 10583. 232. o
7398 4 7 -4 9 0 9358. 10245. 209. o
7398 3 7 4 -9 0 9358. 10245. 209. o
7398 2 -7 4 -9 0 9358. 10245. 209. o
7398 1 -7 -4 9 0 9358. 10245. 209. o
7399 3 -7 -4 -9 -1 631. 666. 232. o
7399 1 7 4 9 1 631. 666. 232. o
7400 3 7 4 -9 1 620. 531. 211. o
7400 1 -7 -4 9 -1 620. 531. 211. o
7401 3 -8 -4 -9 1 12. 217. 227. <
7401 1 8 4 9 -1 12. 217. 227. <
7402 3 8 4 -9 -1 12. 42. 210. <
7402 1 -8 -4 9 1 12. 42. 210. <
7403 4 -8 4 9 0 8685. 8809. 227. o
7403 3 -8 -4 -9 0 8685. 8809. 227. o
7403 2 8 -4 -9 0 8685. 8809. 227. o
7403 1 8 4 9 0 8685. 8809. 227. o
7404 4 8 -4 9 0 8728. 9161. 212. o
7404 3 8 4 -9 0 8728. 9161. 212. o
7404 2 -8 4 -9 0 8728. 9161. 212. o
7404 1 -8 -4 9 0 8728. 9161. 212. o
7405 3 -8 -4 -9 -1 80. 112. 227. <
7405 1 8 4 9 1 80. 112. 227. <
7406 3 8 4 -9 1 79. 39. 213. <
7406 1 -8 -4 9 -1 79. 39. 213. <
7407 3 -9 -4 -9 1 28. 92. 179. <
7407 1 9 4 9 -1 28. 92. 179. <
7408 3 9 4 -9 -1 25. 17. 164. <
7408 1 -9 -4 9 1 25. 17. 164. <
7409 4 -9 4 9 0 824. 719. 179. o
7409 3 -9 -4 -9 0 824. 719. 179. o
7409 2 9 -4 -9 0 824. 719. 179. o
7409 1 9 4 9 0 824. 719. 179. o
7410 4 9 -4 9 0 872. 690. 165. o
7410 3 9 4 -9 0 872. 690. 165. o
7410 2 -9 4 -9 0 872. 690. 165. o
7410 1 -9 -4 9 0 872. 690. 165. o
7411 3 -9 -4 -9 -1 55. -25. 179. <
7411 1 9 4 9 1 55. -25. 179. <
7412 3 9 4 -9 1 48. 61. 166. <
7412 1 -9 -4 9 -1 48. 61. 166. <
7413 3 10 4 -9 -1 178. 69. 166. <
7413 1 -10 -4 9 1 178. 69. 166. <
7414 4 10 -4 9 0 3044. 3275. 167. o
7414 3 10 4 -9 0 3044. 3275. 167. o
7414 2 -10 4 -9 0 3044. 3275. 167. o
7414 1 -10 -4 9 0 3044. 3275. 167. o
7415 3 9 -5 -9 1 635. 741. 193. o
7415 1 -9 5 9 -1 635. 741. 193. o
7416 4 9 5 9 0 3834. 4458. 194. o
7416 3 9 -5 -9 0 3834. 4458. 194. o
7416 2 -9 -5 -9 0 3834. 4458. 194. o
7416 1 -9 5 9 0 3834. 4458. 194. o
7417 3 9 -5 -9 -1 263. 184. 195. <
7417 1 -9 5 9 1 263. 184. 195. <
7418 3 8 -5 -9 1 29. 30. 187. <
7418 1 -8 5 9 -1 29. 30. 187. <
7419 4 8 5 9 0 5542. 5691. 188. o
7419 3 8 -5 -9 0 5542. 5691. 188. o
7419 2 -8 -5 -9 0 5542. 5691. 188. o
7419 1 -8 5 9 0 5542. 5691. 188. o
7420 3 8 -5 -9 -1 400. 239. 188. <
7420 1 -8 5 9 1 400. 239. 188. <
7421 3 7 -5 -9 1 886. 490. 152. o
7421 1 -7 5 9 -1 886. 490. 152. o
7422 4 7 5 9 0 1976. 1947. 152. o
7422 3 7 -5 -9 0 1976. 1947. 152. o
7422 2 -7 -5 -9 0 1976. 1947. 152. o
7422 1 -7 5 9 0 1976. 1947. 152. o
7423 3 7 -5 -9 -1 221. 85. 153. <
7423 1 -7 5 9 1 221. 85. 153. <
7424 3 6 -5 -9 1 551. 586. 252. o
7424 1 -6 5 9 -1 551. 586. 252. o
7425 4 6 5 9 0 40237. 37848. 301. o
7425 3 6 -5 -9 0 40237. 37848. 301. o
7425 2 -6 -5 -9 0 40237. 37848. 301. o
7425 1 -6 5 9 0 40237. 37848. 301. o
7426 3 6 -5 -9 -1 94. 184. 262. <
7426 1 -6 5 9 1 94. 184. 262. <
7427 3 5 -5 -9 1 3365. 3723. 188. o
7427 1 -5 5 9 -1 3365. 3723. 188. o
7428 4 5 5 9 0 5124. 4638. 186. o
7428 3 5 -5 -9 0 5124. 4638. 186. o
7428 2 -5 -5 -9 0 5124. 4638. 186. o
7428 1 -5 5 9 0 5124. 4638. 186. o
7429 3 5 -5 -9 -1 2963. 3093. 182. o
7429 1 -5 5 9 1 2963. 3093. 182. o
7430 3 4 -5 -9 1 115. 117. 48. o
7430 1 -4 5 9 -1 115. 117. 48. o
7431 4 4 5 9 0 9179. 9807. 152. o
7431 3 4 -5 -9 0 9179. 9807. 152. o
7431 2 -4 -5 -9 0 9179. 9807. 152. o
7431 1 -4 5 9 0 9179. 9807. 152. o
7432 3 4 -5 -9 -1 499. 584. 71. o
7432 1 -4 5 9 1 499. 584. 71. o
7433 3 3 -5 -9 1 14. 54. 44. <
7433 1 -3 5 9 -1 14. 54. 44. <
7434 4 3 5 9 0 5095. 5424. 118. o
7434 3 3 -5 -9 0 5095. 5424. 118. o
7434 2 -3 -5 -9 0 5095. 5424. 118. o
7434 1 -3 5 9 0 5095. 5424. 118. o
7435 3 3 -5 -9 -1 295. 258. 51. o
7435 1 -3 5 9 1 295. 258. 51. o
7436 3 2 -5 -9 1 37. -2. 108. <
7436 1 -2 5 9 -1 37. -2. 108. <
7437 4 2 5 9 0 628. 710. 109. o
7437 3 2 -5 -9 0 628. 710. 109. o
7437 2 -2 -5 -9 0 628. 710. 109. o
7437 1 -2 5 9 0 628. 710. 109. o
7438 3 2 -5 -9 -1 242. 212. 107. <
7438 1 -2 5 9 1 242. 212. 107. <
7439 3 1 -5 -9 1 93. 75. 235. <
7439 1 -1 5 9 -1 93. 75. 235. <
7440 3 -1 5 -9 -1 100. 50. 203. <
7440 1 1 -5 9 1 100. 50. 203. <
7441 4 1 5 9 0 7179. 7387. 233. o
7441 3 1 -5 -9 0 7179. 7387. 233. o
7441 2 -1 -5 -9 0 7179. 7387. 233. o
7441 1 -1 5 9 0 7179. 7387. 233. o
7442 4 -1 -5 9 0 7304. 7230. 205. o
7442 3 -1 5 -9 0 7304. 7230. 205. o
7442 2 1 5 -9 0 7304. 7230. 205. o
7442 1 1 -5 9 0 7304. 7230. 205. o
7443 3 1 -5 -9 -1 573. 335. 231. <
7443 1 -1 5 9 1 573. 335. 231. <
7444 3 -1 5 -9 1 578. 444. 207. o
7444 1 1 -5 9 -1 578. 444. 207. o
7445 3 0 -5 -9 1 53. 11. 219. <
7445 1 0 5 9 -1 53. 11. 219. <
7446 4 0 5 9 0 5499. 6852. 218. o
7446 3 0 -5 -9 0 5499. 6852. 218. o
7446 2 0 -5 -9 0 5499. 6852. 218. o
7446 1 0 5 9 0 5499. 6852. 218. o
7447 3 0 -5 -9 -1 70. 57. 216. <
7447 1 0 5 9 1 70. 57. 216. <
7448 3 -1 -5 -9 1 828. 431. 221. <
7448 1 1 5 9 -1 828. 431. 221. <
7449 4 -1 5 9 0 7396. 8028. 219. o
7449 3 -1 -5 -9 0 7396. 8028. 219. o
7449 2 1 -5 -9 0 7396. 8028. 219. o
7449 1 1 5 9 0 7396. 8028. 219. o
7450 3 -1 -5 -9 -1 190. 242. 218. <
7450 1 1 5 9 1 190. 242. 218. <
7451 3 -2 -5 -9 1 3. 178. 167. <
7451 1 2 5 9 -1 3. 178. 167. <
7452 4 -2 5 9 0 600. 177. 166. <
7452 3 -2 -5 -9 0 600. 177. 166. <
7452 2 2 -5 -9 0 600. 177. 166. <
7452 1 2 5 9 0 600. 177. 166. <
7453 3 -2 -5 -9 -1 271. 176. 166. <
7453 1 2 5 9 1 271. 176. 166. <
7454 3 -3 -5 -9 1 1335. 1484. 210. o
7454 1 3 5 9 -1 1335. 1484. 210. o
7455 4 -3 5 9 0 5186. 5525. 209. o
7455 3 -3 -5 -9 0 5186. 5525. 209. o
7455 2 3 -5 -9 0 5186. 5525. 209. o
7455 1 3 5 9 0 5186. 5525. 209. o
7456 3 -3 -5 -9 -1 212. 352. 209. <
7456 1 3 5 9 1 212. 352. 209. <
7457 3 -4 -5 -9 1 414. 325. 226. <
7457 1 4 5 9 -1 414. 325. 226. <
7458 4 -4 5 9 0 9688. 9882. 226. o
7458 3 -4 -5 -9 0 9688. 9882. 226. o
7458 2 4 -5 -9 0 9688. 9882. 226. o
7458 1 4 5 9 0 9688. 9882. 226. o
7459 3 -4 -5 -9 -1 25. 74. 225. <
7459 1 4 5 9 1 25. 74. 225. <
7460 3 -5 -5 -9 1 17. 57. 188. <
7460 1 5 5 9 -1 17. 57. 188. <
7461 4 -5 5 9 0 4613. 4789. 188. o
7461 3 -5 -5 -9 0 4613. 4789. 188. o
7461 2 5 -5 -9 0 4613. 4789. 188. o
7461 1 5 5 9 0 4613. 4789. 188. o
7462 3 -5 -5 -9 -1 23. -6. 187. <
7462 1 5 5 9 1 23. -6. 187. <
7463 3 -6 -5 -9 1 219. 486. 365. <
7463 1 6 5 9 -1 219. 486. 365. <
7464 4 -6 5 9 0 40178. 42816. 364. o
7464 3 -6 -5 -9 0 40178. 42816. 364. o
7464 2 6 -5 -9 0 40178. 42816. 364. o
7464 1 6 5 9 0 40178. 42816. 364. o
7465 3 -6 -5 -9 -1 16. 149. 365. <
7465 1 6 5 9 1 16. 149. 365. <
7466 3 -7 -5 -9 1 61. -12. 182. <
7466 1 7 5 9 -1 61. -12. 182. <
7467 4 -7 5 9 0 2008. 2486. 182. o
7467 3 -7 -5 -9 0 2008. 2486. 182. o
7467 2 7 -5 -9 0 2008. 2486. 182. o
7467 1 7 5 9 0 2008. 2486. 182. o
7468 3 -7 -5 -9 -1 433. 407. 182. o
7468 1 7 5 9 1 433. 407. 182. o
7469 3 -8 -5 -9 1 391. 356. 206. <
7469 1 8 5 9 -1 391. 356. 206. <
7470 3 8 5 -9 -1 406. 278. 204. <
7470 1 -8 -5 9 1 406. 278. 204. <
7471 4 -8 5 9 0 5760. 5772. 206. o
7471 3 -8 -5 -9 0 5760. 5772. 206. o
7471 2 8 -5 -9 0 5760. 5772. 206. o
7471 1 8 5 9 0 5760. 5772. 206. o
7472 4 8 -5 9 0 5592. 5877. 206. o
7472 3 8 5 -9 0 5592. 5877. 206. o
7472 2 -8 5 -9 0 5592. 5877. 206. o
7472 1 -8 -5 9 0 5592. 5877. 206. o
7473 3 -8 -5 -9 -1 67. 13. 206. <
7473 1 8 5 9 1 67. 13. 206. <
7474 3 8 5 -9 1 72. -2. 207. <
7474 1 -8 -5 9 -1 72. -2. 207. <
7475 3 9 5 -9 -1 243. 232. 208. <
7475 1 -9 -5 9 1 243. 232. 208. <
7476 4 9 -5 9 0 3825. 4472. 209. o
7476 3 9 5 -9 0 3825. 4472. 209. o
7476 2 -9 5 -9 0 3825. 4472. 209. o
7476 1 -9 -5 9 0 3825. 4472. 209. o
7477 3 9 5 -9 1 17. -9. 210. <
7477 1 -9 -5 9 -1 17. -9. 210. <
7478 3 9 -6 -9 -1 221. 54. 72. <
7478 1 -9 6 9 1 221. 54. 72. <
7479 3 8 -6 -9 1 806. 725. 157. o
7479 1 -8 6 9 -1 806. 725. 157. o
7480 4 8 6 9 0 2610. 2067. 157. o
7480 3 8 -6 -9 0 2610. 2067. 157. o
7480 2 -8 -6 -9 0 2610. 2067. 157. o
7480 1 -8 6 9 0 2610. 2067. 157. o
7481 3 8 -6 -9 -1 69. 13. 156. <
7481 1 -8 6 9 1 69. 13. 156. <
7482 3 7 -6 -9 1 24. 13. 165. <
7482 1 -7 6 9 -1 24. 13. 165. <
7483 4 7 6 9 0 6343. 5377. 166. o
7483 3 7 -6 -9 0 6343. 5377. 166. o
7483 2 -7 -6 -9 0 6343. 5377. 166. o
7483 1 -7 6 9 0 6343. 5377. 166. o
7484 3 7 -6 -9 -1 234. 46. 166. <
7484 1 -7 6 9 1 234. 46. 166. <
7485 3 6 -6 -9 1 147. 62. 245. <
7485 1 -6 6 9 -1 147. 62. 245. <
7486 4 6 6 9 0 26884. 23854. 247. o
7486 3 6 -6 -9 0 26884. 23854. 247. o
7486 2 -6 -6 -9 0 26884. 23854. 247. o
7486 1 -6 6 9 0 26884. 23854. 247. o
7487 3 6 -6 -9 -1 5. 148. 250. <
7487 1 -6 6 9 1 5. 148. 250. <
7488 3 5 -6 -9 1 191. 895. 313. o
7488 1 -5 6 9 -1 191. 895. 313. o
7489 4 5 6 9 0 38660. 37268. 311. o
7489 3 5 -6 -9 0 38660. 37268. 311. o
7489 2 -5 -6 -9 0 38660. 37268. 311. o
7489 1 -5 6 9 0 38660. 37268. 311. o
7490 3 5 -6 -9 -1 639. 364. 308. <
7490 1 -5 6 9 1 639. 364. 308. <
7491 3 4 -6 -9 1 2032. 2388. 100. o
7491 1 -4 6 9 -1 2032. 2388. 100. o
7492 4 4 6 9 0 18433. 20300. 234. o
7492 3 4 -6 -9 0 18433. 20300. 234. o
7492 2 -4 -6 -9 0 18433. 20300. 234. o
7492 1 -4 6 9 0 18433. 20300. 234. o
7493 3 4 -6 -9 -1 819. 944. 82. o
7493 1 -4 6 9 1 819. 944. 82. o
7494 3 3 -6 -9 1 183. 162. 50. o
7494 1 -3 6 9 -1 183. 162. 50. o
7495 4 3 6 9 0 2269. 2443. 100. o
7495 3 3 -6 -9 0 2269. 2443. 100. o
7495 2 -3 -6 -9 0 2269. 2443. 100. o
7495 1 -3 6 9 0 2269. 2443. 100. o
7496 3 3 -6 -9 -1 442. 393. 61. o
7496 1 -3 6 9 1 442. 393. 61. o
7497 3 2 -6 -9 1 86. 34. 47. <
7497 1 -2 6 9 -1 86. 34. 47. <
7498 4 2 6 9 0 10065. 9936. 158. o
7498 3 2 -6 -9 0 10065. 9936. 158. o
7498 2 -2 -6 -9 0 10065. 9936. 158. o
7498 1 -2 6 9 0 10065. 9936. 158. o
7499 3 2 -6 -9 -1 139. 39. 49. <
7499 1 -2 6 9 1 139. 39. 49. <
7500 3 1 -6 -9 1 393. 356. 129. o
7500 1 -1 6 9 -1 393. 356. 129. o
7501 4 1 6 9 0 5945. 6353. 142. o
7501 3 1 -6 -9 0 5945. 6353. 142. o
7501 2 -1 -6 -9 0 5945. 6353. 142. o
7501 1 -1 6 9 0 5945. 6353. 142. o
7502 3 1 -6 -9 -1 209. 228. 129. <
7502 1 -1 6 9 1 209. 228. 129. <
7503 3 0 -6 -9 1 976. 785. 198. o
7503 1 0 6 9 -1 976. 785. 198. o
7504 4 0 6 9 0 1156. 1576. 197. o
7504 3 0 -6 -9 0 1156. 1576. 197. o
7504 2 0 -6 -9 0 1156. 1576. 197. o
7504 1 0 6 9 0 1156. 1576. 197. o
7505 3 0 -6 -9 -1 749. 637. 195. o
7505 1 0 6 9 1 749. 637. 195. o
7506 3 -1 -6 -9 1 125. 157. 224. <
7506 1 1 6 9 -1 125. 157. 224. <
7507 4 -1 6 9 0 6255. 6658. 223. o
7507 3 -1 -6 -9 0 6255. 6658. 223. o
7507 2 1 -6 -9 0 6255. 6658. 223. o
7507 1 1 6 9 0 6255. 6658. 223. o
7508 3 -1 -6 -9 -1 483. 384. 222. <
7508 1 1 6 9 1 483. 384. 222. <
7509 3 -2 -6 -9 1 189. 235. 252. <
7509 1 2 6 9 -1 189. 235. 252. <
7510 4 -2 6 9 0 9921. 11252. 250. o
7510 3 -2 -6 -9 0 9921. 11252. 250. o
7510 2 2 -6 -9 0 9921. 11252. 250. o
7510 1 2 6 9 0 9921. 11252. 250. o
7511 3 -2 -6 -9 -1 114. 185. 249. <
7511 1 2 6 9 1 114. 185. 249. <
7512 3 -3 -6 -9 1 284. 95. 188. <
7512 1 3 6 9 -1 284. 95. 188. <
7513 4 -3 6 9 0 2233. 2242. 188. o
7513 3 -3 -6 -9 0 2233. 2242. 188. o
7513 2 3 -6 -9 0 2233. 2242. 188. o
7513 1 3 6 9 0 2233. 2242. 188. o
7514 3 -3 -6 -9 -1 548. 469. 187. o
7514 1 3 6 9 1 548. 469. 187. o
7515 3 -4 -6 -9 1 2. 177. 287. <
7515 1 4 6 9 -1 2. 177. 287. <
7516 4 -4 6 9 0 18178. 20713. 287. o
7516 3 -4 -6 -9 0 18178. 20713. 287. o
7516 2 4 -6 -9 0 18178. 20713. 287. o
7516 1 4 6 9 0 18178. 20713. 287. o
7517 3 -4 -6 -9 -1 191. 134. 286. <
7517 1 4 6 9 1 191. 134. 286. <
7518 3 -5 -6 -9 1 190. 450. 377. <
7518 1 5 6 9 -1 190. 450. 377. <
7519 4 -5 6 9 0 39822. 42926. 377. o
7519 3 -5 -6 -9 0 39822. 42926. 377. o
7519 2 5 -6 -9 0 39822. 42926. 377. o
7519 1 5 6 9 0 39822. 42926. 377. o
7520 3 -5 -6 -9 -1 86. 81. 377. <
7520 1 5 6 9 1 86. 81. 377. <
7521 3 -6 -6 -9 1 138. 459. 327. <
7521 1 6 6 9 -1 138. 459. 327. <
7522 4 -6 6 9 0 27686. 29628. 327. o
7522 3 -6 -6 -9 0 27686. 29628. 327. o
7522 2 6 -6 -9 0 27686. 29628. 327. o
7522 1 6 6 9 0 27686. 29628. 327. o
7523 3 -6 -6 -9 -1 30. 140. 327. <
7523 1 6 6 9 1 30. 140. 327. <
7524 3 -7 -6 -9 1 117. 262. 215. <
7524 1 7 6 9 -1 117. 262. 215. <
7525 4 -7 6 9 0 6544. 6911. 216. o
7525 3 -7 -6 -9 0 6544. 6911. 216. o
7525 2 7 -6 -9 0 6544. 6911. 216. o
7525 1 7 6 9 0 6544. 6911. 216. o
7526 3 -7 -6 -9 -1 177. 95. 216. <
7526 1 7 6 9 1 177. 95. 216. <
7527 3 9 6 -9 -1 151. 28. 69. <
7527 1 -9 -6 9 1 151. 28. 69. <
7528 3 8 -7 -9 1 185. 352. 152. o
7528 1 -8 7 9 -1 185. 352. 152. o
7529 4 8 7 9 0 1598. 976. 151. o
7529 3 8 -7 -9 0 1598. 976. 151. o
7529 2 -8 -7 -9 0 1598. 976. 151. o
7529 1 -8 7 9 0 1598. 976. 151. o
7530 3 8 -7 -9 -1 28. 378. 151. o
7530 1 -8 7 9 1 28. 378. 151. o
7531 3 7 -7 -9 1 61. 155. 172. <
7531 1 -7 7 9 -1 61. 155. 172. <
7532 4 7 7 9 0 6967. 6135. 173. o
7532 3 7 -7 -9 0 6967. 6135. 173. o
7532 2 -7 -7 -9 0 6967. 6135. 173. o
7532 1 -7 7 9 0 6967. 6135. 173. o
7533 3 7 -7 -9 -1 66. 113. 173. <
7533 1 -7 7 9 1 66. 113. 173. <
7534 3 6 -7 -9 1 114. 235. 169. <
7534 1 -6 7 9 -1 114. 235. 169. <
7535 4 6 7 9 0 5852. 5322. 170. o
7535 3 6 -7 -9 0 5852. 5322. 170. o
7535 2 -6 -7 -9 0 5852. 5322. 170. o
7535 1 -6 7 9 0 5852. 5322. 170. o
7536 3 6 -7 -9 -1 185. 29. 170. <
7536 1 -6 7 9 1 185. 29. 170. <
7537 3 5 -7 -9 1 215. 189. 175. <
7537 1 -5 7 9 -1 215. 189. 175. <
7538 4 5 7 9 0 3004. 2813. 177. o
7538 3 5 -7 -9 0 3004. 2813. 177. o
7538 2 -5 -7 -9 0 3004. 2813. 177. o
7538 1 -5 7 9 0 3004. 2813. 177. o
7539 3 5 -7 -9 -1 541. 535. 178. o
7539 1 -5 7 9 1 541. 535. 178. o
7540 3 4 -7 -9 1 1110. 740. 204. o
7540 1 -4 7 9 -1 1110. 740. 204. o
7541 4 4 7 9 0 7103. 7680. 206. o
7541 3 4 -7 -9 0 7103. 7680. 206. o
7541 2 -4 -7 -9 0 7103. 7680. 206. o
7541 1 -4 7 9 0 7103. 7680. 206. o
7542 3 4 -7 -9 -1 850. 276. 207. <
7542 1 -4 7 9 1 850. 276. 207. <
7543 3 3 -7 -9 1 975. 587. 190. o
7543 1 -3 7 9 -1 975. 587. 190. o
7544 4 3 7 9 0 11303. 11377. 189. o
7544 3 3 -7 -9 0 11303. 11377. 189. o
7544 2 -3 -7 -9 0 11303. 11377. 189. o
7544 1 -3 7 9 0 11303. 11377. 189. o
7545 3 3 -7 -9 -1 86. 30. 189. <
7545 1 -3 7 9 1 86. 30. 189. <
7546 3 2 -7 -9 1 775. 747. 186. o
7546 1 -2 7 9 -1 775. 747. 186. o
7547 4 2 7 9 0 12533. 12715. 186. o
7547 3 2 -7 -9 0 12533. 12715. 186. o
7547 2 -2 -7 -9 0 12533. 12715. 186. o
7547 1 -2 7 9 0 12533. 12715. 186. o
7548 3 2 -7 -9 -1 368. 433. 155. o
7548 1 -2 7 9 1 368. 433. 155. o
7549 3 1 -7 -9 1 149. 53. 117. <
7549 1 -1 7 9 -1 149. 53. 117. <
7550 4 1 7 9 0 805. 1167. 121. o
7550 3 1 -7 -9 0 805. 1167. 121. o
7550 2 -1 -7 -9 0 805. 1167. 121. o
7550 1 -1 7 9 0 805. 1167. 121. o
7551 3 1 -7 -9 -1 211. 177. 116. <
7551 1 -1 7 9 1 211. 177. 116. <
7552 3 0 -7 -9 1 76. 84. 225. <
7552 1 0 7 9 -1 76. 84. 225. <
7553 4 0 7 9 0 3910. 4129. 223. o
7553 3 0 -7 -9 0 3910. 4129. 223. o
7553 2 0 -7 -9 0 3910. 4129. 223. o
7553 1 0 7 9 0 3910. 4129. 223. o
7554 3 0 -7 -9 -1 743. 568. 222. o
7554 1 0 7 9 1 743. 568. 222. o
7555 3 -1 -7 -9 1 94. 280. 204. <
7555 1 1 7 9 -1 94. 280. 204. <
7556 4 -1 7 9 0 800. 279. 203. <
7556 3 -1 -7 -9 0 800. 279. 203. <
7556 2 1 -7 -9 0 800. 279. 203. <
7556 1 1 7 9 0 800. 279. 203. <
7557 3 -1 -7 -9 -1 30. 278. 202. <
7557 1 1 7 9 1 30. 278. 202. <
7558 3 -2 -7 -9 1 870. 698. 290. o
7558 1 2 7 9 -1 870. 698. 290. o
7559 4 -2 7 9 0 12852. 14445. 289. o
7559 3 -2 -7 -9 0 12852. 14445. 289. o
7559 2 2 -7 -9 0 12852. 14445. 289. o
7559 1 2 7 9 0 12852. 14445. 289. o
7560 3 -2 -7 -9 -1 584. 444. 288. <
7560 1 2 7 9 1 584. 444. 288. <
7561 3 -3 -7 -9 1 154. 163. 267. <
7561 1 3 7 9 -1 154. 163. 267. <
7562 4 -3 7 9 0 11380. 12767. 266. o
7562 3 -3 -7 -9 0 11380. 12767. 266. o
7562 2 3 -7 -9 0 11380. 12767. 266. o
7562 1 3 7 9 0 11380. 12767. 266. o
7563 3 -3 -7 -9 -1 269. 367. 266. <
7563 1 3 7 9 1 269. 367. 266. <
7564 3 -4 -7 -9 1 811. 601. 244. o
7564 1 4 7 9 -1 811. 601. 244. o
7565 4 -4 7 9 0 6921. 8420. 244. o
7565 3 -4 -7 -9 0 6921. 8420. 244. o
7565 2 4 -7 -9 0 6921. 8420. 244. o
7565 1 4 7 9 0 6921. 8420. 244. o
7566 3 -4 -7 -9 -1 538. 539. 244. o
7566 1 4 7 9 1 538. 539. 244. o
7567 3 -5 -7 -9 1 13. 56. 204. <
7567 1 5 7 9 -1 13. 56. 204. <
7568 4 -5 7 9 0 2943. 3282. 204. o
7568 3 -5 -7 -9 0 2943. 3282. 204. o
7568 2 5 -7 -9 0 2943. 3282. 204. o
7568 1 5 7 9 0 2943. 3282. 204. o
7569 3 -5 -7 -9 -1 471. 404. 204. <
7569 1 5 7 9 1 471. 404. 204. <
7570 3 -6 -7 -9 1 50. 225. 232. <
7570 1 6 7 9 -1 50. 225. 232. <
7571 4 -6 7 9 0 6144. 6899. 232. o
7571 3 -6 -7 -9 0 6144. 6899. 232. o
7571 2 6 -7 -9 0 6144. 6899. 232. o
7571 1 6 7 9 0 6144. 6899. 232. o
7572 3 -6 -7 -9 -1 276. 101. 232. <
7572 1 6 7 9 1 276. 101. 232. <
7573 3 -7 -7 -9 1 146. 240. 229. <
7573 1 7 7 9 -1 146. 240. 229. <
7574 4 -7 7 9 0 7195. 7639. 230. o
7574 3 -7 -7 -9 0 7195. 7639. 230. o
7574 2 7 -7 -9 0 7195. 7639. 230. o
7574 1 7 7 9 0 7195. 7639. 230. o
7575 3 -7 -7 -9 -1 25. 28. 231. <
7575 1 7 7 9 1 25. 28. 231. <
7576 3 7 -8 -9 1 8. 92. 150. <
7576 1 -7 8 9 -1 8. 92. 150. <
7577 4 7 8 9 0 2469. 1895. 151. o
7577 3 7 -8 -9 0 2469. 1895. 151. o
7577 2 -7 -8 -9 0 2469. 1895. 151. o
7577 1 -7 8 9 0 2469. 1895. 151. o
7578 3 7 -8 -9 -1 31. 51. 151. <
7578 1 -7 8 9 1 31. 51. 151. <
7579 3 6 -8 -9 1 75. 92. 160. <
7579 1 -6 8 9 -1 75. 92. 160. <
7580 4 6 8 9 0 1252. 1292. 161. o
7580 3 6 -8 -9 0 1252. 1292. 161. o
7580 2 -6 -8 -9 0 1252. 1292. 161. o
7580 1 -6 8 9 0 1252. 1292. 161. o
7581 3 6 -8 -9 -1 966. 682. 161. o
7581 1 -6 8 9 1 966. 682. 161. o
7582 3 5 -8 -9 1 318. 199. 210. <
7582 1 -5 8 9 -1 318. 199. 210. <
7583 4 5 8 9 0 4984. 4993. 212. o
7583 3 5 -8 -9 0 4984. 4993. 212. o
7583 2 -5 -8 -9 0 4984. 4993. 212. o
7583 1 -5 8 9 0 4984. 4993. 212. o
7584 3 5 -8 -9 -1 74. -5. 214. <
7584 1 -5 8 9 1 74. -5. 214. <
7585 3 4 -8 -9 1 217. 68. 220. <
7585 1 -4 8 9 -1 217. 68. 220. <
7586 4 4 8 9 0 7034. 7270. 222. o
7586 3 4 -8 -9 0 7034. 7270. 222. o
7586 2 -4 -8 -9 0 7034. 7270. 222. o
7586 1 -4 8 9 0 7034. 7270. 222. o
7587 3 4 -8 -9 -1 200. 187. 224. <
7587 1 -4 8 9 1 200. 187. 224. <
7588 3 3 -8 -9 1 217. 218. 190. <
7588 1 -3 8 9 -1 217. 218. 190. <
7589 4 3 8 9 0 7540. 7342. 189. o
7589 3 3 -8 -9 0 7540. 7342. 189. o
7589 2 -3 -8 -9 0 7540. 7342. 189. o
7589 1 -3 8 9 0 7540. 7342. 189. o
7590 3 3 -8 -9 -1 225. 159. 188. <
7590 1 -3 8 9 1 225. 159. 188. <
7591 3 2 -8 -9 1 855. 545. 231. o
7591 1 -2 8 9 -1 855. 545. 231. o
7592 4 2 8 9 0 9882. 10854. 234. o
7592 3 2 -8 -9 0 9882. 10854. 234. o
7592 2 -2 -8 -9 0 9882. 10854. 234. o
7592 1 -2 8 9 0 9882. 10854. 234. o
7593 3 2 -8 -9 -1 562. 312. 237. <
7593 1 -2 8 9 1 562. 312. 237. <
7594 3 1 -8 -9 1 113. 54. 117. <
7594 1 -1 8 9 -1 113. 54. 117. <
7595 4 1 8 9 0 2163. 2144. 135. o
7595 3 1 -8 -9 0 2163. 2144. 135. o
7595 2 -1 -8 -9 0 2163. 2144. 135. o
7595 1 -1 8 9 0 2163. 2144. 135. o
7596 3 1 -8 -9 -1 227. 63. 135. <
7596 1 -1 8 9 1 227. 63. 135. <
7597 3 0 -8 -9 1 648. 551. 216. o
7597 1 0 8 9 -1 648. 551. 216. o
7598 4 0 8 9 0 751. 912. 215. o
7598 3 0 -8 -9 0 751. 912. 215. o
7598 2 0 -8 -9 0 751. 912. 215. o
7598 1 0 8 9 0 751. 912. 215. o
7599 3 0 -8 -9 -1 530. 567. 214. o
7599 1 0 8 9 1 530. 567. 214. o
7600 3 -1 -8 -9 1 22. 20. 232. <
7600 1 1 8 9 -1 22. 20. 232. <
7601 4 -1 8 9 0 2281. 2635. 231. o
7601 3 -1 -8 -9 0 2281. 2635. 231. o
7601 2 1 -8 -9 0 2281. 2635. 231. o
7601 1 1 8 9 0 2281. 2635. 231. o
7602 3 -1 -8 -9 -1 238. 205. 230. <
7602 1 1 8 9 1 238. 205. 230. <
7603 3 -2 -8 -9 1 63. 35. 280. <
7603 1 2 8 9 -1 63. 35. 280. <
7604 4 -2 8 9 0 9843. 11730. 279. o
7604 3 -2 -8 -9 0 9843. 11730. 279. o
7604 2 2 -8 -9 0 9843. 11730. 279. o
7604 1 2 8 9 0 9843. 11730. 279. o
7605 3 -2 -8 -9 -1 115. 89. 279. <
7605 1 2 8 9 1 115. 89. 279. <
7606 3 -3 -8 -9 1 254. 231. 261. <
7606 1 3 8 9 -1 254. 231. 261. <
7607 4 -3 8 9 0 7627. 9190. 260. o
7607 3 -3 -8 -9 0 7627. 9190. 260. o
7607 2 3 -8 -9 0 7627. 9190. 260. o
7607 1 3 8 9 0 7627. 9190. 260. o
7608 3 -3 -8 -9 -1 222. 177. 260. <
7608 1 3 8 9 1 222. 177. 260. <
7609 3 -4 -8 -9 1 20. 59. 253. <
7609 1 4 8 9 -1 20. 59. 253. <
7610 4 -4 8 9 0 7072. 8223. 253. o
7610 3 -4 -8 -9 0 7072. 8223. 253. o
7610 2 4 -8 -9 0 7072. 8223. 253. o
7610 1 4 8 9 0 7072. 8223. 253. o
7611 3 -4 -8 -9 -1 148. 51. 253. <
7611 1 4 8 9 1 148. 51. 253. <
7612 3 -5 -8 -9 1 382. 310. 237. <
7612 1 5 8 9 -1 382. 310. 237. <
7613 4 -5 8 9 0 4853. 5583. 237. o
7613 3 -5 -8 -9 0 4853. 5583. 237. o
7613 2 5 -8 -9 0 4853. 5583. 237. o
7613 1 5 8 9 0 4853. 5583. 237. o
7614 3 -5 -8 -9 -1 39. -5. 237. <
7614 1 5 8 9 1 39. -5. 237. <
7615 3 -6 -8 -9 1 1134. 1268. 214. o
7615 1 6 8 9 -1 1134. 1268. 214. o
7616 4 -6 8 9 0 1318. 1452. 215. o
7616 3 -6 -8 -9 0 1318. 1452. 215. o
7616 2 6 -8 -9 0 1318. 1452. 215. o
7616 1 6 8 9 0 1318. 1452. 215. o
7617 3 -6 -8 -9 -1 122. 192. 215. <
7617 1 6 8 9 1 122. 192. 215. <
7618 3 6 -9 -9 1 108. 38. 80. <
7618 1 -6 9 9 -1 108. 38. 80. <
7619 3 5 -9 -9 1 530. 251. 176. <
7619 1 -5 9 9 -1 530. 251. 176. <
7620 4 5 9 9 0 3308. 3349. 176. o
7620 3 5 -9 -9 0 3308. 3349. 176. o
7620 2 -5 -9 -9 0 3308. 3349. 176. o
7620 1 -5 9 9 0 3308. 3349. 176. o
7621 3 5 -9 -9 -1 608. 355. 177. o
7621 1 -5 9 9 1 608. 355. 177. o
7622 3 4 -9 -9 1 55. 136. 188. <
7622 1 -4 9 9 -1 55. 136. 188. <
7623 4 4 9 9 0 638. 138. 190. <
7623 3 4 -9 -9 0 638. 138. 190. <
7623 2 -4 -9 -9 0 638. 138. 190. <
7623 1 -4 9 9 0 638. 138. 190. <
7624 3 4 -9 -9 -1 241. 139. 192. <
7624 1 -4 9 9 1 241. 139. 192. <
7625 3 3 -9 -9 1 111. 99. 224. <
7625 1 -3 9 9 -1 111. 99. 224. <
7626 4 3 9 9 0 4231. 4748. 226. o
7626 3 3 -9 -9 0 4231. 4748. 226. o
7626 2 -3 -9 -9 0 4231. 4748. 226. o
7626 1 -3 9 9 0 4231. 4748. 226. o
7627 3 3 -9 -9 -1 638. 541. 229. o
7627 1 -3 9 9 1 638. 541. 229. o
7628 3 2 -9 -9 1 184. 198. 209. <
7628 1 -2 9 9 -1 184. 198. 209. <
7629 4 2 9 9 0 11409. 11086. 209. o
7629 3 2 -9 -9 0 11409. 11086. 209. o
7629 2 -2 -9 -9 0 11409. 11086. 209. o
7629 1 -2 9 9 0 11409. 11086. 209. o
7630 3 2 -9 -9 -1 9. 89. 209. <
7630 1 -2 9 9 1 9. 89. 209. <
7631 3 1 -9 -9 1 409. 310. 211. <
7631 1 -1 9 9 -1 409. 310. 211. <
7632 4 1 9 9 0 13660. 13885. 212. o
7632 3 1 -9 -9 0 13660. 13885. 212. o
7632 2 -1 -9 -9 0 13660. 13885. 212. o
7632 1 -1 9 9 0 13660. 13885. 212. o
7633 3 1 -9 -9 -1 85. 107. 212. <
7633 1 -1 9 9 1 85. 107. 212. <
7634 3 0 -9 -9 1 547. 462. 235. <
7634 1 0 9 9 -1 547. 462. 235. <
7635 4 0 9 9 0 1548. 2226. 234. o
7635 3 0 -9 -9 0 1548. 2226. 234. o
7635 2 0 -9 -9 0 1548. 2226. 234. o
7635 1 0 9 9 0 1548. 2226. 234. o
7636 3 0 -9 -9 -1 46. -6. 233. <
7636 1 0 9 9 1 46. -6. 233. <
7637 3 -1 -9 -9 1 485. 572. 333. <
7637 1 1 9 9 -1 485. 572. 333. <
7638 4 -1 9 9 0 13993. 15654. 332. o
7638 3 -1 -9 -9 0 13993. 15654. 332. o
7638 2 1 -9 -9 0 13993. 15654. 332. o
7638 1 1 9 9 0 13993. 15654. 332. o
7639 3 -1 -9 -9 -1 274. 281. 331. <
7639 1 1 9 9 1 274. 281. 331. <
7640 3 -2 -9 -9 1 414. 564. 305. <
7640 1 2 9 9 -1 414. 564. 305. <
7641 4 -2 9 9 0 11419. 12767. 304. o
7641 3 -2 -9 -9 0 11419. 12767. 304. o
7641 2 2 -9 -9 0 11419. 12767. 304. o
7641 1 2 9 9 0 11419. 12767. 304. o
7642 3 -2 -9 -9 -1 13. 133. 304. <
7642 1 2 9 9 1 13. 133. 304. <
7643 3 -3 -9 -9 1 293. 573. 251. o
7643 1 3 9 9 -1 293. 573. 251. o
7644 4 -3 9 9 0 4477. 4498. 251. o
7644 3 -3 -9 -9 0 4477. 4498. 251. o
7644 2 3 -9 -9 0 4477. 4498. 251. o
7644 1 3 9 9 0 4477. 4498. 251. o
7645 3 -3 -9 -9 -1 609. 1211. 251. o
7645 1 3 9 9 1 609. 1211. 251. o
7646 3 -4 -9 -9 1 61. 54. 209. <
7646 1 4 9 9 -1 61. 54. 209. <
7647 4 -4 9 9 0 713. 1104. 209. o
7647 3 -4 -9 -9 0 713. 1104. 209. o
7647 2 4 -9 -9 0 713. 1104. 209. o
7647 1 4 9 9 0 713. 1104. 209. o
7648 3 -4 -9 -9 -1 34. 76. 209. <
7648 1 4 9 9 1 34. 76. 209. <
7649 3 -5 -9 -9 1 350. 244. 241. <
7649 1 5 9 9 -1 350. 244. 241. <
7650 4 -5 9 9 0 3191. 4259. 241. o
7650 3 -5 -9 -9 0 3191. 4259. 241. o
7650 2 5 -9 -9 0 3191. 4259. 241. o
7650 1 5 9 9 0 3191. 4259. 241. o
7651 3 -5 -9 -9 -1 29. 2. 241. <
7651 1 5 9 9 1 29. 2. 241. <
7652 3 4 -10 -9 1 262. 156. 140. <
7652 1 -4 10 9 -1 262. 156. 140. <
7653 4 4 10 9 0 2947. 2352. 141. o
7653 3 4 -10 -9 0 2947. 2352. 141. o
7653 2 -4 -10 -9 0 2947. 2352. 141. o
7653 1 -4 10 9 0 2947. 2352. 141. o
7654 3 3 -10 -9 1 72. 49. 172. <
7654 1 -3 10 9 -1 72. 49. 172. <
7655 4 3 10 9 0 1722. 2056. 173. o
7655 3 3 -10 -9 0 1722. 2056. 173. o
7655 2 -3 -10 -9 0 1722. 2056. 173. o
7655 1 -3 10 9 0 1722. 2056. 173. o
7656 3 3 -10 -9 -1 483. 388. 173. o
7656 1 -3 10 9 1 483. 388. 173. o
7657 3 2 -10 -9 1 2152. 1948. 210. o
7657 1 -2 10 9 -1 2152. 1948. 210. o
7658 4 2 10 9 0 5084. 5025. 210. o
7658 3 2 -10 -9 0 5084. 5025. 210. o
7658 2 -2 -10 -9 0 5084. 5025. 210. o
7658 1 -2 10 9 0 5084. 5025. 210. o
7659 3 2 -10 -9 -1 631. 870. 211. o
7659 1 -2 10 9 1 631. 870. 211. o
7660 3 1 -10 -9 1 223. 71. 309. <
7660 1 -1 10 9 -1 223. 71. 309. <
7661 4 1 10 9 0 32143. 34692. 310. o
7661 3 1 -10 -9 0 32143. 34692. 310. o
7661 2 -1 -10 -9 0 32143. 34692. 310. o
7661 1 -1 10 9 0 32143. 34692. 310. o
7662 3 1 -10 -9 -1 234. 215. 311. <
7662 1 -1 10 9 1 234. 215. 311. <
7663 3 0 -10 -9 1 131. 135. 223. <
7663 1 0 10 9 -1 131. 135. 223. <
7664 4 0 10 9 0 291. 217. 223. <
7664 3 0 -10 -9 0 291. 217. 223. <
7664 2 0 -10 -9 0 291. 217. 223. <
7664 1 0 10 9 0 291. 217. 223. <
7665 3 0 -10 -9 -1 32. -31. 222. <
7665 1 0 10 9 1 32. -31. 222. <
7666 3 -1 -10 -9 1 465. 524. 426. <
7666 1 1 10 9 -1 465. 524. 426. <
7667 4 -1 10 9 0 31626. 34468. 425. o
7667 3 -1 -10 -9 0 31626. 34468. 425. o
7667 2 1 -10 -9 0 31626. 34468. 425. o
7667 1 1 10 9 0 31626. 34468. 425. o
7668 3 -1 -10 -9 -1 47. 130. 425. <
7668 1 1 10 9 1 47. 130. 425. <
7669 3 -2 -10 -9 1 512. 608. 281. o
7669 1 2 10 9 -1 512. 608. 281. o
7670 4 -2 10 9 0 4786. 4655. 281. o
7670 3 -2 -10 -9 0 4786. 4655. 281. o
7670 2 2 -10 -9 0 4786. 4655. 281. o
7670 1 2 10 9 0 4786. 4655. 281. o
7671 3 -2 -10 -9 -1 846. 1276. 280. o
7671 1 2 10 9 1 846. 1276. 280. o
7672 3 -3 -10 -9 1 258. 279. 256. <
7672 1 3 10 9 -1 258. 279. 256. <
7673 4 -3 10 9 0 1725. 2465. 255. o
7673 3 -3 -10 -9 0 1725. 2465. 255. o
7673 2 3 -10 -9 0 1725. 2465. 255. o
7673 1 3 10 9 0 1725. 2465. 255. o
7674 3 -3 -10 -9 -1 591. 661. 255. o
7674 1 3 10 9 1 591. 661. 255. o
7675 3 -4 -10 -9 1 111. 113. 207. <
7675 1 4 10 9 -1 111. 113. 207. <
7676 4 -4 10 9 0 3051. 3066. 207. o
7676 3 -4 -10 -9 0 3051. 3066. 207. o
7676 2 4 -10 -9 0 3051. 3066. 207. o
7676 1 4 10 9 0 3051. 3066. 207. o
7677 3 -1 0 -10 1 97. 63. 141. <
7677 1 1 0 10 -1 97. 63. 141. <
7678 3 1 0 -10 -1 98. 38. 162. <
7678 1 -1 0 10 1 98. 38. 162. <
7679 4 -1 0 10 0 480. 481. 140. o
7679 3 -1 0 -10 0 480. 481. 140. o
7679 2 1 0 -10 0 480. 481. 140. o
7679 1 1 0 10 0 480. 481. 140. o
7680 4 1 0 10 0 483. 586. 164. o
7680 3 1 0 -10 0 483. 586. 164. o
7680 2 -1 0 -10 0 483. 586. 164. o
7680 1 -1 0 10 0 483. 586. 164. o
7681 3 -1 0 -10 -1 122. 78. 139. <
7681 1 1 0 10 1 122. 78. 139. <
7682 3 1 0 -10 1 123. 71. 167. <
7682 1 -1 0 10 -1 123. 71. 167. <
7683 3 -2 0 -10 1 98. 34. 194. <
7683 1 2 0 10 -1 98. 34. 194. <
7684 3 2 0 -10 -1 95. 38. 211. <
7684 1 -2 0 10 1 95. 38. 211. <
7685 4 -2 0 10 0 6968. 7058. 193. o
7685 3 -2 0 -10 0 6968. 7058. 193. o
7685 2 2 0 -10 0 6968. 7058. 193. o
7685 1 2 0 10 0 6968. 7058. 193. o
7686 4 2 0 10 0 6932. 6920. 214. o
7686 3 2 0 -10 0 6932. 6920. 214. o
7686 2 -2 0 -10 0 6932. 6920. 214. o
7686 1 -2 0 10 0 6932. 6920. 214. o
7687 3 -2 0 -10 -1 27. 26. 191. <
7687 1 2 0 10 1 27. 26. 191. <
7688 3 2 0 -10 1 26. 21. 217. <
7688 1 -2 0 10 -1 26. 21. 217. <
7689 3 -3 0 -10 1 102. 132. 174. <
7689 1 3 0 10 -1 102. 132. 174. <
7690 3 3 0 -10 -1 100. 136. 183. <
7690 1 -3 0 10 1 100. 136. 183. <
7691 4 -3 0 10 0 900. 1261. 173. o
7691 3 -3 0 -10 0 900. 1261. 173. o
7691 2 3 0 -10 0 900. 1261. 173. o
7691 1 3 0 10 0 900. 1261. 173. o
7692 4 3 0 10 0 901. 741. 188. o
7692 3 3 0 -10 0 901. 741. 188. o
7692 2 -3 0 -10 0 901. 741. 188. o
7692 1 -3 0 10 0 901. 741. 188. o
7693 3 -3 0 -10 -1 128. 179. 171. <
7693 1 3 0 10 1 128. 179. 171. <
7694 3 3 0 -10 1 126. 143. 194. <
7694 1 -3 0 10 -1 126. 143. 194. <
7695 3 -4 0 -10 1 161. 1. 189. <
7695 1 4 0 10 -1 161. 1. 189. <
7696 4 -4 0 10 0 2848. 3443. 188. o
7696 3 -4 0 -10 0 2848. 3443. 188. o
7696 2 4 0 -10 0 2848. 3443. 188. o
7696 1 4 0 10 0 2848. 3443. 188. o
7697 3 -4 0 -10 -1 318. 203. 186. <
7697 1 4 0 10 1 318. 203. 186. <
7698 3 -5 0 -10 1 50. 117. 187. <
7698 1 5 0 10 -1 50. 117. 187. <
7699 4 -5 0 10 0 172. 460. 185. o
7699 3 -5 0 -10 0 172. 460. 185. o
7699 2 5 0 -10 0 172. 460. 185. o
7699 1 5 0 10 0 172. 460. 185. o
7700 3 -5 0 -10 -1 126. 141. 184. <
7700 1 5 0 10 1 126. 141. 184. <
7701 3 -6 0 -10 1 168. 210. 459. <
7701 1 6 0 10 -1 168. 210. 459. <
7702 3 6 0 -10 -1 171. 106. 324. <
7702 1 -6 0 10 1 171. 106. 324. <
7703 4 -6 0 10 0 57328. 61067. 456. o
7703 3 -6 0 -10 0 57328. 61067. 456. o
7703 2 6 0 -10 0 57328. 61067. 456. o
7703 1 6 0 10 0 57328. 61067. 456. o
7704 4 6 0 10 0 57324. 53961. 324. o
7704 3 6 0 -10 0 57324. 53961. 324. o
7704 2 -6 0 -10 0 57324. 53961. 324. o
7704 1 -6 0 10 0 57324. 53961. 324. o
7705 3 -6 0 -10 -1 130. 90. 452. <
7705 1 6 0 10 1 130. 90. 452. <
7706 3 6 0 -10 1 128. 27. 325. <
7706 1 -6 0 10 -1 128. 27. 325. <
7707 3 -7 0 -10 1 36. 75. 196. <
7707 1 7 0 10 -1 36. 75. 196. <
7708 3 7 0 -10 -1 39. 41. 124. <
7708 1 -7 0 10 1 39. 41. 124. <
7709 4 -7 0 10 0 125. 314. 195. <
7709 3 -7 0 -10 0 125. 314. 195. <
7709 2 7 0 -10 0 125. 314. 195. <
7709 1 7 0 10 0 125. 314. 195. <
7710 4 7 0 10 0 131. 237. 124. <
7710 3 7 0 -10 0 131. 237. 124. <
7710 2 -7 0 -10 0 131. 237. 124. <
7710 1 -7 0 10 0 131. 237. 124. <
7711 3 -7 0 -10 -1 21. 35. 195. <
7711 1 7 0 10 1 21. 35. 195. <
7712 3 7 0 -10 1 24. 31. 124. <
7712 1 -7 0 10 -1 24. 31. 124. <
7713 3 -8 0 -10 1 228. 140. 257. <
7713 1 8 0 10 -1 228. 140. 257. <
7714 3 8 0 -10 -1 237. 185. 173. <
7714 1 -8 0 10 1 237. 185. 173. <
7715 4 -8 0 10 0 7085. 7230. 257. o
7715 3 -8 0 -10 0 7085. 7230. 257. o
7715 2 8 0 -10 0 7085. 7230. 257. o
7715 1 8 0 10 0 7085. 7230. 257. o
7716 4 8 0 10 0 6798. 6072. 174. o
7716 3 8 0 -10 0 6798. 6072. 174. o
7716 2 -8 0 -10 0 6798. 6072. 174. o
7716 1 -8 0 10 0 6798. 6072. 174. o
7717 3 -8 0 -10 -1 203. 182. 257. <
7717 1 8 0 10 1 203. 182. 257. <
7718 3 8 0 -10 1 217. 141. 174. <
7718 1 -8 0 10 -1 217. 141. 174. <
7719 3 -9 0 -10 1 17. 83. 228. <
7719 1 9 0 10 -1 17. 83. 228. <
7720 3 9 0 -10 -1 17. 53. 140. <
7720 1 -9 0 10 1 17. 53. 140. <
7721 4 -9 0 10 0 249. 83. 227. <
7721 3 -9 0 -10 0 249. 83. 227. <
7721 2 9 0 -10 0 249. 83. 227. <
7721 1 9 0 10 0 249. 83. 227. <
7722 4 9 0 10 0 248. 156. 140. <
7722 3 9 0 -10 0 248. 156. 140. <
7722 2 -9 0 -10 0 248. 156. 140. <
7722 1 -9 0 10 0 248. 156. 140. <
7723 3 -9 0 -10 -1 80. 83. 227. <
7723 1 9 0 10 1 80. 83. 227. <
7724 3 9 0 -10 1 80. 103. 140. <
7724 1 -9 0 10 -1 80. 103. 140. <
7725 3 -10 0 -10 1 32. 45. 127. <
7725 1 10 0 10 -1 32. 45. 127. <
7726 3 10 0 -10 -1 32. 2. 58. <
7726 1 -10 0 10 1 32. 2. 58. <
7727 3 -10 1 -10 1 64. 81. 132. <
7727 1 10 -1 10 -1 64. 81. 132. <
7728 3 9 -1 -10 1 27. 49. 149. <
7728 1 -9 1 10 -1 27. 49. 149. <
7729 3 -9 1 -10 -1 28. -6. 244. <
7729 1 9 -1 10 1 28. -6. 244. <
7730 4 9 1 10 0 1596. 1389. 149. o
7730 3 9 -1 -10 0 1596. 1389. 149. o
7730 2 -9 -1 -10 0 1596. 1389. 149. o
7730 1 -9 1 10 0 1596. 1389. 149. o
7731 4 -9 -1 10 0 1742. 1329. 245. o
7731 3 -9 1 -10 0 1742. 1329. 245. o
7731 2 9 1 -10 0 1742. 1329. 245. o
7731 1 9 -1 10 0 1742. 1329. 245. o
7732 3 9 -1 -10 -1 330. 220. 149. <
7732 1 -9 1 10 1 330. 220. 149. <
7733 3 -9 1 -10 1 337. 202. 246. <
7733 1 9 -1 10 -1 337. 202. 246. <
7734 3 8 -1 -10 1 1172. 813. 211. o
7734 1 -8 1 10 -1 1172. 813. 211. o
7735 3 -8 1 -10 -1 1179. 832. 309. o
7735 1 8 -1 10 1 1179. 832. 309. o
7736 4 8 1 10 0 13405. 12144. 211. o
7736 3 8 -1 -10 0 13405. 12144. 211. o
7736 2 -8 -1 -10 0 13405. 12144. 211. o
7736 1 -8 1 10 0 13405. 12144. 211. o
7737 4 -8 -1 10 0 13406. 14403. 309. o
7737 3 -8 1 -10 0 13406. 14403. 309. o
7737 2 8 1 -10 0 13406. 14403. 309. o
7737 1 8 -1 10 0 13406. 14403. 309. o
7738 3 8 -1 -10 -1 465. 459. 212. o
7738 1 -8 1 10 1 465. 459. 212. o
7739 3 -8 1 -10 1 467. 413. 310. <
7739 1 8 -1 10 -1 467. 413. 310. <
7740 3 7 -1 -10 1 174. 157. 103. <
7740 1 -7 1 10 -1 174. 157. 103. <
7741 3 -7 1 -10 -1 173. 156. 209. <
7741 1 7 -1 10 1 173. 156. 209. <
7742 4 7 1 10 0 570. 357. 103. o
7742 3 7 -1 -10 0 570. 357. 103. o
7742 2 -7 -1 -10 0 570. 357. 103. o
7742 1 -7 1 10 0 570. 357. 103. o
7743 4 -7 -1 10 0 566. 794. 210. o
7743 3 -7 1 -10 0 566. 794. 210. o
7743 2 7 1 -10 0 566. 794. 210. o
7743 1 7 -1 10 0 566. 794. 210. o
7744 3 7 -1 -10 -1 124. 144. 51. o
7744 1 -7 1 10 1 124. 144. 51. o
7745 3 -7 1 -10 1 127. 131. 211. <
7745 1 7 -1 10 -1 127. 131. 211. <
7746 3 6 -1 -10 1 352. 467. 55. o
7746 1 -6 1 10 -1 352. 467. 55. o
7747 3 -6 1 -10 -1 354. 353. 474. <
7747 1 6 -1 10 1 354. 353. 474. <
7748 4 6 1 10 0 64190. 62282. 350. o
7748 3 6 -1 -10 0 64190. 62282. 350. o
7748 2 -6 -1 -10 0 64190. 62282. 350. o
7748 1 -6 1 10 0 64190. 62282. 350. o
7749 4 -6 -1 10 0 64008. 65763. 476. o
7749 3 -6 1 -10 0 64008. 65763. 476. o
7749 2 6 1 -10 0 64008. 65763. 476. o
7749 1 6 -1 10 0 64008. 65763. 476. o
7750 3 6 -1 -10 -1 64. 122. 46. o
7750 1 -6 1 10 1 64. 122. 46. o
7751 3 -6 1 -10 1 62. 137. 478. <
7751 1 6 -1 10 -1 62. 137. 478. <
7752 3 5 -1 -10 1 551. 595. 61. o
7752 1 -5 1 10 -1 551. 595. 61. o
7753 3 -5 1 -10 -1 546. 476. 598. <
7753 1 5 -1 10 1 546. 476. 598. <
7754 4 5 1 10 0 112067. 112848. 465. o
7754 3 5 -1 -10 0 112067. 112848. 465. o
7754 2 -5 -1 -10 0 112067. 112848. 465. o
7754 1 -5 1 10 0 112067. 112848. 465. o
7755 4 -5 -1 10 0 111739. 118393. 601. o
7755 3 -5 1 -10 0 111739. 118393. 601. o
7755 2 5 1 -10 0 111739. 118393. 601. o
7755 1 5 -1 10 0 111739. 118393. 601. o
7756 3 5 -1 -10 -1 531. 522. 57. o
7756 1 -5 1 10 1 531. 522. 57. o
7757 3 -5 1 -10 1 528. 473. 603. <
7757 1 5 -1 10 -1 528. 473. 603. <
7758 3 -4 1 -10 -1 146. 88. 233. <
7758 1 4 -1 10 1 146. 88. 233. <
7759 4 -4 -1 10 0 9866. 9836. 235. o
7759 3 -4 1 -10 0 9866. 9836. 235. o
7759 2 4 1 -10 0 9866. 9836. 235. o
7759 1 4 -1 10 0 9866. 9836. 235. o
7760 3 -4 1 -10 1 204. 223. 236. <
7760 1 4 -1 10 -1 204. 223. 236. <
7761 3 3 -1 -10 1 98. 101. 236. <
7761 1 -3 1 10 -1 98. 101. 236. <
7762 3 -3 1 -10 -1 98. 100. 172. <
7762 1 3 -1 10 1 98. 100. 172. <
7763 4 3 1 10 0 586. 3356. 230. o
7763 3 3 -1 -10 0 586. 3356. 230. o
7763 2 -3 -1 -10 0 586. 3356. 230. o
7763 1 -3 1 10 0 586. 3356. 230. o
7764 4 -3 -1 10 0 798. 726. 174. o
7764 3 -3 1 -10 0 798. 726. 174. o
7764 2 3 1 -10 0 798. 726. 174. o
7764 1 3 -1 10 0 798. 726. 174. o
7765 3 3 -1 -10 -1 82. 40. 224. <
7765 1 -3 1 10 1 82. 40. 224. <
7766 3 -3 1 -10 1 82. 40. 175. <
7766 1 3 -1 10 -1 82. 40. 175. <
7767 3 2 -1 -10 1 72. 27. 355. <
7767 1 -2 1 10 -1 72. 27. 355. <
7768 3 -2 1 -10 -1 70. 58. 322. <
7768 1 2 -1 10 1 70. 58. 322. <
7769 4 2 1 10 0 34094. 34032. 350. o
7769 3 2 -1 -10 0 34094. 34032. 350. o
7769 2 -2 -1 -10 0 34094. 34032. 350. o
7769 1 -2 1 10 0 34094. 34032. 350. o
7770 4 -2 -1 10 0 34146. 34851. 325. o
7770 3 -2 1 -10 0 34146. 34851. 325. o
7770 2 2 1 -10 0 34146. 34851. 325. o
7770 1 2 -1 10 0 34146. 34851. 325. o
7771 3 2 -1 -10 -1 13. 33. 344. <
7771 1 -2 1 10 1 13. 33. 344. <
7772 3 -2 1 -10 1 14. 48. 328. <
7772 1 2 -1 10 -1 14. 48. 328. <
7773 3 1 -1 -10 1 392. 121. 316. <
7773 1 -1 1 10 -1 392. 121. 316. <
7774 3 -1 1 -10 -1 397. 174. 286. <
7774 1 1 -1 10 1 397. 174. 286. <
7775 4 1 1 10 0 27045. 27574. 313. o
7775 3 1 -1 -10 0 27045. 27574. 313. o
7775 2 -1 -1 -10 0 27045. 27574. 313. o
7775 1 -1 1 10 0 27045. 27574. 313. o
7776 4 -1 -1 10 0 27084. 26727. 288. o
7776 3 -1 1 -10 0 27084. 26727. 288. o
7776 2 1 1 -10 0 27084. 26727. 288. o
7776 1 1 -1 10 0 27084. 26727. 288. o
7777 3 1 -1 -10 -1 231. 112. 309. <
7777 1 -1 1 10 1 231. 112. 309. <
7778 3 -1 1 -10 1 228. 193. 291. <
7778 1 1 -1 10 -1 228. 193. 291. <
7779 3 0 -1 -10 1 94. 18. 154. <
7779 1 0 1 10 -1 94. 18. 154. <
7780 4 0 1 10 0 517. 982. 152. o
7780 3 0 -1 -10 0 517. 982. 152. o
7780 2 0 -1 -10 0 517. 982. 152. o
7780 1 0 1 10 0 517. 982. 152. o
7781 3 0 -1 -10 -1 140. 74. 151. <
7781 1 0 1 10 1 140. 74. 151. <
7782 3 -1 -1 -10 1 18. 76. 289. <
7782 1 1 1 10 -1 18. 76. 289. <
7783 3 1 1 -10 -1 18. 73. 288. <
7783 1 -1 -1 10 1 18. 73. 288. <
7784 4 -1 1 10 0 27373. 27327. 287. o
7784 3 -1 -1 -10 0 27373. 27327. 287. o
7784 2 1 -1 -10 0 27373. 27327. 287. o
7784 1 1 1 10 0 27373. 27327. 287. o
7785 4 1 -1 10 0 27343. 26820. 291. o
7785 3 1 1 -10 0 27343. 26820. 291. o
7785 2 -1 1 -10 0 27343. 26820. 291. o
7785 1 -1 -1 10 0 27343. 26820. 291. o
7786 3 -1 -1 -10 -1 0. 69. 285. <
7786 1 1 1 10 1 0. 69. 285. <
7787 3 1 1 -10 1 1. -2. 295. <
7787 1 -1 -1 10 -1 1. -2. 295. <
7788 3 -2 -1 -10 1 17. 124. 324. <
7788 1 2 1 10 -1 17. 124. 324. <
7789 3 2 1 -10 -1 17. 85. 328. <
7789 1 -2 -1 10 1 17. 85. 328. <
7790 4 -2 1 10 0 34401. 34553. 322. o
7790 3 -2 -1 -10 0 34401. 34553. 322. o
7790 2 2 -1 -10 0 34401. 34553. 322. o
7790 1 2 1 10 0 34401. 34553. 322. o
7791 4 2 -1 10 0 34573. 33958. 333. o
7791 3 2 1 -10 0 34573. 33958. 333. o
7791 2 -2 1 -10 0 34573. 33958. 333. o
7791 1 -2 -1 10 0 34573. 33958. 333. o
7792 3 -2 -1 -10 -1 18. 143. 320. <
7792 1 2 1 10 1 18. 143. 320. <
7793 3 2 1 -10 1 17. 120. 340. <
7793 1 -2 -1 10 -1 17. 120. 340. <
7794 3 -3 -1 -10 1 73. 21. 164. <
7794 1 3 1 10 -1 73. 21. 164. <
7795 4 -3 1 10 0 570. 675. 163. o
7795 3 -3 -1 -10 0 570. 675. 163. o
7795 2 3 -1 -10 0 570. 675. 163. o
7795 1 3 1 10 0 570. 675. 163. o
7796 3 -3 -1 -10 -1 211. 78. 162. <
7796 1 3 1 10 1 211. 78. 162. <
7797 3 -4 -1 -10 1 123. 67. 223. <
7797 1 4 1 10 -1 123. 67. 223. <
7798 4 -4 1 10 0 9815. 9982. 222. o
7798 3 -4 -1 -10 0 9815. 9982. 222. o
7798 2 4 -1 -10 0 9815. 9982. 222. o
7798 1 4 1 10 0 9815. 9982. 222. o
7799 3 -4 -1 -10 -1 13. 25. 221. <
7799 1 4 1 10 1 13. 25. 221. <
7800 3 -5 -1 -10 1 53. 291. 569. <
7800 1 5 1 10 -1 53. 291. 569. <
7801 4 -5 1 10 0 112710. 114352. 566. o
7801 3 -5 -1 -10 0 112710. 114352. 566. o
7801 2 5 -1 -10 0 112710. 114352. 566. o
7801 1 5 1 10 0 112710. 114352. 566. o
7802 3 -5 -1 -10 -1 1. 165. 563. <
7802 1 5 1 10 1 1. 165. 563. <
7803 3 -6 -1 -10 1 191. 158. 455. <
7803 1 6 1 10 -1 191. 158. 455. <
7804 4 -6 1 10 0 65110. 63994. 452. o
7804 3 -6 -1 -10 0 65110. 63994. 452. o
7804 2 6 -1 -10 0 65110. 63994. 452. o
7804 1 6 1 10 0 65110. 63994. 452. o
7805 3 -6 -1 -10 -1 623. 507. 450. <
7805 1 6 1 10 1 623. 507. 450. <
7806 3 -7 -1 -10 1 4. 64. 191. <
7806 1 7 1 10 -1 4. 64. 191. <
7807 3 7 1 -10 -1 3. 151. 126. <
7807 1 -7 -1 10 1 3. 151. 126. <
7808 4 -7 1 10 0 538. 594. 189. o
7808 3 -7 -1 -10 0 538. 594. 189. o
7808 2 7 -1 -10 0 538. 594. 189. o
7808 1 7 1 10 0 538. 594. 189. o
7809 4 7 -1 10 0 533. 152. 126. <
7809 3 7 1 -10 0 533. 152. 126. <
7809 2 -7 1 -10 0 533. 152. 126. <
7809 1 -7 -1 10 0 533. 152. 126. <
7810 3 -7 -1 -10 -1 107. 71. 188. <
7810 1 7 1 10 1 107. 71. 188. <
7811 3 7 1 -10 1 105. 152. 126. <
7811 1 -7 -1 10 -1 105. 152. 126. <
7812 3 -8 -1 -10 1 3. 61. 284. <
7812 1 8 1 10 -1 3. 61. 284. <
7813 3 8 1 -10 -1 3. 30. 207. <
7813 1 -8 -1 10 1 3. 30. 207. <
7814 4 -8 1 10 0 13333. 13499. 282. o
7814 3 -8 -1 -10 0 13333. 13499. 282. o
7814 2 8 -1 -10 0 13333. 13499. 282. o
7814 1 8 1 10 0 13333. 13499. 282. o
7815 4 8 -1 10 0 13351. 12038. 208. o
7815 3 8 1 -10 0 13351. 12038. 208. o
7815 2 -8 1 -10 0 13351. 12038. 208. o
7815 1 -8 -1 10 0 13351. 12038. 208. o
7816 3 -8 -1 -10 -1 193. 128. 280. <
7816 1 8 1 10 1 193. 128. 280. <
7817 3 8 1 -10 1 192. 170. 209. <
7817 1 -8 -1 10 -1 192. 170. 209. <
7818 3 -9 -1 -10 1 120. 71. 233. <
7818 1 9 1 10 -1 120. 71. 233. <
7819 3 9 1 -10 -1 116. 108. 151. <
7819 1 -9 -1 10 1 116. 108. 151. <
7820 4 -9 1 10 0 1571. 1246. 231. o
7820 3 -9 -1 -10 0 1571. 1246. 231. o
7820 2 9 -1 -10 0 1571. 1246. 231. o
7820 1 9 1 10 0 1571. 1246. 231. o
7821 4 9 -1 10 0 1726. 1700. 152. o
7821 3 9 1 -10 0 1726. 1700. 152. o
7821 2 -9 1 -10 0 1726. 1700. 152. o
7821 1 -9 -1 10 0 1726. 1700. 152. o
7822 3 -9 -1 -10 -1 577. 514. 229. o
7822 1 9 1 10 1 577. 514. 229. o
7823 3 9 1 -10 1 580. 350. 152. o
7823 1 -9 -1 10 -1 580. 350. 152. o
7824 3 -10 -1 -10 1 37. 36. 115. <
7824 1 10 1 10 -1 37. 36. 115. <
7825 3 10 1 -10 -1 32. 35. 60. <
7825 1 -10 -1 10 1 32. 35. 60. <
7826 3 9 -2 -10 1 516. 518. 245. o
7826 1 -9 2 10 -1 516. 518. 245. o
7827 3 -9 2 -10 -1 533. 331. 358. <
7827 1 9 -2 10 1 533. 331. 358. <
7828 4 9 2 10 0 18595. 17249. 245. o
7828 3 9 -2 -10 0 18595. 17249. 245. o
7828 2 -9 -2 -10 0 18595. 17249. 245. o
7828 1 -9 2 10 0 18595. 17249. 245. o
7829 4 -9 -2 10 0 18258. 19843. 360. o
7829 3 -9 2 -10 0 18258. 19843. 360. o
7829 2 9 2 -10 0 18258. 19843. 360. o
7829 1 9 -2 10 0 18258. 19843. 360. o
7830 3 9 -2 -10 -1 154. 115. 246. <
7830 1 -9 2 10 1 154. 115. 246. <
7831 3 -9 2 -10 1 154. 134. 362. <
7831 1 9 -2 10 -1 154. 134. 362. <
7832 3 8 -2 -10 1 72. 37. 159. <
7832 1 -8 2 10 -1 72. 37. 159. <
7833 3 -8 2 -10 -1 79. 50. 262. <
7833 1 8 -2 10 1 79. 50. 262. <
7834 4 8 2 10 0 5184. 4903. 160. o
7834 3 8 -2 -10 0 5184. 4903. 160. o
7834 2 -8 -2 -10 0 5184. 4903. 160. o
7834 1 -8 2 10 0 5184. 4903. 160. o
7835 4 -8 -2 10 0 5023. 5305. 263. o
7835 3 -8 2 -10 0 5023. 5305. 263. o
7835 2 8 2 -10 0 5023. 5305. 263. o
7835 1 8 -2 10 0 5023. 5305. 263. o
7836 3 8 -2 -10 -1 47. 75. 161. <
7836 1 -8 2 10 1 47. 75. 161. <
7837 3 -8 2 -10 1 51. 63. 264. <
7837 1 8 -2 10 -1 51. 63. 264. <
7838 3 7 -2 -10 1 267. 371. 59. o
7838 1 -7 2 10 -1 267. 371. 59. o
7839 3 -7 2 -10 -1 273. 262. 359. <
7839 1 7 -2 10 1 273. 262. 359. <
7840 4 7 2 10 0 27040. 26687. 245. o
7840 3 7 -2 -10 0 27040. 26687. 245. o
7840 2 -7 -2 -10 0 27040. 26687. 245. o
7840 1 -7 2 10 0 27040. 26687. 245. o
7841 4 -7 -2 10 0 26361. 26927. 360. o
7841 3 -7 2 -10 0 26361. 26927. 360. o
7841 2 7 2 -10 0 26361. 26927. 360. o
7841 1 7 -2 10 0 26361. 26927. 360. o
7842 3 7 -2 -10 -1 131. 225. 56. o
7842 1 -7 2 10 1 131. 225. 56. o
7843 3 -7 2 -10 1 127. 187. 362. <
7843 1 7 -2 10 -1 127. 187. 362. <
7844 3 6 -2 -10 1 56. 40. 45. <
7844 1 -6 2 10 -1 56. 40. 45. <
7845 3 -6 2 -10 -1 53. 42. 253. <
7845 1 6 -2 10 1 53. 42. 253. <
7846 4 6 2 10 0 8972. 8402. 145. o
7846 3 6 -2 -10 0 8972. 8402. 145. o
7846 2 -6 -2 -10 0 8972. 8402. 145. o
7846 1 -6 2 10 0 8972. 8402. 145. o
7847 4 -6 -2 10 0 8845. 8540. 254. o
7847 3 -6 2 -10 0 8845. 8540. 254. o
7847 2 6 2 -10 0 8845. 8540. 254. o
7847 1 6 -2 10 0 8845. 8540. 254. o
7848 3 6 -2 -10 -1 95. 17. 43. <
7848 1 -6 2 10 1 95. 17. 43. <
7849 3 -6 2 -10 1 93. 28. 255. <
7849 1 6 -2 10 -1 93. 28. 255. <
7850 3 5 -2 -10 1 23. 32. 40. <
7850 1 -5 2 10 -1 23. 32. 40. <
7851 3 -5 2 -10 -1 26. 80. 269. <
7851 1 5 -2 10 1 26. 80. 269. <
7852 4 5 2 10 0 14056. 14290. 169. o
7852 3 5 -2 -10 0 14056. 14290. 169. o
7852 2 -5 -2 -10 0 14056. 14290. 169. o
7852 1 -5 2 10 0 14056. 14290. 169. o
7853 4 -5 -2 10 0 13716. 14377. 270. o
7853 3 -5 2 -10 0 13716. 14377. 270. o
7853 2 5 2 -10 0 13716. 14377. 270. o
7853 1 5 -2 10 0 13716. 14377. 270. o
7854 3 5 -2 -10 -1 108. 178. 45. o
7854 1 -5 2 10 1 108. 178. 45. o
7855 3 -5 2 -10 1 106. 185. 272. <
7855 1 5 -2 10 -1 106. 185. 272. <
7856 3 4 -2 -10 1 294. 122. 241. <
7856 1 -4 2 10 -1 294. 122. 241. <
7857 3 -4 2 -10 -1 289. 208. 190. <
7857 1 4 -2 10 1 289. 208. 190. <
7858 4 4 2 10 0 1418. 1787. 236. o
7858 3 4 -2 -10 0 1418. 1787. 236. o
7858 2 -4 -2 -10 0 1418. 1787. 236. o
7858 1 -4 2 10 0 1418. 1787. 236. o
7859 4 -4 -2 10 0 1499. 1388. 192. o
7859 3 -4 2 -10 0 1499. 1388. 192. o
7859 2 4 2 -10 0 1499. 1388. 192. o
7859 1 4 -2 10 0 1499. 1388. 192. o
7860 3 4 -2 -10 -1 101. 49. 231. <
7860 1 -4 2 10 1 101. 49. 231. <
7861 3 -4 2 -10 1 99. 87. 193. <
7861 1 4 -2 10 -1 99. 87. 193. <
7862 3 3 -2 -10 1 42. 202. 562. <
7862 1 -3 2 10 -1 42. 202. 562. <
7863 3 -3 2 -10 -1 42. 253. 486. <
7863 1 3 -2 10 1 42. 253. 486. <
7864 4 3 2 10 0 78676. 79196. 554. o
7864 3 3 -2 -10 0 78676. 79196. 554. o
7864 2 -3 -2 -10 0 78676. 79196. 554. o
7864 1 -3 2 10 0 78676. 79196. 554. o
7865 4 -3 -2 10 0 78733. 81284. 489. o
7865 3 -3 2 -10 0 78733. 81284. 489. o
7865 2 3 2 -10 0 78733. 81284. 489. o
7865 1 3 -2 10 0 78733. 81284. 489. o
7866 3 3 -2 -10 -1 149. 122. 546. <
7866 1 -3 2 10 1 149. 122. 546. <
7867 3 -3 2 -10 1 152. 136. 493. <
7867 1 3 -2 10 -1 152. 136. 493. <
7868 3 -2 2 -10 -1 79. 78. 376. <
7868 1 2 -2 10 1 79. 78. 376. <
7869 4 -2 -2 10 0 49190. 49832. 378. o
7869 3 -2 2 -10 0 49190. 49832. 378. o
7869 2 2 2 -10 0 49190. 49832. 378. o
7869 1 2 -2 10 0 49190. 49832. 378. o
7870 3 -2 2 -10 1 41. 43. 382. <
7870 1 2 -2 10 -1 41. 43. 382. <
7871 3 1 -2 -10 1 2. 40. 352. <
7871 1 -1 2 10 -1 2. 40. 352. <
7872 4 1 2 10 0 33717. 35093. 349. o
7872 3 1 -2 -10 0 33717. 35093. 349. o
7872 2 -1 -2 -10 0 33717. 35093. 349. o
7872 1 -1 2 10 0 33717. 35093. 349. o
7873 3 1 -2 -10 -1 15. 68. 345. <
7873 1 -1 2 10 1 15. 68. 345. <
7874 3 -1 -2 -10 1 63. 118. 324. <
7874 1 1 2 10 -1 63. 118. 324. <
7875 3 1 2 -10 -1 65. 87. 305. <
7875 1 -1 -2 10 1 65. 87. 305. <
7876 4 -1 2 10 0 34173. 34211. 322. o
7876 3 -1 -2 -10 0 34173. 34211. 322. o
7876 2 1 -2 -10 0 34173. 34211. 322. o
7876 1 1 2 10 0 34173. 34211. 322. o
7877 4 1 -2 10 0 34023. 32909. 309. o
7877 3 1 2 -10 0 34023. 32909. 309. o
7877 2 -1 2 -10 0 34023. 32909. 309. o
7877 1 -1 -2 10 0 34023. 32909. 309. o
7878 3 -1 -2 -10 -1 76. 109. 320. <
7878 1 1 2 10 1 76. 109. 320. <
7879 3 1 2 -10 1 71. 63. 313. <
7879 1 -1 -2 10 -1 71. 63. 313. <
7880 3 -2 -2 -10 1 167. 186. 378. <
7880 1 2 2 10 -1 167. 186. 378. <
7881 4 -2 2 10 0 49226. 48966. 376. o
7881 3 -2 -2 -10 0 49226. 48966. 376. o
7881 2 2 -2 -10 0 49226. 48966. 376. o
7881 1 2 2 10 0 49226. 48966. 376. o
7882 3 -2 -2 -10 -1 51. 131. 374. <
7882 1 2 2 10 1 51. 131. 374. <
7883 3 -3 -2 -10 1 259. 445. 465. <
7883 1 3 2 10 -1 259. 445. 465. <
7884 4 -3 2 10 0 77934. 79439. 463. o
7884 3 -3 -2 -10 0 77934. 79439. 463. o
7884 2 3 -2 -10 0 77934. 79439. 463. o
7884 1 3 2 10 0 77934. 79439. 463. o
7885 3 -3 -2 -10 -1 206. 242. 461. <
7885 1 3 2 10 1 206. 242. 461. <
7886 3 -4 -2 -10 1 41. 28. 166. <
7886 1 4 2 10 -1 41. 28. 166. <
7887 4 -4 2 10 0 1358. 1264. 165. o
7887 3 -4 -2 -10 0 1358. 1264. 165. o
7887 2 4 -2 -10 0 1358. 1264. 165. o
7887 1 4 2 10 0 1358. 1264. 165. o
7888 3 -4 -2 -10 -1 41. 32. 165. <
7888 1 4 2 10 1 41. 32. 165. <
7889 3 -5 -2 -10 1 16. 14. 251. <
7889 1 5 2 10 -1 16. 14. 251. <
7890 4 -5 2 10 0 13921. 14342. 250. o
7890 3 -5 -2 -10 0 13921. 14342. 250. o
7890 2 5 -2 -10 0 13921. 14342. 250. o
7890 1 5 2 10 0 13921. 14342. 250. o
7891 3 -5 -2 -10 -1 92. 107. 249. <
7891 1 5 2 10 1 92. 107. 249. <
7892 3 -6 -2 -10 1 151. 99. 233. <
7892 1 6 2 10 -1 151. 99. 233. <
7893 4 -6 2 10 0 8935. 8668. 232. o
7893 3 -6 -2 -10 0 8935. 8668. 232. o
7893 2 6 -2 -10 0 8935. 8668. 232. o
7893 1 6 2 10 0 8935. 8668. 232. o
7894 3 -6 -2 -10 -1 179. 109. 231. <
7894 1 6 2 10 1 179. 109. 231. <
7895 3 -7 -2 -10 1 449. 325. 338. <
7895 1 7 2 10 -1 449. 325. 338. <
7896 3 7 2 -10 -1 459. 312. 265. <
7896 1 -7 -2 10 1 459. 312. 265. <
7897 4 -7 2 10 0 27976. 28367. 336. o
7897 3 -7 -2 -10 0 27976. 28367. 336. o
7897 2 7 -2 -10 0 27976. 28367. 336. o
7897 1 7 2 10 0 27976. 28367. 336. o
7898 4 7 -2 10 0 27258. 26098. 266. o
7898 3 7 2 -10 0 27258. 26098. 266. o
7898 2 -7 2 -10 0 27258. 26098. 266. o
7898 1 -7 -2 10 0 27258. 26098. 266. o
7899 3 -7 -2 -10 -1 102. 101. 335. <
7899 1 7 2 10 1 102. 101. 335. <
7900 3 7 2 -10 1 104. 27. 267. <
7900 1 -7 -2 10 -1 104. 27. 267. <
7901 3 -8 -2 -10 1 30. -49. 225. <
7901 1 8 2 10 -1 30. -49. 225. <
7902 3 8 2 -10 -1 31. -2. 165. <
7902 1 -8 -2 10 1 31. -2. 165. <
7903 4 -8 2 10 0 5218. 5142. 224. o
7903 3 -8 -2 -10 0 5218. 5142. 224. o
7903 2 8 -2 -10 0 5218. 5142. 224. o
7903 1 8 2 10 0 5218. 5142. 224. o
7904 4 8 -2 10 0 4912. 4523. 165. o
7904 3 8 2 -10 0 4912. 4523. 165. o
7904 2 -8 2 -10 0 4912. 4523. 165. o
7904 1 -8 -2 10 0 4912. 4523. 165. o
7905 3 -8 -2 -10 -1 31. 68. 223. <
7905 1 8 2 10 1 31. 68. 223. <
7906 3 8 2 -10 1 32. 20. 166. <
7906 1 -8 -2 10 -1 32. 20. 166. <
7907 3 -9 -2 -10 1 28. 37. 316. <
7907 1 9 2 10 -1 28. 37. 316. <
7908 3 9 2 -10 -1 30. 23. 250. <
7908 1 -9 -2 10 1 30. 23. 250. <
7909 4 -9 2 10 0 18370. 19220. 315. o
7909 3 -9 -2 -10 0 18370. 19220. 315. o
7909 2 9 -2 -10 0 18370. 19220. 315. o
7909 1 9 2 10 0 18370. 19220. 315. o
7910 4 9 -2 10 0 18257. 17790. 252. o
7910 3 9 2 -10 0 18257. 17790. 252. o
7910 2 -9 2 -10 0 18257. 17790. 252. o
7910 1 -9 -2 10 0 18257. 17790. 252. o
7911 3 -9 -2 -10 -1 461. 348. 313. <
7911 1 9 2 10 1 461. 348. 313. <
7912 3 9 2 -10 1 457. 303. 253. <
7912 1 -9 -2 10 -1 457. 303. 253. <
7913 3 9 -3 -10 1 821. 1071. 456. o
7913 1 -9 3 10 -1 821. 1071. 456. o
7914 3 -9 3 -10 -1 841. 545. 624. <
7914 1 9 -3 10 1 841. 545. 624. <
7915 4 9 3 10 0 77784. 73565. 459. o
7915 3 9 -3 -10 0 77784. 73565. 459. o
7915 2 -9 -3 -10 0 77784. 73565. 459. o
7915 1 -9 3 10 0 77784. 73565. 459. o
7916 4 -9 -3 10 0 77736. 84353. 630. o
7916 3 -9 3 -10 0 77736. 84353. 630. o
7916 2 9 3 -10 0 77736. 84353. 630. o
7916 1 9 -3 10 0 77736. 84353. 630. o
7917 3 9 -3 -10 -1 124. 218. 462. <
7917 1 -9 3 10 1 124. 218. 462. <
7918 3 -9 3 -10 1 137. 170. 634. <
7918 1 9 -3 10 -1 137. 170. 634. <
7919 3 8 -3 -10 1 72. 198. 207. <
7919 1 -8 3 10 -1 72. 198. 207. <
7920 3 -8 3 -10 -1 74. 12. 323. <
7920 1 8 -3 10 1 74. 12. 323. <
7921 4 8 3 10 0 12394. 11747. 208. o
7921 3 8 -3 -10 0 12394. 11747. 208. o
7921 2 -8 -3 -10 0 12394. 11747. 208. o
7921 1 -8 3 10 0 12394. 11747. 208. o
7922 4 -8 -3 10 0 12239. 12584. 325. o
7922 3 -8 3 -10 0 12239. 12584. 325. o
7922 2 8 3 -10 0 12239. 12584. 325. o
7922 1 8 -3 10 0 12239. 12584. 325. o
7923 3 8 -3 -10 -1 160. 107. 210. <
7923 1 -8 3 10 1 160. 107. 210. <
7924 3 -8 3 -10 1 163. 157. 327. <
7924 1 8 -3 10 -1 163. 157. 327. <
7925 3 7 -3 -10 1 105. 13. 50. <
7925 1 -7 3 10 -1 105. 13. 50. <
7926 3 -7 3 -10 -1 107. 5. 278. <
7926 1 7 -3 10 1 107. 5. 278. <
7927 4 7 3 10 0 8339. 8351. 159. o
7927 3 7 -3 -10 0 8339. 8351. 159. o
7927 2 -7 -3 -10 0 8339. 8351. 159. o
7927 1 -7 3 10 0 8339. 8351. 159. o
7928 4 -7 -3 10 0 8402. 8232. 279. o
7928 3 -7 3 -10 0 8402. 8232. 279. o
7928 2 7 3 -10 0 8402. 8232. 279. o
7928 1 7 -3 10 0 8402. 8232. 279. o
7929 3 7 -3 -10 -1 227. 315. 56. o
7929 1 -7 3 10 1 227. 315. 56. o
7930 3 -7 3 -10 1 222. 184. 280. <
7930 1 7 -3 10 -1 222. 184. 280. <
7931 3 6 -3 -10 1 692. 735. 72. o
7931 1 -6 3 10 -1 692. 735. 72. o
7932 3 -6 3 -10 -1 696. 715. 448. <
7932 1 6 -3 10 1 696. 715. 448. <
7933 4 6 3 10 0 49152. 51077. 334. o
7933 3 6 -3 -10 0 49152. 51077. 334. o
7933 2 -6 -3 -10 0 49152. 51077. 334. o
7933 1 -6 3 10 0 49152. 51077. 334. o
7934 4 -6 -3 10 0 49166. 50504. 451. o
7934 3 -6 3 -10 0 49166. 50504. 451. o
7934 2 6 3 -10 0 49166. 50504. 451. o
7934 1 6 -3 10 0 49166. 50504. 451. o
7935 3 6 -3 -10 -1 1081. 1100. 77. o
7935 1 -6 3 10 1 1081. 1100. 77. o
7936 3 -6 3 -10 1 1083. 1134. 453. o
7936 1 6 -3 10 -1 1083. 1134. 453. o
7937 3 5 -3 -10 1 32. -10. 154. <
7937 1 -5 3 10 -1 32. -10. 154. <
7938 3 -5 3 -10 -1 34. -24. 220. <
7938 1 5 -3 10 1 34. -24. 220. <
7939 4 5 3 10 0 4452. 4673. 159. o
7939 3 5 -3 -10 0 4452. 4673. 159. o
7939 2 -5 -3 -10 0 4452. 4673. 159. o
7939 1 -5 3 10 0 4452. 4673. 159. o
7940 4 -5 -3 10 0 4635. 5050. 221. o
7940 3 -5 3 -10 0 4635. 5050. 221. o
7940 2 5 3 -10 0 4635. 5050. 221. o
7940 1 5 -3 10 0 4635. 5050. 221. o
7941 3 5 -3 -10 -1 131. 27. 146. <
7941 1 -5 3 10 1 131. 27. 146. <
7942 3 -5 3 -10 1 139. -4. 222. <
7942 1 5 -3 10 -1 139. -4. 222. <
7943 3 4 -3 -10 1 112. 135. 50. o
7943 1 -4 3 10 -1 112. 135. 50. o
7944 3 -4 3 -10 -1 112. 144. 218. <
7944 1 4 -3 10 1 112. 144. 218. <
7945 4 -4 -3 10 0 4939. 5013. 219. o
7945 3 -4 3 -10 0 4939. 5013. 219. o
7945 2 4 3 -10 0 4939. 5013. 219. o
7945 1 4 -3 10 0 4939. 5013. 219. o
7946 3 -4 3 -10 1 119. 137. 220. <
7946 1 4 -3 10 -1 119. 137. 220. <
7947 3 3 -3 -10 1 148. 155. 304. <
7947 1 -3 3 10 -1 148. 155. 304. <
7948 3 -3 3 -10 -1 145. 197. 256. <
7948 1 3 -3 10 1 145. 197. 256. <
7949 4 3 3 10 0 12588. 13108. 300. o
7949 3 3 -3 -10 0 12588. 13108. 300. o
7949 2 -3 -3 -10 0 12588. 13108. 300. o
7949 1 -3 3 10 0 12588. 13108. 300. o
7950 4 -3 -3 10 0 13093. 13248. 258. o
7950 3 -3 3 -10 0 13093. 13248. 258. o
7950 2 3 3 -10 0 13093. 13248. 258. o
7950 1 3 -3 10 0 13093. 13248. 258. o
7951 3 3 -3 -10 -1 138. 106. 296. <
7951 1 -3 3 10 1 138. 106. 296. <
7952 3 -3 3 -10 1 137. 212. 260. <
7952 1 3 -3 10 -1 137. 212. 260. <
7953 3 -2 3 -10 -1 54. 139. 479. <
7953 1 2 -3 10 1 54. 139. 479. <
7954 4 -2 -3 10 0 77524. 80752. 484. o
7954 3 -2 3 -10 0 77524. 80752. 484. o
7954 2 2 3 -10 0 77524. 80752. 484. o
7954 1 2 -3 10 0 77524. 80752. 484. o
7955 3 -2 3 -10 1 216. 137. 487. <
7955 1 2 -3 10 -1 216. 137. 487. <
7956 3 1 -3 -10 1 22. 1. 170. <
7956 1 -1 3 10 -1 22. 1. 170. <
7957 3 -1 3 -10 -1 23. 47. 165. <
7957 1 1 -3 10 1 23. 47. 165. <
7958 4 1 3 10 0 615. 189. 169. <
7958 3 1 -3 -10 0 615. 189. 169. <
7958 2 -1 -3 -10 0 615. 189. 169. <
7958 1 -1 3 10 0 615. 189. 169. <
7959 4 -1 -3 10 0 661. 538. 166. o
7959 3 -1 3 -10 0 661. 538. 166. o
7959 2 1 3 -10 0 661. 538. 166. o
7959 1 1 -3 10 0 661. 538. 166. o
7960 3 1 -3 -10 -1 131. 20. 167. <
7960 1 -1 3 10 1 131. 20. 167. <
7961 3 -1 3 -10 1 134. 76. 168. <
7961 1 1 -3 10 -1 134. 76. 168. <
7962 3 0 -3 -10 1 183. 83. 169. <
7962 1 0 3 10 -1 183. 83. 169. <
7963 3 0 3 -10 -1 186. 101. 158. <
7963 1 0 -3 10 1 186. 101. 158. <
7964 4 0 3 10 0 617. 544. 167. o
7964 3 0 -3 -10 0 617. 544. 167. o
7964 2 0 -3 -10 0 617. 544. 167. o
7964 1 0 3 10 0 617. 544. 167. o
7965 4 0 -3 10 0 599. 923. 160. o
7965 3 0 3 -10 0 599. 923. 160. o
7965 2 0 3 -10 0 599. 923. 160. o
7965 1 0 -3 10 0 599. 923. 160. o
7966 3 0 -3 -10 -1 111. 85. 166. <
7966 1 0 3 10 1 111. 85. 166. <
7967 3 0 3 -10 1 116. 86. 162. <
7967 1 0 -3 10 -1 116. 86. 162. <
7968 3 -1 -3 -10 1 57. 37. 162. <
7968 1 1 3 10 -1 57. 37. 162. <
7969 4 -1 3 10 0 637. 944. 161. o
7969 3 -1 -3 -10 0 637. 944. 161. o
7969 2 1 -3 -10 0 637. 944. 161. o
7969 1 1 3 10 0 637. 944. 161. o
7970 3 -1 -3 -10 -1 197. 51. 159. <
7970 1 1 3 10 1 197. 51. 159. <
7971 3 -2 -3 -10 1 408. 463. 471. <
7971 1 2 3 10 -1 408. 463. 471. <
7972 4 -2 3 10 0 77075. 78756. 468. o
7972 3 -2 -3 -10 0 77075. 78756. 468. o
7972 2 2 -3 -10 0 77075. 78756. 468. o
7972 1 2 3 10 0 77075. 78756. 468. o
7973 3 -2 -3 -10 -1 219. 395. 466. <
7973 1 2 3 10 1 219. 395. 466. <
7974 3 -3 -3 -10 1 1. 72. 239. <
7974 1 3 3 10 -1 1. 72. 239. <
7975 4 -3 3 10 0 12841. 12856. 238. o
7975 3 -3 -3 -10 0 12841. 12856. 238. o
7975 2 3 -3 -10 0 12841. 12856. 238. o
7975 1 3 3 10 0 12841. 12856. 238. o
7976 3 -3 -3 -10 -1 131. 31. 237. <
7976 1 3 3 10 1 131. 31. 237. <
7977 3 -4 -3 -10 1 45. 51. 194. <
7977 1 4 3 10 -1 45. 51. 194. <
7978 4 -4 3 10 0 5096. 5168. 194. o
7978 3 -4 -3 -10 0 5096. 5168. 194. o
7978 2 4 -3 -10 0 5096. 5168. 194. o
7978 1 4 3 10 0 5096. 5168. 194. o
7979 3 -4 -3 -10 -1 2. 16. 193. <
7979 1 4 3 10 1 2. 16. 193. <
7980 3 -5 -3 -10 1 9. 1682. 194. o
7980 1 5 3 10 -1 9. 1682. 194. o
7981 4 -5 3 10 0 4405. 1679. 194. o
7981 3 -5 -3 -10 0 4405. 1679. 194. o
7981 2 5 -3 -10 0 4405. 1679. 194. o
7981 1 5 3 10 0 4405. 1679. 194. o
7982 3 -5 -3 -10 -1 221. 1676. 194. o
7982 1 5 3 10 1 221. 1676. 194. o
7983 3 -6 -3 -10 1 32. 333. 407. <
7983 1 6 3 10 -1 32. 333. 407. <
7984 4 -6 3 10 0 49042. 51751. 406. o
7984 3 -6 -3 -10 0 49042. 51751. 406. o
7984 2 6 -3 -10 0 49042. 51751. 406. o
7984 1 6 3 10 0 49042. 51751. 406. o
7985 3 -6 -3 -10 -1 162. 243. 405. <
7985 1 6 3 10 1 162. 243. 405. <
7986 3 -7 -3 -10 1 248. 191. 231. <
7986 1 7 3 10 -1 248. 191. 231. <
7987 4 -7 3 10 0 8400. 8630. 230. o
7987 3 -7 -3 -10 0 8400. 8630. 230. o
7987 2 7 -3 -10 0 8400. 8630. 230. o
7987 1 7 3 10 0 8400. 8630. 230. o
7988 3 -7 -3 -10 -1 14. 36. 230. <
7988 1 7 3 10 1 14. 36. 230. <
7989 3 -8 -3 -10 1 41. 46. 266. <
7989 1 8 3 10 -1 41. 46. 266. <
7990 3 8 3 -10 -1 43. 43. 224. <
7990 1 -8 -3 10 1 43. 43. 224. <
7991 4 -8 3 10 0 12639. 12796. 266. o
7991 3 -8 -3 -10 0 12639. 12796. 266. o
7991 2 8 -3 -10 0 12639. 12796. 266. o
7991 1 8 3 10 0 12639. 12796. 266. o
7992 4 8 -3 10 0 12425. 12419. 225. o
7992 3 8 3 -10 0 12425. 12419. 225. o
7992 2 -8 3 -10 0 12425. 12419. 225. o
7992 1 -8 -3 10 0 12425. 12419. 225. o
7993 3 -8 -3 -10 -1 25. 20. 266. <
7993 1 8 3 10 1 25. 20. 266. <
7994 3 8 3 -10 1 21. 13. 226. <
7994 1 -8 -3 10 -1 21. 13. 226. <
7995 3 -9 -3 -10 1 189. 196. 535. <
7995 1 9 3 10 -1 189. 196. 535. <
7996 3 9 3 -10 -1 179. 194. 465. <
7996 1 -9 -3 10 1 179. 194. 465. <
7997 4 -9 3 10 0 79166. 81455. 535. o
7997 3 -9 -3 -10 0 79166. 81455. 535. o
7997 2 9 -3 -10 0 79166. 81455. 535. o
7997 1 9 3 10 0 79166. 81455. 535. o
7998 4 9 -3 10 0 79316. 75918. 468. o
7998 3 9 3 -10 0 79316. 75918. 468. o
7998 2 -9 3 -10 0 79316. 75918. 468. o
7998 1 -9 -3 10 0 79316. 75918. 468. o
7999 3 -9 -3 -10 -1 20. 202. 535. <
7999 1 9 3 10 1 20. 202. 535. <
8000 3 9 3 -10 1 17. 161. 470. <
8000 1 -9 -3 10 -1 17. 161. 470. <
8001 4 9 4 10 0 14818. 14828. 243. o
8001 3 9 -4 -10 0 14818. 14828. 243. o
8001 2 -9 -4 -10 0 14818. 14828. 243. o
8001 1 -9 4 10 0 14818. 14828. 243. o
8002 3 9 -4 -10 -1 194. 326. 244. <
8002 1 -9 4 10 1 194. 326. 244. <
8003 3 8 -4 -10 1 1. 43. 229. <
8003 1 -8 4 10 -1 1. 43. 229. <
8004 4 8 4 10 0 14124. 13640. 231. o
8004 3 8 -4 -10 0 14124. 13640. 231. o
8004 2 -8 -4 -10 0 14124. 13640. 231. o
8004 1 -8 4 10 0 14124. 13640. 231. o
8005 3 8 -4 -10 -1 140. 97. 232. <
8005 1 -8 4 10 1 140. 97. 232. <
8006 3 7 -4 -10 1 366. 399. 160. o
8006 1 -7 4 10 -1 366. 399. 160. o
8007 4 7 4 10 0 2419. 2455. 162. o
8007 3 7 -4 -10 0 2419. 2455. 162. o
8007 2 -7 -4 -10 0 2419. 2455. 162. o
8007 1 -7 4 10 0 2419. 2455. 162. o
8008 3 7 -4 -10 -1 899. 826. 163. o
8008 1 -7 4 10 1 899. 826. 163. o
8009 3 6 -4 -10 1 1253. 1295. 191. o
8009 1 -6 4 10 -1 1253. 1295. 191. o
8010 4 6 4 10 0 3992. 3907. 191. o
8010 3 6 -4 -10 0 3992. 3907. 191. o
8010 2 -6 -4 -10 0 3992. 3907. 191. o
8010 1 -6 4 10 0 3992. 3907. 191. o
8011 3 6 -4 -10 -1 876. 840. 180. o
8011 1 -6 4 10 1 876. 840. 180. o
8012 3 5 -4 -10 1 3. 95. 235. <
8012 1 -5 4 10 -1 3. 95. 235. <
8013 3 -5 4 -10 -1 2. 47. 388. <
8013 1 5 -4 10 1 2. 47. 388. <
8014 4 5 4 10 0 37367. 34396. 270. o
8014 3 5 -4 -10 0 37367. 34396. 270. o
8014 2 -5 -4 -10 0 37367. 34396. 270. o
8014 1 -5 4 10 0 37367. 34396. 270. o
8015 4 -5 -4 10 0 37302. 36442. 390. o
8015 3 -5 4 -10 0 37302. 36442. 390. o
8015 2 5 4 -10 0 37302. 36442. 390. o
8015 1 5 -4 10 0 37302. 36442. 390. o
8016 3 5 -4 -10 -1 11. 38. 224. <
8016 1 -5 4 10 1 11. 38. 224. <
8017 3 -5 4 -10 1 12. 28. 393. <
8017 1 5 -4 10 -1 12. 28. 393. <
8018 3 4 -4 -10 1 2. -8. 134. <
8018 1 -4 4 10 -1 2. -8. 134. <
8019 3 -4 4 -10 -1 2. 43. 200. <
8019 1 4 -4 10 1 2. 43. 200. <
8020 4 4 4 10 0 1709. 1772. 136. o
8020 3 4 -4 -10 0 1709. 1772. 136. o
8020 2 -4 -4 -10 0 1709. 1772. 136. o
8020 1 -4 4 10 0 1709. 1772. 136. o
8021 4 -4 -4 10 0 1671. 1791. 202. o
8021 3 -4 4 -10 0 1671. 1791. 202. o
8021 2 4 4 -10 0 1671. 1791. 202. o
8021 1 4 -4 10 0 1671. 1791. 202. o
8022 3 4 -4 -10 -1 14. 17. 130. <
8022 1 -4 4 10 1 14. 17. 130. <
8023 3 -4 4 -10 1 12. -21. 203. <
8023 1 4 -4 10 -1 12. -21. 203. <
8024 3 3 -4 -10 1 280. 46. 271. <
8024 1 -3 4 10 -1 280. 46. 271. <
8025 3 -3 4 -10 -1 277. 43. 197. <
8025 1 3 -4 10 1 277. 43. 197. <
8026 4 3 4 10 0 4569. 4914. 267. o
8026 3 3 -4 -10 0 4569. 4914. 267. o
8026 2 -3 -4 -10 0 4569. 4914. 267. o
8026 1 -3 4 10 0 4569. 4914. 267. o
8027 4 -3 -4 10 0 4428. 4473. 199. o
8027 3 -3 4 -10 0 4428. 4473. 199. o
8027 2 3 4 -10 0 4428. 4473. 199. o
8027 1 3 -4 10 0 4428. 4473. 199. o
8028 3 3 -4 -10 -1 163. 122. 264. <
8028 1 -3 4 10 1 163. 122. 264. <
8029 3 -3 4 -10 1 161. 100. 200. <
8029 1 3 -4 10 -1 161. 100. 200. <
8030 3 2 -4 -10 1 10. 66. 224. <
8030 1 -2 4 10 -1 10. 66. 224. <
8031 3 -2 4 -10 -1 9. 69. 174. <
8031 1 2 -4 10 1 9. 69. 174. <
8032 4 2 4 10 0 1292. 1344. 221. o
8032 3 2 -4 -10 0 1292. 1344. 221. o
8032 2 -2 -4 -10 0 1292. 1344. 221. o
8032 1 -2 4 10 0 1292. 1344. 221. o
8033 4 -2 -4 10 0 1294. 1769. 175. o
8033 3 -2 4 -10 0 1294. 1769. 175. o
8033 2 2 4 -10 0 1294. 1769. 175. o
8033 1 2 -4 10 0 1294. 1769. 175. o
8034 3 2 -4 -10 -1 86. 93. 219. <
8034 1 -2 4 10 1 86. 93. 219. <
8035 3 -2 4 -10 1 83. 130. 177. <
8035 1 2 -4 10 -1 83. 130. 177. <
8036 3 1 -4 -10 1 230. 166. 255. <
8036 1 -1 4 10 -1 230. 166. 255. <
8037 3 -1 4 -10 -1 232. 340. 228. <
8037 1 1 -4 10 1 232. 340. 228. <
8038 4 1 4 10 0 9652. 9962. 252. o
8038 3 1 -4 -10 0 9652. 9962. 252. o
8038 2 -1 -4 -10 0 9652. 9962. 252. o
8038 1 -1 4 10 0 9652. 9962. 252. o
8039 4 -1 -4 10 0 9065. 9121. 231. o
8039 3 -1 4 -10 0 9065. 9121. 231. o
8039 2 1 4 -10 0 9065. 9121. 231. o
8039 1 1 -4 10 0 9065. 9121. 231. o
8040 3 1 -4 -10 -1 278. 116. 249. <
8040 1 -1 4 10 1 278. 116. 249. <
8041 3 -1 4 -10 1 277. 126. 232. <
8041 1 1 -4 10 -1 277. 126. 232. <
8042 3 -1 -4 -10 1 71. 71. 232. <
8042 1 1 4 10 -1 71. 71. 232. <
8043 4 -1 4 10 0 9349. 10007. 231. o
8043 3 -1 -4 -10 0 9349. 10007. 231. o
8043 2 1 -4 -10 0 9349. 10007. 231. o
8043 1 1 4 10 0 9349. 10007. 231. o
8044 3 -1 -4 -10 -1 2. 18. 230. <
8044 1 1 4 10 1 2. 18. 230. <
8045 3 -2 -4 -10 1 32. 10. 163. <
8045 1 2 4 10 -1 32. 10. 163. <
8046 4 -2 4 10 0 1270. 1036. 163. o
8046 3 -2 -4 -10 0 1270. 1036. 163. o
8046 2 2 -4 -10 0 1270. 1036. 163. o
8046 1 2 4 10 0 1270. 1036. 163. o
8047 3 -2 -4 -10 -1 60. 0. 162. <
8047 1 2 4 10 1 60. 0. 162. <
8048 3 -3 -4 -10 1 43. 35. 196. <
8048 1 3 4 10 -1 43. 35. 196. <
8049 4 -3 4 10 0 4697. 4561. 196. o
8049 3 -3 -4 -10 0 4697. 4561. 196. o
8049 2 3 -4 -10 0 4697. 4561. 196. o
8049 1 3 4 10 0 4697. 4561. 196. o
8050 3 -3 -4 -10 -1 24. 10. 195. <
8050 1 3 4 10 1 24. 10. 195. <
8051 3 -4 -4 -10 1 1. 15. 179. <
8051 1 4 4 10 -1 1. 15. 179. <
8052 4 -4 4 10 0 1659. 2094. 179. o
8052 3 -4 -4 -10 0 1659. 2094. 179. o
8052 2 4 -4 -10 0 1659. 2094. 179. o
8052 1 4 4 10 0 1659. 2094. 179. o
8053 3 -4 -4 -10 -1 6. -17. 178. <
8053 1 4 4 10 1 6. -17. 178. <
8054 3 -5 -4 -10 1 24. 216. 355. <
8054 1 5 4 10 -1 24. 216. 355. <
8055 4 -5 4 10 0 38299. 38253. 355. o
8055 3 -5 -4 -10 0 38299. 38253. 355. o
8055 2 5 -4 -10 0 38299. 38253. 355. o
8055 1 5 4 10 0 38299. 38253. 355. o
8056 3 -5 -4 -10 -1 356. 207. 354. <
8056 1 5 4 10 1 356. 207. 354. <
8057 3 -6 -4 -10 1 50. 44. 201. <
8057 1 6 4 10 -1 50. 44. 201. <
8058 4 -6 4 10 0 3843. 3984. 200. o
8058 3 -6 -4 -10 0 3843. 3984. 200. o
8058 2 6 -4 -10 0 3843. 3984. 200. o
8058 1 6 4 10 0 3843. 3984. 200. o
8059 3 -6 -4 -10 -1 55. 38. 200. <
8059 1 6 4 10 1 55. 38. 200. <
8060 3 -7 -4 -10 1 400. 277. 197. <
8060 1 7 4 10 -1 400. 277. 197. <
8061 4 -7 4 10 0 2118. 2758. 197. o
8061 3 -7 -4 -10 0 2118. 2758. 197. o
8061 2 7 -4 -10 0 2118. 2758. 197. o
8061 1 7 4 10 0 2118. 2758. 197. o
8062 3 -7 -4 -10 -1 31. 38. 197. <
8062 1 7 4 10 1 31. 38. 197. <
8063 3 -8 -4 -10 1 28. 357. 274. <
8063 1 8 4 10 -1 28. 357. 274. <
8064 3 8 4 -10 -1 31. 19. 245. <
8064 1 -8 -4 10 1 31. 19. 245. <
8065 4 -8 4 10 0 14827. 14372. 274. o
8065 3 -8 -4 -10 0 14827. 14372. 274. o
8065 2 8 -4 -10 0 14827. 14372. 274. o
8065 1 8 4 10 0 14827. 14372. 274. o
8066 4 8 -4 10 0 14519. 13894. 247. o
8066 3 8 4 -10 0 14519. 13894. 247. o
8066 2 -8 4 -10 0 14519. 13894. 247. o
8066 1 -8 -4 10 0 14519. 13894. 247. o
8067 3 -8 -4 -10 -1 751. 614. 274. o
8067 1 8 4 10 1 751. 614. 274. o
8068 3 8 4 -10 1 759. 594. 248. o
8068 1 -8 -4 10 -1 759. 594. 248. o
8069 3 -9 -4 -10 1 85. 206. 263. <
8069 1 9 4 10 -1 85. 206. 263. <
8070 3 9 4 -10 -1 75. 49. 243. <
8070 1 -9 -4 10 1 75. 49. 243. <
8071 4 -9 4 10 0 15210. 15366. 263. o
8071 3 -9 -4 -10 0 15210. 15366. 263. o
8071 2 9 -4 -10 0 15210. 15366. 263. o
8071 1 9 4 10 0 15210. 15366. 263. o
8072 4 9 -4 10 0 15365. 15162. 244. o
8072 3 9 4 -10 0 15365. 15162. 244. o
8072 2 -9 4 -10 0 15365. 15162. 244. o
8072 1 -9 -4 10 0 15365. 15162. 244. o
8073 3 8 -5 -10 1 170. 164. 241. <
8073 1 -8 5 10 -1 170. 164. 241. <
8074 4 8 5 10 0 12808. 13041. 243. o
8074 3 8 -5 -10 0 12808. 13041. 243. o
8074 2 -8 -5 -10 0 12808. 13041. 243. o
8074 1 -8 5 10 0 12808. 13041. 243. o
8075 3 8 -5 -10 -1 313. 291. 245. <
8075 1 -8 5 10 1 313. 291. 245. <
8076 3 7 -5 -10 1 39. -27. 156. <
8076 1 -7 5 10 -1 39. -27. 156. <
8077 4 7 5 10 0 1877. 1628. 157. o
8077 3 7 -5 -10 0 1877. 1628. 157. o
8077 2 -7 -5 -10 0 1877. 1628. 157. o
8077 1 -7 5 10 0 1877. 1628. 157. o
8078 3 7 -5 -10 -1 21. 27. 158. <
8078 1 -7 5 10 1 21. 27. 158. <
8079 3 6 -5 -10 1 522. 291. 261. <
8079 1 -6 5 10 -1 522. 291. 261. <
8080 4 6 5 10 0 19709. 18924. 262. o
8080 3 6 -5 -10 0 19709. 18924. 262. o
8080 2 -6 -5 -10 0 19709. 18924. 262. o
8080 1 -6 5 10 0 19709. 18924. 262. o
8081 3 6 -5 -10 -1 56. 81. 259. <
8081 1 -6 5 10 1 56. 81. 259. <
8082 3 5 -5 -10 1 133. 194. 192. <
8082 1 -5 5 10 -1 133. 194. 192. <
8083 4 5 5 10 0 6095. 5844. 189. o
8083 3 5 -5 -10 0 6095. 5844. 189. o
8083 2 -5 -5 -10 0 6095. 5844. 189. o
8083 1 -5 5 10 0 6095. 5844. 189. o
8084 3 5 -5 -10 -1 201. 100. 186. <
8084 1 -5 5 10 1 201. 100. 186. <
8085 3 4 -5 -10 1 1. 45. 277. <
8085 1 -4 5 10 -1 1. 45. 277. <
8086 4 4 5 10 0 35668. 34456. 274. o
8086 3 4 -5 -10 0 35668. 34456. 274. o
8086 2 -4 -5 -10 0 35668. 34456. 274. o
8086 1 -4 5 10 0 35668. 34456. 274. o
8087 3 4 -5 -10 -1 25. 55. 272. <
8087 1 -4 5 10 1 25. 55. 272. <
8088 3 -3 5 -10 -1 199. 1642. 219. o
8088 1 3 -5 10 1 199. 1642. 219. o
8089 4 -3 -5 10 0 4296. 1654. 221. o
8089 3 -3 5 -10 0 4296. 1654. 221. o
8089 2 3 5 -10 0 4296. 1654. 221. o
8089 1 3 -5 10 0 4296. 1654. 221. o
8090 3 -3 5 -10 1 461. 1666. 223. o
8090 1 3 -5 10 -1 461. 1666. 223. o
8091 3 2 -5 -10 1 203. 127. 317. <
8091 1 -2 5 10 -1 203. 127. 317. <
8092 3 -2 5 -10 -1 212. 116. 257. <
8092 1 2 -5 10 1 212. 116. 257. <
8093 4 2 5 10 0 13157. 13340. 314. o
8093 3 2 -5 -10 0 13157. 13340. 314. o
8093 2 -2 -5 -10 0 13157. 13340. 314. o
8093 1 -2 5 10 0 13157. 13340. 314. o
8094 4 -2 -5 10 0 12972. 12753. 259. o
8094 3 -2 5 -10 0 12972. 12753. 259. o
8094 2 2 5 -10 0 12972. 12753. 259. o
8094 1 2 -5 10 0 12972. 12753. 259. o
8095 3 2 -5 -10 -1 32. 65. 310. <
8095 1 -2 5 10 1 32. 65. 310. <
8096 3 -2 5 -10 1 31. 50. 261. <
8096 1 2 -5 10 -1 31. 50. 261. <
8097 3 1 -5 -10 1 331. 608. 658. <
8097 1 -1 5 10 -1 331. 608. 658. <
8098 4 1 5 10 0 105061. 113986. 651. o
8098 3 1 -5 -10 0 105061. 113986. 651. o
8098 2 -1 -5 -10 0 105061. 113986. 651. o
8098 1 -1 5 10 0 105061. 113986. 651. o
8099 3 1 -5 -10 -1 509. 501. 644. <
8099 1 -1 5 10 1 509. 501. 644. <
8100 3 0 -5 -10 1 67. 129. 183. <
8100 1 0 5 10 -1 67. 129. 183. <
8101 4 0 5 10 0 630. 198. 182. <
8101 3 0 -5 -10 0 630. 198. 182. <
8101 2 0 -5 -10 0 630. 198. 182. <
8101 1 0 5 10 0 630. 198. 182. <
8102 3 0 -5 -10 -1 52. 92. 180. <
8102 1 0 5 10 1 52. 92. 180. <
8103 3 -1 -5 -10 1 229. 381. 597. <
8103 1 1 5 10 -1 229. 381. 597. <
8104 4 -1 5 10 0 104822. 111087. 594. o
8104 3 -1 -5 -10 0 104822. 111087. 594. o
8104 2 1 -5 -10 0 104822. 111087. 594. o
8104 1 1 5 10 0 104822. 111087. 594. o
8105 3 -1 -5 -10 -1 2. 302. 591. <
8105 1 1 5 10 1 2. 302. 591. <
8106 3 -2 -5 -10 1 15. 69. 257. <
8106 1 2 5 10 -1 15. 69. 257. <
8107 4 -2 5 10 0 12771. 13826. 256. o
8107 3 -2 -5 -10 0 12771. 13826. 256. o
8107 2 2 -5 -10 0 12771. 13826. 256. o
8107 1 2 5 10 0 12771. 13826. 256. o
8108 3 -2 -5 -10 -1 95. 49. 255. <
8108 1 2 5 10 1 95. 49. 255. <
8109 3 -3 -5 -10 1 151. 17. 212. <
8109 1 3 5 10 -1 151. 17. 212. <
8110 4 -3 5 10 0 4486. 5400. 211. o
8110 3 -3 -5 -10 0 4486. 5400. 211. o
8110 2 3 -5 -10 0 4486. 5400. 211. o
8110 1 3 5 10 0 4486. 5400. 211. o
8111 3 -3 -5 -10 -1 108. 2. 211. <
8111 1 3 5 10 1 108. 2. 211. <
8112 3 -4 -5 -10 1 8. 257. 365. <
8112 1 4 5 10 -1 8. 257. 365. <
8113 4 -4 5 10 0 36586. 38226. 364. o
8113 3 -4 -5 -10 0 36586. 38226. 364. o
8113 2 4 -5 -10 0 36586. 38226. 364. o
8113 1 4 5 10 0 36586. 38226. 364. o
8114 3 -4 -5 -10 -1 216. 226. 364. <
8114 1 4 5 10 1 216. 226. 364. <
8115 3 -5 -5 -10 1 8. 23. 220. <
8115 1 5 5 10 -1 8. 23. 220. <
8116 4 -5 5 10 0 6339. 6391. 220. o
8116 3 -5 -5 -10 0 6339. 6391. 220. o
8116 2 5 -5 -10 0 6339. 6391. 220. o
8116 1 5 5 10 0 6339. 6391. 220. o
8117 3 -5 -5 -10 -1 32. 17. 220. <
8117 1 5 5 10 1 32. 17. 220. <
8118 3 -6 -5 -10 1 20. 164. 298. <
8118 1 6 5 10 -1 20. 164. 298. <
8119 4 -6 5 10 0 19674. 21002. 297. o
8119 3 -6 -5 -10 0 19674. 21002. 297. o
8119 2 6 -5 -10 0 19674. 21002. 297. o
8119 1 6 5 10 0 19674. 21002. 297. o
8120 3 -6 -5 -10 -1 125. 36. 297. <
8120 1 6 5 10 1 125. 36. 297. <
8121 3 -7 -5 -10 1 118. -1. 194. <
8121 1 7 5 10 -1 118. -1. 194. <
8122 4 -7 5 10 0 1989. 2096. 194. o
8122 3 -7 -5 -10 0 1989. 2096. 194. o
8122 2 7 -5 -10 0 1989. 2096. 194. o
8122 1 7 5 10 0 1989. 2096. 194. o
8123 3 -7 -5 -10 -1 225. 9. 194. <
8123 1 7 5 10 1 225. 9. 194. <
8124 3 -8 -5 -10 1 215. 484. 270. <
8124 1 8 5 10 -1 215. 484. 270. <
8125 4 -8 5 10 0 13288. 13134. 271. o
8125 3 -8 -5 -10 0 13288. 13134. 271. o
8125 2 8 -5 -10 0 13288. 13134. 271. o
8125 1 8 5 10 0 13288. 13134. 271. o
8126 3 -8 -5 -10 -1 237. 321. 271. <
8126 1 8 5 10 1 237. 321. 271. <
8127 3 7 -6 -10 1 301. 160. 166. <
8127 1 -7 6 10 -1 301. 160. 166. <
8128 4 7 6 10 0 4315. 4011. 166. o
8128 3 7 -6 -10 0 4315. 4011. 166. o
8128 2 -7 -6 -10 0 4315. 4011. 166. o
8128 1 -7 6 10 0 4315. 4011. 166. o
8129 3 7 -6 -10 -1 3. 14. 167. <
8129 1 -7 6 10 1 3. 14. 167. <
8130 3 6 -6 -10 1 62. 52. 199. <
8130 1 -6 6 10 -1 62. 52. 199. <
8131 4 6 6 10 0 9099. 7903. 202. o
8131 3 6 -6 -10 0 9099. 7903. 202. o
8131 2 -6 -6 -10 0 9099. 7903. 202. o
8131 1 -6 6 10 0 9099. 7903. 202. o
8132 3 6 -6 -10 -1 45. 92. 205. <
8132 1 -6 6 10 1 45. 92. 205. <
8133 3 5 -6 -10 1 5. 74. 262. <
8133 1 -5 6 10 -1 5. 74. 262. <
8134 4 5 6 10 0 19692. 19607. 259. o
8134 3 5 -6 -10 0 19692. 19607. 259. o
8134 2 -5 -6 -10 0 19692. 19607. 259. o
8134 1 -5 6 10 0 19692. 19607. 259. o
8135 3 5 -6 -10 -1 386. 220. 255. <
8135 1 -5 6 10 1 386. 220. 255. <
8136 3 4 -6 -10 1 888. 854. 167. o
8136 1 -4 6 10 -1 888. 854. 167. o
8137 4 4 6 10 0 3037. 3215. 169. o
8137 3 4 -6 -10 0 3037. 3215. 169. o
8137 2 -4 -6 -10 0 3037. 3215. 169. o
8137 1 -4 6 10 0 3037. 3215. 169. o
8138 3 4 -6 -10 -1 1284. 1114. 171. o
8138 1 -4 6 10 1 1284. 1114. 171. o
8139 3 3 -6 -10 1 1071. 541. 512. <
8139 1 -3 6 10 -1 1071. 541. 512. <
8140 4 3 6 10 0 46108. 46715. 506. o
8140 3 3 -6 -10 0 46108. 46715. 506. o
8140 2 -3 -6 -10 0 46108. 46715. 506. o
8140 1 -3 6 10 0 46108. 46715. 506. o
8141 3 3 -6 -10 -1 522. 426. 500. <
8141 1 -3 6 10 1 522. 426. 500. <
8142 3 1 -6 -10 1 76. 161. 523. <
8142 1 -1 6 10 -1 76. 161. 523. <
8143 4 1 6 10 0 58984. 63739. 519. o
8143 3 1 -6 -10 0 58984. 63739. 519. o
8143 2 -1 -6 -10 0 58984. 63739. 519. o
8143 1 -1 6 10 0 58984. 63739. 519. o
8144 3 1 -6 -10 -1 219. 423. 515. <
8144 1 -1 6 10 1 219. 423. 515. <
8145 3 0 -6 -10 1 115. 328. 478. <
8145 1 0 6 10 -1 115. 328. 478. <
8146 4 0 6 10 0 52452. 55587. 474. o
8146 3 0 -6 -10 0 52452. 55587. 474. o
8146 2 0 -6 -10 0 52452. 55587. 474. o
8146 1 0 6 10 0 52452. 55587. 474. o
8147 3 0 -6 -10 -1 164. 196. 470. <
8147 1 0 6 10 1 164. 196. 470. <
8148 3 -1 -6 -10 1 68. 403. 495. <
8148 1 1 6 10 -1 68. 403. 495. <
8149 4 -1 6 10 0 59860. 64239. 492. o
8149 3 -1 -6 -10 0 59860. 64239. 492. o
8149 2 1 -6 -10 0 59860. 64239. 492. o
8149 1 1 6 10 0 59860. 64239. 492. o
8150 3 -1 -6 -10 -1 479. 498. 489. <
8150 1 1 6 10 1 479. 498. 489. <
8151 3 -2 -6 -10 1 162. 194. 253. <
8151 1 2 6 10 -1 162. 194. 253. <
8152 4 -2 6 10 0 8053. 9236. 252. o
8152 3 -2 -6 -10 0 8053. 9236. 252. o
8152 2 2 -6 -10 0 8053. 9236. 252. o
8152 1 2 6 10 0 8053. 9236. 252. o
8153 3 -2 -6 -10 -1 124. 125. 251. <
8153 1 2 6 10 1 124. 125. 251. <
8154 3 -3 -6 -10 1 39. 288. 430. <
8154 1 3 6 10 -1 39. 288. 430. <
8155 4 -3 6 10 0 45999. 50385. 429. o
8155 3 -3 -6 -10 0 45999. 50385. 429. o
8155 2 3 -6 -10 0 45999. 50385. 429. o
8155 1 3 6 10 0 45999. 50385. 429. o
8156 3 -3 -6 -10 -1 274. 252. 427. <
8156 1 3 6 10 1 274. 252. 427. <
8157 3 -4 -6 -10 1 69. 52. 214. <
8157 1 4 6 10 -1 69. 52. 214. <
8158 4 -4 6 10 0 3051. 3618. 213. o
8158 3 -4 -6 -10 0 3051. 3618. 213. o
8158 2 4 -6 -10 0 3051. 3618. 213. o
8158 1 4 6 10 0 3051. 3618. 213. o
8159 3 -4 -6 -10 -1 67. 53. 213. <
8159 1 4 6 10 1 67. 53. 213. <
8160 3 -5 -6 -10 1 12. 124. 311. <
8160 1 5 6 10 -1 12. 124. 311. <
8161 4 -5 6 10 0 19960. 21760. 311. o
8161 3 -5 -6 -10 0 19960. 21760. 311. o
8161 2 5 -6 -10 0 19960. 21760. 311. o
8161 1 5 6 10 0 19960. 21760. 311. o
8162 3 -5 -6 -10 -1 135. 55. 311. <
8162 1 5 6 10 1 135. 55. 311. <
8163 3 -6 -6 -10 1 43. 125. 247. <
8163 1 6 6 10 -1 43. 125. 247. <
8164 4 -6 6 10 0 9666. 9631. 247. o
8164 3 -6 -6 -10 0 9666. 9631. 247. o
8164 2 6 -6 -10 0 9666. 9631. 247. o
8164 1 6 6 10 0 9666. 9631. 247. o
8165 3 -6 -6 -10 -1 20. 19. 247. <
8165 1 6 6 10 1 20. 19. 247. <
8166 3 -7 -6 -10 1 102. 126. 217. <
8166 1 7 6 10 -1 102. 126. 217. <
8167 4 -7 6 10 0 4549. 4529. 218. o
8167 3 -7 -6 -10 0 4549. 4529. 218. o
8167 2 7 -6 -10 0 4549. 4529. 218. o
8167 1 7 6 10 0 4549. 4529. 218. o
8168 3 -7 -6 -10 -1 65. 125. 218. <
8168 1 7 6 10 1 65. 125. 218. <
8169 3 -8 -6 -10 1 87. 115. 109. <
8169 1 8 6 10 -1 87. 115. 109. <
8170 3 7 -7 -10 1 216. 245. 382. <
8170 1 -7 7 10 -1 216. 245. 382. <
8171 4 7 7 10 0 38493. 38719. 385. o
8171 3 7 -7 -10 0 38493. 38719. 385. o
8171 2 -7 -7 -10 0 38493. 38719. 385. o
8171 1 -7 7 10 0 38493. 38719. 385. o
8172 3 7 -7 -10 -1 105. 144. 389. <
8172 1 -7 7 10 1 105. 144. 389. <
8173 3 6 -7 -10 1 119. -25. 174. <
8173 1 -6 7 10 -1 119. -25. 174. <
8174 4 6 7 10 0 4733. 3786. 175. o
8174 3 6 -7 -10 0 4733. 3786. 175. o
8174 2 -6 -7 -10 0 4733. 3786. 175. o
8174 1 -6 7 10 0 4733. 3786. 175. o
8175 3 6 -7 -10 -1 144. 115. 176. <
8175 1 -6 7 10 1 144. 115. 176. <
8176 3 5 -7 -10 1 123. 98. 182. <
8176 1 -5 7 10 -1 123. 98. 182. <
8177 4 5 7 10 0 1858. 1847. 182. o
8177 3 5 -7 -10 0 1858. 1847. 182. o
8177 2 -5 -7 -10 0 1858. 1847. 182. o
8177 1 -5 7 10 0 1858. 1847. 182. o
8178 3 5 -7 -10 -1 31. 26. 169. <
8178 1 -5 7 10 1 31. 26. 169. <
8179 3 4 -7 -10 1 910. 960. 92. o
8179 1 -4 7 10 -1 910. 960. 92. o
8180 4 4 7 10 0 2507. 3283. 128. o
8180 3 4 -7 -10 0 2507. 3283. 128. o
8180 2 -4 -7 -10 0 2507. 3283. 128. o
8180 1 -4 7 10 0 2507. 3283. 128. o
8181 3 4 -7 -10 -1 304. 365. 70. o
8181 1 -4 7 10 1 304. 365. 70. o
8182 3 3 -7 -10 1 259. 254. 62. o
8182 1 -3 7 10 -1 259. 254. 62. o
8183 4 3 7 10 0 7650. 8311. 176. o
8183 3 3 -7 -10 0 7650. 8311. 176. o
8183 2 -3 -7 -10 0 7650. 8311. 176. o
8183 1 -3 7 10 0 7650. 8311. 176. o
8184 3 3 -7 -10 -1 28. 51. 60. <
8184 1 -3 7 10 1 28. 51. 60. <
8185 3 2 -7 -10 1 100. 178. 392. <
8185 1 -2 7 10 -1 100. 178. 392. <
8186 4 2 7 10 0 24367. 24385. 389. o
8186 3 2 -7 -10 0 24367. 24385. 389. o
8186 2 -2 -7 -10 0 24367. 24385. 389. o
8186 1 -2 7 10 0 24367. 24385. 389. o
8187 3 2 -7 -10 -1 180. 279. 385. <
8187 1 -2 7 10 1 180. 279. 385. <
8188 3 1 -7 -10 1 78. 114. 243. <
8188 1 -1 7 10 -1 78. 114. 243. <
8189 4 1 7 10 0 557. 704. 242. o
8189 3 1 -7 -10 0 557. 704. 242. o
8189 2 -1 -7 -10 0 557. 704. 242. o
8189 1 -1 7 10 0 557. 704. 242. o
8190 3 1 -7 -10 -1 151. 91. 240. <
8190 1 -1 7 10 1 151. 91. 240. <
8191 3 0 -7 -10 1 28. 20. 230. <
8191 1 0 7 10 -1 28. 20. 230. <
8192 4 0 7 10 0 123. 324. 229. <
8192 3 0 -7 -10 0 123. 324. 229. <
8192 2 0 -7 -10 0 123. 324. 229. <
8192 1 0 7 10 0 123. 324. 229. <
8193 3 0 -7 -10 -1 44. 20. 227. <
8193 1 0 7 10 1 44. 20. 227. <
8194 3 -1 -7 -10 1 7. -26. 199. <
8194 1 1 7 10 -1 7. -26. 199. <
8195 4 -1 7 10 0 542. 555. 198. o
8195 3 -1 -7 -10 0 542. 555. 198. o
8195 2 1 -7 -10 0 542. 555. 198. o
8195 1 1 7 10 0 542. 555. 198. o
8196 3 -1 -7 -10 -1 75. 19. 197. <
8196 1 1 7 10 1 75. 19. 197. <
8197 3 -2 -7 -10 1 360. 464. 358. <
8197 1 2 7 10 -1 360. 464. 358. <
8198 4 -2 7 10 0 24841. 26520. 357. o
8198 3 -2 -7 -10 0 24841. 26520. 357. o
8198 2 2 -7 -10 0 24841. 26520. 357. o
8198 1 2 7 10 0 24841. 26520. 357. o
8199 3 -2 -7 -10 -1 94. 38. 355. <
8199 1 2 7 10 1 94. 38. 355. <
8200 3 -3 -7 -10 1 89. 135. 252. <
8200 1 3 7 10 -1 89. 135. 252. <
8201 4 -3 7 10 0 7701. 8503. 252. o
8201 3 -3 -7 -10 0 7701. 8503. 252. o
8201 2 3 -7 -10 0 7701. 8503. 252. o
8201 1 3 7 10 0 7701. 8503. 252. o
8202 3 -3 -7 -10 -1 65. 43. 251. <
8202 1 3 7 10 1 65. 43. 251. <
8203 3 -4 -7 -10 1 255. 315. 214. <
8203 1 4 7 10 -1 255. 315. 214. <
8204 4 -4 7 10 0 2582. 3291. 213. o
8204 3 -4 -7 -10 0 2582. 3291. 213. o
8204 2 4 -7 -10 0 2582. 3291. 213. o
8204 1 4 7 10 0 2582. 3291. 213. o
8205 3 -4 -7 -10 -1 54. 57. 213. <
8205 1 4 7 10 1 54. 57. 213. <
8206 3 -5 -7 -10 1 58. 61. 212. <
8206 1 5 7 10 -1 58. 61. 212. <
8207 4 -5 7 10 0 1909. 2435. 212. o
8207 3 -5 -7 -10 0 1909. 2435. 212. o
8207 2 5 -7 -10 0 1909. 2435. 212. o
8207 1 5 7 10 0 1909. 2435. 212. o
8208 3 -5 -7 -10 -1 132. 27. 212. <
8208 1 5 7 10 1 132. 27. 212. <
8209 3 -6 -7 -10 1 115. 190. 231. <
8209 1 6 7 10 -1 115. 190. 231. <
8210 4 -6 7 10 0 4866. 5013. 231. o
8210 3 -6 -7 -10 0 4866. 5013. 231. o
8210 2 6 -7 -10 0 4866. 5013. 231. o
8210 1 6 7 10 0 4866. 5013. 231. o
8211 3 -6 -7 -10 -1 63. 88. 231. <
8211 1 6 7 10 1 63. 88. 231. <
8212 3 -7 -7 -10 1 25. 309. 116. o
8212 1 7 7 10 -1 25. 309. 116. o
8213 3 5 -8 -10 1 315. 198. 218. <
8213 1 -5 8 10 -1 315. 198. 218. <
8214 4 5 8 10 0 10767. 10149. 219. o
8214 3 5 -8 -10 0 10767. 10149. 219. o
8214 2 -5 -8 -10 0 10767. 10149. 219. o
8214 1 -5 8 10 0 10767. 10149. 219. o
8215 3 5 -8 -10 -1 403. 236. 220. <
8215 1 -5 8 10 1 403. 236. 220. <
8216 3 4 -8 -10 1 156. 93. 266. <
8216 1 -4 8 10 -1 156. 93. 266. <
8217 4 4 8 10 0 12895. 13262. 267. o
8217 3 4 -8 -10 0 12895. 13262. 267. o
8217 2 -4 -8 -10 0 12895. 13262. 267. o
8217 1 -4 8 10 0 12895. 13262. 267. o
8218 3 4 -8 -10 -1 9. 8. 269. <
8218 1 -4 8 10 1 9. 8. 269. <
8219 3 3 -8 -10 1 169. 184. 347. <
8219 1 -3 8 10 -1 169. 184. 347. <
8220 4 3 8 10 0 10608. 10533. 343. o
8220 3 3 -8 -10 0 10608. 10533. 343. o
8220 2 -3 -8 -10 0 10608. 10533. 343. o
8220 1 -3 8 10 0 10608. 10533. 343. o
8221 3 3 -8 -10 -1 192. 68. 340. <
8221 1 -3 8 10 1 192. 68. 340. <
8222 3 2 -8 -10 1 114. 63. 255. <
8222 1 -2 8 10 -1 114. 63. 255. <
8223 4 2 8 10 0 4534. 4076. 253. o
8223 3 2 -8 -10 0 4534. 4076. 253. o
8223 2 -2 -8 -10 0 4534. 4076. 253. o
8223 1 -2 8 10 0 4534. 4076. 253. o
8224 3 2 -8 -10 -1 21. -8. 251. <
8224 1 -2 8 10 1 21. -8. 251. <
8225 3 1 -8 -10 1 490. 319. 318. <
8225 1 -1 8 10 -1 490. 319. 318. <
8226 4 1 8 10 0 10525. 11218. 316. o
8226 3 1 -8 -10 0 10525. 11218. 316. o
8226 2 -1 -8 -10 0 10525. 11218. 316. o
8226 1 -1 8 10 0 10525. 11218. 316. o
8227 3 1 -8 -10 -1 1077. 707. 314. o
8227 1 -1 8 10 1 1077. 707. 314. o
8228 3 0 -8 -10 1 177. 146. 265. <
8228 1 0 8 10 -1 177. 146. 265. <
8229 4 0 8 10 0 5834. 6039. 264. o
8229 3 0 -8 -10 0 5834. 6039. 264. o
8229 2 0 -8 -10 0 5834. 6039. 264. o
8229 1 0 8 10 0 5834. 6039. 264. o
8230 3 0 -8 -10 -1 415. 170. 262. <
8230 1 0 8 10 1 415. 170. 262. <
8231 3 -1 -8 -10 1 14. 48. 311. <
8231 1 1 8 10 -1 14. 48. 311. <
8232 4 -1 8 10 0 10861. 12252. 310. o
8232 3 -1 -8 -10 0 10861. 12252. 310. o
8232 2 1 -8 -10 0 10861. 12252. 310. o
8232 1 1 8 10 0 10861. 12252. 310. o
8233 3 -1 -8 -10 -1 134. 147. 308. <
8233 1 1 8 10 1 134. 147. 308. <
8234 3 -2 -8 -10 1 23. -13. 253. <
8234 1 2 8 10 -1 23. -13. 253. <
8235 4 -2 8 10 0 4601. 4521. 252. o
8235 3 -2 -8 -10 0 4601. 4521. 252. o
8235 2 2 -8 -10 0 4601. 4521. 252. o
8235 1 2 8 10 0 4601. 4521. 252. o
8236 3 -2 -8 -10 -1 121. 37. 251. <
8236 1 2 8 10 1 121. 37. 251. <
8237 3 -3 -8 -10 1 36. 76. 289. <
8237 1 3 8 10 -1 36. 76. 289. <
8238 4 -3 8 10 0 10866. 11871. 288. o
8238 3 -3 -8 -10 0 10866. 11871. 288. o
8238 2 3 -8 -10 0 10866. 11871. 288. o
8238 1 3 8 10 0 10866. 11871. 288. o
8239 3 -3 -8 -10 -1 157. 24. 288. <
8239 1 3 8 10 1 157. 24. 288. <
8240 3 -4 -8 -10 1 95. 112. 296. <
8240 1 4 8 10 -1 95. 112. 296. <
8241 4 -4 8 10 0 13379. 13886. 295. o
8241 3 -4 -8 -10 0 13379. 13886. 295. o
8241 2 4 -8 -10 0 13379. 13886. 295. o
8241 1 4 8 10 0 13379. 13886. 295. o
8242 3 -4 -8 -10 -1 687. 649. 295. o
8242 1 4 8 10 1 687. 649. 295. o
8243 3 -5 -8 -10 1 311. 336. 287. <
8243 1 5 8 10 -1 311. 336. 287. <
8244 4 -5 8 10 0 11238. 11719. 287. o
8244 3 -5 -8 -10 0 11238. 11719. 287. o
8244 2 5 -8 -10 0 11238. 11719. 287. o
8244 1 5 8 10 0 11238. 11719. 287. o
8245 3 -5 -8 -10 -1 401. 296. 288. <
8245 1 5 8 10 1 401. 296. 288. <
8246 3 -6 -8 -10 1 59. 113. 109. <
8246 1 6 8 10 -1 59. 113. 109. <
8247 3 4 -9 -10 1 264. 245. 209. <
8247 1 -4 9 10 -1 264. 245. 209. <
8248 4 4 9 10 0 12586. 12635. 210. o
8248 3 4 -9 -10 0 12586. 12635. 210. o
8248 2 -4 -9 -10 0 12586. 12635. 210. o
8248 1 -4 9 10 0 12586. 12635. 210. o
8249 3 2 -9 -10 1 196. 128. 384. <
8249 1 -2 9 10 -1 196. 128. 384. <
8250 4 2 9 10 0 16298. 16471. 381. o
8250 3 2 -9 -10 0 16298. 16471. 381. o
8250 2 -2 -9 -10 0 16298. 16471. 381. o
8250 1 -2 9 10 0 16298. 16471. 381. o
8251 3 2 -9 -10 -1 220. 340. 378. <
8251 1 -2 9 10 1 220. 340. 378. <
8252 3 1 -9 -10 1 364. 115. 215. <
8252 1 -1 9 10 -1 364. 115. 215. <
8253 4 1 9 10 0 868. 1185. 214. o
8253 3 1 -9 -10 0 868. 1185. 214. o
8253 2 -1 -9 -10 0 868. 1185. 214. o
8253 1 -1 9 10 0 868. 1185. 214. o
8254 3 1 -9 -10 -1 55. 43. 213. <
8254 1 -1 9 10 1 55. 43. 213. <
8255 3 0 -9 -10 1 48. 48. 231. <
8255 1 0 9 10 -1 48. 48. 231. <
8256 4 0 9 10 0 283. 101. 231. <
8256 3 0 -9 -10 0 283. 101. 231. <
8256 2 0 -9 -10 0 283. 101. 231. <
8256 1 0 9 10 0 283. 101. 231. <
8257 3 0 -9 -10 -1 95. -24. 230. <
8257 1 0 9 10 1 95. -24. 230. <
8258 3 -1 -9 -10 1 53. 72. 253. <
8258 1 1 9 10 -1 53. 72. 253. <
8259 4 -1 9 10 0 828. 1050. 253. o
8259 3 -1 -9 -10 0 828. 1050. 253. o
8259 2 1 -9 -10 0 828. 1050. 253. o
8259 1 1 9 10 0 828. 1050. 253. o
8260 3 -1 -9 -10 -1 233. 395. 252. <
8260 1 1 9 10 1 233. 395. 252. <
8261 3 -2 -9 -10 1 22. 112. 358. <
8261 1 2 9 10 -1 22. 112. 358. <
8262 4 -2 9 10 0 16242. 18520. 356. o
8262 3 -2 -9 -10 0 16242. 18520. 356. o
8262 2 2 -9 -10 0 16242. 18520. 356. o
8262 1 2 9 10 0 16242. 18520. 356. o
8263 3 -2 -9 -10 -1 187. 381. 356. <
8263 1 2 9 10 1 187. 381. 356. <
8264 3 -3 -9 -10 1 418. 451. 587. <
8264 1 3 9 10 -1 418. 451. 587. <
8265 4 -3 9 10 0 66266. 76248. 586. o
8265 3 -3 -9 -10 0 66266. 76248. 586. o
8265 2 3 -9 -10 0 66266. 76248. 586. o
8265 1 3 9 10 0 66266. 76248. 586. o
8266 3 -3 -9 -10 -1 82. 278. 585. <
8266 1 3 9 10 1 82. 278. 585. <
8267 3 -4 -9 -10 1 24. 117. 292. <
8267 1 4 9 10 -1 24. 117. 292. <
8268 4 -4 9 10 0 12979. 14690. 292. o
8268 3 -4 -9 -10 0 12979. 14690. 292. o
8268 2 4 -9 -10 0 12979. 14690. 292. o
8268 1 4 9 10 0 12979. 14690. 292. o
8269 3 0 -10 -10 1 63. 137. 150. <
8269 1 0 10 10 -1 63. 137. 150. <
8270 4 0 0 11 0 217. 456. 165. o
8270 3 0 0 -11 0 217. 456. 165. o
8270 2 0 0 -11 0 217. 456. 165. o
8270 1 0 0 11 0 217. 456. 165. o
8271 3 0 0 -11 -1 13. -67. 164. <
8271 1 0 0 11 1 13. -67. 164. <
8272 3 0 0 -11 1 13. -244. 167. <
8272 1 0 0 11 -1 13. -244. 167. <
8273 3 -1 0 -11 1 110. 108. 186. <
8273 1 1 0 11 -1 110. 108. 186. <
8274 3 1 0 -11 -1 109. 62. 204. <
8274 1 -1 0 11 1 109. 62. 204. <
8275 4 -1 0 11 0 3849. 4224. 185. o
8275 3 -1 0 -11 0 3849. 4224. 185. o
8275 2 1 0 -11 0 3849. 4224. 185. o
8275 1 1 0 11 0 3849. 4224. 185. o
8276 4 1 0 11 0 3858. 4312. 206. o
8276 3 1 0 -11 0 3858. 4312. 206. o
8276 2 -1 0 -11 0 3858. 4312. 206. o
8276 1 -1 0 11 0 3858. 4312. 206. o
8277 3 -1 0 -11 -1 221. 88. 183. <
8277 1 1 0 11 1 221. 88. 183. <
8278 3 1 0 -11 1 234. 66. 209. <
8278 1 -1 0 11 -1 234. 66. 209. <
8279 3 -2 0 -11 1 379. 246. 165. <
8279 1 2 0 11 -1 379. 246. 165. <
8280 3 2 0 -11 -1 377. 229. 191. <
8280 1 -2 0 11 1 377. 229. 191. <
8281 4 -2 0 11 0 1063. 975. 164. o
8281 3 -2 0 -11 0 1063. 975. 164. o
8281 2 2 0 -11 0 1063. 975. 164. o
8281 1 2 0 11 0 1063. 975. 164. o
8282 4 2 0 11 0 1060. 897. 194. o
8282 3 2 0 -11 0 1060. 897. 194. o
8282 2 -2 0 -11 0 1060. 897. 194. o
8282 1 -2 0 11 0 1060. 897. 194. o
8283 3 -2 0 -11 -1 161. 179. 163. <
8283 1 2 0 11 1 161. 179. 163. <
8284 3 2 0 -11 1 164. 112. 198. <
8284 1 -2 0 11 -1 164. 112. 198. <
8285 3 -3 0 -11 1 258. 274. 542. <
8285 1 3 0 11 -1 258. 274. 542. <
8286 4 -3 0 11 0 94538. 96111. 538. o
8286 3 -3 0 -11 0 94538. 96111. 538. o
8286 2 3 0 -11 0 94538. 96111. 538. o
8286 1 3 0 11 0 94538. 96111. 538. o
8287 3 -3 0 -11 -1 571. 557. 535. <
8287 1 3 0 11 1 571. 557. 535. <
8288 3 -4 0 -11 1 106. 29. 186. <
8288 1 4 0 11 -1 106. 29. 186. <
8289 4 -4 0 11 0 359. 591. 185. o
8289 3 -4 0 -11 0 359. 591. 185. o
8289 2 4 0 -11 0 359. 591. 185. o
8289 1 4 0 11 0 359. 591. 185. o
8290 3 -4 0 -11 -1 105. 88. 184. <
8290 1 4 0 11 1 105. 88. 184. <
8291 3 -5 0 -11 1 594. 941. 757. <
8291 1 5 0 11 -1 594. 941. 757. <
8292 4 -5 0 11 0 179552. 181037. 753. o
8292 3 -5 0 -11 0 179552. 181037. 753. o
8292 2 5 0 -11 0 179552. 181037. 753. o
8292 1 5 0 11 0 179552. 181037. 753. o
8293 3 -5 0 -11 -1 74. 330. 748. <
8293 1 5 0 11 1 74. 330. 748. <
8294 3 -6 0 -11 1 969. 1002. 243. o
8294 1 6 0 11 -1 969. 1002. 243. o
8295 4 -6 0 11 0 4418. 4384. 241. o
8295 3 -6 0 -11 0 4418. 4384. 241. o
8295 2 6 0 -11 0 4418. 4384. 241. o
8295 1 6 0 11 0 4418. 4384. 241. o
8296 3 -6 0 -11 -1 1409. 1357. 239. o
8296 1 6 0 11 1 1409. 1357. 239. o
8297 3 -7 0 -11 1 102. 118. 258. <
8297 1 7 0 11 -1 102. 118. 258. <
8298 4 -7 0 11 0 5062. 5756. 256. o
8298 3 -7 0 -11 0 5062. 5756. 256. o
8298 2 7 0 -11 0 5062. 5756. 256. o
8298 1 7 0 11 0 5062. 5756. 256. o
8299 3 -7 0 -11 -1 457. 284. 255. <
8299 1 7 0 11 1 457. 284. 255. <
8300 3 -8 0 -11 1 842. 870. 257. o
8300 1 8 0 11 -1 842. 870. 257. o
8301 4 -8 0 11 0 2912. 2995. 255. o
8301 3 -8 0 -11 0 2912. 2995. 255. o
8301 2 8 0 -11 0 2912. 2995. 255. o
8301 1 8 0 11 0 2912. 2995. 255. o
8302 3 -8 0 -11 -1 625. 652. 253. o
8302 1 8 0 11 1 625. 652. 253. o
8303 3 -8 1 -11 -1 1287. 738. 308. o
8303 1 8 -1 11 1 1287. 738. 308. o
8304 4 -8 -1 11 0 9380. 9723. 309. o
8304 3 -8 1 -11 0 9380. 9723. 309. o
8304 2 8 1 -11 0 9380. 9723. 309. o
8304 1 8 -1 11 0 9380. 9723. 309. o
8305 3 -8 1 -11 1 171. 62. 310. <
8305 1 8 -1 11 -1 171. 62. 310. <
8306 3 -7 1 -11 -1 425. 376. 487. <
8306 1 7 -1 11 1 425. 376. 487. <
8307 4 -7 -1 11 0 51689. 54388. 489. o
8307 3 -7 1 -11 0 51689. 54388. 489. o
8307 2 7 1 -11 0 51689. 54388. 489. o
8307 1 7 -1 11 0 51689. 54388. 489. o
8308 3 -7 1 -11 1 651. 619. 491. <
8308 1 7 -1 11 -1 651. 619. 491. <
8309 3 -6 1 -11 -1 549. 513. 312. <
8309 1 6 -1 11 1 549. 513. 312. <
8310 4 -6 -1 11 0 16260. 16505. 314. o
8310 3 -6 1 -11 0 16260. 16505. 314. o
8310 2 6 1 -11 0 16260. 16505. 314. o
8310 1 6 -1 11 0 16260. 16505. 314. o
8311 3 -6 1 -11 1 660. 705. 316. o
8311 1 6 -1 11 -1 660. 705. 316. o
8312 3 -5 1 -11 -1 99. 9. 244. <
8312 1 5 -1 11 1 99. 9. 244. <
8313 4 -5 -1 11 0 6148. 6971. 246. o
8313 3 -5 1 -11 0 6148. 6971. 246. o
8313 2 5 1 -11 0 6148. 6971. 246. o
8313 1 5 -1 11 0 6148. 6971. 246. o
8314 3 -5 1 -11 1 518. 450. 248. <
8314 1 5 -1 11 -1 518. 450. 248. <
8315 3 -4 1 -11 -1 614. 586. 231. o
8315 1 4 -1 11 1 614. 586. 231. o
8316 4 -4 -1 11 0 4845. 4932. 232. o
8316 3 -4 1 -11 0 4845. 4932. 232. o
8316 2 4 1 -11 0 4845. 4932. 232. o
8316 1 4 -1 11 0 4845. 4932. 232. o
8317 3 -4 1 -11 1 1099. 1117. 234. o
8317 1 4 -1 11 -1 1099. 1117. 234. o
8318 3 3 -1 -11 1 478. 368. 274. <
8318 1 -3 1 11 -1 478. 368. 274. <
8319 3 -3 1 -11 -1 478. 405. 232. <
8319 1 3 -1 11 1 478. 405. 232. <
8320 4 3 1 11 0 7927. 7521. 268. o
8320 3 3 -1 -11 0 7927. 7521. 268. o
8320 2 -3 -1 -11 0 7927. 7521. 268. o
8320 1 -3 1 11 0 7927. 7521. 268. o
8321 4 -3 -1 11 0 7904. 7815. 233. o
8321 3 -3 1 -11 0 7904. 7815. 233. o
8321 2 3 1 -11 0 7904. 7815. 233. o
8321 1 3 -1 11 0 7904. 7815. 233. o
8322 3 3 -1 -11 -1 15. -5. 263. <
8322 1 -3 1 11 1 15. -5. 263. <
8323 3 -3 1 -11 1 13. -3. 235. <
8323 1 3 -1 11 -1 13. -3. 235. <
8324 3 2 -1 -11 1 459. 259. 246. <
8324 1 -2 1 11 -1 459. 259. 246. <
8325 3 -2 1 -11 -1 456. 221. 223. <
8325 1 2 -1 11 1 456. 221. 223. <
8326 4 2 1 11 0 7816. 7474. 243. o
8326 3 2 -1 -11 0 7816. 7474. 243. o
8326 2 -2 -1 -11 0 7816. 7474. 243. o
8326 1 -2 1 11 0 7816. 7474. 243. o
8327 4 -2 -1 11 0 7630. 7590. 224. o
8327 3 -2 1 -11 0 7630. 7590. 224. o
8327 2 2 1 -11 0 7630. 7590. 224. o
8327 1 2 -1 11 0 7630. 7590. 224. o
8328 3 2 -1 -11 -1 114. 104. 240. <
8328 1 -2 1 11 1 114. 104. 240. <
8329 3 -2 1 -11 1 112. 33. 226. <
8329 1 2 -1 11 -1 112. 33. 226. <
8330 3 1 -1 -11 1 373. 191. 320. <
8330 1 -1 1 11 -1 373. 191. 320. <
8331 3 -1 1 -11 -1 372. 192. 294. <
8331 1 1 -1 11 1 372. 192. 294. <
8332 4 1 1 11 0 25031. 24534. 316. o
8332 3 1 -1 -11 0 25031. 24534. 316. o
8332 2 -1 -1 -11 0 25031. 24534. 316. o
8332 1 -1 1 11 0 25031. 24534. 316. o
8333 4 -1 -1 11 0 24357. 23751. 296. o
8333 3 -1 1 -11 0 24357. 23751. 296. o
8333 2 1 1 -11 0 24357. 23751. 296. o
8333 1 1 -1 11 0 24357. 23751. 296. o
8334 3 1 -1 -11 -1 409. 196. 313. <
8334 1 -1 1 11 1 409. 196. 313. <
8335 3 -1 1 -11 1 397. 304. 299. <
8335 1 1 -1 11 -1 397. 304. 299. <
8336 3 0 -1 -11 1 121. 108. 190. <
8336 1 0 1 11 -1 121. 108. 190. <
8337 3 0 1 -11 -1 116. 79. 185. <
8337 1 0 -1 11 1 116. 79. 185. <
8338 4 0 1 11 0 3209. 3742. 188. o
8338 3 0 -1 -11 0 3209. 3742. 188. o
8338 2 0 -1 -11 0 3209. 3742. 188. o
8338 1 0 1 11 0 3209. 3742. 188. o
8339 4 0 -1 11 0 3354. 3491. 187. o
8339 3 0 1 -11 0 3354. 3491. 187. o
8339 2 0 1 -11 0 3354. 3491. 187. o
8339 1 0 -1 11 0 3354. 3491. 187. o
8340 3 0 -1 -11 -1 211. 56. 186. <
8340 1 0 1 11 1 211. 56. 186. <
8341 3 0 1 -11 1 199. 85. 188. <
8341 1 0 -1 11 -1 199. 85. 188. <
8342 3 -1 -1 -11 1 45. 52. 297. <
8342 1 1 1 11 -1 45. 52. 297. <
8343 3 1 1 -11 -1 45. 55. 296. <
8343 1 -1 -1 11 1 45. 55. 296. <
8344 4 -1 1 11 0 24425. 24418. 295. o
8344 3 -1 -1 -11 0 24425. 24418. 295. o
8344 2 1 -1 -11 0 24425. 24418. 295. o
8344 1 1 1 11 0 24425. 24418. 295. o
8345 4 1 -1 11 0 23862. 23122. 299. o
8345 3 1 1 -11 0 23862. 23122. 299. o
8345 2 -1 1 -11 0 23862. 23122. 299. o
8345 1 -1 -1 11 0 23862. 23122. 299. o
8346 3 -1 -1 -11 -1 28. 85. 293. <
8346 1 1 1 11 1 28. 85. 293. <
8347 3 1 1 -11 1 27. 33. 303. <
8347 1 -1 -1 11 -1 27. 33. 303. <
8348 3 -2 -1 -11 1 805. 455. 217. o
8348 1 2 1 11 -1 805. 455. 217. o
8349 4 -2 1 11 0 8103. 7995. 216. o
8349 3 -2 -1 -11 0 8103. 7995. 216. o
8349 2 2 -1 -11 0 8103. 7995. 216. o
8349 1 2 1 11 0 8103. 7995. 216. o
8350 3 -2 -1 -11 -1 613. 413. 215. <
8350 1 2 1 11 1 613. 413. 215. <
8351 3 -3 -1 -11 1 86. 56. 230. <
8351 1 3 1 11 -1 86. 56. 230. <
8352 4 -3 1 11 0 8350. 7496. 229. o
8352 3 -3 -1 -11 0 8350. 7496. 229. o
8352 2 3 -1 -11 0 8350. 7496. 229. o
8352 1 3 1 11 0 8350. 7496. 229. o
8353 3 -3 -1 -11 -1 1333. 1121. 227. o
8353 1 3 1 11 1 1333. 1121. 227. o
8354 3 -4 -1 -11 1 696. 697. 213. o
8354 1 4 1 11 -1 696. 697. 213. o
8355 4 -4 1 11 0 4792. 4156. 212. o
8355 3 -4 -1 -11 0 4792. 4156. 212. o
8355 2 4 -1 -11 0 4792. 4156. 212. o
8355 1 4 1 11 0 4792. 4156. 212. o
8356 3 -4 -1 -11 -1 299. 217. 211. <
8356 1 4 1 11 1 299. 217. 211. <
8357 3 -5 -1 -11 1 52. 80. 231. <
8357 1 5 1 11 -1 52. 80. 231. <
8358 4 -5 1 11 0 6181. 6935. 230. o
8358 3 -5 -1 -11 0 6181. 6935. 230. o
8358 2 5 -1 -11 0 6181. 6935. 230. o
8358 1 5 1 11 0 6181. 6935. 230. o
8359 3 -5 -1 -11 -1 24. 70. 229. <
8359 1 5 1 11 1 24. 70. 229. <
8360 3 -6 -1 -11 1 154. 174. 297. <
8360 1 6 1 11 -1 154. 174. 297. <
8361 4 -6 1 11 0 15963. 16288. 296. o
8361 3 -6 -1 -11 0 15963. 16288. 296. o
8361 2 6 -1 -11 0 15963. 16288. 296. o
8361 1 6 1 11 0 15963. 16288. 296. o
8362 3 -6 -1 -11 -1 199. 177. 294. <
8362 1 6 1 11 1 199. 177. 294. <
8363 3 -7 -1 -11 1 961. 826. 462. <
8363 1 7 1 11 -1 961. 826. 462. <
8364 4 -7 1 11 0 51688. 53565. 460. o
8364 3 -7 -1 -11 0 51688. 53565. 460. o
8364 2 7 -1 -11 0 51688. 53565. 460. o
8364 1 7 1 11 0 51688. 53565. 460. o
8365 3 -7 -1 -11 -1 176. 360. 457. <
8365 1 7 1 11 1 176. 360. 457. <
8366 3 -8 -1 -11 1 45. 41. 276. <
8366 1 8 1 11 -1 45. 41. 276. <
8367 4 -8 1 11 0 9063. 9280. 275. o
8367 3 -8 -1 -11 0 9063. 9280. 275. o
8367 2 8 -1 -11 0 9063. 9280. 275. o
8367 1 8 1 11 0 9063. 9280. 275. o
8368 3 -8 -1 -11 -1 420. 265. 274. <
8368 1 8 1 11 1 420. 265. 274. <
8369 3 8 -2 -11 1 449. 222. 197. <
8369 1 -8 2 11 -1 449. 222. 197. <
8370 3 -8 2 -11 -1 452. 265. 324. <
8370 1 8 -2 11 1 452. 265. 324. <
8371 4 8 2 11 0 9863. 9219. 197. o
8371 3 8 -2 -11 0 9863. 9219. 197. o
8371 2 -8 -2 -11 0 9863. 9219. 197. o
8371 1 -8 2 11 0 9863. 9219. 197. o
8372 4 -8 -2 11 0 10049. 10598. 325. o
8372 3 -8 2 -11 0 10049. 10598. 325. o
8372 2 8 2 -11 0 10049. 10598. 325. o
8372 1 8 -2 11 0 10049. 10598. 325. o
8373 3 8 -2 -11 -1 792. 437. 198. o
8373 1 -8 2 11 1 792. 437. 198. o
8374 3 -8 2 -11 1 807. 695. 326. o
8374 1 8 -2 11 -1 807. 695. 326. o
8375 3 -7 2 -11 -1 75. 62. 290. <
8375 1 7 -2 11 1 75. 62. 290. <
8376 4 -7 -2 11 0 7650. 8466. 291. o
8376 3 -7 2 -11 0 7650. 8466. 291. o
8376 2 7 2 -11 0 7650. 8466. 291. o
8376 1 7 -2 11 0 7650. 8466. 291. o
8377 3 -7 2 -11 1 64. 73. 292. <
8377 1 7 -2 11 -1 64. 73. 292. <
8378 3 -6 2 -11 -1 127. 106. 285. <
8378 1 6 -2 11 1 127. 106. 285. <
8379 4 -6 -2 11 0 10319. 9855. 286. o
8379 3 -6 2 -11 0 10319. 9855. 286. o
8379 2 6 2 -11 0 10319. 9855. 286. o
8379 1 6 -2 11 0 10319. 9855. 286. o
8380 3 -6 2 -11 1 41. -11. 287. <
8380 1 6 -2 11 -1 41. -11. 287. <
8381 3 -5 2 -11 -1 662. 598. 336. <
8381 1 5 -2 11 1 662. 598. 336. <
8382 4 -5 -2 11 0 21894. 22374. 338. o
8382 3 -5 2 -11 0 21894. 22374. 338. o
8382 2 5 2 -11 0 21894. 22374. 338. o
8382 1 5 -2 11 0 21894. 22374. 338. o
8383 3 -5 2 -11 1 369. 437. 340. <
8383 1 5 -2 11 -1 369. 437. 340. <
8384 3 4 -2 -11 1 730. 533. 496. <
8384 1 -4 2 11 -1 730. 533. 496. <
8385 3 -4 2 -11 -1 740. 881. 417. o
8385 1 4 -2 11 1 740. 881. 417. o
8386 4 4 2 11 0 40569. 40831. 486. o
8386 3 4 -2 -11 0 40569. 40831. 486. o
8386 2 -4 -2 -11 0 40569. 40831. 486. o
8386 1 -4 2 11 0 40569. 40831. 486. o
8387 4 -4 -2 11 0 41781. 42485. 421. o
8387 3 -4 2 -11 0 41781. 42485. 421. o
8387 2 4 2 -11 0 41781. 42485. 421. o
8387 1 4 -2 11 0 41781. 42485. 421. o
8388 3 4 -2 -11 -1 1868. 1038. 477. o
8388 1 -4 2 11 1 1868. 1038. 477. o
8389 3 -4 2 -11 1 1870. 2295. 424. o
8389 1 4 -2 11 -1 1870. 2295. 424. o
8390 3 -3 2 -11 -1 697. 352. 448. <
8390 1 3 -2 11 1 697. 352. 448. <
8391 4 -3 -2 11 0 57214. 59352. 451. o
8391 3 -3 2 -11 0 57214. 59352. 451. o
8391 2 3 2 -11 0 57214. 59352. 451. o
8391 1 3 -2 11 0 57214. 59352. 451. o
8392 3 -3 2 -11 1 50. 69. 455. <
8392 1 3 -2 11 -1 50. 69. 455. <
8393 3 2 -2 -11 1 91. 86. 214. <
8393 1 -2 2 11 -1 91. 86. 214. <
8394 3 -2 2 -11 -1 94. 32. 168. <
8394 1 2 -2 11 1 94. 32. 168. <
8395 4 2 2 11 0 1091. 1121. 211. o
8395 3 2 -2 -11 0 1091. 1121. 211. o
8395 2 -2 -2 -11 0 1091. 1121. 211. o
8395 1 -2 2 11 0 1091. 1121. 211. o
8396 4 -2 -2 11 0 1021. 1008. 170. o
8396 3 -2 2 -11 0 1021. 1008. 170. o
8396 2 2 2 -11 0 1021. 1008. 170. o
8396 1 2 -2 11 0 1021. 1008. 170. o
8397 3 2 -2 -11 -1 92. 50. 208. <
8397 1 -2 2 11 1 92. 50. 208. <
8398 3 -2 2 -11 1 86. 18. 171. <
8398 1 2 -2 11 -1 86. 18. 171. <
8399 3 1 -2 -11 1 175. 46. 243. <
8399 1 -1 2 11 -1 175. 46. 243. <
8400 4 1 2 11 0 7245. 7297. 241. o
8400 3 1 -2 -11 0 7245. 7297. 241. o
8400 2 -1 -2 -11 0 7245. 7297. 241. o
8400 1 -1 2 11 0 7245. 7297. 241. o
8401 3 1 -2 -11 -1 467. 328. 238. <
8401 1 -1 2 11 1 467. 328. 238. <
8402 3 0 2 -11 -1 432. 306. 166. <
8402 1 0 -2 11 1 432. 306. 166. <
8403 4 0 -2 11 0 1085. 541. 168. o
8403 3 0 2 -11 0 1085. 541. 168. o
8403 2 0 2 -11 0 1085. 541. 168. o
8403 1 0 -2 11 0 1085. 541. 168. o
8404 3 0 2 -11 1 192. 178. 169. <
8404 1 0 -2 11 -1 192. 178. 169. <
8405 3 -1 -2 -11 1 713. 567. 216. o
8405 1 1 2 11 -1 713. 567. 216. o
8406 4 -1 2 11 0 7436. 7036. 214. o
8406 3 -1 -2 -11 0 7436. 7036. 214. o
8406 2 1 -2 -11 0 7436. 7036. 214. o
8406 1 1 2 11 0 7436. 7036. 214. o
8407 3 -1 -2 -11 -1 477. 378. 213. <
8407 1 1 2 11 1 477. 378. 213. <
8408 3 -2 -2 -11 1 14. 10. 166. <
8408 1 2 2 11 -1 14. 10. 166. <
8409 4 -2 2 11 0 1029. 1024. 165. o
8409 3 -2 -2 -11 0 1029. 1024. 165. o
8409 2 2 -2 -11 0 1029. 1024. 165. o
8409 1 2 2 11 0 1029. 1024. 165. o
8410 3 -2 -2 -11 -1 119. -25. 164. <
8410 1 2 2 11 1 119. -25. 164. <
8411 3 -3 -2 -11 1 274. 263. 436. <
8411 1 3 2 11 -1 274. 263. 436. <
8412 4 -3 2 11 0 58060. 59249. 434. o
8412 3 -3 -2 -11 0 58060. 59249. 434. o
8412 2 3 -2 -11 0 58060. 59249. 434. o
8412 1 3 2 11 0 58060. 59249. 434. o
8413 3 -3 -2 -11 -1 164. 221. 432. <
8413 1 3 2 11 1 164. 221. 432. <
8414 3 -4 -2 -11 1 335. 394. 377. <
8414 1 4 2 11 -1 335. 394. 377. <
8415 4 -4 2 11 0 41193. 39803. 376. o
8415 3 -4 -2 -11 0 41193. 39803. 376. o
8415 2 4 -2 -11 0 41193. 39803. 376. o
8415 1 4 2 11 0 41193. 39803. 376. o
8416 3 -4 -2 -11 -1 748. 791. 374. o
8416 1 4 2 11 1 748. 791. 374. o
8417 3 -5 -2 -11 1 128. 129. 310. <
8417 1 5 2 11 -1 128. 129. 310. <
8418 4 -5 2 11 0 22371. 22902. 309. o
8418 3 -5 -2 -11 0 22371. 22902. 309. o
8418 2 5 -2 -11 0 22371. 22902. 309. o
8418 1 5 2 11 0 22371. 22902. 309. o
8419 3 -5 -2 -11 -1 230. 255. 308. <
8419 1 5 2 11 1 230. 255. 308. <
8420 3 -6 -2 -11 1 407. 414. 263. <
8420 1 6 2 11 -1 407. 414. 263. <
8421 4 -6 2 11 0 10498. 10511. 262. o
8421 3 -6 -2 -11 0 10498. 10511. 262. o
8421 2 6 -2 -11 0 10498. 10511. 262. o
8421 1 6 2 11 0 10498. 10511. 262. o
8422 3 -6 -2 -11 -1 227. 228. 261. <
8422 1 6 2 11 1 227. 228. 261. <
8423 3 -7 -2 -11 1 205. 19. 253. <
8423 1 7 2 11 -1 205. 19. 253. <
8424 4 -7 2 11 0 7890. 7924. 252. o
8424 3 -7 -2 -11 0 7890. 7924. 252. o
8424 2 7 -2 -11 0 7890. 7924. 252. o
8424 1 7 2 11 0 7890. 7924. 252. o
8425 3 -7 -2 -11 -1 121. 129. 251. <
8425 1 7 2 11 1 121. 129. 251. <
8426 3 -8 -2 -11 1 237. 175. 273. <
8426 1 8 2 11 -1 237. 175. 273. <
8427 4 -8 2 11 0 9748. 10115. 272. o
8427 3 -8 -2 -11 0 9748. 10115. 272. o
8427 2 8 -2 -11 0 9748. 10115. 272. o
8427 1 8 2 11 0 9748. 10115. 272. o
8428 3 -8 -2 -11 -1 138. 58. 271. <
8428 1 8 2 11 1 138. 58. 271. <
8429 3 8 -3 -11 1 15. 205. 387. <
8429 1 -8 3 11 -1 15. 205. 387. <
8430 3 -8 3 -11 -1 16. 125. 562. <
8430 1 8 -3 11 1 16. 125. 562. <
8431 4 8 3 11 0 56814. 54459. 389. o
8431 3 8 -3 -11 0 56814. 54459. 389. o
8431 2 -8 -3 -11 0 56814. 54459. 389. o
8431 1 -8 3 11 0 56814. 54459. 389. o
8432 4 -8 -3 11 0 57274. 62017. 564. o
8432 3 -8 3 -11 0 57274. 62017. 564. o
8432 2 8 3 -11 0 57274. 62017. 564. o
8432 1 8 -3 11 0 57274. 62017. 564. o
8433 3 8 -3 -11 -1 250. 86. 391. <
8433 1 -8 3 11 1 250. 86. 391. <
8434 3 -8 3 -11 1 245. 224. 565. <
8434 1 8 -3 11 -1 245. 224. 565. <
8435 3 -7 3 -11 -1 873. 655. 262. o
8435 1 7 -3 11 1 873. 655. 262. o
8436 4 -7 -3 11 0 1401. 1388. 263. o
8436 3 -7 3 -11 0 1401. 1388. 263. o
8436 2 7 3 -11 0 1401. 1388. 263. o
8436 1 7 -3 11 0 1401. 1388. 263. o
8437 3 -7 3 -11 1 516. 530. 264. o
8437 1 7 -3 11 -1 516. 530. 264. o
8438 3 -6 3 -11 -1 5. 51. 382. <
8438 1 6 -3 11 1 5. 51. 382. <
8439 4 -6 -3 11 0 26556. 27594. 384. o
8439 3 -6 3 -11 0 26556. 27594. 384. o
8439 2 6 3 -11 0 26556. 27594. 384. o
8439 1 6 -3 11 0 26556. 27594. 384. o
8440 3 -6 3 -11 1 13. 32. 386. <
8440 1 6 -3 11 -1 13. 32. 386. <
8441 3 5 -3 -11 1 260. 234. 308. <
8441 1 -5 3 11 -1 260. 234. 308. <
8442 3 -5 3 -11 -1 273. 29. 216. <
8442 1 5 -3 11 1 273. 29. 216. <
8443 4 5 3 11 0 819. 882. 301. o
8443 3 5 -3 -11 0 819. 882. 301. o
8443 2 -5 -3 -11 0 819. 882. 301. o
8443 1 -5 3 11 0 819. 882. 301. o
8444 4 -5 -3 11 0 813. 596. 217. o
8444 3 -5 3 -11 0 813. 596. 217. o
8444 2 5 3 -11 0 813. 596. 217. o
8444 1 5 -3 11 0 813. 596. 217. o
8445 3 5 -3 -11 -1 228. 194. 294. <
8445 1 -5 3 11 1 228. 194. 294. <
8446 3 -5 3 -11 1 231. 199. 219. <
8446 1 5 -3 11 -1 231. 199. 219. <
8447 3 4 -3 -11 1 914. 701. 281. o
8447 1 -4 3 11 -1 914. 701. 281. o
8448 3 -4 3 -11 -1 923. 596. 218. o
8448 1 4 -3 11 1 923. 596. 218. o
8449 4 4 3 11 0 1989. 1825. 276. o
8449 3 4 -3 -11 0 1989. 1825. 276. o
8449 2 -4 -3 -11 0 1989. 1825. 276. o
8449 1 -4 3 11 0 1989. 1825. 276. o
8450 4 -4 -3 11 0 1960. 1859. 219. o
8450 3 -4 3 -11 0 1960. 1859. 219. o
8450 2 4 3 -11 0 1960. 1859. 219. o
8450 1 4 -3 11 0 1960. 1859. 219. o
8451 3 4 -3 -11 -1 357. 136. 271. <
8451 1 -4 3 11 1 357. 136. 271. <
8452 3 -4 3 -11 1 366. 203. 220. <
8452 1 4 -3 11 -1 366. 203. 220. <
8453 3 -3 3 -11 -1 2947. 3011. 301. o
8453 1 3 -3 11 1 2947. 3011. 301. o
8454 4 -3 -3 11 0 13688. 14057. 303. o
8454 3 -3 3 -11 0 13688. 14057. 303. o
8454 2 3 3 -11 0 13688. 14057. 303. o
8454 1 3 -3 11 0 13688. 14057. 303. o
8455 3 -3 3 -11 1 2732. 2798. 305. o
8455 1 3 -3 11 -1 2732. 2798. 305. o
8456 3 -2 3 -11 -1 85. 67. 446. <
8456 1 2 -3 11 1 85. 67. 446. <
8457 4 -2 -3 11 0 58262. 61382. 450. o
8457 3 -2 3 -11 0 58262. 61382. 450. o
8457 2 2 3 -11 0 58262. 61382. 450. o
8457 1 2 -3 11 0 58262. 61382. 450. o
8458 3 -2 3 -11 1 401. 401. 453. <
8458 1 2 -3 11 -1 401. 401. 453. <
8459 3 -1 3 -11 -1 37. 31. 224. <
8459 1 1 -3 11 1 37. 31. 224. <
8460 4 -1 -3 11 0 7039. 7442. 227. o
8460 3 -1 3 -11 0 7039. 7442. 227. o
8460 2 1 3 -11 0 7039. 7442. 227. o
8460 1 1 -3 11 0 7039. 7442. 227. o
8461 3 -1 3 -11 1 509. 350. 229. <
8461 1 1 -3 11 -1 509. 350. 229. <
8462 3 0 -3 -11 1 238. 339. 572. <
8462 1 0 3 11 -1 238. 339. 572. <
8463 4 0 3 11 0 92795. 95259. 567. o
8463 3 0 -3 -11 0 92795. 95259. 567. o
8463 2 0 -3 -11 0 92795. 95259. 567. o
8463 1 0 3 11 0 92795. 95259. 567. o
8464 3 0 -3 -11 -1 749. 526. 562. <
8464 1 0 3 11 1 749. 526. 562. <
8465 3 -1 -3 -11 1 40. 84. 224. <
8465 1 1 3 11 -1 40. 84. 224. <
8466 4 -1 3 11 0 7167. 7231. 223. o
8466 3 -1 -3 -11 0 7167. 7231. 223. o
8466 2 1 -3 -11 0 7167. 7231. 223. o
8466 1 1 3 11 0 7167. 7231. 223. o
8467 3 -1 -3 -11 -1 1014. 753. 221. o
8467 1 1 3 11 1 1014. 753. 221. o
8468 3 -2 -3 -11 1 200. 348. 445. <
8468 1 2 3 11 -1 200. 348. 445. <
8469 4 -2 3 11 0 58134. 60416. 442. o
8469 3 -2 -3 -11 0 58134. 60416. 442. o
8469 2 2 -3 -11 0 58134. 60416. 442. o
8469 1 2 3 11 0 58134. 60416. 442. o
8470 3 -2 -3 -11 -1 152. 237. 440. <
8470 1 2 3 11 1 152. 237. 440. <
8471 3 -3 -3 -11 1 36. 17. 257. <
8471 1 3 3 11 -1 36. 17. 257. <
8472 4 -3 3 11 0 13114. 12729. 256. o
8472 3 -3 -3 -11 0 13114. 12729. 256. o
8472 2 3 -3 -11 0 13114. 12729. 256. o
8472 1 3 3 11 0 13114. 12729. 256. o
8473 3 -3 -3 -11 -1 221. -12. 255. <
8473 1 3 3 11 1 221. -12. 255. <
8474 3 -4 -3 -11 1 54. 63. 190. <
8474 1 4 3 11 -1 54. 63. 190. <
8475 4 -4 3 11 0 1866. 1859. 189. o
8475 3 -4 -3 -11 0 1866. 1859. 189. o
8475 2 4 -3 -11 0 1866. 1859. 189. o
8475 1 4 3 11 0 1866. 1859. 189. o
8476 3 -4 -3 -11 -1 13. -5. 188. <
8476 1 4 3 11 1 13. -5. 188. <
8477 3 -5 -3 -11 1 816. 788. 195. o
8477 1 5 3 11 -1 816. 788. 195. o
8478 4 -5 3 11 0 853. 887. 195. o
8478 3 -5 -3 -11 0 853. 887. 195. o
8478 2 5 -3 -11 0 853. 887. 195. o
8478 1 5 3 11 0 853. 887. 195. o
8479 3 -5 -3 -11 -1 436. 383. 194. <
8479 1 5 3 11 1 436. 383. 194. <
8480 3 -6 -3 -11 1 124. 257. 337. <
8480 1 6 3 11 -1 124. 257. 337. <
8481 4 -6 3 11 0 26874. 27029. 337. o
8481 3 -6 -3 -11 0 26874. 27029. 337. o
8481 2 6 -3 -11 0 26874. 27029. 337. o
8481 1 6 3 11 0 26874. 27029. 337. o
8482 3 -6 -3 -11 -1 356. 369. 336. <
8482 1 6 3 11 1 356. 369. 336. <
8483 3 -7 -3 -11 1 263. 561. 204. o
8483 1 7 3 11 -1 263. 561. 204. o
8484 4 -7 3 11 0 1634. 560. 203. o
8484 3 -7 -3 -11 0 1634. 560. 203. o
8484 2 7 -3 -11 0 1634. 560. 203. o
8484 1 7 3 11 0 1634. 560. 203. o
8485 3 -7 -3 -11 -1 12. 559. 203. o
8485 1 7 3 11 1 12. 559. 203. o
8486 3 -8 -3 -11 1 33. 855. 479. <
8486 1 8 3 11 -1 33. 855. 479. <
8487 4 -8 3 11 0 57564. 58452. 478. o
8487 3 -8 -3 -11 0 57564. 58452. 478. o
8487 2 8 -3 -11 0 57564. 58452. 478. o
8487 1 8 3 11 0 57564. 58452. 478. o
8488 3 -8 -3 -11 -1 174. 252. 478. <
8488 1 8 3 11 1 174. 252. 478. <
8489 3 7 -4 -11 1 1269. 581. 154. o
8489 1 -7 4 11 -1 1269. 581. 154. o
8490 3 -7 4 -11 -1 1270. 704. 273. o
8490 1 7 -4 11 1 1270. 704. 273. o
8491 4 7 4 11 0 1017. 1586. 155. o
8491 3 7 -4 -11 0 1017. 1586. 155. o
8491 2 -7 -4 -11 0 1017. 1586. 155. o
8491 1 -7 4 11 0 1017. 1586. 155. o
8492 4 -7 -4 11 0 979. 1099. 274. o
8492 3 -7 4 -11 0 979. 1099. 274. o
8492 2 7 4 -11 0 979. 1099. 274. o
8492 1 7 -4 11 0 979. 1099. 274. o
8493 3 7 -4 -11 -1 266. 160. 156. <
8493 1 -7 4 11 1 266. 160. 156. <
8494 3 -7 4 -11 1 271. 129. 276. <
8494 1 7 -4 11 -1 271. 129. 276. <
8495 3 -6 4 -11 -1 1134. 1077. 303. o
8495 1 6 -4 11 1 1134. 1077. 303. o
8496 4 -6 -4 11 0 9884. 9739. 304. o
8496 3 -6 4 -11 0 9884. 9739. 304. o
8496 2 6 4 -11 0 9884. 9739. 304. o
8496 1 6 -4 11 0 9884. 9739. 304. o
8497 3 -6 4 -11 1 43. -36. 306. <
8497 1 6 -4 11 -1 43. -36. 306. <
8498 3 5 -4 -11 1 80. 40. 285. <
8498 1 -5 4 11 -1 80. 40. 285. <
8499 3 -5 4 -11 -1 77. -6. 224. <
8499 1 5 -4 11 1 77. -6. 224. <
8500 4 5 4 11 0 2247. 1866. 279. o
8500 3 5 -4 -11 0 2247. 1866. 279. o
8500 2 -5 -4 -11 0 2247. 1866. 279. o
8500 1 -5 4 11 0 2247. 1866. 279. o
8501 4 -5 -4 11 0 2282. 1638. 226. o
8501 3 -5 4 -11 0 2282. 1638. 226. o
8501 2 5 4 -11 0 2282. 1638. 226. o
8501 1 5 -4 11 0 2282. 1638. 226. o
8502 3 5 -4 -11 -1 108. 158. 272. <
8502 1 -5 4 11 1 108. 158. 272. <
8503 3 -5 4 -11 1 104. -20. 227. <
8503 1 5 -4 11 -1 104. -20. 227. <
8504 3 -4 4 -11 -1 98. 242. 429. <
8504 1 4 -4 11 1 98. 242. 429. <
8505 4 -4 -4 11 0 44488. 44171. 433. o
8505 3 -4 4 -11 0 44488. 44171. 433. o
8505 2 4 4 -11 0 44488. 44171. 433. o
8505 1 4 -4 11 0 44488. 44171. 433. o
8506 3 -4 4 -11 1 98. 197. 435. <
8506 1 4 -4 11 -1 98. 197. 435. <
8507 3 3 -4 -11 1 294. 162. 272. <
8507 1 -3 4 11 -1 294. 162. 272. <
8508 3 -3 4 -11 -1 287. 201. 198. <
8508 1 3 -4 11 1 287. 201. 198. <
8509 4 3 4 11 0 1673. 1710. 268. o
8509 3 3 -4 -11 0 1673. 1710. 268. o
8509 2 -3 -4 -11 0 1673. 1710. 268. o
8509 1 -3 4 11 0 1673. 1710. 268. o
8510 4 -3 -4 11 0 1639. 1412. 200. o
8510 3 -3 4 -11 0 1639. 1412. 200. o
8510 2 3 4 -11 0 1639. 1412. 200. o
8510 1 3 -4 11 0 1639. 1412. 200. o
8511 3 3 -4 -11 -1 847. 440. 265. <
8511 1 -3 4 11 1 847. 440. 265. <
8512 3 -3 4 -11 1 841. 667. 201. o
8512 1 3 -4 11 -1 841. 667. 201. o
8513 3 -2 4 -11 -1 1484. 1484. 398. o
8513 1 2 -4 11 1 1484. 1484. 398. o
8514 4 -2 -4 11 0 38838. 41413. 401. o
8514 3 -2 4 -11 0 38838. 41413. 401. o
8514 2 2 4 -11 0 38838. 41413. 401. o
8514 1 2 -4 11 0 38838. 41413. 401. o
8515 3 -2 4 -11 1 519. 595. 405. <
8515 1 2 -4 11 -1 519. 595. 405. <
8516 3 1 -4 -11 1 1176. 819. 247. o
8516 1 -1 4 11 -1 1176. 819. 247. o
8517 4 1 4 11 0 5783. 6153. 244. o
8517 3 1 -4 -11 0 5783. 6153. 244. o
8517 2 -1 -4 -11 0 5783. 6153. 244. o
8517 1 -1 4 11 0 5783. 6153. 244. o
8518 3 1 -4 -11 -1 729. 399. 242. <
8518 1 -1 4 11 1 729. 399. 242. <
8519 3 0 -4 -11 1 73. 18. 184. <
8519 1 0 4 11 -1 73. 18. 184. <
8520 4 0 4 11 0 290. 79. 182. <
8520 3 0 -4 -11 0 290. 79. 182. <
8520 2 0 -4 -11 0 290. 79. 182. <
8520 1 0 4 11 0 290. 79. 182. <
8521 3 0 -4 -11 -1 199. 28. 182. <
8521 1 0 4 11 1 199. 28. 182. <
8522 3 -1 -4 -11 1 665. 426. 224. <
8522 1 1 4 11 -1 665. 426. 224. <
8523 4 -1 4 11 0 5904. 5937. 223. o
8523 3 -1 -4 -11 0 5904. 5937. 223. o
8523 2 1 -4 -11 0 5904. 5937. 223. o
8523 1 1 4 11 0 5904. 5937. 223. o
8524 3 -1 -4 -11 -1 202. 129. 222. <
8524 1 1 4 11 1 202. 129. 222. <
8525 3 -2 -4 -11 1 337. 332. 393. <
8525 1 2 4 11 -1 337. 332. 393. <
8526 4 -2 4 11 0 39325. 39783. 391. o
8526 3 -2 -4 -11 0 39325. 39783. 391. o
8526 2 2 -4 -11 0 39325. 39783. 391. o
8526 1 2 4 11 0 39325. 39783. 391. o
8527 3 -2 -4 -11 -1 744. 625. 389. <
8527 1 2 4 11 1 744. 625. 389. <
8528 3 -3 -4 -11 1 75. 49. 195. <
8528 1 3 4 11 -1 75. 49. 195. <
8529 4 -3 4 11 0 1733. 2018. 195. o
8529 3 -3 -4 -11 0 1733. 2018. 195. o
8529 2 3 -4 -11 0 1733. 2018. 195. o
8529 1 3 4 11 0 1733. 2018. 195. o
8530 3 -3 -4 -11 -1 3. -6. 194. <
8530 1 3 4 11 1 3. -6. 194. <
8531 3 -4 -4 -11 1 11. 238. 407. <
8531 1 4 4 11 -1 11. 238. 407. <
8532 4 -4 4 11 0 43813. 45257. 406. o
8532 3 -4 -4 -11 0 43813. 45257. 406. o
8532 2 4 -4 -11 0 43813. 45257. 406. o
8532 1 4 4 11 0 43813. 45257. 406. o
8533 3 -4 -4 -11 -1 294. 44. 405. <
8533 1 4 4 11 1 294. 44. 405. <
8534 3 -5 -4 -11 1 717. 562. 214. o
8534 1 5 4 11 -1 717. 562. 214. o
8535 4 -5 4 11 0 2421. 2371. 214. o
8535 3 -5 -4 -11 0 2421. 2371. 214. o
8535 2 5 -4 -11 0 2421. 2371. 214. o
8535 1 5 4 11 0 2421. 2371. 214. o
8536 3 -5 -4 -11 -1 1337. 1110. 213. o
8536 1 5 4 11 1 1337. 1110. 213. o
8537 3 -6 -4 -11 1 194. 177. 254. <
8537 1 6 4 11 -1 194. 177. 254. <
8538 4 -6 4 11 0 10364. 10075. 254. o
8538 3 -6 -4 -11 0 10364. 10075. 254. o
8538 2 6 -4 -11 0 10364. 10075. 254. o
8538 1 6 4 11 0 10364. 10075. 254. o
8539 3 -6 -4 -11 -1 924. 817. 254. o
8539 1 6 4 11 1 924. 817. 254. o
8540 3 -7 -4 -11 1 258. 252. 207. <
8540 1 7 4 11 -1 258. 252. 207. <
8541 4 -7 4 11 0 1016. 1282. 207. o
8541 3 -7 -4 -11 0 1016. 1282. 207. o
8541 2 7 -4 -11 0 1016. 1282. 207. o
8541 1 7 4 11 0 1016. 1282. 207. o
8542 3 -7 -4 -11 -1 35. 68. 206. <
8542 1 7 4 11 1 35. 68. 206. <
8543 3 -8 -4 -11 1 272. 295. 112. o
8543 1 8 4 11 -1 272. 295. 112. o
8544 3 7 -5 -11 1 9. -14. 208. <
8544 1 -7 5 11 -1 9. -14. 208. <
8545 3 -7 5 -11 -1 7. -8. 330. <
8545 1 7 -5 11 1 7. -8. 330. <
8546 4 7 5 11 0 8767. 8513. 209. o
8546 3 7 -5 -11 0 8767. 8513. 209. o
8546 2 -7 -5 -11 0 8767. 8513. 209. o
8546 1 -7 5 11 0 8767. 8513. 209. o
8547 4 -7 -5 11 0 9205. 8243. 331. o
8547 3 -7 5 -11 0 9205. 8243. 331. o
8547 2 7 5 -11 0 9205. 8243. 331. o
8547 1 7 -5 11 0 9205. 8243. 331. o
8548 3 7 -5 -11 -1 314. 70. 211. <
8548 1 -7 5 11 1 314. 70. 211. <
8549 3 -7 5 -11 1 289. -31. 333. <
8549 1 7 -5 11 -1 289. -31. 333. <
8550 3 6 -5 -11 1 300. 107. 457. <
8550 1 -6 5 11 -1 300. 107. 457. <
8551 3 -6 5 -11 -1 293. 3550. 327. o
8551 1 6 -5 11 1 293. 3550. 327. o
8552 4 6 5 11 0 10600. 10352. 448. o
8552 3 6 -5 -11 0 10600. 10352. 448. o
8552 2 -6 -5 -11 0 10600. 10352. 448. o
8552 1 -6 5 11 0 10600. 10352. 448. o
8553 4 -6 -5 11 0 10316. 3569. 328. o
8553 3 -6 5 -11 0 10316. 3569. 328. o
8553 2 6 5 -11 0 10316. 3569. 328. o
8553 1 6 -5 11 0 10316. 3569. 328. o
8554 3 6 -5 -11 -1 119. 158. 438. <
8554 1 -6 5 11 1 119. 158. 438. <
8555 3 -6 5 -11 1 118. 3589. 330. o
8555 1 6 -5 11 -1 118. 3589. 330. o
8556 3 5 -5 -11 1 10. -9. 337. <
8556 1 -5 5 11 -1 10. -9. 337. <
8557 3 -5 5 -11 -1 10. -8. 248. <
8557 1 5 -5 11 1 10. -8. 248. <
8558 4 5 5 11 0 3257. 3144. 330. o
8558 3 5 -5 -11 0 3257. 3144. 330. o
8558 2 -5 -5 -11 0 3257. 3144. 330. o
8558 1 -5 5 11 0 3257. 3144. 330. o
8559 4 -5 -5 11 0 3247. 3093. 249. o
8559 3 -5 5 -11 0 3247. 3093. 249. o
8559 2 5 5 -11 0 3247. 3093. 249. o
8559 1 5 -5 11 0 3247. 3093. 249. o
8560 3 5 -5 -11 -1 60. 32. 324. <
8560 1 -5 5 11 1 60. 32. 324. <
8561 3 -5 5 -11 1 57. -6. 251. <
8561 1 5 -5 11 -1 57. -6. 251. <
8562 3 4 -5 -11 1 193. 182. 297. <
8562 1 -4 5 11 -1 193. 182. 297. <
8563 3 -4 5 -11 -1 188. 49. 219. <
8563 1 4 -5 11 1 188. 49. 219. <
8564 4 4 5 11 0 1569. 1629. 292. o
8564 3 4 -5 -11 0 1569. 1629. 292. o
8564 2 -4 -5 -11 0 1569. 1629. 292. o
8564 1 -4 5 11 0 1569. 1629. 292. o
8565 4 -4 -5 11 0 1547. 1094. 221. o
8565 3 -4 5 -11 0 1547. 1094. 221. o
8565 2 4 5 -11 0 1547. 1094. 221. o
8565 1 4 -5 11 0 1547. 1094. 221. o
8566 3 4 -5 -11 -1 135. 16. 288. <
8566 1 -4 5 11 1 135. 16. 288. <
8567 3 -4 5 -11 1 147. 1. 222. <
8567 1 4 -5 11 -1 147. 1. 222. <
8568 3 3 -5 -11 1 177. 169. 267. <
8568 1 -3 5 11 -1 177. 169. 267. <
8569 3 -3 5 -11 -1 170. 164. 195. <
8569 1 3 -5 11 1 170. 164. 195. <
8570 4 3 5 11 0 1911. 1537. 264. o
8570 3 3 -5 -11 0 1911. 1537. 264. o
8570 2 -3 -5 -11 0 1911. 1537. 264. o
8570 1 -3 5 11 0 1911. 1537. 264. o
8571 4 -3 -5 11 0 1760. 962. 196. o
8571 3 -3 5 -11 0 1760. 962. 196. o
8571 2 3 5 -11 0 1760. 962. 196. o
8571 1 3 -5 11 0 1760. 962. 196. o
8572 3 3 -5 -11 -1 145. 23. 261. <
8572 1 -3 5 11 1 145. 23. 261. <
8573 3 -3 5 -11 1 138. 62. 198. <
8573 1 3 -5 11 -1 138. 62. 198. <
8574 3 -2 5 -11 -1 366. 250. 328. <
8574 1 2 -5 11 1 366. 250. 328. <
8575 4 -2 -5 11 0 21707. 21852. 330. o
8575 3 -2 5 -11 0 21707. 21852. 330. o
8575 2 2 5 -11 0 21707. 21852. 330. o
8575 1 2 -5 11 0 21707. 21852. 330. o
8576 3 -2 5 -11 1 663. 541. 333. <
8576 1 2 -5 11 -1 663. 541. 333. <
8577 3 1 -5 -11 1 533. 381. 270. <
8577 1 -1 5 11 -1 533. 381. 270. <
8578 4 1 5 11 0 6024. 6171. 267. o
8578 3 1 -5 -11 0 6024. 6171. 267. o
8578 2 -1 -5 -11 0 6024. 6171. 267. o
8578 1 -1 5 11 0 6024. 6171. 267. o
8579 3 1 -5 -11 -1 102. 2. 264. <
8579 1 -1 5 11 1 102. 2. 264. <
8580 3 0 -5 -11 1 612. 964. 794. <
8580 1 0 5 11 -1 612. 964. 794. <
8581 4 0 5 11 0 166680. 172936. 789. o
8581 3 0 -5 -11 0 166680. 172936. 789. o
8581 2 0 -5 -11 0 166680. 172936. 789. o
8581 1 0 5 11 0 166680. 172936. 789. o
8582 3 0 -5 -11 -1 129. 512. 783. <
8582 1 0 5 11 1 129. 512. 783. <
8583 3 -1 -5 -11 1 38. 36. 233. <
8583 1 1 5 11 -1 38. 36. 233. <
8584 4 -1 5 11 0 6104. 6108. 232. o
8584 3 -1 -5 -11 0 6104. 6108. 232. o
8584 2 1 -5 -11 0 6104. 6108. 232. o
8584 1 1 5 11 0 6104. 6108. 232. o
8585 3 -1 -5 -11 -1 129. 14. 231. <
8585 1 1 5 11 1 129. 14. 231. <
8586 3 -2 -5 -11 1 245. 74. 323. <
8586 1 2 5 11 -1 245. 74. 323. <
8587 4 -2 5 11 0 22674. 23217. 322. o
8587 3 -2 -5 -11 0 22674. 23217. 322. o
8587 2 2 -5 -11 0 22674. 23217. 322. o
8587 1 2 5 11 0 22674. 23217. 322. o
8588 3 -2 -5 -11 -1 689. 152. 320. <
8588 1 2 5 11 1 689. 152. 320. <
8589 3 -3 -5 -11 1 773. 862. 215. o
8589 1 3 5 11 -1 773. 862. 215. o
8590 4 -3 5 11 0 2019. 1700. 214. o
8590 3 -3 -5 -11 0 2019. 1700. 214. o
8590 2 3 -5 -11 0 2019. 1700. 214. o
8590 1 3 5 11 0 2019. 1700. 214. o
8591 3 -3 -5 -11 -1 393. 539. 213. o
8591 1 3 5 11 1 393. 539. 213. o
8592 3 -4 -5 -11 1 683. 605. 209. o
8592 1 4 5 11 -1 683. 605. 209. o
8593 4 -4 5 11 0 1732. 1535. 209. o
8593 3 -4 -5 -11 0 1732. 1535. 209. o
8593 2 4 -5 -11 0 1732. 1535. 209. o
8593 1 4 5 11 0 1732. 1535. 209. o
8594 3 -4 -5 -11 -1 1315. 1215. 209. o
8594 1 4 5 11 1 1315. 1215. 209. o
8595 3 -5 -5 -11 1 85. 36. 218. <
8595 1 5 5 11 -1 85. 36. 218. <
8596 4 -5 5 11 0 3217. 3552. 218. o
8596 3 -5 -5 -11 0 3217. 3552. 218. o
8596 2 5 -5 -11 0 3217. 3552. 218. o
8596 1 5 5 11 0 3217. 3552. 218. o
8597 3 -5 -5 -11 -1 33. -7. 217. <
8597 1 5 5 11 1 33. -7. 217. <
8598 3 -6 -5 -11 1 583. 433. 275. <
8598 1 6 5 11 -1 583. 433. 275. <
8599 4 -6 5 11 0 10821. 12095. 275. o
8599 3 -6 -5 -11 0 10821. 12095. 275. o
8599 2 6 -5 -11 0 10821. 12095. 275. o
8599 1 6 5 11 0 10821. 12095. 275. o
8600 3 -6 -5 -11 -1 157. 282. 275. <
8600 1 6 5 11 1 157. 282. 275. <
8601 3 -7 -5 -11 1 396. 388. 261. <
8601 1 7 5 11 -1 396. 388. 261. <
8602 4 -7 5 11 0 9101. 8836. 261. o
8602 3 -7 -5 -11 0 9101. 8836. 261. o
8602 2 7 -5 -11 0 9101. 8836. 261. o
8602 1 7 5 11 0 9101. 8836. 261. o
8603 3 -7 -5 -11 -1 210. 220. 261. <
8603 1 7 5 11 1 210. 220. 261. <
8604 3 6 -6 -11 1 8. 113. 326. <
8604 1 -6 6 11 -1 8. 113. 326. <
8605 4 6 6 11 0 920. 892. 331. o
8605 3 6 -6 -11 0 920. 892. 331. o
8605 2 -6 -6 -11 0 920. 892. 331. o
8605 1 -6 6 11 0 920. 892. 331. o
8606 3 6 -6 -11 -1 125. 144. 336. <
8606 1 -6 6 11 1 125. 144. 336. <
8607 3 -5 6 -11 -1 117. 3413. 308. o
8607 1 5 -6 11 1 117. 3413. 308. o
8608 4 -5 -6 11 0 10338. 3432. 310. o
8608 3 -5 6 -11 0 10338. 3432. 310. o
8608 2 5 6 -11 0 10338. 3432. 310. o
8608 1 5 -6 11 0 10338. 3432. 310. o
8609 3 -5 6 -11 1 97. 3451. 312. o
8609 1 5 -6 11 -1 97. 3451. 312. o
8610 3 -4 6 -11 -1 170. -22. 280. <
8610 1 4 -6 11 1 170. -22. 280. <
8611 4 -4 -6 11 0 8118. 8017. 281. o
8611 3 -4 6 -11 0 8118. 8017. 281. o
8611 2 4 6 -11 0 8118. 8017. 281. o
8611 1 4 -6 11 0 8118. 8017. 281. o
8612 3 -4 6 -11 1 908. 771. 283. o
8612 1 4 -6 11 -1 908. 771. 283. o
8613 3 3 -6 -11 1 17. 94. 439. <
8613 1 -3 6 11 -1 17. 94. 439. <
8614 3 -3 6 -11 -1 16. 16. 352. <
8614 1 3 -6 11 1 16. 16. 352. <
8615 4 3 6 11 0 24830. 25173. 434. o
8615 3 3 -6 -11 0 24830. 25173. 434. o
8615 2 -3 -6 -11 0 24830. 25173. 434. o
8615 1 -3 6 11 0 24830. 25173. 434. o
8616 4 -3 -6 11 0 25280. 24104. 354. o
8616 3 -3 6 -11 0 25280. 24104. 354. o
8616 2 3 6 -11 0 25280. 24104. 354. o
8616 1 3 -6 11 0 25280. 24104. 354. o
8617 3 3 -6 -11 -1 39. 105. 429. <
8617 1 -3 6 11 1 39. 105. 429. <
8618 3 -3 6 -11 1 35. -8. 357. <
8618 1 3 -6 11 -1 35. -8. 357. <
8619 3 2 -6 -11 1 536. 76. 329. <
8619 1 -2 6 11 -1 536. 76. 329. <
8620 4 2 6 11 0 8649. 9254. 326. o
8620 3 2 -6 -11 0 8649. 9254. 326. o
8620 2 -2 -6 -11 0 8649. 9254. 326. o
8620 1 -2 6 11 0 8649. 9254. 326. o
8621 3 2 -6 -11 -1 246. 157. 323. <
8621 1 -2 6 11 1 246. 157. 323. <
8622 3 1 -6 -11 1 766. 553. 329. <
8622 1 -1 6 11 -1 766. 553. 329. <
8623 4 1 6 11 0 14865. 14808. 326. o
8623 3 1 -6 -11 0 14865. 14808. 326. o
8623 2 -1 -6 -11 0 14865. 14808. 326. o
8623 1 -1 6 11 0 14865. 14808. 326. o
8624 3 1 -6 -11 -1 385. 334. 322. <
8624 1 -1 6 11 1 385. 334. 322. <
8625 3 0 -6 -11 1 814. 720. 231. o
8625 1 0 6 11 -1 814. 720. 231. o
8626 4 0 6 11 0 2358. 1738. 229. o
8626 3 0 -6 -11 0 2358. 1738. 229. o
8626 2 0 -6 -11 0 2358. 1738. 229. o
8626 1 0 6 11 0 2358. 1738. 229. o
8627 3 0 -6 -11 -1 1203. 1184. 228. o
8627 1 0 6 11 1 1203. 1184. 228. o
8628 3 -1 -6 -11 1 180. 195. 313. <
8628 1 1 6 11 -1 180. 195. 313. <
8629 4 -1 6 11 0 14775. 15136. 311. o
8629 3 -1 -6 -11 0 14775. 15136. 311. o
8629 2 1 -6 -11 0 14775. 15136. 311. o
8629 1 1 6 11 0 14775. 15136. 311. o
8630 3 -1 -6 -11 -1 331. 200. 309. <
8630 1 1 6 11 1 331. 200. 309. <
8631 3 -2 -6 -11 1 412. 425. 275. <
8631 1 2 6 11 -1 412. 425. 275. <
8632 4 -2 6 11 0 8379. 9157. 273. o
8632 3 -2 -6 -11 0 8379. 9157. 273. o
8632 2 2 -6 -11 0 8379. 9157. 273. o
8632 1 2 6 11 0 8379. 9157. 273. o
8633 3 -2 -6 -11 -1 406. 360. 272. <
8633 1 2 6 11 1 406. 360. 272. <
8634 3 -3 -6 -11 1 173. 212. 355. <
8634 1 3 6 11 -1 173. 212. 355. <
8635 4 -3 6 11 0 24858. 26443. 354. o
8635 3 -3 -6 -11 0 24858. 26443. 354. o
8635 2 3 -6 -11 0 24858. 26443. 354. o
8635 1 3 6 11 0 24858. 26443. 354. o
8636 3 -3 -6 -11 -1 265. 342. 353. <
8636 1 3 6 11 1 265. 342. 353. <
8637 3 -4 -6 -11 1 386. 145. 269. <
8637 1 4 6 11 -1 386. 145. 269. <
8638 4 -4 6 11 0 8436. 8876. 268. o
8638 3 -4 -6 -11 0 8436. 8876. 268. o
8638 2 4 -6 -11 0 8436. 8876. 268. o
8638 1 4 6 11 0 8436. 8876. 268. o
8639 3 -4 -6 -11 -1 491. 610. 268. o
8639 1 4 6 11 1 491. 610. 268. o
8640 3 -5 -6 -11 1 546. 371. 281. <
8640 1 5 6 11 -1 546. 371. 281. <
8641 4 -5 6 11 0 10238. 11774. 281. o
8641 3 -5 -6 -11 0 10238. 11774. 281. o
8641 2 5 -6 -11 0 10238. 11774. 281. o
8641 1 5 6 11 0 10238. 11774. 281. o
8642 3 -5 -6 -11 -1 327. 203. 281. <
8642 1 5 6 11 1 327. 203. 281. <
8643 3 -6 -6 -11 1 27. -37. 211. <
8643 1 6 6 11 -1 27. -37. 211. <
8644 4 -6 6 11 0 921. 932. 211. o
8644 3 -6 -6 -11 0 921. 932. 211. o
8644 2 6 -6 -11 0 921. 932. 211. o
8644 1 6 6 11 0 921. 932. 211. o
8645 3 -6 -6 -11 -1 216. 9. 210. <
8645 1 6 6 11 1 216. 9. 210. <
8646 3 -4 7 -11 -1 233. 105. 226. <
8646 1 4 -7 11 1 233. 105. 226. <
8647 4 -4 -7 11 0 749. 838. 227. o
8647 3 -4 7 -11 0 749. 838. 227. o
8647 2 4 7 -11 0 749. 838. 227. o
8647 1 4 -7 11 0 749. 838. 227. o
8648 3 -4 7 -11 1 888. 634. 228. o
8648 1 4 -7 11 -1 888. 634. 228. o
8649 3 2 -7 -11 1 66. 24. 327. <
8649 1 -2 7 11 -1 66. 24. 327. <
8650 4 2 7 11 0 6811. 7448. 324. o
8650 3 2 -7 -11 0 6811. 7448. 324. o
8650 2 -2 -7 -11 0 6811. 7448. 324. o
8650 1 -2 7 11 0 6811. 7448. 324. o
8651 3 2 -7 -11 -1 193. 8. 321. <
8651 1 -2 7 11 1 193. 8. 321. <
8652 3 1 -7 -11 1 604. 592. 522. <
8652 1 -1 7 11 -1 604. 592. 522. <
8653 4 1 7 11 0 46834. 50578. 517. o
8653 3 1 -7 -11 0 46834. 50578. 517. o
8653 2 -1 -7 -11 0 46834. 50578. 517. o
8653 1 -1 7 11 0 46834. 50578. 517. o
8654 3 1 -7 -11 -1 340. 413. 512. <
8654 1 -1 7 11 1 340. 413. 512. <
8655 3 0 -7 -11 1 157. 59. 255. <
8655 1 0 7 11 -1 157. 59. 255. <
8656 4 0 7 11 0 3873. 4744. 253. o
8656 3 0 -7 -11 0 3873. 4744. 253. o
8656 2 0 -7 -11 0 3873. 4744. 253. o
8656 1 0 7 11 0 3873. 4744. 253. o
8657 3 0 -7 -11 -1 560. 287. 251. <
8657 1 0 7 11 1 560. 287. 251. <
8658 3 -1 -7 -11 1 729. 792. 487. <
8658 1 1 7 11 -1 729. 792. 487. <
8659 4 -1 7 11 0 46538. 50233. 485. o
8659 3 -1 -7 -11 0 46538. 50233. 485. o
8659 2 1 -7 -11 0 46538. 50233. 485. o
8659 1 1 7 11 0 46538. 50233. 485. o
8660 3 -1 -7 -11 -1 419. 303. 482. <
8660 1 1 7 11 1 419. 303. 482. <
8661 3 -2 -7 -11 1 170. 82. 268. <
8661 1 2 7 11 -1 170. 82. 268. <
8662 4 -2 7 11 0 6857. 7804. 267. o
8662 3 -2 -7 -11 0 6857. 7804. 267. o
8662 2 2 -7 -11 0 6857. 7804. 267. o
8662 1 2 7 11 0 6857. 7804. 267. o
8663 3 -2 -7 -11 -1 161. 30. 267. <
8663 1 2 7 11 1 161. 30. 267. <
8664 3 -3 -7 -11 1 63. 102. 222. <
8664 1 3 7 11 -1 63. 102. 222. <
8665 4 -3 7 11 0 942. 1278. 221. o
8665 3 -3 -7 -11 0 942. 1278. 221. o
8665 2 3 -7 -11 0 942. 1278. 221. o
8665 1 3 7 11 0 942. 1278. 221. o
8666 3 -3 -7 -11 -1 48. -26. 220. <
8666 1 3 7 11 1 48. -26. 220. <
8667 3 -4 -7 -11 1 205. 348. 225. <
8667 1 4 7 11 -1 205. 348. 225. <
8668 4 -4 7 11 0 793. 893. 225. o
8668 3 -4 -7 -11 0 793. 893. 225. o
8668 2 4 -7 -11 0 793. 893. 225. o
8668 1 4 7 11 0 793. 893. 225. o
8669 3 -4 -7 -11 -1 14. -23. 225. <
8669 1 4 7 11 1 14. -23. 225. <
8670 3 -5 -7 -11 1 329. 362. 278. <
8670 1 5 7 11 -1 329. 362. 278. <
8671 4 -5 7 11 0 9137. 8995. 278. o
8671 3 -5 -7 -11 0 9137. 8995. 278. o
8671 2 5 -7 -11 0 9137. 8995. 278. o
8671 1 5 7 11 0 9137. 8995. 278. o
8672 3 -5 -7 -11 -1 175. 319. 278. <
8672 1 5 7 11 1 175. 319. 278. <
8673 3 3 -8 -11 1 224. 186. 584. <
8673 1 -3 8 11 -1 224. 186. 584. <
8674 4 3 8 11 0 49618. 50368. 578. o
8674 3 3 -8 -11 0 49618. 50368. 578. o
8674 2 -3 -8 -11 0 49618. 50368. 578. o
8674 1 -3 8 11 0 49618. 50368. 578. o
8675 3 3 -8 -11 -1 169. 274. 573. <
8675 1 -3 8 11 1 169. 274. 573. <
8676 3 2 -8 -11 1 602. 736. 321. o
8676 1 -2 8 11 -1 602. 736. 321. o
8677 4 2 8 11 0 8649. 8440. 318. o
8677 3 2 -8 -11 0 8649. 8440. 318. o
8677 2 -2 -8 -11 0 8649. 8440. 318. o
8677 1 -2 8 11 0 8649. 8440. 318. o
8678 3 2 -8 -11 -1 525. 110. 316. <
8678 1 -2 8 11 1 525. 110. 316. <
8679 3 1 -8 -11 1 82. 26. 343. <
8679 1 -1 8 11 -1 82. 26. 343. <
8680 4 1 8 11 0 8838. 9402. 340. o
8680 3 1 -8 -11 0 8838. 9402. 340. o
8680 2 -1 -8 -11 0 8838. 9402. 340. o
8680 1 -1 8 11 0 8838. 9402. 340. o
8681 3 1 -8 -11 -1 958. 732. 339. o
8681 1 -1 8 11 1 958. 732. 339. o
8682 3 0 -8 -11 1 749. 917. 281. o
8682 1 0 8 11 -1 749. 917. 281. o
8683 4 0 8 11 0 1524. 1274. 279. o
8683 3 0 -8 -11 0 1524. 1274. 279. o
8683 2 0 -8 -11 0 1524. 1274. 279. o
8683 1 0 8 11 0 1524. 1274. 279. o
8684 3 0 -8 -11 -1 696. 575. 278. o
8684 1 0 8 11 1 696. 575. 278. o
8685 3 -1 -8 -11 1 44. 67. 308. <
8685 1 1 8 11 -1 44. 67. 308. <
8686 4 -1 8 11 0 8637. 9218. 306. o
8686 3 -1 -8 -11 0 8637. 9218. 306. o
8686 2 1 -8 -11 0 8637. 9218. 306. o
8686 1 1 8 11 0 8637. 9218. 306. o
8687 3 -1 -8 -11 -1 229. 254. 305. <
8687 1 1 8 11 1 229. 254. 305. <
8688 3 -2 -8 -11 1 531. 283. 303. <
8688 1 2 8 11 -1 531. 283. 303. <
8689 4 -2 8 11 0 8623. 9835. 302. o
8689 3 -2 -8 -11 0 8623. 9835. 302. o
8689 2 2 -8 -11 0 8623. 9835. 302. o
8689 1 2 8 11 0 8623. 9835. 302. o
8690 3 -2 -8 -11 -1 36. 92. 301. <
8690 1 2 8 11 1 36. 92. 301. <
8691 3 -3 -8 -11 1 33. 305. 512. <
8691 1 3 8 11 -1 33. 305. 512. <
8692 4 -3 8 11 0 50287. 56554. 511. o
8692 3 -3 -8 -11 0 50287. 56554. 511. o
8692 2 3 -8 -11 0 50287. 56554. 511. o
8692 1 3 8 11 0 50287. 56554. 511. o
8693 3 -3 -8 -11 -1 359. 185. 510. <
8693 1 3 8 11 1 359. 185. 510. <
8694 3 -4 -8 -11 1 175. 266. 137. <
8694 1 4 8 11 -1 175. 266. 137. <
8695 4 0 0 12 0 136450. 127755. 640. o
8695 3 0 0 -12 0 136450. 127755. 640. o
8695 2 0 0 -12 0 136450. 127755. 640. o
8695 1 0 0 12 0 136450. 127755. 640. o
8696 3 0 0 -12 -1 8. 275. 634. <
8696 1 0 0 12 1 8. 275. 634. <
8697 3 0 0 -12 1 8. 211. 645. <
8697 1 0 0 12 -1 8. 211. 645. <
8698 3 -1 0 -12 1 29. -4. 184. <
8698 1 1 0 12 -1 29. -4. 184. <
8699 3 1 0 -12 -1 25. 64. 189. <
8699 1 -1 0 12 1 25. 64. 189. <
8700 4 -1 0 12 0 63. 430. 183. o
8700 3 -1 0 -12 0 63. 430. 183. o
8700 2 1 0 -12 0 63. 430. 183. o
8700 1 1 0 12 0 63. 430. 183. o
8701 4 1 0 12 0 60. 113. 191. <
8701 3 1 0 -12 0 60. 113. 191. <
8701 2 -1 0 -12 0 60. 113. 191. <
8701 1 -1 0 12 0 60. 113. 191. <
8702 3 -1 0 -12 -1 5. 17. 182. <
8702 1 1 0 12 1 5. 17. 182. <
8703 3 1 0 -12 1 6. -16. 193. <
8703 1 -1 0 12 -1 6. -16. 193. <
8704 3 -2 0 -12 1 609. 440. 276. <
8704 1 2 0 12 -1 609. 440. 276. <
8705 3 2 0 -12 -1 624. 415. 290. <
8705 1 -2 0 12 1 624. 415. 290. <
8706 4 -2 0 12 0 14404. 14154. 274. o
8706 3 -2 0 -12 0 14404. 14154. 274. o
8706 2 2 0 -12 0 14404. 14154. 274. o
8706 1 2 0 12 0 14404. 14154. 274. o
8707 4 2 0 12 0 14418. 13900. 295. o
8707 3 2 0 -12 0 14418. 13900. 295. o
8707 2 -2 0 -12 0 14418. 13900. 295. o
8707 1 -2 0 12 0 14418. 13900. 295. o
8708 3 -2 0 -12 -1 192. 141. 273. <
8708 1 2 0 12 1 192. 141. 273. <
8709 3 2 0 -12 1 203. 176. 299. <
8709 1 -2 0 12 -1 203. 176. 299. <
8710 3 -3 0 -12 1 113. 136. 178. <
8710 1 3 0 12 -1 113. 136. 178. <
8711 4 -3 0 12 0 823. 638. 178. o
8711 3 -3 0 -12 0 823. 638. 178. o
8711 2 3 0 -12 0 823. 638. 178. o
8711 1 3 0 12 0 823. 638. 178. o
8712 3 -3 0 -12 -1 139. 97. 177. <
8712 1 3 0 12 1 139. 97. 177. <
8713 3 -4 0 -12 1 233. 87. 187. <
8713 1 4 0 12 -1 233. 87. 187. <
8714 4 -4 0 12 0 88. 327. 185. <
8714 3 -4 0 -12 0 88. 327. 185. <
8714 2 4 0 -12 0 88. 327. 185. <
8714 1 4 0 12 0 88. 327. 185. <
8715 3 -4 0 -12 -1 31. 34. 184. <
8715 1 4 0 12 1 31. 34. 184. <
8716 3 -5 0 -12 1 224. 209. 230. <
8716 1 5 0 12 -1 224. 209. 230. <
8717 4 -5 0 12 0 2397. 1576. 229. o
8717 3 -5 0 -12 0 2397. 1576. 229. o
8717 2 5 0 -12 0 2397. 1576. 229. o
8717 1 5 0 12 0 2397. 1576. 229. o
8718 3 -5 0 -12 -1 272. 249. 227. <
8718 1 5 0 12 1 272. 249. 227. <
8719 3 -6 0 -12 1 347. 337. 545. <
8719 1 6 0 12 -1 347. 337. 545. <
8720 4 -6 0 12 0 72493. 72701. 542. o
8720 3 -6 0 -12 0 72493. 72701. 542. o
8720 2 6 0 -12 0 72493. 72701. 542. o
8720 1 6 0 12 0 72493. 72701. 542. o
8721 3 -6 0 -12 -1 398. 259. 539. <
8721 1 6 0 12 1 398. 259. 539. <
8722 3 -7 0 -12 1 275. 365. 249. <
8722 1 7 0 12 -1 275. 365. 249. <
8723 4 -7 0 12 0 1827. 1085. 247. o
8723 3 -7 0 -12 0 1827. 1085. 247. o
8723 2 7 0 -12 0 1827. 1085. 247. o
8723 1 7 0 12 0 1827. 1085. 247. o
8724 3 -7 0 -12 -1 303. 387. 246. <
8724 1 7 0 12 1 303. 387. 246. <
8725 3 -7 1 -12 -1 161. 68. 362. <
8725 1 7 -1 12 1 161. 68. 362. <
8726 4 -7 -1 12 0 19774. 20321. 364. o
8726 3 -7 1 -12 0 19774. 20321. 364. o
8726 2 7 1 -12 0 19774. 20321. 364. o
8726 1 7 -1 12 0 19774. 20321. 364. o
8727 3 -7 1 -12 1 67. 61. 367. <
8727 1 7 -1 12 -1 67. 61. 367. <
8728 3 -6 1 -12 -1 58. 126. 367. <
8728 1 6 -1 12 1 58. 126. 367. <
8729 4 -6 -1 12 0 25663. 25094. 370. o
8729 3 -6 1 -12 0 25663. 25094. 370. o
8729 2 6 1 -12 0 25663. 25094. 370. o
8729 1 6 -1 12 0 25663. 25094. 370. o
8730 3 -6 1 -12 1 127. 122. 373. <
8730 1 6 -1 12 -1 127. 122. 373. <
8731 3 -5 1 -12 -1 274. 289. 372. <
8731 1 5 -1 12 1 274. 289. 372. <
8732 4 -5 -1 12 0 27836. 28576. 375. o
8732 3 -5 1 -12 0 27836. 28576. 375. o
8732 2 5 1 -12 0 27836. 28576. 375. o
8732 1 5 -1 12 0 27836. 28576. 375. o
8733 3 -5 1 -12 1 123. 150. 377. <
8733 1 5 -1 12 -1 123. 150. 377. <
8734 3 -4 1 -12 -1 29. 61. 229. <
8734 1 4 -1 12 1 29. 61. 229. <
8735 4 -4 -1 12 0 4098. 3775. 231. o
8735 3 -4 1 -12 0 4098. 3775. 231. o
8735 2 4 1 -12 0 4098. 3775. 231. o
8735 1 4 -1 12 0 4098. 3775. 231. o
8736 3 -4 1 -12 1 48. -10. 232. <
8736 1 4 -1 12 -1 48. -10. 232. <
8737 3 -3 1 -12 -1 17. 10. 339. <
8737 1 3 -1 12 1 17. 10. 339. <
8738 4 -3 -1 12 0 29360. 27925. 341. o
8738 3 -3 1 -12 0 29360. 27925. 341. o
8738 2 3 1 -12 0 29360. 27925. 341. o
8738 1 3 -1 12 0 29360. 27925. 341. o
8739 3 -3 1 -12 1 147. 130. 344. <
8739 1 3 -1 12 -1 147. 130. 344. <
8740 3 2 -1 -12 1 217. 188. 485. <
8740 1 -2 1 12 -1 217. 188. 485. <
8741 3 -2 1 -12 -1 224. 308. 433. <
8741 1 2 -1 12 1 224. 308. 433. <
8742 4 2 1 12 0 57239. 54578. 477. o
8742 3 2 -1 -12 0 57239. 54578. 477. o
8742 2 -2 -1 -12 0 57239. 54578. 477. o
8742 1 -2 1 12 0 57239. 54578. 477. o
8743 4 -2 -1 12 0 57290. 55156. 435. o
8743 3 -2 1 -12 0 57290. 55156. 435. o
8743 2 2 1 -12 0 57290. 55156. 435. o
8743 1 2 -1 12 0 57290. 55156. 435. o
8744 3 2 -1 -12 -1 65. 198. 471. <
8744 1 -2 1 12 1 65. 198. 471. <
8745 3 -2 1 -12 1 67. 136. 438. <
8745 1 2 -1 12 -1 67. 136. 438. <
8746 3 -1 1 -12 -1 176. 138. 342. <
8746 1 1 -1 12 1 176. 138. 342. <
8747 4 -1 -1 12 0 32497. 30070. 345. o
8747 3 -1 1 -12 0 32497. 30070. 345. o
8747 2 1 1 -12 0 32497. 30070. 345. o
8747 1 1 -1 12 0 32497. 30070. 345. o
8748 3 -1 1 -12 1 244. 165. 348. <
8748 1 1 -1 12 -1 244. 165. 348. <
8749 3 0 -1 -12 1 30. 1. 181. <
8749 1 0 1 12 -1 30. 1. 181. <
8750 4 0 1 12 0 221. 820. 179. o
8750 3 0 -1 -12 0 221. 820. 179. o
8750 2 0 -1 -12 0 221. 820. 179. o
8750 1 0 1 12 0 221. 820. 179. o
8751 3 0 -1 -12 -1 5. -21. 178. <
8751 1 0 1 12 1 5. -21. 178. <
8752 3 -1 -1 -12 1 6. 85. 352. <
8752 1 1 1 12 -1 6. 85. 352. <
8753 3 1 1 -12 -1 5. 43. 344. <
8753 1 -1 -1 12 1 5. 43. 344. <
8754 4 -1 1 12 0 31675. 30145. 349. o
8754 3 -1 -1 -12 0 31675. 30145. 349. o
8754 2 1 -1 -12 0 31675. 30145. 349. o
8754 1 1 1 12 0 31675. 30145. 349. o
8755 4 1 -1 12 0 31473. 29416. 348. o
8755 3 1 1 -12 0 31473. 29416. 348. o
8755 2 -1 1 -12 0 31473. 29416. 348. o
8755 1 -1 -1 12 0 31473. 29416. 348. o
8756 3 -1 -1 -12 -1 29. 28. 347. <
8756 1 1 1 12 1 29. 28. 347. <
8757 3 1 1 -12 1 29. 78. 352. <
8757 1 -1 -1 12 -1 29. 78. 352. <
8758 3 -2 -1 -12 1 276. 384. 442. <
8758 1 2 1 12 -1 276. 384. 442. <
8759 4 -2 1 12 0 57189. 55491. 440. o
8759 3 -2 -1 -12 0 57189. 55491. 440. o
8759 2 2 -1 -12 0 57189. 55491. 440. o
8759 1 2 1 12 0 57189. 55491. 440. o
8760 3 -2 -1 -12 -1 394. 500. 437. <
8760 1 2 1 12 1 394. 500. 437. <
8761 3 -3 -1 -12 1 56. 93. 337. <
8761 1 3 1 12 -1 56. 93. 337. <
8762 4 -3 1 12 0 28784. 28011. 335. o
8762 3 -3 -1 -12 0 28784. 28011. 335. o
8762 2 3 -1 -12 0 28784. 28011. 335. o
8762 1 3 1 12 0 28784. 28011. 335. o
8763 3 -3 -1 -12 -1 257. 153. 333. <
8763 1 3 1 12 1 257. 153. 333. <
8764 3 -4 -1 -12 1 226. 151. 218. <
8764 1 4 1 12 -1 226. 151. 218. <
8765 4 -4 1 12 0 4815. 4099. 217. o
8765 3 -4 -1 -12 0 4815. 4099. 217. o
8765 2 4 -1 -12 0 4815. 4099. 217. o
8765 1 4 1 12 0 4815. 4099. 217. o
8766 3 -4 -1 -12 -1 76. 22. 216. <
8766 1 4 1 12 1 76. 22. 216. <
8767 3 -5 -1 -12 1 271. 275. 355. <
8767 1 5 1 12 -1 271. 275. 355. <
8768 4 -5 1 12 0 28402. 27752. 353. o
8768 3 -5 -1 -12 0 28402. 27752. 353. o
8768 2 5 -1 -12 0 28402. 27752. 353. o
8768 1 5 1 12 0 28402. 27752. 353. o
8769 3 -5 -1 -12 -1 276. 221. 352. <
8769 1 5 1 12 1 276. 221. 352. <
8770 3 -6 -1 -12 1 6. 57. 362. <
8770 1 6 1 12 -1 6. 57. 362. <
8771 4 -6 1 12 0 25689. 24966. 360. o
8771 3 -6 -1 -12 0 25689. 24966. 360. o
8771 2 6 -1 -12 0 25689. 24966. 360. o
8771 1 6 1 12 0 25689. 24966. 360. o
8772 3 -6 -1 -12 -1 303. 204. 359. <
8772 1 6 1 12 1 303. 204. 359. <
8773 3 -7 -1 -12 1 29. -19. 348. <
8773 1 7 1 12 -1 29. -19. 348. <
8774 4 -7 1 12 0 20219. 20328. 346. o
8774 3 -7 -1 -12 0 20219. 20328. 346. o
8774 2 7 -1 -12 0 20219. 20328. 346. o
8774 1 7 1 12 0 20219. 20328. 346. o
8775 3 -7 -1 -12 -1 183. 95. 345. <
8775 1 7 1 12 1 183. 95. 345. <
8776 3 -7 2 -12 -1 357. 401. 335. <
8776 1 7 -2 12 1 357. 401. 335. <
8777 4 -7 -2 12 0 12254. 12234. 337. o
8777 3 -7 2 -12 0 12254. 12234. 337. o
8777 2 7 2 -12 0 12254. 12234. 337. o
8777 1 7 -2 12 0 12254. 12234. 337. o
8778 3 -7 2 -12 1 755. 757. 338. o
8778 1 7 -2 12 -1 755. 757. 338. o
8779 3 -6 2 -12 -1 23. 19. 334. <
8779 1 6 -2 12 1 23. 19. 334. <
8780 4 -6 -2 12 0 15730. 15599. 336. o
8780 3 -6 2 -12 0 15730. 15599. 336. o
8780 2 6 2 -12 0 15730. 15599. 336. o
8780 1 6 -2 12 0 15730. 15599. 336. o
8781 3 -6 2 -12 1 80. 79. 339. <
8781 1 6 -2 12 -1 80. 79. 339. <
8782 3 -5 2 -12 -1 88. 46. 309. <
8782 1 5 -2 12 1 88. 46. 309. <
8783 4 -5 -2 12 0 13992. 13881. 312. o
8783 3 -5 2 -12 0 13992. 13881. 312. o
8783 2 5 2 -12 0 13992. 13881. 312. o
8783 1 5 -2 12 0 13992. 13881. 312. o
8784 3 -5 2 -12 1 62. 73. 314. <
8784 1 5 -2 12 -1 62. 73. 314. <
8785 3 -4 2 -12 -1 113. 96. 227. <
8785 1 4 -2 12 1 113. 96. 227. <
8786 4 -4 -2 12 0 4474. 4671. 229. o
8786 3 -4 2 -12 0 4474. 4671. 229. o
8786 2 4 2 -12 0 4474. 4671. 229. o
8786 1 4 -2 12 0 4474. 4671. 229. o
8787 3 -4 2 -12 1 28. 81. 230. <
8787 1 4 -2 12 -1 28. 81. 230. <
8788 3 3 -2 -12 1 113. 15. 270. <
8788 1 -3 2 12 -1 113. 15. 270. <
8789 3 -3 2 -12 -1 111. 110. 231. <
8789 1 3 -2 12 1 111. 110. 231. <
8790 4 3 2 12 0 4941. 4704. 266. o
8790 3 3 -2 -12 0 4941. 4704. 266. o
8790 2 -3 -2 -12 0 4941. 4704. 266. o
8790 1 -3 2 12 0 4941. 4704. 266. o
8791 4 -3 -2 12 0 4819. 4818. 233. o
8791 3 -3 2 -12 0 4819. 4818. 233. o
8791 2 3 2 -12 0 4819. 4818. 233. o
8791 1 3 -2 12 0 4819. 4818. 233. o
8792 3 3 -2 -12 -1 78. 99. 261. <
8792 1 -3 2 12 1 78. 99. 261. <
8793 3 -3 2 -12 1 75. 114. 235. <
8793 1 3 -2 12 -1 75. 114. 235. <
8794 3 2 -2 -12 1 67. 310. 854. <
8794 1 -2 2 12 -1 67. 310. 854. <
8795 3 -2 2 -12 -1 66. 300. 771. <
8795 1 2 -2 12 1 66. 300. 771. <
8796 4 2 2 12 0 194604. 185789. 841. o
8796 3 2 -2 -12 0 194604. 185789. 841. o
8796 2 -2 -2 -12 0 194604. 185789. 841. o
8796 1 -2 2 12 0 194604. 185789. 841. o
8797 4 -2 -2 12 0 194845. 187558. 778. o
8797 3 -2 2 -12 0 194845. 187558. 778. o
8797 2 2 2 -12 0 194845. 187558. 778. o
8797 1 2 -2 12 0 194845. 187558. 778. o
8798 3 2 -2 -12 -1 123. 507. 829. <
8798 1 -2 2 12 1 123. 507. 829. <
8799 3 -2 2 -12 1 120. 245. 784. <
8799 1 2 -2 12 -1 120. 245. 784. <
8800 3 1 -2 -12 1 96. 107. 475. <
8800 1 -1 2 12 -1 96. 107. 475. <
8801 3 -1 2 -12 -1 95. 181. 433. <
8801 1 1 -2 12 1 95. 181. 433. <
8802 4 1 2 12 0 57424. 55059. 470. o
8802 3 1 -2 -12 0 57424. 55059. 470. o
8802 2 -1 -2 -12 0 57424. 55059. 470. o
8802 1 -1 2 12 0 57424. 55059. 470. o
8803 4 -1 -2 12 0 57744. 54104. 436. o
8803 3 -1 2 -12 0 57744. 54104. 436. o
8803 2 1 2 -12 0 57744. 54104. 436. o
8803 1 1 -2 12 0 57744. 54104. 436. o
8804 3 1 -2 -12 -1 339. 231. 465. <
8804 1 -1 2 12 1 339. 231. 465. <
8805 3 -1 2 -12 1 348. 253. 439. <
8805 1 1 -2 12 -1 348. 253. 439. <
8806 3 0 -2 -12 1 529. 346. 282. <
8806 1 0 2 12 -1 529. 346. 282. <
8807 4 0 2 12 0 15564. 14470. 279. o
8807 3 0 -2 -12 0 15564. 14470. 279. o
8807 2 0 -2 -12 0 15564. 14470. 279. o
8807 1 0 2 12 0 15564. 14470. 279. o
8808 3 0 -2 -12 -1 95. 124. 277. <
8808 1 0 2 12 1 95. 124. 277. <
8809 3 -1 -2 -12 1 355. 374. 458. <
8809 1 1 2 12 -1 355. 374. 458. <
8810 4 -1 2 12 0 57712. 55648. 455. o
8810 3 -1 -2 -12 0 57712. 55648. 455. o
8810 2 1 -2 -12 0 57712. 55648. 455. o
8810 1 1 2 12 0 57712. 55648. 455. o
8811 3 -1 -2 -12 -1 445. 401. 452. <
8811 1 1 2 12 1 445. 401. 452. <
8812 3 -2 -2 -12 1 117. 645. 780. <
8812 1 2 2 12 -1 117. 645. 780. <
8813 4 -2 2 12 0 194467. 188255. 776. o
8813 3 -2 -2 -12 0 194467. 188255. 776. o
8813 2 2 -2 -12 0 194467. 188255. 776. o
8813 1 2 2 12 0 194467. 188255. 776. o
8814 3 -2 -2 -12 -1 3. 419. 772. <
8814 1 2 2 12 1 3. 419. 772. <
8815 3 -3 -2 -12 1 57. 79. 224. <
8815 1 3 2 12 -1 57. 79. 224. <
8816 4 -3 2 12 0 4893. 4848. 223. o
8816 3 -3 -2 -12 0 4893. 4848. 223. o
8816 2 3 -2 -12 0 4893. 4848. 223. o
8816 1 3 2 12 0 4893. 4848. 223. o
8817 3 -3 -2 -12 -1 61. 79. 222. <
8817 1 3 2 12 1 61. 79. 222. <
8818 3 -4 -2 -12 1 44. 1. 221. <
8818 1 4 2 12 -1 44. 1. 221. <
8819 4 -4 2 12 0 4609. 4394. 221. o
8819 3 -4 -2 -12 0 4609. 4394. 221. o
8819 2 4 -2 -12 0 4609. 4394. 221. o
8819 1 4 2 12 0 4609. 4394. 221. o
8820 3 -4 -2 -12 -1 70. 68. 220. <
8820 1 4 2 12 1 70. 68. 220. <
8821 3 -5 -2 -12 1 53. 31. 283. <
8821 1 5 2 12 -1 53. 31. 283. <
8822 4 -5 2 12 0 14314. 13698. 282. o
8822 3 -5 -2 -12 0 14314. 13698. 282. o
8822 2 5 -2 -12 0 14314. 13698. 282. o
8822 1 5 2 12 0 14314. 13698. 282. o
8823 3 -5 -2 -12 -1 12. 40. 281. <
8823 1 5 2 12 1 12. 40. 281. <
8824 3 -6 -2 -12 1 65. 213. 298. <
8824 1 6 2 12 -1 65. 213. 298. <
8825 4 -6 2 12 0 15932. 15310. 297. o
8825 3 -6 -2 -12 0 15932. 15310. 297. o
8825 2 6 -2 -12 0 15932. 15310. 297. o
8825 1 6 2 12 0 15932. 15310. 297. o
8826 3 -6 -2 -12 -1 61. 21. 296. <
8826 1 6 2 12 1 61. 21. 296. <
8827 3 -7 -2 -12 1 207. 336. 259. <
8827 1 7 2 12 -1 207. 336. 259. <
8828 4 -7 2 12 0 11559. 11320. 259. o
8828 3 -7 -2 -12 0 11559. 11320. 259. o
8828 2 7 -2 -12 0 11559. 11320. 259. o
8828 1 7 2 12 0 11559. 11320. 259. o
8829 3 -6 3 -12 -1 104. 274. 465. <
8829 1 6 -3 12 1 104. 274. 465. <
8830 4 -6 -3 12 0 39109. 40223. 467. o
8830 3 -6 3 -12 0 39109. 40223. 467. o
8830 2 6 3 -12 0 39109. 40223. 467. o
8830 1 6 -3 12 0 39109. 40223. 467. o
8831 3 -6 3 -12 1 349. 486. 469. <
8831 1 6 -3 12 -1 349. 486. 469. <
8832 3 -5 3 -12 -1 43. 120. 413. <
8832 1 5 -3 12 1 43. 120. 413. <
8833 4 -5 -3 12 0 30946. 32028. 415. o
8833 3 -5 3 -12 0 30946. 32028. 415. o
8833 2 5 3 -12 0 30946. 32028. 415. o
8833 1 5 -3 12 0 30946. 32028. 415. o
8834 3 -5 3 -12 1 9. -5. 417. <
8834 1 5 -3 12 -1 9. -5. 417. <
8835 3 4 -3 -12 1 52. 43. 389. <
8835 1 -4 3 12 -1 52. 43. 389. <
8836 3 -4 3 -12 -1 51. 56. 312. <
8836 1 4 -3 12 1 51. 56. 312. <
8837 4 4 3 12 0 14973. 14557. 378. o
8837 3 4 -3 -12 0 14973. 14557. 378. o
8837 2 -4 -3 -12 0 14973. 14557. 378. o
8837 1 -4 3 12 0 14973. 14557. 378. o
8838 4 -4 -3 12 0 15239. 14960. 315. o
8838 3 -4 3 -12 0 15239. 14960. 315. o
8838 2 4 3 -12 0 15239. 14960. 315. o
8838 1 4 -3 12 0 15239. 14960. 315. o
8839 3 4 -3 -12 -1 42. 32. 367. <
8839 1 -4 3 12 1 42. 32. 367. <
8840 3 -4 3 -12 1 48. 27. 317. <
8840 1 4 -3 12 -1 48. 27. 317. <
8841 3 -3 3 -12 -1 7. 85. 445. <
8841 1 3 -3 12 1 7. 85. 445. <
8842 4 -3 -3 12 0 50956. 50701. 448. o
8842 3 -3 3 -12 0 50956. 50701. 448. o
8842 2 3 3 -12 0 50956. 50701. 448. o
8842 1 3 -3 12 0 50956. 50701. 448. o
8843 3 -3 3 -12 1 3. 54. 451. <
8843 1 3 -3 12 -1 3. 54. 451. <
8844 3 -2 3 -12 -1 157. 103. 229. <
8844 1 2 -3 12 1 157. 103. 229. <
8845 4 -2 -3 12 0 4769. 4654. 231. o
8845 3 -2 3 -12 0 4769. 4654. 231. o
8845 2 2 3 -12 0 4769. 4654. 231. o
8845 1 2 -3 12 0 4769. 4654. 231. o
8846 3 -2 3 -12 1 82. 49. 232. <
8846 1 2 -3 12 -1 82. 49. 232. <
8847 3 1 -3 -12 1 244. 119. 372. <
8847 1 -1 3 12 -1 244. 119. 372. <
8848 4 1 3 12 0 28364. 28586. 368. o
8848 3 1 -3 -12 0 28364. 28586. 368. o
8848 2 -1 -3 -12 0 28364. 28586. 368. o
8848 1 -1 3 12 0 28364. 28586. 368. o
8849 3 1 -3 -12 -1 5. 33. 364. <
8849 1 -1 3 12 1 5. 33. 364. <
8850 3 0 -3 -12 1 249. 178. 194. <
8850 1 0 3 12 -1 249. 178. 194. <
8851 4 0 3 12 0 188. 532. 193. o
8851 3 0 -3 -12 0 188. 532. 193. o
8851 2 0 -3 -12 0 188. 532. 193. o
8851 1 0 3 12 0 188. 532. 193. o
8852 3 0 -3 -12 -1 184. 153. 191. <
8852 1 0 3 12 1 184. 153. 191. <
8853 3 -1 -3 -12 1 41. 66. 351. <
8853 1 1 3 12 -1 41. 66. 351. <
8854 4 -1 3 12 0 28368. 28018. 349. o
8854 3 -1 -3 -12 0 28368. 28018. 349. o
8854 2 1 -3 -12 0 28368. 28018. 349. o
8854 1 1 3 12 0 28368. 28018. 349. o
8855 3 -1 -3 -12 -1 151. 131. 346. <
8855 1 1 3 12 1 151. 131. 346. <
8856 3 -2 -3 -12 1 62. -7. 211. <
8856 1 2 3 12 -1 62. -7. 211. <
8857 4 -2 3 12 0 4906. 4341. 210. o
8857 3 -2 -3 -12 0 4906. 4341. 210. o
8857 2 2 -3 -12 0 4906. 4341. 210. o
8857 1 2 3 12 0 4906. 4341. 210. o
8858 3 -2 -3 -12 -1 41. 11. 209. <
8858 1 2 3 12 1 41. 11. 209. <
8859 3 -3 -3 -12 1 0. 183. 435. <
8859 1 3 3 12 -1 0. 183. 435. <
8860 4 -3 3 12 0 51524. 49572. 433. o
8860 3 -3 -3 -12 0 51524. 49572. 433. o
8860 2 3 -3 -12 0 51524. 49572. 433. o
8860 1 3 3 12 0 51524. 49572. 433. o
8861 3 -3 -3 -12 -1 15. 88. 431. <
8861 1 3 3 12 1 15. 88. 431. <
8862 3 -4 -3 -12 1 286. 307. 289. <
8862 1 4 3 12 -1 286. 307. 289. <
8863 4 -4 3 12 0 15079. 14692. 287. o
8863 3 -4 -3 -12 0 15079. 14692. 287. o
8863 2 4 -3 -12 0 15079. 14692. 287. o
8863 1 4 3 12 0 15079. 14692. 287. o
8864 3 -4 -3 -12 -1 67. 87. 287. <
8864 1 4 3 12 1 67. 87. 287. <
8865 3 -5 -3 -12 1 343. 439. 369. <
8865 1 5 3 12 -1 343. 439. 369. <
8866 4 -5 3 12 0 30835. 30835. 369. o
8866 3 -5 -3 -12 0 30835. 30835. 369. o
8866 2 5 -3 -12 0 30835. 30835. 369. o
8866 1 5 3 12 0 30835. 30835. 369. o
8867 3 -5 -3 -12 -1 203. 263. 368. <
8867 1 5 3 12 1 203. 263. 368. <
8868 3 -6 -3 -12 1 8. 278. 405. <
8868 1 6 3 12 -1 8. 278. 405. <
8869 4 -6 3 12 0 38715. 38458. 404. o
8869 3 -6 -3 -12 0 38715. 38458. 404. o
8869 2 6 -3 -12 0 38715. 38458. 404. o
8869 1 6 3 12 0 38715. 38458. 404. o
8870 3 -6 -3 -12 -1 142. 303. 404. <
8870 1 6 3 12 1 142. 303. 404. <
8871 3 -7 -3 -12 1 633. 829. 140. o
8871 1 7 3 12 -1 633. 829. 140. o
8872 3 -6 4 -12 -1 448. 315. 420. <
8872 1 6 -4 12 1 448. 315. 420. <
8873 4 -6 -4 12 0 26821. 27845. 423. o
8873 3 -6 4 -12 0 26821. 27845. 423. o
8873 2 6 4 -12 0 26821. 27845. 423. o
8873 1 6 -4 12 0 26821. 27845. 423. o
8874 3 -6 4 -12 1 310. 252. 425. <
8874 1 6 -4 12 -1 310. 252. 425. <
8875 3 5 -4 -12 1 716. 907. 569. <
8875 1 -5 4 12 -1 716. 907. 569. <
8876 3 -5 4 -12 -1 732. 801. 482. <
8876 1 5 -4 12 1 732. 801. 482. <
8877 4 5 4 12 0 44042. 39880. 556. o
8877 3 5 -4 -12 0 44042. 39880. 556. o
8877 2 -5 -4 -12 0 44042. 39880. 556. o
8877 1 -5 4 12 0 44042. 39880. 556. o
8878 4 -5 -4 12 0 44114. 45673. 485. o
8878 3 -5 4 -12 0 44114. 45673. 485. o
8878 2 5 4 -12 0 44114. 45673. 485. o
8878 1 5 -4 12 0 44114. 45673. 485. o
8879 3 5 -4 -12 -1 151. 132. 544. <
8879 1 -5 4 12 1 151. 132. 544. <
8880 3 -5 4 -12 1 156. 249. 487. <
8880 1 5 -4 12 -1 156. 249. 487. <
8881 3 4 -4 -12 1 131. 46. 385. <
8881 1 -4 4 12 -1 131. 46. 385. <
8882 3 -4 4 -12 -1 124. 39. 289. <
8882 1 4 -4 12 1 124. 39. 289. <
8883 4 4 4 12 0 11849. 11642. 376. o
8883 3 4 -4 -12 0 11849. 11642. 376. o
8883 2 -4 -4 -12 0 11849. 11642. 376. o
8883 1 -4 4 12 0 11849. 11642. 376. o
8884 4 -4 -4 12 0 11732. 11335. 291. o
8884 3 -4 4 -12 0 11732. 11335. 291. o
8884 2 4 4 -12 0 11732. 11335. 291. o
8884 1 4 -4 12 0 11732. 11335. 291. o
8885 3 4 -4 -12 -1 98. 67. 367. <
8885 1 -4 4 12 1 98. 67. 367. <
8886 3 -4 4 -12 1 89. 86. 292. <
8886 1 4 -4 12 -1 89. 86. 292. <
8887 3 -3 4 -12 -1 12. 19. 307. <
8887 1 3 -4 12 1 12. 19. 307. <
8888 4 -3 -4 12 0 15567. 14698. 310. o
8888 3 -3 4 -12 0 15567. 14698. 310. o
8888 2 3 4 -12 0 15567. 14698. 310. o
8888 1 3 -4 12 0 15567. 14698. 310. o
8889 3 -3 4 -12 1 85. 43. 312. <
8889 1 3 -4 12 -1 85. 43. 312. <
8890 3 2 -4 -12 1 59. 57. 264. <
8890 1 -2 4 12 -1 59. 57. 264. <
8891 3 -2 4 -12 -1 65. 18. 233. <
8891 1 2 -4 12 1 65. 18. 233. <
8892 4 2 4 12 0 4805. 4220. 261. o
8892 3 2 -4 -12 0 4805. 4220. 261. o
8892 2 -2 -4 -12 0 4805. 4220. 261. o
8892 1 -2 4 12 0 4805. 4220. 261. o
8893 4 -2 -4 12 0 4651. 4260. 235. o
8893 3 -2 4 -12 0 4651. 4260. 235. o
8893 2 2 4 -12 0 4651. 4260. 235. o
8893 1 2 -4 12 0 4651. 4260. 235. o
8894 3 2 -4 -12 -1 120. 140. 257. <
8894 1 -2 4 12 1 120. 140. 257. <
8895 3 -2 4 -12 1 124. 70. 237. <
8895 1 2 -4 12 -1 124. 70. 237. <
8896 3 1 -4 -12 1 4. 3. 250. <
8896 1 -1 4 12 -1 4. 3. 250. <
8897 4 1 4 12 0 3565. 3886. 248. o
8897 3 1 -4 -12 0 3565. 3886. 248. o
8897 2 -1 -4 -12 0 3565. 3886. 248. o
8897 1 -1 4 12 0 3565. 3886. 248. o
8898 3 1 -4 -12 -1 23. -2. 245. <
8898 1 -1 4 12 1 23. -2. 245. <
8899 3 0 -4 -12 1 143. 10. 195. <
8899 1 0 4 12 -1 143. 10. 195. <
8900 4 0 4 12 0 451. 225. 194. <
8900 3 0 -4 -12 0 451. 225. 194. <
8900 2 0 -4 -12 0 451. 225. 194. <
8900 1 0 4 12 0 451. 225. 194. <
8901 3 0 -4 -12 -1 36. 21. 193. <
8901 1 0 4 12 1 36. 21. 193. <
8902 3 -1 -4 -12 1 249. 165. 236. <
8902 1 1 4 12 -1 249. 165. 236. <
8903 4 -1 4 12 0 3584. 3635. 234. o
8903 3 -1 -4 -12 0 3584. 3635. 234. o
8903 2 1 -4 -12 0 3584. 3635. 234. o
8903 1 1 4 12 0 3584. 3635. 234. o
8904 3 -1 -4 -12 -1 42. 63. 233. <
8904 1 1 4 12 1 42. 63. 233. <
8905 3 -2 -4 -12 1 64. 27. 238. <
8905 1 2 4 12 -1 64. 27. 238. <
8906 4 -2 4 12 0 5225. 4930. 237. o
8906 3 -2 -4 -12 0 5225. 4930. 237. o
8906 2 2 -4 -12 0 5225. 4930. 237. o
8906 1 2 4 12 0 5225. 4930. 237. o
8907 3 -2 -4 -12 -1 128. 23. 236. <
8907 1 2 4 12 1 128. 23. 236. <
8908 3 -3 -4 -12 1 187. 255. 297. <
8908 1 3 4 12 -1 187. 255. 297. <
8909 4 -3 4 12 0 15394. 15529. 296. o
8909 3 -3 -4 -12 0 15394. 15529. 296. o
8909 2 3 -4 -12 0 15394. 15529. 296. o
8909 1 3 4 12 0 15394. 15529. 296. o
8910 3 -3 -4 -12 -1 47. 61. 295. <
8910 1 3 4 12 1 47. 61. 295. <
8911 3 -4 -4 -12 1 36. 93. 281. <
8911 1 4 4 12 -1 36. 93. 281. <
8912 4 -4 4 12 0 11325. 12305. 280. o
8912 3 -4 -4 -12 0 11325. 12305. 280. o
8912 2 4 -4 -12 0 11325. 12305. 280. o
8912 1 4 4 12 0 11325. 12305. 280. o
8913 3 -4 -4 -12 -1 3. 26. 279. <
8913 1 4 4 12 1 3. 26. 279. <
8914 3 -5 -4 -12 1 94. 282. 432. <
8914 1 5 4 12 -1 94. 282. 432. <
8915 4 -5 4 12 0 44983. 45711. 431. o
8915 3 -5 -4 -12 0 44983. 45711. 431. o
8915 2 5 -4 -12 0 44983. 45711. 431. o
8915 1 5 4 12 0 44983. 45711. 431. o
8916 3 -5 -4 -12 -1 111. 258. 431. <
8916 1 5 4 12 1 111. 258. 431. <
8917 3 -6 -4 -12 1 85. 194. 358. <
8917 1 6 4 12 -1 85. 194. 358. <
8918 4 -6 4 12 0 27692. 26685. 357. o
8918 3 -6 -4 -12 0 27692. 26685. 357. o
8918 2 6 -4 -12 0 27692. 26685. 357. o
8918 1 6 4 12 0 27692. 26685. 357. o
8919 3 -6 -4 -12 -1 110. 138. 357. <
8919 1 6 4 12 1 110. 138. 357. <
8920 3 5 -5 -12 1 752. 819. 851. <
8920 1 -5 5 12 -1 752. 819. 851. <
8921 3 -5 5 -12 -1 754. 730. 701. <
8921 1 5 -5 12 1 754. 730. 701. <
8922 4 5 5 12 0 108434. 99258. 834. o
8922 3 5 -5 -12 0 108434. 99258. 834. o
8922 2 -5 -5 -12 0 108434. 99258. 834. o
8922 1 -5 5 12 0 108434. 99258. 834. o
8923 4 -5 -5 12 0 108348. 107629. 705. o
8923 3 -5 5 -12 0 108348. 107629. 705. o
8923 2 5 5 -12 0 108348. 107629. 705. o
8923 1 5 -5 12 0 108348. 107629. 705. o
8924 3 5 -5 -12 -1 654. 1220. 818. <
8924 1 -5 5 12 1 654. 1220. 818. <
8925 3 -5 5 -12 1 647. 771. 709. <
8925 1 5 -5 12 -1 647. 771. 709. <
8926 3 4 -5 -12 1 165. 164. 572. <
8926 1 -4 5 12 -1 165. 164. 572. <
8927 3 -4 5 -12 -1 159. 194. 463. <
8927 1 4 -5 12 1 159. 194. 463. <
8928 4 4 5 12 0 43887. 42728. 563. o
8928 3 4 -5 -12 0 43887. 42728. 563. o
8928 2 -4 -5 -12 0 43887. 42728. 563. o
8928 1 -4 5 12 0 43887. 42728. 563. o
8929 4 -4 -5 12 0 43826. 42648. 466. o
8929 3 -4 5 -12 0 43826. 42648. 466. o
8929 2 4 5 -12 0 43826. 42648. 466. o
8929 1 4 -5 12 0 43826. 42648. 466. o
8930 3 4 -5 -12 -1 745. 518. 555. <
8930 1 -4 5 12 1 745. 518. 555. <
8931 3 -4 5 -12 1 752. 645. 470. <
8931 1 4 -5 12 -1 752. 645. 470. <
8932 3 -3 5 -12 -1 71. 47. 380. <
8932 1 3 -5 12 1 71. 47. 380. <
8933 4 -3 -5 12 0 28556. 28986. 384. o
8933 3 -3 5 -12 0 28556. 28986. 384. o
8933 2 3 5 -12 0 28556. 28986. 384. o
8933 1 3 -5 12 0 28556. 28986. 384. o
8934 3 -3 5 -12 1 36. 16. 387. <
8934 1 3 -5 12 -1 36. 16. 387. <
8935 3 2 -5 -12 1 83. 118. 346. <
8935 1 -2 5 12 -1 83. 118. 346. <
8936 4 2 5 12 0 13813. 13462. 342. o
8936 3 2 -5 -12 0 13813. 13462. 342. o
8936 2 -2 -5 -12 0 13813. 13462. 342. o
8936 1 -2 5 12 0 13813. 13462. 342. o
8937 3 2 -5 -12 -1 9. 102. 338. <
8937 1 -2 5 12 1 9. 102. 338. <
8938 3 1 -5 -12 1 210. 86. 403. <
8938 1 -1 5 12 -1 210. 86. 403. <
8939 4 1 5 12 0 27886. 27210. 399. o
8939 3 1 -5 -12 0 27886. 27210. 399. o
8939 2 -1 -5 -12 0 27886. 27210. 399. o
8939 1 -1 5 12 0 27886. 27210. 399. o
8940 3 1 -5 -12 -1 253. 240. 396. <
8940 1 -1 5 12 1 253. 240. 396. <
8941 3 0 -5 -12 1 271. 214. 211. <
8941 1 0 5 12 -1 271. 214. 211. <
8942 4 0 5 12 0 1033. 697. 210. o
8942 3 0 -5 -12 0 1033. 697. 210. o
8942 2 0 -5 -12 0 1033. 697. 210. o
8942 1 0 5 12 0 1033. 697. 210. o
8943 3 0 -5 -12 -1 140. 153. 208. <
8943 1 0 5 12 1 140. 153. 208. <
8944 3 -1 -5 -12 1 219. 252. 370. <
8944 1 1 5 12 -1 219. 252. 370. <
8945 4 -1 5 12 0 28308. 27778. 368. o
8945 3 -1 -5 -12 0 28308. 27778. 368. o
8945 2 1 -5 -12 0 28308. 27778. 368. o
8945 1 1 5 12 0 28308. 27778. 368. o
8946 3 -1 -5 -12 -1 255. 168. 366. <
8946 1 1 5 12 1 255. 168. 366. <
8947 3 -2 -5 -12 1 67. 101. 302. <
8947 1 2 5 12 -1 67. 101. 302. <
8948 4 -2 5 12 0 13833. 13949. 301. o
8948 3 -2 -5 -12 0 13833. 13949. 301. o
8948 2 2 -5 -12 0 13833. 13949. 301. o
8948 1 2 5 12 0 13833. 13949. 301. o
8949 3 -2 -5 -12 -1 42. 10. 299. <
8949 1 2 5 12 1 42. 10. 299. <
8950 3 -3 -5 -12 1 343. 304. 382. <
8950 1 3 5 12 -1 343. 304. 382. <
8951 4 -3 5 12 0 29153. 30823. 381. o
8951 3 -3 -5 -12 0 29153. 30823. 381. o
8951 2 3 -5 -12 0 29153. 30823. 381. o
8951 1 3 5 12 0 29153. 30823. 381. o
8952 3 -3 -5 -12 -1 113. 160. 379. <
8952 1 3 5 12 1 113. 160. 379. <
8953 3 -4 -5 -12 1 12. 222. 439. <
8953 1 4 5 12 -1 12. 222. 439. <
8954 4 -4 5 12 0 44562. 45148. 438. o
8954 3 -4 -5 -12 0 44562. 45148. 438. o
8954 2 4 -5 -12 0 44562. 45148. 438. o
8954 1 4 5 12 0 44562. 45148. 438. o
8955 3 -4 -5 -12 -1 127. 257. 437. <
8955 1 4 5 12 1 127. 257. 437. <
8956 3 -5 -5 -12 1 60. 537. 641. <
8956 1 5 5 12 -1 60. 537. 641. <
8957 4 -5 5 12 0 109460. 109143. 640. o
8957 3 -5 -5 -12 0 109460. 109143. 640. o
8957 2 5 -5 -12 0 109460. 109143. 640. o
8957 1 5 5 12 0 109460. 109143. 640. o
8958 3 -5 -5 -12 -1 39. 212. 640. <
8958 1 5 5 12 1 39. 212. 640. <
8959 3 -4 6 -12 -1 188. 278. 394. <
8959 1 4 -6 12 1 188. 278. 394. <
8960 4 -4 -6 12 0 25442. 25261. 397. o
8960 3 -4 6 -12 0 25442. 25261. 397. o
8960 2 4 6 -12 0 25442. 25261. 397. o
8960 1 4 -6 12 0 25442. 25261. 397. o
8961 3 -4 6 -12 1 356. 398. 399. <
8961 1 4 -6 12 -1 356. 398. 399. <
8962 3 2 -6 -12 1 45. 76. 347. <
8962 1 -2 6 12 -1 45. 76. 347. <
8963 4 2 6 12 0 14730. 14018. 343. o
8963 3 2 -6 -12 0 14730. 14018. 343. o
8963 2 -2 -6 -12 0 14730. 14018. 343. o
8963 1 -2 6 12 0 14730. 14018. 343. o
8964 3 2 -6 -12 -1 3. 14. 339. <
8964 1 -2 6 12 1 3. 14. 339. <
8965 3 1 -6 -12 1 170. 24. 390. <
8965 1 -1 6 12 -1 170. 24. 390. <
8966 4 1 6 12 0 22254. 21735. 387. o
8966 3 1 -6 -12 0 22254. 21735. 387. o
8966 2 -1 -6 -12 0 22254. 21735. 387. o
8966 1 -1 6 12 0 22254. 21735. 387. o
8967 3 1 -6 -12 -1 64. 85. 383. <
8967 1 -1 6 12 1 64. 85. 383. <
8968 3 0 -6 -12 1 364. 543. 569. <
8968 1 0 6 12 -1 364. 543. 569. <
8969 4 0 6 12 0 66639. 70342. 566. o
8969 3 0 -6 -12 0 66639. 70342. 566. o
8969 2 0 -6 -12 0 66639. 70342. 566. o
8969 1 0 6 12 0 66639. 70342. 566. o
8970 3 0 -6 -12 -1 302. 362. 562. <
8970 1 0 6 12 1 302. 362. 562. <
8971 3 -1 -6 -12 1 26. 154. 358. <
8971 1 1 6 12 -1 26. 154. 358. <
8972 4 -1 6 12 0 22027. 22380. 356. o
8972 3 -1 -6 -12 0 22027. 22380. 356. o
8972 2 1 -6 -12 0 22027. 22380. 356. o
8972 1 1 6 12 0 22027. 22380. 356. o
8973 3 -1 -6 -12 -1 182. 222. 354. <
8973 1 1 6 12 1 182. 222. 354. <
8974 3 -2 -6 -12 1 35. 40. 322. <
8974 1 2 6 12 -1 35. 40. 322. <
8975 4 -2 6 12 0 14849. 15198. 321. o
8975 3 -2 -6 -12 0 14849. 15198. 321. o
8975 2 2 -6 -12 0 14849. 15198. 321. o
8975 1 2 6 12 0 14849. 15198. 321. o
8976 3 -2 -6 -12 -1 57. 29. 319. <
8976 1 2 6 12 1 57. 29. 319. <
8977 3 -3 -6 -12 1 74. 305. 425. <
8977 1 3 6 12 -1 74. 305. 425. <
8978 4 -3 6 12 0 36409. 37441. 424. o
8978 3 -3 -6 -12 0 36409. 37441. 424. o
8978 2 3 -6 -12 0 36409. 37441. 424. o
8978 1 3 6 12 0 36409. 37441. 424. o
8979 3 -3 -6 -12 -1 300. 142. 423. <
8979 1 3 6 12 1 300. 142. 423. <
8980 3 -4 -6 -12 1 37. 237. 378. <
8980 1 4 6 12 -1 37. 237. 378. <
8981 4 -4 6 12 0 25334. 27365. 377. o
8981 3 -4 -6 -12 0 25334. 27365. 377. o
8981 2 4 -6 -12 0 25334. 27365. 377. o
8981 1 4 6 12 0 25334. 27365. 377. o
8982 3 -4 -6 -12 -1 67. 130. 377. <
8982 1 4 6 12 1 67. 130. 377. <
8983 3 2 -7 -12 1 690. 604. 368. <
8983 1 -2 7 12 -1 690. 604. 368. <
8984 4 2 7 12 0 9530. 9901. 364. o
8984 3 2 -7 -12 0 9530. 9901. 364. o
8984 2 -2 -7 -12 0 9530. 9901. 364. o
8984 1 -2 7 12 0 9530. 9901. 364. o
8985 3 2 -7 -12 -1 221. 355. 359. <
8985 1 -2 7 12 1 221. 355. 359. <
8986 3 1 -7 -12 1 55. 108. 369. <
8986 1 -1 7 12 -1 55. 108. 369. <
8987 4 1 7 12 0 17563. 17963. 365. o
8987 3 1 -7 -12 0 17563. 17963. 365. o
8987 2 -1 -7 -12 0 17563. 17963. 365. o
8987 1 -1 7 12 0 17563. 17963. 365. o
8988 3 1 -7 -12 -1 59. 82. 363. <
8988 1 -1 7 12 1 59. 82. 363. <
8989 3 0 -7 -12 1 304. 165. 276. <
8989 1 0 7 12 -1 304. 165. 276. <
8990 4 0 7 12 0 1094. 2919. 275. o
8990 3 0 -7 -12 0 1094. 2919. 275. o
8990 2 0 -7 -12 0 1094. 2919. 275. o
8990 1 0 7 12 0 1094. 2919. 275. o
8991 3 0 -7 -12 -1 345. 203. 273. <
8991 1 0 7 12 1 345. 203. 273. <
8992 3 -1 -7 -12 1 2. 33. 372. <
8992 1 1 7 12 -1 2. 33. 372. <
8993 4 -1 7 12 0 18379. 20250. 370. o
8993 3 -1 -7 -12 0 18379. 20250. 370. o
8993 2 1 -7 -12 0 18379. 20250. 370. o
8993 1 1 7 12 0 18379. 20250. 370. o
8994 3 -1 -7 -12 -1 61. 149. 369. <
8994 1 1 7 12 1 61. 149. 369. <
8995 3 -2 -7 -12 1 309. 342. 269. <
8995 1 2 7 12 -1 309. 342. 269. <
8996 4 -2 7 12 0 9953. 10590. 268. o
8996 3 -2 -7 -12 0 9953. 10590. 268. o
8996 2 2 -7 -12 0 9953. 10590. 268. o
8996 1 2 7 12 0 9953. 10590. 268. o
8997 3 -3 -7 -12 1 596. 725. 139. o
8997 1 3 7 12 -1 596. 725. 139. o
8998 4 0 0 13 0 22. 61. 193. <
8998 3 0 0 -13 0 22. 61. 193. <
8998 2 0 0 -13 0 22. 61. 193. <
8998 1 0 0 13 0 22. 61. 193. <
8999 3 0 0 -13 -1 57. 18. 191. <
8999 1 0 0 13 1 57. 18. 191. <
9000 3 0 0 -13 1 57. -5. 194. <
9000 1 0 0 13 -1 57. -5. 194. <
9001 3 -1 0 -13 1 162. 90. 207. <
9001 1 1 0 13 -1 162. 90. 207. <
9002 4 -1 0 13 0 874. 1277. 205. o
9002 3 -1 0 -13 0 874. 1277. 205. o
9002 2 1 0 -13 0 874. 1277. 205. o
9002 1 1 0 13 0 874. 1277. 205. o
9003 3 -1 0 -13 -1 357. 75. 204. <
9003 1 1 0 13 1 357. 75. 204. <
9004 3 -2 0 -13 1 863. 492. 205. o
9004 1 2 0 13 -1 863. 492. 205. o
9005 4 -2 0 13 0 2422. 2101. 204. o
9005 3 -2 0 -13 0 2422. 2101. 204. o
9005 2 2 0 -13 0 2422. 2101. 204. o
9005 1 2 0 13 0 2422. 2101. 204. o
9006 3 -2 0 -13 -1 615. 347. 203. <
9006 1 2 0 13 1 615. 347. 203. <
9007 3 -3 0 -13 1 362. 276. 443. <
9007 1 3 0 13 -1 362. 276. 443. <
9008 4 -3 0 13 0 52198. 48000. 441. o
9008 3 -3 0 -13 0 52198. 48000. 441. o
9008 2 3 0 -13 0 52198. 48000. 441. o
9008 1 3 0 13 0 52198. 48000. 441. o
9009 3 -3 0 -13 -1 198. 260. 439. <
9009 1 3 0 13 1 198. 260. 439. <
9010 3 -4 0 -13 1 133. 133. 195. <
9010 1 4 0 13 -1 133. 133. 195. <
9011 4 -4 0 13 0 453. 332. 194. <
9011 3 -4 0 -13 0 453. 332. 194. <
9011 2 4 0 -13 0 453. 332. 194. <
9011 1 4 0 13 0 453. 332. 194. <
9012 3 -4 0 -13 -1 87. 28. 194. <
9012 1 4 0 13 1 87. 28. 194. <
9013 3 -5 0 -13 1 104. 6. 226. <
9013 1 5 0 13 -1 104. 6. 226. <
9014 4 -5 0 13 0 791. 909. 225. o
9014 3 -5 0 -13 0 791. 909. 225. o
9014 2 5 0 -13 0 791. 909. 225. o
9014 1 5 0 13 0 791. 909. 225. o
9015 3 -5 0 -13 -1 74. 39. 224. <
9015 1 5 0 13 1 74. 39. 224. <
9016 3 -5 1 -13 -1 347. 210. 255. <
9016 1 5 -1 13 1 347. 210. 255. <
9017 4 -5 -1 13 0 2602. 2781. 256. o
9017 3 -5 1 -13 0 2602. 2781. 256. o
9017 2 5 1 -13 0 2602. 2781. 256. o
9017 1 5 -1 13 0 2602. 2781. 256. o
9018 3 -5 1 -13 1 52. 75. 258. <
9018 1 5 -1 13 -1 52. 75. 258. <
9019 3 -4 1 -13 -1 47. 57. 307. <
9019 1 4 -1 13 1 47. 57. 307. <
9020 4 -4 -1 13 0 16416. 15699. 309. o
9020 3 -4 1 -13 0 16416. 15699. 309. o
9020 2 4 1 -13 0 16416. 15699. 309. o
9020 1 4 -1 13 0 16416. 15699. 309. o
9021 3 -4 1 -13 1 123. 67. 311. <
9021 1 4 -1 13 -1 123. 67. 311. <
9022 3 -3 1 -13 -1 24. -8. 207. <
9022 1 3 -1 13 1 24. -8. 207. <
9023 4 -3 -1 13 0 558. 350. 208. <
9023 3 -3 1 -13 0 558. 350. 208. <
9023 2 3 1 -13 0 558. 350. 208. <
9023 1 3 -1 13 0 558. 350. 208. <
9024 3 -3 1 -13 1 10. 29. 209. <
9024 1 3 -1 13 -1 10. 29. 209. <
9025 3 2 -1 -13 1 291. 326. 247. <
9025 1 -2 1 13 -1 291. 326. 247. <
9026 3 -2 1 -13 -1 284. 271. 205. <
9026 1 2 -1 13 1 284. 271. 205. <
9027 4 2 1 13 0 3104. 2712. 244. o
9027 3 2 -1 -13 0 3104. 2712. 244. o
9027 2 -2 -1 -13 0 3104. 2712. 244. o
9027 1 -2 1 13 0 3104. 2712. 244. o
9028 4 -2 -1 13 0 2762. 2786. 206. o
9028 3 -2 1 -13 0 2762. 2786. 206. o
9028 2 2 1 -13 0 2762. 2786. 206. o
9028 1 2 -1 13 0 2762. 2786. 206. o
9029 3 2 -1 -13 -1 222. 14. 241. <
9029 1 -2 1 13 1 222. 14. 241. <
9030 3 -2 1 -13 1 227. 28. 207. <
9030 1 2 -1 13 -1 227. 28. 207. <
9031 3 1 -1 -13 1 652. 555. 480. <
9031 1 -1 1 13 -1 652. 555. 480. <
9032 4 1 1 13 0 56283. 51978. 475. o
9032 3 1 -1 -13 0 56283. 51978. 475. o
9032 2 -1 -1 -13 0 56283. 51978. 475. o
9032 1 -1 1 13 0 56283. 51978. 475. o
9033 3 1 -1 -13 -1 740. 537. 470. <
9033 1 -1 1 13 1 740. 537. 470. <
9034 3 0 -1 -13 1 69. 18. 208. <
9034 1 0 1 13 -1 69. 18. 208. <
9035 3 0 1 -13 -1 68. 10. 198. <
9035 1 0 -1 13 1 68. 10. 198. <
9036 4 0 1 13 0 509. 658. 207. o
9036 3 0 -1 -13 0 509. 658. 207. o
9036 2 0 -1 -13 0 509. 658. 207. o
9036 1 0 1 13 0 509. 658. 207. o
9037 4 0 -1 13 0 544. 684. 200. o
9037 3 0 1 -13 0 544. 684. 200. o
9037 2 0 1 -13 0 544. 684. 200. o
9037 1 0 -1 13 0 544. 684. 200. o
9038 3 0 -1 -13 -1 324. 127. 205. <
9038 1 0 1 13 1 324. 127. 205. <
9039 3 0 1 -13 1 332. 17. 202. <
9039 1 0 -1 13 -1 332. 17. 202. <
9040 3 -1 -1 -13 1 46. 109. 458. <
9040 1 1 1 13 -1 46. 109. 458. <
9041 4 -1 1 13 0 55874. 52613. 455. o
9041 3 -1 -1 -13 0 55874. 52613. 455. o
9041 2 1 -1 -13 0 55874. 52613. 455. o
9041 1 1 1 13 0 55874. 52613. 455. o
9042 3 -1 -1 -13 -1 4. 73. 451. <
9042 1 1 1 13 1 4. 73. 451. <
9043 3 -2 -1 -13 1 880. 835. 220. o
9043 1 2 1 13 -1 880. 835. 220. o
9044 4 -2 1 13 0 3371. 3091. 219. o
9044 3 -2 -1 -13 0 3371. 3091. 219. o
9044 2 2 -1 -13 0 3371. 3091. 219. o
9044 1 2 1 13 0 3371. 3091. 219. o
9045 3 -2 -1 -13 -1 316. 375. 218. <
9045 1 2 1 13 1 316. 375. 218. <
9046 3 -3 -1 -13 1 46. 11. 212. <
9046 1 3 1 13 -1 46. 11. 212. <
9047 4 -3 1 13 0 502. 612. 211. o
9047 3 -3 -1 -13 0 502. 612. 211. o
9047 2 3 -1 -13 0 502. 612. 211. o
9047 1 3 1 13 0 502. 612. 211. o
9048 3 -3 -1 -13 -1 249. 171. 210. <
9048 1 3 1 13 1 249. 171. 210. <
9049 3 -4 -1 -13 1 435. 352. 314. <
9049 1 4 1 13 -1 435. 352. 314. <
9050 4 -4 1 13 0 17197. 15735. 313. o
9050 3 -4 -1 -13 0 17197. 15735. 313. o
9050 2 4 -1 -13 0 17197. 15735. 313. o
9050 1 4 1 13 0 17197. 15735. 313. o
9051 3 -4 -1 -13 -1 90. 62. 311. <
9051 1 4 1 13 1 90. 62. 311. <
9052 3 -5 -1 -13 1 429. 449. 230. <
9052 1 5 1 13 -1 429. 449. 230. <
9053 4 -5 1 13 0 2092. 2201. 229. o
9053 3 -5 -1 -13 0 2092. 2201. 229. o
9053 2 5 -1 -13 0 2092. 2201. 229. o
9053 1 5 1 13 0 2092. 2201. 229. o
9054 3 -5 -1 -13 -1 237. 156. 228. <
9054 1 5 1 13 1 237. 156. 228. <
9055 3 -5 2 -13 -1 371. 228. 273. <
9055 1 5 -2 13 1 371. 228. 273. <
9056 4 -5 -2 13 0 3797. 3903. 275. o
9056 3 -5 2 -13 0 3797. 3903. 275. o
9056 2 5 2 -13 0 3797. 3903. 275. o
9056 1 5 -2 13 0 3797. 3903. 275. o
9057 3 -5 2 -13 1 53. 112. 276. <
9057 1 5 -2 13 -1 53. 112. 276. <
9058 3 -4 2 -13 -1 284. 253. 260. <
9058 1 4 -2 13 1 284. 253. 260. <
9059 4 -4 -2 13 0 5414. 5018. 262. o
9059 3 -4 2 -13 0 5414. 5018. 262. o
9059 2 4 2 -13 0 5414. 5018. 262. o
9059 1 4 -2 13 0 5414. 5018. 262. o
9060 3 -4 2 -13 1 10. 32. 263. <
9060 1 4 -2 13 -1 10. 32. 263. <
9061 3 3 -2 -13 1 139. -48. 267. <
9061 1 -3 2 13 -1 139. -48. 267. <
9062 3 -3 2 -13 -1 134. 0. 211. <
9062 1 3 -2 13 1 134. 0. 211. <
9063 4 3 2 13 0 1976. 2306. 263. o
9063 3 3 -2 -13 0 1976. 2306. 263. o
9063 2 -3 -2 -13 0 1976. 2306. 263. o
9063 1 -3 2 13 0 1976. 2306. 263. o
9064 4 -3 -2 13 0 1895. 1922. 213. o
9064 3 -3 2 -13 0 1895. 1922. 213. o
9064 2 3 2 -13 0 1895. 1922. 213. o
9064 1 3 -2 13 0 1895. 1922. 213. o
9065 3 3 -2 -13 -1 18. 80. 258. <
9065 1 -3 2 13 1 18. 80. 258. <
9066 3 -3 2 -13 1 20. 55. 215. <
9066 1 3 -2 13 -1 20. 55. 215. <
9067 3 2 -2 -13 1 267. 154. 294. <
9067 1 -2 2 13 -1 267. 154. 294. <
9068 3 -2 2 -13 -1 269. 123. 257. <
9068 1 2 -2 13 1 269. 123. 257. <
9069 4 2 2 13 0 8921. 8298. 290. o
9069 3 2 -2 -13 0 8921. 8298. 290. o
9069 2 -2 -2 -13 0 8921. 8298. 290. o
9069 1 -2 2 13 0 8921. 8298. 290. o
9070 4 -2 -2 13 0 8747. 8260. 259. o
9070 3 -2 2 -13 0 8747. 8260. 259. o
9070 2 2 2 -13 0 8747. 8260. 259. o
9070 1 2 -2 13 0 8747. 8260. 259. o
9071 3 2 -2 -13 -1 151. 119. 286. <
9071 1 -2 2 13 1 151. 119. 286. <
9072 3 -2 2 -13 1 155. 167. 261. <
9072 1 2 -2 13 -1 155. 167. 261. <
9073 3 1 -2 -13 1 23. 97. 234. <
9073 1 -1 2 13 -1 23. 97. 234. <
9074 3 -1 2 -13 -1 24. 57. 207. <
9074 1 1 -2 13 1 24. 57. 207. <
9075 4 1 2 13 0 1989. 1942. 231. o
9075 3 1 -2 -13 0 1989. 1942. 231. o
9075 2 -1 -2 -13 0 1989. 1942. 231. o
9075 1 -1 2 13 0 1989. 1942. 231. o
9076 4 -1 -2 13 0 2097. 1975. 208. o
9076 3 -1 2 -13 0 2097. 1975. 208. o
9076 2 1 2 -13 0 2097. 1975. 208. o
9076 1 1 -2 13 0 2097. 1975. 208. o
9077 3 1 -2 -13 -1 408. 321. 229. <
9077 1 -1 2 13 1 408. 321. 229. <
9078 3 -1 2 -13 1 410. 185. 210. <
9078 1 1 -2 13 -1 410. 185. 210. <
9079 3 -1 -2 -13 1 732. 804. 213. o
9079 1 1 2 13 -1 732. 804. 213. o
9080 4 -1 2 13 0 2187. 1825. 211. o
9080 3 -1 -2 -13 0 2187. 1825. 211. o
9080 2 1 -2 -13 0 2187. 1825. 211. o
9080 1 1 2 13 0 2187. 1825. 211. o
9081 3 -1 -2 -13 -1 372. 255. 210. <
9081 1 1 2 13 1 372. 255. 210. <
9082 3 -2 -2 -13 1 82. 47. 267. <
9082 1 2 2 13 -1 82. 47. 267. <
9083 4 -2 2 13 0 8700. 8190. 265. o
9083 3 -2 -2 -13 0 8700. 8190. 265. o
9083 2 2 -2 -13 0 8700. 8190. 265. o
9083 1 2 2 13 0 8700. 8190. 265. o
9084 3 -2 -2 -13 -1 48. 49. 264. <
9084 1 2 2 13 1 48. 49. 264. <
9085 3 -3 -2 -13 1 133. 77. 223. <
9085 1 3 2 13 -1 133. 77. 223. <
9086 4 -3 2 13 0 2107. 2037. 221. o
9086 3 -3 -2 -13 0 2107. 2037. 221. o
9086 2 3 -2 -13 0 2107. 2037. 221. o
9086 1 3 2 13 0 2107. 2037. 221. o
9087 3 -3 -2 -13 -1 247. 14. 220. <
9087 1 3 2 13 1 247. 14. 220. <
9088 3 -4 -2 -13 1 96. 56. 251. <
9088 1 4 2 13 -1 96. 56. 251. <
9089 4 -4 2 13 0 5346. 5138. 250. o
9089 3 -4 -2 -13 0 5346. 5138. 250. o
9089 2 4 -2 -13 0 5346. 5138. 250. o
9089 1 4 2 13 0 5346. 5138. 250. o
9090 3 -4 -2 -13 -1 722. 556. 249. o
9090 1 4 2 13 1 722. 556. 249. o
9091 3 -5 -2 -13 1 48. 61. 240. <
9091 1 5 2 13 -1 48. 61. 240. <
9092 4 -5 2 13 0 3924. 3994. 240. o
9092 3 -5 -2 -13 0 3924. 3994. 240. o
9092 2 5 -2 -13 0 3924. 3994. 240. o
9092 1 5 2 13 0 3924. 3994. 240. o
9093 3 -5 -2 -13 -1 104. 79. 239. <
9093 1 5 2 13 1 104. 79. 239. <
9094 3 -4 3 -13 -1 195. 77. 231. <
9094 1 4 -3 13 1 195. 77. 231. <
9095 4 -4 -3 13 0 1695. 2314. 233. o
9095 3 -4 3 -13 0 1695. 2314. 233. o
9095 2 4 3 -13 0 1695. 2314. 233. o
9095 1 4 -3 13 0 1695. 2314. 233. o
9096 3 -4 3 -13 1 76. 76. 235. <
9096 1 4 -3 13 -1 76. 76. 235. <
9097 3 -3 3 -13 -1 67. -6. 218. <
9097 1 3 -3 13 1 67. -6. 218. <
9098 4 -3 -3 13 0 382. 475. 219. o
9098 3 -3 3 -13 0 382. 475. 219. o
9098 2 3 3 -13 0 382. 475. 219. o
9098 1 3 -3 13 0 382. 475. 219. o
9099 3 -3 3 -13 1 107. 93. 221. <
9099 1 3 -3 13 -1 107. 93. 221. <
9100 3 -2 3 -13 -1 114. 38. 227. <
9100 1 2 -3 13 1 114. 38. 227. <
9101 4 -2 -3 13 0 1851. 1810. 229. o
9101 3 -2 3 -13 0 1851. 1810. 229. o
9101 2 2 3 -13 0 1851. 1810. 229. o
9101 1 2 -3 13 0 1851. 1810. 229. o
9102 3 -2 3 -13 1 142. 8. 231. <
9102 1 2 -3 13 -1 142. 8. 231. <
9103 3 0 -3 -13 1 437. 206. 458. <
9103 1 0 3 13 -1 437. 206. 458. <
9104 4 0 3 13 0 49606. 46220. 454. o
9104 3 0 -3 -13 0 49606. 46220. 454. o
9104 2 0 -3 -13 0 49606. 46220. 454. o
9104 1 0 3 13 0 49606. 46220. 454. o
9105 3 0 -3 -13 -1 469. 192. 450. <
9105 1 0 3 13 1 469. 192. 450. <
9106 3 -1 -3 -13 1 3. -6. 220. <
9106 1 1 3 13 -1 3. -6. 220. <
9107 4 -1 3 13 0 589. 332. 219. <
9107 3 -1 -3 -13 0 589. 332. 219. <
9107 2 1 -3 -13 0 589. 332. 219. <
9107 1 1 3 13 0 589. 332. 219. <
9108 3 -1 -3 -13 -1 231. 125. 217. <
9108 1 1 3 13 1 231. 125. 217. <
9109 3 -2 -3 -13 1 287. 158. 230. <
9109 1 2 3 13 -1 287. 158. 230. <
9110 4 -2 3 13 0 1669. 1823. 229. o
9110 3 -2 -3 -13 0 1669. 1823. 229. o
9110 2 2 -3 -13 0 1669. 1823. 229. o
9110 1 2 3 13 0 1669. 1823. 229. o
9111 3 -2 -3 -13 -1 196. 78. 228. <
9111 1 2 3 13 1 196. 78. 228. <
9112 3 -3 -3 -13 1 84. 193. 216. <
9112 1 3 3 13 -1 84. 193. 216. <
9113 4 -3 3 13 0 360. 192. 215. <
9113 3 -3 -3 -13 0 360. 192. 215. <
9113 2 3 -3 -13 0 360. 192. 215. <
9113 1 3 3 13 0 360. 192. 215. <
9114 3 -3 -3 -13 -1 43. 191. 214. <
9114 1 3 3 13 1 43. 191. 214. <
9115 3 -4 -3 -13 1 316. 176. 224. <
9115 1 4 3 13 -1 316. 176. 224. <
9116 4 -4 3 13 0 1620. 1903. 223. o
9116 3 -4 -3 -13 0 1620. 1903. 223. o
9116 2 4 -3 -13 0 1620. 1903. 223. o
9116 1 4 3 13 0 1620. 1903. 223. o
9117 3 -4 -3 -13 -1 38. 76. 222. <
9117 1 4 3 13 1 38. 76. 222. <
9118 3 3 -4 -13 1 158. 15. 287. <
9118 1 -3 4 13 -1 158. 15. 287. <
9119 3 -3 4 -13 -1 145. 26. 219. <
9119 1 3 -4 13 1 145. 26. 219. <
9120 4 3 4 13 0 2330. 2029. 283. o
9120 3 3 -4 -13 0 2330. 2029. 283. o
9120 2 -3 -4 -13 0 2330. 2029. 283. o
9120 1 -3 4 13 0 2330. 2029. 283. o
9121 4 -3 -4 13 0 2226. 1601. 220. o
9121 3 -3 4 -13 0 2226. 1601. 220. o
9121 2 3 4 -13 0 2226. 1601. 220. o
9121 1 3 -4 13 0 2226. 1601. 220. o
9122 3 3 -4 -13 -1 185. 101. 279. <
9122 1 -3 4 13 1 185. 101. 279. <
9123 3 -3 4 -13 1 190. 38. 222. <
9123 1 3 -4 13 -1 190. 38. 222. <
9124 3 1 -4 -13 1 180. 95. 326. <
9124 1 -1 4 13 -1 180. 95. 326. <
9125 4 1 4 13 0 16040. 14875. 323. o
9125 3 1 -4 -13 0 16040. 14875. 323. o
9125 2 -1 -4 -13 0 16040. 14875. 323. o
9125 1 -1 4 13 0 16040. 14875. 323. o
9126 3 1 -4 -13 -1 55. 62. 320. <
9126 1 -1 4 13 1 55. 62. 320. <
9127 3 0 -4 -13 1 68. 207. 215. <
9127 1 0 4 13 -1 68. 207. 215. <
9128 4 0 4 13 0 663. 305. 213. <
9128 3 0 -4 -13 0 663. 305. 213. <
9128 2 0 -4 -13 0 663. 305. 213. <
9128 1 0 4 13 0 663. 305. 213. <
9129 3 0 -4 -13 -1 126. 85. 212. <
9129 1 0 4 13 1 126. 85. 212. <
9130 3 -1 -4 -13 1 398. 233. 330. <
9130 1 1 4 13 -1 398. 233. 330. <
9131 4 -1 4 13 0 16840. 15640. 329. o
9131 3 -1 -4 -13 0 16840. 15640. 329. o
9131 2 1 -4 -13 0 16840. 15640. 329. o
9131 1 1 4 13 0 16840. 15640. 329. o
9132 3 -1 -4 -13 -1 158. 116. 327. <
9132 1 1 4 13 1 158. 116. 327. <
9133 3 -2 -4 -13 1 80. 104. 249. <
9133 1 2 4 13 -1 80. 104. 249. <
9134 4 -2 4 13 0 5735. 5722. 248. o
9134 3 -2 -4 -13 0 5735. 5722. 248. o
9134 2 2 -4 -13 0 5735. 5722. 248. o
9134 1 2 4 13 0 5735. 5722. 248. o
9135 3 -2 -4 -13 -1 595. 551. 247. o
9135 1 2 4 13 1 595. 551. 247. o
9136 3 -3 -4 -13 1 325. 229. 235. <
9136 1 3 4 13 -1 325. 229. 235. <
9137 4 -3 4 13 0 2147. 2327. 234. o
9137 3 -3 -4 -13 0 2147. 2327. 234. o
9137 2 3 -4 -13 0 2147. 2327. 234. o
9137 1 3 4 13 0 2147. 2327. 234. o
9138 3 -3 -4 -13 -1 150. 35. 233. <
9138 1 3 4 13 1 150. 35. 233. <
9139 3 -4 -4 -13 1 49. 380. 124. o
9139 1 4 4 13 -1 49. 380. 124. o
9140 3 1 -5 -13 1 59. 3. 271. <
9140 1 -1 5 13 -1 59. 3. 271. <
9141 4 1 5 13 0 2209. 2148. 269. o
9141 3 1 -5 -13 0 2209. 2148. 269. o
9141 2 -1 -5 -13 0 2209. 2148. 269. o
9141 1 -1 5 13 0 2209. 2148. 269. o
9142 3 1 -5 -13 -1 208. 152. 267. <
9142 1 -1 5 13 1 208. 152. 267. <
9143 3 0 -5 -13 1 46. 37. 226. <
9143 1 0 5 13 -1 46. 37. 226. <
9144 4 0 5 13 0 570. 912. 224. o
9144 3 0 -5 -13 0 570. 912. 224. o
9144 2 0 -5 -13 0 570. 912. 224. o
9144 1 0 5 13 0 570. 912. 224. o
9145 3 0 -5 -13 -1 10. -13. 223. <
9145 1 0 5 13 1 10. -13. 223. <
9146 3 -1 -5 -13 1 512. 389. 257. <
9146 1 1 5 13 -1 512. 389. 257. <
9147 4 -1 5 13 0 2180. 2370. 255. o
9147 3 -1 -5 -13 0 2180. 2370. 255. o
9147 2 1 -5 -13 0 2180. 2370. 255. o
9147 1 1 5 13 0 2180. 2370. 255. o
9148 3 -1 -5 -13 -1 174. 116. 254. <
9148 1 1 5 13 1 174. 116. 254. <
9149 3 -2 -5 -13 1 8. 70. 243. <
9149 1 2 5 13 -1 8. 70. 243. <
9150 4 -2 5 13 0 4176. 4133. 242. o
9150 3 -2 -5 -13 0 4176. 4133. 242. o
9150 2 2 -5 -13 0 4176. 4133. 242. o
9150 1 2 5 13 0 4176. 4133. 242. o
9151 3 -2 -5 -13 -1 243. 93. 241. <
9151 1 2 5 13 1 243. 93. 241. <
9152 4 0 0 14 0 22853. 20686. 344. o
9152 3 0 0 -14 0 22853. 20686. 344. o
9152 2 0 0 -14 0 22853. 20686. 344. o
9152 1 0 0 14 0 22853. 20686. 344. o
9153 3 0 0 -14 -1 201. 14. 341. <
9153 1 0 0 14 1 201. 14. 341. <
9154 3 0 0 -14 1 202. 39. 347. <
9154 1 0 0 14 -1 202. 39. 347. <
9155 3 -1 0 -14 1 95. -139. 213. <
9155 1 1 0 14 -1 95. -139. 213. <
9156 4 -1 0 14 0 895. 502. 211. o
9156 3 -1 0 -14 0 895. 502. 211. o
9156 2 1 0 -14 0 895. 502. 211. o
9156 1 1 0 14 0 895. 502. 211. o
9157 3 -1 0 -14 -1 8. -23. 210. <
9157 1 1 0 14 1 8. -23. 210. <
9158 3 -2 0 -14 1 906. 541. 251. o
9158 1 2 0 14 -1 906. 541. 251. o
9159 4 -2 0 14 0 6914. 5935. 249. o
9159 3 -2 0 -14 0 6914. 5935. 249. o
9159 2 2 0 -14 0 6914. 5935. 249. o
9159 1 2 0 14 0 6914. 5935. 249. o
9160 3 -2 0 -14 -1 82. 47. 248. <
9160 1 2 0 14 1 82. 47. 248. <
9161 3 -2 1 -14 -1 380. 171. 265. <
9161 1 2 -1 14 1 380. 171. 265. <
9162 4 -2 -1 14 0 8000. 7003. 267. o
9162 3 -2 1 -14 0 8000. 7003. 267. o
9162 2 2 1 -14 0 8000. 7003. 267. o
9162 1 2 -1 14 0 8000. 7003. 267. o
9163 3 -2 1 -14 1 18. -13. 268. <
9163 1 2 -1 14 -1 18. -13. 268. <
9164 3 1 -1 -14 1 490. 227. 238. <
9164 1 -1 1 14 -1 490. 227. 238. <
9165 4 1 1 14 0 1383. 1706. 236. o
9165 3 1 -1 -14 0 1383. 1706. 236. o
9165 2 -1 -1 -14 0 1383. 1706. 236. o
9165 1 -1 1 14 0 1383. 1706. 236. o
9166 3 1 -1 -14 -1 232. 184. 233. <
9166 1 -1 1 14 1 232. 184. 233. <
9167 3 0 -1 -14 1 27. 48. 219. <
9167 1 0 1 14 -1 27. 48. 219. <
9168 4 0 1 14 0 277. 48. 217. <
9168 3 0 -1 -14 0 277. 48. 217. <
9168 2 0 -1 -14 0 277. 48. 217. <
9168 1 0 1 14 0 277. 48. 217. <
9169 3 0 -1 -14 -1 10. 47. 215. <
9169 1 0 1 14 1 10. 47. 215. <
9170 3 -1 -1 -14 1 11. 513. 214. o
9170 1 1 1 14 -1 11. 513. 214. o
9171 4 -1 1 14 0 1516. 510. 212. o
9171 3 -1 -1 -14 0 1516. 510. 212. o
9171 2 1 -1 -14 0 1516. 510. 212. o
9171 1 1 1 14 0 1516. 510. 212. o
9172 3 -1 -1 -14 -1 62. 507. 211. o
9172 1 1 1 14 1 62. 507. 211. o
9173 3 -2 -1 -14 1 306. 220. 233. <
9173 1 2 1 14 -1 306. 220. 233. <
9174 4 -2 1 14 0 7947. 7259. 232. o
9174 3 -2 -1 -14 0 7947. 7259. 232. o
9174 2 2 -1 -14 0 7947. 7259. 232. o
9174 1 2 1 14 0 7947. 7259. 232. o
9175 3 1 -2 -14 1 28. 43. 290. <
9175 1 -1 2 14 -1 28. 43. 290. <
9176 4 1 2 14 0 7948. 6895. 287. o
9176 3 1 -2 -14 0 7948. 6895. 287. o
9176 2 -1 -2 -14 0 7948. 6895. 287. o
9176 1 -1 2 14 0 7948. 6895. 287. o
9177 3 1 -2 -14 -1 277. 118. 285. <
9177 1 -1 2 14 1 277. 118. 285. <
9178 3 -1 -2 -14 1 260. 230. 236. <
9178 1 1 2 14 -1 260. 230. 236. <
9179 4 -1 2 14 0 7742. 6931. 234. o
9179 3 -1 -2 -14 0 7742. 6931. 234. o
9179 2 1 -2 -14 0 7742. 6931. 234. o
9179 1 1 2 14 0 7742. 6931. 234. o
loop_
_jana_atom_site_adp_c_label
_jana_atom_site_adp_c_type_symbol
_jana_atom_site_adp_c_111
_jana_atom_site_adp_c_112
_jana_atom_site_adp_c_113
_jana_atom_site_adp_c_122
_jana_atom_site_adp_c_123
_jana_atom_site_adp_c_133
_jana_atom_site_adp_c_222
_jana_atom_site_adp_c_223
_jana_atom_site_adp_c_233
_jana_atom_site_adp_c_333
? ? ? ? ? ? ? ? ? ? ? ?
loop_
_jana_atom_site_adp_d_label
_jana_atom_site_adp_d_type_symbol
_jana_atom_site_adp_d_1111
_jana_atom_site_adp_d_1112
_jana_atom_site_adp_d_1113
_jana_atom_site_adp_d_1122
_jana_atom_site_adp_d_1123
_jana_atom_site_adp_d_1133
_jana_atom_site_adp_d_1222
_jana_atom_site_adp_d_1223
_jana_atom_site_adp_d_1233
_jana_atom_site_adp_d_1333
_jana_atom_site_adp_d_2222
_jana_atom_site_adp_d_2223
_jana_atom_site_adp_d_2233
_jana_atom_site_adp_d_2333
_jana_atom_site_adp_d_3333
? ? ? ? ? ? ? ? ? ? ? ? ? ? ? ? ?
loop_
_jana_atom_site_adp_e_label
_jana_atom_site_adp_e_type_symbol
_jana_atom_site_adp_e_11111
_jana_atom_site_adp_e_11112
_jana_atom_site_adp_e_11113
_jana_atom_site_adp_e_11122
_jana_atom_site_adp_e_11123
_jana_atom_site_adp_e_11133
_jana_atom_site_adp_e_11222
_jana_atom_site_adp_e_11223
_jana_atom_site_adp_e_11233
_jana_atom_site_adp_e_11333
_jana_atom_site_adp_e_12222
_jana_atom_site_adp_e_12223
_jana_atom_site_adp_e_12233
_jana_atom_site_adp_e_12333
_jana_atom_site_adp_e_13333
_jana_atom_site_adp_e_22222
_jana_atom_site_adp_e_22223
_jana_atom_site_adp_e_22233
_jana_atom_site_adp_e_22333
_jana_atom_site_adp_e_23333
_jana_atom_site_adp_e_33333
? ? ? ? ? ? ? ? ? ? ? ? ? ? ? ? ? ? ? ? ? ? ?
loop_
_jana_atom_site_adp_f_label
_jana_atom_site_adp_f_type_symbol
_jana_atom_site_adp_f_111111
_jana_atom_site_adp_f_111112
_jana_atom_site_adp_f_111113
_jana_atom_site_adp_f_111122
_jana_atom_site_adp_f_111123
_jana_atom_site_adp_f_111133
_jana_atom_site_adp_f_111222
_jana_atom_site_adp_f_111223
_jana_atom_site_adp_f_111233
_jana_atom_site_adp_f_111333
_jana_atom_site_adp_f_112222
_jana_atom_site_adp_f_112223
_jana_atom_site_adp_f_112233
_jana_atom_site_adp_f_112333
_jana_atom_site_adp_f_113333
_jana_atom_site_adp_f_122222
_jana_atom_site_adp_f_122223
_jana_atom_site_adp_f_122233
_jana_atom_site_adp_f_122333
_jana_atom_site_adp_f_123333
_jana_atom_site_adp_f_133333
_jana_atom_site_adp_f_222222
_jana_atom_site_adp_f_222223
_jana_atom_site_adp_f_222233
_jana_atom_site_adp_f_222333
_jana_atom_site_adp_f_223333
_jana_atom_site_adp_f_233333
_jana_atom_site_adp_f_333333
? ? ? ? ? ? ? ? ? ? ? ? ? ? ? ? ? ? ? ? ? ? ? ? ? ? ? ? ? ?
loop_
_jana_atom_site_crenel_ortho_func_id
_jana_atom_site_crenel_ortho_func_c
_jana_atom_site_crenel_ortho_func_w
_jana_atom_site_crenel_ortho_func_eps
? ? ? ?
loop_
_jana_atom_site_occ_fourier_absolute_site_label
_jana_atom_site_occ_fourier_absolute
? ?
loop_
_jana_atom_site_occ_legendre_atom_site_label
_jana_atom_site_occ_legendre_param_order
_jana_atom_site_occ_legendre_param_coeff
? ? ?
loop_
_jana_atom_site_occ_crenel_ortho_atom_site_label
_jana_atom_site_occ_crenel_ortho_param_order
_jana_atom_site_occ_crenel_ortho_id
_jana_atom_site_occ_crenel_ortho_param_coeff
? ? ? ?
loop_
_jana_atom_site_displace_legendre_atom_site_label
_jana_atom_site_displace_legendre_axis
_jana_atom_site_displace_legendre_param_order
_jana_atom_site_displace_legendre_param_coeff
? ? ? ?
loop_
_jana_atom_site_displace_crenel_ortho_atom_site_label
_jana_atom_site_displace_crenel_ortho_axis
_jana_atom_site_displace_crenel_ortho_id
_jana_atom_site_displace_crenel_ortho_param_order
_jana_atom_site_displace_crenel_ortho_param_coeff
? ? ? ? ?
loop_
_jana_atom_site_u_legendre_atom_site_label
_jana_atom_site_u_legendre_tens_elem
_jana_atom_site_u_legendre_param_order
_jana_atom_site_u_legendre_param_coeff
? ? ? ?
loop_
_jana_atom_site_u_crenel_ortho_atom_site_label
_jana_atom_site_u_crenel_ortho_tens_elem
_jana_atom_site_u_crenel_ortho_id
_jana_atom_site_u_crenel_ortho_param_order
_jana_atom_site_u_crenel_ortho_param_coeff
? ? ? ? ?
loop_
_jana_atom_site_adp_c_fourier_atom_site_label
_jana_atom_site_adp_c_fourier_tens_elem
_jana_atom_site_adp_c_fourier_wave_vector_seq_id
_jana_atom_site_adp_c_fourier_param_cos
_jana_atom_site_adp_c_fourier_param_sin
? ? ? ? ?
loop_
_jana_atom_site_adp_d_fourier_atom_site_label
_jana_atom_site_adp_d_fourier_tens_elem
_jana_atom_site_adp_d_fourier_wave_vector_seq_id
_jana_atom_site_adp_d_fourier_param_cos
_jana_atom_site_adp_d_fourier_param_sin
? ? ? ? ?
loop_
_jana_atom_site_adp_e_fourier_atom_site_label
_jana_atom_site_adp_e_fourier_tens_elem
_jana_atom_site_adp_e_fourier_wave_vector_seq_id
_jana_atom_site_adp_e_fourier_param_cos
_jana_atom_site_adp_e_fourier_param_sin
? ? ? ? ?
loop_
_jana_atom_site_adp_f_fourier_atom_site_label
_jana_atom_site_adp_f_fourier_tens_elem
_jana_atom_site_adp_f_fourier_wave_vector_seq_id
_jana_atom_site_adp_f_fourier_param_cos
_jana_atom_site_adp_f_fourier_param_sin
? ? ? ? ?
